#------------------------------------------------------------------------------
#$Date: 2021-06-05 21:37:19 +0300 (Sat, 05 Jun 2021) $
#$Revision: 266028 $
#$URL: file:///home/coder/svn-repositories/cod/cif/7/70/69/7706928.cif $
#------------------------------------------------------------------------------
#
# This file is available in the Crystallography Open Database (COD),
# http://www.crystallography.net/
#
# All data on this site have been placed in the public domain by the
# contributors.
#
data_7706928
loop_
_publ_author_name
'Wang, Dandan'
'Zhang, Xinyuan'
'Liang, Fei'
'Hu, Zhanggui'
'Wu, Yicheng'
_publ_section_title
;
 Zn(H<sub>2</sub>C<sub>3</sub>N<sub>3</sub>O<sub>3</sub>)<sub>2</sub>&#x00B7;3H<sub>2</sub>O:
 the first single-<i>d</i><sup>10</sup> transition metal based ultraviolet
 hydroisocyanurate crystal with large birefringence.
;
_journal_issue                   16
_journal_name_full
'Dalton transactions (Cambridge, England : 2003)'
_journal_page_first              5617
_journal_page_last               5623
_journal_paper_doi               10.1039/d1dt00793a
_journal_volume                  50
_journal_year                    2021
_chemical_formula_moiety         'C3 H8 N3 O6 Zn, C3 H2 N3 O3'
_chemical_formula_sum            'C6 H10 N6 O9 Zn'
_chemical_formula_weight         375.57
_space_group_crystal_system      triclinic
_space_group_IT_number           2
_space_group_name_Hall           '-P 1'
_space_group_name_H-M_alt        'P -1'
_atom_sites_solution_hydrogens   difmap
_atom_sites_solution_primary     dual
_audit_creation_date             2020-06-06
_audit_creation_method
;
Olex2 1.2
(compiled 2017.08.10 svn.r3458 for OlexSys, GUI svn.r5381)
;
_audit_update_record
;
2021-02-25 deposited with the CCDC.	2021-03-23 downloaded from the CCDC.
;
_cell_angle_alpha                103.573(5)
_cell_angle_beta                 106.316(6)
_cell_angle_gamma                105.106(5)
_cell_formula_units_Z            2
_cell_length_a                   6.7905(12)
_cell_length_b                   9.2047(16)
_cell_length_c                   11.672(2)
_cell_measurement_reflns_used    5632
_cell_measurement_temperature    298(2)
_cell_measurement_theta_max      26.92
_cell_measurement_theta_min      2.43
_cell_volume                     637.6(2)
_computing_cell_refinement       'SAINT V8.38A (?, 2016)'
_computing_data_reduction        'SAINT V8.38A (?, 2016)'
_computing_molecular_graphics    'Olex2 (Dolomanov et al., 2009)'
_computing_publication_material  'Olex2 (Dolomanov et al., 2009)'
_computing_structure_refinement  'ShelXL (Sheldrick, 2015)'
_computing_structure_solution    'ShelXT (Sheldrick, 2015)'
_diffrn_ambient_temperature      298.0
_diffrn_measured_fraction_theta_full 1.000
_diffrn_measured_fraction_theta_max 0.998
_diffrn_measurement_device_type  'CCD area detector'
_diffrn_measurement_method       'phi and omega scans'
_diffrn_radiation_monochromator  graphite
_diffrn_radiation_type           MoK\a
_diffrn_radiation_wavelength     0.71073
_diffrn_reflns_av_R_equivalents  0.0523
_diffrn_reflns_av_unetI/netI     0.0367
_diffrn_reflns_Laue_measured_fraction_full 1.000
_diffrn_reflns_Laue_measured_fraction_max 0.998
_diffrn_reflns_limit_h_max       8
_diffrn_reflns_limit_h_min       -8
_diffrn_reflns_limit_k_max       11
_diffrn_reflns_limit_k_min       -11
_diffrn_reflns_limit_l_max       15
_diffrn_reflns_limit_l_min       -15
_diffrn_reflns_number            16904
_diffrn_reflns_point_group_measured_fraction_full 1.000
_diffrn_reflns_point_group_measured_fraction_max 0.998
_diffrn_reflns_theta_full        25.242
_diffrn_reflns_theta_max         27.514
_diffrn_reflns_theta_min         2.430
_exptl_absorpt_coefficient_mu    1.991
_exptl_absorpt_correction_T_max  0.7456
_exptl_absorpt_correction_T_min  0.6983
_exptl_absorpt_correction_type   none
_exptl_absorpt_process_details
;
SADABS-2016/2 (Bruker,2016/2) was used for absorption correction.
wR2(int) was 0.1256 before and 0.0580 after correction.
The Ratio of minimum to maximum transmission is 0.9366.
The \l/2 correction factor is Not present.
;
_exptl_crystal_density_diffrn    1.956
_exptl_crystal_description       strip
_exptl_crystal_F_000             380
_refine_diff_density_max         0.556
_refine_diff_density_min         -0.505
_refine_diff_density_rms         0.083
_refine_ls_extinction_method     none
_refine_ls_goodness_of_fit_ref   1.059
_refine_ls_hydrogen_treatment    refall
_refine_ls_matrix_type           full
_refine_ls_number_parameters     239
_refine_ls_number_reflns         2920
_refine_ls_number_restraints     6
_refine_ls_restrained_S_all      1.058
_refine_ls_R_factor_all          0.0520
_refine_ls_R_factor_gt           0.0392
_refine_ls_shift/su_max          0.001
_refine_ls_shift/su_mean         0.000
_refine_ls_structure_factor_coef Fsqd
_refine_ls_weighting_details
'w=1/[\s^2^(Fo^2^)+(0.0367P)^2^+0.7552P] where P=(Fo^2^+2Fc^2^)/3'
_refine_ls_weighting_scheme      calc
_refine_ls_wR_factor_gt          0.0859
_refine_ls_wR_factor_ref         0.0936
_reflns_Friedel_coverage         0.000
_reflns_number_gt                2463
_reflns_number_total             2920
_reflns_threshold_expression     'I > 2\s(I)'
_cod_data_source_file            d1dt00793a2.cif
_cod_data_source_block           a
_cod_depositor_comments          'Adding full bibliography for 7706928.cif.'
_cod_original_cell_volume        637.5(2)
_cod_database_code               7706928
_shelx_shelxl_version_number     2016/4
_shelx_space_group_comment
;
The symmetry employed for this shelxl refinement is uniquely defined
by the following loop, which should always be used as a source of
symmetry information in preference to the above space-group names.
They are only intended as comments.
;
_olex2_refinement_description
;
1. Restrained distances
 O7-H7B = O7-H7A = O8-H8B = O8-H8A = O9-H9A = O9-H9B
 0.98 with sigma of 0.02
;
_shelx_res_file
;
TITL a_a.res in P-1
 a.res created by SHELXL-2016/4 at 21:35:25 on 06-Jun-2020
REM Old TITL a in P1
REM SHELXT solution in P-1
REM R1 0.118, Rweak 0.011, Alpha 0.055, Orientation as input
REM Formula found by SHELXT: C15 O6 Zn
CELL 0.71073 6.7905 9.2047 11.6717 103.573 106.316 105.106
ZERR 2 0.0012 0.0016 0.0023 0.005 0.006 0.005
LATT 1
SFAC C H N O Zn
UNIT 12 20 12 18 2
DFIX 0.98 O7 H7b O7 H7a O8 H8b O8 H8a O9 H9a O9 H9b

L.S. 4
PLAN  20
TEMP 24.85
list 4
fmap 2
ACTA
REM <olex2.extras>
REM <HklSrc "%.\\a.hkl">
REM </olex2.extras>

WGHT    0.036700    0.755200
FVAR       0.54590
ZN1   5    0.499864    0.083155    0.757327    11.00000    0.03186    0.02313 =
         0.03042    0.00578    0.01015    0.00548
O4    4    0.137021    0.265963    0.365713    11.00000    0.06373    0.02273 =
         0.02691    0.00459    0.02280    0.00569
O2    4    0.667305    0.329711    1.026743    11.00000    0.05571    0.02500 =
         0.02323    0.00935    0.01572    0.00806
O5    4    0.102014    0.267543    0.748049    11.00000    0.05976    0.02619 =
         0.02928    0.01034    0.02149    0.00177
O3    4    0.877495    0.802840    0.960777    11.00000    0.06041    0.01975 =
         0.03391    0.00540    0.01531    0.00671
O1    4    0.641581    0.340480    0.637403    11.00000    0.05891    0.02563 =
         0.02169    0.00476    0.01415   -0.00015
O6    4    0.370969    0.732040    0.684197    11.00000    0.05861    0.01502 =
         0.03574    0.00334    0.02075    0.00208
N1    3    0.637844    0.324730    0.827473    11.00000    0.03240    0.01861 =
         0.01904    0.00455    0.00762    0.00473
O7    4    0.320035    0.012988    0.572274    11.00000    0.05882    0.02914 =
         0.04173    0.00985   -0.00283    0.00251
N6    3    0.253673    0.498379    0.524076    11.00000    0.03972    0.01785 =
         0.02558    0.00856    0.01733    0.00466
N5    3    0.228356    0.499535    0.715060    11.00000    0.04084    0.01881 =
         0.02217    0.00361    0.01493    0.00357
N2    3    0.778344    0.566504    0.995230    11.00000    0.04597    0.02077 =
         0.01840    0.00401    0.01153    0.00844
N4    3    0.103112    0.253552    0.551422    11.00000    0.06140    0.01825 =
         0.02651    0.00552    0.02215    0.00338
N3    3    0.770852    0.571485    0.799533    11.00000    0.04050    0.01975 =
         0.02550    0.00940    0.01257    0.00454
O9    4    0.761701    0.013794    0.777815    11.00000    0.04985    0.03846 =
         0.06755    0.01000    0.01725    0.01319
O8    4    0.295658   -0.007492    0.841011    11.00000    0.06449    0.04806 =
         0.06346    0.00596    0.03530    0.00905
C2    1    0.692881    0.401920    0.952345    11.00000    0.03064    0.02110 =
         0.02518    0.00575    0.00969    0.00891
C1    1    0.681244    0.407606    0.749787    11.00000    0.02649    0.02456 =
         0.02327    0.00739    0.00681    0.00449
C6    1    0.290052    0.588114    0.643725    11.00000    0.03078    0.02435 =
         0.02405    0.00704    0.01078    0.00846
C5    1    0.140618    0.334723    0.672308    11.00000    0.03694    0.02222 =
         0.02557    0.00723    0.01330    0.00539
C3    1    0.813251    0.658479    0.921542    11.00000    0.03321    0.02420 =
         0.02647    0.00740    0.00818    0.00900
C4    1    0.161910    0.334010    0.476642    11.00000    0.03876    0.02032 =
         0.02457    0.00656    0.01262    0.00714
H3    2    0.792745    0.618538    0.754782    11.00000    0.02933
H2    2    0.807235    0.612370    1.066719    11.00000    0.03309
H6    2    0.281389    0.543723    0.479941    11.00000    0.03997
H5    2    0.242993    0.549023    0.787040    11.00000    0.04089
H7A   2    0.191975   -0.087315    0.535873    11.00000    0.10593
H7B   2    0.266154    0.094950    0.548461    11.00000    0.11125
H9A   2    0.717182   -0.096402    0.715124    11.00000    0.09176
H8A   2    0.279103    0.070584    0.910587    11.00000    0.10000
H8B   2    0.161644   -0.095523    0.776514    11.00000    0.19445
H9B   2    0.867736    0.062373    0.866049    11.00000    0.39460
HKLF 4




REM  a_a.res in P-1
REM R1 =  0.0392 for    2463 Fo > 4sig(Fo)  and  0.0520 for all    2920 data
REM    239 parameters refined using      6 restraints

END

WGHT      0.0367      0.7552

REM Highest difference peak  0.556,  deepest hole -0.505,  1-sigma level  0.083
Q1    1   0.3406 -0.0969  0.8934  11.00000  0.05    0.56
Q2    1   0.8701  0.0975  0.7592  11.00000  0.05    0.49
Q3    1   0.8272  0.0032  0.8821  11.00000  0.05    0.43
Q4    1   0.2760  0.5442  0.6811  11.00000  0.05    0.28
Q5    1   0.5408  0.2866  0.6139  11.00000  0.05    0.26
Q6    1   0.4718  0.2022  1.0048  11.00000  0.05    0.25
Q7    1   0.6357  0.6169  0.7012  11.00000  0.05    0.25
Q8    1   0.9665  0.5665  0.9887  11.00000  0.05    0.25
Q9    1   0.5978 -0.0148  0.7901  11.00000  0.05    0.25
Q10   1   0.2621  0.3442  0.3519  11.00000  0.05    0.24
Q11   1   0.8476  0.3952  1.1168  11.00000  0.05    0.24
Q12   1   0.5904  0.3827  0.5843  11.00000  0.05    0.24
Q13   1   0.1247  0.2224  0.3412  11.00000  0.05    0.24
Q14   1   0.0796  0.4849  0.6961  11.00000  0.05    0.24
Q15   1   0.6272  0.6029  0.8179  11.00000  0.05    0.24
Q16   1   0.4470 -0.0088  0.9397  11.00000  0.05    0.23
Q17   1   0.3150  0.2808  0.8553  11.00000  0.05    0.23
Q18   1   0.7487 -0.0432  0.8673  11.00000  0.05    0.23
Q19   1   0.0569  0.3252  0.7797  11.00000  0.05    0.23
Q20   1   0.4925  0.0012  0.5483  11.00000  0.05    0.23
;
_shelx_res_checksum              96163
_shelx_hkl_file
;
  -1   0   0  628.94   11.00
  -1   0   0  569.04   14.00
  -1   0   0  595.44   11.50
  -1   0   0  593.74   16.20
  -1   0   0  608.34   13.00
  -1   0   0  528.75   17.20
   1   0   0  600.04   12.30
   1   0   0  635.64   13.90
   1   0   0  596.34   16.20
   1   0   0  569.54   12.50
   1   0   0  610.04   10.60
  -2   0   0  923.31   27.00
  -2   0   0  824.42   18.70
  -2   0   0  919.81   21.80
  -2   0   0  906.81   18.80
  -2   0   0  801.42   21.80
  -2   0   0  916.11   20.60
   2   0   0  874.91   20.00
   2   0   0  904.81   25.90
   2   0   0  880.01   16.70
   2   0   0  903.61   22.70
   2   0   0  890.31   20.50
   2   0   0  890.01   27.60
  -3   0   0  267.47   10.10
  -3   0   0  252.07   12.70
  -3   0   0  256.87   10.50
  -3   0   0  251.47   11.80
  -3   0   0  243.38   15.90
  -3   0   0  220.28   12.50
   3   0   0  241.98    8.50
   3   0   0  263.37   17.10
   3   0   0  270.77   12.00
   3   0   0  245.48   11.30
   3   0   0  260.07   13.50
  -4   0   0   70.39    5.90
  -4   0   0   79.19    6.70
  -4   0   0   94.69   11.00
  -4   0   0   73.19    8.00
   4   0   0   91.99    9.20
   4   0   0   89.59    5.50
   4   0   0   89.59    7.80
   4   0   0   75.39    7.00
   4   0   0   89.29   11.50
  -5   0   0  314.27   18.90
  -5   0   0  296.57   15.20
  -5   0   0  310.07   14.40
   5   0   0  307.67   18.90
   5   0   0  325.67   24.60
   5   0   0  301.37   16.30
   5   0   0  286.07   16.20
   5   0   0  303.97   11.70
  -6   0   0  115.09   11.10
  -6   0   0  125.19   12.10
  -6   0   0  110.69   13.10
   6   0   0  101.19   13.20
   6   0   0   89.09   16.90
  -7   0   0   51.19   10.50
  -7   0   0   50.69    8.30
  -7   0   0   42.10    8.30
   7   0   0   59.49   10.50
   7   0   0   52.69   14.00
   7   0   0   45.30   10.40
   8  -1   0   14.70    6.10
   8  -1   0   14.40   11.30
   8  -1   0   25.90    9.10
  -8   1   0   19.70    5.90
  -8   1   0    9.50    8.10
   7  -1   0   36.80    9.00
   7  -1   0   15.20    8.40
   7  -1   0   41.10    7.60
  -7   1   0   37.50    7.50
  -7   1   0   29.20    8.70
   6  -1   0   19.50    9.10
   6  -1   0   16.90    5.30
   6  -1   0   13.00    4.00
   6  -1   0   17.00    3.20
  -6   1   0   27.20    7.70
  -6   1   0   21.80    4.80
  -6   1   0   17.40    4.60
   5  -1   0  160.78   13.50
   5  -1   0  144.59   10.30
   5  -1   0  152.28   10.70
   5  -1   0  165.48   16.80
   5  -1   0  157.68    7.50
  -5   1   0  159.08   15.30
  -5   1   0  156.28   10.70
  -5   1   0  152.28   12.00
  -5   1   0  145.49    9.30
   4  -1   0    4.60    2.70
   4  -1   0   10.90    2.70
   4  -1   0   10.10    1.90
   4  -1   0   10.50    2.80
   4  -1   0    3.60    3.50
  -4   1   0    9.00    4.20
  -4   1   0   12.30    2.70
  -4   1   0    9.10    2.50
  -4   1   0    6.50    2.40
   3  -1   0  129.99   10.90
   3  -1   0  116.89    8.20
   3  -1   0  129.99    9.20
   3  -1   0  131.59    7.10
   3  -1   0  131.29   10.50
   3  -1   0  138.19    5.70
   3  -1   0  144.19    8.80
  -3   1   0  133.09    7.50
  -3   1   0  132.09    6.50
  -3   1   0  117.59    9.90
  -3   1   0  136.69    8.00
  -3   1   0  127.19    7.20
  -2   1   0 9999.00  146.59
   1  -1   0  332.37    7.20
   1  -1   0  325.27    9.10
   1  -1   0  321.57    7.70
   1  -1   0  311.97   10.10
   1  -1   0  310.57   12.10
  -1   1   0  333.57    6.20
  -1   1   0  324.47    7.00
  -1   1   0  332.37    7.90
  -1   1   0  314.47   10.10
  -1   1   0  316.97   10.40
   0  -1   0  106.59    2.80
   0  -1   0  104.49    3.60
   0  -1   0  114.39    3.60
   0  -1   0  105.49    3.40
   0  -1   0  102.79    3.80
   0   1   0  117.89    3.70
   0   1   0  105.99    3.30
   0   1   0  111.19    4.00
   0   1   0  103.79    2.70
  -1  -1   0  971.50   19.60
  -1  -1   0  860.61   24.80
  -1  -1   0  992.80   27.30
  -1  -1   0  975.30   15.70
   1   1   0  949.60   27.60
   1   1   0 1001.00   19.60
   1   1   0 1007.70   17.80
   1   1   0  978.10   20.20
  -2  -1   0  199.38   10.50
  -2  -1   0  204.88   10.00
  -2  -1   0  208.38    8.00
  -2  -1   0  189.18    9.40
  -2  -1   0  189.68   13.50
   2   1   0  197.48    9.80
   2   1   0  198.38    9.50
   2   1   0  214.48   14.50
   2   1   0  204.58    7.50
   2   1   0  212.08   10.10
  -3  -1   0  478.85   15.00
  -3  -1   0  449.66   17.80
  -3  -1   0  474.25   25.20
  -3  -1   0  460.25   19.30
  -3  -1   0  450.55   15.00
  -3  -1   0  461.75   18.80
   3   1   0  461.55   13.60
   3   1   0  469.45   18.60
   3   1   0  449.16   17.60
   3   1   0  439.76   24.70
   3   1   0  484.25   17.90
  -4  -1   0  413.56   16.10
  -4  -1   0  418.46   21.00
  -4  -1   0  408.96   15.90
   4   1   0  426.36   19.20
   4   1   0  434.56   20.60
   4   1   0  413.06   18.80
   4   1   0  433.66   27.70
   4   1   0  422.96   14.10
  -5  -1   0  175.48   14.20
  -5  -1   0  179.18   15.20
  -5  -1   0  174.08   11.50
   5   1   0  179.78   14.60
   5   1   0  176.18   13.50
   5   1   0  180.88   19.90
  -6  -1   0   85.59    9.20
  -6  -1   0   98.19    9.70
  -6  -1   0  101.49   13.10
   6   1   0   84.39   10.10
   6   1   0   96.89   11.90
   6   1   0   94.09   19.40
  -7  -1   0    7.40    6.20
  -7  -1   0    7.70    3.90
  -7  -1   0   11.80    4.40
   7   1   0    3.50    3.20
   7   1   0    9.90    6.50
   7   1   0   25.10    9.30
   8  -2   0   -0.20    7.30
   8  -2   0    5.10    2.50
  -8   2   0   -8.90    5.10
   7  -2   0   11.50    4.30
   7  -2   0    3.40    4.60
   7  -2   0    7.00    3.30
   7  -2   0   14.20    7.20
   7  -2   0    6.70    2.10
  -7   2   0    0.50    2.50
  -7   2   0    1.40    4.20
   6  -2   0    0.60    2.00
   6  -2   0    1.60    1.30
   6  -2   0    0.70    4.30
   6  -2   0    3.10    2.70
   6  -2   0    2.20    1.90
  -6   2   0   -1.40    1.10
  -6   2   0    6.10    3.30
   5  -2   0   94.89   12.10
   5  -2   0   95.69    5.50
   5  -2   0   98.79   10.60
   5  -2   0   98.19    7.80
   5  -2   0   91.09    7.40
  -5   2   0  107.09    9.10
  -5   2   0   77.59    7.70
  -5   2   0   85.29   11.10
   4  -2   0 2630.64   42.80
   4  -2   0 2851.71   48.20
   4  -2   0 2250.77   84.99
   4  -2   0 2614.94   63.59
   4  -2   0 2596.04   47.30
  -4   2   0 2567.04   48.90
  -4   2   0 2655.73   50.59
  -4   2   0 2688.23   62.19
  -4   2   0 2723.93   40.80
   3  -2   0    8.50    1.60
   3  -2   0    4.90    2.90
   3  -2   0    6.30    1.60
   3  -2   0    2.50    1.90
   3  -2   0    7.50    2.00
   3  -2   0    7.00    1.70
   3  -2   0    7.80    1.60
   3  -2   0    7.60    2.50
  -3   2   0    8.70    2.30
  -3   2   0    6.50    1.40
  -3   2   0    7.10    1.70
  -3   2   0   11.20    4.00
  -3   2   0    4.00    2.00
  -3   2   0    5.00    1.60
   2  -2   0 3093.89   48.20
   2  -2   0 3063.49   46.90
   2  -2   0 2912.21   55.99
   2  -2   0 3189.48   53.09
   2  -2   0 3002.70   56.79
  -2   2   0 3086.79   44.10
  -2   2   0 3029.20   46.00
  -2   2   0 3127.89   56.29
  -2   2   0 3087.69   58.19
  -2   2   0 3021.80   49.30
   1  -2   0  526.75   14.40
   1  -2   0  555.04   12.40
   1  -2   0  531.95   12.40
   1  -2   0  531.95   11.50
  -1   2   0  536.25   11.90
  -1   2   0  510.75   18.60
  -1   2   0  541.15   12.10
  -1   2   0  546.25   12.90
   0  -2   0  166.88    6.10
   0  -2   0  167.08    5.80
   0  -2   0  162.98    6.20
   0  -2   0  158.38   10.30
   0  -2   0  164.68    4.60
   0  -2   0  159.78    6.70
   0   2   0  173.78    6.40
   0   2   0  163.58    6.10
   0   2   0  157.68    6.50
   0   2   0  165.58    5.70
   0   2   0  175.18    4.80
  -1  -2   0 1176.58   27.30
  -1  -2   0 1163.78   35.50
  -1  -2   0 1137.99   22.80
  -1  -2   0 1148.49   23.00
  -1  -2   0 1091.69   24.90
  -1  -2   0 1171.98   20.70
   1   2   0 1189.68   35.60
   1   2   0 1143.29   22.70
   1   2   0 1143.19   25.20
  -2  -2   0  185.08    9.60
  -2  -2   0  182.18   11.20
  -2  -2   0  185.78   10.30
  -2  -2   0  199.58    8.80
  -2  -2   0  191.98    6.50
  -2  -2   0  164.08   14.30
   2   2   0  188.58   10.60
   2   2   0  197.18    8.40
   2   2   0  201.98   10.10
   2   2   0  187.28   15.60
   2   2   0  175.28   10.00
  -3  -2   0   51.79    8.50
  -3  -2   0   43.00    9.10
  -3  -2   0   53.29    6.10
  -3  -2   0   51.09    5.10
  -3  -2   0   52.89    3.30
   3   2   0   54.79    8.50
   3   2   0   53.59    6.20
   3   2   0   42.60    9.80
   3   2   0   56.09    4.90
   3   2   0   47.70    5.60
  -4  -2   0  210.18   11.60
  -4  -2   0  206.78    7.10
  -4  -2   0  229.88   16.50
  -4  -2   0  207.38   14.60
   4   2   0  225.18   14.70
   4   2   0  223.18   21.70
   4   2   0  209.88   14.40
  -5  -2   0    5.00    2.10
  -5  -2   0   11.50    5.00
  -5  -2   0    1.10    2.20
   5   2   0    0.80    2.30
   5   2   0    1.00    1.60
   5   2   0    6.70    5.80
  -6  -2   0    9.90    5.10
  -6  -2   0   11.70    4.00
  -6  -2   0   15.60    4.40
   6   2   0    6.50    4.60
   6   2   0    3.00    6.20
   6   2   0   11.80    5.30
  -7  -2   0   10.90    7.10
  -7  -2   0   15.60    5.00
  -7  -2   0   15.30    5.40
   7   2   0   12.20    9.80
   7   2   0   16.40    6.80
   7   2   0    7.40    3.80
   8  -3   0    3.40    2.80
   8  -3   0    0.60    7.90
   8  -3   0    6.30    5.40
  -8   3   0    6.10    3.40
   7  -3   0   -0.50    2.30
   7  -3   0    9.10    6.80
   7  -3   0   -3.10    1.90
   7  -3   0    1.20    1.40
   7  -3   0   -2.50    2.50
  -7   3   0   -3.50    3.50
  -7   3   0    1.20    2.40
   6  -3   0  219.38   19.80
   6  -3   0  214.08   11.90
   6  -3   0  230.28   17.90
   6  -3   0  207.98    8.40
  -6   3   0  212.68   14.40
  -6   3   0  199.38    7.20
  -6   3   0  196.08   13.80
   5  -3   0    4.90    1.80
   5  -3   0    2.70    3.00
   5  -3   0    1.80    1.30
   5  -3   0    1.20    1.10
   5  -3   0    0.70    1.60
  -5   3   0    3.70    2.20
  -5   3   0    1.40    1.50
  -5   3   0    1.50    3.40
  -5   3   0    1.70    1.20
   4  -3   0  458.85   22.80
   4  -3   0  463.85   13.20
   4  -3   0  472.95   13.80
   4  -3   0  458.25   12.90
   4  -3   0  452.55   21.60
   4  -3   0  473.85   13.80
  -4   3   0  448.86   24.90
  -4   3   0  480.25   13.00
  -4   3   0  470.65   22.40
  -4   3   0  445.56   14.30
  -4   3   0  461.05   14.80
   3  -3   0   10.40    2.50
   3  -3   0   12.10    2.40
   3  -3   0   13.50    3.70
   3  -3   0    9.80    3.40
   3  -3   0    5.60    2.40
  -3   3   0   12.80    2.00
  -3   3   0   15.30    4.70
  -3   3   0   11.40    1.80
  -3   3   0   16.50    4.40
  -3   3   0   10.20    2.40
  -3   3   0   13.50    2.30
   2  -3   0  630.14   15.90
   2  -3   0  624.74   20.20
   2  -3   0  612.24   17.70
   2  -3   0  636.64   14.70
   2  -3   0  627.14   16.00
   2  -3   0  606.54   22.30
  -2   3   0  645.04   17.60
  -2   3   0  649.64   21.90
  -2   3   0  629.24   15.40
   1  -3   0  477.35   13.20
   1  -3   0  488.25   15.10
   1  -3   0  510.75   12.00
   1  -3   0  484.85   12.70
   1  -3   0  486.05   11.60
   1  -3   0  476.05   10.50
   1  -3   0  503.25   13.50
  -1   3   0  490.25   13.00
  -1   3   0  485.75   15.40
  -1   3   0  483.95   11.20
  -1   3   0  476.05   13.00
  -1   3   0  473.65   13.60
   0  -3   0 1363.06   25.80
   0  -3   0 1387.46   29.10
   0  -3   0 1292.47   22.10
   0  -3   0 1343.67   39.70
   0  -3   0 1277.97   26.00
   0   3   0 1361.86   26.90
   0   3   0 1354.06   22.40
   0   3   0 1303.17   27.20
   0   3   0 1355.76   26.50
   0   3   0 1357.66   25.40
  -1  -3   0    2.20    1.60
  -1  -3   0    4.50    2.00
  -1  -3   0    5.00    1.50
  -1  -3   0    0.80    1.00
  -1  -3   0    0.20    1.90
  -1  -3   0    3.70    1.40
   1   3   0    0.80    1.00
   1   3   0    3.30    1.20
   1   3   0    2.50    1.30
  -2  -3   0    8.30    2.50
  -2  -3   0    5.00    2.30
  -2  -3   0    7.90    2.50
  -2  -3   0    7.00    1.70
  -2  -3   0    2.40    3.30
  -2  -3   0    4.90    2.20
   2   3   0    8.30    2.90
   2   3   0    5.90    3.60
   2   3   0    7.70    2.60
   2   3   0    6.40    2.40
   2   3   0    8.20    2.10
  -3  -3   0  198.18   12.60
  -3  -3   0  219.38   15.40
  -3  -3   0  208.38    8.30
  -3  -3   0  197.68   11.00
   3   3   0  196.18   13.20
   3   3   0  215.88   12.80
   3   3   0  181.18   18.30
  -4  -3   0    0.50    1.00
  -4  -3   0    4.50    1.50
  -4  -3   0    4.20    2.40
   4   3   0    5.30    4.40
   4   3   0   -1.40    1.80
  -5  -3   0   13.30    3.60
  -5  -3   0    5.90    3.90
  -5  -3   0    8.60    3.80
   5   3   0   16.00    4.40
   5   3   0    8.00    6.30
   5   3   0    8.80    3.70
  -6  -3   0   -6.00    3.60
  -6  -3   0    3.30    3.50
  -6  -3   0   -1.00    2.10
   6   3   0   -3.40    2.30
   6   3   0    5.50    7.70
   6   3   0   -8.50    3.20
   8  -4   0   -0.90    4.00
   8  -4   0   14.20    9.20
   8  -4   0    5.60    3.20
  -8   4   0    8.90    4.70
   7  -4   0   33.60    8.50
   7  -4   0   34.50    9.50
   7  -4   0   38.50    5.10
   7  -4   0   32.60    5.10
  -7   4   0   27.00    6.80
  -7   4   0   23.30    6.10
   6  -4   0  268.77   11.60
   6  -4   0  261.67   21.20
   6  -4   0  266.77    9.90
   6  -4   0  224.88   17.50
   6  -4   0  249.97   11.10
  -6   4   0  257.37   13.90
  -6   4   0  250.37   16.20
  -6   4   0  256.67    9.80
   5  -4   0   13.70    2.50
   5  -4   0    9.10    3.10
   5  -4   0   11.40    5.20
   5  -4   0   12.20    2.50
  -5   4   0    9.70    3.90
  -5   4   0    7.10    3.90
  -5   4   0   13.60    2.60
  -5   4   0   18.60    5.00
   4  -4   0   35.20    4.30
   4  -4   0   29.10    4.30
   4  -4   0   26.50    3.20
   4  -4   0   38.30    7.90
   4  -4   0   36.90    6.70
  -4   4   0   30.40    5.70
  -4   4   0   33.30    8.20
  -4   4   0   30.30    6.40
  -4   4   0   25.90    3.80
   3  -4   0   35.40    3.40
   3  -4   0   29.40    5.10
   3  -4   0   28.60    3.60
   3  -4   0   24.10    4.90
   3  -4   0   26.20    4.10
   3  -4   0   31.10    6.20
  -3   4   0   37.70    7.60
  -3   4   0   21.80    4.00
  -3   4   0   36.20    3.70
   2  -4   0   34.80    3.30
   2  -4   0   38.70    6.20
   2  -4   0   35.70    3.70
   2  -4   0   29.20    3.40
   2  -4   0   39.60    7.20
  -2   4   0   29.40    5.60
  -2   4   0   28.50    3.20
  -2   4   0   28.30    3.80
   1  -4   0  140.49    7.50
   1  -4   0  140.29    6.30
   1  -4   0  151.98    8.70
   1  -4   0  146.19    7.40
   1  -4   0  144.79    7.70
   1  -4   0  154.08    7.50
  -1   4   0  134.59    7.40
  -1   4   0  140.39    6.60
  -1   4   0  136.99    6.30
  -1   4   0  141.09    8.80
  -1   4   0  161.88    7.70
   0  -4   0   51.79    4.80
   0  -4   0   61.59    5.20
   0  -4   0   50.79    5.30
   0  -4   0   66.99    5.00
   0  -4   0   56.29   12.50
   0   4   0   60.99    3.50
   0   4   0   65.89    4.90
   0   4   0   67.59    5.40
   0   4   0   62.49    5.60
   0   4   0   51.49    4.90
  -1  -4   0  549.74   15.40
  -1  -4   0  538.45   19.20
  -1  -4   0  547.75   17.60
  -1  -4   0  541.45   21.50
   1   4   0  523.25   19.70
   1   4   0  539.85   17.40
   1   4   0  563.34   19.80
   1   4   0  551.84   15.60
  -2  -4   0  354.76   17.50
  -2  -4   0  362.16   14.70
  -2  -4   0  360.46   12.70
  -2  -4   0  347.67   15.00
  -2  -4   0  353.76   19.30
   2   4   0  395.76   18.20
   2   4   0  341.67   14.50
  -3  -4   0   29.10    5.40
  -3  -4   0   20.00    5.70
  -3  -4   0   28.40    4.10
   3   4   0   34.40    6.40
   3   4   0   27.00    8.90
   3   4   0   21.10    5.20
  -4  -4   0   29.00    5.30
  -4  -4   0   34.30    8.50
  -4  -4   0   30.80    4.50
  -4  -4   0   35.40    6.70
   4   4   0   30.10    7.10
   4   4   0   18.60    7.70
   4   4   0   19.90    6.10
  -5  -4   0    5.90    2.40
  -5  -4   0    1.50    2.30
   5   4   0   10.00    4.30
   5   4   0    9.30    7.40
   5   4   0    7.00    3.90
  -6  -4   0    4.90    3.10
  -6  -4   0    4.00    5.50
  -6  -4   0    9.30    4.70
   6   4   0   11.70    5.00
   6   4   0    8.00    4.80
   8  -5   0   72.69   13.60
   8  -5   0   66.29   15.80
  -8   5   0   68.19   11.90
   7  -5   0   37.80    9.20
   7  -5   0   18.00    8.20
  -7   5   0   43.80    8.80
   6  -5   0   39.30    4.00
   6  -5   0   50.49    9.30
   6  -5   0   36.20    4.90
   6  -5   0   35.60    8.70
  -6   5   0   47.40    4.80
  -6   5   0   37.30   10.70
  -6   5   0   48.60    8.80
  -6   5   0   32.60    5.10
   5  -5   0   22.40    3.50
   5  -5   0   22.80    6.60
   5  -5   0   21.70    6.10
   5  -5   0   24.30    4.00
  -5   5   0   18.40    4.70
  -5   5   0   18.00    6.60
  -5   5   0   26.40    4.10
   4  -5   0    6.00    4.20
   4  -5   0    7.30    2.00
   4  -5   0    7.80    2.90
   4  -5   0    1.00    1.60
  -4   5   0    2.10    1.50
  -4   5   0    4.60    3.80
  -4   5   0    4.60    1.80
   3  -5   0  593.84   20.30
   3  -5   0  574.34   27.40
   3  -5   0  584.04   16.70
   3  -5   0  563.04   18.00
   3  -5   0  571.94   19.00
   3  -5   0  581.64   23.40
  -3   5   0  589.64   20.80
  -3   5   0  564.04   25.60
  -3   5   0  599.74   18.10
   2  -5   0  595.44   18.70
   2  -5   0  577.34   16.60
   2  -5   0  556.04   21.80
   2  -5   0  597.24   18.30
   2  -5   0  594.64   17.30
  -2   5   0  590.44   19.40
  -2   5   0  598.14   17.90
  -2   5   0  597.74   22.90
   1  -5   0  589.24   17.90
   1  -5   0  544.65   17.80
   1  -5   0  539.95   17.80
   1  -5   0  559.74   13.40
   1  -5   0  568.14   17.90
   1  -5   0  572.34   16.30
  -1   5   0  572.14   16.20
  -1   5   0  562.64   18.30
  -1   5   0  542.05   19.90
  -1   5   0  579.74   17.60
   0  -5   0  235.38   11.20
   0  -5   0  252.87   12.20
   0  -5   0  238.38   13.10
   0  -5   0  264.07   12.00
   0   5   0  232.18   11.60
   0   5   0  246.88   12.90
   0   5   0  218.08   10.40
  -1  -5   0   59.59    4.90
  -1  -5   0   64.59    6.30
  -1  -5   0   62.69    7.00
  -1  -5   0   65.59    7.90
   1   5   0   54.29    6.30
   1   5   0   60.59    4.80
  -2  -5   0  304.77   13.80
  -2  -5   0  278.27   14.60
  -2  -5   0  308.17   19.40
   2   5   0  297.37   13.60
   2   5   0  299.67   17.00
  -3  -5   0  109.89    9.80
  -3  -5   0  134.79   13.90
   3   5   0  146.49   12.60
  -4  -5   0   51.99    9.20
  -4  -5   0   70.39    7.80
  -4  -5   0   63.09   13.00
   4   5   0   63.19   10.10
  -5  -5   0   14.60    5.30
  -5  -5   0    6.80    3.80
  -5  -5   0    7.00    3.40
   5   5   0    4.80    4.70
   5   5   0    2.40    3.20
   8  -6   0   18.70   10.30
   8  -6   0   19.70    6.30
  -8   6   0   15.40    6.40
   7  -6   0   28.20   10.50
   7  -6   0   26.00    7.50
  -7   6   0   21.10    6.00
   6  -6   0   29.90    7.30
   6  -6   0   22.50    8.00
   6  -6   0   42.60    5.10
   6  -6   0   36.40    4.00
  -6   6   0   36.00   11.10
  -6   6   0   37.20    7.60
  -6   6   0   39.70    5.80
   5  -6   0  123.79    7.40
   5  -6   0  131.09   15.10
   5  -6   0  130.19   11.80
  -5   6   0  113.79   14.30
  -5   6   0  124.79    8.40
  -5   6   0  131.19   11.40
   4  -6   0  201.88   12.90
   4  -6   0  162.78   16.60
   4  -6   0  179.78    9.20
  -4   6   0  178.88   10.20
  -4   6   0  179.58   12.50
  -4   6   0  193.58   16.90
   3  -6   0  405.96   24.90
   3  -6   0  439.16   17.00
   3  -6   0  420.96   16.20
   3  -6   0  417.46   15.10
  -3   6   0  427.06   22.80
  -3   6   0  408.46   15.90
  -3   6   0  440.76   18.60
   2  -6   0  681.93   18.50
   2  -6   0  721.13   25.70
   2  -6   0  705.13   21.00
   2  -6   0  675.13   21.40
   2  -6   0  706.33   16.70
   2  -6   0  682.23   18.30
  -2   6   0  681.23   21.20
  -2   6   0  712.73   26.80
  -2   6   0  692.63   17.20
   1  -6   0  105.69    7.80
   1  -6   0   95.59    8.00
   1  -6   0   91.09    6.80
   1  -6   0  103.69    8.20
  -1   6   0   93.69    6.70
  -1   6   0   99.49    8.80
  -1   6   0   99.19    7.50
   0  -6   0  106.29    8.80
   0  -6   0  112.79    8.50
   0  -6   0   87.29    8.80
   0   6   0  117.59    9.60
   0   6   0   94.99    8.00
  -1  -6   0  171.18   12.50
  -1  -6   0  194.18   14.70
  -1  -6   0  183.58    8.60
  -1  -6   0  174.48   11.50
   1   6   0  200.08   13.20
   1   6   0  178.28    8.80
  -2  -6   0  243.08   14.80
  -2  -6   0  243.08   18.20
   2   6   0  234.78   12.20
   2   6   0  254.67   16.60
  -3  -6   0   99.39   12.80
   3   6   0   70.09    8.20
   3   6   0   78.69   10.00
  -4  -6   0   65.09   13.30
  -4  -6   0   46.30    8.60
  -4  -6   0   64.79    7.70
   4   6   0   66.59   10.40
   4   6   0   63.79   11.30
  -5  -6   0   90.99   17.30
  -5  -6   0   96.49   10.00
  -5  -6   0   84.29   13.00
   5   6   0   79.49   12.90
   5   6   0   85.39   14.20
   8  -7   0   25.90   10.50
  -8   7   0   33.00   11.20
   7  -7   0   49.00   12.10
   7  -7   0   42.10    9.70
   7  -7   0   50.79    4.90
  -7   7   0   66.59   16.00
  -7   7   0   52.39   10.10
   6  -7   0   81.19   10.50
   6  -7   0   92.69    6.60
   6  -7   0   85.89   15.80
   6  -7   0   92.59    8.40
  -6   7   0  121.99   16.00
  -6   7   0   72.89   13.40
  -6   7   0   81.49    7.60
   5  -7   0   28.90    9.30
   5  -7   0   22.30    4.20
   5  -7   0   19.90    5.30
  -5   7   0   21.30    4.50
  -5   7   0   10.30    5.50
  -5   7   0   18.70    5.70
   4  -7   0   77.89    8.30
   4  -7   0   84.19    8.20
   4  -7   0   85.69   14.60
  -4   7   0   90.59   11.90
  -4   7   0   74.09    7.10
  -4   7   0   86.39    9.00
   3  -7   0  165.58    9.90
   3  -7   0  174.68   10.20
   3  -7   0  177.48   17.70
   3  -7   0  164.78   10.10
  -3   7   0  181.28   15.20
  -3   7   0  162.38   10.50
   2  -7   0  253.37   11.70
   2  -7   0  257.27   10.30
   2  -7   0  240.08    9.90
   2  -7   0  222.98   12.30
   2  -7   0  230.18   12.70
   2  -7   0  232.18   10.00
  -2   7   0  230.58   12.60
  -2   7   0  244.58   10.70
  -2   7   0  232.68   15.80
   1  -7   0  139.29    9.90
   1  -7   0  124.69    9.00
   1  -7   0  129.89    9.50
   1  -7   0  128.79   10.40
  -1   7   0  137.99   11.10
  -1   7   0  134.39    9.50
  -1   7   0  124.79    8.90
   0  -7   0   56.39    6.90
   0  -7   0   50.09    6.30
   0  -7   0   52.19    8.70
   0   7   0   49.70    7.60
   0   7   0   50.39    9.80
  -1  -7   0   83.79   10.70
  -1  -7   0   92.69    8.70
  -1  -7   0   86.39    5.80
  -1  -7   0   67.09    8.60
   1   7   0   82.19    9.10
   1   7   0   66.69    8.70
  -2  -7   0  107.89   13.30
  -2  -7   0  140.59   11.80
   2   7   0  148.89   13.50
   2   7   0  129.69    9.10
  -3  -7   0  177.38   14.30
  -3  -7   0  167.38   17.80
   3   7   0  153.38   11.40
   3   7   0  139.79   14.40
  -4  -7   0   19.20    6.40
  -4  -7   0   16.80    4.20
  -4  -7   0   21.00    8.50
   4   7   0   18.20    6.10
   4   7   0    7.90    5.30
   7  -8   0   12.50    7.70
   7  -8   0    2.80    2.10
   7  -8   0    5.80    4.80
  -7   8   0   -0.20    3.30
  -7   8   0    3.10    4.40
   6  -8   0    9.00    3.00
   6  -8   0   -4.10    5.50
   6  -8   0    2.20    3.30
  -6   8   0    4.70    2.40
  -6   8   0   16.90    6.40
  -6   8   0   26.30    9.00
   5  -8   0   10.10    6.20
   5  -8   0    9.30    3.80
   5  -8   0    4.90    2.30
  -5   8   0    4.10    4.20
  -5   8   0   11.10    4.10
  -5   8   0    5.40    2.80
   4  -8   0    2.00    2.40
   4  -8   0    7.20    2.70
   4  -8   0    5.00    3.70
  -4   8   0    3.30    3.00
  -4   8   0    4.20    3.60
  -4   8   0    1.10    2.20
   3  -8   0   83.69    7.20
   3  -8   0   93.89    7.10
   3  -8   0  112.59    9.00
   3  -8   0  112.29   14.60
  -3   8   0  103.39   12.00
  -3   8   0   92.69    8.40
   2  -8   0   64.49    6.70
   2  -8   0   77.79    6.40
   2  -8   0   71.29    7.20
  -2   8   0   61.49    6.10
  -2   8   0   70.39    9.20
  -2   8   0   65.89    7.30
   1  -8   0   16.60    4.40
   1  -8   0    9.50    3.10
   1  -8   0   15.30    4.80
  -1   8   0   20.20    5.30
  -1   8   0   16.90    4.40
   0  -8   0   10.50    4.10
   0  -8   0    8.70    3.40
   0  -8   0    9.50    3.80
   0   8   0   10.50    3.80
   0   8   0    8.30    3.40
  -1  -8   0   44.50    9.00
  -1  -8   0   67.99    8.50
   1   8   0   62.59   10.00
   1   8   0   52.39    9.40
  -2  -8   0   13.80    6.00
  -2  -8   0   21.90    5.60
   2   8   0   24.10    6.40
  -3  -8   0    6.00    6.80
  -3  -8   0    4.00    3.80
   3   8   0    9.50    5.20
   3   8   0   13.60    4.10
   7  -9   0   15.20   13.70
   7  -9   0    3.10    3.90
   7  -9   0    4.90    2.50
  -7   9   0   -5.60    5.50
  -7   9   0    2.40    4.10
   6  -9   0    6.30    3.50
   6  -9   0   -3.50    3.40
  -6   9   0    4.90    4.50
  -6   9   0   13.40    7.80
   5  -9   0    6.30    5.60
   5  -9   0   -2.90    2.30
   5  -9   0    3.70    2.30
  -5   9   0   -3.20    3.00
  -5   9   0    2.50    3.80
  -5   9   0    3.40    2.50
   4  -9   0   18.30    6.90
   4  -9   0    6.30    3.00
   4  -9   0    5.50    3.10
   4  -9   0    6.90    6.40
  -4   9   0    4.50    2.20
  -4   9   0   12.40    5.80
   3  -9   0    2.70    2.10
   3  -9   0    0.90    1.70
   3  -9   0    6.40    4.60
  -3   9   0    3.20    2.10
  -3   9   0    0.80    2.90
   2  -9   0   12.90    3.20
   2  -9   0    6.80    3.10
   2  -9   0    4.50    3.30
  -2   9   0   12.20    5.30
  -2   9   0    9.30    3.10
   1  -9   0   -3.80    2.40
   1  -9   0    0.00    1.80
  -1   9   0    2.10    2.80
  -1   9   0   -5.30    2.20
   0  -9   0    4.50    3.50
   0  -9   0   10.00    5.10
   0  -9   0   13.70    4.70
   0   9   0    7.50    4.00
   0   9   0   16.50    5.40
  -1  -9   0    8.20    3.40
   1   9   0    1.80    3.20
   1   9   0    4.00    3.70
  -2  -9   0    2.40    2.90
  -2  -9   0   -7.30    3.40
   2   9   0    2.10    3.50
   2   9   0   -5.90    3.70
   6 -10   0  -10.10    6.80
   6 -10   0    5.20    4.10
   6 -10   0   11.40    3.60
  -6  10   0   11.10    8.40
  -6  10   0   15.70    5.60
   5 -10   0   16.30    4.90
   5 -10   0   13.40    9.20
   5 -10   0   33.50    6.00
  -5  10   0   25.50    9.40
   4 -10   0   13.50    4.00
   4 -10   0    6.90    4.60
   4 -10   0   10.80    8.60
  -4  10   0   20.60    7.40
   3 -10   0    1.40    4.10
   3 -10   0    4.40    3.10
  -3  10   0    6.40    4.10
   2 -10   0   -0.70    3.00
   2 -10   0    4.60    2.80
   2 -10   0    5.60    3.30
  -2  10   0    0.70    2.90
  -2  10   0    2.60    4.40
   1 -10   0   30.90    6.30
   1 -10   0   59.29    9.90
  -1  10   0   43.80    7.90
  -1  10   0   50.49   10.50
   0 -10   0   47.70   10.00
   0 -10   0   18.60    6.20
   0  10   0   30.60    7.30
   0  10   0   34.30    8.10
  -1 -10   0   18.30    7.50
  -1 -10   0   12.10    6.10
   1  10   0   20.40    6.50
   1  10   0   39.10    9.30
   5 -11   0   14.00   10.80
   5 -11   0   26.50    6.00
  -5  11   0   36.30   10.10
   4 -11   0   17.20    8.80
   4 -11   0   29.20    6.80
  -4  11   0   43.10   10.70
   3 -11   0   28.10   11.50
   3 -11   0   33.30    7.10
  -3  11   0   29.60    9.50
   2 -11   0    5.10    3.60
   2 -11   0    0.80    3.80
   1 -11   0   41.80   11.00
   1 -11   0   56.79   10.70
   0  11  -1    6.70    5.30
   0 -11   1    3.70    4.10
   0 -11   1    1.00    4.40
  -1  11  -1    3.10    4.90
   1 -11   1    9.00    3.20
   1 -11   1    1.70    3.40
  -2  11  -1   26.70    8.00
   2 -11   1   17.70    4.80
   2 -11   1   20.80    5.40
  -3  11  -1   -4.40    4.80
   3 -11   1   -1.70    2.40
   3 -11   1  -12.50    5.60
  -4  11  -1   21.00    5.60
  -4  11  -1   19.20    9.00
   4 -11   1   27.30    5.90
   4 -11   1   30.00   10.80
  -5  11  -1   29.80    8.10
  -5  11  -1   29.90   11.40
   5 -11   1   44.30    6.90
   5 -11   1   49.99   14.60
   1  10  -1    6.10    5.20
   1  10  -1   11.70    5.90
  -1 -10   1    5.00    4.90
  -1 -10   1    9.40    4.10
   0  10  -1   41.10    8.50
   0  10  -1   46.60    8.70
   0 -10   1   42.20    9.50
   0 -10   1   46.40    8.90
  -1  10  -1   10.90    4.30
  -1  10  -1   13.40    5.00
   1 -10   1   15.00    5.00
   1 -10   1   10.70    5.10
  -2  10  -1  128.39   10.10
  -2  10  -1  132.59   11.50
  -2  10  -1  133.89   13.90
   2 -10   1  127.79   10.10
   2 -10   1  120.69   11.00
   2 -10   1  111.79    9.10
  -3  10  -1  150.18   16.30
  -3  10  -1  151.38   12.30
   3 -10   1  150.28   19.50
   3 -10   1  156.48   12.40
  -4  10  -1   -2.50    5.20
  -4  10  -1   -0.10    2.50
   4 -10   1    8.00    2.90
   4 -10   1   14.30    8.70
   4 -10   1   10.80    4.50
  -5  10  -1   30.60    9.80
  -5  10  -1   12.00    4.50
   5 -10   1   34.00    6.30
   5 -10   1   25.00    5.50
   5 -10   1    7.70    9.30
  -6  10  -1   22.30    5.30
  -6  10  -1   23.70    6.60
  -6  10  -1   43.90   13.00
   6 -10   1   21.90    4.70
   6 -10   1   34.50    7.70
   3   9  -1   27.60    7.80
   3   9  -1   15.70    6.30
  -3  -9   1   23.60    6.90
  -3  -9   1   22.00    8.00
   2   9  -1   67.79    9.70
   2   9  -1   72.59   11.90
  -2  -9   1   56.69   11.00
  -2  -9   1   60.89   10.20
   1   9  -1   12.70    5.60
   1   9  -1   21.40    5.60
  -1  -9   1   25.60    6.80
  -1  -9   1   16.10    5.50
   0   9  -1  135.09   12.00
   0   9  -1  137.99   12.00
   0  -9   1  138.29   12.00
   0  -9   1  160.28   14.30
   0  -9   1  163.78   13.40
  -1   9  -1  341.87   19.70
  -1   9  -1  367.36   17.40
  -1   9  -1  329.17   17.40
   1  -9   1  320.37   17.70
   1  -9   1  332.37   17.10
   1  -9   1  349.96   19.30
  -2   9  -1   30.20    5.20
  -2   9  -1   27.10    5.20
  -2   9  -1   24.00    6.50
   2  -9   1   21.70    5.00
   2  -9   1   28.70    4.70
   2  -9   1   33.40    5.70
  -3   9  -1   68.89   12.30
  -3   9  -1   61.29    7.30
   3  -9   1   66.39   14.40
   3  -9   1   61.89    7.40
  -4   9  -1   98.49    9.40
  -4   9  -1   90.59   15.50
   4  -9   1   78.19   15.60
   4  -9   1   73.99    8.10
   4  -9   1   90.09    8.00
   4  -9   1   89.39    8.50
  -5   9  -1   45.60    7.70
  -5   9  -1   58.29   12.70
  -5   9  -1   41.30   10.50
   5  -9   1   37.10    6.30
   5  -9   1   48.70    8.30
   5  -9   1   42.10   10.60
  -6   9  -1   19.70    4.90
  -6   9  -1   17.50    6.30
  -6   9  -1   25.30    9.50
   6  -9   1   11.60    4.50
   6  -9   1   15.30    4.10
   6  -9   1   14.60    8.60
  -7   9  -1    9.50    4.30
  -7   9  -1    7.70    5.10
   7  -9   1    5.50    5.00
   7  -9   1    3.60    2.80
   7  -9   1    3.40    8.80
   4   8  -1   18.20    6.20
  -4  -8   1   15.10    7.70
  -4  -8   1   15.30    7.40
   3   8  -1   23.10    7.30
   3   8  -1   40.30    6.30
  -3  -8   1   24.70    8.20
  -3  -8   1   37.50    7.30
   2   8  -1  146.29   13.90
   2   8  -1  143.29   12.60
  -2  -8   1  142.29   12.40
  -2  -8   1  131.99   14.70
   1   8  -1  238.08   16.30
   1   8  -1  244.48   15.60
  -1  -8   1  234.18   18.10
  -1  -8   1  237.38   15.20
   0   8  -1   10.50    4.10
   0   8  -1    7.00    2.50
   0   8  -1    5.10    3.70
   0  -8   1    9.80    3.70
   0  -8   1   10.50    3.50
   0  -8   1    2.30    3.20
  -1   8  -1   70.39    9.30
  -1   8  -1   90.99    8.30
  -1   8  -1   88.59    7.80
   1  -8   1   85.59    9.90
   1  -8   1   96.09    8.80
   1  -8   1   90.69    8.70
  -2   8  -1  110.79    9.20
  -2   8  -1  113.99   11.30
   2  -8   1  111.69    7.40
   2  -8   1  116.49    8.00
   2  -8   1  111.99    9.20
  -3   8  -1   71.49   12.60
  -3   8  -1   81.59    7.60
   3  -8   1   73.59    6.30
   3  -8   1   69.59    5.90
   3  -8   1   66.69    7.10
   3  -8   1   57.49   11.70
  -4   8  -1   66.99   13.40
  -4   8  -1   54.69    9.40
  -4   8  -1   59.99    6.90
   4  -8   1   60.19    6.50
   4  -8   1   55.29   11.70
   4  -8   1   63.99    7.20
  -5   8  -1   30.10    6.10
  -5   8  -1   28.80    6.90
  -5   8  -1   24.30    8.90
   5  -8   1   35.90    7.30
   5  -8   1   36.30    5.70
   5  -8   1   15.80    6.70
  -6   8  -1   65.69    7.50
  -6   8  -1   58.39   10.90
  -6   8  -1   74.89   16.70
   6  -8   1   64.89   11.20
   6  -8   1   65.69    6.70
   6  -8   1   55.49   12.90
  -7   8  -1    8.70    5.70
  -7   8  -1   13.80    6.40
   7  -8   1    5.70    7.00
   7  -8   1    7.20    2.50
   7  -8   1   15.50    6.00
   4   7  -1   20.60    6.10
   4   7  -1   42.40    9.30
  -4  -7   1   18.40    5.80
  -4  -7   1   46.30   11.20
   3   7  -1  126.09    9.90
   3   7  -1  103.69   11.90
  -3  -7   1  129.89   11.70
  -3  -7   1  115.39   13.80
   2   7  -1    8.30    4.30
   2   7  -1    6.00    2.30
  -2  -7   1    8.60    3.30
  -2  -7   1    4.50    4.20
   1   7  -1    6.70    2.80
   1   7  -1   11.40    3.80
  -1  -7   1    2.50    2.80
  -1  -7   1    8.10    3.20
  -1  -7   1    4.70    2.90
   0   7  -1   20.10    4.30
   0   7  -1   11.90    3.60
   0   7  -1   13.00    3.20
   0  -7   1   12.10    3.50
   0  -7   1   12.20    4.20
   0  -7   1    6.50    2.60
  -1   7  -1   35.90    6.60
  -1   7  -1   29.40    5.40
  -1   7  -1   31.90    4.20
   1  -7   1   26.10    5.10
   1  -7   1   33.60    5.80
   1  -7   1   33.20    4.40
  -2   7  -1   28.30    6.20
  -2   7  -1   32.40    7.10
  -2   7  -1   42.90    6.50
   2  -7   1   30.80    5.20
   2  -7   1   30.30    6.20
  -3   7  -1    3.50    2.80
  -3   7  -1    0.60    1.30
  -3   7  -1    4.30    2.40
   3  -7   1    2.40    1.60
   3  -7   1    1.50    1.30
   3  -7   1    0.60    2.30
  -4   7  -1  229.78   15.60
  -4   7  -1  219.88   12.50
  -4   7  -1  190.38   17.40
   4  -7   1  226.28   19.70
   4  -7   1  257.27   14.50
   4  -7   1  228.68   11.70
  -5   7  -1   41.00    8.00
  -5   7  -1   55.19   12.10
  -5   7  -1   42.50    5.20
   5  -7   1   43.30    5.10
   5  -7   1   36.50    8.60
   5  -7   1   34.50    6.90
  -6   7  -1    0.20    1.60
  -6   7  -1    7.00    4.70
  -6   7  -1    1.60    2.80
   6  -7   1    1.60    4.60
  -7   7  -1    6.70    4.00
  -7   7  -1    5.60    2.50
   7  -7   1    1.70    2.10
   7  -7   1    0.90    3.90
   7  -7   1    5.80    7.20
   5   6  -1    7.10    4.40
   5   6  -1    3.60    4.10
  -5  -6   1    5.70    3.20
  -5  -6   1    0.40    3.00
  -5  -6   1   -0.10    4.50
   4   6  -1    5.20    3.30
   4   6  -1    8.20    4.20
  -4  -6   1   13.50    3.90
  -4  -6   1    2.40    4.30
   3   6  -1    6.30    3.40
   3   6  -1    0.90    2.40
  -3  -6   1   10.10    3.20
  -3  -6   1   -1.20    3.40
   2   6  -1   -0.40    1.30
   2   6  -1    1.70    1.70
  -2  -6   1    4.00    1.90
  -2  -6   1    4.00    2.70
   1   6  -1   14.30    4.00
  -1  -6   1   15.80    4.70
  -1  -6   1   20.90    5.50
  -1  -6   1   21.70    4.50
   0   6  -1   17.80    3.90
   0   6  -1   16.90    3.70
   0   6  -1   12.40    3.50
   0  -6   1   13.90    4.10
   0  -6   1   13.10    3.60
   0  -6   1   17.80    4.00
  -1   6  -1   52.49    4.90
  -1   6  -1   49.50    5.80
  -1   6  -1   42.20    4.40
  -1   6  -1   43.70    4.80
   1  -6   1   47.40    5.00
   1  -6   1   44.20    5.00
   1  -6   1   46.30    4.70
   1  -6   1   37.00    4.90
  -2   6  -1  265.87    8.60
  -2   6  -1  267.07   15.50
  -2   6  -1  257.47   12.50
  -2   6  -1  237.68   10.00
   2  -6   1  274.87   13.60
   2  -6   1  261.57   10.10
   2  -6   1  261.07   14.00
   2  -6   1  270.17   10.10
   2  -6   1  263.77   12.20
  -3   6  -1    3.00    2.20
  -3   6  -1    8.20    3.50
  -3   6  -1    6.50    2.40
   3  -6   1    3.90    1.80
   3  -6   1    0.40    2.80
   3  -6   1    5.50    2.50
  -4   6  -1   59.09    6.00
  -4   6  -1   66.99    7.80
  -4   6  -1   52.29   11.00
   4  -6   1   58.39    5.60
   4  -6   1   69.69    7.80
   4  -6   1   53.89   10.00
  -5   6  -1    5.30    2.20
  -5   6  -1    3.90    5.20
  -5   6  -1    5.80    3.50
   5  -6   1   10.30    5.30
   5  -6   1    5.00    2.90
   5  -6   1    4.50    2.70
   5  -6   1    5.50    2.30
  -6   6  -1   13.20    3.30
  -6   6  -1    7.70    3.50
   6  -6   1   10.40    2.80
   6  -6   1   15.30    5.20
   6  -6   1   13.50    3.70
  -7   6  -1   -3.50    2.50
  -7   6  -1   -0.90    1.70
   7  -6   1    2.10    2.70
   7  -6   1   10.70    6.50
   7  -6   1    2.90    2.10
  -8   6  -1   -4.60    3.00
   8  -6   1   -9.20    6.80
   8  -6   1   -5.00    4.60
   6   5  -1    7.00    5.40
   6   5  -1   15.30    6.20
  -6  -5   1   13.80    7.20
  -6  -5   1    4.40    4.10
  -6  -5   1   10.80    4.50
   5   5  -1   29.50   12.20
   5   5  -1   58.29   11.30
   5   5  -1   38.70    9.50
  -5  -5   1   36.00    7.20
  -5  -5   1   48.90   11.00
  -5  -5   1   43.50    8.00
   4   5  -1   59.29   11.00
   4   5  -1   55.69    8.70
   4   5  -1   49.30   17.70
  -4  -5   1   59.49    7.40
  -4  -5   1   71.69   13.30
  -4  -5   1   54.89    6.30
   3   5  -1   36.20    6.10
   3   5  -1   26.40    6.10
   3   5  -1   16.80    7.80
  -3  -5   1   24.40    4.90
  -3  -5   1   41.40    5.90
  -3  -5   1   23.90    7.00
   2   5  -1   69.89    6.00
   2   5  -1   67.69    7.60
  -2  -5   1   80.49   10.50
  -2  -5   1   61.89    5.60
  -2  -5   1   64.49    6.40
  -2  -5   1   65.89    8.60
   1   5  -1  212.68   10.00
   1   5  -1  235.48    8.20
   1   5  -1  220.38   12.40
  -1  -5   1  221.38   12.90
  -1  -5   1  240.18   11.20
  -1  -5   1  224.58   11.40
  -1  -5   1  240.68   14.30
   0   5  -1   88.59    7.10
   0   5  -1   90.59    6.70
   0   5  -1   84.79    6.70
   0   5  -1   87.29    6.20
   0   5  -1   91.79    6.80
   0  -5   1   81.59    6.40
   0  -5   1   93.29   12.10
   0  -5   1   81.89    6.70
   0  -5   1   97.19    7.60
   0  -5   1   85.79    6.60
  -1   5  -1   38.40    3.60
  -1   5  -1   37.60    4.60
  -1   5  -1   47.30    4.70
  -1   5  -1   44.40    5.10
  -1   5  -1   44.10    3.90
   1  -5   1   39.20    4.20
   1  -5   1   34.60    4.30
   1  -5   1   41.60    4.60
   1  -5   1   42.90    4.80
   1  -5   1   44.90    4.10
   1  -5   1   44.20    9.30
   1  -5   1   44.50    4.10
  -2   5  -1  859.81   25.60
  -2   5  -1  865.21   28.40
  -2   5  -1  876.81   23.10
   2  -5   1  885.71   22.60
   2  -5   1  877.51   26.30
   2  -5   1  870.61   24.40
   2  -5   1  887.71   24.60
   2  -5   1  908.41   21.40
  -3   5  -1   19.50    5.50
  -3   5  -1   28.80    4.50
  -3   5  -1   26.90    5.20
   3  -5   1   28.40    5.20
   3  -5   1   28.60    4.60
   3  -5   1   22.00    4.10
   3  -5   1   23.60    5.80
   3  -5   1   33.70    6.30
   3  -5   1   30.60    3.80
  -4   5  -1   74.59    6.10
  -4   5  -1   73.29   12.70
  -4   5  -1   64.69    7.40
   4  -5   1   61.39    5.60
   4  -5   1   55.29   13.50
   4  -5   1   64.49    8.80
  -5   5  -1   21.50    3.80
  -5   5  -1   14.40    6.50
  -5   5  -1   27.80    6.50
   5  -5   1   34.10    7.30
   5  -5   1   30.70    4.80
   5  -5   1   18.50    6.50
   5  -5   1   23.70    6.00
  -6   5  -1   42.50    5.60
  -6   5  -1   31.30    7.40
   6  -5   1   43.80    9.90
   6  -5   1   32.70    8.10
   6  -5   1   45.20    5.00
  -7   5  -1   18.80    6.20
  -7   5  -1   25.20    4.00
   7  -5   1   32.30    7.80
   7  -5   1   32.20    9.00
  -8   5  -1    6.70    4.60
   8  -5   1   15.10    8.10
   8  -5   1   -3.00    5.40
   6   4  -1   43.60   13.90
   6   4  -1   45.90   10.20
   6   4  -1   19.50    6.90
  -6  -4   1   43.60    8.30
  -6  -4   1   36.90    7.10
  -6  -4   1   32.20    9.00
   5   4  -1   81.39   10.20
   5   4  -1   76.89   18.60
   5   4  -1   83.99   10.40
  -5  -4   1   75.49    8.70
  -5  -4   1   65.89   21.00
  -5  -4   1   66.89    7.50
   4   4  -1  166.98   20.70
   4   4  -1  157.08   12.30
   4   4  -1  154.68   13.40
  -4  -4   1  164.58    8.50
  -4  -4   1  170.08   11.50
  -4  -4   1  153.58   14.80
   3   4  -1  128.49   11.00
   3   4  -1  146.19   17.60
   3   4  -1  133.29    9.70
  -3  -4   1  136.99   12.60
  -3  -4   1  143.29    7.70
  -3  -4   1  129.39    9.20
   2   4  -1   18.90    7.50
   2   4  -1   21.50    4.60
   2   4  -1   11.70    3.00
  -2  -4   1   12.80    3.20
  -2  -4   1   11.70    2.40
  -2  -4   1   12.50    3.40
  -2  -4   1   18.10    4.40
   1   4  -1  319.77    9.70
   1   4  -1  345.57   13.20
   1   4  -1  309.57   13.80
   1   4  -1  319.87   22.20
   1   4  -1  317.97   13.90
   1   4  -1  320.27   11.10
  -1  -4   1  314.17   15.00
  -1  -4   1  325.37   11.90
  -1  -4   1  314.97   12.50
  -1  -4   1  324.37   14.50
  -1  -4   1  320.87   22.50
   0   4  -1 2459.85   44.20
   0   4  -1 2457.75   44.30
   0   4  -1 2448.85   43.40
   0   4  -1 2425.46   45.20
   0   4  -1 2475.05   43.20
   0  -4   1 2450.55   45.80
   0  -4   1 2474.15   63.49
   0  -4   1 2415.66   43.70
   0  -4   1 2458.25   44.00
   0  -4   1 2466.65   44.80
  -1   4  -1  267.17    8.50
  -1   4  -1  290.37   11.70
  -1   4  -1  281.47   10.80
  -1   4  -1  286.27   12.10
   1  -4   1  290.87   11.90
   1  -4   1  286.77    9.10
   1  -4   1  267.37   11.00
   1  -4   1  277.07   10.60
   1  -4   1  274.97    8.90
   1  -4   1  273.97   11.20
  -2   4  -1  556.74   18.70
  -2   4  -1  601.24   17.00
  -2   4  -1  588.24   21.80
   2  -4   1  589.84   16.50
   2  -4   1  583.24   22.60
   2  -4   1  559.54   19.70
   2  -4   1  585.94   17.60
   2  -4   1  588.14   16.80
   2  -4   1  588.44   17.60
  -3   4  -1  283.47   11.40
  -3   4  -1  293.57   17.60
  -3   4  -1  293.07   14.10
   3  -4   1  292.77   13.90
   3  -4   1  292.87   12.40
   3  -4   1  279.17   15.80
   3  -4   1  294.07   12.50
   3  -4   1  289.07   15.90
  -4   4  -1   69.99    7.10
  -4   4  -1   61.59   11.10
  -4   4  -1   72.59    5.00
  -4   4  -1   72.09    5.50
   4  -4   1   80.59    9.00
   4  -4   1   68.99    8.40
   4  -4   1   82.19    6.40
   4  -4   1   76.99    6.30
  -5   4  -1  140.69   11.30
  -5   4  -1  139.69    7.80
  -5   4  -1  135.99   12.60
   5  -4   1  142.99    8.40
   5  -4   1  145.99    8.60
   5  -4   1  149.49    7.30
   5  -4   1  149.69    7.40
   5  -4   1  129.29   12.10
   5  -4   1  157.78   14.30
  -6   4  -1   22.40    5.70
  -6   4  -1   37.00    7.60
  -6   4  -1   25.00    3.90
  -6   4  -1   15.30    4.50
   6  -4   1   20.00    3.90
   6  -4   1   29.50    7.60
   6  -4   1   24.10    7.20
   6  -4   1   21.50    3.80
   6  -4   1   22.20    3.90
  -7   4  -1   80.09   16.10
  -7   4  -1   66.09    5.00
  -7   4  -1   62.19   10.90
   7  -4   1   56.29   11.60
   7  -4   1   68.09    7.00
   7  -4   1   54.69   12.30
   7  -4   1   70.29    9.10
   7  -4   1   72.09    7.10
  -8   4  -1   42.30   11.10
   8  -4   1   39.30    6.50
   8  -4   1   51.59   12.80
   8  -4   1    9.80   10.80
   7   3  -1   14.40    5.30
   7   3  -1    9.50    6.00
   7   3  -1   18.80    9.10
  -7  -3   1   10.70    5.40
  -7  -3   1   21.20    8.10
  -7  -3   1   20.60    7.50
   6   3  -1   47.20   14.40
   6   3  -1   52.69    9.80
   6   3  -1   45.20    9.50
  -6  -3   1   47.70   11.50
  -6  -3   1   79.09    8.60
  -6  -3   1   67.29    8.50
   5   3  -1  103.79   11.40
   5   3  -1   80.89   18.80
   5   3  -1   89.09   10.40
  -5  -3   1  115.49    9.50
  -5  -3   1   79.89   13.10
  -5  -3   1  121.39    9.90
   4   3  -1   25.70    8.80
   4   3  -1   28.30    6.30
   4   3  -1   24.80    5.70
  -4  -3   1   25.00    6.70
  -4  -3   1   37.70    6.10
  -4  -3   1   30.00    3.10
   3   3  -1  250.37   13.20
   3   3  -1  231.28   11.10
   3   3  -1  247.88   22.00
   3   3  -1  239.98   14.00
  -3  -3   1  251.37   11.70
  -3  -3   1  247.58    8.90
  -3  -3   1  242.18   15.80
   2   3  -1 1508.65   32.00
   2   3  -1 1511.15   31.60
   2   3  -1 1552.34   36.70
   2   3  -1 1552.24   52.59
   2   3  -1 1519.75   36.20
  -2  -3   1 1491.95   31.30
  -2  -3   1 1511.05   51.39
  -2  -3   1 1463.35   36.70
  -2  -3   1 1486.15   28.30
  -2  -3   1 1542.05   38.50
   1   3  -1  680.83   19.40
   1   3  -1  675.03   14.60
   1   3  -1  654.13   28.60
   1   3  -1  647.94   19.00
   1   3  -1  633.74   15.00
   1   3  -1  653.53   17.20
  -1  -3   1  634.24   15.80
  -1  -3   1  652.53   29.00
  -1  -3   1  658.23   20.10
  -1  -3   1  653.03   19.50
  -1  -3   1  625.84   16.80
   0   3  -1  776.12   17.80
   0   3  -1  752.32   17.20
   0   3  -1  750.82   16.70
   0   3  -1  758.32   17.70
   0   3  -1  767.62   18.50
   0  -3   1  766.02   17.70
   0  -3   1  727.43   27.30
   0  -3   1  788.02   18.10
   0  -3   1  745.63   17.90
   0  -3   1  751.22   18.10
  -1   3  -1  693.03   16.90
  -1   3  -1  720.23   13.20
  -1   3  -1  683.93   18.30
  -1   3  -1  737.23   19.30
   1  -3   1  716.53   14.70
   1  -3   1  693.03   17.90
   1  -3   1  735.13   13.80
   1  -3   1  708.03   16.90
   1  -3   1  723.93   17.70
   1  -3   1  702.43   18.10
  -2   3  -1  379.26   11.70
  -2   3  -1  366.66   13.50
  -2   3  -1  371.96   16.40
   2  -3   1  345.97   11.70
   2  -3   1  366.86   12.50
   2  -3   1  353.76   15.20
   2  -3   1  350.16   14.60
   2  -3   1  355.26   12.90
  -3   3  -1  640.44   16.40
  -3   3  -1  628.24   14.10
  -3   3  -1  656.63   21.70
  -3   3  -1  627.44   20.00
  -3   3  -1  604.74   26.20
   3  -3   1  578.34   17.70
   3  -3   1  616.54   13.20
   3  -3   1  640.04   21.80
   3  -3   1  643.84   17.00
   3  -3   1  657.63   22.80
   3  -3   1  647.94   13.20
   3  -3   1  629.14   24.90
   3  -3   1  655.93   18.30
  -4   3  -1    8.50    3.30
  -4   3  -1   23.70    4.80
  -4   3  -1   19.20    3.70
  -4   3  -1   13.90    2.70
  -4   3  -1   20.50    3.40
   4  -3   1   16.50    2.90
   4  -3   1   21.00    5.20
   4  -3   1   16.90    2.90
   4  -3   1   19.30    4.90
   4  -3   1   19.20    3.40
   4  -3   1   12.30    2.40
  -5   3  -1  174.48   13.90
  -5   3  -1  167.58   12.10
  -5   3  -1  188.88   12.00
  -5   3  -1  169.68    7.80
   5  -3   1  166.08   14.90
   5  -3   1  181.18    9.10
   5  -3   1  163.58    9.30
   5  -3   1  171.78   14.10
   5  -3   1  159.48    9.20
  -6   3  -1  250.67   16.10
  -6   3  -1  248.98   16.50
  -6   3  -1  246.98   19.00
  -6   3  -1  242.48    8.90
   6  -3   1  241.18   18.60
   6  -3   1  251.17   13.40
   6  -3   1  270.87   13.80
   6  -3   1  238.98   20.30
   6  -3   1  261.77   11.20
  -7   3  -1   32.40    8.60
  -7   3  -1   39.30    8.40
   7  -3   1   41.20    7.10
   7  -3   1   34.30    7.00
   7  -3   1   18.00    6.10
   7  -3   1   44.80   11.60
  -8   3  -1   12.40    4.20
   8  -3   1    3.80    7.60
   8  -3   1   19.00    7.00
   8  -3   1   11.20    4.80
   7   2  -1   10.00   10.40
   7   2  -1   12.40    5.40
   7   2  -1   16.20    6.20
  -7  -2   1    8.90    5.30
  -7  -2   1   14.00    5.20
   6   2  -1    4.70    4.10
   6   2  -1   -1.60    2.10
   6   2  -1    3.30    7.30
  -6  -2   1   10.60    5.90
  -6  -2   1    6.50    3.10
  -6  -2   1    1.00    2.80
   5   2  -1  166.68   13.70
   5   2  -1  163.38   13.60
   5   2  -1  182.98   21.40
  -5  -2   1  168.88   15.50
  -5  -2   1  161.78   10.60
  -5  -2   1  174.28   11.50
   4   2  -1  579.74   23.70
   4   2  -1  611.54   18.30
   4   2  -1  603.24   24.30
   4   2  -1  650.63   36.40
  -4  -2   1  653.73   20.30
  -4  -2   1  600.94   28.90
  -4  -2   1  648.94   21.60
   3   2  -1  245.48   13.00
   3   2  -1  236.48    9.80
   3   2  -1  218.48   12.60
   3   2  -1  221.58   12.50
   3   2  -1  238.58   19.40
  -3  -2   1  250.87   14.30
  -3  -2   1  237.58    7.10
  -3  -2   1  224.48   13.20
  -3  -2   1  208.48   17.90
  -3  -2   1  232.08   10.00
   2   2  -1  101.39    7.30
   2   2  -1   90.59   10.50
   2   2  -1  115.39    6.00
   2   2  -1  108.09    7.00
  -2  -2   1  114.79    8.00
  -2  -2   1  108.59    8.00
  -2  -2   1   99.69    4.50
  -2  -2   1   98.69    5.60
  -2  -2   1  107.29   11.50
   1   2  -1  452.25   13.80
   1   2  -1  465.25   14.00
   1   2  -1  447.86   20.50
   1   2  -1  471.45   11.50
   1   2  -1  472.05   12.20
  -1  -2   1  466.95   14.30
  -1  -2   1  453.45   10.80
  -1  -2   1  458.65   20.60
  -1  -2   1  449.46   11.80
  -1  -2   1  445.56   14.20
   0   2  -1  271.07    7.80
   0   2  -1  234.28   13.40
   0   2  -1  250.87    8.20
   0   2  -1  265.17    6.70
   0   2  -1  263.97    7.90
   0  -2   1  244.48    7.90
   0  -2   1  249.08    7.90
   0  -2   1  256.97    8.00
   0  -2   1  250.17   12.40
  -1   2  -1 1000.50   22.90
  -1   2  -1 1031.20   19.80
  -1   2  -1  975.80   22.20
  -1   2  -1 1018.10   21.30
   1  -2   1 1023.20   22.40
   1  -2   1 1001.90   20.70
   1  -2   1  992.80   19.40
   1  -2   1  994.80   19.60
  -2   2  -1  246.48   13.30
  -2   2  -1  245.48    9.90
  -2   2  -1  253.57    8.50
  -2   2  -1  253.57    7.10
  -2   2  -1  245.28   10.70
  -2   2  -1  235.08   11.20
   2  -2   1  274.27    9.80
   2  -2   1  256.87   10.70
   2  -2   1  253.47   12.80
   2  -2   1  243.58   10.80
   2  -2   1  244.38    8.40
   2  -2   1  257.47    9.50
   2  -2   1  257.47    7.10
  -3   2  -1  360.66   11.80
  -3   2  -1  372.96   16.40
  -3   2  -1  356.36   13.70
  -3   2  -1  349.96   15.30
  -3   2  -1  365.66   10.90
  -3   2  -1  371.76   13.30
   3  -2   1  375.76   11.60
   3  -2   1  352.96   16.10
   3  -2   1  374.46   16.30
   3  -2   1  340.57   18.10
   3  -2   1  371.66   11.70
   3  -2   1  355.06   12.10
   3  -2   1  369.36   12.90
   3  -2   1  371.96   11.10
  -4   2  -1  387.76   11.50
  -4   2  -1  369.66   16.20
  -4   2  -1  398.26   19.50
  -4   2  -1  402.06   16.50
   4  -2   1  381.46   14.30
   4  -2   1  383.96   13.10
   4  -2   1  371.66   22.20
   4  -2   1  377.56   19.10
   4  -2   1  399.06   20.50
  -5   2  -1   17.30    6.10
  -5   2  -1   12.70    4.20
  -5   2  -1   17.50    4.70
  -5   2  -1   21.40    2.50
   5  -2   1   21.10    4.70
   5  -2   1   19.60    4.30
   5  -2   1   15.30    5.40
   5  -2   1   20.10    4.90
   5  -2   1   17.80    4.00
  -6   2  -1   86.79   10.40
  -6   2  -1   82.49    9.90
   6  -2   1   81.09    6.30
   6  -2   1   81.29   21.00
   6  -2   1   77.19   14.50
   6  -2   1   84.69    7.90
   6  -2   1  100.19    9.00
  -7   2  -1   57.59   11.30
  -7   2  -1   52.99    9.20
   7  -2   1   62.39   14.00
   7  -2   1   48.50    8.30
   7  -2   1   59.49   12.20
  -8   2  -1    9.10    4.60
   8  -2   1    8.20    4.00
   8  -2   1   20.20    9.30
   8  -2   1   15.60    6.00
   7   1  -1    9.40    4.40
   7   1  -1    6.80    8.00
   7   1  -1    7.30    4.70
  -7  -1   1    8.30    5.10
  -7  -1   1    7.80    3.60
  -7  -1   1   10.90    4.70
   6   1  -1   82.19   17.10
   6   1  -1   77.89   12.80
   6   1  -1   72.59    9.40
  -6  -1   1   54.19   10.90
  -6  -1   1   80.89    8.30
  -6  -1   1   68.49    7.20
   5   1  -1   58.89    9.90
   5   1  -1   64.89    5.50
   5   1  -1   69.19    8.10
   5   1  -1   80.99   16.00
  -5  -1   1   66.19    6.80
  -5  -1   1   60.69    6.10
  -5  -1   1   77.59   12.40
   4   1  -1   23.10    4.90
   4   1  -1   19.50    3.10
   4   1  -1   17.20    6.80
   4   1  -1   16.40    4.10
   4   1  -1   28.20    6.00
  -4  -1   1   18.10    3.80
  -4  -1   1   23.10    5.90
  -4  -1   1   13.50    2.80
   3   1  -1   15.50    4.00
   3   1  -1    9.20    2.70
   3   1  -1   12.30    3.10
   3   1  -1    5.70    3.40
   3   1  -1    9.60    1.90
   3   1  -1   15.50    4.10
  -3  -1   1    8.10    1.90
  -3  -1   1    9.50    4.50
  -3  -1   1   17.10    4.10
  -3  -1   1    8.30    2.80
   2   1  -1    2.70    1.90
   2   1  -1    0.00    0.60
   2   1  -1    1.30    0.60
   2   1  -1    0.50    1.00
   2   1  -1    1.60    0.90
   2   1  -1    1.10    0.80
  -2  -1   1    0.70    1.50
  -2  -1   1    3.30    1.50
  -2  -1   1    0.10    0.60
  -2  -1   1    0.80    0.60
   1   1  -1  316.67    9.90
   1   1  -1  325.67    9.80
   1   1  -1  289.27   17.60
   1   1  -1  312.67    6.70
  -1  -1   1  310.37   10.00
  -1  -1   1  315.57    6.90
  -1  -1   1  339.07   14.50
  -1  -1   1  314.67    7.70
  -1  -1   1  307.57    9.60
   0   1  -1  380.36    8.30
   0   1  -1  369.96   10.80
   0   1  -1  389.26    8.80
   0   1  -1  375.56    7.00
   0   1  -1  384.66    8.00
   0  -1   1  376.56   10.90
   0  -1   1  368.36    7.10
   0  -1   1  371.76    8.20
   0  -1   1  387.86    8.10
   0  -1   1  355.16    8.70
  -1   1  -1  255.27    8.00
  -1   1  -1  271.87    7.20
  -1   1  -1  265.07    7.70
  -1   1  -1  255.07    6.90
  -1   1  -1  248.78    8.40
   1  -1   1  267.77   10.30
   1  -1   1  263.47    7.70
   1  -1   1  260.27    8.50
   1  -1   1  263.67    7.30
   1  -1   1  268.27    7.20
   1  -1   1  246.28    8.30
   1  -1   1  263.57    6.80
   1  -1   1  272.27    6.70
  -2   1  -1  846.72   16.30
  -2   1  -1  791.92   18.80
  -2   1  -1  800.22   19.70
  -2   1  -1  818.62   19.00
  -2   1  -1  860.51   18.30
  -2   1  -1  799.22   21.70
   2  -1   1  851.81   18.40
   2  -1   1  799.42   18.70
   2  -1   1  823.02   18.00
   2  -1   1  858.61   22.30
   2  -1   1  804.92   21.90
   2  -1   1  837.42   25.70
   2  -1   1  786.12   17.90
  -3   1  -1   -0.90    1.30
  -3   1  -1    2.90    1.00
  -3   1  -1   -0.20    1.10
  -3   1  -1    4.20    1.80
  -3   1  -1    2.80    1.60
  -3   1  -1    2.60    1.40
  -3   1  -1    3.50    1.60
   3  -1   1   -0.70    1.50
   3  -1   1    2.10    1.40
   3  -1   1    2.80    1.40
   3  -1   1    2.70    1.30
   3  -1   1    2.00    1.50
   3  -1   1    2.50    2.10
   3  -1   1    2.70    1.10
  -4   1  -1    5.70    1.40
  -4   1  -1    7.20    2.50
  -4   1  -1    6.50    2.90
  -4   1  -1    6.00    2.30
  -4   1  -1    3.90    3.30
   4  -1   1    6.00    1.80
   4  -1   1    4.90    2.50
   4  -1   1    7.60    4.00
   4  -1   1    7.70    2.60
   4  -1   1    7.90    2.40
  -5   1  -1   37.50    6.20
  -5   1  -1   38.00    7.80
  -5   1  -1   17.00    6.40
  -5   1  -1   23.90    5.00
   5  -1   1   36.70    7.40
   5  -1   1   35.50    4.10
   5  -1   1   33.30    5.90
   5  -1   1   45.00    5.80
   5  -1   1   40.70    9.90
  -6   1  -1   23.50    5.40
  -6   1  -1   16.60    6.30
  -6   1  -1   26.20    6.40
   6  -1   1   13.00    6.10
   6  -1   1   14.40    4.50
   6  -1   1   25.60    7.10
   6  -1   1   26.40    5.70
  -7   1  -1   47.30    8.30
  -7   1  -1   45.30    8.80
  -7   1  -1   38.90   10.20
   7  -1   1   16.30    8.80
   7  -1   1   40.30    7.50
   7  -1   1   45.40   10.20
   8   0  -1    4.50    8.40
   8   0  -1    7.60    5.10
   8   0  -1    3.00    3.40
  -8   0   1  -10.60    5.80
  -8   0   1    6.80    3.40
   7   0  -1    3.70    2.90
   7   0  -1   -0.10    2.50
   7   0  -1   -2.90    5.10
  -7   0   1    3.10    4.30
  -7   0   1    2.60    1.90
   6   0  -1   13.80    7.90
   6   0  -1   23.00    3.60
   6   0  -1   18.20    4.90
   6   0  -1    8.90    4.60
  -6   0   1   15.90    4.00
  -6   0   1   14.20    5.60
  -6   0   1   19.90    4.50
   5   0  -1   -1.60    3.30
   5   0  -1    3.20    1.50
   5   0  -1    1.20    1.60
   5   0  -1    0.80    1.10
  -5   0   1   -1.00    1.00
  -5   0   1    2.10    1.80
  -5   0   1   -1.80    1.00
   4   0  -1   -0.10    1.20
   4   0  -1    1.30    0.70
   4   0  -1    1.20    1.40
   4   0  -1    2.00    2.10
  -4   0   1    1.10    1.40
  -4   0   1   -0.20    0.70
   3   0  -1    8.50    2.60
   3   0  -1    9.10    2.40
   3   0  -1   18.80    4.60
   3   0  -1   13.70    3.00
   3   0  -1   12.00    1.50
   3   0  -1    9.10    3.30
  -3   0   1   17.10    4.80
  -3   0   1   10.00    2.80
  -3   0   1   11.80    2.00
  -3   0   1    8.80    2.80
  -3   0   1   13.00    2.80
   2   0  -1   42.30    3.70
   2   0  -1   39.90    2.10
   2   0  -1   41.60    5.70
   2   0  -1   43.60    4.30
   2   0  -1   41.60    4.60
   2   0  -1   36.50    3.40
  -2   0   1   36.50    4.60
  -2   0   1   27.10    4.90
  -2   0   1   39.50    2.20
  -2   0   1   40.90    3.60
  -2   0   1   44.00    3.80
   1   0  -1   11.90    1.40
   1   0  -1   13.40    1.60
   1   0  -1   12.90    2.80
   1   0  -1   14.70    1.80
  -1   0   1   13.90    0.80
  -1   0   1   13.30    1.50
  -1   0   1   14.00    1.70
  -1   0   1   13.00    2.20
  -1   0   1   13.30    2.70
  -1   0  -1   34.50    2.80
  -1   0  -1   35.80    3.30
  -1   0  -1   33.40    3.00
  -1   0  -1   33.60    2.40
  -1   0  -1   36.80    2.80
  -1   0  -1   33.80    3.50
   1   0   1   33.50    2.20
   1   0   1   27.40    3.20
   1   0   1   32.80    2.50
   1   0   1   31.60    3.20
   1   0   1   31.80    2.70
  -2   0  -1    1.80    0.90
  -2   0  -1   -0.10    0.70
  -2   0  -1   -2.40    1.10
  -2   0  -1    1.30    0.80
  -2   0  -1   -0.70    0.60
  -2   0  -1    0.60    0.70
   2   0   1    1.90    1.60
   2   0   1    0.50    0.50
   2   0   1    0.80    0.50
   2   0   1    0.30    0.50
   2   0   1    0.10    0.60
   2   0   1   -0.90    0.50
  -3   0  -1   11.20    2.70
  -3   0  -1    8.60    3.10
  -3   0  -1    3.50    1.80
  -3   0  -1   11.20    3.00
  -3   0  -1    8.60    2.60
  -3   0  -1    9.70    3.50
   3   0   1    8.40    2.40
   3   0   1   10.40    3.30
   3   0   1    7.80    1.90
   3   0   1   10.50    4.00
   3   0   1   10.10    2.80
  -4   0  -1   42.60    5.00
  -4   0  -1   45.00    5.20
  -4   0  -1   47.30    9.30
  -4   0  -1   52.99    8.90
  -4   0  -1   47.10    3.30
   4   0   1   42.60    5.60
   4   0   1   44.90    7.60
   4   0   1   43.40    4.40
   4   0   1   68.49    9.50
   4   0   1   46.20    5.70
  -5   0  -1    2.80    1.70
  -5   0  -1    9.80    4.20
  -5   0  -1    2.70    2.70
   5   0   1    3.20    4.10
   5   0   1    2.60    2.30
   5   0   1    4.70    2.50
   5   0   1    5.30    2.20
  -6   0  -1    4.50    3.10
  -6   0  -1    6.00    4.80
  -6   0  -1    0.20    1.60
   6   0   1    2.20    3.00
   6   0   1    0.70    1.90
   6   0   1    7.90    5.60
  -7   0  -1   11.30    4.70
  -7   0  -1    2.40    3.50
  -7   0  -1   -5.60    4.20
   7   0   1    1.00    7.40
   7   0   1    6.10    4.40
   7   0   1    0.70    2.50
   8  -1  -1   20.60    5.60
   8  -1  -1   10.00    9.00
   8  -1  -1    5.30    5.40
  -8   1   1   19.30    7.40
   7  -1  -1   24.70    7.40
   7  -1  -1   25.40    6.00
   7  -1  -1   21.40   10.00
   7  -1  -1   39.00    7.10
  -7   1   1   30.50    7.10
  -7   1   1   41.80    9.00
   6  -1  -1   39.70    6.80
   6  -1  -1   41.50    8.80
   6  -1  -1   38.80   12.00
   6  -1  -1   38.40    7.00
   6  -1  -1   36.40    3.60
  -6   1   1   36.10    8.20
  -6   1   1   41.60    4.80
  -6   1   1   28.20    5.40
   5  -1  -1   21.00    4.90
   5  -1  -1   18.30    2.40
   5  -1  -1   24.80    6.30
   5  -1  -1   25.80    5.10
   5  -1  -1   16.90    7.60
  -5   1   1   29.00    6.00
  -5   1   1   24.30    3.10
  -5   1   1   19.00    4.00
   4  -1  -1    8.80    2.40
   4  -1  -1   11.70    1.50
   4  -1  -1   10.40    3.80
   4  -1  -1   12.90    5.10
   4  -1  -1   11.60    3.20
  -4   1   1   10.10    2.10
  -4   1   1    8.10    2.70
  -4   1   1   12.30    3.80
  -4   1   1    7.70    2.40
  -4   1   1    8.90    4.60
   3  -1  -1  330.37   11.70
   3  -1  -1  317.77   12.00
   3  -1  -1  325.67   18.40
   3  -1  -1  332.37   14.90
   3  -1  -1  304.17   15.90
  -3   1   1  320.47   12.30
  -3   1   1  322.17   11.80
  -3   1   1  331.87   17.30
  -3   1   1  327.27   17.60
  -3   1   1  342.37   11.70
   2  -1  -1  978.80   16.40
   2  -1  -1  991.40   19.60
   2  -1  -1 1036.00   19.80
   2  -1  -1 1012.70   28.90
   2  -1  -1 1024.20   20.00
   2  -1  -1 1016.50   26.00
  -2   1   1 1033.00   19.70
  -2   1   1 1016.70   20.70
  -2   1   1 1027.90   19.70
  -2   1   1 1029.70   28.40
  -2   1   1 1016.90   26.70
   1  -1  -1  332.17   10.30
   1  -1  -1  327.67    7.60
   1  -1  -1  336.87   12.70
   1  -1  -1  317.67    6.10
   1  -1  -1  340.47    8.60
   1  -1  -1  335.27    6.80
  -1   1   1  330.67   12.50
  -1   1   1  340.27    6.20
  -1   1   1  342.07    7.00
  -1   1   1  328.37    8.70
  -1   1   1  327.97    7.60
  -1   1   1  324.47   10.40
   0  -1  -1  413.16   10.10
   0  -1  -1  403.06   10.00
   0  -1  -1  402.96    9.50
   0  -1  -1  414.56   11.70
   0   1   1  424.66   11.50
   0   1   1  403.56   10.10
   0   1   1  428.56   10.20
  -1  -1  -1    0.60    1.20
  -1  -1  -1    0.50    0.50
  -1  -1  -1    0.90    0.70
  -1  -1  -1    0.60    0.40
  -1  -1  -1    1.60    0.90
  -1  -1  -1    1.60    1.00
   1   1   1    1.20    0.80
   1   1   1    1.80    0.90
   1   1   1    1.40    0.60
   1   1   1    0.40    0.60
   1   1   1    1.40    1.40
  -2  -1  -1   77.89    6.10
  -2  -1  -1   80.79    6.60
  -2  -1  -1   90.59    5.90
  -2  -1  -1   77.69    4.90
  -2  -1  -1   83.99    7.30
  -2  -1  -1   88.89    9.30
   2   1   1   84.29    6.70
   2   1   1   81.99    8.90
   2   1   1   79.49    5.10
   2   1   1   83.79    6.70
   2   1   1   81.99    6.40
  -3  -1  -1   18.50    4.50
  -3  -1  -1   30.00    3.70
  -3  -1  -1   24.90    7.00
  -3  -1  -1   30.00    4.90
  -3  -1  -1   23.50    4.60
   3   1   1   21.20    6.40
   3   1   1   24.50    3.10
   3   1   1   30.40    5.70
   3   1   1   18.80    3.90
   3   1   1   22.50    4.40
  -4  -1  -1  131.39   12.40
  -4  -1  -1  134.59    9.60
  -4  -1  -1  126.79    8.80
  -4  -1  -1  120.19   28.20
   4   1   1  116.29   14.70
   4   1   1  116.89    9.90
   4   1   1  149.69   12.00
   4   1   1  142.09   11.10
  -5  -1  -1  207.88   13.20
  -5  -1  -1  210.88   17.40
  -5  -1  -1  208.98   13.50
   5   1   1  182.98   19.80
   5   1   1  188.08   14.10
   5   1   1  210.58   16.30
  -6  -1  -1   -2.20    1.50
  -6  -1  -1    1.30    2.60
   6   1   1    5.20    3.40
   6   1   1    3.00    3.00
   6   1   1   -8.20    4.00
  -7  -1  -1   -0.10    3.90
  -7  -1  -1    2.80    2.30
  -7  -1  -1   -4.60    7.00
   7   1   1   -2.50    4.00
   7   1   1   -6.20    6.10
   7   1   1    0.00    3.10
   8  -2  -1   28.70   11.60
   8  -2  -1   12.00    4.80
   8  -2  -1   32.70    9.30
  -8   2   1   19.60    5.90
   7  -2  -1   49.20   10.70
   7  -2  -1   60.79    7.40
   7  -2  -1   46.50   12.50
   7  -2  -1   45.50    7.10
  -7   2   1   45.90    8.70
  -7   2   1   49.20    9.10
   6  -2  -1   26.20    5.30
   6  -2  -1   20.20    5.80
   6  -2  -1   16.30    4.30
   6  -2  -1   26.30    8.80
  -6   2   1   22.60    5.30
  -6   2   1   15.30    4.40
   5  -2  -1  137.49    9.10
   5  -2  -1  149.79    9.30
   5  -2  -1  145.19   12.40
   5  -2  -1  145.19   15.40
  -5   2   1  128.39   13.80
  -5   2   1  149.49   10.40
  -5   2   1  144.99   10.20
   4  -2  -1  588.64   23.40
   4  -2  -1  594.54   28.40
   4  -2  -1  567.14   17.10
   4  -2  -1  585.34   16.90
   4  -2  -1  568.14   13.10
  -4   2   1  615.14   27.40
  -4   2   1  566.74   18.60
  -4   2   1  584.44   12.20
  -4   2   1  576.84   18.50
  -4   2   1  577.64   27.40
   3  -2  -1  442.26   20.80
   3  -2  -1  405.66   18.20
   3  -2  -1  421.96   10.90
   3  -2  -1  398.76   12.50
   3  -2  -1  409.16   11.60
   3  -2  -1  410.06   11.70
  -3   2   1  409.06   12.90
  -3   2   1  430.96   20.00
  -3   2   1  414.36   12.00
  -3   2   1  419.66   10.10
  -3   2   1  424.66   19.90
  -3   2   1  434.76   13.70
   2  -2  -1  891.51   17.80
   2  -2  -1  911.81   15.30
   2  -2  -1  939.71   17.70
   2  -2  -1  928.71   24.60
   2  -2  -1  896.81   27.60
   2  -2  -1  919.31   16.30
   2  -2  -1  913.21   16.80
  -2   2   1  847.72   24.80
  -2   2   1  890.91   17.90
  -2   2   1  901.81   17.30
  -2   2   1  916.51   27.40
  -2   2   1  917.11   18.80
   1  -2  -1  208.28    7.60
   1  -2  -1  185.08   10.90
   1  -2  -1  197.28    6.10
   1  -2  -1  194.68    6.00
   1  -2  -1  194.58    8.80
   1  -2  -1  193.48    6.50
   1  -2  -1  193.38    7.70
   1  -2  -1  201.28    5.80
  -1   2   1  199.38    6.20
  -1   2   1  197.58    6.10
  -1   2   1  200.68    9.00
  -1   2   1  215.48    6.40
  -1   2   1  214.48    7.40
   0  -2  -1  440.86   11.70
   0  -2  -1  383.26   14.30
   0  -2  -1  453.05   11.10
   0  -2  -1  460.25   14.40
   0  -2  -1  438.06   11.60
   0   2   1  454.85   11.50
   0   2   1  447.36   11.80
   0   2   1  476.25   14.00
   0   2   1  454.15   12.60
  -1  -2  -1  154.38    7.50
  -1  -2  -1  150.88    8.10
  -1  -2  -1  171.48   13.20
  -1  -2  -1  150.48    7.60
   1   2   1  151.68    8.90
   1   2   1  146.59    8.20
   1   2   1  148.49    7.70
   1   2   1  146.19    7.00
  -2  -2  -1  184.68   15.40
  -2  -2  -1  173.28   11.80
  -2  -2  -1  169.18   10.30
  -2  -2  -1  178.38   10.10
  -2  -2  -1  173.68    9.20
   2   2   1  160.98   13.10
   2   2   1  172.08    9.00
   2   2   1  200.18   16.00
   2   2   1  175.48   10.50
   2   2   1  182.58   10.40
  -3  -2  -1 1061.99   21.20
  -3  -2  -1 1106.99   36.20
  -3  -2  -1 1036.00   26.10
  -3  -2  -1 1004.60   42.50
  -3  -2  -1 1036.90   28.20
   3   2   1 1019.20   31.30
   3   2   1 1067.79   43.20
   3   2   1 1021.00   31.30
   3   2   1 1067.99   32.70
  -4  -2  -1  169.28   11.50
  -4  -2  -1  181.38   15.70
  -4  -2  -1  169.88   10.50
  -4  -2  -1  168.78    7.00
   4   2   1  177.98   13.30
   4   2   1  177.98   19.10
   4   2   1  167.08   13.30
  -5  -2  -1   17.50    4.90
  -5  -2  -1   19.30    4.50
  -5  -2  -1   25.40    7.00
   5   2   1   14.60    6.50
   5   2   1   16.30    7.80
   5   2   1   26.50    7.30
  -6  -2  -1   31.70    7.50
  -6  -2  -1   21.20    8.50
  -6  -2  -1   24.80    5.40
   6   2   1   33.30    7.80
   6   2   1   47.10   10.60
   6   2   1   40.10   12.30
  -7  -2  -1    3.90    5.50
  -7  -2  -1    6.40    7.40
   7   2   1   23.40    7.70
   7   2   1    9.30    5.50
   8  -3  -1    4.10    2.60
   8  -3  -1   21.80    8.80
   8  -3  -1    5.30    4.30
  -8   3   1    8.50    4.50
   7  -3  -1  126.49   13.90
   7  -3  -1   81.09   16.50
   7  -3  -1  102.69    9.00
   7  -3  -1  119.99    9.70
  -7   3   1   98.39   10.80
  -7   3   1  115.39   11.30
   6  -3  -1  318.07   25.10
   6  -3  -1  308.97   20.60
   6  -3  -1  294.27   13.90
   6  -3  -1  330.67   14.50
  -6   3   1  304.17   16.90
  -6   3   1  306.17   16.20
   5  -3  -1   82.99    6.20
   5  -3  -1   75.49    9.20
   5  -3  -1   80.89    6.10
   5  -3  -1   83.09    5.30
   5  -3  -1  105.79   13.10
  -5   3   1   60.29   12.00
  -5   3   1   79.59    6.80
  -5   3   1   85.49    7.90
  -5   3   1   90.19   11.20
   4  -3  -1  162.58    7.30
   4  -3  -1  166.58    7.10
   4  -3  -1  157.28   11.50
   4  -3  -1  166.18   14.50
   4  -3  -1  166.98    7.70
   4  -3  -1  157.58    8.90
  -4   3   1  175.58    8.80
  -4   3   1  164.28    6.90
  -4   3   1  169.88    8.00
  -4   3   1  173.98    9.90
  -4   3   1  155.68   14.20
   3  -3  -1  289.97   15.30
   3  -3  -1  284.67   10.30
   3  -3  -1  280.27    9.80
   3  -3  -1  258.77   16.70
   3  -3  -1  283.67    7.80
  -3   3   1  286.97    8.30
  -3   3   1  271.27    9.30
  -3   3   1  320.97   17.50
  -3   3   1  282.87    9.50
  -3   3   1  309.97   11.80
  -3   3   1  290.27   16.90
   2  -3  -1  569.54   13.80
   2  -3  -1  568.74   12.80
   2  -3  -1  559.94   23.20
   2  -3  -1  515.25   18.50
   2  -3  -1  556.44   14.50
  -2   3   1  572.74   20.40
  -2   3   1  523.95   14.80
  -2   3   1  577.54   11.80
  -2   3   1  558.44   13.10
  -2   3   1  527.55   13.10
  -2   3   1  560.84   14.20
   1  -3  -1  606.74   18.60
   1  -3  -1  647.74   15.70
   1  -3  -1  618.44   14.90
   1  -3  -1  641.94   14.50
   1  -3  -1  617.54   15.30
   1  -3  -1  623.94   14.20
   1  -3  -1  647.14   16.90
  -1   3   1  658.03   19.40
  -1   3   1  591.64   14.80
  -1   3   1  619.54   14.70
  -1   3   1  622.04   15.90
   0  -3  -1  579.94   19.10
   0  -3  -1  588.94   14.90
   0  -3  -1  541.55   15.50
   0  -3  -1  572.94   16.30
   0  -3  -1  599.94   15.00
   0   3   1  599.04   18.10
   0   3   1  586.04   16.60
   0   3   1  621.74   16.00
   0   3   1  614.14   16.20
  -1  -3  -1 2129.69   43.20
  -1  -3  -1 2123.99   36.90
  -1  -3  -1 2043.50   40.30
  -1  -3  -1 2094.59   47.00
  -1  -3  -1 2108.39   39.70
   1   3   1 2123.99   39.50
   1   3   1 2077.19   43.20
   1   3   1 2123.89   40.40
   1   3   1 2104.89   44.70
  -2  -3  -1  117.19    9.30
  -2  -3  -1  121.89    8.70
  -2  -3  -1  132.49   14.60
  -2  -3  -1  123.19   10.90
  -2  -3  -1  115.29    6.20
  -2  -3  -1  120.69    8.20
   2   3   1  118.09    9.40
   2   3   1  118.09    8.70
  -3  -3  -1   17.00    4.20
  -3  -3  -1   18.70    5.40
  -3  -3  -1   22.00    3.30
  -3  -3  -1   19.80    3.90
   3   3   1   26.20    6.00
   3   3   1   16.90    7.30
   3   3   1   20.50    6.30
  -4  -3  -1  330.07   22.50
  -4  -3  -1  350.76   17.80
  -4  -3  -1  330.37   15.40
  -4  -3  -1  267.07   14.20
   4   3   1  331.17   19.60
   4   3   1  347.27   20.10
   4   3   1  339.57   27.80
  -5  -3  -1   97.19    6.30
  -5  -3  -1   95.69   16.10
  -5  -3  -1  106.59   11.10
   5   3   1  110.59   12.40
   5   3   1  103.19   20.00
   5   3   1  109.19   12.10
  -6  -3  -1   11.30    7.00
  -6  -3  -1   17.40    5.10
  -6  -3  -1   15.50    6.30
   6   3   1   19.60    7.00
   6   3   1    8.40    5.20
   8  -4  -1   53.99   14.60
   8  -4  -1   47.50    6.40
   8  -4  -1   34.40   10.30
  -8   4   1   56.99   10.90
   7  -4  -1   28.30    4.80
   7  -4  -1   38.90    5.70
   7  -4  -1   37.80    8.70
   7  -4  -1   48.30   11.20
  -7   4   1   18.60    5.80
  -7   4   1   34.70    7.50
   6  -4  -1   33.50    9.90
   6  -4  -1   39.20    4.20
   6  -4  -1   45.60    9.60
   6  -4  -1   44.10    4.60
   6  -4  -1   48.70    4.90
  -6   4   1   37.80    7.10
  -6   4   1   49.60   12.00
  -6   4   1   33.60    5.70
   5  -4  -1   34.30    6.90
   5  -4  -1   33.60    4.20
   5  -4  -1   24.80    7.20
  -5   4   1   34.70    3.50
  -5   4   1   33.40    6.00
  -5   4   1   19.70    6.50
   4  -4  -1   74.89    4.30
   4  -4  -1   73.19   10.00
   4  -4  -1   75.69    8.00
   4  -4  -1   65.09    6.90
  -4   4   1   78.39    9.90
  -4   4   1   69.49    4.20
  -4   4   1   67.89    4.70
  -4   4   1   77.39    5.40
  -4   4   1   74.19    6.70
  -4   4   1   73.79    9.50
   3  -4  -1  430.76   19.40
   3  -4  -1  400.06   13.20
   3  -4  -1  414.06   11.60
   3  -4  -1  425.76   23.00
  -3   4   1  447.06   21.50
  -3   4   1  411.56   13.40
  -3   4   1  408.66   15.20
   2  -4  -1  547.75   14.90
   2  -4  -1  583.04   17.30
   2  -4  -1  560.94   12.20
   2  -4  -1  611.54   14.60
   2  -4  -1  577.24   15.20
   2  -4  -1  562.44   25.60
   2  -4  -1  556.14   20.50
  -2   4   1  547.65   14.00
  -2   4   1  577.74   15.80
  -2   4   1  577.84   16.20
  -2   4   1  556.34   16.50
  -2   4   1  572.14   21.50
   1  -4  -1 2321.57   44.00
   1  -4  -1 2264.67   39.30
   1  -4  -1 2198.98   38.90
   1  -4  -1 2297.67   40.80
   1  -4  -1 2271.77   39.40
   1  -4  -1 2247.98   41.20
  -1   4   1 2208.58   40.60
  -1   4   1 2247.48   40.00
  -1   4   1 2247.48   46.60
  -1   4   1 2222.18   41.50
   0  -4  -1  189.78    8.90
   0  -4  -1  182.58    8.10
   0  -4  -1  187.58    9.40
   0  -4  -1  181.28    9.70
   0  -4  -1  183.78   16.30
   0  -4  -1  176.88   11.20
   0   4   1  193.88   10.70
   0   4   1  190.08    9.30
   0   4   1  182.18    9.70
   0   4   1  207.88    8.70
  -1  -4  -1   50.99    4.50
  -1  -4  -1   56.19    5.00
  -1  -4  -1   59.99    7.70
  -1  -4  -1   50.59    5.90
  -1  -4  -1   61.89    6.00
   1   4   1   50.19    5.00
   1   4   1   54.69    6.00
  -2  -4  -1  228.68   16.10
  -2  -4  -1  206.18    9.70
  -2  -4  -1  200.68   11.90
  -2  -4  -1  209.08   11.90
   2   4   1  208.88   17.30
   2   4   1  200.38   11.60
  -3  -4  -1  138.59   10.70
  -3  -4  -1  136.19    9.30
  -3  -4  -1  148.09    8.20
  -3  -4  -1  142.39   14.20
   3   4   1  119.39   10.60
   3   4   1  145.09   12.40
  -4  -4  -1   92.99    9.70
  -4  -4  -1  120.99   14.30
  -4  -4  -1  121.39   11.00
  -4  -4  -1  140.69   10.20
   4   4   1  141.59   13.40
   4   4   1  125.89   12.10
  -5  -4  -1   54.59    7.30
  -5  -4  -1   54.99    9.50
  -5  -4  -1   55.09   12.10
   5   4   1   49.20   10.10
   5   4   1   62.59   12.40
  -6  -4  -1   23.10    7.50
  -6  -4  -1   24.60    6.20
  -6  -4  -1   32.00   10.20
   6   4   1   13.00    5.90
   6   4   1    9.60    6.10
   8  -5  -1    5.00    7.70
   8  -5  -1    5.30    3.90
  -8   5   1   -2.50    3.20
   7  -5  -1   20.40    8.40
   7  -5  -1   12.50    6.00
  -7   5   1   10.90    4.20
  -7   5   1   11.50    5.30
   6  -5  -1   16.40    7.60
   6  -5  -1   14.20    5.00
  -6   5   1   14.40    3.10
  -6   5   1   20.80    7.60
  -6   5   1   27.50    6.10
   5  -5  -1   17.40    5.50
   5  -5  -1   28.20    2.80
   5  -5  -1   28.90    3.70
   5  -5  -1   24.30    7.70
  -5   5   1   21.60    7.10
  -5   5   1   24.00    5.70
  -5   5   1   26.80    4.10
   4  -5  -1   68.59    9.40
   4  -5  -1   56.99    4.30
   4  -5  -1   56.29    6.80
  -4   5   1   65.59    5.60
  -4   5   1   66.39   11.90
  -4   5   1   62.59    6.70
   3  -5  -1  661.53   17.40
   3  -5  -1  609.64   30.00
   3  -5  -1  594.54   21.70
  -3   5   1  650.03   27.00
  -3   5   1  629.84   20.60
  -3   5   1  628.14   18.80
   2  -5  -1   31.80    6.10
   2  -5  -1   36.50    3.90
   2  -5  -1   39.50    4.10
   2  -5  -1   43.10    4.30
   2  -5  -1   45.30    4.20
   2  -5  -1   42.50    3.40
  -2   5   1   32.00    3.50
  -2   5   1   31.50    3.80
  -2   5   1   37.60    4.30
  -2   5   1   49.00    8.30
   1  -5  -1  136.79    9.40
   1  -5  -1  135.69    8.30
   1  -5  -1  137.99    8.10
   1  -5  -1  145.29    7.20
   1  -5  -1  126.49    7.40
  -1   5   1  141.49    8.40
  -1   5   1  142.59    8.60
  -1   5   1  145.09   10.30
  -1   5   1  137.29    8.10
   0  -5  -1  167.78   12.10
   0  -5  -1  169.48   10.20
   0  -5  -1  166.28    9.90
   0  -5  -1  158.98    7.90
   0   5   1  154.18    9.90
   0   5   1  152.78   10.90
   0   5   1  160.58    8.00
  -1  -5  -1   32.20    4.00
  -1  -5  -1   30.20    5.40
  -1  -5  -1   25.90    4.80
  -1  -5  -1   28.50    6.80
   1   5   1   23.70    4.40
   1   5   1   22.60    5.00
  -2  -5  -1   22.10    6.00
  -2  -5  -1   19.10    4.20
  -2  -5  -1   21.50    5.00
   2   5   1   24.50    5.10
   2   5   1   26.90    6.60
  -3  -5  -1   44.60   10.70
  -3  -5  -1   62.59    7.80
   3   5   1   50.09    8.20
   3   5   1   57.69   10.30
  -4  -5  -1   94.69   16.30
  -4  -5  -1   85.99    8.40
  -4  -5  -1   77.79    9.20
   4   5   1   64.19   11.00
   4   5   1   69.29   10.70
  -5  -5  -1   33.90   10.20
  -5  -5  -1   28.10    5.70
  -5  -5  -1   51.09    9.40
   5   5   1   33.10    8.10
   5   5   1   29.20    7.60
   8  -6  -1   -5.90    2.70
   8  -6  -1    8.70    8.20
  -8   6   1   -3.30    2.40
   7  -6  -1    2.50    4.30
   7  -6  -1    3.10    3.00
  -7   6   1   11.60    6.60
  -7   6   1    1.50    3.00
   6  -6  -1    5.80    5.50
   6  -6  -1    1.40    2.70
  -6   6   1    2.70    4.20
  -6   6   1    2.90    3.10
   5  -6  -1   16.50    6.40
   5  -6  -1   -1.70    2.60
   5  -6  -1    7.70    2.20
  -5   6   1   10.00    4.50
  -5   6   1    7.10    2.70
  -5   6   1    8.40    3.10
   4  -6  -1   23.40    3.90
   4  -6  -1   21.60    6.40
   4  -6  -1   31.70    6.10
  -4   6   1   29.40    5.80
  -4   6   1   37.90    9.00
  -4   6   1   30.20    5.10
   3  -6  -1  175.58    9.30
   3  -6  -1  177.28   17.40
   3  -6  -1  195.28    9.80
   3  -6  -1  176.38   16.90
  -3   6   1  191.18   10.70
  -3   6   1  189.68   11.30
  -3   6   1  165.98   14.00
  -3   6   1  173.58   10.30
   2  -6  -1    9.50    2.70
   2  -6  -1    7.10    1.90
   2  -6  -1    4.90    1.90
   2  -6  -1    4.30    1.50
   2  -6  -1    3.40    1.80
  -2   6   1    3.50    1.50
  -2   6   1    1.80    1.30
  -2   6   1    2.80    2.30
   1  -6  -1    2.90    1.50
   1  -6  -1    3.70    1.90
   1  -6  -1    7.20    2.20
   1  -6  -1    3.70    1.60
   1  -6  -1    7.70    2.80
  -1   6   1    2.50    2.20
  -1   6   1    6.40    2.60
   0  -6  -1    6.90    2.40
   0  -6  -1    3.00    1.80
   0  -6  -1    8.80    3.60
   0  -6  -1    9.00    3.00
   0   6   1   12.60    3.70
   0   6   1   12.10    2.60
   0   6   1    9.40    3.70
  -1  -6  -1    1.20    1.60
  -1  -6  -1    0.30    1.90
  -1  -6  -1   -1.80    1.80
  -1  -6  -1    1.90    1.60
   1   6   1    0.80    1.50
   1   6   1   -0.40    1.60
  -2  -6  -1   -2.20    2.10
  -2  -6  -1   -0.50    1.70
  -2  -6  -1    0.30    2.80
   2   6   1    1.00    2.20
   2   6   1   -0.60    1.70
  -3  -6  -1   18.00    6.70
  -3  -6  -1   20.80    5.50
   3   6   1   12.00    5.00
   3   6   1   15.70    5.70
  -4  -6  -1    2.40    3.20
  -4  -6  -1   -2.90    6.40
  -4  -6  -1    2.50    2.00
   4   6   1   -1.10    2.60
   4   6   1   -1.50    3.10
   8  -7  -1    5.80    5.70
  -8   7   1    1.80    3.20
   7  -7  -1   -5.50    5.40
   7  -7  -1   -0.20    3.40
  -7   7   1    1.00    2.60
  -7   7   1    2.10    4.50
   6  -7  -1   27.90    6.90
   6  -7  -1   18.20    7.40
   6  -7  -1   31.90    4.40
   6  -7  -1   33.40    5.60
  -6   7   1   36.40    7.90
  -6   7   1   32.40   10.50
   5  -7  -1  194.28   19.60
   5  -7  -1  172.78    9.20
   5  -7  -1  179.08   14.00
  -5   7   1  176.98   13.40
  -5   7   1  141.99   16.70
   4  -7  -1   52.49   11.60
   4  -7  -1   56.59   10.60
   4  -7  -1   52.19   13.20
  -4   7   1   55.99    6.20
  -4   7   1   42.00    9.50
  -4   7   1   53.59    7.00
   3  -7  -1   16.00    3.40
   3  -7  -1   18.70    3.90
   3  -7  -1   18.30    6.50
   3  -7  -1   12.90    4.80
  -3   7   1   15.10    5.50
  -3   7   1   22.70    2.80
   2  -7  -1   12.20    2.80
   2  -7  -1   11.40    2.80
   2  -7  -1    7.30    2.40
   2  -7  -1   10.90    3.20
   2  -7  -1   13.20    3.10
  -2   7   1   14.60    4.70
   1  -7  -1   18.10    4.00
   1  -7  -1   23.50    5.00
   1  -7  -1   18.30    4.80
   1  -7  -1   23.30    3.00
   1  -7  -1   20.20    4.20
  -1   7   1   21.90    4.80
  -1   7   1   14.70    5.00
   0  -7  -1   10.10    2.40
   0  -7  -1    5.40    2.70
   0  -7  -1    7.90    2.70
   0  -7  -1    4.30    3.00
   0   7   1   12.60    3.00
   0   7   1    8.10    3.40
   0   7   1   11.90    4.30
  -1  -7  -1    7.00    2.70
  -1  -7  -1   12.20    4.70
  -1  -7  -1    3.80    2.60
   1   7   1    1.30    2.50
   1   7   1    7.50    3.20
   1   7   1    4.10    2.50
  -2  -7  -1  271.07   18.80
  -2  -7  -1  252.47   16.70
  -2  -7  -1  228.18   20.10
   2   7   1  242.48   18.00
   2   7   1  228.38   13.50
  -3  -7  -1   49.80   11.10
  -3  -7  -1   32.30    7.60
   3   7   1   39.30    7.40
   3   7   1   45.80   10.20
  -4  -7  -1    4.90    3.40
  -4  -7  -1   -5.00    4.20
  -4  -7  -1    1.20    2.20
   4   7   1   -2.40    3.70
   4   7   1    2.60    4.30
   7  -8  -1   42.30    8.60
   7  -8  -1   14.00    8.90
  -7   8   1   34.30    8.00
  -7   8   1   44.50   13.40
   6  -8  -1   22.90    5.80
   6  -8  -1   24.30    8.20
  -6   8   1   37.70   10.00
  -6   8   1   18.10    5.40
   5  -8  -1   55.39    5.60
   5  -8  -1   45.60    7.80
   5  -8  -1   47.30   11.50
  -5   8   1   58.59   18.90
  -5   8   1   44.00    8.00
   4  -8  -1   45.40    5.50
   4  -8  -1   59.59   13.30
  -4   8   1   73.39   13.50
   3  -8  -1   79.09   15.90
   3  -8  -1   75.59    7.40
  -3   8   1   70.49    9.90
  -3   8   1   65.69    5.70
   2  -8  -1   35.60    4.70
   2  -8  -1   42.30    7.30
   2  -8  -1   44.10    4.60
   2  -8  -1   33.80    6.10
  -2   8   1   38.40    8.40
  -2   8   1   42.90    5.40
   1  -8  -1   24.80    6.00
   1  -8  -1   29.50    5.30
   1  -8  -1   20.00    4.50
  -1   8   1   19.60    5.90
  -1   8   1   28.90    5.80
   0  -8  -1  357.06   19.40
   0  -8  -1  340.87   19.00
   0  -8  -1  333.27   23.90
   0   8   1  364.36   21.00
   0   8   1  365.56   19.80
  -1  -8  -1  189.18   18.00
  -1  -8  -1  198.78   14.90
   1   8   1  192.58   10.40
   1   8   1  173.38   15.10
   1   8   1  187.68   15.50
  -2  -8  -1   34.00    9.40
  -2  -8  -1   46.80    9.10
   2   8   1   44.80    9.70
   2   8   1   34.00    6.30
  -3  -8  -1   19.10    8.00
  -3  -8  -1   27.60    5.60
  -3  -8  -1   44.50   13.40
   3   8   1   23.00    7.10
   3   8   1   39.50   10.00
   7  -9  -1    7.30    4.60
   7  -9  -1   -4.80    6.70
  -7   9   1    5.30    4.70
  -7   9   1   -1.50    6.10
   6  -9  -1   33.00   10.50
   6  -9  -1   26.90    6.50
   6  -9  -1   22.50    4.80
  -6   9   1   25.80    9.20
  -6   9   1    7.70    5.30
   5  -9  -1   74.79    8.80
   5  -9  -1   74.39    7.50
  -5   9   1   79.29   10.00
  -5   9   1   67.89   15.00
   4  -9  -1   37.00    8.40
   4  -9  -1   40.30    6.60
   4  -9  -1   33.50   18.70
  -4   9   1   46.70   11.60
   3  -9  -1   62.79   16.10
   3  -9  -1   40.80    5.10
   3  -9  -1   45.10    5.30
   3  -9  -1   42.50    7.10
  -3   9   1   48.50    5.60
  -3   9   1   57.79   11.10
   2  -9  -1  315.77   17.90
   2  -9  -1  332.97   15.60
  -2   9   1  338.37   21.80
   1  -9  -1   98.09   11.40
   1  -9  -1  114.99   10.30
   1  -9  -1  128.69   11.40
  -1   9   1  137.99   11.90
  -1   9   1  137.29   13.40
   0  -9  -1    6.20    3.70
   0  -9  -1    4.00    4.70
   0   9   1    9.50    4.20
   0   9   1   14.40    5.60
  -1  -9  -1   76.69   14.10
  -1  -9  -1   68.59   11.40
   1   9   1   77.79   10.30
   1   9   1   88.59   11.30
  -2  -9  -1   37.30   10.70
  -2  -9  -1   26.70    7.30
   2   9   1   35.90    9.00
   2   9   1   46.00    9.70
   6 -10  -1   -2.10    3.80
   6 -10  -1    1.20    7.00
   6 -10  -1   -1.80    2.30
  -6  10   1   10.50    8.30
  -6  10   1   10.80    5.70
   5 -10  -1   22.70    5.70
   5 -10  -1   34.10    6.30
   5 -10  -1   22.70   12.10
  -5  10   1   25.40    8.30
   4 -10  -1  188.28   13.00
   4 -10  -1  181.58   22.70
   4 -10  -1  165.08   11.00
  -4  10   1  156.68   17.20
   3 -10  -1   64.79    7.80
   3 -10  -1   37.70   12.40
  -3  10   1   67.39   13.30
   2 -10  -1   -0.40    3.30
   2 -10  -1    6.40    3.10
  -2  10   1   -1.90    4.10
  -2  10   1   10.70    4.10
   1 -10  -1   22.70    7.50
   1 -10  -1    6.90    3.60
  -1  10   1    7.90    6.10
  -1  10   1   11.20    5.20
   0 -10  -1    5.60    4.80
   0 -10  -1   -1.50    4.10
   0  10   1   12.30    5.20
   0  10   1    1.80    4.30
  -1 -10  -1   50.99    9.80
  -1 -10  -1   26.70    8.20
   1  10   1   42.90    9.00
   1  10   1   50.39   10.00
   5 -11  -1   22.60    5.40
   5 -11  -1    9.00    8.90
  -5  11   1   -3.90    4.00
   4 -11  -1    4.00    6.20
   4 -11  -1    3.90    3.30
  -4  11   1   -3.20    5.60
   3 -11  -1    4.70    3.30
   3 -11  -1    1.70    5.30
  -3  11   1   -1.90    4.40
   2 -11  -1   -3.70    2.40
   2 -11  -1   -0.50    3.30
  -2  11   1    5.40    5.10
   1 -11  -1    3.50    3.20
   1 -11  -1    6.80    5.00
  -1  11   1   -2.00    5.00
   0  11  -2   51.59    9.90
   0 -11   2   53.39    9.90
   0 -11   2   54.39   10.30
  -1  11  -2   53.69   10.00
   1 -11   2   53.19    9.30
   1 -11   2   66.19    8.60
  -2  11  -2   11.00    4.40
  -2  11  -2   25.80    9.10
   2 -11   2   17.40    4.80
  -3  11  -2   10.50    4.40
  -3  11  -2    6.70    6.00
   3 -11   2   16.30    8.20
   3 -11   2   12.00    4.80
  -4  11  -2    6.90    6.20
  -4  11  -2   16.60    4.60
   4 -11   2    7.70    8.00
   4 -11   2   13.10    4.70
  -5  11  -2   18.50    5.90
  -5  11  -2   22.60    9.00
   5 -11   2    9.10    7.90
   2  10  -2   24.40    7.60
   2  10  -2   33.00    8.30
  -2 -10   2    9.90    5.20
  -2 -10   2   16.30    6.60
   1  10  -2   12.80    4.60
   1  10  -2   15.30    5.40
  -1 -10   2    4.20    3.20
  -1 -10   2    2.10    4.80
   0  10  -2   -7.00    2.80
   0  10  -2   -4.70    2.80
   0 -10   2    3.90    3.00
   0 -10   2    3.60    3.00
  -1  10  -2   14.30    4.30
  -1  10  -2    8.70    3.90
  -1  10  -2    8.90    5.20
   1 -10   2    7.90    2.90
   1 -10   2   14.10    4.70
  -2  10  -2   -0.90    3.70
  -2  10  -2    4.60    2.40
   2 -10   2    2.10    2.20
   2 -10   2   -1.20    1.20
  -3  10  -2   18.10    6.30
  -3  10  -2    9.80    4.50
   3 -10   2   11.90    3.80
  -4  10  -2   65.39   13.80
  -4  10  -2   36.80    6.30
   4 -10   2   58.89    6.10
   4 -10   2   64.59   14.10
   4 -10   2   56.99    7.30
  -5  10  -2   -4.30    4.70
  -5  10  -2    1.50    3.00
   5 -10   2    2.20    3.10
   5 -10   2    2.30    5.40
  -6  10  -2    5.70    3.00
  -6  10  -2    5.40    6.40
  -6  10  -2   -2.50    3.70
   6 -10   2   -3.20    6.00
   6 -10   2   -3.10    3.50
   6 -10   2    0.90    2.80
   3   9  -2   13.10    4.70
   3   9  -2   10.20    5.10
  -3  -9   2   11.80    6.60
  -3  -9   2   11.80    5.20
   2   9  -2   23.30    6.90
   2   9  -2   22.60    6.10
  -2  -9   2   22.20    6.40
  -2  -9   2   16.40    4.90
   1   9  -2    7.40    3.40
   1   9  -2   10.10    3.90
  -1  -9   2   13.40    4.20
   0   9  -2   31.10    6.30
   0   9  -2   32.90    6.10
   0   9  -2   46.40    6.60
   0  -9   2   28.50    6.60
   0  -9   2   44.20   13.70
   0  -9   2   28.50    5.90
  -1   9  -2   -0.40    1.90
  -1   9  -2    2.80    1.90
   1  -9   2   -2.30    2.70
   1  -9   2    0.10    2.10
  -2   9  -2   42.20    8.80
  -2   9  -2   47.80    7.80
   2  -9   2   44.30    7.60
  -3   9  -2    0.10    4.10
  -3   9  -2    0.80    1.80
   3  -9   2    1.80    1.90
  -4   9  -2    1.60    1.90
  -4   9  -2   -3.10    3.50
   4  -9   2    2.40    3.80
   4  -9   2    1.70    2.00
   4  -9   2    2.30    2.30
  -5   9  -2   -0.20    5.10
  -5   9  -2   -0.40    2.90
  -5   9  -2   -4.40    1.70
   5  -9   2   -0.20    1.90
   5  -9   2    0.30    2.60
   5  -9   2    1.90    4.50
  -6   9  -2    8.20    6.30
  -6   9  -2   14.50    4.30
  -6   9  -2    2.70    3.90
   6  -9   2   15.70    3.50
   6  -9   2   12.80    4.30
   6  -9   2   14.30    7.10
  -7   9  -2    2.50    2.50
   7  -9   2    8.30    4.90
   7  -9   2    2.00    2.50
   7  -9   2   11.30    8.50
   4   8  -2   16.70    6.20
  -4  -8   2   29.00    9.80
  -4  -8   2   20.10    5.70
   3   8  -2    7.60    5.20
  -3  -8   2    3.40    3.50
  -3  -8   2    5.80    4.80
   2   8  -2  109.59   10.10
   2   8  -2  108.39   11.90
  -2  -8   2  125.49   11.40
  -2  -8   2   98.09   12.50
   1   8  -2   73.69    7.50
   1   8  -2   70.99    9.00
   1   8  -2   66.79    7.50
  -1  -8   2   78.69   11.60
  -1  -8   2   55.69    9.90
   0   8  -2    9.90    3.40
   0   8  -2   10.20    3.70
   0   8  -2   10.90    3.10
   0  -8   2   11.20    4.00
   0  -8   2   18.70    4.60
   0  -8   2   18.60    4.40
  -1   8  -2   62.09    7.30
  -1   8  -2   55.99    6.60
  -1   8  -2   51.19    6.10
   1  -8   2   63.09    6.80
   1  -8   2   59.99    6.60
   1  -8   2   58.59    6.80
  -2   8  -2   63.99   10.40
  -2   8  -2   62.39    6.80
   2  -8   2   63.49    6.90
  -3   8  -2   24.50    5.50
  -3   8  -2   15.50    5.50
   3  -8   2   33.20    9.50
   3  -8   2   22.20    4.60
   3  -8   2   25.00    4.00
  -4   8  -2  104.39    9.00
  -4   8  -2   65.79   12.60
  -4   8  -2   93.49   10.60
   4  -8   2   95.79   12.90
   4  -8   2   83.29    7.80
   4  -8   2   96.09    8.80
  -5   8  -2   25.30    9.30
  -5   8  -2   25.30    5.80
   5  -8   2   27.70    6.00
   5  -8   2   32.90    9.20
   5  -8   2   30.80    5.70
  -6   8  -2    4.60    3.30
  -6   8  -2    6.50    2.60
   6  -8   2    8.50    2.90
   6  -8   2    1.40    2.60
   6  -8   2    3.70    5.20
  -7   8  -2    1.50    4.20
  -7   8  -2    9.00    3.60
   7  -8   2   11.30    4.70
   7  -8   2   16.40    8.30
   7  -8   2   12.40    3.30
   5   7  -2   34.40    9.10
   5   7  -2   33.70    7.80
  -5  -7   2   43.70    9.00
  -5  -7   2   22.40    9.30
   4   7  -2   94.19   11.80
   4   7  -2   74.69    8.70
  -4  -7   2   61.89    9.60
  -4  -7   2   61.09   13.10
   3   7  -2   45.00    8.60
   3   7  -2   47.10    6.00
  -3  -7   2   53.49    9.00
  -3  -7   2   43.10    9.40
   2   7  -2    3.50    2.50
  -2  -7   2    2.30    2.80
  -2  -7   2    0.30    1.50
   1   7  -2  244.18   15.00
   1   7  -2  246.78   13.10
   1   7  -2  220.58   12.20
  -1  -7   2  233.38   13.60
  -1  -7   2  241.08   15.70
  -1  -7   2  222.68   15.80
   0   7  -2  169.38   10.50
   0   7  -2  192.08   11.70
   0   7  -2  201.88   11.30
   0  -7   2  195.28   12.90
   0  -7   2  177.48   11.50
   0  -7   2  200.28   12.60
  -1   7  -2  189.18   10.10
  -1   7  -2  204.88   12.30
  -1   7  -2  180.38   11.10
   1  -7   2  171.88   10.90
   1  -7   2  199.78   11.10
   1  -7   2  185.98   10.80
  -2   7  -2  544.05   23.90
  -2   7  -2  502.15   14.40
  -2   7  -2  528.35   19.90
  -2   7  -2  538.75   14.70
   2  -7   2  515.25   20.80
   2  -7   2  520.05   19.60
  -3   7  -2  122.99   12.30
  -3   7  -2  127.09    9.40
  -3   7  -2  117.19   10.70
   3  -7   2  115.09    8.00
   3  -7   2  119.79   13.50
   3  -7   2  121.79    9.00
  -4   7  -2   19.60    4.50
  -4   7  -2   20.60    7.10
  -4   7  -2   22.30    6.20
   4  -7   2   19.00    4.20
   4  -7   2   16.40    6.30
  -5   7  -2   80.09    7.70
  -5   7  -2   78.49    9.80
  -5   7  -2   55.29   12.30
   5  -7   2   58.39    6.40
   5  -7   2   75.89   12.20
   5  -7   2   77.49    9.30
  -6   7  -2   62.69    6.90
  -6   7  -2   76.39   12.80
   6  -7   2   42.00   10.00
   6  -7   2   60.59    6.50
   6  -7   2   56.69   10.10
  -7   7  -2   14.80    6.40
  -7   7  -2   16.70    4.10
   7  -7   2   20.30    4.00
   7  -7   2   26.70    7.80
   5   6  -2   80.09   11.70
   5   6  -2   72.19   12.70
   5   6  -2   53.89   15.80
  -5  -6   2   56.09   13.60
  -5  -6   2   91.19   10.00
   4   6  -2    1.10    2.70
   4   6  -2    9.30    6.10
  -4  -6   2    5.20    2.90
  -4  -6   2    0.40    2.60
   3   6  -2   89.09   10.40
   3   6  -2  100.89    8.20
   3   6  -2  102.09   20.90
  -3  -6   2   88.19    8.60
  -3  -6   2   88.89   11.20
   2   6  -2  224.38   11.10
   2   6  -2  239.68   15.30
   2   6  -2  226.28    9.70
  -2  -6   2  218.58   12.90
  -2  -6   2  222.78   16.30
   1   6  -2  407.16   18.20
   1   6  -2  418.26   15.60
   1   6  -2  441.96   16.20
  -1  -6   2  414.26   19.50
  -1  -6   2  436.96   17.80
  -1  -6   2  426.46   20.30
   0   6  -2  835.62   24.60
   0   6  -2  848.32   23.20
   0   6  -2  861.81   24.30
   0  -6   2  861.81   26.30
   0  -6   2  835.22   24.90
   0  -6   2  877.71   26.40
  -1   6  -2  200.68   11.30
  -1   6  -2  204.08    9.50
  -1   6  -2  184.48    9.10
  -1   6  -2  212.58   11.10
   1  -6   2  210.58   12.20
   1  -6   2  200.48   11.10
   1  -6   2  202.68   17.70
   1  -6   2  195.48    9.90
   1  -6   2  195.38    9.70
  -2   6  -2  162.58    9.90
  -2   6  -2  155.28   11.70
   2  -6   2  148.99   14.40
   2  -6   2  151.98    7.60
   2  -6   2  150.98    9.70
  -3   6  -2  150.38    9.60
  -3   6  -2  164.18   13.90
  -3   6  -2  150.48   11.60
   3  -6   2  145.59    9.50
   3  -6   2  135.09   12.70
   3  -6   2  149.88    9.50
  -4   6  -2  106.09   10.40
  -4   6  -2  109.49   13.10
  -4   6  -2  127.49    8.90
   4  -6   2  103.89    9.50
   4  -6   2  124.99    8.90
   4  -6   2  112.89   11.50
  -5   6  -2  106.19   11.40
  -5   6  -2  117.29    8.60
   5  -6   2  106.89   10.30
   5  -6   2  101.89   11.50
   5  -6   2  123.39   11.60
  -6   6  -2   76.59   12.70
  -6   6  -2   62.09    6.60
   6  -6   2   78.29   12.60
   6  -6   2   71.39   11.50
   6  -6   2   69.69    6.90
  -7   6  -2   24.90    4.70
  -7   6  -2   20.30    6.60
   7  -6   2   24.80    7.10
   7  -6   2   23.30    4.40
   6   5  -2    5.10    4.90
   6   5  -2   -1.60    4.00
   6   5  -2   -1.00    7.00
  -6  -5   2    8.10    5.70
  -6  -5   2    9.90    4.90
  -6  -5   2    9.60    3.90
   5   5  -2   59.79   10.70
   5   5  -2   82.89    9.90
   5   5  -2   61.79   16.40
  -5  -5   2   56.39    9.50
  -5  -5   2   46.80   10.90
   4   5  -2   42.70   14.30
   4   5  -2   49.30    8.10
   4   5  -2   61.99   10.50
  -4  -5   2   44.90    5.90
  -4  -5   2   48.70    6.30
  -4  -5   2   53.99   11.10
   3   5  -2  138.79    9.50
   3   5  -2  137.09   18.20
   3   5  -2  115.49   10.80
  -3  -5   2  139.89    8.80
  -3  -5   2  140.49    9.90
  -3  -5   2  134.59   12.70
   2   5  -2  603.34   23.60
   2   5  -2  628.84   17.50
   2   5  -2  577.64   35.80
   2   5  -2  623.74   17.80
  -2  -5   2  571.94   19.00
  -2  -5   2  607.44   20.40
  -2  -5   2  566.84   24.60
  -2  -5   2  584.54   24.40
   1   5  -2  125.69    9.20
   1   5  -2  130.29   15.50
   1   5  -2  116.59    7.30
  -1  -5   2  139.89    8.90
  -1  -5   2  135.69   10.00
  -1  -5   2  139.99   10.30
  -1  -5   2  132.79    8.80
   0   5  -2  116.09    7.60
   0   5  -2  125.99    7.00
   0   5  -2  113.49    7.30
   0   5  -2  128.39    8.00
   0   5  -2  105.49    8.10
   0  -5   2  129.19    8.30
   0  -5   2  112.39    7.70
   0  -5   2  109.09    7.90
   0  -5   2  124.59   13.70
   0  -5   2  121.59    8.30
  -1   5  -2  159.68    7.30
  -1   5  -2  156.18    8.90
  -1   5  -2  163.08    9.50
  -1   5  -2  153.08    7.30
   1  -5   2  157.98    8.50
   1  -5   2  149.19    9.70
   1  -5   2  149.29    7.20
   1  -5   2  152.88    7.80
   1  -5   2  156.28   13.60
   1  -5   2  141.19    8.90
   1  -5   2  168.18    9.20
  -2   5  -2  230.98   12.90
  -2   5  -2  232.88   11.30
  -2   5  -2  245.88   14.30
   2  -5   2  233.48    9.90
   2  -5   2  228.38   11.60
   2  -5   2  237.28   11.30
   2  -5   2  222.68   12.10
   2  -5   2  241.28   12.70
  -3   5  -2  239.58   11.70
  -3   5  -2  244.48   16.70
  -3   5  -2  236.28   13.90
   3  -5   2  235.18   14.80
   3  -5   2  235.18   12.30
   3  -5   2  236.08   11.80
   3  -5   2  231.78   14.50
  -4   5  -2   90.29    9.10
  -4   5  -2   96.79    9.20
  -4   5  -2   97.19   12.40
   4  -5   2   83.29    7.70
   4  -5   2  103.49    9.80
   4  -5   2   90.49    8.70
  -5   5  -2   79.09    9.00
  -5   5  -2   82.49    6.80
   5  -5   2   92.79    9.90
   5  -5   2   72.19    8.70
   5  -5   2   61.99    6.90
  -6   5  -2   53.19   10.00
  -6   5  -2   45.70    5.30
   6  -5   2   55.99   10.70
   6  -5   2   60.89   10.90
  -7   5  -2   45.30    5.40
  -7   5  -2   42.20    9.50
   7  -5   2   32.60    8.20
   7  -5   2   47.40   10.60
   7  -5   2   47.70    5.10
   7  -5   2   46.10    5.20
  -8   5  -2    6.00    4.30
   8  -5   2   15.10    5.50
   8  -5   2    5.90    3.10
   6   4  -2   18.20   10.70
   6   4  -2   19.20    6.20
   6   4  -2    8.90    4.90
  -6  -4   2   22.70    5.60
  -6  -4   2   21.10    5.50
  -6  -4   2   35.40    9.90
   5   4  -2   54.79    9.70
   5   4  -2   48.50   16.50
   5   4  -2   54.69    9.80
  -5  -4   2   55.79    7.00
  -5  -4   2   50.39   10.10
   4   4  -2   70.99   17.20
   4   4  -2   62.99    7.70
   4   4  -2   78.69    9.20
  -4  -4   2   59.39    5.20
  -4  -4   2   75.89    7.10
  -4  -4   2   73.09    9.60
   3   4  -2   -0.70    2.60
   3   4  -2    5.20    2.20
   3   4  -2   10.20    3.60
  -3  -4   2    6.90    2.60
  -3  -4   2    5.00    2.20
  -3  -4   2    6.00    2.30
   2   4  -2   49.10    4.40
   2   4  -2   50.79    5.20
   2   4  -2   24.90    9.20
   2   4  -2   44.60    3.90
   2   4  -2   43.20    5.80
  -2  -4   2   47.00    4.70
  -2  -4   2   50.49    7.90
  -2  -4   2   45.20    4.50
   1   4  -2   69.09    5.90
   1   4  -2   60.79    5.70
   1   4  -2   70.69    5.00
   1   4  -2   76.19    6.60
   1   4  -2   76.79   10.60
  -1  -4   2   76.49    5.80
  -1  -4   2   60.19   11.40
  -1  -4   2   69.89    5.40
  -1  -4   2   82.99    7.20
   0   4  -2    8.60    2.40
   0   4  -2    9.30    2.00
   0   4  -2    7.80    2.10
   0   4  -2   11.60    2.60
   0   4  -2    5.90    1.70
   0  -4   2    7.70    3.70
   0  -4   2   10.10    2.50
   0  -4   2    6.30    1.90
   0  -4   2   15.40    4.60
   0  -4   2    6.30    2.00
  -1   4  -2  302.47    9.20
  -1   4  -2  311.07   12.60
  -1   4  -2  286.27   11.30
   1  -4   2  298.37   10.10
   1  -4   2  326.27    9.10
   1  -4   2  303.97   11.30
   1  -4   2  292.47   12.80
   1  -4   2  304.97   12.10
   1  -4   2  310.27   16.90
   1  -4   2  307.97   12.00
   1  -4   2  298.47    8.70
  -2   4  -2  143.79   10.60
  -2   4  -2  151.98    8.40
  -2   4  -2  149.09    9.70
  -2   4  -2  144.79    8.00
   2  -4   2  157.48    8.30
   2  -4   2  154.08    8.90
   2  -4   2  140.59    9.80
   2  -4   2  143.59    9.60
  -3   4  -2   36.30    4.20
  -3   4  -2   39.90    5.20
  -3   4  -2   29.30    5.50
  -3   4  -2   35.60    7.30
   3  -4   2   41.80    4.50
   3  -4   2   41.10    5.20
   3  -4   2   44.90    7.90
   3  -4   2   33.80    4.80
  -4   4  -2    3.90    1.70
  -4   4  -2    4.70    2.30
  -4   4  -2    7.70    2.40
   4  -4   2    7.80    3.10
   4  -4   2   12.30    3.10
   4  -4   2    7.00    2.20
   4  -4   2   13.20    4.30
  -5   4  -2   73.69    8.70
  -5   4  -2   71.89    7.40
  -5   4  -2   90.69    6.60
  -5   4  -2   77.59    8.80
   5  -4   2   72.09    8.70
   5  -4   2   88.49   10.00
   5  -4   2   76.39    5.60
   5  -4   2   81.99    6.20
   5  -4   2   77.49    6.90
  -6   4  -2   25.60    4.30
  -6   4  -2    8.60   10.30
  -6   4  -2   26.80    6.40
  -6   4  -2   25.90    6.40
   6  -4   2   36.30    7.80
   6  -4   2   27.90    4.80
  -7   4  -2    5.70    3.50
  -7   4  -2    0.50    5.00
  -7   4  -2    1.10    1.80
   7  -4   2    0.80    2.00
   7  -4   2    4.20    4.30
   7  -4   2   -9.30    4.40
  -8   4  -2    5.70    4.40
   8  -4   2   10.20    5.60
   8  -4   2    1.00    2.90
   7   3  -2    5.20    4.80
   7   3  -2    3.80    5.90
   7   3  -2    0.10    7.10
  -7  -3   2    4.90    5.30
  -7  -3   2    1.30    1.70
  -7  -3   2   -0.10    3.70
   6   3  -2   12.20    8.40
   6   3  -2    8.80    5.20
   6   3  -2    9.80    4.20
  -6  -3   2    8.40    3.30
  -6  -3   2   16.50    4.50
  -6  -3   2   14.90    5.20
   5   3  -2    3.20    3.00
   5   3  -2   15.00    5.20
   5   3  -2   14.20    8.60
  -5  -3   2   17.40    4.10
  -5  -3   2   11.90    3.70
  -5  -3   2   24.20    6.90
   4   3  -2   33.20    7.10
   4   3  -2   23.40    8.40
   4   3  -2   28.60    6.30
  -4  -3   2   26.20    6.30
  -4  -3   2   35.30    5.70
  -4  -3   2   33.60    3.00
   3   3  -2   20.60    5.90
   3   3  -2   25.90    5.20
   3   3  -2   12.50    5.20
   3   3  -2   22.80    3.90
   3   3  -2   22.90    5.40
  -3  -3   2   24.80    2.70
  -3  -3   2   21.50    3.60
  -3  -3   2   18.70    4.90
   2   3  -2   14.90    3.20
   2   3  -2   27.10    2.60
   2   3  -2   11.10    5.00
   2   3  -2   34.20    5.50
   2   3  -2   27.50    3.50
   2   3  -2   30.40    3.60
  -2  -3   2   22.00    4.60
  -2  -3   2   24.70    3.10
  -2  -3   2   32.60    5.60
  -2  -3   2   29.30    3.00
  -2  -3   2   21.00    6.50
   1   3  -2   64.09    5.50
   1   3  -2   59.69   10.20
   1   3  -2   60.79    3.60
   1   3  -2   58.69    4.80
   1   3  -2   65.89    5.40
   1   3  -2   63.49    4.30
  -1  -3   2   68.89    8.90
  -1  -3   2   63.99    4.60
  -1  -3   2   63.59    5.70
  -1  -3   2   68.99    4.90
  -1  -3   2   72.49    5.70
   0   3  -2   14.40    2.60
   0   3  -2   13.70    2.50
   0   3  -2    8.60    3.40
   0   3  -2    9.00    2.00
   0  -3   2    9.30    2.00
   0  -3   2   13.00    2.30
   0  -3   2    8.80    2.10
   0  -3   2   11.50    2.30
   0  -3   2    6.10    2.90
  -1   3  -2    0.70    0.80
  -1   3  -2    0.40    0.70
  -1   3  -2    1.30    0.70
  -1   3  -2    0.80    0.70
  -1   3  -2    1.00    0.60
   1  -3   2    0.40    0.60
   1  -3   2   -0.50    0.50
   1  -3   2    2.40    1.30
   1  -3   2    1.10    0.80
   1  -3   2   -0.80    0.60
   1  -3   2    0.30    0.50
   1  -3   2    1.10    1.00
  -2   3  -2    1.80    1.00
  -2   3  -2    2.20    1.30
  -2   3  -2    1.70    0.70
  -2   3  -2    2.60    1.90
  -2   3  -2    0.50    0.90
   2  -3   2    0.40    1.30
   2  -3   2    1.10    1.10
   2  -3   2    1.00    0.80
   2  -3   2    0.80    0.90
   2  -3   2    1.40    1.10
   2  -3   2    1.40    0.80
   2  -3   2    3.20    0.80
  -3   3  -2    6.60    2.60
  -3   3  -2    8.40    2.30
  -3   3  -2    7.90    2.20
  -3   3  -2    8.70    2.30
  -3   3  -2    3.30    1.80
  -3   3  -2    7.70    1.80
   3  -3   2    4.30    1.90
   3  -3   2    4.90    2.00
   3  -3   2    3.90    2.10
   3  -3   2    6.70    2.30
   3  -3   2   14.00    2.40
   3  -3   2    5.20    2.70
   3  -3   2    6.10    2.10
  -4   3  -2    3.10    1.50
  -4   3  -2    2.60    2.20
  -4   3  -2    4.10    2.10
  -4   3  -2    4.70    2.40
   4  -3   2    6.80    2.60
   4  -3   2    1.40    1.30
   4  -3   2    2.30    1.70
   4  -3   2    3.70    3.00
   4  -3   2    3.90    1.60
  -5   3  -2   55.69    8.70
  -5   3  -2   63.09    7.70
  -5   3  -2   49.80    8.20
  -5   3  -2   61.19    5.30
   5  -3   2   75.69    9.40
   5  -3   2   49.60    5.30
   5  -3   2   55.59    5.60
   5  -3   2   57.19    6.10
   5  -3   2   64.29    8.50
  -6   3  -2    2.60    2.50
  -6   3  -2    2.10    3.70
  -6   3  -2   -1.90    4.70
  -6   3  -2    2.50    1.50
   6  -3   2    2.20    2.20
   6  -3   2    0.60    3.90
   6  -3   2    4.10    3.40
  -7   3  -2    1.80    2.90
  -7   3  -2   -1.10    4.90
   7  -3   2   -2.40    2.20
   7  -3   2    4.40    3.60
   7  -3   2   -0.60    4.80
   7   2  -2   34.30    8.40
   7   2  -2   24.60    7.30
   7   2  -2   13.00   10.70
  -7  -2   2   38.20    7.30
  -7  -2   2   25.60    6.10
  -7  -2   2   37.80   12.60
   6   2  -2   15.40    5.40
   6   2  -2   11.90    4.70
   6   2  -2    4.90    5.90
  -6  -2   2   14.50    3.60
  -6  -2   2    9.90    3.40
  -6  -2   2    3.10    3.30
   5   2  -2   35.30    8.00
   5   2  -2   12.90    7.70
   5   2  -2   19.20    5.20
  -5  -2   2   21.20    4.20
  -5  -2   2   15.60    5.00
  -5  -2   2   25.80    5.30
   4   2  -2  224.58   21.40
   4   2  -2  234.28   17.10
   4   2  -2  217.18   14.00
   4   2  -2  237.18   10.40
   4   2  -2  249.18   14.90
  -4  -2   2  245.78   10.80
  -4  -2   2  247.28   15.70
   3   2  -2  147.69   10.70
   3   2  -2  139.49   15.10
   3   2  -2  134.99    9.40
   3   2  -2  142.69    7.30
   3   2  -2  144.99   10.00
   3   2  -2  163.48   10.60
  -3  -2   2  143.99    5.50
  -3  -2   2  159.28   11.00
  -3  -2   2  146.29   10.60
  -3  -2   2  143.79   15.30
  -3  -2   2  140.89    7.10
   2   2  -2   63.49    5.80
   2   2  -2   61.89    5.70
   2   2  -2   64.79    8.80
   2   2  -2   64.69    4.50
   2   2  -2   64.09    5.20
   2   2  -2   63.89    3.90
   2   2  -2   66.29    5.80
  -2  -2   2   63.09    3.70
  -2  -2   2   63.19    4.20
  -2  -2   2   66.99    5.90
  -2  -2   2   68.19    6.30
  -2  -2   2   66.59    8.90
   1   2  -2  147.99   11.20
   1   2  -2  136.69    6.60
   1   2  -2  148.29    5.90
   1   2  -2  156.98    7.60
   1   2  -2  147.89    7.70
   1   2  -2  148.19    5.50
  -1  -2   2  154.88    6.50
  -1  -2   2  139.69   11.00
  -1  -2   2  141.79    7.20
  -1  -2   2  147.79    6.00
  -1  -2   2  155.88    8.20
   0   2  -2  482.35   10.40
   0   2  -2  492.35   16.90
   0   2  -2  481.55   13.00
   0   2  -2  480.95   11.90
   0   2  -2  466.35   12.20
   0  -2   2  458.85   11.70
   0  -2   2  471.45   16.80
   0  -2   2  492.25   10.50
   0  -2   2  466.35   12.20
   0  -2   2  478.55   13.30
  -1   2  -2    4.40    1.40
  -1   2  -2    6.20    1.60
  -1   2  -2    5.40    1.20
  -1   2  -2    3.70    1.30
  -1   2  -2    3.60    1.20
   1  -2   2    4.30    1.30
   1  -2   2    4.40    1.20
   1  -2   2    6.90    1.70
   1  -2   2    5.40    1.50
   1  -2   2    5.10    1.70
   1  -2   2    4.70    1.10
   1  -2   2    5.30    1.40
  -2   2  -2   37.80    3.90
  -2   2  -2   40.20    3.20
  -2   2  -2   32.90    4.00
  -2   2  -2   36.90    3.90
  -2   2  -2   40.80    3.50
   2  -2   2   40.40    3.60
   2  -2   2   44.20    3.40
   2  -2   2   42.10    4.60
   2  -2   2   40.40    4.10
   2  -2   2   40.60    3.50
   2  -2   2   44.90    5.60
  -3   2  -2  854.61   24.20
  -3   2  -2  846.82   26.40
  -3   2  -2  801.62   19.60
  -3   2  -2  818.92   23.50
  -3   2  -2  863.41   23.10
  -3   2  -2  826.12   20.70
   3  -2   2  808.62   27.40
   3  -2   2  847.72   26.90
   3  -2   2  836.52   21.80
   3  -2   2  811.82   21.50
   3  -2   2  806.92   30.20
   3  -2   2  845.72   21.00
   3  -2   2  816.62   21.90
  -4   2  -2   60.79    6.60
  -4   2  -2   66.99    6.70
  -4   2  -2   69.89    7.50
  -4   2  -2   66.69    5.00
  -4   2  -2   78.39    7.90
   4  -2   2   74.39    6.50
   4  -2   2   70.59    6.40
   4  -2   2   57.59    9.30
   4  -2   2   70.89    8.10
   4  -2   2   69.29    6.10
  -5   2  -2    3.30    2.60
  -5   2  -2    2.70    1.60
  -5   2  -2    0.80    3.50
  -5   2  -2    2.80    3.40
  -5   2  -2    3.90    2.30
   5  -2   2   12.40    5.20
   5  -2   2    9.80    2.50
   5  -2   2    6.70    3.60
   5  -2   2    6.60    2.90
   5  -2   2    8.30    2.80
  -6   2  -2   30.70    9.80
  -6   2  -2   54.69   10.00
  -6   2  -2   40.50    3.70
  -6   2  -2   47.00    8.30
   6  -2   2   33.10    6.30
   6  -2   2   28.50    5.40
   6  -2   2   27.00    6.90
   6  -2   2   61.79   11.30
  -7   2  -2    7.10    4.40
  -7   2  -2   10.10    7.00
   7  -2   2   12.90    4.90
   7  -2   2   15.30    7.70
   7  -2   2   13.40    7.00
   8   1  -2   19.30    8.20
   8   1  -2   29.60    7.50
   8   1  -2   29.90   12.60
  -8  -1   2   26.50    7.20
  -8  -1   2   12.00    7.40
   7   1  -2   26.30    6.60
   7   1  -2   19.00    6.80
   7   1  -2   16.90   10.20
  -7  -1   2   26.60    6.20
  -7  -1   2   20.50    4.90
  -7  -1   2   15.90    7.80
   6   1  -2   58.99   12.20
   6   1  -2   57.09   14.20
   6   1  -2   64.59   11.80
   6   1  -2   60.89    5.40
  -6  -1   2   66.59    6.80
  -6  -1   2   58.59   12.80
  -6  -1   2   70.79   12.40
   5   1  -2  125.99   16.80
   5   1  -2  131.19   12.10
   5   1  -2  123.69    7.50
   5   1  -2  110.69   10.20
   5   1  -2   99.69   12.10
  -5  -1   2  130.49    7.80
  -5  -1   2  128.89   11.80
  -5  -1   2  128.09    9.40
   4   1  -2  279.07   18.00
   4   1  -2  278.77   17.40
   4   1  -2  282.17   14.90
   4   1  -2  290.67   10.20
   4   1  -2  267.67   24.10
  -4  -1   2  303.57   10.80
   3   1  -2  522.35   27.80
   3   1  -2  501.15   12.70
   3   1  -2  470.05   17.60
   3   1  -2  470.75   17.50
   3   1  -2  490.55   20.00
   3   1  -2  513.65   18.90
  -3  -1   2  466.45   18.40
  -3  -1   2  427.96   33.50
  -3  -1   2  484.85   17.80
  -3  -1   2  515.65   12.50
   2   1  -2  297.57    8.70
   2   1  -2  301.97    6.80
   2   1  -2  298.17   12.00
   2   1  -2  291.87   17.40
   2   1  -2  310.07   12.30
  -2  -1   2  320.77   12.90
  -2  -1   2  308.17   17.30
  -2  -1   2  314.47   11.90
  -2  -1   2  302.17   10.70
   1   1  -2   95.59    8.00
   1   1  -2   94.39    4.00
   1   1  -2  106.09    4.30
   1   1  -2  110.39    5.60
   1   1  -2  113.69    5.30
  -1  -1   2  104.79    4.50
  -1  -1   2  101.59    5.70
  -1  -1   2  106.79    6.10
  -1  -1   2  106.39    4.60
   0   1  -2  920.91   17.60
   0   1  -2  901.11   19.60
   0   1  -2  944.11   17.60
   0   1  -2  925.51   17.60
   0   1  -2  935.71   19.90
   0  -1   2  863.01   17.30
   0  -1   2  892.21   18.20
   0  -1   2  873.91   19.50
   0  -1   2  869.71   17.50
   0  -1   2  915.21   19.40
  -1   1  -2 2549.65   42.60
  -1   1  -2 2305.97   38.90
  -1   1  -2 2495.25   42.00
  -1   1  -2 2401.06   42.20
  -1   1  -2 2558.34   40.70
   1  -1   2 2355.26   39.10
   1  -1   2 2443.46   42.60
   1  -1   2 2443.36   42.00
   1  -1   2 2500.05   41.90
   1  -1   2 2373.76   39.20
  -2   1  -2  183.78    8.40
  -2   1  -2  160.18    7.70
  -2   1  -2  172.78    7.20
  -2   1  -2  173.28    8.90
  -2   1  -2  178.98    8.50
  -2   1  -2  167.88    9.40
  -2   1  -2  163.68    9.50
   2  -1   2  178.78    8.90
   2  -1   2  174.98    9.90
   2  -1   2  174.48    8.10
   2  -1   2  186.48    8.90
   2  -1   2  177.38    8.50
   2  -1   2  178.68    7.70
  -3   1  -2  163.98    9.70
  -3   1  -2  155.88   10.60
  -3   1  -2  170.08    9.20
  -3   1  -2  154.38    9.00
  -3   1  -2  163.78    7.30
  -3   1  -2  142.39   10.20
  -3   1  -2  152.08   10.90
   3  -1   2  166.88    9.30
   3  -1   2  164.08   11.40
   3  -1   2  171.88   10.00
   3  -1   2  158.38    8.30
   3  -1   2  152.28   10.90
   3  -1   2  174.28    8.70
  -4   1  -2  404.16   17.50
  -4   1  -2  423.06   20.40
  -4   1  -2  403.86   20.70
  -4   1  -2  420.46   17.50
  -4   1  -2  411.26   12.80
   4  -1   2  410.66   20.90
   4  -1   2  422.16   18.10
   4  -1   2  417.76   15.30
   4  -1   2  419.26   22.10
   4  -1   2  425.36   17.50
  -5   1  -2   98.39   11.80
  -5   1  -2   82.19   10.30
  -5   1  -2   91.29    5.80
  -5   1  -2   90.79    8.90
  -5   1  -2   88.49    8.70
   5  -1   2   90.39    8.80
   5  -1   2  101.79    9.30
   5  -1   2   88.29   10.70
   5  -1   2  105.29   12.60
  -6   1  -2   31.50    6.60
  -6   1  -2   50.29    8.80
   6  -1   2   41.50   10.00
   6  -1   2   33.10    6.50
   6  -1   2   32.50    8.00
   6  -1   2   32.40    6.80
  -7   1  -2   16.40    4.90
  -7   1  -2   26.50    7.00
  -7   1  -2   11.20    7.20
   7  -1   2   17.40    5.60
   7  -1   2   10.80    6.00
   7  -1   2   16.60    7.20
   8   0  -2   44.70   10.80
   8   0  -2   37.80    8.50
   8   0  -2   23.20   12.40
  -8   0   2   33.30   10.70
  -8   0   2   34.30   10.20
   7   0  -2   76.79    9.30
   7   0  -2   55.79   18.00
   7   0  -2   65.09   12.30
   7   0  -2   50.29    5.30
  -7   0   2   73.99    8.80
  -7   0   2   67.79   12.20
  -7   0   2   62.89    6.80
   6   0  -2   43.20    7.60
   6   0  -2   47.80    4.30
   6   0  -2   57.49   13.50
   6   0  -2   36.10    7.70
   6   0  -2   38.20    7.10
  -6   0   2   55.09   10.00
  -6   0   2   29.40    5.60
  -6   0   2   39.70    4.90
   5   0  -2  155.08   11.30
   5   0  -2  183.18   12.20
   5   0  -2  161.48   18.20
   5   0  -2  146.49    6.70
   5   0  -2  164.68   13.40
  -5   0   2  177.98   12.70
  -5   0   2  177.88    8.30
  -5   0   2  163.98   10.50
   4   0  -2  374.06   19.90
   4   0  -2  375.86   18.40
   4   0  -2  379.96   16.20
   4   0  -2  378.36   10.00
   4   0  -2  357.16   24.30
  -4   0   2  375.86   10.80
  -4   0   2  404.46   17.10
  -4   0   2  326.37   21.80
   3   0  -2  276.37   18.30
   3   0  -2  241.58   11.40
   3   0  -2  238.98   11.00
   3   0  -2  251.47    7.00
   3   0  -2  250.47   13.90
  -3   0   2  259.97   16.90
  -3   0   2  240.18   11.10
  -3   0   2  251.57   14.40
  -3   0   2  237.68    6.50
  -3   0   2  247.18   12.00
   2   0  -2  622.34   18.20
   2   0  -2  620.34   16.30
   2   0  -2  681.83   17.60
   2   0  -2  620.14   24.20
  -2   0   2  608.64   17.50
  -2   0   2  607.34   23.40
  -2   0   2  642.34   10.60
  -2   0   2  617.64   18.90
  -2   0   2  616.34   16.30
   1   0  -2 3101.59   55.59
   1   0  -2 3072.59   47.00
   1   0  -2 2903.81   49.80
   1   0  -2 3044.60   48.30
   1   0  -2 2986.90   48.00
  -1   0   2 3061.69   48.30
  -1   0   2 3127.59   44.50
  -1   0   2 3040.60   47.40
  -1   0   2 3214.58   47.40
  -1   0   2 2989.20   54.49
   0   0  -2  925.61   20.80
   0   0  -2  912.11   20.10
   0   0  -2  871.51   15.60
   0   0  -2  899.41   18.00
   0   0  -2  882.61   18.60
   0   0  -2  883.61   18.30
   0   0   2  881.01   18.80
   0   0   2  856.01   18.10
   0   0   2  845.92   19.40
   0   0   2  926.71   18.10
   0   0   2  984.70   15.70
  -1   0  -2  165.28    8.00
  -1   0  -2  158.98    9.40
  -1   0  -2  153.38    7.10
  -1   0  -2  166.68    8.50
  -1   0  -2  150.38    5.90
  -1   0  -2  173.18    7.80
   1   0   2  163.38    7.40
   1   0   2  160.28    8.30
   1   0   2  155.58    5.70
   1   0   2  155.68    8.10
   1   0   2  151.48    7.00
  -2   0  -2  573.94   17.70
  -2   0  -2  596.04   16.10
  -2   0  -2  540.55   18.90
  -2   0  -2  625.54   21.90
  -2   0  -2  615.04   18.20
  -2   0  -2  595.24   20.80
   2   0   2  598.44   16.70
   2   0   2  623.84   19.70
   2   0   2  618.34   15.60
   2   0   2  629.54   20.60
   2   0   2  609.84   18.20
   2   0   2  631.34   22.10
  -3   0  -2  390.36   18.70
  -3   0  -2  386.26   15.80
  -3   0  -2  413.06   14.90
  -3   0  -2  374.76   19.90
   3   0   2  369.06   13.60
   3   0   2  401.86   20.80
   3   0   2  388.06   18.20
   3   0   2  379.66   16.80
   3   0   2  405.86   16.50
  -4   0  -2  241.68   17.70
  -4   0  -2  237.78   16.40
  -4   0  -2  243.68   13.60
  -4   0  -2  225.18   12.50
   4   0   2  253.57   19.20
   4   0   2  213.78   13.30
   4   0   2  210.08   14.00
   4   0   2  236.78   15.80
  -5   0  -2   69.29    5.10
  -5   0  -2   73.19   16.10
  -5   0  -2   77.49    8.40
  -5   0  -2   66.29    7.40
   5   0   2   65.09   21.10
   5   0   2   78.89    9.90
   5   0   2   60.09    7.60
  -6   0  -2   28.40    6.30
  -6   0  -2   42.60    8.90
  -6   0  -2   34.20    9.40
   6   0   2   32.20    8.80
   6   0   2   38.30    8.30
   6   0   2   21.00    8.80
  -7   0  -2   34.70    7.80
  -7   0  -2   39.80   11.10
  -7   0  -2   56.49   10.00
   7   0   2   26.40    7.80
   7   0   2   33.50   11.30
   7   0   2   60.89   10.90
   8  -1  -2   22.60    6.00
   8  -1  -2    8.00    5.30
   8  -1  -2   14.10    9.70
  -8   1   2    7.30    4.50
  -8   1   2   18.80    7.00
   7  -1  -2   28.10   10.40
   7  -1  -2   36.90    6.80
   7  -1  -2   25.00    5.60
   7  -1  -2   31.00    7.80
  -7   1   2   31.50    6.80
  -7   1   2   41.90    9.00
   6  -1  -2   30.00    5.70
   6  -1  -2    7.90    3.70
   6  -1  -2   20.10    8.00
   6  -1  -2   21.30    5.20
  -6   1   2   21.70    5.00
  -6   1   2   13.10    4.60
   5  -1  -2   29.40    8.10
   5  -1  -2   20.70    5.70
   5  -1  -2   39.40    5.30
   5  -1  -2   32.20    5.40
  -5   1   2   43.00    5.30
   4  -1  -2  635.34   19.80
   4  -1  -2  627.04   19.80
   4  -1  -2  619.34   26.10
   4  -1  -2  583.54   23.60
   4  -1  -2  651.13   31.60
  -4   1   2  603.54   19.80
  -4   1   2  599.84   27.20
  -4   1   2  628.24   18.80
  -4   1   2  605.74   21.20
  -4   1   2  636.64   29.50
   3  -1  -2 1280.97   40.10
   3  -1  -2 1289.17   27.70
   3  -1  -2 1194.98   19.70
   3  -1  -2 1275.57   33.70
   3  -1  -2 1175.48   27.90
  -3   1   2 1261.87   25.40
  -3   1   2 1262.57   38.90
  -3   1   2 1223.38   26.60
  -3   1   2 1196.98   34.60
  -3   1   2 1214.68   28.70
   2  -1  -2  153.98    8.70
   2  -1  -2  150.48    6.60
   2  -1  -2  156.98   11.10
   2  -1  -2  161.18    7.50
  -2   1   2  154.68    7.70
  -2   1   2  155.98    9.00
  -2   1   2  155.08   10.80
  -2   1   2  164.58    6.90
  -2   1   2  145.19    5.60
   1  -1  -2  175.38    7.60
   1  -1  -2  181.68    5.80
   1  -1  -2  173.18    6.60
   1  -1  -2  194.18    8.40
   1  -1  -2  180.98    8.20
   1  -1  -2  194.98   11.00
  -1   1   2  184.68    6.90
  -1   1   2  190.88    8.20
  -1   1   2  195.18    8.40
  -1   1   2  177.18   10.10
  -1   1   2  205.08    8.20
  -1   1   2  186.58    5.50
  -1   1   2  187.58    4.20
   0  -1  -2  820.42   18.80
   0  -1  -2  799.02   21.20
   0  -1  -2  835.92   13.20
   0  -1  -2  853.71   19.50
   0   1   2  899.81   19.80
   0   1   2  852.41   17.60
   0   1   2  843.22   21.30
   0   1   2  905.61   28.20
  -1  -1  -2  285.07   11.50
  -1  -1  -2  268.77   12.90
  -1  -1  -2  298.47   10.90
  -1  -1  -2  290.67   11.30
  -1  -1  -2  266.17   14.40
  -1  -1  -2  285.37    8.20
   1   1   2  263.67   11.30
   1   1   2  288.37   11.40
   1   1   2  278.47    9.90
   1   1   2  264.87   12.20
  -2  -1  -2  155.48   11.00
  -2  -1  -2  148.59   10.50
  -2  -1  -2  142.39   12.10
  -2  -1  -2  148.49    7.20
  -2  -1  -2  162.18    9.50
  -2  -1  -2  160.58    9.20
   2   1   2  150.48    7.90
   2   1   2  149.09    9.30
   2   1   2  146.99    9.80
   2   1   2  161.58   10.30
  -3  -1  -2  143.39   26.50
  -3  -1  -2  127.19    9.20
  -3  -1  -2  127.69    8.00
  -3  -1  -2  143.09   12.10
   3   1   2  128.89    8.00
   3   1   2  123.49    9.50
   3   1   2  131.89   13.20
   3   1   2  133.99   10.40
  -4  -1  -2  162.58   11.70
  -4  -1  -2  149.99   14.30
  -4  -1  -2  148.29   10.00
   4   1   2  142.29   11.60
   4   1   2  160.48   13.60
   4   1   2  134.29   15.20
  -5  -1  -2  109.39   10.50
  -5  -1  -2  106.99    9.60
  -5  -1  -2  105.29   13.00
   5   1   2  114.19   12.70
   5   1   2  102.39   18.10
   5   1   2  118.99   12.40
  -6  -1  -2   57.99    9.80
  -6  -1  -2   51.09   11.90
  -6  -1  -2   31.80    7.20
   6   1   2   49.40   10.60
   6   1   2   39.10    8.20
   6   1   2   28.70   11.20
  -7  -1  -2    9.90    5.30
  -7  -1  -2   17.30    6.10
  -7  -1  -2   13.20    7.90
   7   1   2   18.50    6.00
   8  -2  -2    5.30    7.30
   8  -2  -2    8.10    5.50
  -8   2   2    6.60    3.50
  -8   2   2    6.70    5.40
   7  -2  -2    7.80    5.40
   7  -2  -2    0.80    3.10
   7  -2  -2   -0.10    1.70
  -7   2   2    2.20    3.70
  -7   2   2    0.50    2.00
   6  -2  -2   39.10    6.60
   6  -2  -2   32.50    7.50
   6  -2  -2   29.90    9.90
   6  -2  -2   53.29    6.20
  -6   2   2   36.10    7.00
  -6   2   2   52.29    6.30
   5  -2  -2  146.29    9.30
   5  -2  -2  113.29   21.90
   5  -2  -2  152.58    9.50
   5  -2  -2  137.89   12.20
  -5   2   2  155.88   15.40
  -5   2   2  155.98    9.90
  -5   2   2  132.49    9.40
   4  -2  -2   75.49    5.80
   4  -2  -2   77.99   10.00
   4  -2  -2   81.29    5.90
   4  -2  -2   70.19    4.00
  -4   2   2   72.49    5.90
  -4   2   2   79.59    9.50
  -4   2   2   64.59    5.50
  -4   2   2   74.89    9.50
  -4   2   2   63.99    6.10
   3  -2  -2   24.90    6.00
   3  -2  -2   22.10    2.20
   3  -2  -2   20.40    2.70
   3  -2  -2   21.30    4.70
   3  -2  -2   29.10    3.10
  -3   2   2   21.50    4.80
  -3   2   2   19.90    2.60
  -3   2   2   18.20    3.40
  -3   2   2   22.10    2.70
  -3   2   2   21.90    5.60
   2  -2  -2    0.40    0.40
   2  -2  -2    0.90    0.50
   2  -2  -2    3.20    1.90
   2  -2  -2   -0.20    0.90
   2  -2  -2    1.70    0.80
   2  -2  -2    1.90    1.10
   2  -2  -2    0.10    0.40
  -2   2   2    2.50    0.90
  -2   2   2   -0.30    1.40
  -2   2   2    0.50    0.60
  -2   2   2    1.90    1.00
  -2   2   2    0.60    0.50
  -2   2   2    0.00    0.30
   1  -2  -2  193.08    8.50
   1  -2  -2  171.18    7.10
   1  -2  -2  185.68    8.90
   1  -2  -2  179.28    6.70
  -1   2   2  193.78    7.60
  -1   2   2  181.68    6.50
  -1   2   2  182.38    8.20
  -1   2   2  198.18    9.80
  -1   2   2  188.98    8.80
   0  -2  -2  171.68    9.80
   0  -2  -2  182.68    8.30
   0  -2  -2  179.08    8.50
   0  -2  -2  173.98    7.80
   0   2   2  198.08    8.80
   0   2   2  185.68    7.50
   0   2   2  182.68    9.70
   0   2   2  180.98    8.60
  -1  -2  -2    1.30    0.70
  -1  -2  -2    1.30    0.80
  -1  -2  -2    2.20    1.30
  -1  -2  -2    1.40    0.80
  -1  -2  -2   -0.20    0.60
  -1  -2  -2   -1.30    2.20
   1   2   2    1.20    1.20
   1   2   2   -0.10    0.60
   1   2   2    1.00    0.80
  -2  -2  -2   53.09    5.70
  -2  -2  -2   51.59    5.40
  -2  -2  -2   46.20    9.70
  -2  -2  -2   52.19    5.80
  -2  -2  -2   54.69    4.40
  -2  -2  -2   62.19    7.50
   2   2   2   55.09    6.10
   2   2   2   52.39    6.00
   2   2   2   62.09    6.70
   2   2   2   58.09    5.10
  -3  -2  -2  123.99   12.20
  -3  -2  -2  139.69   10.10
   3   2   2  137.79   10.90
   3   2   2  148.69   11.70
  -4  -2  -2   93.89   11.10
  -4  -2  -2   91.89    6.50
  -4  -2  -2  101.69    8.20
  -4  -2  -2  101.99    9.70
   4   2   2   83.89    9.60
   4   2   2   85.09   10.00
  -5  -2  -2   14.10    5.00
  -5  -2  -2    8.90    3.60
  -5  -2  -2   10.40    3.00
  -5  -2  -2   18.20    6.80
   5   2   2   13.30    4.80
   5   2   2    9.30    5.20
  -6  -2  -2    0.60    4.90
  -6  -2  -2    1.90    3.10
  -6  -2  -2   -1.00    3.00
   6   2   2    1.20    2.90
   6   2   2    2.40    4.00
   8  -3  -2   15.70    6.50
   8  -3  -2   11.00    4.20
  -8   3   2    4.30    5.50
  -8   3   2    9.50    5.20
   7  -3  -2    3.50    2.50
   7  -3  -2   10.60    4.30
   7  -3  -2   -2.50    5.50
   7  -3  -2    2.50    2.20
  -7   3   2    5.00    2.80
  -7   3   2    9.20    3.50
   6  -3  -2   22.50    6.20
   6  -3  -2   22.50    4.30
   6  -3  -2   31.50    5.20
   6  -3  -2   41.20   11.30
  -6   3   2   19.10    4.80
  -6   3   2   31.30    9.20
  -6   3   2   16.00    4.30
   5  -3  -2   25.10    4.20
   5  -3  -2   18.20    6.50
   5  -3  -2   22.00    6.10
   5  -3  -2   18.20    3.50
   5  -3  -2   20.40    3.10
  -5   3   2   19.80    3.90
  -5   3   2   20.80    4.40
  -5   3   2   28.70    8.00
   4  -3  -2    3.20    3.20
   4  -3  -2    9.50    2.40
   4  -3  -2   11.20    2.40
   4  -3  -2   11.00    2.40
   4  -3  -2   11.60    2.30
  -4   3   2   11.90    2.90
  -4   3   2    9.80    4.40
  -4   3   2   10.60    2.70
  -4   3   2   10.20    2.20
  -4   3   2   16.50    5.20
   3  -3  -2    0.20    0.40
   3  -3  -2    1.90    0.80
   3  -3  -2    1.90    0.80
   3  -3  -2    0.50    0.50
   3  -3  -2    0.90    0.60
   3  -3  -2    1.30    1.50
   3  -3  -2   -0.10    1.10
  -3   3   2   -1.60    0.80
  -3   3   2    2.60    1.90
  -3   3   2    0.60    1.90
  -3   3   2   -0.50    0.50
  -3   3   2   -0.40    0.60
   2  -3  -2   38.30    3.90
   2  -3  -2   42.40    2.90
   2  -3  -2   39.40    5.00
   2  -3  -2   31.80    6.70
   2  -3  -2   42.50    3.20
   2  -3  -2   36.20    3.40
   2  -3  -2   41.20    3.20
   2  -3  -2   39.20    4.30
  -2   3   2   44.10    3.20
  -2   3   2   41.00    5.30
  -2   3   2   33.90    3.80
  -2   3   2   41.00    3.40
  -2   3   2   41.00    3.30
   1  -3  -2   23.40    2.80
   1  -3  -2   21.00    2.60
   1  -3  -2   28.70    3.00
   1  -3  -2   25.90    2.00
   1  -3  -2   23.40    3.80
   1  -3  -2   23.90    4.40
  -1   3   2   28.80    3.40
  -1   3   2   15.40    2.50
  -1   3   2   20.30    3.70
  -1   3   2   20.60    3.40
  -1   3   2   23.20    4.60
   0  -3  -2   82.39    7.50
   0  -3  -2   85.09    5.30
   0  -3  -2   72.49    5.50
   0  -3  -2   78.49    5.70
   0  -3  -2   84.39    6.30
   0   3   2   85.59    6.50
   0   3   2   74.49    5.70
   0   3   2   79.49    5.40
   0   3   2   83.19    6.90
  -1  -3  -2   -0.90    2.80
  -1  -3  -2    4.40    2.40
  -1  -3  -2    6.50    2.20
  -1  -3  -2    0.70    1.30
   1   3   2    5.00    1.90
   1   3   2    2.70    1.40
   1   3   2    0.80    1.30
   1   3   2    4.40    1.90
  -2  -3  -2   -1.90    0.90
  -2  -3  -2    1.40    0.60
  -2  -3  -2   -1.20    0.80
  -2  -3  -2    2.50    1.80
  -2  -3  -2    1.70    1.60
   2   3   2   -1.90    0.80
  -3  -3  -2    2.60    1.90
  -3  -3  -2    4.90    1.50
  -3  -3  -2    6.10    2.70
  -3  -3  -2    1.10    1.00
   3   3   2    1.40    1.50
   3   3   2    2.20    2.00
  -4  -3  -2    7.10    2.70
  -4  -3  -2    5.00    2.20
  -4  -3  -2   29.10    8.20
  -4  -3  -2    9.10    3.70
   4   3   2    0.20    1.90
   4   3   2   11.00    4.40
  -5  -3  -2   -2.80    3.90
  -5  -3  -2    0.60    2.00
  -5  -3  -2   -1.90    2.70
   5   3   2   -1.50    3.30
   5   3   2    2.90    2.50
  -6  -3  -2   -4.70    6.20
  -6  -3  -2    5.60    5.30
  -6  -3  -2   -0.40    2.50
   6   3   2   -1.60    3.20
   6   3   2    7.00    7.60
   8  -4  -2    7.90    8.70
   8  -4  -2   13.20    4.00
   8  -4  -2   19.70    8.00
  -8   4   2   19.70    5.90
   7  -4  -2   35.80    8.60
   7  -4  -2   41.20    4.70
   7  -4  -2   39.00   10.80
   7  -4  -2   39.20    5.20
  -7   4   2   36.40   10.30
  -7   4   2   42.90    8.20
  -7   4   2   36.60    6.60
   6  -4  -2   89.09   16.30
   6  -4  -2   98.49   11.00
   6  -4  -2   90.79    6.50
   6  -4  -2   94.69    6.80
   6  -4  -2  101.39    6.70
  -6   4   2   92.29    7.70
  -6   4   2   82.09    8.70
  -6   4   2   86.49   16.50
   5  -4  -2   35.20    6.80
   5  -4  -2   39.60    9.30
   5  -4  -2   42.40    4.40
   5  -4  -2   38.20    3.50
   5  -4  -2   36.90    3.60
  -5   4   2   33.00    8.20
  -5   4   2   38.90    6.60
   4  -4  -2   27.50    2.40
   4  -4  -2   26.60    3.90
   4  -4  -2   22.30    6.70
   4  -4  -2   20.20    3.40
  -4   4   2   29.60    3.40
  -4   4   2   19.80    6.80
  -4   4   2   29.90    3.10
  -4   4   2   29.80    5.20
  -4   4   2   28.00    7.50
   3  -4  -2  178.58    7.50
   3  -4  -2  177.48    7.20
   3  -4  -2  163.98   15.20
   3  -4  -2  177.98    7.70
   3  -4  -2  166.68    8.50
   3  -4  -2  191.08    6.80
  -3   4   2  176.28    7.60
  -3   4   2  176.48    9.00
  -3   4   2  180.08    8.60
  -3   4   2  177.78   13.20
   2  -4  -2   52.69    5.20
   2  -4  -2   59.09    5.00
   2  -4  -2   54.89    3.60
   2  -4  -2   39.90    7.70
   2  -4  -2   60.49    4.20
   2  -4  -2   52.49    6.30
   2  -4  -2   53.79    5.00
   2  -4  -2   56.89    4.40
  -2   4   2   61.49    4.50
  -2   4   2   55.19    6.60
  -2   4   2   51.29    4.20
  -2   4   2   52.49    4.90
  -2   4   2   51.59    4.20
   1  -4  -2  103.39    6.60
   1  -4  -2  105.99    6.90
   1  -4  -2  109.89    8.30
   1  -4  -2  108.79    6.60
   1  -4  -2  111.49    5.30
   1  -4  -2  117.39    7.00
  -1   4   2   96.39    7.80
  -1   4   2  116.09    8.00
  -1   4   2   98.49    8.60
  -1   4   2   93.49    8.20
  -1   4   2  111.59    7.10
   0  -4  -2   14.00    2.90
   0  -4  -2   18.70    4.00
   0  -4  -2   22.10    3.50
   0  -4  -2   12.10    3.30
   0  -4  -2   26.80    4.50
   0   4   2   20.80    3.70
   0   4   2   28.30    4.70
   0   4   2   28.10    4.90
   0   4   2   16.40    3.60
  -1  -4  -2   90.29    8.00
  -1  -4  -2   73.39    6.80
  -1  -4  -2   69.19    8.60
  -1  -4  -2   79.29    6.70
  -1  -4  -2   70.99    6.00
   1   4   2   80.89    6.90
   1   4   2   65.59    7.00
  -2  -4  -2  345.67   17.10
  -2  -4  -2  379.86   14.10
  -2  -4  -2  357.46   20.40
  -2  -4  -2  368.96   22.40
   2   4   2  379.56   18.10
   2   4   2  376.96   19.40
  -3  -4  -2   36.80    6.50
  -3  -4  -2   50.29    9.90
  -3  -4  -2   57.69    6.00
   3   4   2   60.39   10.30
   3   4   2   61.09    7.60
  -4  -4  -2   27.80    5.60
  -4  -4  -2   37.80   10.60
   4   4   2   32.00    7.20
   4   4   2   29.20    7.00
  -5  -4  -2   18.50    6.20
  -5  -4  -2   18.30    4.90
  -5  -4  -2   18.90    9.00
   5   4   2   13.10    5.80
   5   4   2   21.90    6.30
   8  -5  -2   23.80    7.40
  -8   5   2   16.00    5.30
   7  -5  -2   39.00   12.30
   7  -5  -2   31.20    8.70
   7  -5  -2   33.20    4.80
  -7   5   2   34.00   11.40
  -7   5   2   24.80    6.50
   6  -5  -2   73.49   12.00
   6  -5  -2   63.39   13.90
  -6   5   2   73.99    6.00
  -6   5   2   79.49    8.60
  -6   5   2   95.39   17.80
   5  -5  -2  113.69   11.20
   5  -5  -2  112.79   14.80
  -5   5   2   89.69   12.60
  -5   5   2  117.09   14.30
  -5   5   2  107.19    5.90
  -5   5   2  112.69    9.20
   4  -5  -2   76.79   11.00
   4  -5  -2   69.09    5.50
   4  -5  -2   66.49    4.50
  -4   5   2   68.39    9.60
  -4   5   2   64.29    6.40
   3  -5  -2  424.46   32.10
   3  -5  -2  441.56   17.90
   3  -5  -2  457.15   13.50
   3  -5  -2  451.05   14.10
   3  -5  -2  442.36   13.60
  -3   5   2  425.06   22.10
  -3   5   2  431.16   14.50
  -3   5   2  434.76   14.20
  -3   5   2  443.46   16.40
  -3   5   2  436.26   15.90
   2  -5  -2  217.08   11.20
   2  -5  -2  146.59   28.00
   2  -5  -2  239.68   11.90
   2  -5  -2  254.97    9.30
   2  -5  -2  248.88   10.90
   2  -5  -2  240.08    9.70
  -2   5   2  259.67   15.50
  -2   5   2  236.18   11.20
  -2   5   2  239.68   10.60
  -2   5   2  230.38   10.10
   1  -5  -2   67.79    7.10
   1  -5  -2   61.19    4.70
   1  -5  -2   49.99    5.10
   1  -5  -2   66.79    5.80
   1  -5  -2   62.89    5.50
  -1   5   2   48.00    6.50
  -1   5   2   59.99    5.50
  -1   5   2   59.19    5.70
   0  -5  -2  585.34   21.00
   0  -5  -2  603.84   21.20
   0  -5  -2  623.24   19.30
   0  -5  -2  657.83   26.90
   0   5   2  615.84   22.30
   0   5   2  611.84   19.50
  -1  -5  -2  256.17   15.20
  -1  -5  -2  279.67   15.20
  -1  -5  -2  308.77   14.20
  -1  -5  -2  327.77   20.40
   1   5   2  318.57   17.20
   1   5   2  336.77   15.20
  -2  -5  -2  276.17   20.50
  -2  -5  -2  250.47   15.60
   2   5   2  284.67   17.80
  -3  -5  -2  102.09   17.00
  -3  -5  -2  101.49    8.20
   3   5   2   93.39   10.20
   3   5   2   85.49   11.00
  -4  -5  -2   -0.70    3.10
  -4  -5  -2   -3.00    1.50
  -4  -5  -2    7.50    4.20
   4   5   2   -2.00    3.00
   4   5   2    9.00    3.90
  -5  -5  -2   19.10    6.50
  -5  -5  -2   23.60    5.60
  -5  -5  -2   18.60   10.30
   5   5   2   30.90    8.70
   5   5   2   23.20    7.90
   8  -6  -2   18.00    8.50
   8  -6  -2   10.80    4.90
  -8   6   2    6.10    8.40
  -8   6   2    4.10    3.50
   7  -6  -2   46.20   10.10
   7  -6  -2   36.10   12.10
  -7   6   2   48.80    9.10
  -7   6   2   39.10   12.20
   6  -6  -2  100.99   11.50
   6  -6  -2   68.89   13.70
  -6   6   2   83.29    9.40
  -6   6   2  119.19   15.30
   5  -6  -2  202.18    8.60
   5  -6  -2  183.88   14.60
   5  -6  -2  199.28   20.40
  -5   6   2  205.78   18.90
  -5   6   2  211.08   13.50
   4  -6  -2   67.99   12.90
   4  -6  -2   81.19   10.40
   4  -6  -2   87.29    6.10
  -4   6   2   96.19   11.50
  -4   6   2   84.19    7.90
   3  -6  -2  115.39    7.70
   3  -6  -2  123.99    7.50
   3  -6  -2  136.39   15.70
   3  -6  -2  122.09    9.20
   3  -6  -2  118.89    7.00
  -3   6   2  119.89    8.10
  -3   6   2  130.69   12.50
  -3   6   2  109.29    8.00
  -3   6   2  105.09    7.00
   2  -6  -2  664.33   21.00
   2  -6  -2  647.64   21.00
   2  -6  -2  678.13   25.20
   2  -6  -2  682.73   18.20
   2  -6  -2  675.23   19.30
  -2   6   2  661.63   27.40
  -2   6   2  675.33   20.30
   1  -6  -2  191.78    9.40
   1  -6  -2  165.08   12.50
   1  -6  -2  180.98   10.80
   1  -6  -2  180.88    9.90
   1  -6  -2  192.08   11.30
  -1   6   2  191.78   10.00
  -1   6   2  199.48   11.70
  -1   6   2  185.88   13.90
   0  -6  -2  224.28   11.30
   0  -6  -2  218.18   13.30
   0  -6  -2  217.28   16.40
   0  -6  -2  279.97   15.00
   0   6   2  222.58   13.90
   0   6   2  219.58   15.30
   0   6   2  196.98   10.80
  -1  -6  -2  204.08   17.10
  -1  -6  -2  214.98   14.20
  -1  -6  -2  232.68   12.60
   1   6   2  212.08   12.60
   1   6   2  225.28   15.40
  -2  -6  -2   17.10    6.60
  -2  -6  -2    9.90    5.00
   2   6   2   10.10    3.70
   2   6   2   -0.20    2.90
  -3  -6  -2   89.69    7.90
  -3  -6  -2   75.99   10.00
  -3  -6  -2   52.39   11.70
   3   6   2   79.89   13.20
   3   6   2   91.89   10.10
  -4  -6  -2   69.69   11.70
  -4  -6  -2   86.79    8.80
  -4  -6  -2   70.99   16.00
   4   6   2   91.39   12.20
   4   6   2   93.29   16.00
   8  -7  -2   12.10    8.70
   8  -7  -2    8.60    4.60
  -8   7   2    1.50    7.20
  -8   7   2   11.10    6.30
   7  -7  -2   56.39   13.70
   7  -7  -2   47.90   10.60
  -7   7   2   54.39   10.20
  -7   7   2   63.39   14.10
   6  -7  -2   43.70    4.10
   6  -7  -2   33.40    8.00
   6  -7  -2   30.00    9.50
  -6   7   2   47.50   12.00
  -6   7   2   37.80    7.70
   5  -7  -2   12.30    4.50
   5  -7  -2   15.50    3.10
   5  -7  -2   11.80    6.10
  -5   7   2   12.30    5.80
  -5   7   2   15.50    4.40
   4  -7  -2  136.99   18.00
   4  -7  -2  159.38   11.60
  -4   7   2  164.78   14.40
  -4   7   2  150.48   15.00
   3  -7  -2  156.08    8.60
   3  -7  -2  164.58   12.10
   3  -7  -2  167.28   10.90
   3  -7  -2  183.28   10.80
   3  -7  -2  157.68    7.60
   3  -7  -2  170.68   18.40
  -3   7   2  175.08   15.20
   2  -7  -2  198.68    9.70
   2  -7  -2  191.18   13.00
   2  -7  -2  193.48   10.50
   2  -7  -2  184.68   11.50
   2  -7  -2  172.18   10.00
  -2   7   2  183.58   10.90
  -2   7   2  193.28   15.10
   1  -7  -2   52.99    6.60
   1  -7  -2   54.19    5.60
   1  -7  -2   65.69    8.10
   1  -7  -2   58.89    5.60
   1  -7  -2   55.09    6.40
  -1   7   2   69.79    7.60
  -1   7   2   49.99    9.50
   0  -7  -2    5.80    2.40
   0  -7  -2    6.10    2.60
   0  -7  -2    2.70    2.90
   0  -7  -2   -0.80    2.20
   0   7   2    8.90    3.50
   0   7   2    5.90    3.10
   0   7   2    5.00    2.20
  -1  -7  -2  149.88   12.60
  -1  -7  -2  166.18   10.80
  -1  -7  -2  130.49   14.90
   1   7   2  141.79   13.40
   1   7   2  161.08   11.00
  -2  -7  -2  178.98   18.90
  -2  -7  -2  170.68   14.70
   2   7   2  186.68   16.20
   2   7   2  172.18   12.80
  -3  -7  -2   38.80    8.70
  -3  -7  -2   26.10    8.60
  -3  -7  -2   31.00    5.60
   3   7   2   35.80    8.90
   3   7   2   33.20    7.50
   7  -8  -2    1.60    2.90
   7  -8  -2   -2.30    6.80
  -7   8   2   -5.60    3.30
  -7   8   2    8.30    5.70
   6  -8  -2   24.20   13.70
   6  -8  -2   27.40    4.20
   6  -8  -2   18.60    5.90
  -6   8   2   19.60    8.20
  -6   8   2   22.30    6.30
   5  -8  -2   13.90    3.30
   5  -8  -2   11.30    6.90
   5  -8  -2    2.40    3.00
  -5   8   2   10.80    6.10
  -5   8   2   12.10    4.30
   4  -8  -2   13.70    3.80
   4  -8  -2   21.00    8.40
  -4   8   2   32.30    9.20
   3  -8  -2   27.30    5.10
   3  -8  -2   20.80    4.60
   3  -8  -2   21.90    4.00
   3  -8  -2   19.50    3.50
   3  -8  -2   23.80    4.80
   3  -8  -2    5.90    5.20
  -3   8   2   17.50    3.70
  -3   8   2   13.80    5.70
   2  -8  -2    6.40    2.80
   2  -8  -2    5.40    3.70
   2  -8  -2    4.70    3.10
   2  -8  -2    3.00    2.60
   2  -8  -2    7.10    2.90
  -2   8   2    7.20    2.70
  -2   8   2   13.30    5.40
   1  -8  -2   37.10    8.20
   1  -8  -2   30.10    4.80
   1  -8  -2   29.20    6.10
   1  -8  -2   31.00    4.70
   1  -8  -2   39.90    7.20
  -1   8   2   25.00    6.90
  -1   8   2   18.20    5.00
   0  -8  -2   39.60    7.30
   0  -8  -2   53.39   10.80
   0  -8  -2   42.00    7.60
   0  -8  -2   37.70    5.00
   0   8   2   39.70    5.80
   0   8   2   37.10    7.50
   0   8   2   36.20    8.70
  -1  -8  -2   15.60    6.50
  -1  -8  -2   31.10    7.40
   1   8   2   22.40    6.60
   1   8   2   22.10    6.40
   1   8   2   24.50    5.30
  -2  -8  -2   38.00    8.20
  -2  -8  -2   45.00   11.30
   2   8   2   44.10    7.70
   2   8   2   35.50    8.40
   7  -9  -2    7.10    7.60
   7  -9  -2    0.70    3.50
  -7   9   2    4.70    5.10
   6  -9  -2   -0.10    6.40
   6  -9  -2    3.30    3.30
   6  -9  -2   -2.90    2.00
  -6   9   2    3.70    3.90
  -6   9   2   -2.10    3.60
   5  -9  -2    7.20    6.90
   5  -9  -2    2.70    2.40
   5  -9  -2   10.80    4.90
  -5   9   2   10.30    6.80
   4  -9  -2   36.60    6.30
   4  -9  -2   15.40    9.40
   4  -9  -2   30.50    6.10
  -4   9   2   26.80    8.70
   3  -9  -2    3.40    2.60
   3  -9  -2    4.50    5.60
   3  -9  -2   16.30    3.90
   3  -9  -2   12.00    3.70
   3  -9  -2    2.80    2.60
  -3   9   2   15.30    5.80
  -3   9   2    4.10    3.50
   2  -9  -2    0.80    2.40
   2  -9  -2    7.10    3.20
   2  -9  -2    6.00    2.80
   2  -9  -2    3.80    4.10
  -2   9   2    9.50    4.50
  -2   9   2    4.40    3.20
   1  -9  -2    9.60    4.90
   1  -9  -2   10.10    4.10
   1  -9  -2    2.30    4.10
  -1   9   2    5.80    3.50
  -1   9   2    7.10    4.30
   0  -9  -2    4.40    4.10
   0  -9  -2    3.30    2.60
   0   9   2    4.60    3.70
  -1  -9  -2   -6.20    3.80
  -1  -9  -2    6.80    4.20
   1   9   2   -6.20    3.30
   1   9   2    6.60    3.80
   6 -10  -2   18.60    5.40
   6 -10  -2   14.20    9.80
   6 -10  -2   15.20    5.80
  -6  10   2   16.70    8.30
   5 -10  -2    2.20    2.70
   5 -10  -2    7.00    3.10
   5 -10  -2    5.30    5.10
  -5  10   2   -1.80    4.20
   4 -10  -2   17.10    7.80
   4 -10  -2    7.20    3.80
   4 -10  -2    7.60    3.50
  -4  10   2   12.00    5.70
   3 -10  -2   10.60    4.00
   3 -10  -2   18.30    4.40
   3 -10  -2   17.00    8.40
  -3  10   2    7.40    6.30
   2 -10  -2    2.50    2.80
   2 -10  -2    0.90    3.50
  -2  10   2    6.70    5.10
  -2  10   2    2.10    6.70
   1 -10  -2   54.19   11.00
   1 -10  -2   40.80    8.20
  -1  10   2   41.40    9.60
  -1  10   2   45.10    8.60
   0 -10  -2   57.19   11.90
   0 -10  -2   38.90    8.60
   0  10   2   58.99   12.40
   0  10   2   45.20    9.50
   4 -11  -2   24.30    5.70
   4 -11  -2   15.00   11.20
  -4  11   2   14.50    8.00
   3 -11  -2   47.80   18.30
   3 -11  -2   21.20    5.40
  -3  11   2    7.70    6.90
   2 -11  -2   23.10   10.70
   2 -11  -2   20.50    6.80
   2 -11  -2   44.10   14.90
  -2  11   2   31.80    9.10
   0  11  -3   18.80    9.10
   0 -11   3   20.90    6.70
   0 -11   3    5.40    4.90
  -1  11  -3   28.90    6.30
  -1  11  -3   42.90    9.00
   1 -11   3   29.40    6.70
   1 -11   3   24.30    6.10
  -2  11  -3    3.90    2.40
  -2  11  -3   11.20    5.80
  -3  11  -3   -2.30    5.50
  -3  11  -3    3.30    2.70
   3 -11   3    5.10    3.40
  -4  11  -3   21.40    5.60
  -4  11  -3   29.80    9.00
   4 -11   3   24.10    5.70
   4 -11   3   20.30    7.80
  -5  11  -3   30.50   11.10
  -5  11  -3   34.80   10.20
   5 -11   3   15.60    9.30
   5 -11   3   27.10    6.30
   2  10  -3   10.20    5.40
  -2 -10   3    0.10    8.00
  -2 -10   3    9.10    5.10
   1  10  -3   31.60    6.80
   1  10  -3   27.20    7.00
  -1 -10   3   29.20    6.80
  -1 -10   3   33.90    8.20
   0  10  -3   52.69    8.90
   0  10  -3   89.49    9.20
   0  10  -3   69.79    8.20
   0 -10   3   77.79   10.00
   0 -10   3   85.89    9.90
  -1  10  -3  100.29   10.40
  -1  10  -3   92.89    9.10
  -1  10  -3  114.49   10.40
   1 -10   3  105.49   10.40
   1 -10   3   97.89   10.30
   1 -10   3  111.39   10.50
  -2  10  -3  107.99   11.60
  -2  10  -3   96.29    9.80
   2 -10   3  120.09   10.90
  -3  10  -3   26.60    7.90
  -3  10  -3   23.90    5.60
   3 -10   3   33.70    6.90
  -4  10  -3   34.60    9.80
  -4  10  -3   44.90    8.50
   4 -10   3   43.10    7.60
   4 -10   3   39.40    6.10
   4 -10   3   39.20    9.30
  -5  10  -3   19.30    5.30
  -5  10  -3   20.70    9.80
   5 -10   3   16.70    7.90
   5 -10   3    8.80    4.00
   5 -10   3   11.70    4.70
  -6  10  -3    3.50    3.40
  -6  10  -3   14.10    6.00
   6 -10   3   11.00    4.40
   6 -10   3    3.00    5.90
   6 -10   3   -1.80    2.20
   3   9  -3   41.80    7.90
   3   9  -3   45.00    9.70
  -3  -9   3   55.29   14.30
  -3  -9   3   57.59   10.20
   2   9  -3   53.49    8.40
   2   9  -3   38.60    7.90
  -2  -9   3   61.19   12.40
  -2  -9   3   31.30    6.60
   1   9  -3   70.69    7.30
   1   9  -3   67.09    7.40
   1   9  -3   59.29    9.60
  -1  -9   3   61.39   12.10
  -1  -9   3   70.19    8.50
  -1  -9   3   54.29    9.30
   0   9  -3  157.88   12.20
   0   9  -3  193.78   13.00
   0   9  -3  168.78   11.60
   0  -9   3  165.58   13.80
   0  -9   3  190.38   13.60
   0  -9   3  168.28   13.60
  -1   9  -3  220.88   13.00
  -1   9  -3  222.78   14.30
  -1   9  -3  217.28   14.50
   1  -9   3  209.78   13.60
   1  -9   3  197.58   12.80
  -2   9  -3  105.59   10.00
   2  -9   3  113.79   10.10
  -3   9  -3    7.30    3.00
  -3   9  -3    9.80    4.90
   3  -9   3    4.60    2.60
  -4   9  -3    3.00    4.80
  -4   9  -3    4.90    3.30
   4  -9   3    1.90    1.70
   4  -9   3    5.70    3.10
   4  -9   3    5.10    5.00
  -5   9  -3   79.19   24.70
  -5   9  -3   93.09    9.50
  -5   9  -3  106.09   12.50
   5  -9   3  121.19   11.30
   5  -9   3   93.29    9.20
   5  -9   3  108.69   14.00
  -6   9  -3   58.39    9.20
  -6   9  -3   54.39   11.00
   6  -9   3   59.99    7.30
   6  -9   3   51.19   11.50
   4   8  -3   22.40    7.50
  -4  -8   3   36.10    7.30
  -4  -8   3   27.50    9.80
   3   8  -3   32.60    8.10
  -3  -8   3   48.40    8.70
  -3  -8   3   43.90    9.60
   2   8  -3   44.40    5.90
   2   8  -3   41.10    8.70
   2   8  -3   41.60    6.40
  -2  -8   3   39.30    9.00
  -2  -8   3   35.60    7.10
   1   8  -3   70.79    6.80
   1   8  -3   61.69    8.00
   1   8  -3   56.39    6.70
  -1  -8   3   56.39    9.50
  -1  -8   3   64.69    7.70
  -1  -8   3   70.99    8.70
   0   8  -3  187.88   11.30
   0   8  -3  162.18   10.90
   0   8  -3  167.38   11.60
   0  -8   3  182.78   13.40
   0  -8   3  159.38   11.80
   0  -8   3  184.68   13.00
  -1   8  -3   71.39    8.00
  -1   8  -3   59.99    7.00
  -1   8  -3   56.39    6.00
   1  -8   3   61.89    6.80
   1  -8   3   60.49    6.70
   1  -8   3   80.09    7.30
  -2   8  -3   12.30    3.50
  -2   8  -3   13.60    2.70
  -2   8  -3   21.10    5.70
   2  -8   3   16.30    3.90
   2  -8   3   12.50    3.50
  -3   8  -3   77.89    8.00
  -3   8  -3   95.39   11.30
   3  -8   3   79.09   13.20
   3  -8   3   87.99    8.30
   3  -8   3   75.39    6.50
  -4   8  -3   74.89   13.90
  -4   8  -3   87.89   10.60
  -4   8  -3   95.79    9.10
   4  -8   3   75.49    8.30
   4  -8   3   84.09    7.90
  -5   8  -3   50.29    7.90
  -5   8  -3   35.40    8.70
   5  -8   3   53.79    6.70
   5  -8   3   55.89   11.10
   5  -8   3   66.69    8.50
  -6   8  -3   27.40    6.30
  -6   8  -3   20.40    6.40
   6  -8   3   27.00    5.60
   6  -8   3   24.10    7.80
   6  -8   3   25.40    7.80
  -7   8  -3    6.50    3.80
   7  -8   3    8.50    3.70
   7  -8   3    9.00    5.20
   5   7  -3    6.70    4.60
   5   7  -3   10.80    5.80
  -5  -7   3    3.60    3.50
   4   7  -3   22.40    6.10
   4   7  -3   10.00    4.40
   4   7  -3   10.60    7.00
  -4  -7   3    3.00    4.10
  -4  -7   3   11.50    4.30
   3   7  -3   18.40    3.60
   3   7  -3   23.30    6.60
  -3  -7   3   13.70    4.50
  -3  -7   3   10.50    5.00
   2   7  -3   21.60    5.40
   2   7  -3   19.10    4.20
   2   7  -3   14.30    3.60
  -2  -7   3   15.90    4.20
  -2  -7   3    7.80    3.70
   1   7  -3   14.30    3.40
   1   7  -3   11.90    4.00
   1   7  -3    8.70    3.00
  -1  -7   3   10.00    3.20
  -1  -7   3    9.30    3.70
  -1  -7   3   13.10    4.20
   0   7  -3   11.40    3.90
   0   7  -3   14.90    3.70
   0   7  -3   15.90    3.50
   0  -7   3   16.10    4.00
   0  -7   3   16.70    4.00
   0  -7   3   15.80    4.70
  -1   7  -3  258.47   11.90
  -1   7  -3  264.27   13.70
  -1   7  -3  261.87   14.00
   1  -7   3  265.97   14.00
   1  -7   3  250.27   12.00
   1  -7   3  280.37   13.50
  -2   7  -3   61.19    4.40
  -2   7  -3   58.89    6.30
  -2   7  -3   48.70    6.90
  -2   7  -3   52.19    4.20
   2  -7   3   54.29    4.40
   2  -7   3   47.20    6.10
   2  -7   3   65.59    6.70
  -3   7  -3   -1.00    1.60
  -3   7  -3    0.10    1.50
  -3   7  -3   -3.20    2.80
   3  -7   3    4.50    3.70
   3  -7   3    1.60    1.70
   3  -7   3    0.50    1.70
   3  -7   3    1.10    2.40
  -4   7  -3   12.50    3.90
  -4   7  -3    5.80    4.10
  -4   7  -3    2.70    2.60
   4  -7   3    6.20    2.90
   4  -7   3   11.70    4.20
   4  -7   3    3.70    2.80
  -5   7  -3   23.20    4.80
   5  -7   3   28.00    7.30
   5  -7   3   30.40    5.90
   5  -7   3   31.10    6.50
  -6   7  -3   10.50    4.90
  -6   7  -3    0.40    2.50
   6  -7   3    6.50    4.00
   6  -7   3   -0.20    2.70
   6  -7   3    0.60    4.30
  -7   7  -3    1.90    4.20
  -7   7  -3    5.10    3.10
   7  -7   3    0.50    2.70
   7  -7   3    4.90    4.10
   5   6  -3    1.60    3.20
   5   6  -3    0.50    3.50
   5   6  -3    0.70    6.70
  -5  -6   3    2.80    4.30
  -5  -6   3    3.10    2.40
   4   6  -3    9.50    4.70
   4   6  -3    4.20    2.70
   4   6  -3   -0.70    3.70
  -4  -6   3   10.40    4.60
   3   6  -3   49.99   14.30
   3   6  -3   38.40    5.80
   3   6  -3   39.00    7.20
  -3  -6   3   40.40    6.70
  -3  -6   3   42.00    9.30
   2   6  -3   59.09   12.90
   2   6  -3   60.29    5.50
   2   6  -3   67.49    4.80
   2   6  -3   65.59   13.20
  -2  -6   3   58.89    6.70
  -2  -6   3   68.49    8.50
   1   6  -3    0.10    1.20
   1   6  -3    0.80    1.10
   1   6  -3    1.00    1.00
  -1  -6   3    4.40    2.20
  -1  -6   3    1.00    1.30
  -1  -6   3    1.00    1.70
   0   6  -3   15.00    3.80
   0   6  -3   15.90    3.90
   0   6  -3   14.10    2.70
   0  -6   3   15.20    3.50
   0  -6   3   13.80    3.30
   0  -6   3   14.90    3.50
  -1   6  -3    0.40    1.00
  -1   6  -3    1.60    1.10
  -1   6  -3   -1.50    0.80
  -1   6  -3    1.80    1.70
   1  -6   3    0.80    1.10
   1  -6   3   -7.40    2.90
   1  -6   3   -1.60    1.00
   1  -6   3    0.00    1.10
  -2   6  -3    5.70    2.90
  -2   6  -3   14.00    2.40
  -2   6  -3   11.70    3.30
  -2   6  -3   11.10    2.10
   2  -6   3   13.50    3.00
   2  -6   3   10.50    3.10
   2  -6   3   17.90    6.00
   2  -6   3   13.30    3.60
  -3   6  -3   20.40    4.40
  -3   6  -3   20.40    5.50
  -3   6  -3   15.30    5.40
   3  -6   3   23.80    4.70
   3  -6   3   24.50    6.00
   3  -6   3   14.50    3.70
   3  -6   3   21.20    5.50
  -4   6  -3    9.40    3.60
  -4   6  -3   17.90    4.50
   4  -6   3    1.90    3.10
   4  -6   3   14.00    4.50
  -5   6  -3   -0.80    1.10
  -5   6  -3   -0.80    1.80
   5  -6   3   -3.20    1.70
   5  -6   3   -0.80    2.70
  -6   6  -3   -2.00    2.40
   6  -6   3    4.60    4.20
  -7   6  -3    0.50    4.00
  -7   6  -3   14.70    4.00
   7  -6   3    9.10    4.60
   6   5  -3   11.70    7.50
   6   5  -3    3.40    3.40
   6   5  -3   16.00    6.00
  -6  -5   3    0.10    4.30
  -6  -5   3    3.50    3.20
  -6  -5   3    8.70    4.70
   5   5  -3   40.50   12.90
   5   5  -3   53.39    9.20
   5   5  -3   45.30   10.10
  -5  -5   3   69.79    7.90
  -5  -5   3   58.79   11.60
  -5  -5   3   49.20    6.20
   4   5  -3   82.39   19.00
   4   5  -3   54.89    8.30
   4   5  -3   59.89   10.40
  -4  -5   3   37.60    8.60
  -4  -5   3   43.60    7.20
  -4  -5   3   60.49    5.80
   3   5  -3   16.20    7.20
   3   5  -3   11.60    4.20
   3   5  -3   16.40    3.10
   3   5  -3   17.90    3.80
   3   5  -3   15.30    4.30
  -3  -5   3   16.00    4.90
  -3  -5   3   19.80    3.90
  -3  -5   3   10.50    3.20
   2   5  -3  172.88    8.90
   2   5  -3  171.78    8.10
   2   5  -3  185.28   19.70
   2   5  -3  183.28   12.40
  -2  -5   3  182.38   13.20
  -2  -5   3  177.48   10.40
  -2  -5   3  178.38    9.90
   1   5  -3  402.46   16.90
   1   5  -3  362.46   25.10
   1   5  -3  393.06   14.30
  -1  -5   3  398.96   18.00
  -1  -5   3  390.16   17.90
  -1  -5   3  401.16   15.50
   0   5  -3   52.39    5.20
   0   5  -3   61.59    5.50
   0   5  -3   72.29    6.10
   0  -5   3   72.49    6.30
   0  -5   3   55.89   10.20
   0  -5   3   68.09    6.40
   0  -5   3   69.89    5.80
   0  -5   3   62.79    5.80
  -1   5  -3   14.60    3.20
  -1   5  -3   19.00    3.30
  -1   5  -3   15.40    3.40
  -1   5  -3   18.30    3.80
   1  -5   3   13.80    2.30
   1  -5   3   25.20    6.30
   1  -5   3   10.30    2.70
   1  -5   3    9.60    3.50
   1  -5   3   14.60    3.00
   1  -5   3   13.00    3.10
   1  -5   3   11.80    2.50
   1  -5   3   16.60    3.50
  -2   5  -3  217.98   11.40
  -2   5  -3  221.88    7.70
  -2   5  -3  234.98   14.40
  -2   5  -3  231.98   10.70
  -2   5  -3  237.08    8.60
  -2   5  -3  229.58   13.40
   2  -5   3  222.38   14.50
   2  -5   3  225.48   12.00
   2  -5   3  225.98   12.50
   2  -5   3  231.58   10.70
  -3   5  -3  265.87   14.00
  -3   5  -3  223.78   19.90
  -3   5  -3  269.87   15.70
   3  -5   3  254.57   16.20
   3  -5   3  261.87   13.80
   3  -5   3  279.97   14.20
  -4   5  -3   55.09    9.30
  -4   5  -3   58.29    6.00
  -4   5  -3   45.70    4.70
   4  -5   3   52.99    6.90
   4  -5   3   46.60    6.00
  -5   5  -3   63.69   10.60
  -5   5  -3   74.79    8.10
  -5   5  -3   83.39    7.10
   5  -5   3   68.79   11.10
   5  -5   3   63.09    7.80
  -6   5  -3   13.40    5.00
  -6   5  -3   14.60    3.50
  -6   5  -3    8.60    4.70
   6  -5   3   16.10    3.40
   6  -5   3   11.70    5.30
  -7   5  -3    3.50    2.70
  -7   5  -3    3.40    4.00
   7  -5   3    2.90    3.80
   7  -5   3    4.00    2.20
   7   4  -3   14.00   14.10
   7   4  -3   59.09   11.60
   7   4  -3   22.40    8.00
  -7  -4   3   44.30    8.90
  -7  -4   3   44.20   11.00
  -7  -4   3   30.90    6.50
   6   4  -3   49.50   12.90
   6   4  -3   55.19   16.00
   6   4  -3   71.09   12.00
  -6  -4   3   60.99    9.10
  -6  -4   3   57.29   12.60
  -6  -4   3   64.19    8.40
   5   4  -3   19.80    8.00
   5   4  -3   20.60   12.70
   5   4  -3   25.60    5.90
  -5  -4   3   30.70    5.60
  -5  -4   3   35.10    9.00
   4   4  -3   88.19   18.30
   4   4  -3   54.79   10.10
   4   4  -3   78.99    8.30
   4   4  -3   72.29    8.70
  -4  -4   3   72.39    5.20
  -4  -4   3   69.89    6.60
  -4  -4   3   55.69    9.60
   3   4  -3  345.37   11.10
   3   4  -3  337.07   17.80
   3   4  -3  322.57   14.70
   3   4  -3  339.97   16.70
  -3  -4   3  333.17   13.80
  -3  -4   3  321.67   12.30
   2   4  -3  608.24   16.30
   2   4  -3  558.84   49.30
   2   4  -3  606.24   19.90
   2   4  -3  586.94   16.90
   2   4  -3  579.24   21.80
  -2  -4   3  534.35   24.90
  -2  -4   3  582.04   23.20
  -2  -4   3  583.24   17.50
  -2  -4   3  597.94   18.30
   1   4  -3  196.58    6.80
   1   4  -3  200.28    6.70
   1   4  -3  234.98   18.30
   1   4  -3  188.18   10.50
   1   4  -3  191.48   10.80
   1   4  -3  174.78   10.00
   1   4  -3  185.78    8.90
  -1  -4   3  194.68   16.70
  -1  -4   3  204.08   10.80
  -1  -4   3  179.78    9.30
  -1  -4   3  197.68    9.70
  -1  -4   3  195.78   11.60
   0   4  -3  273.77   11.60
   0   4  -3  282.97   11.20
   0   4  -3  271.57   17.20
   0   4  -3  296.27   11.80
   0  -4   3  296.97   18.20
   0  -4   3  287.27   12.10
   0  -4   3  265.07   11.60
   0  -4   3  296.87   11.20
   0  -4   3  297.77   13.40
  -1   4  -3  211.78   10.70
  -1   4  -3  214.98    8.30
  -1   4  -3  224.78    8.40
  -1   4  -3  208.28   10.30
  -1   4  -3  216.28    9.20
   1  -4   3  210.98    9.50
   1  -4   3  216.98    8.00
   1  -4   3  205.68   12.60
   1  -4   3  217.88   13.40
   1  -4   3  212.98    8.40
   1  -4   3  216.88    9.70
  -2   4  -3  356.46   14.00
  -2   4  -3  354.26   16.20
  -2   4  -3  346.87   10.10
  -2   4  -3  380.06   14.50
   2  -4   3  350.16    9.60
   2  -4   3  367.86   14.90
   2  -4   3  377.46   14.50
   2  -4   3  341.97   14.60
   2  -4   3  354.36   16.60
   2  -4   3  365.86   14.30
   2  -4   3  370.86   11.20
  -3   4  -3  959.10   21.10
  -3   4  -3  959.90   25.60
  -3   4  -3  967.10   30.10
  -3   4  -3  969.00   29.10
   3  -4   3  954.20   28.20
   3  -4   3  961.70   33.40
   3  -4   3 1005.30   20.30
   3  -4   3  927.11   28.70
   3  -4   3  983.00   25.90
   3  -4   3  995.20   20.90
  -4   4  -3  125.19    9.00
  -4   4  -3  130.79   11.10
  -4   4  -3  143.49    9.10
   4  -4   3  134.49   11.50
   4  -4   3  144.49   10.20
   4  -4   3  149.79    7.70
   4  -4   3  146.09    7.60
  -5   4  -3   12.90    3.20
  -5   4  -3   10.70    3.80
  -5   4  -3    6.00    3.20
   5  -4   3   11.40    2.90
   5  -4   3    1.90    2.60
   5  -4   3   10.40    2.70
  -6   4  -3   41.10    8.40
  -6   4  -3   31.20    7.10
  -6   4  -3   51.09    8.60
   6  -4   3   44.20   10.10
   6  -4   3   55.99    9.00
   6  -4   3   45.60    5.60
   6  -4   3   35.50    6.00
  -7   4  -3   51.69    9.80
  -7   4  -3   55.09    8.00
  -7   4  -3   56.19   14.40
   7  -4   3   53.99   12.30
   7  -4   3   36.50    6.90
   7   3  -3   17.20    5.70
   7   3  -3    0.40   10.40
   7   3  -3   19.10    6.70
  -7  -3   3   13.50    4.10
  -7  -3   3   13.30    7.50
  -7  -3   3   22.40    5.90
   6   3  -3   36.60   12.90
   6   3  -3   35.80    8.10
   6   3  -3   44.30    8.70
  -6  -3   3   53.39    6.50
  -6  -3   3   54.39   10.60
  -6  -3   3   34.90    6.40
   5   3  -3  156.28   26.00
   5   3  -3  146.19   12.70
   5   3  -3  172.28   13.80
  -5  -3   3  179.58   10.40
  -5  -3   3  158.48   14.80
   4   3  -3  125.99   10.60
   4   3  -3  145.99   12.20
   4   3  -3  138.39   18.30
   4   3  -3  121.99   10.90
  -4  -3   3  142.49    8.40
   3   3  -3   74.29    7.50
   3   3  -3   66.19    5.80
   3   3  -3   81.39   14.70
   3   3  -3   72.99    7.20
   3   3  -3   68.39    6.60
   3   3  -3   79.29    4.30
  -3  -3   3   74.09    7.90
  -3  -3   3   74.99    4.70
  -3  -3   3   75.79    5.60
   2   3  -3  972.70   21.00
   2   3  -3 1010.10   27.90
   2   3  -3  979.60   28.00
   2   3  -3 1018.80   25.10
   2   3  -3  983.90   23.60
   2   3  -3  980.90   40.30
  -2  -3   3 1068.49   28.40
  -2  -3   3 1017.70   40.30
  -2  -3   3  973.40   21.70
  -2  -3   3  987.10   29.40
  -2  -3   3  980.70   23.00
   1   3  -3 1371.06   43.20
   1   3  -3 1489.55   28.80
   1   3  -3 1427.16   25.90
   1   3  -3 1480.75   31.90
   1   3  -3 1439.26   32.50
  -1  -3   3 1383.86   30.70
  -1  -3   3 1408.86   43.70
  -1  -3   3 1456.75   33.80
  -1  -3   3 1401.96   29.40
  -1  -3   3 1401.56   28.40
   0   3  -3  280.27   10.20
   0   3  -3  274.67   11.20
   0   3  -3  285.07   10.20
   0   3  -3  261.87   10.30
   0   3  -3  271.07   14.80
   0  -3   3  262.07   14.60
   0  -3   3  270.57   11.50
   0  -3   3  260.27    9.80
   0  -3   3  273.87   10.50
   0  -3   3  271.67    8.40
  -1   3  -3  863.11   18.80
  -1   3  -3  884.91   23.90
  -1   3  -3  872.11   20.40
  -1   3  -3  856.21   21.60
  -1   3  -3  877.51   21.20
   1  -3   3  847.92   21.40
   1  -3   3  875.41   22.70
   1  -3   3  884.51   21.40
   1  -3   3  889.01   18.80
   1  -3   3  880.61   23.10
   1  -3   3  882.01   21.00
  -2   3  -3  278.27   11.40
  -2   3  -3  268.27   11.40
  -2   3  -3  277.67   13.10
  -2   3  -3  276.97   12.50
  -2   3  -3  256.97    9.20
   2  -3   3  280.97   11.40
   2  -3   3  258.47   11.60
   2  -3   3  264.97    9.30
   2  -3   3  246.78   12.10
   2  -3   3  284.17   14.80
   2  -3   3  281.17   10.70
   2  -3   3  265.37   12.70
  -3   3  -3  161.58   11.20
  -3   3  -3  168.58    9.10
  -3   3  -3  172.08    8.30
  -3   3  -3  162.58   11.10
  -3   3  -3  189.68   10.60
   3  -3   3  172.78   10.50
   3  -3   3  168.98   13.30
   3  -3   3  173.08    8.40
   3  -3   3  175.38   11.90
   3  -3   3  172.58    8.90
  -4   3  -3  211.28   13.40
  -4   3  -3  226.18   13.60
  -4   3  -3  225.38   10.70
   4  -3   3  204.98   14.50
   4  -3   3  212.78   11.80
   4  -3   3  216.68   11.00
  -5   3  -3   95.19    8.90
  -5   3  -3   92.09    9.90
  -5   3  -3   91.99    9.50
  -5   3  -3   90.69    6.90
   5  -3   3   82.89    7.60
   5  -3   3   90.29    7.70
   5  -3   3   76.69   10.00
   5  -3   3   84.39    9.10
  -6   3  -3  102.99   12.10
  -6   3  -3  116.49    7.80
  -6   3  -3  116.69   11.90
  -6   3  -3  123.19   12.00
   6  -3   3  107.79    9.50
   6  -3   3   87.79    8.70
   6  -3   3  119.09   13.40
   6  -3   3  109.59   12.20
  -7   3  -3   27.30    7.70
  -7   3  -3   26.00    9.40
   7  -3   3   34.10    8.90
   7  -3   3   33.10    9.60
   7  -3   3   30.50    6.30
   7   2  -3   40.10   14.10
   7   2  -3   47.00   10.20
   7   2  -3   33.50    8.40
  -7  -2   3   30.60    8.60
  -7  -2   3   48.70    8.80
  -7  -2   3   62.69    7.40
   6   2  -3   54.39    9.70
   6   2  -3   64.39   11.40
   6   2  -3   55.19   15.10
  -6  -2   3   63.59    7.40
  -6  -2   3   56.19    7.20
  -6  -2   3   57.59   11.40
   5   2  -3   21.00    3.90
   5   2  -3   17.30    5.50
   5   2  -3    6.30    6.00
   5   2  -3   19.30    5.50
  -5  -2   3   23.10    3.90
  -5  -2   3   25.90    6.80
   4   2  -3   93.89    6.50
   4   2  -3   73.99   14.80
   4   2  -3   83.39    9.40
   4   2  -3   97.19    9.10
  -4  -2   3  103.99    6.30
  -4  -2   3  109.89    9.90
   3   2  -3  329.97   15.10
   3   2  -3  329.57   23.60
   3   2  -3  317.07    8.20
   3   2  -3  328.57   15.70
   3   2  -3  336.47   15.40
   3   2  -3  327.37   15.40
   3   2  -3  310.17   11.50
  -3  -2   3  329.97   22.20
  -3  -2   3  316.57   10.70
  -3  -2   3  323.57   15.30
  -3  -2   3  313.17   16.20
   2   2  -3 1145.79   29.10
   2   2  -3 1174.78   28.70
   2   2  -3 1124.79   21.60
   2   2  -3 1150.68   25.30
  -2  -2   3 1121.39   30.30
  -2  -2   3 1135.59   39.10
  -2  -2   3 1153.98   28.10
  -2  -2   3 1142.39   21.90
  -2  -2   3 1113.79   22.90
   1   2  -3 2729.73   49.30
   1   2  -3 2699.03   59.99
   1   2  -3 2666.83   43.50
   1   2  -3 2623.44   43.80
   1   2  -3 2658.13   46.90
  -1  -2   3 2654.43   43.40
  -1  -2   3 2833.42   47.20
  -1  -2   3 2634.04   49.60
  -1  -2   3 2653.53   45.00
   0   2  -3   66.39    4.40
   0   2  -3   64.39    5.80
   0   2  -3   64.99    5.30
   0   2  -3   61.39    4.20
   0  -2   3   65.19    4.90
   0  -2   3   65.19    5.40
   0  -2   3   61.19    4.30
   0  -2   3   58.89    5.50
   0  -2   3   51.79    4.20
  -1   2  -3  213.08    8.90
  -1   2  -3  204.88    8.00
  -1   2  -3  190.98    8.90
  -1   2  -3  203.38    9.70
  -1   2  -3  189.28    9.30
   1  -2   3  195.98    9.30
   1  -2   3  215.18   10.30
   1  -2   3  193.08    7.90
   1  -2   3  196.08    9.30
   1  -2   3  208.18    9.20
  -2   2  -3  504.05   17.30
  -2   2  -3  508.55   14.90
  -2   2  -3  520.95   18.20
  -2   2  -3  526.25   17.90
  -2   2  -3  540.35   15.70
   2  -2   3  530.95   18.90
   2  -2   3  511.65   15.20
   2  -2   3  494.65   15.60
   2  -2   3  527.05   17.70
   2  -2   3  518.35   16.70
  -3   2  -3  312.47   12.90
  -3   2  -3  350.96   15.30
  -3   2  -3  332.37   15.50
  -3   2  -3  335.87   12.60
  -3   2  -3  332.37   15.80
   3  -2   3  359.96   14.80
   3  -2   3  343.47   14.50
   3  -2   3  352.46   13.80
   3  -2   3  353.76   17.40
  -4   2  -3  373.26   19.20
  -4   2  -3  383.06   13.90
  -4   2  -3  370.76   16.30
  -4   2  -3  375.96   17.90
  -4   2  -3  375.26   17.60
   4  -2   3  385.66   16.80
   4  -2   3  360.26   20.10
   4  -2   3  359.66   17.60
   4  -2   3  346.87   16.00
   4  -2   3  360.76   15.90
  -5   2  -3   61.59    7.70
  -5   2  -3   56.69    5.50
  -5   2  -3   61.99    7.50
  -5   2  -3   53.19    9.80
  -5   2  -3   65.29    8.90
   5  -2   3   73.99   12.40
   5  -2   3   68.39    7.30
   5  -2   3   60.49    8.50
   5  -2   3   60.49    7.20
  -6   2  -3    4.20    3.80
  -6   2  -3   13.20    7.00
  -6   2  -3   -0.50    1.90
  -6   2  -3    7.00    3.50
   6  -2   3    2.10    3.20
   6  -2   3    8.60    4.30
   6  -2   3    2.20    2.70
   6  -2   3    1.10    4.00
  -7   2  -3   13.80    7.90
  -7   2  -3   19.60    5.90
   7  -2   3    8.00    6.80
   7  -2   3   15.00    6.90
   7  -2   3   11.40    4.80
   8   1  -3   16.30    6.60
   8   1  -3    9.40    4.90
   8   1  -3    0.30    8.50
  -8  -1   3    3.00    6.00
  -8  -1   3    6.70    3.90
   7   1  -3   -2.60    2.20
   7   1  -3   -0.90    3.00
   7   1  -3   -5.10    5.40
  -7  -1   3    3.90    2.80
  -7  -1   3    0.70    2.10
  -7  -1   3    6.90    4.10
   6   1  -3    9.60    3.60
   6   1  -3   12.20    5.00
   6   1  -3    5.90    7.10
  -6  -1   3   20.20    6.30
  -6  -1   3   17.90    3.70
  -6  -1   3   12.30    3.90
   5   1  -3   21.60    5.30
   5   1  -3   21.20    8.10
   5   1  -3   18.90    5.30
   5   1  -3   16.60    2.90
   5   1  -3   17.60    4.90
  -5  -1   3   20.30    4.40
  -5  -1   3   18.20    3.20
  -5  -1   3   17.20    5.30
   4   1  -3   35.10    6.40
   4   1  -3   42.60   10.20
   4   1  -3   50.49    4.00
   4   1  -3   31.60    6.40
   4   1  -3   58.49    9.40
   4   1  -3   48.10    6.10
  -4  -1   3   45.10    7.30
  -4  -1   3   45.10    3.60
   3   1  -3  392.16   16.20
   3   1  -3  393.16   16.80
   3   1  -3  360.86   15.20
   3   1  -3  369.06   11.10
   3   1  -3  374.06   23.80
  -3  -1   3  390.76   10.10
  -3  -1   3  372.16   15.30
  -3  -1   3  365.46   17.10
  -3  -1   3  377.26   22.60
  -3  -1   3  372.76   16.80
   2   1  -3    3.50    1.40
   2   1  -3    3.40    1.00
   2   1  -3    3.60    2.50
   2   1  -3    1.60    1.10
   2   1  -3    2.60    1.50
  -2  -1   3    2.80    1.40
  -2  -1   3    4.30    1.50
  -2  -1   3    3.20    1.60
  -2  -1   3    3.70    2.60
  -2  -1   3    3.50    1.00
   1   1  -3    2.40    1.20
   1   1  -3    2.70    1.30
   1   1  -3    2.40    0.90
   1   1  -3    1.10    1.30
   1   1  -3    2.70    1.60
  -1  -1   3    2.30    0.90
  -1  -1   3    3.20    1.40
  -1  -1   3    2.80    1.50
  -1  -1   3    3.40    1.30
  -1  -1   3    1.80    1.60
   0   1  -3   15.00    2.90
   0   1  -3    7.70    2.30
   0   1  -3   12.70    2.40
   0   1  -3   15.80    2.80
   0  -1   3    7.70    1.80
   0  -1   3   11.00    2.30
   0  -1   3   13.80    2.40
   0  -1   3   11.80    2.40
   0  -1   3   16.70    2.80
   0  -1   3   14.10    3.00
  -1   1  -3  143.89    7.10
  -1   1  -3  125.29    8.30
  -1   1  -3  132.19    7.90
  -1   1  -3  132.19    7.00
  -1   1  -3  129.19    7.60
   1  -1   3  143.39    8.40
   1  -1   3  135.59    8.10
   1  -1   3  135.59    7.10
   1  -1   3  132.39    7.60
   1  -1   3  151.98    6.80
  -2   1  -3  806.72   21.40
  -2   1  -3  826.32   20.50
  -2   1  -3  800.52   24.20
  -2   1  -3  784.62   23.40
  -2   1  -3  770.42   24.70
   2  -1   3  803.82   21.60
   2  -1   3  794.92   24.90
   2  -1   3  799.92   19.60
   2  -1   3  829.22   22.50
   2  -1   3  846.12   24.00
  -3   1  -3  289.67   11.50
  -3   1  -3  298.27   16.50
  -3   1  -3  283.87   14.20
  -3   1  -3  286.37   14.60
  -3   1  -3  304.97   13.70
   3  -1   3  306.87   14.90
   3  -1   3  295.47   21.10
   3  -1   3  296.87   14.80
   3  -1   3  325.27   14.60
   3  -1   3  300.07   13.00
   3  -1   3  288.87   14.10
  -4   1  -3    1.90    2.50
  -4   1  -3    0.40    1.50
  -4   1  -3    5.00    1.60
  -4   1  -3    5.80    2.70
  -4   1  -3    3.60    3.10
   4  -1   3    1.90    1.90
   4  -1   3    5.60    2.10
   4  -1   3    6.20    3.20
   4  -1   3    5.20    2.60
  -5   1  -3    9.40    2.80
  -5   1  -3   20.50    6.10
  -5   1  -3    5.20    3.50
  -5   1  -3   11.60    4.80
  -5   1  -3   12.10    4.10
   5  -1   3   18.40    6.20
   5  -1   3   14.10    4.40
   5  -1   3    0.80    2.80
   5  -1   3   20.20    5.90
  -6   1  -3   16.00    4.80
  -6   1  -3   14.00    6.20
  -6   1  -3    8.60    2.60
  -6   1  -3   10.00    4.30
   6  -1   3   -0.90    5.50
   6  -1   3   22.50    7.00
   6  -1   3    8.60    3.30
  -7   1  -3   11.00    7.10
  -7   1  -3    8.70    5.00
  -7   1  -3    1.00    3.10
   7  -1   3    0.60    4.20
   7  -1   3    3.70    3.60
   8   0  -3    0.10    2.50
   8   0  -3    3.90    9.10
   8   0  -3   -2.60    2.80
  -8   0   3   -1.70    2.60
  -8   0   3    1.00    5.70
   7   0  -3    4.30    8.80
   7   0  -3    3.00    3.30
  -7   0   3    2.00    3.10
  -7   0   3    4.70    2.60
   6   0  -3   -3.30    2.10
   6   0  -3    6.40    3.50
   6   0  -3    4.40    6.00
   6   0  -3    1.90    1.80
  -6   0   3    0.40    2.20
  -6   0   3    3.20    2.20
   5   0  -3   11.30    5.50
   5   0  -3    5.40    2.90
   5   0  -3   15.70    4.30
   5   0  -3    5.00    2.90
  -5   0   3   10.40    3.30
  -5   0   3    9.40    2.90
   4   0  -3  380.06   16.40
   4   0  -3  339.97   24.40
   4   0  -3  368.46   19.00
  -4   0   3  377.06   16.30
  -4   0   3  381.26   20.80
  -4   0   3  363.46   14.30
   3   0  -3  281.87   12.20
   3   0  -3  285.37   19.50
   3   0  -3  285.47   13.90
   3   0  -3  273.47   12.80
  -3   0   3  270.77   12.00
  -3   0   3  266.07   14.40
  -3   0   3  248.98   17.50
   2   0  -3  251.67   10.70
   2   0  -3  245.18   11.20
   2   0  -3  236.08    9.90
  -2   0   3  261.97   10.40
  -2   0   3  246.88   15.00
  -2   0   3  242.48   10.90
  -2   0   3  248.08   11.60
   1   0  -3    0.10    0.40
   1   0  -3    0.90    0.70
   1   0  -3    0.40    0.80
   1   0  -3   -0.60    0.30
   1   0  -3   -0.30    0.70
  -1   0   3    0.70    0.60
  -1   0   3   -0.60    0.40
  -1   0   3    0.70    0.50
  -1   0   3    1.50    1.40
  -1   0   3   -0.30    0.40
   0   0  -3  116.79    6.60
   0   0  -3  138.39    6.80
   0   0  -3  116.59    6.80
   0   0  -3  117.69    5.00
   0   0  -3  139.09    8.00
   0   0  -3  127.09    8.00
   0   0   3  113.29    4.80
   0   0   3  123.69    6.50
   0   0   3  110.99    6.70
   0   0   3  134.09    6.90
   0   0   3  118.19    7.70
  -1   0  -3   23.20    2.60
  -1   0  -3   29.20    3.80
  -1   0  -3   26.80    4.30
  -1   0  -3   32.90    5.60
  -1   0  -3   30.80    3.50
   1   0   3   30.60    4.00
   1   0   3   29.10    3.50
   1   0   3   37.90    4.00
   1   0   3   29.60    2.60
   1   0   3   31.50    5.10
  -2   0  -3  257.07   13.30
  -2   0  -3  244.18   14.20
  -2   0  -3  258.17   10.40
  -2   0  -3  229.18   11.90
  -2   0  -3  246.78   13.80
  -2   0  -3  234.88   11.60
   2   0   3  241.48    9.30
   2   0   3  220.38   11.50
   2   0   3  277.47   14.20
   2   0   3  235.68   13.00
  -3   0  -3   24.30    5.80
  -3   0  -3   24.50    6.10
  -3   0  -3   24.10    4.40
  -3   0  -3   29.40    5.70
   3   0   3   24.00    4.30
   3   0   3   23.50    4.80
   3   0   3   29.10    6.50
   3   0   3   14.00    3.70
  -4   0  -3    7.50    2.90
  -4   0  -3    2.50    3.60
  -4   0  -3    5.20    2.20
  -4   0  -3    1.60    2.10
   4   0   3    3.20    2.30
   4   0   3    5.70    2.70
   4   0   3    1.50    2.80
  -5   0  -3    3.70    2.00
  -5   0  -3    6.20    3.70
  -5   0  -3    4.00    2.60
  -5   0  -3    6.90    4.40
   5   0   3    6.60    4.10
   5   0   3    4.40    2.70
  -6   0  -3   -4.10    2.30
  -6   0  -3    3.30    3.70
  -6   0  -3    4.10    4.80
   6   0   3   -1.80    2.30
   6   0   3   -5.50    2.20
  -7   0  -3    1.00    4.60
  -7   0  -3   17.50    7.60
   7   0   3   -1.60    4.80
   7   0   3    3.10    3.00
   8  -1  -3    1.50    3.00
   8  -1  -3   12.10    5.30
   8  -1  -3    8.20    7.70
  -8   1   3   -5.80    4.70
  -8   1   3    0.20    2.80
   7  -1  -3    3.40    2.70
   7  -1  -3   11.40    7.20
   7  -1  -3   12.40    4.60
  -7   1   3    2.40    3.50
  -7   1   3    5.20    3.00
   6  -1  -3  141.59   10.80
   6  -1  -3  144.99   18.90
   6  -1  -3  123.49   10.60
   6  -1  -3  145.49   13.90
  -6   1   3  136.89   10.40
   5  -1  -3  168.18   11.00
   5  -1  -3  187.78   11.50
   5  -1  -3  166.18   13.70
   5  -1  -3  173.48   18.30
  -5   1   3  164.38   11.10
  -5   1   3  150.58   14.70
  -5   1   3  177.78   10.50
   4  -1  -3  156.78   12.20
   4  -1  -3  139.19    9.10
   4  -1  -3  159.58   16.00
   4  -1  -3  140.59    9.00
  -4   1   3  148.29   12.60
  -4   1   3  151.58    8.30
  -4   1   3  150.68   16.30
  -4   1   3  144.79   14.40
  -4   1   3  146.29    9.20
   3  -1  -3  430.86   15.50
   3  -1  -3  446.96   18.20
   3  -1  -3  427.16   23.20
   3  -1  -3  440.46   14.70
  -3   1   3  441.06   22.90
  -3   1   3  383.26   14.10
  -3   1   3  453.25   19.50
  -3   1   3  422.46   16.30
  -3   1   3  392.06   12.20
   2  -1  -3  335.67   13.40
   2  -1  -3  328.37   17.90
   2  -1  -3  373.26   13.80
   2  -1  -3  343.07    8.90
   2  -1  -3  350.86   13.80
   2  -1  -3  340.77   11.60
  -2   1   3  371.76   18.50
  -2   1   3  335.67   13.50
  -2   1   3  341.77    7.90
  -2   1   3  363.26   14.60
  -2   1   3  343.57   11.80
   1  -1  -3   46.20    5.90
   1  -1  -3   51.79    4.10
   1  -1  -3   56.89    5.30
   1  -1  -3   52.59    4.70
   1  -1  -3   49.00    3.70
  -1   1   3   49.99    4.60
  -1   1   3   49.20    4.80
  -1   1   3   45.00    5.70
  -1   1   3   51.79    3.40
  -1   1   3   45.70    4.70
   0  -1  -3 2074.79   40.50
   0  -1  -3 1949.90   38.40
   0  -1  -3 2155.18   31.60
   0  -1  -3 2010.50   38.60
   0   1   3 2073.49   40.50
   0   1   3 2261.37   44.10
   0   1   3 2052.89   30.00
   0   1   3 2171.98   39.90
   0   1   3 2133.19   37.50
  -1  -1  -3  541.85   18.00
  -1  -1  -3  533.45   17.50
  -1  -1  -3  568.74   21.40
  -1  -1  -3  561.74   13.60
  -1  -1  -3  527.75   18.20
   1   1   3  548.05   19.20
   1   1   3  538.05   12.80
   1   1   3  551.54   16.50
   1   1   3  545.45   19.90
   1   1   3  561.24   18.30
  -2  -1  -3  245.78   12.90
  -2  -1  -3  234.08   13.10
  -2  -1  -3  256.87   16.80
  -2  -1  -3  220.68   12.30
  -2  -1  -3  278.87   16.20
  -2  -1  -3  242.78   10.10
   2   1   3  220.78   21.90
   2   1   3  245.28   14.00
   2   1   3  246.38   13.20
   2   1   3  243.78   11.20
  -3  -1  -3   40.30    4.80
  -3  -1  -3   37.40    8.20
  -3  -1  -3   40.30    6.60
  -3  -1  -3   53.19   10.00
   3   1   3   41.70    7.90
   3   1   3   51.49    9.00
   3   1   3   47.90    6.20
  -4  -1  -3    2.60    3.20
  -4  -1  -3   18.70    4.40
  -4  -1  -3   15.20    4.00
   4   1   3    7.70    3.30
   4   1   3    7.70    4.10
  -5  -1  -3   81.09   14.80
  -5  -1  -3   68.99    8.90
  -5  -1  -3   74.29    8.30
   5   1   3   63.39   11.10
   5   1   3   50.39    9.00
  -6  -1  -3   13.60    4.40
  -6  -1  -3   14.50    6.50
  -6  -1  -3   19.50    6.40
   6   1   3   11.00    6.10
   6   1   3    9.60    4.70
   8  -2  -3   42.10    7.40
   8  -2  -3   77.79   14.00
   8  -2  -3   50.09   15.00
  -8   2   3   57.09   10.10
  -8   2   3   44.00    9.10
   7  -2  -3   56.99    6.70
   7  -2  -3   62.39   11.30
   7  -2  -3   49.50   14.10
  -7   2   3   61.69    8.00
  -7   2   3   49.50    9.10
   6  -2  -3   57.19    6.70
   6  -2  -3   68.29   15.10
   6  -2  -3   47.40    9.60
   6  -2  -3   59.89    6.90
  -6   2   3   56.19    7.20
  -6   2   3   53.49    6.60
  -6   2   3   68.29   13.60
   5  -2  -3  240.98   21.40
   5  -2  -3  238.78   16.60
   5  -2  -3  238.08   12.20
   5  -2  -3  242.38   12.40
  -5   2   3  235.28   12.10
  -5   2   3  246.98   12.80
  -5   2   3  242.68   19.10
   4  -2  -3  119.79    5.40
   4  -2  -3  117.09    7.70
   4  -2  -3  110.49    8.40
   4  -2  -3  122.19   13.60
  -4   2   3  111.39   11.10
  -4   2   3  128.79    8.10
  -4   2   3  126.79    7.50
  -4   2   3  129.49   13.40
  -4   2   3  121.79    8.80
   3  -2  -3  178.48    8.50
   3  -2  -3  186.28    9.50
   3  -2  -3  193.58   12.00
   3  -2  -3  178.28   14.80
   3  -2  -3  188.88    7.10
  -3   2   3  188.08   12.60
  -3   2   3  171.08    8.40
  -3   2   3  185.08    7.60
  -3   2   3  176.88   10.00
   2  -2  -3  625.84   19.60
   2  -2  -3  589.34   14.40
   2  -2  -3  629.04   19.20
   2  -2  -3  583.54   20.40
   2  -2  -3  604.74   26.10
   2  -2  -3  637.54   16.60
  -2   2   3  648.84   19.70
  -2   2   3  621.34   12.60
  -2   2   3  609.84   13.00
  -2   2   3  624.74   25.70
  -2   2   3  645.14   16.90
  -2   2   3  642.64   21.40
   1  -2  -3  310.67   11.50
   1  -2  -3  351.36   11.40
   1  -2  -3  336.67   18.00
   1  -2  -3  289.87   13.50
   1  -2  -3  324.57   12.90
  -1   2   3  333.27   14.40
  -1   2   3  366.76   12.60
  -1   2   3  331.47   10.30
  -1   2   3  332.67   13.00
  -1   2   3  334.17   14.00
   0  -2  -3 1513.55   32.90
   0  -2  -3 1523.55   38.10
   0  -2  -3 1577.44   34.20
   0  -2  -3 1488.85   32.10
   0   2   3 1624.64   34.60
   0   2   3 1534.45   36.90
   0   2   3 1531.75   30.60
   0   2   3 1530.25   33.40
  -1  -2  -3  819.52   24.20
  -1  -2  -3  789.32   28.40
  -1  -2  -3  820.62   32.70
  -1  -2  -3  793.72   25.00
  -1  -2  -3  802.72   17.20
   1   2   3  821.02   25.30
   1   2   3  790.52   21.50
   1   2   3  821.52   26.80
   1   2   3  857.71   25.30
  -2  -2  -3   55.29   10.60
  -2  -2  -3   66.19   10.70
  -2  -2  -3   54.39    6.20
  -2  -2  -3   64.29    5.00
  -2  -2  -3   74.09   14.60
   2   2   3   74.09   13.00
   2   2   3   60.79    6.90
  -3  -2  -3  166.68   15.10
  -3  -2  -3  152.98    9.40
  -3  -2  -3  174.58   12.50
   3   2   3  169.58   12.70
   3   2   3  165.48   13.30
  -4  -2  -3  120.99   11.50
  -4  -2  -3  105.79   12.80
  -4  -2  -3  110.79    9.10
   4   2   3  121.19   11.70
   4   2   3  124.89   12.70
  -5  -2  -3   67.79   14.20
  -5  -2  -3   63.69   13.70
  -5  -2  -3   66.39   11.40
   5   2   3   57.29    9.90
   5   2   3   83.49   13.30
  -6  -2  -3   29.30    8.60
  -6  -2  -3   -1.80    5.40
  -6  -2  -3    5.10    3.60
   6   2   3   14.60    6.50
   6   2   3    9.70    5.30
   8  -3  -3   24.70    5.90
   8  -3  -3   28.50    9.00
   8  -3  -3    0.80    7.40
  -8   3   3   22.00    6.30
  -8   3   3   18.90    5.90
   7  -3  -3   66.49    7.30
   7  -3  -3   71.39    7.60
   7  -3  -3   79.49   17.70
   7  -3  -3   87.89   11.60
  -7   3   3   88.49    9.30
  -7   3   3   69.89   14.10
  -7   3   3   84.29    9.30
   6  -3  -3   33.40   10.70
   6  -3  -3   35.80    3.50
   6  -3  -3   32.70    7.30
   6  -3  -3   50.89    5.80
  -6   3   3   44.50    5.70
  -6   3   3   29.70    8.30
  -6   3   3   49.70    6.40
   5  -3  -3  105.99    5.90
   5  -3  -3   91.49   15.90
   5  -3  -3  115.39    7.60
   5  -3  -3  110.59    7.70
  -5   3   3  107.69    8.20
  -5   3   3   99.49    7.40
  -5   3   3  125.69   13.80
   4  -3  -3  704.43   19.80
   4  -3  -3  702.93   17.40
   4  -3  -3  705.33   19.00
   4  -3  -3  682.13   33.40
  -4   3   3  688.63   22.20
  -4   3   3  676.13   29.70
  -4   3   3  687.23   19.80
  -4   3   3  727.03   19.80
   3  -3  -3  646.44   19.30
   3  -3  -3  687.63   31.10
   3  -3  -3  714.93   17.40
   3  -3  -3  662.33   22.60
   3  -3  -3  718.53   15.40
   3  -3  -3  666.23   17.50
   3  -3  -3  668.13   24.70
  -3   3   3  686.73   18.20
  -3   3   3  677.13   16.80
  -3   3   3  665.43   26.10
  -3   3   3  686.43   14.10
  -3   3   3  688.43   30.20
  -3   3   3  652.03   24.20
   2  -3  -3  429.66   13.50
   2  -3  -3  437.66   12.70
   2  -3  -3  442.06    9.50
   2  -3  -3  450.65   16.70
   2  -3  -3  456.35   16.70
   2  -3  -3  429.76   13.30
   2  -3  -3  455.15   18.70
   2  -3  -3  454.15   23.70
  -2   3   3  419.36   10.70
  -2   3   3  464.95   16.70
  -2   3   3  443.76   14.40
  -2   3   3  435.56   12.00
  -2   3   3  414.46   18.30
   1  -3  -3  255.17   11.70
   1  -3  -3  278.67   11.00
   1  -3  -3  247.48   10.80
   1  -3  -3  252.07   13.40
  -1   3   3  225.98   13.10
  -1   3   3  248.68   11.70
  -1   3   3  239.98   11.00
  -1   3   3  252.97   20.10
  -1   3   3  251.47    9.80
   0  -3  -3  242.38   14.60
   0  -3  -3  262.67   12.20
   0  -3  -3  279.97    6.90
   0  -3  -3  273.37   12.70
   0  -3  -3  263.47   12.30
   0   3   3  271.87   12.90
   0   3   3  269.57   11.10
   0   3   3  284.27   14.60
   0   3   3  246.18   12.50
  -1  -3  -3  565.34   39.00
  -1  -3  -3  681.03   33.40
  -1  -3  -3  674.23   15.50
  -1  -3  -3  612.74   22.30
  -1  -3  -3  659.13   22.10
  -1  -3  -3  643.84   24.40
   1   3   3  666.23   23.70
   1   3   3  671.13   22.70
  -2  -3  -3  255.47   14.50
  -2  -3  -3  273.97   19.00
  -2  -3  -3  266.07   10.90
   2   3   3  256.57   15.50
   2   3   3  250.17   16.10
  -3  -3  -3   90.59    7.20
  -3  -3  -3   78.69    8.80
  -3  -3  -3   88.19   14.70
   3   3   3   88.49    9.90
   3   3   3   85.69    9.80
  -4  -3  -3   56.49   10.00
  -4  -3  -3   64.39    7.00
  -4  -3  -3   48.10   11.30
   4   3   3   55.49    9.60
   4   3   3   71.79   12.00
  -5  -3  -3   27.30    9.30
  -5  -3  -3   46.30    9.20
  -5  -3  -3   54.39    8.80
   5   3   3   58.69   11.60
   5   3   3   43.50    9.70
   8  -4  -3    9.90    4.60
   8  -4  -3    4.20    7.10
   8  -4  -3    8.00    3.50
  -8   4   3   18.00    5.20
   7  -4  -3    8.90    4.40
   7  -4  -3   10.60    6.10
   7  -4  -3   15.10    3.80
   7  -4  -3   13.60    3.30
  -7   4   3   15.10    4.90
  -7   4   3   15.60    4.50
  -7   4   3   18.80    8.20
   6  -4  -3   75.59   15.30
   6  -4  -3   74.59    6.30
   6  -4  -3   68.09    6.00
   6  -4  -3   99.69   11.40
   6  -4  -3   72.39    6.10
  -6   4   3   54.79    6.00
  -6   4   3   85.59    8.20
  -6   4   3   70.99   14.60
   5  -4  -3  187.78    9.00
   5  -4  -3  174.48   18.40
   5  -4  -3  200.28    9.60
  -5   4   3  190.98   11.40
  -5   4   3  191.58    9.60
  -5   4   3  203.68   18.10
   4  -4  -3  371.46    9.90
   4  -4  -3  390.76   13.30
   4  -4  -3  366.46   13.00
   4  -4  -3  369.96   25.50
   4  -4  -3  360.36   12.00
   4  -4  -3  359.96   13.20
  -4   4   3  383.26   13.10
  -4   4   3  361.86   15.00
  -4   4   3  380.26   14.50
  -4   4   3  349.37   21.60
   3  -4  -3  162.08   10.90
   3  -4  -3  185.88    9.70
   3  -4  -3  159.78    8.40
   3  -4  -3  174.28    7.00
   3  -4  -3  191.48    7.90
   3  -4  -3  178.48    8.00
   3  -4  -3  163.58   15.90
  -3   4   3  180.38   10.10
  -3   4   3  171.98    7.40
  -3   4   3  197.08    9.00
  -3   4   3  172.88    8.40
   2  -4  -3    1.40    1.40
   2  -4  -3    1.70    1.20
   2  -4  -3    0.40    1.20
   2  -4  -3    5.20    1.70
   2  -4  -3    1.40    1.10
   2  -4  -3    2.50    0.90
   2  -4  -3    3.50    1.50
  -2   4   3    1.50    1.60
  -2   4   3    0.70    1.00
  -2   4   3    3.00    1.10
  -2   4   3    4.30    1.60
   1  -4  -3  128.89   10.40
   1  -4  -3  154.08    8.90
   1  -4  -3  144.69    9.00
   1  -4  -3  138.19    8.50
  -1   4   3  138.59    8.80
  -1   4   3  141.49    9.00
  -1   4   3  136.29   10.90
  -1   4   3  144.19   10.00
  -1   4   3  125.49    7.50
   0  -4  -3  511.75   19.30
   0  -4  -3  509.15   18.90
   0  -4  -3  503.55   23.20
   0  -4  -3  507.35   18.40
   0   4   3  496.75   19.70
   0   4   3  510.75   19.00
  -1  -4  -3  242.98    9.10
  -1  -4  -3  215.78   16.50
  -1  -4  -3  193.08   11.90
  -1  -4  -3  215.88   13.30
  -1  -4  -3  234.08   13.90
   1   4   3  217.68   14.00
   1   4   3  226.58   13.30
  -2  -4  -3   47.80    8.00
  -2  -4  -3   55.19   10.20
  -2  -4  -3   66.79    5.50
   2   4   3   68.99    7.90
   2   4   3   63.39    8.10
  -3  -4  -3   57.59    9.50
  -3  -4  -3   65.49   13.40
  -3  -4  -3   60.39    6.00
   3   4   3   58.99    9.60
   3   4   3   67.19    8.70
  -4  -4  -3  102.29    9.00
  -4  -4  -3   80.39   14.20
  -4  -4  -3   93.49   11.90
   4   4   3   96.29   12.20
   4   4   3  108.99   12.50
  -5  -4  -3    6.00    6.90
  -5  -4  -3   31.40    6.90
  -5  -4  -3   31.80    7.60
   5   4   3   28.40    7.60
   5   4   3   44.20   10.50
   8  -5  -3    6.60    9.00
   8  -5  -3    9.00    4.40
  -8   5   3    0.00    5.40
  -8   5   3   -1.40    2.70
   7  -5  -3   16.30    3.30
   7  -5  -3    9.80    5.30
   7  -5  -3   29.20   10.40
  -7   5   3   20.00    5.70
  -7   5   3   18.50    7.60
   6  -5  -3   10.30    4.20
   6  -5  -3    8.10    5.60
  -6   5   3   12.70    5.90
  -6   5   3   14.50    4.30
   5  -5  -3   10.30    5.80
  -5   5   3   14.60    3.60
  -5   5   3   14.40    5.60
  -5   5   3   12.60    2.80
   4  -5  -3   27.00    3.40
   4  -5  -3   24.80    3.00
   4  -5  -3   30.70    3.20
   4  -5  -3   28.50    8.70
   4  -5  -3   25.90    2.90
  -4   5   3   33.50    5.40
  -4   5   3   26.80    7.20
  -4   5   3   28.00    3.40
   3  -5  -3   27.50    2.80
   3  -5  -3   29.50    4.90
   3  -5  -3   30.90    3.40
   3  -5  -3   28.70    3.50
   3  -5  -3   31.80    5.80
   3  -5  -3   21.10    6.80
  -3   5   3   32.30    5.20
  -3   5   3   29.50    6.70
  -3   5   3   29.00    3.60
  -3   5   3   28.10    3.70
   2  -5  -3   40.10    7.60
   2  -5  -3   34.70    5.30
   2  -5  -3   37.00    6.20
   2  -5  -3   38.90    2.90
   2  -5  -3   33.30    8.30
  -2   5   3   37.00    4.10
  -2   5   3   35.40    4.40
  -2   5   3   49.10    6.90
   1  -5  -3   -1.00    1.60
   1  -5  -3    4.50    2.10
   1  -5  -3    4.60    2.20
   1  -5  -3    3.30    1.70
  -1   5   3    4.20    2.80
  -1   5   3    8.10    2.50
  -1   5   3    6.10    2.20
   0  -5  -3   30.20    5.50
   0  -5  -3   22.80    5.00
   0  -5  -3   18.70    5.10
   0   5   3   28.30    5.30
   0   5   3   23.20    5.50
  -1  -5  -3  118.69   13.00
  -1  -5  -3  103.09    9.70
   1   5   3  113.69   10.80
   1   5   3  119.39    9.90
  -2  -5  -3   47.00    8.40
  -2  -5  -3   47.00   10.40
   2   5   3   61.19   10.60
   2   5   3   54.49    7.20
  -3  -5  -3    2.70    2.70
  -3  -5  -3    5.50    2.10
  -3  -5  -3    5.40    4.70
   3   5   3    4.80    3.70
  -4  -5  -3    4.10    4.80
  -4  -5  -3    3.10    4.00
  -4  -5  -3    4.00    2.50
   4   5   3   -3.00    4.10
   4   5   3   -1.80    4.50
   8  -6  -3   -4.00    7.20
   8  -6  -3   -1.20    3.40
  -8   6   3   -1.30    5.10
  -8   6   3    1.50    2.70
   7  -6  -3   -8.70    4.60
   7  -6  -3    0.50    3.10
  -7   6   3    1.20    4.90
  -7   6   3    0.30    2.60
   6  -6  -3    6.30    5.30
   6  -6  -3    6.60    4.30
  -6   6   3   10.50    3.60
  -6   6   3   12.30    5.40
   5  -6  -3    4.40    1.70
   5  -6  -3    4.70    4.80
  -5   6   3    6.00    1.80
  -5   6   3    5.20    4.40
  -5   6   3    7.70    2.70
   4  -6  -3   21.90    3.50
   4  -6  -3   23.10    7.30
   4  -6  -3   28.40    3.60
  -4   6   3   29.80    3.50
  -4   6   3   26.20    5.00
  -4   6   3   30.20    4.90
  -4   6   3   25.60    7.70
   3  -6  -3    6.50    2.60
   3  -6  -3    6.10    1.70
   3  -6  -3    1.60    2.50
   3  -6  -3    5.40    3.20
   3  -6  -3    8.50    2.50
   3  -6  -3    6.60    2.00
  -3   6   3    5.70    2.30
  -3   6   3    5.20    2.90
   2  -6  -3  135.09    9.50
   2  -6  -3  134.19   10.90
   2  -6  -3  130.49    8.60
   2  -6  -3  143.29   16.90
   2  -6  -3  128.59    6.20
   2  -6  -3  112.29    8.80
  -2   6   3  130.49    9.10
  -2   6   3   98.99   10.70
   1  -6  -3   -0.40    1.90
   1  -6  -3    3.60    1.70
   1  -6  -3    5.50    1.50
   1  -6  -3    1.50    1.50
   1  -6  -3   -2.50    1.60
  -1   6   3    0.50    1.60
  -1   6   3    3.50    2.20
  -1   6   3    5.10    2.00
   0  -6  -3    9.80    3.10
   0  -6  -3    6.60    3.10
   0  -6  -3    7.40    4.30
   0  -6  -3    5.10    2.50
   0   6   3    8.90    3.80
   0   6   3    8.30    3.00
   0   6   3   10.30    3.40
  -1  -6  -3   -0.80    3.00
  -1  -6  -3    1.60    2.10
   1   6   3   -1.70    2.30
   1   6   3   -2.80    1.70
  -2  -6  -3    6.90    2.50
  -2  -6  -3    1.60    3.50
  -2  -6  -3    4.50    2.80
   2   6   3   12.30    4.50
   2   6   3    7.50    3.60
  -3  -6  -3   -1.30    2.30
  -3  -6  -3    3.80    5.30
  -3  -6  -3    3.10    3.10
   3   6   3    0.00    3.20
   3   6   3    5.90    3.60
  -4  -6  -3    0.10    4.80
  -4  -6  -3    3.90    2.60
   4   6   3    3.70    4.50
   4   6   3   -7.80    3.20
   8  -7  -3    1.80    4.50
   8  -7  -3   -0.50    8.40
  -8   7   3    5.40    6.30
  -8   7   3   13.00    5.20
   7  -7  -3    8.10    7.60
   7  -7  -3   19.90    6.80
  -7   7   3   29.20   11.10
  -7   7   3   20.20    6.70
   6  -7  -3   15.80    8.30
   6  -7  -3    9.00    2.50
   6  -7  -3    5.90    4.10
  -6   7   3   13.50    4.40
  -6   7   3    0.30    5.50
   5  -7  -3   33.10    4.20
   5  -7  -3   40.30   11.60
  -5   7   3   34.30    6.80
  -5   7   3   32.00    9.70
   4  -7  -3   58.59   13.40
   4  -7  -3   81.79    6.00
   4  -7  -3   87.79    7.20
  -4   7   3   79.79    7.60
  -4   7   3   81.89   11.70
  -4   7   3   86.59    6.20
   3  -7  -3    3.30    1.70
   3  -7  -3    2.10    3.40
   3  -7  -3    4.20    1.90
   3  -7  -3    4.10    1.30
  -3   7   3    5.70    2.10
  -3   7   3    0.70    2.40
   2  -7  -3   66.29    8.40
   2  -7  -3   46.80   12.00
   2  -7  -3   76.79    5.20
   2  -7  -3   66.39    6.90
   2  -7  -3   65.29    6.70
   2  -7  -3   64.79    7.10
  -2   7   3   60.69   10.60
  -2   7   3   73.39    7.40
   1  -7  -3  109.79    9.80
   1  -7  -3  126.29   10.40
   1  -7  -3  104.19    6.70
   1  -7  -3  117.39   12.00
   1  -7  -3  119.09    8.90
  -1   7   3  121.49    9.30
  -1   7   3  124.09   12.60
  -1   7   3  103.59    9.70
   0  -7  -3   18.20    4.60
   0  -7  -3   14.80    5.40
   0  -7  -3   18.60    4.40
   0  -7  -3   15.90    4.60
   0   7   3   25.10    5.60
   0   7   3   15.50    5.70
   0   7   3   14.90    4.90
  -1  -7  -3   30.20    7.00
  -1  -7  -3   31.40    9.30
   1   7   3   27.90    6.50
   1   7   3   25.00    7.40
  -2  -7  -3   26.80    6.90
  -2  -7  -3   39.00    5.20
  -2  -7  -3   45.00   11.50
   2   7   3   35.30    7.30
   2   7   3   24.20    9.00
  -3  -7  -3   29.70    5.80
  -3  -7  -3   27.30    8.90
  -3  -7  -3   15.00   16.10
   3   7   3   25.60    7.50
   3   7   3   11.70    6.40
   7  -8  -3   32.70   12.20
   7  -8  -3   21.60    6.20
  -7   8   3   13.40    8.00
  -7   8   3   39.10    8.40
   6  -8  -3  135.39   24.60
   6  -8  -3  117.29    7.60
   6  -8  -3   95.59   11.90
  -6   8   3  109.69   11.20
  -6   8   3   91.79   17.40
   5  -8  -3    4.10    6.80
   5  -8  -3    3.70    2.40
  -5   8   3    5.00    5.30
  -5   8   3    9.10    4.20
   4  -8  -3   19.30    3.90
  -4   8   3   12.80    7.30
  -4   8   3   14.30    3.50
   3  -8  -3  104.99    7.20
   3  -8  -3  124.19   10.10
   3  -8  -3  146.99   32.50
   3  -8  -3  120.99    8.20
   3  -8  -3  122.79   10.30
  -3   8   3  110.99   13.20
  -3   8   3  119.49    9.00
   2  -8  -3  124.19   11.90
   2  -8  -3  127.89    9.90
   2  -8  -3  102.69    8.70
   2  -8  -3  115.69    7.10
   2  -8  -3  118.09   10.50
  -2   8   3  112.39   12.90
  -2   8   3   98.39    9.70
   1  -8  -3  127.89    9.60
   1  -8  -3  154.58   14.70
   1  -8  -3  147.89    8.60
   1  -8  -3  143.59   11.90
   1  -8  -3  140.69   12.30
  -1   8   3  153.58   14.90
  -1   8   3  159.88   12.90
   0  -8  -3   52.19   10.00
   0  -8  -3   41.80    8.40
   0  -8  -3   41.80    5.90
   0   8   3   49.80    7.50
   0   8   3   48.50    9.10
   0   8   3   41.90    9.30
  -1  -8  -3   51.09   11.60
  -1  -8  -3   45.50    8.90
   1   8   3   50.69    8.50
   1   8   3   44.00    9.00
   1   8   3   48.60   10.40
  -2  -8  -3   17.80    9.20
  -2  -8  -3   40.10    5.00
  -2  -8  -3   13.70   11.40
   2   8   3   29.40    7.50
   2   8   3   41.30   10.30
   7  -9  -3    1.10    4.30
   7  -9  -3    3.50    6.50
  -7   9   3    3.40    8.10
  -7   9   3    3.90    5.10
   6  -9  -3   20.30   10.50
   6  -9  -3   21.90    4.30
  -6   9   3   20.40    6.50
  -6   9   3   31.50   10.30
   5  -9  -3   62.09   15.40
   5  -9  -3   46.10    8.40
   5  -9  -3   82.59    7.40
  -5   9   3   72.89   14.70
   4  -9  -3   32.40    6.40
   4  -9  -3   34.30   11.70
  -4   9   3   24.40    6.00
  -4   9   3   24.60    8.50
   3  -9  -3   87.59    7.80
   3  -9  -3   82.69    6.90
   3  -9  -3  119.79   21.60
   3  -9  -3   96.69    9.60
  -3   9   3   99.89   12.90
  -3   9   3  106.39    9.40
   2  -9  -3  103.09   10.40
   2  -9  -3   84.59   19.20
   2  -9  -3  102.69   11.60
  -2   9   3  119.99   13.30
  -2   9   3   96.59   10.20
   1  -9  -3  104.69   11.10
   1  -9  -3   87.49   13.70
  -1   9   3   84.89   10.50
  -1   9   3   95.19   12.60
   0  -9  -3   33.70    8.30
   0  -9  -3   42.80   11.10
   0   9   3   37.40    6.10
   0   9   3   33.30    9.20
   0   9   3   54.29   10.40
  -1  -9  -3   20.90    6.80
  -1  -9  -3   25.80    9.00
  -1  -9  -3   28.00    4.60
   1   9   3   14.20    6.70
   6 -10  -3   21.90    8.40
   6 -10  -3   12.00    5.20
   6 -10  -3   16.50    5.70
   5 -10  -3   34.60    8.70
   5 -10  -3   35.20    7.40
   5 -10  -3   17.30    9.30
  -5  10   3   25.50   10.50
   4 -10  -3   12.50    4.10
   4 -10  -3   21.50    9.90
  -4  10   3    2.00    5.70
   3 -10  -3    8.60    8.60
   3 -10  -3   24.30    6.00
   3 -10  -3   17.90    5.30
  -3  10   3   29.80    9.20
   2 -10  -3   31.80   13.30
   2 -10  -3   52.29    9.40
   2 -10  -3   48.80    9.80
  -2  10   3   64.19   12.30
   1 -10  -3   13.70    6.60
   1 -10  -3   10.70    5.00
  -1  10   3   12.00    6.30
  -1  10   3   14.00    5.50
   1  11  -4    5.80    6.60
  -1 -11   4    2.10    3.20
   0  11  -4   11.30    4.30
   0 -11   4    2.90    4.30
   0 -11   4   10.00    4.60
  -1  11  -4   63.79   10.00
   1 -11   4   56.59    8.70
   1 -11   4   53.69    8.70
  -2  11  -4   29.40    8.80
  -2  11  -4   27.20    6.10
   2 -11   4   27.20    6.20
  -3  11  -4   31.30    9.10
  -3  11  -4   20.70    6.10
   3 -11   4   25.50    6.40
  -4  11  -4   20.40    6.20
   4 -11   4   15.50    5.30
   4 -11   4   15.70    8.20
  -5  11  -4    1.20    3.50
   5 -11   4   -3.10    6.80
   5 -11   4    4.90    3.30
   2  10  -4   -0.40    4.40
  -2 -10   4   -5.80    3.40
  -2 -10   4    6.30    3.00
   1  10  -4   17.90    5.00
   1  10  -4   26.90    7.60
  -1 -10   4   14.70    5.10
  -1 -10   4   15.70    4.80
   0  10  -4   17.10    4.70
   0  10  -4   18.70    5.40
   0 -10   4   17.00    5.40
   0 -10   4   15.00    5.00
  -1  10  -4   13.20    4.60
  -1  10  -4   32.90    7.20
  -1  10  -4   23.50    5.90
   1 -10   4   21.90    5.30
   1 -10   4   27.10    6.00
   1 -10   4   31.80    7.20
  -2  10  -4   10.20    3.80
   2 -10   4   12.40    4.00
  -3  10  -4    0.80    1.90
  -3  10  -4   -0.40    4.10
   3 -10   4    2.20    2.60
  -4  10  -4   -0.30    1.70
   4 -10   4   -6.40    4.50
   4 -10   4    2.00    1.90
   4 -10   4    1.10    2.70
  -5  10  -4    6.70    3.20
   5 -10   4    5.10    2.40
   5 -10   4    3.50    3.50
   5 -10   4   -3.10    4.70
  -6  10  -4   24.00    5.60
  -6  10  -4    5.90    5.90
   6 -10   4   10.70    5.50
   6 -10   4   17.80    5.00
   3   9  -4    8.40    4.90
  -3  -9   4    7.40    4.30
  -3  -9   4   11.60    5.80
   2   9  -4    0.10    2.70
   2   9  -4    4.70    4.50
  -2  -9   4   -3.60    2.80
  -2  -9   4    8.00    3.80
   1   9  -4    4.20    4.00
   1   9  -4   11.40    3.90
  -1  -9   4    9.40    4.10
  -1  -9   4    2.90    4.00
  -1  -9   4    9.80    3.80
   0   9  -4    5.90    2.10
   0   9  -4    0.60    1.70
   0  -9   4    0.90    3.00
   0  -9   4    7.00    2.80
  -1   9  -4    4.10    3.40
   1  -9   4    4.50    3.00
   1  -9   4    9.30    3.50
   1  -9   4    3.00    2.70
  -2   9  -4   16.00    5.10
  -2   9  -4   14.10    3.70
   2  -9   4   17.20    4.80
  -3   9  -4   -2.30    1.80
  -3   9  -4   -2.10    4.10
   3  -9   4    4.00    2.10
   3  -9   4   -2.40    1.60
  -4   9  -4    5.90    2.70
   4  -9   4    6.40    3.10
   4  -9   4   -1.60    2.00
   4  -9   4    4.80    4.70
  -5   9  -4    3.20    3.00
  -5   9  -4    0.00    3.70
   5  -9   4   -0.20    2.50
   5  -9   4    2.40    4.60
   5  -9   4    6.90    3.00
  -6   9  -4    5.60    3.80
  -6   9  -4   -1.30    4.20
   6  -9   4    2.70    3.90
   6  -9   4    0.10    3.40
   4   8  -4    0.80    4.20
  -4  -8   4    3.50    4.20
  -4  -8   4   -3.00    2.30
   3   8  -4   33.80    5.60
   3   8  -4   35.20    8.70
  -3  -8   4   24.30    7.60
  -3  -8   4   28.60    6.50
   2   8  -4   71.49   11.10
   2   8  -4   71.99    7.20
  -2  -8   4   50.39    8.20
  -2  -8   4   44.00    8.70
   1   8  -4  154.28   10.80
   1   8  -4  145.69   12.30
  -1  -8   4  140.09   12.70
  -1  -8   4  157.48   13.90
  -1  -8   4  127.59   10.90
   0   8  -4   65.39    7.50
   0   8  -4   69.79    7.40
   0  -8   4   67.39    7.50
   0  -8   4   57.09    7.00
   0  -8   4   46.20    8.10
  -1   8  -4    2.40    2.00
  -1   8  -4    0.20    2.10
  -1   8  -4    1.60    1.90
   1  -8   4    4.30    2.70
   1  -8   4    8.40    3.00
   1  -8   4    3.60    2.10
  -2   8  -4   15.90    4.50
  -2   8  -4    8.30    4.40
  -2   8  -4    9.50    2.80
   2  -8   4   12.50    4.00
   2  -8   4    6.40    2.60
  -3   8  -4   40.70    6.50
  -3   8  -4   54.79   10.60
   3  -8   4   51.89    6.00
   3  -8   4   59.89   10.50
   3  -8   4   47.30    7.70
  -4   8  -4   62.49    7.50
   4  -8   4   65.89    7.80
   4  -8   4   62.19   10.30
   4  -8   4   67.59    7.90
   4  -8   4   48.50   10.70
  -5   8  -4   42.90    9.30
  -5   8  -4   36.20    9.40
   5  -8   4   64.39   10.30
   5  -8   4   42.00    7.00
   5  -8   4   42.40    8.30
  -6   8  -4   17.40    4.50
  -6   8  -4   26.90    7.40
   6  -8   4   17.40    4.90
   6  -8   4   17.40    6.60
  -7   8  -4    9.50    6.20
  -7   8  -4    4.10    3.90
   7  -8   4   13.70    4.00
   7  -8   4    2.70    5.10
   5   7  -4   61.39    9.70
   5   7  -4   84.69   28.80
   5   7  -4   49.90   10.10
  -5  -7   4   47.30   11.10
  -5  -7   4   59.69    9.70
   4   7  -4   14.60    4.20
   4   7  -4   28.70    8.10
   4   7  -4   23.80   11.10
  -4  -7   4   22.50    5.70
  -4  -7   4   27.50    8.20
   3   7  -4  137.69    9.00
   3   7  -4  165.88   14.30
   3   7  -4  134.99    8.50
   3   7  -4  126.09   24.60
   3   7  -4  135.09    8.40
   3   7  -4  136.69   11.20
  -3  -7   4  157.58   15.20
  -3  -7   4  121.19   12.70
   2   7  -4  166.08   21.20
   2   7  -4  165.28   13.20
   2   7  -4  161.48   10.10
  -2  -7   4  156.78   13.50
  -2  -7   4  140.39   10.90
   1   7  -4   54.69    7.00
   1   7  -4   52.19    6.00
  -1  -7   4   51.49    8.20
  -1  -7   4   52.99    6.50
  -1  -7   4   51.39    8.30
   0   7  -4  155.08   10.40
   0   7  -4  134.89    9.90
   0  -7   4  133.39   10.80
   0  -7   4  132.29   10.20
  -1   7  -4  162.98    9.70
  -1   7  -4  174.98   10.70
  -1   7  -4  171.28   11.40
   1  -7   4  153.28   10.30
   1  -7   4  169.08    9.00
   1  -7   4  171.88   11.60
  -2   7  -4  160.18   11.30
  -2   7  -4  171.08    8.60
  -2   7  -4  176.78   13.40
   2  -7   4  175.48   11.30
   2  -7   4  188.18    9.20
   2  -7   4  168.48   16.20
   2  -7   4  188.88   12.20
  -3   7  -4  204.48   15.50
  -3   7  -4  210.58   13.20
   3  -7   4  208.78   20.00
   3  -7   4  218.18   13.60
   3  -7   4  207.78   12.60
   3  -7   4  210.98   15.40
  -4   7  -4  144.79   11.00
  -4   7  -4  144.19   13.40
   4  -7   4  137.59   11.20
   4  -7   4  124.19   10.70
   4  -7   4  139.99   11.70
   4  -7   4  140.99   12.50
  -5   7  -4   72.39   12.50
  -5   7  -4   74.19    8.10
   5  -7   4   72.89    9.60
  -6   7  -4   16.40    4.70
  -6   7  -4    5.30    4.10
   6  -7   4   12.30    5.60
  -7   7  -4   -0.80    3.30
  -7   7  -4    0.20    3.90
   7  -7   4   -1.60    3.30
   6   6  -4   46.60    9.90
   6   6  -4   32.60   15.60
   6   6  -4   34.80   14.80
  -6  -6   4   33.10    7.20
  -6  -6   4   43.40   18.90
   5   6  -4   82.29   21.70
   5   6  -4  102.79   12.70
   5   6  -4  109.89   10.90
  -5  -6   4   78.29   13.80
  -5  -6   4  111.09   10.30
   4   6  -4   12.50    8.90
   4   6  -4   17.80    5.50
   4   6  -4   26.10    6.00
   4   6  -4   15.70    5.70
  -4  -6   4   21.90    5.00
  -4  -6   4   20.50    7.00
   3   6  -4    0.20    2.00
   3   6  -4    5.10    4.00
   3   6  -4   -0.10    2.60
   3   6  -4    6.10    2.90
  -3  -6   4    4.70    3.20
  -3  -6   4    4.20    2.30
   2   6  -4  425.56   20.60
   2   6  -4  455.55   32.90
   2   6  -4  429.76   16.20
  -2  -6   4  396.96   24.00
  -2  -6   4  435.96   18.20
   1   6  -4  434.16   19.40
   1   6  -4  422.06   29.50
   1   6  -4  470.55   17.50
  -1  -6   4  488.85   19.00
  -1  -6   4  476.05   20.30
  -1  -6   4  458.15   21.40
   0   6  -4  284.17   13.70
   0   6  -4  293.57   14.00
   0  -6   4  287.07   15.10
   0  -6   4  272.17   13.90
   0  -6   4  292.27   13.40
  -1   6  -4  356.76   15.80
  -1   6  -4  376.66   14.30
  -1   6  -4  348.07   15.10
   1  -6   4  360.96   13.00
   1  -6   4  384.66   23.70
   1  -6   4  356.26   12.90
   1  -6   4  347.97   15.10
   1  -6   4  363.16   16.40
  -2   6  -4  196.48   10.00
  -2   6  -4  190.78    8.40
  -2   6  -4  179.38   11.30
   2  -6   4  191.48    8.90
   2  -6   4  188.98    7.40
   2  -6   4  211.98   15.60
   2  -6   4  186.38   12.10
   2  -6   4  212.18   10.60
   2  -6   4  185.78   11.60
  -3   6  -4  142.69   12.30
  -3   6  -4  120.99    9.50
  -3   6  -4  136.09   10.00
   3  -6   4  140.49   10.40
   3  -6   4  152.98   12.00
   3  -6   4  150.98   10.80
  -4   6  -4   62.09    6.80
  -4   6  -4   42.70    7.90
   4  -6   4   47.90    8.50
  -5   6  -4   43.20    6.90
  -5   6  -4   40.60    9.00
  -5   6  -4   39.40    5.90
   5  -6   4   31.00    7.30
  -6   6  -4   85.89   13.80
  -6   6  -4   94.79   10.50
  -6   6  -4   84.69    8.20
   6  -6   4   61.99   11.50
  -7   6  -4   25.90    7.70
  -7   6  -4   30.10    5.90
   7  -6   4   24.60    7.20
   6   5  -4    6.80    9.70
   6   5  -4   28.20    8.20
   6   5  -4   16.90    6.00
  -6  -5   4   16.20    5.40
  -6  -5   4    6.90    5.00
   5   5  -4    3.70    3.40
   5   5  -4    2.50    2.80
   5   5  -4    5.70    6.00
  -5  -5   4   -1.30    1.70
  -5  -5   4    5.00    2.50
  -5  -5   4    1.50    3.10
   4   5  -4  156.08   20.10
   4   5  -4  133.09   13.10
   4   5  -4  148.39   11.20
   4   5  -4  131.29   12.10
  -4  -5   4  141.59   13.80
  -4  -5   4  141.29   10.10
  -4  -5   4  127.49    8.40
   3   5  -4  180.08    8.80
   3   5  -4  154.98    9.70
   3   5  -4  168.98   13.20
   3   5  -4  172.98   21.20
   3   5  -4  181.18   11.10
  -3  -5   4  175.88   13.90
  -3  -5   4  177.08   10.70
  -3  -5   4  171.68    9.70
   2   5  -4  248.08   14.90
   2   5  -4  231.28   22.30
   2   5  -4  236.88   10.90
   2   5  -4  245.28   10.10
   2   5  -4  245.38   10.10
  -2  -5   4  256.37   12.60
  -2  -5   4  227.58   14.10
  -2  -5   4  245.48   12.10
  -2  -5   4  238.78   15.70
   1   5  -4  527.75   20.40
   1   5  -4  496.95   17.20
   1   5  -4  526.85   30.50
  -1  -5   4  526.45   18.60
  -1  -5   4  540.85   22.00
  -1  -5   4  515.65   19.40
  -1  -5   4  535.65   18.80
   0   5  -4  106.49    7.90
   0   5  -4   99.59    7.50
   0   5  -4   98.09    7.30
   0   5  -4  106.49   11.80
   0  -5   4  104.79    8.50
   0  -5   4  113.39   12.50
   0  -5   4   94.69    7.50
   0  -5   4   90.89    8.00
   0  -5   4   93.29    6.90
  -1   5  -4   83.29    6.60
  -1   5  -4   82.59    5.30
  -1   5  -4   84.29    5.90
   1  -5   4   94.99    5.80
   1  -5   4   85.99    6.20
   1  -5   4   91.59    7.20
   1  -5   4   85.59    5.70
   1  -5   4  110.19    8.50
   1  -5   4   87.89    9.80
  -2   5  -4    2.30    1.60
  -2   5  -4   -1.10    1.50
  -2   5  -4    2.50    2.10
  -2   5  -4    4.60    1.50
   2  -5   4    4.20    1.80
   2  -5   4    5.60    2.70
   2  -5   4    5.20    1.50
   2  -5   4    3.40    1.70
   2  -5   4    6.30    2.50
  -3   5  -4   15.30    2.70
  -3   5  -4    7.70    3.30
  -3   5  -4    4.90    2.40
   3  -5   4   18.30    3.00
   3  -5   4   13.60    3.80
   3  -5   4   12.10    2.20
  -4   5  -4  298.97   18.30
  -4   5  -4  311.97   15.10
   4  -5   4  283.67   10.40
   4  -5   4  287.37   17.60
  -5   5  -4  139.59   11.10
  -5   5  -4  151.88   10.50
  -5   5  -4  155.18   14.10
   5  -5   4  157.68    8.50
   5  -5   4  151.28   14.20
   5  -5   4  153.68    8.30
  -6   5  -4   13.60    3.50
  -6   5  -4   16.10    5.90
  -6   5  -4    7.20    4.10
   6  -5   4    9.10    2.50
   6  -5   4    4.50    2.40
   6  -5   4   10.90    4.20
  -7   5  -4    5.10    4.50
  -7   5  -4    3.40    2.90
   7  -5   4    6.80    6.20
   7  -5   4   11.10    3.20
   7   4  -4   11.00    5.90
   7   4  -4  -12.80    8.90
   7   4  -4    8.60    4.50
  -7  -4   4    6.90    5.80
  -7  -4   4    2.00    3.00
  -7  -4   4    7.60    4.20
   6   4  -4   78.59   10.30
   6   4  -4   74.59   19.90
   6   4  -4   79.19   12.50
  -6  -4   4  104.39   13.60
  -6  -4   4   87.39    8.60
   5   4  -4   17.90   12.90
   5   4  -4   51.19    9.20
   5   4  -4   68.79   11.40
  -5  -4   4   51.69   10.30
  -5  -4   4   61.99    6.40
   4   4  -4    0.60    1.00
   4   4  -4    3.20    3.20
   4   4  -4    3.90    3.00
   4   4  -4   -2.80    1.50
   4   4  -4    1.10    1.70
  -4  -4   4    4.20    1.60
  -4  -4   4    0.40    1.40
  -4  -4   4    1.70    1.20
   3   4  -4   24.70    8.40
   3   4  -4   51.29    5.60
   3   4  -4   46.80    7.70
   3   4  -4   41.60    5.30
   3   4  -4   42.90    3.90
  -3  -4   4   49.50    6.50
  -3  -4   4   43.90    4.60
  -3  -4   4   52.49    9.70
   2   4  -4   12.10    2.70
   2   4  -4    9.10    2.80
   2   4  -4    1.60    4.50
   2   4  -4   17.10    3.00
  -2  -4   4   13.40    3.30
  -2  -4   4    4.60    2.90
  -2  -4   4   17.00    4.80
  -2  -4   4   19.30    3.50
   1   4  -4  124.69   13.10
   1   4  -4  134.19    9.50
   1   4  -4  152.08    9.40
   1   4  -4  141.69    8.30
   1   4  -4  133.99    6.40
  -1  -4   4  144.49   14.10
  -1  -4   4  126.59    8.20
  -1  -4   4  126.19    8.50
  -1  -4   4  134.19    9.90
   0   4  -4   52.09    5.50
   0   4  -4   54.59    7.50
   0   4  -4   56.89    4.00
   0   4  -4   63.49    5.60
   0   4  -4   51.09    4.90
   0  -4   4   45.00    4.50
   0  -4   4   61.19    7.90
   0  -4   4   47.40    5.40
   0  -4   4   53.39    5.20
   0  -4   4   46.70    5.70
   0  -4   4   52.49    5.50
  -1   4  -4   62.79    4.90
  -1   4  -4   60.99    5.70
  -1   4  -4   76.39    5.50
  -1   4  -4   70.49    6.00
   1  -4   4   73.29    6.00
   1  -4   4   64.99    5.90
   1  -4   4   65.99    4.90
   1  -4   4   66.99    5.50
   1  -4   4   56.29    6.00
   1  -4   4   72.49    7.30
   1  -4   4   61.69    5.90
  -2   4  -4  471.65   14.00
  -2   4  -4  483.95   20.00
  -2   4  -4  488.25   17.80
  -2   4  -4  477.95   17.00
  -2   4  -4  472.25   17.20
   2  -4   4  491.65   18.60
   2  -4   4  470.95   17.20
   2  -4   4  460.15   13.80
   2  -4   4  467.95   15.80
   2  -4   4  465.25   20.10
  -3   4  -4  137.29    7.60
  -3   4  -4  135.79    9.00
  -3   4  -4  147.39   11.20
  -3   4  -4  133.79    9.40
   3  -4   4  131.49    8.00
   3  -4   4  128.49    7.30
   3  -4   4  145.19   11.10
  -4   4  -4    0.60    1.60
  -4   4  -4   -1.20    1.10
  -4   4  -4    5.10    2.40
   4  -4   4   -1.90    1.40
   4  -4   4    5.80    2.80
   4  -4   4    4.80    2.10
  -5   4  -4   27.70    5.10
  -5   4  -4   23.70    5.80
   5  -4   4   25.70    5.00
   5  -4   4   34.10    4.50
   5  -4   4   26.50    6.50
  -6   4  -4    6.60    2.70
  -6   4  -4   -3.30    3.60
  -6   4  -4    8.10    4.00
   6  -4   4    3.10    5.20
   6  -4   4    9.10    3.30
   6  -4   4    0.80    2.70
  -7   4  -4   -2.10    2.40
  -7   4  -4    4.90    3.50
   7  -4   4    6.80    3.60
   7  -4   4   -1.90    2.40
   7   3  -4    3.30    3.30
   7   3  -4    4.20    3.90
  -7  -3   4   11.90    6.20
  -7  -3   4   12.00    3.80
  -7  -3   4    3.60    3.00
   6   3  -4   12.10    7.20
   6   3  -4   11.70    4.00
   6   3  -4    4.10    2.70
  -6  -3   4    6.40    3.40
  -6  -3   4    6.40    4.40
  -6  -3   4    0.80    2.10
   5   3  -4   -3.20    4.30
   5   3  -4    2.30    2.10
   5   3  -4    0.40    1.70
  -5  -3   4    1.60    1.50
   4   3  -4  127.79    5.30
   4   3  -4  144.09   11.80
   4   3  -4  136.29   13.50
   4   3  -4  131.59    9.10
   4   3  -4  131.39   10.80
   4   3  -4  136.99   18.20
  -4  -3   4  137.69    8.20
  -4  -3   4  153.88   12.30
   3   3  -4   19.10    4.70
   3   3  -4   21.40    3.10
   3   3  -4   10.70    5.40
   3   3  -4   21.80    4.30
  -3  -3   4   22.30    2.70
  -3  -3   4   21.90    2.90
  -3  -3   4   19.10    5.10
   2   3  -4   94.89   12.10
   2   3  -4   91.79    7.70
   2   3  -4   91.29    8.00
   2   3  -4  101.89    6.80
   2   3  -4   95.99    6.00
   2   3  -4   96.89    6.00
  -2  -3   4  109.59    6.30
  -2  -3   4   88.59   11.10
  -2  -3   4   99.29    9.00
  -2  -3   4  100.29    8.00
  -2  -3   4  111.69    6.80
   1   3  -4   97.59    7.10
   1   3  -4  101.79    6.40
   1   3  -4   98.69    5.90
   1   3  -4   96.29   10.50
   1   3  -4   99.99    7.80
  -1  -3   4   94.59    7.90
  -1  -3   4   91.49    6.00
  -1  -3   4   89.39    6.80
  -1  -3   4  100.89    6.90
  -1  -3   4  106.39   10.90
   0   3  -4  705.73   26.10
   0   3  -4  732.73   25.40
   0   3  -4  717.63   19.40
   0   3  -4  734.53   20.10
   0   3  -4  708.23   18.20
   0  -3   4  759.32   22.10
   0  -3   4  746.43   20.00
   0  -3   4  737.13   22.70
   0  -3   4  764.22   16.90
   0  -3   4  737.43   19.50
   0  -3   4  763.12   18.90
   0  -3   4  752.12   25.60
  -1   3  -4   -0.40    0.90
  -1   3  -4    0.80    0.90
  -1   3  -4    0.40    0.50
  -1   3  -4    0.70    0.70
  -1   3  -4    1.50    1.20
   1  -3   4    0.00    0.90
   1  -3   4    2.80    1.40
   1  -3   4    1.60    1.30
   1  -3   4   -0.40    0.90
   1  -3   4    0.50    0.80
   1  -3   4   -0.10    0.70
  -2   3  -4  187.28   11.30
  -2   3  -4  183.68    8.70
  -2   3  -4  191.28    9.90
  -2   3  -4  178.48   10.80
  -2   3  -4  185.98   10.80
   2  -3   4  182.28   10.10
   2  -3   4  187.68   11.50
   2  -3   4  166.88   10.90
   2  -3   4  183.38   10.20
   2  -3   4  178.38    8.80
   2  -3   4  187.48   12.90
  -3   3  -4   13.80    3.80
  -3   3  -4    7.00    2.70
  -3   3  -4    9.50    3.60
   3  -3   4   16.30    3.50
   3  -3   4    8.80    3.20
   3  -3   4   15.50    4.40
  -4   3  -4   -0.60    1.20
  -4   3  -4    0.40    1.40
  -4   3  -4    4.90    2.60
   4  -3   4    0.00    2.30
   4  -3   4    1.60    1.70
   4  -3   4    1.40    2.10
  -5   3  -4    7.20    2.90
  -5   3  -4   10.50    4.70
  -5   3  -4    9.00    4.10
   5  -3   4    1.30    2.00
   5  -3   4    6.40    3.80
   5  -3   4    3.40    2.60
  -6   3  -4   11.50    5.60
  -6   3  -4    9.00    3.10
  -6   3  -4    4.20    3.30
   6  -3   4    5.20    3.30
   6  -3   4    7.20    3.40
   6  -3   4   -4.00    2.70
  -7   3  -4   12.20    4.90
  -7   3  -4   -2.70    8.10
   7  -3   4    7.30    4.00
   7  -3   4   11.30    6.40
   7   2  -4   22.90    7.50
   7   2  -4   19.50    6.40
   7   2  -4   11.80   10.80
  -7  -2   4    7.90    3.90
  -7  -2   4   11.80    5.50
  -7  -2   4   19.20    4.80
   6   2  -4   28.30    7.00
   6   2  -4   42.70    9.00
   6   2  -4   29.30   11.40
   6   2  -4   31.00    5.00
  -6  -2   4   33.80    8.00
  -6  -2   4   27.30    6.10
  -6  -2   4   25.50    4.60
   5   2  -4   46.00    4.90
   5   2  -4   36.40   10.90
   5   2  -4   60.99    7.80
   5   2  -4   54.79    9.20
  -5  -2   4   46.70    4.50
  -5  -2   4   40.80    7.40
   4   2  -4  380.76   18.90
   4   2  -4  356.06   18.40
   4   2  -4  386.96   29.30
  -4  -2   4  360.86   12.10
  -4  -2   4  389.16   18.90
   3   2  -4  471.05   29.30
   3   2  -4  492.45   20.10
   3   2  -4  503.25   17.90
   3   2  -4  480.55   19.50
   3   2  -4  501.65   12.70
  -3  -2   4  522.15   14.30
  -3  -2   4  516.75   19.80
  -3  -2   4  494.25   30.40
  -3  -2   4  501.75   21.70
   2   2  -4  441.46   16.60
   2   2  -4  402.76   17.10
   2   2  -4  443.16   12.80
   2   2  -4  447.56   15.60
   2   2  -4  467.25   13.00
  -2  -2   4  469.25   13.80
  -2  -2   4  458.45   18.70
  -2  -2   4  433.06   16.50
  -2  -2   4  459.15   24.30
  -2  -2   4  457.65   14.10
   1   2  -4   11.00    2.20
   1   2  -4   11.90    2.70
   1   2  -4   11.90    3.10
   1   2  -4   12.10    2.80
   1   2  -4   12.40    4.00
  -1  -2   4    9.10    2.30
  -1  -2   4   15.00    3.00
  -1  -2   4   15.20    4.50
  -1  -2   4   15.40    1.70
  -1  -2   4   14.40    3.50
   0   2  -4  923.91   25.20
   0   2  -4  826.32   21.00
   0   2  -4  883.21   21.60
   0   2  -4  897.51   22.20
   0  -2   4  918.51   24.50
   0  -2   4  874.41   22.20
   0  -2   4  866.21   21.60
   0  -2   4  884.61   24.90
   0  -2   4  868.71   21.90
  -1   2  -4  389.16   13.70
  -1   2  -4  391.06   14.70
  -1   2  -4  374.06   14.50
  -1   2  -4  403.16   13.30
   1  -2   4  383.46   15.50
   1  -2   4  404.66   15.60
   1  -2   4  376.36   15.20
   1  -2   4  374.46   13.60
   1  -2   4  360.96   13.10
  -2   2  -4  347.97   16.30
  -2   2  -4  346.67   13.40
  -2   2  -4  338.47   14.70
  -2   2  -4  356.06   13.60
   2  -2   4  331.27   13.40
   2  -2   4  368.16   13.60
   2  -2   4  346.87   15.30
   2  -2   4  350.26   15.40
   2  -2   4  374.06   17.10
  -3   2  -4  249.38   15.00
  -3   2  -4  279.07   12.30
  -3   2  -4  262.57   14.90
  -3   2  -4  253.57   13.60
   3  -2   4  249.58   12.70
   3  -2   4  252.57   13.70
   3  -2   4  231.28   16.60
   3  -2   4  253.47   15.70
  -4   2  -4  106.29   10.90
  -4   2  -4  113.29   10.40
  -4   2  -4  124.39    8.30
  -4   2  -4  104.89    9.50
   4  -2   4  126.49    9.60
   4  -2   4  112.89   11.40
   4  -2   4  113.69    9.70
  -5   2  -4    6.30    3.90
  -5   2  -4    6.90    2.40
  -5   2  -4    2.30    2.90
  -5   2  -4    3.20    2.50
  -5   2  -4    4.30    3.40
   5  -2   4    7.30    4.00
   5  -2   4    4.20    2.30
  -6   2  -4    8.50    2.60
  -6   2  -4   -0.50    3.10
  -6   2  -4    6.50    5.40
   6  -2   4    3.20    4.30
   6  -2   4    7.00    3.40
  -7   2  -4   15.40    6.50
  -7   2  -4    8.00    7.20
   7  -2   4   11.40    4.40
   7  -2   4   11.60    6.80
   8   1  -4   32.20   11.70
   8   1  -4   44.90    9.10
   8   1  -4   35.50    9.30
  -8  -1   4   35.10    7.40
   7   1  -4   44.00    8.90
   7   1  -4   35.40   14.10
   7   1  -4   42.10    9.20
  -7  -1   4   33.00    6.90
  -7  -1   4   37.80    9.10
   6   1  -4   53.09    8.90
   6   1  -4   55.79   15.70
   6   1  -4   62.19   11.40
  -6  -1   4   63.59    5.20
  -6  -1   4   40.80    6.60
   5   1  -4  188.78   17.80
   5   1  -4  219.28   23.30
   5   1  -4  213.48   14.30
   5   1  -4  243.68   16.50
  -5  -1   4  222.48    8.50
  -5  -1   4  230.68   14.90
   4   1  -4   22.00    4.70
   4   1  -4   20.20    5.00
   4   1  -4   19.50    7.20
   4   1  -4   24.00    5.10
  -4  -1   4   30.30    7.00
  -4  -1   4   22.40    2.30
  -4  -1   4   17.60    4.30
   3   1  -4  502.65   18.20
   3   1  -4  523.25   28.90
   3   1  -4  510.55   18.80
   3   1  -4  518.55   20.00
   3   1  -4  517.45   12.50
  -3  -1   4  498.75   20.60
  -3  -1   4  506.65   19.60
  -3  -1   4  512.65   12.50
  -3  -1   4  493.35   18.50
  -3  -1   4  508.95   26.80
   2   1  -4  905.91   23.90
   2   1  -4  857.11   23.70
   2   1  -4  937.71   34.70
   2   1  -4  904.71   21.40
   2   1  -4  870.61   25.70
  -2  -1   4  895.01   24.00
  -2  -1   4  868.61   26.50
  -2  -1   4  914.61   33.10
  -2  -1   4  881.01   22.10
   1   1  -4  262.37   10.90
   1   1  -4  265.97   11.30
   1   1  -4  248.88   14.40
   1   1  -4  254.27   12.50
  -1  -1   4  269.47   14.50
  -1  -1   4  271.47   11.20
  -1  -1   4  257.77   15.30
  -1  -1   4  290.17   11.70
  -1  -1   4  279.27   11.00
  -1  -1   4  258.37   12.90
   0   1  -4  784.82   24.00
   0   1  -4  817.52   22.50
   0   1  -4  837.02   20.90
   0   1  -4  767.92   21.50
   0   1  -4  780.62   22.10
   0  -1   4  749.82   21.40
   0  -1   4  806.42   21.70
   0  -1   4  817.42   24.10
   0  -1   4  825.92   19.40
   0  -1   4  829.72   22.20
   0  -1   4  847.12   21.40
  -1   1  -4  893.61   22.90
  -1   1  -4  880.51   25.40
  -1   1  -4  900.61   25.20
  -1   1  -4  865.21   20.30
  -1   1  -4  938.41   27.70
  -1   1  -4  873.31   22.20
   1  -1   4  930.31   26.30
   1  -1   4  908.21   26.50
   1  -1   4  905.11   23.70
   1  -1   4  897.71   24.40
   1  -1   4  851.11   20.40
  -2   1  -4 1005.50   31.40
  -2   1  -4 1030.70   26.10
  -2   1  -4 1051.09   30.00
  -2   1  -4  946.81   28.90
  -2   1  -4 1051.59   26.90
   2  -1   4  965.10   26.90
   2  -1   4  961.90   30.20
   2  -1   4  966.40   24.10
   2  -1   4 1038.80   29.90
   2  -1   4 1014.20   27.70
  -3   1  -4  104.49    8.40
  -3   1  -4   94.59    8.40
  -3   1  -4   92.89   10.10
   3  -1   4  114.39    9.00
   3  -1   4  118.69    9.70
   3  -1   4  116.59   10.70
  -4   1  -4    6.80    2.90
  -4   1  -4    6.30    4.10
  -4   1  -4    3.00    2.40
  -4   1  -4    9.20    4.20
  -4   1  -4    9.00    3.30
   4  -1   4    5.90    3.10
   4  -1   4    9.30    3.20
   4  -1   4    8.10    3.80
  -5   1  -4   56.29   11.50
  -5   1  -4   39.10    5.80
  -5   1  -4   43.00    8.40
  -5   1  -4   32.60    7.10
   5  -1   4   43.40    9.80
   5  -1   4   32.00    7.90
  -6   1  -4   44.20    5.50
  -6   1  -4   49.40    9.60
  -6   1  -4   58.99   10.00
  -6   1  -4   56.39   11.60
   6  -1   4   43.00    8.80
   6  -1   4   45.90   10.90
  -7   1  -4   34.70   10.50
  -7   1  -4   37.30   13.40
  -7   1  -4   21.40    7.20
   7  -1   4   26.60    8.00
   7  -1   4   36.90    8.20
   8   0  -4   43.50    8.50
   8   0  -4   49.70   12.40
   8   0  -4   53.69   17.30
  -8   0   4   31.20    6.80
  -8   0   4   37.50    9.90
   7   0  -4   44.10    9.90
   7   0  -4   68.29    8.60
  -7   0   4   60.89    7.80
  -7   0   4   46.00    9.40
   6   0  -4    1.60    2.30
   6   0  -4   -0.90    2.80
   6   0  -4    5.30    2.70
   6   0  -4    5.40    3.10
  -6   0   4    5.80    2.60
  -6   0   4    5.90    2.80
   5   0  -4  159.68   13.90
   5   0  -4  165.28   13.80
   5   0  -4  183.78   12.60
   5   0  -4  189.58   20.50
  -5   0   4  160.48   11.80
  -5   0   4  172.58   10.60
  -5   0   4  154.68   14.50
   4   0  -4  908.81   27.10
   4   0  -4  895.31   27.80
   4   0  -4  783.12   64.39
   4   0  -4  845.62   29.50
  -4   0   4  920.51   27.00
  -4   0   4  918.31   32.50
   3   0  -4  634.44   21.40
   3   0  -4  605.54   21.30
   3   0  -4  604.54   19.80
   3   0  -4  629.34   30.70
  -3   0   4  622.04   22.50
  -3   0   4  626.84   20.20
  -3   0   4  607.24   16.80
  -3   0   4  658.93   12.90
  -3   0   4  637.64   23.00
  -3   0   4  653.73   29.50
   2   0  -4  438.76   15.30
   2   0  -4  456.35   16.60
   2   0  -4  422.06   14.70
   2   0  -4  429.46   22.00
   2   0  -4  434.66   17.20
  -2   0   4  446.26   21.70
  -2   0   4  416.36   15.40
  -2   0   4  441.16   15.20
  -2   0   4  443.96   17.60
  -2   0   4  458.15   12.50
   1   0  -4  280.47   15.10
   1   0  -4  265.97   11.80
   1   0  -4  257.17   10.60
  -1   0   4  276.37   11.40
  -1   0   4  267.57   13.20
  -1   0   4  276.67   10.40
  -1   0   4  277.17   14.60
  -1   0   4  259.47   11.70
  -1   0   4  270.47   11.20
   0   0  -4 1809.92   37.60
   0   0  -4 1843.02   41.30
   0   0  -4 1832.52   38.80
   0   0  -4 1903.21   42.50
   0   0  -4 1772.22   36.40
   0   0   4 1859.11   30.90
   0   0   4 1840.52   41.10
   0   0   4 1764.82   36.80
   0   0   4 1797.32   36.20
   0   0   4 1848.02   39.00
  -1   0  -4  182.28   12.10
  -1   0  -4  150.88    9.10
  -1   0  -4  169.78   10.20
  -1   0  -4  155.38    7.70
  -1   0  -4  160.48   12.30
   1   0   4  187.18   10.20
   1   0   4  165.48   11.10
   1   0   4  173.68    7.10
   1   0   4  174.78   11.00
  -2   0  -4   33.40    6.00
  -2   0  -4   28.50    5.90
  -2   0  -4   38.20    7.30
  -2   0  -4   33.90    3.90
   2   0   4   21.00    4.60
   2   0   4   26.30    4.30
   2   0   4   38.40    7.10
   2   0   4   21.30    4.20
   2   0   4   22.10    4.00
  -3   0  -4  384.46   18.90
  -3   0  -4  368.06   15.90
  -3   0  -4  370.66   21.50
  -3   0  -4  357.46   20.20
   3   0   4  394.16   18.70
   3   0   4  359.16   20.00
   3   0   4  391.56   19.50
  -4   0  -4  142.89   14.30
  -4   0  -4  133.29   10.40
  -4   0  -4  145.59   12.40
  -4   0  -4  134.09   13.80
   4   0   4  133.39   13.10
   4   0   4  155.78   12.40
  -5   0  -4   87.69   10.00
  -5   0  -4   72.79    8.30
  -5   0  -4   58.69   12.20
  -5   0  -4   85.39    7.20
   5   0   4   58.99   11.10
   5   0   4   72.99    9.40
  -6   0  -4   60.89   13.30
  -6   0  -4   58.79   11.10
  -6   0  -4   47.60    9.40
  -6   0  -4   44.90    6.00
   6   0   4   54.49   10.50
   6   0   4   56.29   12.60
   8  -1  -4   12.70    5.00
   8  -1  -4   17.90   12.00
   8  -1  -4   19.80    7.10
  -8   1   4   15.10    5.40
  -8   1   4    7.20    5.50
   7  -1  -4   19.70    5.30
   7  -1  -4   18.10    4.50
   7  -1  -4   13.20    8.30
   7  -1  -4   24.80    6.90
  -7   1   4   24.10    5.60
   6  -1  -4   65.39    7.70
   6  -1  -4   66.29    7.70
   6  -1  -4   81.29   16.60
   6  -1  -4   72.59    9.60
  -6   1   4   59.79   11.90
  -6   1   4   66.59    7.80
  -6   1   4   83.29    7.80
   5  -1  -4  118.39    9.70
   5  -1  -4   95.29   17.40
   5  -1  -4  125.59    9.40
  -5   1   4  112.39   12.60
  -5   1   4  121.49    8.30
  -5   1   4  112.99    9.20
   4  -1  -4  346.57   24.40
   4  -1  -4  347.47   16.40
   4  -1  -4  345.57   15.00
   4  -1  -4  337.97   17.90
  -4   1   4  368.26   13.30
  -4   1   4  359.36   20.00
  -4   1   4  348.37   15.20
   3  -1  -4  288.27   15.00
   3  -1  -4  347.87   15.20
   3  -1  -4  336.77   15.60
   3  -1  -4  315.07   21.10
   3  -1  -4  321.87   13.10
  -3   1   4  349.07   20.90
  -3   1   4  308.27   15.80
  -3   1   4  355.46   13.80
  -3   1   4  327.87   15.40
   2  -1  -4  904.81   25.80
   2  -1  -4  935.61   23.20
   2  -1  -4  904.01   26.20
   2  -1  -4  890.31   25.30
   2  -1  -4  905.41   33.30
   2  -1  -4  879.21   19.90
  -2   1   4  907.21   25.90
  -2   1   4  865.61   26.20
  -2   1   4  910.31   18.30
  -2   1   4  853.11   31.80
  -2   1   4  878.61   22.80
   1  -1  -4    8.60    2.20
   1  -1  -4    4.10    2.20
   1  -1  -4    4.50    2.10
   1  -1  -4    9.50    3.50
   1  -1  -4    3.40    1.30
  -1   1   4    4.10    1.70
  -1   1   4    3.80    1.50
  -1   1   4    9.10    2.10
  -1   1   4    5.10    2.20
  -1   1   4    7.80    2.30
  -1   1   4    4.40    2.40
   0  -1  -4  121.89    7.80
   0  -1  -4  106.49    7.50
   0  -1  -4  116.69    9.50
   0  -1  -4  110.69    9.50
   0  -1  -4  106.19    4.70
   0  -1  -4  106.19    7.90
   0   1   4  103.39    8.60
   0   1   4   97.99    7.70
   0   1   4  107.99    4.20
   0   1   4   92.49    7.10
  -1  -1  -4  834.72   25.30
  -1  -1  -4  833.52   18.90
  -1  -1  -4  775.92   23.90
  -1  -1  -4  833.52   29.30
  -1  -1  -4  841.22   25.80
   1   1   4  793.42   24.60
   1   1   4  834.92   17.30
   1   1   4  771.72   32.40
   1   1   4  791.42   22.50
   1   1   4  842.12   26.60
  -2  -1  -4  441.16   14.80
  -2  -1  -4  424.36   23.20
  -2  -1  -4  430.96   22.30
  -2  -1  -4  435.96   19.20
   2   1   4  439.86   20.50
   2   1   4  411.66   20.10
   2   1   4  431.86   19.20
  -3  -1  -4  270.27   13.10
  -3  -1  -4  270.37   19.60
  -3  -1  -4  265.77   15.90
  -3  -1  -4  269.07   19.80
   3   1   4  234.38   15.30
   3   1   4  286.57   17.90
  -4  -1  -4   71.29    7.60
  -4  -1  -4   85.69    9.60
  -4  -1  -4   61.99   11.60
   4   1   4   53.99   10.60
   4   1   4   56.79    9.90
  -5  -1  -4   19.60    7.80
  -5  -1  -4   30.10    9.00
  -5  -1  -4   20.40    5.80
   5   1   4   27.90    7.10
   5   1   4   29.00    8.40
  -6  -1  -4    8.20    5.60
  -6  -1  -4   14.10    4.80
  -6  -1  -4   13.50    5.40
  -6  -1  -4    9.50    7.90
   6   1   4    5.60    5.80
   6   1   4    8.90    4.50
   8  -2  -4   15.50    4.70
   8  -2  -4   20.00    6.70
   8  -2  -4   26.00   10.20
  -8   2   4   11.60    4.30
  -8   2   4    2.90    5.00
   7  -2  -4    5.60    3.80
   7  -2  -4   10.20    6.00
   7  -2  -4    3.90    3.70
   7  -2  -4   -0.50    3.40
  -7   2   4   15.60    7.00
  -7   2   4    6.80    2.70
   6  -2  -4   -3.30    1.30
   6  -2  -4    4.60    3.20
   6  -2  -4   -3.40    2.80
   6  -2  -4    2.80    1.90
  -6   2   4    2.40    2.20
  -6   2   4    0.00    1.50
  -6   2   4   -1.30    2.70
   5  -2  -4    8.90    2.80
   5  -2  -4    7.20    1.70
   5  -2  -4    9.10    2.90
   5  -2  -4    4.80    4.00
  -5   2   4    9.10    2.60
  -5   2   4   11.40    4.60
  -5   2   4    8.40    2.50
   4  -2  -4  465.15   12.60
   4  -2  -4  474.45   16.70
   4  -2  -4  461.55   17.90
  -4   2   4  452.15   16.90
  -4   2   4  462.25   14.80
   3  -2  -4    4.70    3.20
   3  -2  -4    8.60    3.30
   3  -2  -4    8.10    1.70
   3  -2  -4    8.60    2.60
   3  -2  -4    8.30    2.50
   3  -2  -4   11.80    3.40
  -3   2   4    5.50    1.90
  -3   2   4    9.20    3.00
  -3   2   4    7.10    1.30
  -3   2   4    6.40    2.90
  -3   2   4   10.30    2.00
   2  -2  -4  537.15   16.90
   2  -2  -4  512.55   25.50
   2  -2  -4  533.45   20.00
   2  -2  -4  509.65   14.80
   2  -2  -4  529.85   19.30
  -2   2   4  529.25   10.50
  -2   2   4  503.55   13.10
  -2   2   4  527.85   17.00
  -2   2   4  588.54   21.40
  -2   2   4  483.95   19.60
  -2   2   4  539.25   19.20
   1  -2  -4  257.57   11.60
   1  -2  -4  294.17   18.10
   1  -2  -4  279.67   13.00
   1  -2  -4  287.57   11.90
   1  -2  -4  270.67   14.60
  -1   2   4  254.67   16.50
  -1   2   4  273.17   10.40
  -1   2   4  265.07   12.20
  -1   2   4  277.67   13.20
  -1   2   4  279.07   14.20
   0  -2  -4  122.69   10.50
   0  -2  -4  125.79    8.50
   0  -2  -4  123.09    8.40
   0  -2  -4  112.19   10.40
   0   2   4  116.99    8.80
   0   2   4  139.39   10.50
   0   2   4  118.09    7.40
   0   2   4  142.09    9.40
  -1  -2  -4  141.49    6.50
  -1  -2  -4  145.49   10.30
  -1  -2  -4  140.69   10.70
  -1  -2  -4  135.89    9.80
   1   2   4  141.39   10.20
   1   2   4  147.59   11.40
   1   2   4  141.69   10.40
  -2  -2  -4  124.99   14.10
  -2  -2  -4  145.19    8.20
  -2  -2  -4  133.49   10.80
  -2  -2  -4  149.09   13.90
   2   2   4  139.99   11.20
   2   2   4  146.89   12.00
  -3  -2  -4   36.50    8.80
  -3  -2  -4   27.60    5.00
  -3  -2  -4   16.90    4.90
   3   2   4   22.30    5.10
   3   2   4   18.60    5.50
  -4  -2  -4    3.40    2.20
  -4  -2  -4   -1.10    3.20
  -4  -2  -4    0.70    2.30
   4   2   4   -0.10    2.30
   4   2   4    4.10    2.60
  -5  -2  -4   15.00    7.80
  -5  -2  -4   20.50    5.70
  -5  -2  -4   31.10    8.60
   5   2   4   23.20    7.90
   5   2   4   35.40    8.90
  -6  -2  -4    9.40    8.40
  -6  -2  -4    8.60    6.20
  -6  -2  -4    9.10    4.30
   6   2   4    5.80    4.90
   6   2   4   12.30    7.80
   8  -3  -4   -5.40    6.70
   8  -3  -4   -2.80    3.10
   8  -3  -4    4.70    2.50
  -8   3   4    2.10    4.30
  -8   3   4    4.70    3.30
   7  -3  -4    1.40    2.10
   7  -3  -4   10.50    3.60
   7  -3  -4    9.10    4.50
   7  -3  -4    2.30    5.00
  -7   3   4    3.50    5.90
  -7   3   4    9.70    5.10
  -7   3   4    6.80    3.10
   6  -3  -4   -1.40    1.30
   6  -3  -4    9.10    5.80
   6  -3  -4    3.40    2.70
   6  -3  -4    2.60    1.90
   6  -3  -4   -0.90    1.40
  -6   3   4    2.30    3.50
  -6   3   4   -1.90    1.60
   5  -3  -4   39.60   10.00
   5  -3  -4   37.90    3.70
   5  -3  -4   31.70    5.20
  -5   3   4   28.70    8.10
  -5   3   4   37.70    4.70
   4  -3  -4  159.48    9.30
   4  -3  -4  147.49    9.60
   4  -3  -4  148.39    8.70
   4  -3  -4  143.19   15.60
  -4   3   4  150.28   13.30
  -4   3   4  146.99    8.80
  -4   3   4  158.68    8.30
   3  -3  -4   88.39    8.60
   3  -3  -4  102.19   12.10
   3  -3  -4   98.89    8.00
   3  -3  -4   98.99    5.60
   3  -3  -4   97.89    8.70
   3  -3  -4  105.19    6.20
  -3   3   4   97.09    5.30
  -3   3   4  112.19    7.40
  -3   3   4   85.09    7.90
  -3   3   4   91.99    4.70
  -3   3   4   89.69    9.40
   2  -3  -4    8.40    2.10
   2  -3  -4    5.00    2.90
   2  -3  -4    1.20    1.10
   2  -3  -4    2.00    1.50
   2  -3  -4    3.60    1.50
  -2   3   4    4.50    1.30
  -2   3   4    4.00    2.10
  -2   3   4    0.90    1.40
  -2   3   4    2.10    1.30
  -2   3   4    5.80    2.60
   1  -3  -4   45.20    4.90
   1  -3  -4   46.60    9.50
   1  -3  -4   32.30    4.10
   1  -3  -4   40.90    7.10
  -1   3   4   36.00    4.60
  -1   3   4   33.80    6.70
  -1   3   4   47.30    6.10
  -1   3   4   38.60    5.00
  -1   3   4   46.60    4.30
   0  -3  -4    0.50    0.90
   0  -3  -4    1.70    1.40
   0  -3  -4   -0.60    1.10
   0  -3  -4    0.70    1.20
   0   3   4   -1.50    1.00
   0   3   4    2.10    1.40
  -1  -3  -4   23.40    6.20
  -1  -3  -4   24.10    5.40
  -1  -3  -4   20.10    2.60
   1   3   4   24.60    5.70
   1   3   4   26.30    6.00
  -2  -3  -4    2.20    1.80
  -2  -3  -4   -0.80    0.90
  -2  -3  -4   -0.20    2.20
   2   3   4    0.40    2.00
   2   3   4   -1.70    1.40
  -3  -3  -4   53.89    9.10
  -3  -3  -4   70.09    6.70
  -3  -3  -4   52.49   10.90
   3   3   4   45.10    8.80
   3   3   4   64.19   10.60
  -4  -3  -4    8.00    2.90
  -4  -3  -4   -2.20    3.40
  -4  -3  -4    6.50    5.00
   4   3   4    7.10    3.60
   4   3   4    3.70    3.40
  -5  -3  -4   -0.50    2.30
  -5  -3  -4    1.70    4.10
  -5  -3  -4    4.40    6.10
   5   3   4    0.00    3.50
   5   3   4   -3.50    3.10
   8  -4  -4    4.40    5.80
   8  -4  -4    2.60    3.70
  -8   4   4   13.50    6.90
  -8   4   4   -3.50    2.30
   7  -4  -4   48.00   13.70
   7  -4  -4   54.39    6.10
   7  -4  -4   45.10    9.50
   7  -4  -4   56.29    6.50
   7  -4  -4   54.99    7.80
  -7   4   4   39.70    7.70
  -7   4   4   52.19    9.70
  -7   4   4   23.90    8.60
   6  -4  -4  236.48   10.80
   6  -4  -4  229.08   11.80
   6  -4  -4  231.48   11.80
   6  -4  -4  254.77   24.80
  -6   4   4  226.48   12.40
  -6   4   4  209.28   12.90
  -6   4   4  238.08   21.40
   5  -4  -4    9.30    2.40
   5  -4  -4   10.90    2.70
   5  -4  -4   26.70    8.40
   5  -4  -4    5.30    2.50
  -5   4   4    5.80    2.50
  -5   4   4    6.90    2.50
  -5   4   4    5.70    4.70
   4  -4  -4    3.80    3.30
   4  -4  -4    3.30    1.90
   4  -4  -4    4.50    1.20
   4  -4  -4    2.80    1.30
  -4   4   4    2.40    1.10
  -4   4   4    1.80    2.10
  -4   4   4    3.60    1.70
  -4   4   4    2.30    1.20
   3  -4  -4   86.99    7.90
   3  -4  -4  101.89    6.90
   3  -4  -4   88.99    6.10
   3  -4  -4   98.79   10.30
   3  -4  -4   90.89   12.90
  -3   4   4  108.49   10.80
  -3   4   4   97.29    5.70
  -3   4   4   97.59    5.60
  -3   4   4   99.39    7.00
   2  -4  -4   96.49    7.20
   2  -4  -4   93.09    8.80
   2  -4  -4   87.89    6.80
   2  -4  -4   89.09    8.10
   2  -4  -4   90.39   12.10
  -2   4   4   99.19    8.30
  -2   4   4   96.39    9.60
  -2   4   4   98.69    7.50
  -2   4   4  103.59    6.50
   1  -4  -4  324.47   18.40
   1  -4  -4  348.57   15.70
   1  -4  -4  316.97   14.60
   1  -4  -4  352.86   15.20
  -1   4   4  331.17   18.30
  -1   4   4  321.57   15.30
  -1   4   4  307.37   15.10
   0  -4  -4  125.09    9.80
   0  -4  -4  125.79    9.90
   0  -4  -4  159.68   11.00
   0  -4  -4  131.09   12.40
   0   4   4  156.48   11.20
   0   4   4  138.39   10.80
  -1  -4  -4  283.37    9.80
  -1  -4  -4  228.68   14.60
  -1  -4  -4  267.87   19.50
   1   4   4  271.77   15.80
   1   4   4  270.67   16.40
  -2  -4  -4   16.70    3.40
  -2  -4  -4   15.70    5.80
  -2  -4  -4   13.90    4.30
   2   4   4   32.40    7.70
   2   4   4   23.50    6.00
  -3  -4  -4   -1.40    2.70
  -3  -4  -4    0.60    4.10
  -3  -4  -4   -0.20    1.50
   3   4   4   -1.00    2.60
   3   4   4    6.10    3.50
  -4  -4  -4   56.39    8.40
  -4  -4  -4   48.80   12.90
  -4  -4  -4   59.69   10.90
   4   4   4   43.40   10.10
   4   4   4   80.09   14.10
  -5  -4  -4   24.80    8.20
  -5  -4  -4   42.50   11.90
  -5  -4  -4   35.00    7.00
   5   4   4   38.70   10.60
   5   4   4   26.80    7.90
   8  -5  -4   31.90   13.20
   8  -5  -4   42.10    6.90
   8  -5  -4   32.80    7.70
  -8   5   4   22.50   10.80
  -8   5   4   34.30    7.70
   7  -5  -4   23.30    4.00
   7  -5  -4   16.00    5.60
   7  -5  -4   18.90    3.90
  -7   5   4   13.90    6.80
  -7   5   4   21.80    4.60
  -7   5   4   19.80    5.40
   6  -5  -4   79.89   17.10
   6  -5  -4   69.99    5.70
   6  -5  -4   72.49    5.60
  -6   5   4   61.29    7.20
  -6   5   4   61.19    6.00
   5  -5  -4  145.29    8.40
   5  -5  -4  175.28   19.60
   5  -5  -4  138.89    7.70
  -5   5   4  128.29   14.70
  -5   5   4  133.19    9.90
  -5   5   4  137.39    8.70
   4  -5  -4   44.90   11.60
   4  -5  -4   38.70    5.00
   4  -5  -4   37.80    4.00
   4  -5  -4   39.40    4.20
  -4   5   4   37.00    3.90
  -4   5   4   41.10    4.80
  -4   5   4   28.80    8.00
  -4   5   4   42.60    4.60
   3  -5  -4  248.38   14.00
   3  -5  -4  212.68    7.30
   3  -5  -4  210.08   10.40
   3  -5  -4  227.78   20.70
   3  -5  -4  213.68   10.70
  -3   5   4  209.88    8.80
  -3   5   4  235.58   11.70
  -3   5   4  216.88   16.30
  -3   5   4  208.48    9.90
   2  -5  -4  287.27   16.90
   2  -5  -4  280.77   23.10
   2  -5  -4  284.57   13.40
   2  -5  -4  299.87   15.30
   2  -5  -4  273.17   21.00
  -2   5   4  295.97   14.40
  -2   5   4  307.27   18.50
  -2   5   4  294.97   15.20
   1  -5  -4  444.66   18.60
   1  -5  -4  397.66   18.10
   1  -5  -4  440.86   18.40
   1  -5  -4  414.06   22.30
  -1   5   4  438.46   19.20
  -1   5   4  405.06   22.20
  -1   5   4  417.76   18.40
   0  -5  -4  255.07    7.70
   0  -5  -4  279.07   19.50
   0  -5  -4  270.57   15.80
   0  -5  -4  261.67   15.20
   0   5   4  259.07   15.00
   0   5   4  268.97   16.20
  -1  -5  -4   44.40   10.10
  -1  -5  -4   30.80    3.30
  -1  -5  -4   28.10    6.00
   1   5   4   27.10    6.10
   1   5   4   23.90    6.00
  -2  -5  -4   72.49   13.50
  -2  -5  -4   96.89   10.30
   2   5   4   88.19   11.00
   2   5   4   75.89    9.40
  -3  -5  -4   50.19   10.20
  -3  -5  -4   53.89   13.50
  -3  -5  -4   59.49    6.40
   3   5   4   62.29   10.80
   3   5   4   49.00   10.40
  -4  -5  -4   78.69   16.00
  -4  -5  -4   46.90   10.50
  -4  -5  -4   54.29   13.50
   4   5   4   59.09   11.30
   4   5   4   47.40    9.50
   8  -6  -4    9.40    7.50
   8  -6  -4   -4.10    2.70
  -8   6   4    7.10    4.80
  -8   6   4   -0.30    5.80
   7  -6  -4   66.79   16.60
   7  -6  -4   54.89   11.40
  -7   6   4   79.49    9.20
   6  -6  -4   36.70   12.00
  -6   6   4   67.89   13.40
  -6   6   4   78.69    8.50
  -6   6   4   70.79    6.10
   5  -6  -4  110.79    6.30
   5  -6  -4   92.09   17.50
   5  -6  -4  115.69    7.00
  -5   6   4  109.89   14.20
  -5   6   4  120.89    9.80
   4  -6  -4  104.29    6.60
   4  -6  -4  101.99    8.20
   4  -6  -4  105.19    7.50
   4  -6  -4  117.79   15.80
   4  -6  -4   98.79    6.00
  -4   6   4   98.59    7.70
  -4   6   4   95.69   12.30
  -4   6   4  101.79    7.70
  -4   6   4   92.69    7.10
   3  -6  -4  122.89   16.50
   3  -6  -4  140.89    9.50
   3  -6  -4  159.18    9.30
   3  -6  -4  139.89   11.20
   3  -6  -4  142.09    5.80
  -3   6   4  140.29    9.80
  -3   6   4  159.58   14.50
   2  -6  -4  282.77   17.60
   2  -6  -4  310.77   26.00
   2  -6  -4  308.57   15.40
   2  -6  -4  294.27   14.50
  -2   6   4  292.37   19.30
  -2   6   4  312.37   15.70
   1  -6  -4  102.69    9.10
   1  -6  -4   99.59   11.30
   1  -6  -4  107.59    9.70
  -1   6   4  108.19    9.10
  -1   6   4  108.79    9.90
  -1   6   4  122.99   12.60
   0  -6  -4  161.38   15.60
   0  -6  -4  160.38   13.00
   0   6   4  160.08   14.90
   0   6   4  161.88   13.10
   0   6   4  158.18   11.90
  -1  -6  -4  118.09   11.40
  -1  -6  -4  138.59   15.60
  -1  -6  -4  116.79    6.90
   1   6   4  119.69   11.20
   1   6   4  120.59   12.20
  -2  -6  -4   53.69   12.00
  -2  -6  -4   49.20    5.30
  -2  -6  -4   52.99    9.40
   2   6   4   44.00    9.00
   2   6   4   57.39    9.70
  -3  -6  -4   51.39   12.00
  -3  -6  -4   44.70    9.90
  -3  -6  -4   49.30    6.20
   3   6   4   50.89   10.40
   3   6   4   40.80    9.40
   8  -7  -4   -3.70    8.00
   8  -7  -4   -5.80    3.90
  -8   7   4   -2.50    3.40
  -8   7   4   10.60    6.90
   7  -7  -4   35.60   13.70
   7  -7  -4   24.90    7.80
  -7   7   4   18.10    9.60
  -7   7   4   24.30    7.00
   6  -7  -4   99.99   19.30
  -6   7   4   73.99   15.20
  -6   7   4   66.79    8.50
   5  -7  -4   17.10    3.60
   5  -7  -4   25.90   11.10
  -5   7   4   17.60    3.70
  -5   7   4   28.30    8.20
  -5   7   4   28.40    5.70
   4  -7  -4   71.09    5.70
   4  -7  -4   72.89    7.10
   4  -7  -4   61.39   15.60
   4  -7  -4   71.09    6.70
  -4   7   4   42.20    9.40
  -4   7   4   67.89    6.40
   3  -7  -4   42.90    3.30
   3  -7  -4   48.00    5.30
   3  -7  -4   53.99    7.20
   3  -7  -4   48.10   11.60
   3  -7  -4   49.80    7.70
  -3   7   4   45.40    6.00
  -3   7   4   43.70    9.60
   2  -7  -4   40.40    8.10
   2  -7  -4   45.50   12.40
   2  -7  -4   32.60    6.00
   2  -7  -4   43.30    6.80
  -2   7   4   38.90    8.70
  -2   7   4   41.40    7.40
   1  -7  -4  110.89   10.10
   1  -7  -4   98.09    9.60
   1  -7  -4  106.49   12.40
  -1   7   4  102.99   10.50
  -1   7   4   94.79   11.70
  -1   7   4   92.09    9.30
   0  -7  -4   80.59    4.90
   0  -7  -4   88.09   10.30
   0  -7  -4   68.39   11.90
   0   7   4   66.29   11.80
   0   7   4   82.99    9.00
   0   7   4   75.69    9.80
  -1  -7  -4   41.60    9.90
  -1  -7  -4   67.89    5.50
   1   7   4   82.69   13.20
   1   7   4   65.09    8.50
  -2  -7  -4   -2.10    4.30
  -2  -7  -4    5.90    3.90
  -2  -7  -4   12.20    2.90
   2   7   4   13.60    5.80
   2   7   4   -1.90    4.30
   7  -8  -4   -3.00    2.90
   7  -8  -4   -6.00    6.00
  -7   8   4    7.40    5.10
   6  -8  -4   30.80    4.80
   6  -8  -4   14.30   10.60
  -6   8   4   22.60    8.80
  -6   8   4   42.60    8.10
   5  -8  -4    8.60    6.90
   5  -8  -4   14.00    3.80
  -5   8   4    8.90    3.10
  -5   8   4    0.10    3.30
   4  -8  -4   13.80    3.50
   4  -8  -4    5.70    2.60
   4  -8  -4    6.00    1.90
   4  -8  -4    9.40    2.90
   4  -8  -4   10.00    6.00
  -4   8   4   10.50    4.20
  -4   8   4    6.80    3.20
   3  -8  -4    5.10    2.70
   3  -8  -4   12.10    3.80
   3  -8  -4    6.50    6.30
   3  -8  -4   15.30    4.70
  -3   8   4   22.20    4.80
  -3   8   4   11.90    5.60
   2  -8  -4   20.70    9.80
   2  -8  -4   15.20    4.50
   2  -8  -4   18.20    7.80
  -2   8   4   16.00    4.90
  -2   8   4   16.20    7.10
   1  -8  -4    8.50    4.60
   1  -8  -4   23.70    7.10
   1  -8  -4   15.20    4.80
  -1   8   4   11.00    8.20
  -1   8   4   24.20    5.50
  -1   8   4   26.10    7.70
   0  -8  -4   13.80    5.30
   0  -8  -4   -5.10    3.70
   0   8   4   23.50    6.40
   0   8   4    8.00    4.10
   0   8   4   19.10    6.50
  -1  -8  -4    0.30    2.00
  -1  -8  -4   -1.90    2.60
  -1  -8  -4   -9.10    4.10
   1   8   4   -1.10    3.90
   1   8   4   -1.70    3.30
   1   8   4   -1.20    3.70
   6  -9  -4    5.80    7.60
   6  -9  -4   -0.20    3.50
   6  -9  -4    7.90    3.50
  -6   9   4   14.80    5.10
  -6   9   4   13.10    6.80
   5  -9  -4    1.00    2.90
   5  -9  -4   -1.90    4.90
  -5   9   4    0.30    3.40
   4  -9  -4   -0.40    2.60
   4  -9  -4    0.90    3.00
   4  -9  -4    0.80    6.70
  -4   9   4    4.10    5.10
   3  -9  -4    2.60    3.00
   3  -9  -4   17.10    4.90
   3  -9  -4    3.90    7.30
  -3   9   4    5.00    4.00
  -3   9   4   -1.90    3.70
   2  -9  -4    2.00    4.70
   2  -9  -4    4.40    4.30
   2  -9  -4   -0.20    2.40
  -2   9   4   -1.30    3.00
  -2   9   4   -7.90    3.00
   1  -9  -4    5.70    4.20
   1  -9  -4   18.50    6.40
  -1   9   4    0.80    4.30
  -1   9   4   18.00    7.30
   0  -9  -4   10.10    5.20
   0  -9  -4    8.00    4.60
   0   9   4   -4.30    4.10
   0   9   4    5.10    4.80
   0   9   4    2.40    3.80
   5 -10  -4    9.10    4.10
   5 -10  -4   17.90    9.50
  -5  10   4   15.40    8.40
   4 -10  -4   23.40    5.30
   4 -10  -4   10.60    6.90
  -4  10   4   12.80    7.40
   3 -10  -4   42.80    8.30
   3 -10  -4   41.20    9.10
   3 -10  -4   44.70   20.30
  -3  10   4   43.70   11.90
   2 -10  -4   -4.80    4.00
   2 -10  -4    3.60    3.80
  -2  10   4    4.60    4.60
   1  11  -5    9.00    3.60
   1  11  -5   10.90    9.90
  -1 -11   5    6.30    5.50
  -1 -11   5    7.10    3.60
   0  11  -5    9.40    3.30
   0 -11   5    5.10    4.50
   0 -11   5   10.40    5.80
  -1  11  -5   -3.20    1.90
   1 -11   5    1.20    1.80
   1 -11   5    0.20    2.80
  -2  11  -5   56.69    9.80
   2 -11   5   38.50    7.30
  -3  11  -5   21.70    5.50
   3 -11   5   33.00    6.80
  -4  11  -5   69.29   14.00
   4 -11   5   37.50    7.10
   4 -11   5   56.99   12.50
   2  10  -5   60.69   11.00
   2  10  -5   31.20    6.10
  -2 -10   5   38.70    8.80
  -2 -10   5   43.90    8.60
   1  10  -5   -1.40    2.90
   1  10  -5    5.70    3.00
  -1 -10   5   -2.20    1.60
  -1 -10   5   -2.10    3.10
   0  10  -5  142.89   12.00
   0  10  -5  143.29   11.80
   0 -10   5  130.29   12.20
   0 -10   5  136.49   12.20
  -1  10  -5  121.09    9.80
  -1  10  -5  111.79   10.70
   1 -10   5  108.49    9.80
   1 -10   5  135.19   12.00
   1 -10   5  117.99   11.00
  -2  10  -5   98.09   10.40
   2 -10   5  103.09   10.50
  -3  10  -5  122.19   11.60
   3 -10   5  122.19   11.50
  -4  10  -5    5.00    4.30
   4 -10   5    6.80    6.00
   4 -10   5    8.70    3.60
  -5  10  -5    1.60    2.40
   5 -10   5   -3.90    2.40
   5 -10   5    2.30    4.30
   3   9  -5   12.90    4.00
  -3  -9   5    1.40    4.30
  -3  -9   5   16.60    5.30
   2   9  -5  193.48   16.10
   2   9  -5  180.68   12.30
  -2  -9   5  160.88   13.50
  -2  -9   5  185.58   16.70
   1   9  -5  154.58   16.80
   1   9  -5  129.89   10.70
  -1  -9   5  128.79   13.50
  -1  -9   5  158.38   12.90
  -1  -9   5  139.89   13.30
   0   9  -5  139.79   11.30
   0   9  -5  126.89   10.80
   0  -9   5  133.19   11.50
   0  -9   5  154.88   12.30
   0  -9   5  132.89   12.50
  -1   9  -5  339.87   18.10
   1  -9   5  349.27   18.30
   1  -9   5  352.66   19.00
   1  -9   5  341.57   16.40
  -2   9  -5   55.29    8.60
   2  -9   5   71.19   11.70
   2  -9   5   71.59    7.20
  -3   9  -5    2.40    2.20
   3  -9   5    2.20    3.90
   3  -9   5   -0.80    2.00
  -4   9  -5  277.17   17.10
   4  -9   5  275.47   20.60
   4  -9   5  269.27   16.10
   4  -9   5  274.77   17.30
  -5   9  -5   56.49    9.00
  -5   9  -5   61.79   12.50
   5  -9   5   65.39   10.30
   5  -9   5   65.39    8.50
  -6   9  -5    8.40    4.30
  -6   9  -5    6.80    5.00
   6  -9   5    8.60    4.70
   6  -9   5   10.40    3.80
   4   8  -5   52.89   11.10
   4   8  -5   46.70   17.20
  -4  -8   5   39.00    9.80
  -4  -8   5   71.39    8.90
   3   8  -5  118.89    9.30
   3   8  -5  113.69   13.10
   3   8  -5  171.68   24.40
  -3  -8   5  143.99   12.10
  -3  -8   5  141.69   15.30
   2   8  -5   73.59    7.30
   2   8  -5   68.39    9.00
  -2  -8   5   71.69   12.00
  -2  -8   5   68.79    8.30
   1   8  -5  248.58   15.90
   1   8  -5  238.68   13.80
  -1  -8   5  235.18   14.70
  -1  -8   5  228.18   16.80
  -1  -8   5  231.08   15.70
   0   8  -5  170.58   11.90
   0   8  -5  174.28   11.90
   0  -8   5  157.28   13.00
   0  -8   5  152.38   12.00
  -1   8  -5    6.60    2.60
  -1   8  -5   12.50    3.70
   1  -8   5    5.70    3.40
   1  -8   5   10.40    3.40
  -2   8  -5  559.44   23.60
   2  -8   5  578.34   24.20
   2  -8   5  537.45   20.60
   2  -8   5  554.64   16.20
  -3   8  -5   42.10    6.90
   3  -8   5   63.19    7.90
   3  -8   5   60.29   10.50
   3  -8   5   49.30    6.00
   3  -8   5   51.29    9.30
  -4   8  -5   43.80    9.80
   4  -8   5   39.70    7.40
   4  -8   5   32.40    7.20
   4  -8   5   27.90    6.00
   4  -8   5   17.30    6.20
  -5   8  -5   30.50    8.50
  -5   8  -5   39.80    7.70
   5  -8   5   25.90    6.40
   5  -8   5   34.70    7.30
  -6   8  -5    1.90    3.80
  -6   8  -5    0.20    2.80
   6  -8   5   11.20    3.80
   6  -8   5    8.10    5.10
   5   7  -5   13.80    5.20
   5   7  -5   15.80    6.20
   5   7  -5   19.30   12.90
  -5  -7   5    5.00    4.10
  -5  -7   5    3.90    5.30
   4   7  -5   15.20    5.30
   4   7  -5    3.70    3.00
   4   7  -5   10.10    8.30
  -4  -7   5    5.10    4.50
  -4  -7   5    3.80    2.70
   3   7  -5   99.99    7.80
   3   7  -5   98.49    6.90
   3   7  -5  110.29   22.90
   3   7  -5  101.49    7.30
   3   7  -5   93.99   11.00
  -3  -7   5  105.69    9.80
  -3  -7   5   85.49   13.70
   2   7  -5  275.07   17.40
   2   7  -5  282.97   27.60
   2   7  -5  290.97   14.20
  -2  -7   5  295.97   16.00
   1   7  -5  114.49   15.40
   1   7  -5  111.69    8.80
   1   7  -5   92.39    9.50
  -1  -7   5  116.19    9.50
  -1  -7   5  113.69   10.90
  -1  -7   5   92.19    9.30
   0   7  -5  851.91   27.70
   0   7  -5  939.11   28.80
   0  -7   5  816.92   27.80
   0  -7   5  852.51   26.50
   0  -7   5  876.61   30.70
  -1   7  -5   48.30    7.50
  -1   7  -5   76.49    6.90
   1  -7   5   60.49    7.10
   1  -7   5   61.49    5.70
   1  -7   5   69.29    5.30
   1  -7   5   65.59    7.40
  -2   7  -5   -0.60    2.00
  -2   7  -5   -1.40    1.50
  -2   7  -5    1.30    1.70
   2  -7   5    2.60    1.90
   2  -7   5    1.30    1.80
   2  -7   5    2.40    1.80
   2  -7   5    5.70    3.80
   2  -7   5    3.10    2.10
  -3   7  -5    1.40    1.80
  -3   7  -5    2.90    2.30
  -3   7  -5    3.00    1.60
  -3   7  -5    3.60    2.80
   3  -7   5    1.90    2.60
   3  -7   5    3.40    2.20
   3  -7   5    4.30    3.30
   3  -7   5    3.80    2.50
  -4   7  -5    2.60    2.60
  -4   7  -5   -1.30    1.40
   4  -7   5   -0.30    2.60
  -5   7  -5    1.70    2.70
  -5   7  -5    8.30    5.50
   5  -7   5    6.40    4.20
  -6   7  -5   -0.10    3.00
  -6   7  -5    3.90    3.40
   6   6  -5   12.00    7.20
   6   6  -5    7.70    9.00
   6   6  -5   -2.00    3.70
  -6  -6   5    9.10    4.10
   5   6  -5    5.00    7.60
   5   6  -5   -1.30    2.80
   5   6  -5    2.30    3.80
  -5  -6   5   -5.60    2.50
  -5  -6   5    3.10    2.60
   4   6  -5  266.27   11.60
   4   6  -5  261.57   19.00
   4   6  -5  226.28   14.40
   4   6  -5  249.38   28.90
  -4  -6   5  260.27   19.60
  -4  -6   5  280.87   15.30
   3   6  -5  127.99    8.40
   3   6  -5  119.99   21.50
   3   6  -5  134.89    8.90
   3   6  -5  125.09   12.10
   3   6  -5  128.59    8.70
  -3  -6   5  122.59    9.60
  -3  -6   5  137.49   13.10
   2   6  -5  473.25   14.00
   2   6  -5  481.05   17.80
   2   6  -5  479.25   22.80
   2   6  -5  464.75   33.90
  -2  -6   5  454.35   21.60
  -2  -6   5  459.15   29.20
  -2  -6   5  479.35   19.50
   1   6  -5    0.10    1.50
   1   6  -5   -0.60    1.20
   1   6  -5   -1.80    2.40
  -1  -6   5    3.10    2.00
  -1  -6   5    2.50    1.70
   0   6  -5   11.70    5.10
   0   6  -5   12.70    3.70
   0   6  -5   20.30    4.60
   0  -6   5    7.90    2.60
   0  -6   5   10.80    5.80
   0  -6   5   12.10    3.80
   0  -6   5   10.10    3.60
  -1   6  -5    1.70    2.10
  -1   6  -5    0.90    1.60
  -1   6  -5    3.10    1.30
   1  -6   5    3.40    1.50
   1  -6   5    3.30    1.50
   1  -6   5   11.60    6.30
   1  -6   5    2.80    2.30
   1  -6   5    0.60    1.00
  -2   6  -5  181.88   10.40
  -2   6  -5  193.48   10.90
  -2   6  -5  182.58   12.20
   2  -6   5  194.68   14.20
   2  -6   5  215.88   11.90
   2  -6   5  197.18   10.70
   2  -6   5  201.88    8.90
  -3   6  -5   30.40    6.20
  -3   6  -5   12.20    4.30
   3  -6   5   21.00    2.60
   3  -6   5   21.80    3.40
   3  -6   5   20.20    8.40
  -4   6  -5    1.90    2.40
  -4   6  -5    9.70    2.80
   4  -6   5    6.70    3.20
  -5   6  -5    1.50    3.50
  -5   6  -5    6.50    3.20
  -6   6  -5    3.80    2.70
  -6   6  -5   -5.40    3.00
   6  -6   5   10.60    5.10
  -7   6  -5    7.80    3.70
  -7   6  -5    6.90    4.40
   7  -6   5    5.50    5.40
   6   5  -5  129.09   24.00
   6   5  -5  121.99   14.30
   6   5  -5  149.19   15.80
  -6  -5   5  148.29   16.70
  -6  -5   5  144.19   11.40
   5   5  -5  168.28   15.80
   5   5  -5  172.68   13.70
   5   5  -5  193.58   25.60
  -5  -5   5  168.78   16.40
  -5  -5   5  167.38   11.30
   4   5  -5  133.19    7.40
   4   5  -5  109.19   21.20
   4   5  -5  136.69   11.00
   4   5  -5  120.09   10.30
   4   5  -5  113.79   11.90
  -4  -5   5  122.39    9.20
  -4  -5   5  125.89    8.30
  -4  -5   5  132.89   13.30
   3   5  -5   11.00    3.40
   3   5  -5   10.50    2.60
   3   5  -5    6.60    2.80
   3   5  -5    8.90    3.50
   3   5  -5    5.50    3.50
   3   5  -5    5.60    2.60
  -3  -5   5    8.30    2.80
  -3  -5   5    5.80    3.00
  -3  -5   5   14.60    3.30
   2   5  -5  254.67   23.00
   2   5  -5  252.27   11.90
   2   5  -5  267.97   15.70
   2   5  -5  250.17   10.80
  -2  -5   5  249.08   15.20
  -2  -5   5  270.97   13.20
  -2  -5   5  242.48   16.20
  -2  -5   5  249.68   14.80
   1   5  -5  203.68   18.70
   1   5  -5  181.68   12.00
   1   5  -5  179.58   10.60
   1   5  -5  184.78    7.90
  -1  -5   5  187.68   11.50
  -1  -5   5  173.98   12.60
  -1  -5   5  190.78   11.30
   0   5  -5  525.45   14.70
   0   5  -5  496.15   22.70
   0   5  -5  541.55   20.20
   0   5  -5  500.85   26.10
   0  -5   5  447.66   39.40
   0  -5   5  531.05   18.30
   0  -5   5  524.75   14.90
   0  -5   5  510.75   20.80
   0  -5   5  541.25   20.60
  -1   5  -5   78.89    7.20
  -1   5  -5   64.29    5.50
  -1   5  -5   64.99    6.40
  -1   5  -5   67.69    5.80
   1  -5   5   77.89    6.20
   1  -5   5   77.19    6.20
   1  -5   5   79.59    6.00
   1  -5   5   70.29    8.40
   1  -5   5   69.39    6.90
  -2   5  -5  212.38   12.20
  -2   5  -5  184.78   11.10
  -2   5  -5  196.88   13.80
  -2   5  -5  192.28   11.20
   2  -5   5  207.38   14.00
   2  -5   5  191.68   10.70
   2  -5   5  218.58    9.70
   2  -5   5  193.38   11.80
  -3   5  -5   85.99    7.90
  -3   5  -5   84.69    9.50
  -3   5  -5   72.79    7.30
   3  -5   5   83.89    8.90
   3  -5   5   65.89    6.80
   3  -5   5   78.39    6.50
  -4   5  -5   20.40    5.70
  -4   5  -5   18.60    4.60
  -4   5  -5   19.30    4.60
   4  -5   5   12.20    3.30
   4  -5   5   16.50    5.00
   4  -5   5   19.50    3.80
  -5   5  -5   17.70    5.00
  -5   5  -5   24.80    6.70
  -5   5  -5   20.70    6.50
   5  -5   5   11.30    4.70
   5  -5   5   27.40    4.50
   5  -5   5   28.30    4.90
  -6   5  -5   15.40    4.20
  -6   5  -5   10.90    4.40
   6  -5   5    8.90    5.40
   6  -5   5   20.30    4.70
  -7   5  -5   12.80    5.50
  -7   5  -5   13.20    4.50
   7  -5   5   14.30   10.60
   7  -5   5    7.80    3.20
   7   4  -5   54.29   20.70
   7   4  -5   47.50   10.00
   7   4  -5   35.70    9.20
  -7  -4   5   37.90    7.70
  -7  -4   5   41.10    7.00
  -7  -4   5   43.60   10.50
   6   4  -5    5.90    8.90
   6   4  -5    5.60    4.30
   6   4  -5    7.90    4.00
  -6  -4   5    9.30    3.60
  -6  -4   5    1.90    4.30
   5   4  -5   51.09    8.80
   5   4  -5   46.70   15.00
   5   4  -5   42.30    8.50
  -5  -4   5   45.10    5.60
   4   4  -5  328.57   16.40
   4   4  -5  314.97   29.60
   4   4  -5  328.07   11.10
   4   4  -5  333.87   19.70
   4   4  -5  310.77   16.80
  -4  -4   5  347.27   19.80
  -4  -4   5  329.17   14.10
   3   4  -5  159.38   18.70
   3   4  -5  165.68   11.00
   3   4  -5  181.08   13.30
   3   4  -5  179.98    9.10
   3   4  -5  166.28    8.50
  -3  -4   5  173.08   12.60
  -3  -4   5  162.18    9.20
   2   4  -5  986.00   31.20
   2   4  -5  985.30   25.10
   2   4  -5  973.60   24.70
  -2  -4   5  984.90   33.00
  -2  -4   5  953.50   25.00
  -2  -4   5  931.21   25.60
  -2  -4   5 1030.90   30.00
   1   4  -5  356.06   14.20
   1   4  -5  354.76   12.50
   1   4  -5  360.36   22.50
   1   4  -5  344.47   16.50
   1   4  -5  341.97   15.70
  -1  -4   5  322.17   14.70
  -1  -4   5  371.46   23.20
  -1  -4   5  370.46   14.60
  -1  -4   5  351.86   17.60
  -1  -4   5  333.87   14.80
   0   4  -5  173.68   10.90
   0   4  -5  164.28   13.10
   0   4  -5  167.98    8.50
   0   4  -5  167.18    9.50
   0   4  -5  179.18   10.30
   0  -4   5  176.68   13.50
   0  -4   5  164.88   11.20
   0  -4   5  168.68    9.80
   0  -4   5  168.08    8.80
   0  -4   5  155.08   10.40
   0  -4   5  181.88    9.80
  -1   4  -5  131.79    8.10
  -1   4  -5  140.89    9.60
  -1   4  -5  140.79    9.30
  -1   4  -5  140.79    8.50
   1  -4   5  142.39   10.00
   1  -4   5  139.99    9.30
   1  -4   5  137.99   10.30
   1  -4   5  131.89    9.20
   1  -4   5  142.79    8.20
   1  -4   5  141.39    8.90
   1  -4   5  135.79    9.50
  -2   4  -5  190.48   12.80
  -2   4  -5  183.38    9.50
  -2   4  -5  189.58   11.90
  -2   4  -5  180.18   11.20
   2  -4   5  205.58   13.60
   2  -4   5  206.28   11.50
   2  -4   5  204.08   12.50
   2  -4   5  206.58   10.00
  -3   4  -5  374.56   19.20
  -3   4  -5  365.06   17.80
  -3   4  -5  380.66   16.70
   3  -4   5  355.86   19.00
   3  -4   5  364.86   14.60
   3  -4   5  355.46   15.60
  -4   4  -5   72.49    8.70
  -4   4  -5   86.29    9.90
  -4   4  -5   84.49    7.80
   4  -4   5   72.49    9.50
   4  -4   5   76.49    7.00
  -5   4  -5   40.90    8.40
  -5   4  -5   55.49    7.90
  -5   4  -5   30.10    7.20
   5  -4   5   54.39   13.70
   5  -4   5   32.70    6.20
  -6   4  -5   25.30    8.30
  -6   4  -5   54.09    6.30
  -6   4  -5   30.80    7.90
   6  -4   5   42.90    7.40
   6  -4   5   29.70    8.70
  -7   4  -5   34.10    6.40
  -7   4  -5   44.10    9.90
   7  -4   5   32.00    9.40
   7  -4   5   23.40    5.90
   7   3  -5   12.40    5.80
   7   3  -5   -0.30    6.60
   7   3  -5    9.60    5.50
  -7  -3   5    6.10    3.70
  -7  -3   5    9.60    4.00
  -7  -3   5    6.10    5.50
   6   3  -5  206.78   16.90
   6   3  -5  241.38   17.70
   6   3  -5  196.58   25.30
  -6  -3   5  206.48   11.20
   5   3  -5  147.59   20.90
   5   3  -5  156.18   13.50
   5   3  -5  171.88   13.90
  -5  -3   5  150.48    8.90
  -5  -3   5  135.39   12.80
   4   3  -5  374.86   11.20
   4   3  -5  375.26   31.00
   4   3  -5  376.56   19.00
   4   3  -5  369.56   20.00
   4   3  -5  378.36   17.50
  -4  -3   5  372.36   19.60
  -4  -3   5  386.66   14.00
   3   3  -5  171.68    8.30
   3   3  -5  163.58   18.10
   3   3  -5  175.68   10.90
   3   3  -5  164.38    8.80
  -3  -3   5  173.28    8.90
  -3  -3   5  144.29   11.00
   2   3  -5  193.58   11.70
   2   3  -5  192.98    9.40
   2   3  -5  184.88   17.40
   2   3  -5  186.08   10.10
   2   3  -5  189.98   12.40
  -2  -3   5  203.08   10.00
  -2  -3   5  165.68   16.00
  -2  -3   5  192.08   11.60
   1   3  -5  508.75   20.10
   1   3  -5  498.45   16.30
   1   3  -5  517.85   25.70
   1   3  -5  495.15   17.90
   1   3  -5  508.65   16.50
  -1  -3   5  516.95   24.80
  -1  -3   5  476.05   16.00
  -1  -3   5  488.15   17.70
  -1  -3   5  512.55   20.80
   0   3  -5   82.29    8.10
   0   3  -5   71.59    6.00
   0   3  -5   80.89    7.50
   0   3  -5   82.49    6.30
   0   3  -5   78.29    6.40
   0  -3   5   89.09    6.60
   0  -3   5   73.69    7.50
   0  -3   5   79.59    6.40
   0  -3   5   74.69    7.20
  -1   3  -5  473.65   18.60
  -1   3  -5  480.45   17.30
  -1   3  -5  471.65   17.30
  -1   3  -5  484.75   19.50
  -1   3  -5  408.56   15.20
   1  -3   5  493.65   16.40
   1  -3   5  464.75   18.80
   1  -3   5  487.95   18.30
   1  -3   5  466.95   19.20
  -2   3  -5  468.65   17.70
  -2   3  -5  470.95   20.40
  -2   3  -5  491.15   20.10
  -2   3  -5  447.16   18.90
   2  -3   5  488.15   17.20
   2  -3   5  470.55   20.10
   2  -3   5  458.25   18.90
  -3   3  -5  350.66   17.90
  -3   3  -5  375.06   19.10
   3  -3   5  362.26   16.90
   3  -3   5  351.36   19.40
   3  -3   5  356.46   15.50
  -4   3  -5   95.29    8.00
  -4   3  -5   92.49    9.70
  -4   3  -5   99.29   10.90
   4  -3   5   99.09    9.10
   4  -3   5   91.69   10.70
   4  -3   5   88.49    8.20
  -5   3  -5   58.99   10.90
  -5   3  -5   68.59    7.20
   5  -3   5   57.99   11.00
   5  -3   5   66.99    8.10
   5  -3   5   60.49    7.30
  -6   3  -5   43.70    9.90
  -6   3  -5   50.99    7.20
  -6   3  -5   64.39   11.20
   6  -3   5   33.80    6.70
   6  -3   5   59.69   12.80
  -7   3  -5    0.60    3.60
   7  -3   5    4.10    3.30
   7  -3   5   -4.10    4.10
  -8  -2   5   30.30    7.10
   7   2  -5   30.50   11.60
   7   2  -5   20.30    6.40
   7   2  -5   18.40    5.80
  -7  -2   5   22.90    7.20
  -7  -2   5   14.70    4.20
  -7  -2   5   20.80    4.80
   6   2  -5   91.69   11.10
   6   2  -5   86.79   10.60
   6   2  -5   81.09   21.10
  -6  -2   5   89.09    6.50
  -6  -2   5   82.79   10.60
   5   2  -5   70.49   16.10
   5   2  -5   94.49   10.20
   5   2  -5   72.29    9.20
  -5  -2   5   89.19    5.90
  -5  -2   5   87.69    9.60
   4   2  -5    5.60    2.90
   4   2  -5    3.10    2.00
   4   2  -5    3.40    1.00
   4   2  -5    4.20    3.70
  -4  -2   5    3.40    2.20
  -4  -2   5    1.50    1.10
   3   2  -5  202.38   13.20
   3   2  -5  186.58   11.70
   3   2  -5  203.98    8.60
   3   2  -5  187.38   11.90
   3   2  -5  206.58   10.40
   3   2  -5  195.28   18.90
  -3  -2   5  197.48   11.30
  -3  -2   5  200.78    8.80
  -3  -2   5  228.38   13.10
  -3  -2   5  185.88   14.20
   2   2  -5  238.38   12.80
   2   2  -5  234.28   18.40
   2   2  -5  221.98    9.00
   2   2  -5  236.08   11.80
   2   2  -5  230.18    9.80
   2   2  -5  233.08   13.60
  -2  -2   5  216.88   11.80
  -2  -2   5  230.18   14.00
  -2  -2   5  234.78   17.30
  -2  -2   5  239.58    9.90
   1   2  -5  565.04   17.00
   1   2  -5  511.55   17.50
   1   2  -5  543.65   18.00
   1   2  -5  583.54   21.50
   1   2  -5  547.05   24.40
  -1  -2   5  520.15   15.10
  -1  -2   5  539.45   17.80
  -1  -2   5  519.75   17.80
  -1  -2   5  548.65   23.40
  -1  -2   5  511.65   20.70
   0   2  -5  204.18   10.50
   0   2  -5  218.38   12.90
   0   2  -5  225.88   10.80
   0   2  -5  244.48   11.80
   0   2  -5  240.78   12.70
   0  -2   5  226.98   11.00
   0  -2   5  236.98   12.30
   0  -2   5  245.98   11.30
   0  -2   5  239.98   13.40
   0  -2   5  237.78   12.10
   0  -2   5  243.28   11.90
  -1   2  -5  205.48   13.00
  -1   2  -5  200.88   10.20
  -1   2  -5  198.18   11.40
  -1   2  -5  183.48   10.10
  -1   2  -5  192.18   10.70
   1  -2   5  183.48   11.20
   1  -2   5  180.68   11.60
   1  -2   5  204.78   12.00
   1  -2   5  180.48   10.10
   1  -2   5  179.08    9.50
  -2   2  -5  302.27   14.70
  -2   2  -5  310.77   17.10
  -2   2  -5  302.67   13.60
  -2   2  -5  302.07   16.30
   2  -2   5  318.07   16.20
   2  -2   5  311.47   16.60
   2  -2   5  314.67   14.20
   2  -2   5  309.87   13.00
  -3   2  -5  182.78   12.30
  -3   2  -5  186.58   14.10
  -3   2  -5  201.98   13.90
  -3   2  -5  181.38   10.70
   3  -2   5  157.08   10.80
   3  -2   5  193.58   14.40
   3  -2   5  165.38   12.10
  -4   2  -5   63.19    6.30
  -4   2  -5   73.79   11.30
  -4   2  -5   43.50    8.70
  -4   2  -5   63.39    7.50
   4  -2   5   44.50    8.40
   4  -2   5   54.59    7.30
   4  -2   5   60.19    7.30
  -5   2  -5    1.70    2.20
  -5   2  -5    4.30    3.50
  -5   2  -5    2.40    2.90
   5  -2   5    0.10    3.40
   5  -2   5    4.90    2.80
   5  -2   5    0.30    2.00
  -6   2  -5   19.90    4.80
  -6   2  -5   12.90    6.90
  -6   2  -5   19.60    5.90
   6  -2   5   20.50    7.10
   6  -2   5   15.30    5.20
   8   1  -5    3.10    4.00
   8   1  -5    9.30    3.80
   8   1  -5  -11.00    8.00
  -8  -1   5    5.90    6.10
   7   1  -5   -0.30    2.50
   7   1  -5   -4.40    2.00
   7   1  -5   -3.70    4.00
  -7  -1   5    2.10    2.00
   6   1  -5    0.40    3.30
   6   1  -5    1.00    5.40
   6   1  -5    0.90    2.10
  -6  -1   5    2.10    1.80
  -6  -1   5    6.90    3.50
   5   1  -5   68.19   15.60
   5   1  -5   70.79    8.50
  -5  -1   5   53.39   10.30
  -5  -1   5   72.79    9.70
  -5  -1   5   70.79    4.30
   4   1  -5   18.10    2.20
   4   1  -5   13.80    6.50
   4   1  -5   21.20    5.00
   4   1  -5   15.60    4.50
   4   1  -5   19.00    4.60
  -4  -1   5   14.80    4.60
  -4  -1   5   23.60    5.40
  -4  -1   5   16.40    2.10
   3   1  -5    9.40    3.00
   3   1  -5    7.80    3.10
   3   1  -5    8.30    3.90
   3   1  -5   14.80    3.90
   3   1  -5   10.90    3.30
  -3  -1   5    8.20    4.50
  -3  -1   5    2.50    1.80
  -3  -1   5    6.60    3.10
  -3  -1   5    9.40    3.00
  -3  -1   5    8.70    1.90
   2   1  -5  260.67   14.30
   2   1  -5  259.07   12.80
   2   1  -5  292.17   19.30
   2   1  -5  255.67   12.30
   2   1  -5  256.87   11.00
  -2  -1   5  257.47   11.20
  -2  -1   5  240.98   17.00
  -2  -1   5  251.87   14.40
  -2  -1   5  252.47   11.30
  -2  -1   5  256.77   12.50
   1   1  -5   63.29    5.80
   1   1  -5   69.79    7.10
   1   1  -5   63.79    6.10
   1   1  -5   53.99    7.20
  -1  -1   5   62.79    5.60
  -1  -1   5   53.59    6.30
  -1  -1   5   72.19    6.40
  -1  -1   5   60.29    5.10
  -1  -1   5   54.69    6.80
  -1  -1   5   58.29    5.50
   0   1  -5    4.10    2.10
   0   1  -5   11.10    3.20
   0   1  -5    4.60    1.90
   0   1  -5    4.20    2.30
   0   1  -5    9.60    2.70
   0  -1   5    4.60    2.00
   0  -1   5    2.60    1.30
   0  -1   5    9.60    2.30
   0  -1   5    3.90    2.10
   0  -1   5   10.40    3.10
   0  -1   5    7.20    2.40
  -1   1  -5   -0.40    0.90
  -1   1  -5    4.10    1.60
  -1   1  -5    1.90    1.60
  -1   1  -5    0.40    0.90
  -1   1  -5    0.40    1.40
   1  -1   5    1.10    0.90
   1  -1   5   -0.10    1.10
   1  -1   5    2.20    1.30
   1  -1   5    2.70    2.20
   1  -1   5    1.70    1.10
  -2   1  -5   66.39    7.20
  -2   1  -5   78.19    9.00
  -2   1  -5   72.79    6.30
  -2   1  -5   62.39   13.50
  -2   1  -5   76.09    6.90
   2  -1   5   75.39    8.10
   2  -1   5   71.79    5.60
   2  -1   5   70.79    7.00
   2  -1   5   94.09    9.40
  -3   1  -5    5.00    2.10
  -3   1  -5    3.30    2.50
  -3   1  -5    4.00    3.70
  -3   1  -5    4.40    2.00
   3  -1   5    5.00    2.30
   3  -1   5    2.50    2.40
  -4   1  -5    4.80    2.20
  -4   1  -5    7.10    2.90
  -4   1  -5    0.30    1.90
  -4   1  -5   -0.60    2.70
  -4   1  -5   10.80    4.00
   4  -1   5   -2.20    2.70
   4  -1   5    7.20    3.50
   4  -1   5   14.40    5.00
  -5   1  -5   20.80    7.90
  -5   1  -5   23.90    6.90
  -5   1  -5   28.80    5.20
  -5   1  -5   38.20    9.70
  -5   1  -5   27.00    6.70
   5  -1   5   21.80    7.40
   5  -1   5   21.80    6.00
  -6   1  -5   -1.20    5.70
  -6   1  -5    6.60    3.80
  -6   1  -5   -5.60    3.70
  -6   1  -5    3.40    3.10
   6  -1   5    6.70    4.30
   6  -1   5    6.00    3.30
   8   0  -5    5.80    5.10
   8   0  -5   16.80    5.60
   8   0  -5   22.00   12.70
  -8   0   5   18.00    7.00
  -8   0   5   18.70    5.50
   7   0  -5   -2.00    1.60
   7   0  -5    0.20    3.00
  -7   0   5    0.90    1.80
  -7   0   5   -2.70    2.40
   6   0  -5   -4.70    3.10
   6   0  -5    2.10    2.00
   6   0  -5    8.50    4.10
  -6   0   5   -0.90    1.30
  -6   0   5   -1.10    2.00
  -6   0   5    2.10    2.40
   5   0  -5   19.80    5.30
   5   0  -5   24.70    8.70
   5   0  -5   20.90    5.10
  -5   0   5   16.60    3.40
  -5   0   5   24.00    5.20
  -5   0   5   20.20    6.10
   4   0  -5   16.40    7.10
   4   0  -5   11.00    3.00
   4   0  -5   13.90    4.00
   4   0  -5    6.70    2.60
  -4   0   5   12.30    3.50
  -4   0   5    7.90    3.00
   3   0  -5   90.99    8.20
   3   0  -5   85.59    7.40
   3   0  -5   85.99    7.50
   3   0  -5   75.09    7.60
   3   0  -5   83.89   11.30
  -3   0   5   98.39   11.70
  -3   0   5   87.09    7.40
  -3   0   5   79.49    5.00
  -3   0   5  106.19    8.80
  -3   0   5   80.09    8.20
   2   0  -5    1.80    2.40
   2   0  -5    2.00    1.20
   2   0  -5    5.40    1.90
   2   0  -5    4.80    1.80
   2   0  -5    4.40    2.30
  -2   0   5    4.10    2.50
  -2   0   5    4.90    2.00
  -2   0   5    9.20    3.30
  -2   0   5    4.90    1.70
  -2   0   5    3.00    1.70
  -2   0   5    6.20    2.20
   1   0  -5   92.19    7.00
   1   0  -5   88.19    6.90
   1   0  -5   98.49    9.60
  -1   0   5   79.39    6.70
  -1   0   5   92.59    5.30
  -1   0   5   83.89    8.50
  -1   0   5   91.09    7.40
  -1   0   5   87.99    6.30
  -1   0   5   80.09    7.80
   0   0  -5  222.88    8.90
   0   0  -5  231.48   11.50
   0   0  -5  212.58   12.70
   0   0  -5  224.38   13.40
   0   0  -5  214.88   11.70
   0   0  -5  206.18   13.60
   0   0   5  224.38   11.70
   0   0   5  196.48   12.50
   0   0   5  211.68   12.10
   0   0   5  200.88   12.70
   0   0   5  200.88    7.80
  -1   0  -5   51.49    6.20
  -1   0  -5   34.20    5.70
  -1   0  -5   47.50    5.50
  -1   0  -5   50.99    6.70
  -1   0  -5   52.19    4.80
  -1   0  -5   54.99    6.30
   1   0   5   47.60    5.60
   1   0   5   54.59    6.60
   1   0   5   47.60    5.60
   1   0   5   52.39    6.70
   1   0   5   52.59    4.10
  -2   0  -5   -0.50    1.20
  -2   0  -5    1.80    2.20
  -2   0  -5    6.10    3.00
  -2   0  -5    1.70    1.40
   2   0   5   -0.20    1.30
   2   0   5    0.20    0.80
   2   0   5    1.40    2.10
   2   0   5    5.10    2.40
  -3   0  -5   46.10   10.40
  -3   0  -5   53.89    9.50
  -3   0  -5   43.20    7.90
  -3   0  -5   48.00    6.00
   3   0   5   40.10    7.50
   3   0   5   42.90    8.70
  -4   0  -5   20.70    6.10
  -4   0  -5   14.70    4.20
  -4   0  -5   15.50    6.40
   4   0   5   10.60    4.30
   4   0   5    8.20    4.40
  -5   0  -5    7.00    5.40
  -5   0  -5    4.30    4.50
  -5   0  -5    5.30    2.80
  -5   0  -5   10.40    4.70
   5   0   5   10.60    4.50
   5   0   5    3.40    4.00
  -6   0  -5   11.50    3.90
  -6   0  -5    3.60    5.80
  -6   0  -5   11.00    4.60
  -6   0  -5    5.10    4.40
   6   0   5    5.90    4.60
   6   0   5    7.70    4.70
   8  -1  -5    1.80    8.40
   8  -1  -5    7.70    3.50
   8  -1  -5    4.80    3.70
  -8   1   5   -1.50    2.30
  -8   1   5   -2.30    3.90
   7  -1  -5   58.89   11.50
   7  -1  -5   57.59   15.70
   7  -1  -5   76.89    9.30
   7  -1  -5   56.59    8.70
  -7   1   5   51.79   13.90
  -7   1   5   58.39    7.50
   6  -1  -5   36.10    6.50
   6  -1  -5   18.40    8.30
   6  -1  -5   36.10    8.50
  -6   1   5   38.10    7.60
  -6   1   5   31.00    5.50
  -6   1   5   36.60    8.90
   5  -1  -5  112.49   15.80
   5  -1  -5  120.49    9.80
   5  -1  -5  120.39    5.10
   5  -1  -5  108.59    9.50
  -5   1   5   93.79    7.50
  -5   1   5  109.49    9.30
  -5   1   5  110.09   12.30
   4  -1  -5  158.48   10.30
   4  -1  -5  154.98   11.20
   4  -1  -5  161.68   16.90
  -4   1   5  173.18   10.90
  -4   1   5  155.08   12.90
  -4   1   5  149.09    8.30
   3  -1  -5  277.07   13.10
   3  -1  -5  304.17   15.40
   3  -1  -5  273.07   14.90
   3  -1  -5  300.17   21.30
   3  -1  -5  269.67   14.80
  -3   1   5  276.77   13.10
  -3   1   5  296.77   15.80
  -3   1   5  291.47   20.10
  -3   1   5  298.37   16.00
  -3   1   5  283.47    8.60
   2  -1  -5  213.58   16.50
   2  -1  -5  214.38   10.00
   2  -1  -5  224.78   11.20
   2  -1  -5  241.38   13.90
  -2   1   5  230.38   11.50
  -2   1   5  218.48   15.80
  -2   1   5  219.48   13.40
  -2   1   5  215.88   12.40
  -2   1   5  214.78    8.80
  -2   1   5  201.98   11.90
   1  -1  -5   31.60    4.10
   1  -1  -5   27.70    6.20
   1  -1  -5   25.80    5.40
   1  -1  -5   30.70    4.10
   1  -1  -5   40.60    6.40
  -1   1   5   33.10    3.70
  -1   1   5   25.90    5.70
  -1   1   5   30.80    2.30
  -1   1   5   33.80    5.60
  -1   1   5   33.70    5.90
  -1   1   5   30.20    6.00
   0  -1  -5  446.46   22.60
   0  -1  -5  395.86   20.00
   0  -1  -5  437.56   21.10
   0  -1  -5  399.36   17.50
   0  -1  -5  397.36   16.80
   0   1   5  412.46   19.50
   0   1   5  401.66    9.60
   0   1   5  404.46   15.30
   0   1   5  401.26   16.90
   0   1   5  418.56   18.20
  -1  -1  -5   36.10    3.60
  -1  -1  -5   25.20    6.60
   1   1   5   29.90    2.80
   1   1   5   35.30    6.70
   1   1   5   41.30    6.70
   1   1   5   24.10    5.30
  -2  -1  -5   66.29    7.90
  -2  -1  -5   55.99    5.50
  -2  -1  -5   80.49   10.10
   2   1   5   67.69    7.60
   2   1   5   59.69    7.80
  -3  -1  -5   97.29    8.10
  -3  -1  -5   79.59   13.10
  -3  -1  -5   83.49   10.80
  -3  -1  -5   91.99   10.10
   3   1   5   82.29   10.20
   3   1   5   75.79    9.20
  -4  -1  -5   85.79    9.10
  -4  -1  -5   85.89   14.70
  -4  -1  -5   89.69   11.00
   4   1   5   91.69   10.80
  -5  -1  -5  121.99   13.90
  -5  -1  -5  145.79   12.60
  -5  -1  -5   97.59   16.00
   5   1   5  112.59   14.30
   5   1   5  123.39   13.90
  -6  -1  -5    2.00    4.40
  -6  -1  -5    1.80    3.50
  -6  -1  -5   -5.40    6.20
   6   1   5    1.20    3.40
   6   1   5   -5.10    4.30
   8  -2  -5   48.10   10.80
   8  -2  -5   44.60   14.50
   8  -2  -5   44.30    7.80
  -8   2   5   49.99    9.10
   7  -2  -5   59.19   11.20
   7  -2  -5   61.69    8.20
   7  -2  -5   78.69    8.50
  -7   2   5   61.49    8.20
  -7   2   5   69.49    8.20
  -7   2   5   52.59   13.10
   6  -2  -5   63.39    4.10
   6  -2  -5   64.49    7.50
   6  -2  -5   61.59   14.60
   6  -2  -5   62.49    7.40
  -6   2   5   58.29    6.40
  -6   2   5   60.09   12.50
  -6   2   5   59.99    7.60
   5  -2  -5  159.08    7.00
   5  -2  -5  158.18   11.20
   5  -2  -5  163.78   10.80
   5  -2  -5  145.49   17.70
  -5   2   5  157.58   15.30
  -5   2   5  172.98   11.30
  -5   2   5  147.89    9.10
   4  -2  -5  503.15   18.50
   4  -2  -5  454.95   29.10
   4  -2  -5  470.75   19.90
  -4   2   5  442.86   17.80
  -4   2   5  483.55   14.70
  -4   2   5  491.65   24.00
   3  -2  -5   47.90    9.50
   3  -2  -5   71.19    6.40
   3  -2  -5   74.19    7.70
   3  -2  -5   77.39    8.40
   3  -2  -5   80.79    5.40
  -3   2   5   76.99    8.40
  -3   2   5   71.59    6.60
  -3   2   5   78.89    4.40
  -3   2   5   69.29    8.30
  -3   2   5   71.99    4.20
   2  -2  -5  198.18   16.70
   2  -2  -5  219.38   12.90
   2  -2  -5  228.58   14.10
   2  -2  -5  217.48   10.40
   2  -2  -5  225.48   11.40
  -2   2   5  234.48   13.30
  -2   2   5  237.58   12.10
  -2   2   5  255.97   14.50
  -2   2   5  229.08    9.20
  -2   2   5  217.58   16.60
  -2   2   5  246.08   14.30
   1  -2  -5  130.99   12.90
   1  -2  -5  164.18   10.00
   1  -2  -5  154.98   10.50
   1  -2  -5  148.99   11.90
   1  -2  -5  144.89    9.50
  -1   2   5  178.08    8.90
  -1   2   5  144.89   11.10
  -1   2   5  153.08   10.60
  -1   2   5  145.59   11.10
  -1   2   5  144.19    9.80
   0  -2  -5  617.44   21.80
   0  -2  -5  617.64   28.40
   0  -2  -5  620.64   22.40
   0  -2  -5  609.94   26.60
   0  -2  -5  573.04   22.20
   0   2   5  588.44   23.20
   0   2   5  594.34   22.10
  -1  -2  -5  782.22   32.40
  -1  -2  -5  750.82   27.10
  -1  -2  -5  765.62   18.80
   1   2   5  783.02   27.30
   1   2   5  740.93   27.80
  -2  -2  -5  145.19   14.60
  -2  -2  -5  148.09   12.30
  -2  -2  -5  164.88    9.10
   2   2   5  167.98   13.80
   2   2   5  147.39   12.20
  -3  -2  -5  279.67   18.60
  -3  -2  -5  285.37   22.30
  -3  -2  -5  266.67   13.70
   3   2   5  253.77   18.50
   3   2   5  301.07   19.30
  -4  -2  -5   11.50    4.90
  -4  -2  -5    7.80    3.40
  -4  -2  -5   -3.10    3.60
   4   2   5    3.20    3.40
   4   2   5   10.80    5.20
  -5  -2  -5    3.00    3.00
  -5  -2  -5   -2.60    5.80
   5   2   5    1.10    3.90
   5   2   5    0.80    4.60
   8  -3  -5   17.70   11.40
   8  -3  -5   17.80    6.60
   8  -3  -5   24.00    5.80
  -8   3   5   29.60   10.50
  -8   3   5   20.80    6.10
   7  -3  -5   48.50    7.50
   7  -3  -5   51.09    8.00
   7  -3  -5   50.19   20.90
   7  -3  -5   59.69   11.40
  -7   3   5   72.69    8.50
  -7   3   5   50.69    8.50
  -7   3   5   76.79   16.60
   6  -3  -5  108.19    9.20
   6  -3  -5  113.59    6.90
   6  -3  -5  105.19   19.20
   6  -3  -5  109.89    9.20
  -6   3   5  108.09    9.30
  -6   3   5  118.89    9.10
  -6   3   5  131.09   15.20
   5  -3  -5   53.79    6.40
   5  -3  -5   48.30    4.40
   5  -3  -5   52.59    6.10
   5  -3  -5   45.00   11.70
  -5   3   5   55.69    6.40
  -5   3   5   48.80   10.60
  -5   3   5   53.69    5.50
   4  -3  -5  331.87   16.30
   4  -3  -5  332.17   25.40
   4  -3  -5  335.67   12.30
   4  -3  -5  334.67   14.40
  -4   3   5  322.67   20.10
  -4   3   5  331.77   14.70
  -4   3   5  335.57   11.90
   3  -3  -5  223.58   19.50
   3  -3  -5  237.08   11.80
   3  -3  -5  211.18    9.80
  -3   3   5  213.98   11.50
  -3   3   5  207.48   14.80
  -3   3   5  207.58    8.20
  -3   3   5  225.28    7.60
   2  -3  -5  138.29   10.50
   2  -3  -5  140.59   12.30
   2  -3  -5  144.09    9.10
   2  -3  -5  157.98    9.80
  -2   3   5  151.38   11.00
  -2   3   5  153.48   10.20
  -2   3   5  133.79   13.10
   1  -3  -5  912.21   38.90
   1  -3  -5  905.51   28.70
   1  -3  -5  988.50   28.10
   1  -3  -5  953.80   27.60
   1  -3  -5  896.21   32.70
  -1   3   5  933.81   28.40
  -1   3   5  835.12   30.80
  -1   3   5  955.00   24.60
  -1   3   5  946.11   29.50
   0  -3  -5  472.85   24.60
   0  -3  -5  450.85   19.70
   0  -3  -5  456.35   19.40
   0   3   5  419.36   19.70
   0   3   5  495.35   24.70
  -1  -3  -5  623.84   16.30
  -1  -3  -5  623.14   30.50
  -1  -3  -5  625.64   25.80
   1   3   5  642.94   26.00
   1   3   5  634.64   26.00
  -2  -3  -5    1.40    1.20
  -2  -3  -5    1.80    2.80
  -2  -3  -5    4.60    2.90
   2   3   5    2.20    2.30
   2   3   5   -1.00    1.70
  -3  -3  -5   62.39   11.50
  -3  -3  -5   51.59   12.50
  -3  -3  -5   56.89    6.10
   3   3   5   43.90    9.40
  -4  -3  -5  229.88   14.10
  -4  -3  -5  212.48   18.10
  -4  -3  -5  175.48   20.30
   4   3   5  208.28   18.40
   4   3   5  219.28   19.60
  -5  -3  -5  130.19   12.20
  -5  -3  -5   88.59   18.20
  -5  -3  -5  128.29   14.60
   5   3   5  114.69   18.50
   5   3   5  119.59   14.60
   8  -4  -5   37.20   14.10
   8  -4  -5   40.10   10.70
   8  -4  -5   15.60    4.50
  -8   4   5   22.90    6.20
  -8   4   5   32.70   10.20
   7  -4  -5   16.40    3.70
   7  -4  -5    9.50    4.00
   7  -4  -5   17.50    4.20
   7  -4  -5   19.40    3.60
   7  -4  -5   11.00    7.40
  -7   4   5   15.60    8.40
  -7   4   5    9.20    3.90
  -7   4   5   10.00    3.50
   6  -4  -5   33.50    5.90
   6  -4  -5   33.10   10.50
   6  -4  -5   34.50    6.10
  -6   4   5   36.00    6.20
  -6   4   5   47.20   10.70
  -6   4   5   44.90    5.70
   5  -4  -5   82.79    7.70
   5  -4  -5   67.39    6.30
   5  -4  -5   58.39   12.90
  -5   4   5   72.19    6.30
  -5   4   5   75.19   13.40
   4  -4  -5  136.59   17.40
   4  -4  -5  131.09    8.80
   4  -4  -5  131.69    7.30
   4  -4  -5  131.99   10.30
  -4   4   5  125.09    6.10
  -4   4   5  134.49    9.30
  -4   4   5  123.19   13.20
  -4   4   5  115.39    7.00
   3  -4  -5  452.15   17.10
   3  -4  -5  416.16   28.60
   3  -4  -5  456.55   20.90
   3  -4  -5  468.65   16.20
  -3   4   5  428.26   17.40
  -3   4   5  435.86   23.00
   2  -4  -5   26.40    4.90
   2  -4  -5   30.70    6.70
   2  -4  -5   31.00    5.40
   2  -4  -5   12.50    5.30
  -2   4   5   33.60    6.10
  -2   4   5   27.70    6.60
  -2   4   5   25.00    3.30
  -2   4   5   32.90    6.80
   1  -4  -5  340.17   20.40
   1  -4  -5  359.66   16.80
   1  -4  -5  350.46   16.60
   1  -4  -5  364.36   25.70
  -1   4   5  381.86   17.90
  -1   4   5  363.76   21.60
  -1   4   5  366.06   20.50
   0  -4  -5   26.40    5.60
   0  -4  -5   19.30    5.90
   0   4   5   20.10    4.90
   0   4   5   26.80    6.00
  -1  -4  -5  119.89    6.50
  -1  -4  -5  110.19   10.90
  -1  -4  -5  118.39   13.40
   1   4   5  136.19   11.80
   1   4   5  109.59   10.90
  -2  -4  -5  328.17   13.60
  -2  -4  -5  341.37   25.30
  -2  -4  -5  332.17   26.80
   2   4   5  304.57   19.60
   2   4   5  355.26   21.70
  -3  -4  -5  120.69   19.30
  -3  -4  -5  157.08   15.50
  -3  -4  -5  182.28   11.30
   3   4   5  149.59   15.30
  -4  -4  -5   14.10    4.40
  -4  -4  -5   29.00    8.80
  -4  -4  -5   24.50    9.80
   4   4   5   24.20    7.40
   4   4   5   16.70    6.90
   8  -5  -5    5.40    4.00
   8  -5  -5   -7.50    7.60
   8  -5  -5    6.70    2.80
  -8   5   5   -8.60    4.10
  -8   5   5    6.50    3.60
   7  -5  -5    1.40    2.90
   7  -5  -5    3.40    7.40
   7  -5  -5    7.70    2.30
   7  -5  -5    2.50    2.40
  -7   5   5    3.90    5.70
  -7   5   5    0.90    2.70
  -7   5   5    1.00    2.50
   6  -5  -5    6.50    2.90
   6  -5  -5   -1.70    1.40
   6  -5  -5    2.40    1.90
  -6   5   5    1.50    2.20
  -6   5   5    1.50    3.40
  -6   5   5   -3.80    2.00
   5  -5  -5   62.49    5.80
   5  -5  -5   77.39    7.20
   5  -5  -5   52.39   12.60
  -5   5   5   66.49    6.40
  -5   5   5   53.49    6.20
  -5   5   5   66.29   12.80
   4  -5  -5   11.50    6.00
   4  -5  -5   24.20    4.30
   4  -5  -5   21.70    3.80
   4  -5  -5   17.80    4.50
  -4   5   5   25.50    5.50
  -4   5   5   21.10    3.60
   3  -5  -5   44.80   10.80
   3  -5  -5   64.79    6.20
   3  -5  -5   64.99    6.40
   3  -5  -5   61.59    8.00
  -3   5   5   76.89    7.20
  -3   5   5   56.79   10.10
   2  -5  -5   80.39    7.40
   2  -5  -5   64.89   13.00
   2  -5  -5   90.09    9.90
   2  -5  -5   82.89    7.80
  -2   5   5   77.39    9.80
  -2   5   5   68.79    8.00
  -2   5   5   84.09    8.20
   1  -5  -5  433.36   19.60
   1  -5  -5  415.76   19.60
   1  -5  -5  402.16   23.60
   1  -5  -5  415.56   29.60
  -1   5   5  424.36   20.30
  -1   5   5  413.56   23.60
  -1   5   5  425.46   20.20
   0  -5  -5  715.03   34.00
   0  -5  -5  736.13   28.70
   0   5   5  746.03   28.60
   0   5   5  745.53   29.30
  -1  -5  -5  284.37   23.30
  -1  -5  -5  303.57   20.30
  -1  -5  -5  296.67   10.80
   1   5   5  318.77   20.30
   1   5   5  263.77   17.80
  -2  -5  -5    4.10    4.20
  -2  -5  -5    7.20    4.80
  -2  -5  -5   15.30    4.10
   2   5   5   11.70    4.70
   2   5   5   10.60    4.40
  -3  -5  -5    4.20    2.50
  -3  -5  -5   -4.60    4.30
  -3  -5  -5    3.50    3.40
   3   5   5   10.70    5.00
   3   5   5    2.40    2.90
   8  -6  -5   -5.00    7.30
   8  -6  -5    3.20    2.80
  -8   6   5   -4.40    3.40
  -8   6   5    1.60    5.70
   7  -6  -5   -1.20    6.50
   7  -6  -5    8.50    3.60
  -7   6   5    3.30    3.80
  -7   6   5    4.20    2.60
   6  -6  -5    8.00    5.00
   6  -6  -5    5.90    2.20
   6  -6  -5    2.50    2.00
  -6   6   5    7.50    3.60
  -6   6   5    9.00    6.00
  -6   6   5    6.70    3.10
   5  -6  -5    2.10    2.00
   5  -6  -5   -7.30    3.00
   5  -6  -5    5.50    2.10
   5  -6  -5    3.30    1.70
  -5   6   5   -1.30    1.70
  -5   6   5    1.40    2.20
  -5   6   5   -2.50    2.00
   4  -6  -5   48.80   12.20
   4  -6  -5   42.00    5.00
   4  -6  -5   44.70    7.50
   4  -6  -5   50.59    5.40
  -4   6   5   36.90    8.40
  -4   6   5   42.50    5.70
  -4   6   5   57.99    5.10
   3  -6  -5  519.35   35.80
   3  -6  -5  505.55   24.10
   3  -6  -5  493.15   19.10
   3  -6  -5  532.25   20.70
  -3   6   5  466.85   26.60
  -3   6   5  525.55   21.20
   2  -6  -5  204.58   22.30
   2  -6  -5  177.98   15.20
   2  -6  -5  161.18   12.00
   2  -6  -5  176.38   12.10
  -2   6   5  200.18   13.40
  -2   6   5  206.68   13.80
  -2   6   5  206.78   17.10
   1  -6  -5  125.19   11.30
   1  -6  -5  138.59   11.30
   1  -6  -5  136.69   14.10
   1  -6  -5  145.29   18.90
  -1   6   5  133.59   14.00
  -1   6   5  118.39   11.30
  -1   6   5  121.79   10.90
   0  -6  -5   39.80    9.40
   0   6   5   46.30    8.40
   0   6   5   48.50    8.40
   0   6   5   33.30    8.40
  -1  -6  -5    7.10    5.30
  -1  -6  -5    2.40    2.10
  -1  -6  -5   -0.20    1.20
   1   6   5    2.80    2.90
   1   6   5   -1.80    2.40
  -2  -6  -5   63.89   14.60
  -2  -6  -5   98.99   12.70
  -2  -6  -5   75.79    7.00
   2   6   5   93.19   15.10
   2   6   5  111.29   13.30
  -3  -6  -5   18.00   11.30
  -3  -6  -5   22.60    5.20
  -3  -6  -5   16.20    6.80
   3   6   5   16.10    6.80
   3   6   5   15.80    7.00
   8  -7  -5   -9.80    4.00
   8  -7  -5   -4.80    7.10
  -8   7   5   -2.20    6.80
  -8   7   5    0.10    4.10
   7  -7  -5   -0.20    3.20
   7  -7  -5    6.90    7.50
  -7   7   5    3.30    4.80
  -7   7   5    2.10    4.40
   6  -7  -5  100.69    6.80
   6  -7  -5   90.19   20.40
  -6   7   5   80.89    8.80
  -6   7   5   95.59    9.50
  -6   7   5   94.69   16.90
   5  -7  -5  292.57   29.10
   5  -7  -5  262.77   12.80
   5  -7  -5  270.87   11.50
  -5   7   5  255.67   13.40
  -5   7   5  255.37   22.90
  -5   7   5  258.47   13.40
   4  -7  -5   99.09    7.80
   4  -7  -5  105.39    8.70
   4  -7  -5   92.99   17.80
   4  -7  -5  105.39    9.90
  -4   7   5   98.59    8.80
  -4   7   5  108.29   13.50
   3  -7  -5   21.60    5.30
   3  -7  -5   15.00    4.40
   3  -7  -5   16.20    8.00
   3  -7  -5   21.30    4.60
  -3   7   5   19.90    6.40
  -3   7   5   26.10    5.60
   2  -7  -5  339.47   30.70
   2  -7  -5  342.87   19.10
   2  -7  -5  344.97   22.40
   2  -7  -5  346.67   17.70
  -2   7   5  313.07   18.40
  -2   7   5  351.96   23.90
   1  -7  -5   31.80    8.00
   1  -7  -5   34.90    7.20
  -1   7   5   42.20    7.90
  -1   7   5   43.00    8.60
  -1   7   5   34.50    9.10
   0  -7  -5  110.99   14.40
   0  -7  -5  111.59   12.10
   0   7   5  116.39   11.00
   0   7   5  118.19   12.60
   0   7   5  102.39   13.50
  -1  -7  -5   51.69   10.50
  -1  -7  -5   45.30    4.40
  -1  -7  -5   32.40    9.60
   1   7   5   49.40   10.60
   1   7   5   24.90    6.60
  -2  -7  -5    3.50    3.70
  -2  -7  -5   10.50    3.30
  -2  -7  -5    0.40    6.20
   2   7   5    6.90    5.40
   2   7   5   11.80    6.20
   7  -8  -5  120.69   14.30
   7  -8  -5   84.09   20.30
  -7   8   5  103.19   11.50
  -7   8   5   75.99   19.80
   6  -8  -5    2.10    6.40
  -6   8   5    2.80    5.70
  -6   8   5   10.10    3.90
   5  -8  -5   -2.40    4.80
   5  -8  -5    2.00    2.60
  -5   8   5    8.30    4.80
   4  -8  -5  160.28   22.70
   4  -8  -5  149.99   11.90
   4  -8  -5  157.28   11.90
   4  -8  -5  176.88   10.50
  -4   8   5  146.19   16.70
  -4   8   5  175.18   12.50
   3  -8  -5   79.39    9.20
   3  -8  -5   86.39    8.20
   3  -8  -5   82.89   19.20
   3  -8  -5   81.29   10.50
  -3   8   5   82.49    9.10
  -3   8   5   70.69   13.80
   2  -8  -5  257.97   28.80
   2  -8  -5  263.97   17.80
   2  -8  -5  265.97   21.00
   2  -8  -5  293.37   21.40
  -2   8   5  286.17   22.50
  -2   8   5  260.27   17.70
   1  -8  -5   92.99   11.30
   1  -8  -5   89.69   18.30
   1  -8  -5   82.79   14.60
  -1   8   5  135.99   15.50
  -1   8   5   90.39   10.10
  -1   8   5   88.39   11.50
   0  -8  -5   11.60    5.60
   0  -8  -5    3.90    2.80
   0   8   5   -0.20    3.60
   0   8   5    3.60    3.60
   0   8   5   -1.60    3.70
  -1  -8  -5   28.00   10.60
   1   8   5   28.90    7.60
   1   8   5   19.20    7.00
   1   8   5   34.80    7.70
   6  -9  -5  117.59    9.50
   6  -9  -5   85.99   19.40
   5  -9  -5   38.60    7.20
   5  -9  -5   14.60    8.80
  -5   9   5   40.00   10.90
   4  -9  -5   59.39    8.50
   4  -9  -5   72.49    9.10
   4  -9  -5   88.59   19.10
  -4   9   5   58.59   12.60
   3  -9  -5   81.89   21.20
   3  -9  -5   46.50    9.60
   3  -9  -5   92.79   10.20
  -3   9   5   89.39   16.50
  -3   9   5   65.69   10.30
   2  -9  -5   14.30    5.40
   2  -9  -5    0.80    8.60
   2  -9  -5   15.90    6.70
  -2   9   5    9.40    5.90
  -2   9   5   20.40    8.80
   1  -9  -5   38.50    9.20
   1  -9  -5   35.30    8.40
  -1   9   5   23.00    7.30
  -1   9   5   45.80   11.40
   4 -10  -5    8.30    6.40
   4 -10  -5    7.30    3.90
   4 -10  -5    6.60    3.40
  -4  10   5   -4.70    6.80
   3 -10  -5   25.30    6.00
   3 -10  -5   27.00   13.30
  -3  10   5    5.00    5.80
   1  11  -6   10.60    4.20
  -1 -11   6    9.60    4.00
  -1 -11   6    8.60    5.30
   0  11  -6   64.59    9.90
   0 -11   6   55.59    9.20
   0 -11   6   62.29   16.60
  -1  11  -6    4.70    3.10
   1 -11   6    0.60    2.10
   1 -11   6    4.90    3.10
  -2  11  -6   15.40    4.90
   2 -11   6   12.90    5.10
  -3  11  -6   10.70    5.10
   3 -11   6   19.00    5.40
  -4  11  -6   17.60    5.00
   4 -11   6   27.50    6.40
   4 -11   6   22.50    9.70
   2  10  -6   11.40    6.10
   2  10  -6   21.20    5.20
  -2 -10   6   32.10    7.90
  -2 -10   6   22.80    6.10
   1  10  -6    9.40    4.20
   1  10  -6    5.00    2.90
  -1 -10   6    1.20    2.50
  -1 -10   6    6.00    3.90
   0  10  -6    5.00    4.30
   0  10  -6    6.70    3.20
   0 -10   6    3.90    3.40
   0 -10   6    7.20    3.90
  -1  10  -6    0.50    2.70
  -1  10  -6   -2.30    2.50
   1 -10   6    1.20    2.30
   1 -10   6   -0.20    3.80
   1 -10   6   -3.10    1.90
  -2  10  -6   -0.50    2.10
   2 -10   6    4.50    3.20
  -3  10  -6   19.50    5.70
   3 -10   6   11.00    4.20
  -4  10  -6   -3.90    1.80
   4 -10   6    1.00    2.70
   4 -10   6    2.40    3.10
  -5  10  -6    3.20    3.50
   5 -10   6    4.90    3.50
   5 -10   6    2.20    2.60
   3   9  -6    1.80    5.20
   3   9  -6    2.10    2.30
  -3  -9   6    3.90    3.00
  -3  -9   6    8.90    4.80
   2   9  -6   12.60    5.30
   2   9  -6    4.30    2.40
  -2  -9   6    3.40    4.00
  -2  -9   6    7.60    3.90
   1   9  -6   -3.30    4.80
  -1  -9   6   -1.70    1.50
  -1  -9   6   -6.60    4.20
  -1  -9   6    2.40    2.20
   0   9  -6   18.40    4.70
   0   9  -6   35.90    7.00
   0  -9   6   23.30    6.80
   0  -9   6   21.20    5.20
   0  -9   6   23.50    5.20
  -1   9  -6    2.90    2.70
  -1   9  -6    3.00    2.90
   1  -9   6    2.90    2.50
   1  -9   6    1.10    3.30
   1  -9   6    3.30    1.70
  -2   9  -6   13.30    3.90
  -2   9  -6   15.90    4.00
   2  -9   6   20.10    4.40
   2  -9   6   18.40    5.00
   2  -9   6   16.50    4.20
  -3   9  -6    4.10    2.40
   3  -9   6   -1.70    2.40
   3  -9   6    2.40    2.70
   3  -9   6   -2.00    3.40
  -4   9  -6   -0.90    2.20
   4  -9   6   -2.40    2.20
   4  -9   6   -1.50    3.50
  -5   9  -6    9.80    4.20
  -5   9  -6   14.20    5.60
   5  -9   6    7.00    4.00
   5  -9   6    3.30    3.90
   4   8  -6   45.10    6.60
   4   8  -6   21.50   10.90
   4   8  -6   38.80    9.30
  -4  -8   6   43.70    9.70
  -4  -8   6   45.00    8.40
   3   8  -6   20.30    9.30
   3   8  -6   28.40    7.50
   3   8  -6   30.10    5.20
  -3  -8   6   27.30    5.70
  -3  -8   6   38.00    8.60
   2   8  -6  115.39   11.80
   2   8  -6  113.59   23.00
   2   8  -6  110.79    9.40
  -2  -8   6   96.89    9.90
   1   8  -6   14.70    3.90
   1   8  -6   11.60    4.10
  -1  -8   6   19.50    5.60
  -1  -8   6   12.60    5.40
  -1  -8   6   13.80    4.10
   0   8  -6    9.30    3.70
   0   8  -6    8.70    3.50
   0  -8   6    6.10    2.40
   0  -8   6    6.90    3.00
   0  -8   6    6.20    4.40
  -1   8  -6  153.38   11.00
  -1   8  -6  152.38   11.80
   1  -8   6  159.08   12.50
   1  -8   6  158.08    9.90
   1  -8   6  146.49   11.80
  -2   8  -6   49.50    6.10
  -2   8  -6   51.49    8.60
   2  -8   6   54.59    5.60
   2  -8   6   54.59    6.40
   2  -8   6   43.30    6.40
   2  -8   6   29.20   10.70
   2  -8   6   62.99    5.10
   2  -8   6   52.79    8.50
  -3   8  -6   46.90    5.40
  -3   8  -6   39.00    7.30
   3  -8   6   65.69    9.10
   3  -8   6   50.39    9.00
   3  -8   6   63.19    8.60
  -4   8  -6   15.60    4.90
  -4   8  -6   21.30    6.50
   4  -8   6   26.40    8.40
   4  -8   6   18.30    5.20
  -5   8  -6   17.80    6.50
  -5   8  -6    5.20    3.80
   5  -8   6   16.00    5.40
  -6   8  -6   33.10    9.80
  -6   8  -6   18.40    5.50
   6  -8   6    9.30    5.80
   5   7  -6   20.00    6.40
   5   7  -6   42.80    7.80
   5   7  -6   36.20   15.50
  -5  -7   6   22.70    5.90
  -5  -7   6   36.00    9.70
   4   7  -6  126.89    9.80
   4   7  -6  107.09   21.80
   4   7  -6  157.78   15.60
   4   7  -6  125.49    8.80
  -4  -7   6  157.08   15.50
  -4  -7   6  154.48   12.10
   3   7  -6   64.79    6.40
   3   7  -6   77.89   18.10
   3   7  -6   82.19    6.40
   3   7  -6   91.39    7.70
   3   7  -6   62.59   10.10
  -3  -7   6   87.59    8.90
   2   7  -6   -6.80    3.70
   2   7  -6    6.40    2.40
   2   7  -6   10.00    4.80
  -2  -7   6   11.50    4.10
  -2  -7   6    3.10    2.40
   1   7  -6  180.18   13.50
   1   7  -6  199.28   12.50
   1   7  -6  184.58   20.60
  -1  -7   6  160.58   12.10
  -1  -7   6  177.48   12.30
   0   7  -6   94.09    8.60
   0   7  -6  105.99    9.50
   0  -7   6   97.99    9.30
   0  -7   6   98.79    8.50
   0  -7   6  100.89   10.20
  -1   7  -6  284.07   15.90
  -1   7  -6  271.87   18.10
  -1   7  -6  275.17   11.00
   1  -7   6  273.47   11.00
   1  -7   6  277.67   16.30
   1  -7   6  292.37   13.30
   1  -7   6  270.97   11.50
   1  -7   6  249.58   16.30
   1  -7   6  278.37   21.30
  -2   7  -6  225.98   14.50
  -2   7  -6  239.48   12.30
  -2   7  -6  231.88   12.80
   2  -7   6  210.58   12.40
   2  -7   6  226.18   12.40
   2  -7   6  238.68   17.40
   2  -7   6  256.77   14.30
   2  -7   6  238.98   10.60
   2  -7   6  227.78   15.30
  -3   7  -6   47.30    9.10
  -3   7  -6   52.49    8.10
   3  -7   6   59.39    5.50
   3  -7   6   74.89    8.40
  -4   7  -6   44.50    9.20
  -4   7  -6   49.70    7.80
  -4   7  -6   55.99    6.70
   4  -7   6   59.59   10.30
  -5   7  -6    6.00    5.00
  -5   7  -6    6.00    3.50
  -6   7  -6   13.40    4.80
  -6   7  -6   24.10    7.70
   6  -7   6   27.30    7.70
   6   6  -6   72.19   18.40
   6   6  -6   40.50   10.60
   6   6  -6   65.29   12.40
  -6  -6   6   52.89    8.40
  -6  -6   6   44.30   11.10
   5   6  -6   56.39   11.60
   5   6  -6   37.10   13.90
   5   6  -6   43.40    7.80
  -5  -6   6   52.99   11.70
   4   6  -6    5.80    3.50
   4   6  -6    6.20    2.90
   4   6  -6   -8.10    5.60
   4   6  -6    3.70    1.80
  -4  -6   6    2.60    2.70
  -4  -6   6    3.30    2.90
   3   6  -6  240.58   12.20
   3   6  -6  245.28   26.30
   3   6  -6  258.17   12.50
   3   6  -6  228.88   16.90
   3   6  -6  224.38   11.90
  -3  -6   6  238.38   16.70
  -3  -6   6  259.67   14.40
   2   6  -6  190.78   11.30
   2   6  -6  147.59   19.30
   2   6  -6  180.08    9.10
   2   6  -6  172.68   20.30
  -2  -6   6  174.58   13.20
  -2  -6   6  173.08   11.40
   1   6  -6  137.59   11.40
   1   6  -6  140.59   10.20
   1   6  -6  167.98   18.50
  -1  -6   6  142.19   10.60
  -1  -6   6  159.58   13.40
  -1  -6   6  147.89   10.90
   0   6  -6  293.37   15.40
   0   6  -6  312.67   22.30
   0   6  -6  294.87   15.80
   0   6  -6  286.97   10.80
   0  -6   6  297.37   21.80
   0  -6   6  286.27   11.20
   0  -6   6  302.27   14.30
   0  -6   6  312.57   16.60
   0  -6   6  275.37   16.60
  -1   6  -6  182.18    9.80
  -1   6  -6  178.18   11.80
  -1   6  -6  194.88   12.80
   1  -6   6  191.78   10.60
   1  -6   6  187.88   10.40
   1  -6   6  179.28    9.60
   1  -6   6  184.38   15.10
   1  -6   6  193.78   13.00
  -2   6  -6  314.57   15.20
  -2   6  -6  308.87   16.40
  -2   6  -6  326.17   15.80
   2  -6   6  316.77   16.90
   2  -6   6  340.67   16.70
   2  -6   6  326.87   13.10
   2  -6   6  261.37   14.80
   2  -6   6  312.37   15.10
  -3   6  -6   13.70    4.90
  -3   6  -6    7.30    3.20
  -3   6  -6    7.30    3.20
   3  -6   6    7.70    2.70
   3  -6   6    9.90    2.50
   3  -6   6    1.10    2.10
  -4   6  -6   11.40    3.80
  -4   6  -6   16.80    5.10
   4  -6   6   15.40    3.40
   4  -6   6   11.50    3.20
   4  -6   6   14.00    4.90
  -5   6  -6  132.59   11.20
  -5   6  -6  163.68   16.00
  -5   6  -6  153.18   13.00
   5  -6   6  146.09    8.90
   5  -6   6  153.18   15.50
  -6   6  -6   20.90    7.50
   6  -6   6   23.10    4.20
   6  -6   6   28.80    8.80
   6   5  -6    1.10    2.60
   6   5  -6   -8.30    6.60
   6   5  -6    1.00    3.50
  -6  -5   6   -3.20    3.60
  -6  -5   6    5.80    3.30
   5   5  -6   45.50   15.50
   5   5  -6   58.39   10.20
   5   5  -6   71.79    5.10
   5   5  -6   63.79   10.10
   5   5  -6   63.99   10.40
  -5  -5   6   76.19    7.60
  -5  -5   6   75.99   13.00
   4   5  -6  137.19   10.90
   4   5  -6   92.19   19.30
   4   5  -6  133.19    7.90
   4   5  -6  134.99    9.10
   4   5  -6  146.29   13.60
  -4  -5   6  143.19   13.40
  -4  -5   6  127.39    9.60
   3   5  -6  130.49   18.40
   3   5  -6  127.49    8.50
   3   5  -6  121.79    9.20
   3   5  -6  108.29   11.20
  -3  -5   6  110.59   10.70
  -3  -5   6  133.69    9.60
   2   5  -6  242.08   15.70
   2   5  -6  227.88   12.90
   2   5  -6  213.38   10.90
   2   5  -6  261.97   23.30
  -2  -5   6  245.48   13.20
  -2  -5   6  216.48   15.70
  -2  -5   6  221.38   14.10
   1   5  -6   10.10    3.10
   1   5  -6   15.90    6.10
   1   5  -6    7.50    3.50
   1   5  -6    6.90    2.30
  -1  -5   6    8.80    3.20
  -1  -5   6    9.00    3.00
  -1  -5   6    9.70    3.10
   0   5  -6  170.88   15.10
   0   5  -6  173.88    9.40
   0   5  -6  176.28   11.20
   0   5  -6  193.28   12.60
   0  -5   6  164.38    9.20
   0  -5   6  183.58   15.60
   0  -5   6  192.18   11.10
   0  -5   6  186.58   13.20
  -1   5  -6    2.00    2.10
  -1   5  -6    3.70    1.80
  -1   5  -6    2.10    2.40
   1  -5   6    6.30    2.40
   1  -5   6    3.30    2.80
   1  -5   6    1.20    1.90
   1  -5   6    3.10    2.10
   1  -5   6    2.70    1.70
  -2   5  -6   42.40    7.80
  -2   5  -6   32.30    5.70
  -2   5  -6   48.60    8.70
  -2   5  -6   37.30    6.50
   2  -5   6   46.30    5.00
   2  -5   6   49.00    6.80
   2  -5   6   39.10    7.10
   2  -5   6   48.40    5.90
  -3   5  -6  343.97   17.30
  -3   5  -6  321.77   19.40
  -3   5  -6  340.87   18.10
   3  -5   6  347.97   14.50
   3  -5   6  338.27   16.00
   3  -5   6  357.96   19.60
  -4   5  -6   25.10    6.80
  -4   5  -6   30.10    6.80
  -4   5  -6   30.00    5.90
   4  -5   6   28.50    5.40
   4  -5   6   27.40    5.20
   4  -5   6   29.60    7.40
  -5   5  -6    1.30    3.50
  -5   5  -6   22.40    6.30
  -5   5  -6   22.30    5.30
   5  -5   6    3.70    3.30
   5  -5   6    8.00    3.00
   5  -5   6    7.20    3.60
  -6   5  -6   15.60    4.70
  -6   5  -6   10.30    5.50
   6  -5   6   25.30    5.50
   6  -5   6   20.60    6.80
   7   4  -6    1.70    3.60
   7   4  -6    7.90    5.00
  -7  -4   6   -5.80    3.00
  -7  -4   6    4.50    3.10
  -7  -4   6   -0.50    5.00
   6   4  -6   20.40    6.40
   6   4  -6   23.50    6.40
   6   4  -6   20.30    9.20
  -6  -4   6   37.70    5.90
   5   4  -6    1.40    2.80
   5   4  -6   11.20    5.30
   5   4  -6    5.20    5.30
   5   4  -6    7.70    4.10
   5   4  -6    9.90    2.00
  -5  -4   6    2.40    2.00
   4   4  -6   54.79    4.60
   4   4  -6   48.90    6.00
   4   4  -6   56.29   10.10
   4   4  -6   49.80   13.70
  -4  -4   6   54.79    5.60
  -4  -4   6   41.60    7.90
   3   4  -6    4.20    3.70
   3   4  -6    3.40    2.00
   3   4  -6    4.40    2.50
   3   4  -6    6.30    2.30
  -3  -4   6    5.00    2.40
  -3  -4   6    2.60    1.40
   2   4  -6   17.60    3.80
   2   4  -6   20.40    5.00
   2   4  -6   17.40    3.70
   2   4  -6   12.80    6.40
  -2  -4   6   16.70    4.80
  -2  -4   6   15.20    4.10
  -2  -4   6   16.20    3.70
   1   4  -6  218.08   14.00
   1   4  -6  222.88   10.80
   1   4  -6  235.88   18.70
   1   4  -6  252.97   12.60
  -1  -4   6  238.88   15.10
  -1  -4   6  226.98   18.00
  -1  -4   6  220.28   11.10
  -1  -4   6  242.08   13.30
   0   4  -6   51.89    8.10
   0   4  -6   55.99    7.80
   0   4  -6   43.90    7.70
   0   4  -6   49.50    5.20
   0  -4   6   49.40    5.50
   0  -4   6   54.79    8.60
   0  -4   6   48.60    5.40
   0  -4   6   52.19    7.10
  -1   4  -6  877.01   28.90
  -1   4  -6  877.01   25.00
  -1   4  -6  863.91   26.40
  -1   4  -6  849.91   25.70
   1  -4   6  872.61   24.60
   1  -4   6  842.12   26.10
   1  -4   6  858.51   26.80
   1  -4   6  911.41   29.30
  -2   4  -6   38.60    6.10
  -2   4  -6   46.60    7.80
  -2   4  -6   55.79    8.80
   2  -4   6   46.60    8.60
   2  -4   6   47.50    6.30
   2  -4   6   48.50    5.20
  -3   4  -6    9.50    3.40
  -3   4  -6   -1.60    2.30
  -3   4  -6    0.00    2.80
   3  -4   6    4.40    2.20
   3  -4   6    0.30    1.60
   3  -4   6   -2.30    1.80
  -4   4  -6    5.50    2.30
  -4   4  -6    3.90    3.60
  -4   4  -6    4.70    3.60
   4  -4   6    1.90    2.60
   4  -4   6   -2.60    2.20
   4  -4   6    3.10    2.10
  -5   4  -6    5.30    3.30
  -5   4  -6    4.20    2.50
  -5   4  -6   -0.30    4.40
   5  -4   6    2.10    4.00
   5  -4   6    4.30    3.50
   5  -4   6    3.60    2.70
  -6   4  -6    2.70    4.40
  -6   4  -6   -4.60    3.00
  -6   4  -6   13.60    6.60
   6  -4   6   -1.20    2.40
   6  -4   6    5.70    4.80
   7   3  -6   -6.80    5.70
   7   3  -6   -1.30    2.80
   7   3  -6    7.30    4.60
  -7  -3   6    2.20    3.70
  -7  -3   6    9.80    3.40
  -7  -3   6    1.90    2.70
   6   3  -6   -1.10    4.60
   6   3  -6    5.70    2.80
   6   3  -6   -2.10    2.10
  -6  -3   6    3.40    2.10
  -6  -3   6    1.10    2.10
   5   3  -6   32.50    7.60
   5   3  -6   30.80   10.80
   5   3  -6   21.30    5.90
  -5  -3   6   27.90    7.00
  -5  -3   6   31.20    4.80
   4   3  -6   10.70    6.40
   4   3  -6   16.30    4.50
   4   3  -6   12.30    3.80
   4   3  -6   20.80    3.20
  -4  -3   6   17.00    3.30
  -4  -3   6   18.80    5.60
   3   3  -6  149.79    8.50
   3   3  -6  152.38   12.20
   3   3  -6  145.99   10.60
   3   3  -6  178.48   19.30
   3   3  -6  153.18    8.10
  -3  -3   6  154.28   11.60
  -3  -3   6  155.98    9.00
   2   3  -6  201.08   10.30
   2   3  -6  209.68   11.60
   2   3  -6  196.58   13.60
   2   3  -6  216.58   19.10
  -2  -3   6  204.38   14.30
  -2  -3   6  199.18   12.40
  -2  -3   6  193.38   10.70
  -2  -3   6  188.88   16.90
   1   3  -6  340.27   21.00
   1   3  -6  328.97   14.10
   1   3  -6  348.47   17.70
   1   3  -6  333.77   14.20
   1   3  -6  341.87   15.30
  -1  -3   6  327.77   14.30
  -1  -3   6  321.17   17.70
  -1  -3   6  322.77   10.30
  -1  -3   6  325.67   15.10
  -1  -3   6  338.17   19.70
   0   3  -6   36.10    5.80
   0   3  -6   35.60    4.60
   0   3  -6   34.00    6.30
   0   3  -6   41.80    7.30
   0   3  -6   37.60    4.70
   0  -3   6   37.70    4.80
   0  -3   6   32.60    5.90
   0  -3   6   31.30    5.60
   0  -3   6   42.00    6.80
   0  -3   6   38.90    6.50
   0  -3   6   40.70    6.30
  -1   3  -6   31.40    6.50
  -1   3  -6   26.30    5.20
  -1   3  -6   24.80    4.80
  -1   3  -6   17.70    4.10
   1  -3   6   23.20    5.00
   1  -3   6   29.50    5.10
   1  -3   6   23.20    4.70
   1  -3   6   23.50    5.40
  -2   3  -6   -1.10    1.40
  -2   3  -6   -1.00    0.90
  -2   3  -6   -0.90    1.20
   2  -3   6   -0.20    1.80
   2  -3   6    3.40    2.10
  -3   3  -6   57.39    7.10
  -3   3  -6   46.80    5.80
  -3   3  -6   39.20    7.70
   3  -3   6   56.29    6.20
   3  -3   6   37.30    6.80
   3  -3   6   40.60    8.00
  -4   3  -6   32.90    8.20
  -4   3  -6   22.30    6.40
  -4   3  -6   17.30    4.20
   4  -3   6   18.00    5.70
   4  -3   6   22.40    5.40
   4  -3   6   18.30    4.70
  -5   3  -6   14.80    5.80
  -5   3  -6   18.60    4.80
  -5   3  -6   18.50    6.70
   5  -3   6   20.20    7.40
   5  -3   6   23.90    5.50
   5  -3   6   14.50    4.50
  -6   3  -6   -1.20    2.60
  -6   3  -6   -2.60    2.70
  -6   3  -6    6.50    5.50
   6  -3   6   -3.00    4.50
   6  -3   6    1.00    2.60
   8   2  -6   21.10   10.90
   8   2  -6    9.90    5.30
   8   2  -6    4.40    4.90
  -8  -2   6   20.00    5.90
  -8  -2   6   18.70    7.60
   7   2  -6   40.30    9.60
   7   2  -6   27.20   11.50
   7   2  -6   39.70    8.40
  -7  -2   6   34.70    4.90
  -7  -2   6   30.80    8.00
  -7  -2   6   36.40    7.50
   6   2  -6   59.79   10.90
   6   2  -6   53.99   14.80
   6   2  -6   81.09   10.20
  -6  -2   6   48.70    9.10
  -6  -2   6   60.79    5.00
   5   2  -6  198.98   23.20
   5   2  -6  209.18   15.60
  -5  -2   6  187.18   14.20
  -5  -2   6  177.88    8.30
   4   2  -6  154.48    7.70
   4   2  -6  154.28   12.60
   4   2  -6  149.69   18.40
  -4  -2   6  149.69    7.70
  -4  -2   6  151.08   11.90
  -4  -2   6  159.18   12.10
   3   2  -6  130.09   10.10
   3   2  -6  142.19    8.60
   3   2  -6  146.59   16.80
   3   2  -6  153.68   12.50
   3   2  -6  108.09   12.90
   3   2  -6  150.78    8.10
  -3  -2   6  140.19    8.10
  -3  -2   6  150.78    9.90
  -3  -2   6  150.48   10.80
   2   2  -6  112.89    7.40
   2   2  -6  123.29   10.50
   2   2  -6  136.39    9.60
   2   2  -6  116.89    9.10
   2   2  -6  107.79   12.50
  -2  -2   6  119.89    7.30
  -2  -2   6  135.99   13.50
  -2  -2   6  118.89    9.20
  -2  -2   6  111.79   10.10
  -2  -2   6  104.89    8.50
   1   2  -6  650.23   22.00
   1   2  -6  694.23   26.00
   1   2  -6  660.13   22.00
   1   2  -6  689.03   28.80
  -1  -2   6  737.03   28.00
  -1  -2   6  698.23   22.80
  -1  -2   6  707.83   22.90
  -1  -2   6  654.23   22.50
  -1  -2   6  726.03   19.60
  -1  -2   6  712.23   26.90
   0   2  -6  255.77   14.40
   0   2  -6  275.87   13.20
   0   2  -6  255.07   15.50
   0   2  -6  280.77   14.10
   0  -2   6  261.97   14.00
   0  -2   6  270.07   13.30
   0  -2   6  274.17   15.70
   0  -2   6  257.47   13.80
   0  -2   6  280.07   14.10
   0  -2   6  268.97   12.50
  -1   2  -6  283.67   16.90
  -1   2  -6  258.97   13.30
  -1   2  -6  252.67   14.30
   1  -2   6  265.07   14.80
   1  -2   6  257.17   12.00
   1  -2   6  277.77   14.00
   1  -2   6  255.97   15.40
  -2   2  -6   74.69    7.10
  -2   2  -6   60.19    7.70
  -2   2  -6   59.59   10.10
   2  -2   6   61.69    8.00
   2  -2   6   64.89    8.00
   2  -2   6   72.59    7.30
  -3   2  -6  312.37   20.20
  -3   2  -6  286.67   16.40
  -3   2  -6  315.17   19.20
  -3   2  -6  301.37   15.10
   3  -2   6  294.87   17.60
   3  -2   6  309.57   19.60
   3  -2   6  306.47   16.50
  -4   2  -6   27.70    7.60
  -4   2  -6   27.50    7.10
  -4   2  -6   28.20    6.00
  -4   2  -6   24.70    5.00
   4  -2   6   40.80    7.90
   4  -2   6   34.20    6.70
   4  -2   6   31.30    7.70
  -5   2  -6    6.00    3.60
  -5   2  -6   -1.90    2.10
  -5   2  -6   -8.10    3.90
   5  -2   6   -1.70    2.30
   5  -2   6    2.00    2.90
  -6   2  -6   23.00    7.10
  -6   2  -6   21.60    5.50
  -6   2  -6   13.90    7.00
   6  -2   6   11.60    6.40
   6  -2   6   18.00    5.20
   8   1  -6   25.40   13.20
   8   1  -6   38.80    9.80
   8   1  -6   39.00   10.30
  -8  -1   6   83.79   18.80
  -8  -1   6   44.90   12.90
   7   1  -6   99.59   11.60
   7   1  -6   61.39   18.90
   7   1  -6   97.29   12.60
  -7  -1   6   71.79   11.60
  -7  -1   6   83.59    9.20
   6   1  -6   87.19   18.60
   6   1  -6   71.69   12.10
  -6  -1   6   90.49   10.20
   5   1  -6   -1.00    2.90
   5   1  -6    0.50    1.40
  -5  -1   6    7.10    3.90
  -5  -1   6    3.40    1.20
  -5  -1   6    7.10    3.50
   4   1  -6  108.59    6.30
   4   1  -6  103.79    9.10
   4   1  -6   97.99    9.30
   4   1  -6   77.89   15.10
   4   1  -6   92.39    9.80
  -4  -1   6  112.69   10.00
  -4  -1   6  106.29   10.10
  -4  -1   6   97.29    5.40
   3   1  -6  366.66   15.70
   3   1  -6  399.16   28.40
   3   1  -6  398.56   20.50
   3   1  -6  369.56   17.10
   3   1  -6  372.96   17.80
  -3  -1   6  365.66   16.50
  -3  -1   6  401.76   18.00
  -3  -1   6  394.96   14.60
   2   1  -6  531.95   22.70
   2   1  -6  541.45   27.80
   2   1  -6  513.85   20.10
   2   1  -6  519.05   19.40
  -2  -1   6  530.05   18.10
  -2  -1   6  544.15   20.50
  -2  -1   6  487.25   25.30
  -2  -1   6  528.85   19.90
  -2  -1   6  488.45   22.40
  -2  -1   6  543.65   18.40
   1   1  -6 1350.96   41.20
   1   1  -6 1326.67   34.30
   1   1  -6 1334.17   33.60
   1   1  -6 1357.76   38.90
  -1  -1   6 1322.67   33.60
  -1  -1   6 1385.76   35.00
  -1  -1   6 1342.87   30.10
  -1  -1   6 1301.67   39.00
  -1  -1   6 1266.77   37.90
  -1  -1   6 1321.17   33.50
   0   1  -6  467.65   19.60
   0   1  -6  455.55   17.70
   0   1  -6  444.26   21.30
   0   1  -6  456.75   19.20
   0   1  -6  477.75   20.20
   0  -1   6  469.25   21.30
   0  -1   6  456.95   18.30
   0  -1   6  475.65   18.80
   0  -1   6  473.15   19.30
   0  -1   6  443.26   15.00
   0  -1   6  486.95   20.00
  -1   1  -6  677.23   21.40
  -1   1  -6  706.93   22.40
  -1   1  -6  657.13   27.50
  -1   1  -6  613.24   36.40
   1  -1   6  659.23   26.30
   1  -1   6  630.04   18.50
   1  -1   6  551.44   34.80
  -2   1  -6   39.10    5.20
  -2   1  -6   28.50    5.40
  -2   1  -6   34.50    4.60
  -2   1  -6   20.90    5.20
  -2   1  -6   24.10    6.30
   2  -1   6   27.40    6.50
   2  -1   6   26.00    5.20
   2  -1   6   34.60    7.50
   2  -1   6   25.90    4.80
  -3   1  -6    4.10    2.90
  -3   1  -6   10.00    3.40
  -3   1  -6    9.00    4.50
  -3   1  -6    7.50    3.30
   3  -1   6    4.10    3.00
   3  -1   6    3.50    2.00
   3  -1   6    3.90    3.30
  -4   1  -6  156.38   14.90
  -4   1  -6  187.78   13.90
  -4   1  -6  169.58   11.70
  -4   1  -6  162.28   16.20
   4  -1   6  147.19   15.90
   4  -1   6  139.49   25.50
  -5   1  -6   33.00    7.20
  -5   1  -6   43.50   10.10
  -5   1  -6   47.70   10.80
  -5   1  -6   34.60    6.30
   5  -1   6   34.80    8.00
   5  -1   6   39.20   10.30
  -6   1  -6   25.50    7.60
  -6   1  -6   30.60    8.30
  -6   1  -6   26.10   10.30
  -6   1  -6   25.60    6.10
   6  -1   6   10.20    5.90
   8   0  -6   21.50   13.50
   8   0  -6    8.60    4.00
   8   0  -6   16.50    6.50
  -8   0   6   24.50    6.40
   7   0  -6   10.20    4.70
   7   0  -6    6.80    6.50
   7   0  -6    9.60    4.00
  -7   0   6   19.90    6.00
  -7   0   6   13.10    3.90
   6   0  -6   47.20   12.80
   6   0  -6   63.19   10.40
  -6   0   6   61.99    6.80
  -6   0   6   69.69   13.40
  -6   0   6   59.19    9.90
   5   0  -6  235.78   23.90
   5   0  -6  243.98   15.30
   5   0  -6  255.47   16.40
  -5   0   6  246.18   15.10
  -5   0   6  235.68   17.90
   4   0  -6  284.47   24.20
   4   0  -6  298.97   16.30
   4   0  -6  305.97   17.40
   4   0  -6  297.77   15.70
  -4   0   6  315.77   16.30
  -4   0   6  308.97   18.20
  -4   0   6  290.07    9.10
  -4   0   6  316.37   10.50
   3   0  -6  467.85   27.90
   3   0  -6  464.75   22.80
   3   0  -6  450.85   18.40
   3   0  -6  473.05   19.50
  -3   0   6  465.35   19.70
  -3   0   6  452.25   14.60
  -3   0   6  445.86   18.60
   2   0  -6  391.06   18.00
   2   0  -6  438.56   20.60
   2   0  -6  416.56   23.90
   2   0  -6  398.16   16.80
  -2   0   6  429.16   17.60
  -2   0   6  394.06   16.90
  -2   0   6  423.66   20.20
  -2   0   6  409.76   14.80
  -2   0   6  414.76   18.40
  -2   0   6  416.96   23.00
   1   0  -6 1478.05   35.70
   1   0  -6 1484.65   44.20
   1   0  -6 1389.16   35.40
   1   0  -6 1449.15   36.90
   1   0  -6 1421.86   41.40
  -1   0   6 1410.26   42.00
  -1   0   6 1448.16   40.80
  -1   0   6 1444.66   28.70
  -1   0   6 1460.65   37.80
  -1   0   6 1413.76   35.70
   0   0  -6   73.59    8.70
   0   0  -6   82.89    8.80
   0   0  -6   75.59    7.60
   0   0  -6   68.29    7.30
   0   0  -6   76.99    7.20
   0   0   6   77.19    8.60
   0   0   6   76.79    5.00
   0   0   6   70.09    7.60
   0   0   6   77.19    7.00
   0   0   6   75.29    7.40
  -1   0  -6   57.09    7.10
  -1   0  -6   46.30    4.90
  -1   0  -6   34.90    6.40
  -1   0  -6   44.60    8.30
   1   0   6   49.30    6.30
   1   0   6   56.69    4.50
   1   0   6   53.49    8.70
   1   0   6   36.40    6.90
  -2   0  -6  358.86   27.80
  -2   0  -6  392.86   20.70
  -2   0  -6  410.46   17.10
  -2   0  -6  369.56   20.70
  -2   0  -6  405.86   19.50
   2   0   6  376.46   19.20
   2   0   6  414.06   22.50
   2   0   6  400.76   13.90
  -3   0  -6  188.28   12.30
  -3   0  -6  182.88   16.90
  -3   0  -6  172.78   14.50
  -3   0  -6  161.98   14.00
   3   0   6  155.78   13.20
   3   0   6  163.98   14.80
  -4   0  -6   92.39   13.00
  -4   0  -6  101.79   11.80
  -4   0  -6  104.79   10.10
  -4   0  -6   82.19   13.90
   4   0   6  101.49   12.50
   4   0   6   80.29   10.40
  -5   0  -6   46.30   12.70
  -5   0  -6   42.00    7.10
  -5   0  -6   47.50    8.60
  -5   0  -6   28.40    7.30
   5   0   6   47.70    9.50
   5   0   6   43.20   10.50
   8  -1  -6   15.00   12.00
   8  -1  -6    5.40    5.00
   8  -1  -6   11.50    3.90
  -8   1   6   15.80    5.00
  -8   1   6    9.50    4.80
   7  -1  -6   51.49    9.10
   7  -1  -6   58.19   15.90
   7  -1  -6   39.60    9.80
  -7   1   6   51.79   14.20
  -7   1   6   41.20    7.70
  -7   1   6   45.80    7.40
   6  -1  -6   74.09    9.00
   6  -1  -6   85.79   17.20
   6  -1  -6   88.69    9.30
  -6   1   6   89.99    9.80
  -6   1   6   86.69    7.70
  -6   1   6   88.49   12.30
   5  -1  -6  131.69   10.50
   5  -1  -6  109.89   10.40
   5  -1  -6  116.39   16.60
  -5   1   6  126.19   10.60
  -5   1   6  122.99   13.10
  -5   1   6  126.49    8.50
   4  -1  -6  121.79    9.60
   4  -1  -6  115.79   14.90
   4  -1  -6  130.59   11.00
  -4   1   6  122.19   11.50
  -4   1   6  115.79    9.50
   3  -1  -6  321.07   18.90
   3  -1  -6  276.97   14.20
   3  -1  -6  247.18   29.10
   3  -1  -6  305.77   16.10
  -3   1   6  329.87   17.40
  -3   1   6  317.87   10.70
  -3   1   6  287.17   14.50
   2  -1  -6    1.30    1.90
   2  -1  -6    2.70    1.50
   2  -1  -6    3.20    2.40
   2  -1  -6    1.60    1.50
   2  -1  -6    4.40    1.60
  -2   1   6    3.10    2.10
  -2   1   6    1.60    1.70
  -2   1   6    0.50    1.00
  -2   1   6    8.40    4.00
  -2   1   6    0.60    1.30
  -2   1   6    1.10    1.20
   1  -1  -6   46.60    9.10
   1  -1  -6   30.50    5.60
   1  -1  -6   39.20    4.90
   1  -1  -6   45.30    5.50
   1  -1  -6   32.80    6.50
  -1   1   6   39.80    2.90
  -1   1   6   34.50    4.20
  -1   1   6   63.19    7.40
  -1   1   6   45.50    5.90
  -1   1   6   43.00    5.70
   0  -1  -6  880.31   27.40
   0  -1  -6  882.71   33.40
   0  -1  -6  847.42   32.80
   0  -1  -6  900.21   20.00
   0  -1  -6  757.32   36.80
   0   1   6  875.31   28.40
   0   1   6  871.21   17.20
  -1  -1  -6  148.79    8.40
  -1  -1  -6  163.98   14.60
  -1  -1  -6  166.38   13.70
  -1  -1  -6  130.79   11.30
   1   1   6  160.88   12.00
   1   1   6  136.99   11.80
   1   1   6  152.78    6.90
  -2  -1  -6   80.69   11.10
  -2  -1  -6   86.99   11.30
  -2  -1  -6   81.89    7.00
  -2  -1  -6   77.09    9.30
   2   1   6   78.89    9.70
   2   1   6   74.29    8.90
  -3  -1  -6   99.59   11.40
  -3  -1  -6  121.89    9.70
  -3  -1  -6  130.79   15.80
   3   1   6  103.89   11.20
   3   1   6  111.09   12.80
  -4  -1  -6   31.60    8.40
  -4  -1  -6   25.80    5.90
  -4  -1  -6   13.20    6.00
   4   1   6   30.60    7.60
   4   1   6   28.60    8.30
  -5  -1  -6   22.20    6.20
  -5  -1  -6   34.90    8.60
  -5  -1  -6   44.00   12.50
   5   1   6   18.40    6.60
   5   1   6   34.00    9.60
   8  -2  -6    6.10    4.70
   8  -2  -6   14.60    4.50
   8  -2  -6   16.70    8.40
  -8   2   6    7.00    4.90
  -8   2   6    9.70    3.90
  -8   2   6    7.30    5.40
   7  -2  -6   -1.40    1.80
   7  -2  -6    5.20    3.70
   7  -2  -6    2.80    5.20
  -7   2   6   10.40    4.20
  -7   2   6    3.80    3.80
   6  -2  -6   14.20    3.90
   6  -2  -6   10.80    3.50
   6  -2  -6   11.30    2.30
   6  -2  -6    8.70    5.80
  -6   2   6    7.90    2.80
  -6   2   6   10.40    5.20
  -6   2   6   10.70    3.90
   5  -2  -6   40.10   11.60
   5  -2  -6   47.00    7.30
   5  -2  -6   43.00    3.90
   5  -2  -6   49.70    6.60
  -5   2   6   44.70    4.80
  -5   2   6   46.70    6.20
  -5   2   6   26.90    7.40
   4  -2  -6   72.09    7.20
   4  -2  -6   67.49    7.80
   4  -2  -6   55.49   11.70
  -4   2   6   49.40    8.90
  -4   2   6   65.99    4.90
  -4   2   6   62.99    3.50
  -4   2   6   53.59    6.30
   3  -2  -6  217.18   12.20
   3  -2  -6  218.88   10.70
   3  -2  -6  213.48   14.40
   3  -2  -6  226.98   20.20
  -3   2   6  225.08    8.90
  -3   2   6  241.38   15.60
  -3   2   6  217.08   12.60
  -3   2   6  232.18    7.80
   2  -2  -6  375.06   20.20
   2  -2  -6  395.66   16.80
   2  -2  -6  374.56   24.70
   2  -2  -6  365.56   15.60
  -2   2   6  405.66   17.60
  -2   2   6  315.67   27.30
  -2   2   6  375.96   14.30
   1  -2  -6  254.57   19.10
   1  -2  -6  225.58   12.90
   1  -2  -6  251.07   13.60
   1  -2  -6  230.68   16.40
  -1   2   6  250.27   14.10
  -1   2   6  237.28   12.60
   0  -2  -6   62.09   11.40
   0  -2  -6   55.99    8.50
   0  -2  -6   47.50    9.80
   0   2   6   60.39    9.30
   0   2   6   55.59    7.30
  -1  -2  -6   29.20    6.40
  -1  -2  -6   26.40    8.00
  -1  -2  -6   33.90    3.90
   1   2   6   31.60    6.70
   1   2   6   43.30    8.10
  -2  -2  -6    2.60    1.80
  -2  -2  -6    2.20    2.60
  -2  -2  -6    0.50    2.00
   2   2   6    2.60    2.30
   2   2   6    0.30    2.10
  -3  -2  -6   17.70    4.20
  -3  -2  -6   23.00    7.00
  -3  -2  -6   25.30    7.70
   3   2   6   13.70    5.80
   3   2   6   20.20    5.70
  -4  -2  -6    2.40    4.10
  -4  -2  -6   16.20    4.20
  -4  -2  -6    7.40    5.80
   4   2   6   14.10    5.80
   4   2   6    6.80    4.40
  -5  -2  -6    5.70    4.30
  -5  -2  -6    4.30    5.60
  -5  -2  -6   -0.60    3.60
   5   2   6    3.70    3.80
   5   2   6    8.50    5.20
   8  -3  -6   -0.30    5.80
   8  -3  -6    0.10    2.90
   8  -3  -6    2.70    3.00
  -8   3   6   -3.90    2.30
  -8   3   6    8.60    4.60
  -8   3   6   -6.30    3.10
   7  -3  -6    9.40    4.50
   7  -3  -6    2.90    2.60
  -7   3   6   -3.30    2.00
  -7   3   6    3.50    2.20
  -7   3   6   -0.90    3.80
   6  -3  -6   69.89    7.70
   6  -3  -6   77.39   16.50
   6  -3  -6   62.49    7.40
   6  -3  -6   75.99    5.80
  -6   3   6   75.29   13.60
  -6   3   6   79.39    7.50
  -6   3   6   85.99    8.90
   5  -3  -6  109.79   10.10
   5  -3  -6   97.99   18.60
   5  -3  -6   90.39    8.50
  -5   3   6   98.29   12.10
  -5   3   6  108.99    7.40
  -5   3   6  115.39    9.60
   4  -3  -6   27.70    9.60
   4  -3  -6   30.70    4.50
   4  -3  -6   28.10    5.30
   4  -3  -6   40.60    7.20
  -4   3   6   27.30    2.70
  -4   3   6   31.10    5.60
  -4   3   6   28.10    3.20
  -4   3   6   25.80    7.10
   3  -3  -6    2.30    1.90
   3  -3  -6    1.60    3.20
   3  -3  -6    2.70    2.10
   3  -3  -6    3.40    1.60
  -3   3   6    4.20    1.50
  -3   3   6    2.80    1.60
  -3   3   6    3.50    2.10
   2  -3  -6   11.00    3.40
   2  -3  -6    6.00    2.30
   2  -3  -6    6.10    4.50
   2  -3  -6    6.00    2.90
  -2   3   6   11.50    2.90
  -2   3   6   12.70    3.90
  -2   3   6    6.50    2.60
  -2   3   6   14.80    5.10
   1  -3  -6    1.90    3.20
   1  -3  -6   -0.50    2.00
   1  -3  -6    1.60    1.80
   1  -3  -6    2.40    1.60
  -1   3   6    1.20    2.30
  -1   3   6    2.90    1.50
  -1   3   6    3.50    2.30
   0  -3  -6   77.09    8.70
   0  -3  -6   81.49   11.40
   0  -3  -6   84.39   10.80
   0   3   6   91.59    9.70
   0   3   6   96.69    9.60
  -1  -3  -6   19.10    5.80
  -1  -3  -6   22.50    5.40
  -1  -3  -6   23.60    3.60
   1   3   6   24.50    6.00
   1   3   6   28.00    6.90
  -2  -3  -6   64.79   11.30
  -2  -3  -6   74.59    6.50
  -2  -3  -6   82.59   15.70
   2   3   6   83.89   10.00
   2   3   6   64.19   10.90
  -3  -3  -6   16.50    7.50
  -3  -3  -6   17.70    4.40
  -3  -3  -6   18.00    6.00
   3   3   6   15.10    4.90
   3   3   6   14.80    6.20
  -4  -3  -6   12.80    4.30
  -4  -3  -6   10.80    8.40
  -4  -3  -6    2.10    4.80
   4   3   6   20.60    7.20
   4   3   6   13.00    5.40
   8  -4  -6   33.40    6.50
   8  -4  -6   33.60    9.20
   8  -4  -6   16.10   10.70
  -8   4   6   39.20    7.80
  -8   4   6   32.60    9.00
   7  -4  -6   39.80   12.00
   7  -4  -6   79.09    8.10
  -7   4   6   66.49    7.90
  -7   4   6   63.09    7.70
  -7   4   6   64.79   13.80
   6  -4  -6    2.10    2.10
   6  -4  -6   -6.20    3.30
   6  -4  -6    8.40    3.10
  -6   4   6    1.30    1.70
  -6   4   6   -2.20    1.80
   5  -4  -6    7.80    3.20
   5  -4  -6   14.90    3.60
   5  -4  -6    9.20    6.50
  -5   4   6    5.50    1.90
  -5   4   6    9.20    3.00
  -5   4   6    5.90    3.60
   4  -4  -6   71.49    7.00
   4  -4  -6   48.30   11.50
   4  -4  -6   81.79    8.80
   4  -4  -6   85.99    6.60
  -4   4   6   85.49    8.00
  -4   4   6   72.19    5.00
  -4   4   6   77.59    5.30
  -4   4   6   88.19   10.90
   3  -4  -6  137.69    9.40
   3  -4  -6  124.99    9.50
   3  -4  -6  144.89   12.50
   3  -4  -6  116.69   15.50
  -3   4   6  109.19    9.30
  -3   4   6  118.79    7.20
  -3   4   6  116.19   12.20
   2  -4  -6  249.58   22.60
   2  -4  -6  275.67   14.80
   2  -4  -6  296.97   19.30
   2  -4  -6  258.37   14.50
  -2   4   6  275.87   16.80
  -2   4   6  281.37   15.70
  -2   4   6  270.57   18.30
   1  -4  -6   99.39    9.60
   1  -4  -6   70.39   13.40
   1  -4  -6   98.19    9.30
   1  -4  -6   89.89   10.80
  -1   4   6   88.09   10.40
  -1   4   6   95.89    9.50
  -1   4   6   96.29    9.90
   0  -4  -6  180.78   16.90
   0  -4  -6  161.58   13.30
   0  -4  -6  175.18   18.70
   0   4   6  161.38   13.30
   0   4   6  149.79   12.70
  -1  -4  -6  121.89   14.60
  -1  -4  -6  113.29    6.60
  -1  -4  -6  111.89   11.50
   1   4   6  118.69   12.00
   1   4   6  116.59   12.30
  -2  -4  -6   -1.40    3.00
  -2  -4  -6    3.30    2.90
  -2  -4  -6   -3.60    1.70
   2   4   6   -4.20    2.30
   2   4   6    1.90    3.40
  -3  -4  -6    6.70    6.00
  -3  -4  -6   27.90    5.60
  -3  -4  -6   26.70    8.50
   3   4   6   31.50    8.80
   3   4   6   20.00    6.50
  -4  -4  -6   42.70   13.10
  -4  -4  -6   26.80    8.20
  -4  -4  -6   13.80    7.90
   4   4   6   32.50   11.30
   4   4   6   28.70    8.80
   8  -5  -6    4.00    2.70
   8  -5  -6   -2.00    7.70
   8  -5  -6    8.70    5.10
  -8   5   6    1.30    6.20
  -8   5   6    0.60    3.30
   7  -5  -6    9.20    4.60
   7  -5  -6   25.40    9.70
   7  -5  -6   18.00    4.40
  -7   5   6   15.50    4.50
  -7   5   6    4.90    3.50
  -7   5   6   12.80    6.10
   6  -5  -6   54.59    6.70
   6  -5  -6   69.59   16.00
   6  -5  -6   62.99    6.40
  -6   5   6   54.79   12.50
  -6   5   6   74.49    7.70
  -6   5   6   63.29    7.30
   5  -5  -6   96.29    6.80
   5  -5  -6   91.29    8.90
   5  -5  -6   81.39    9.40
   5  -5  -6  109.79   20.20
  -5   5   6  107.79    6.30
  -5   5   6  101.99    8.90
  -5   5   6  114.19   14.20
  -5   5   6   88.09    7.10
   4  -5  -6  229.18   12.80
   4  -5  -6  229.18   12.40
   4  -5  -6  258.27   16.30
   4  -5  -6  217.18   23.10
  -4   5   6  257.67   14.40
  -4   5   6  226.18   10.40
  -4   5   6  241.08   19.40
   3  -5  -6  260.07   14.10
   3  -5  -6  254.07   14.10
   3  -5  -6  264.17   17.40
   3  -5  -6  281.07   26.30
  -3   5   6  268.17   15.30
  -3   5   6  255.47   19.10
   2  -5  -6  156.88   12.20
   2  -5  -6  149.49   11.40
   2  -5  -6  174.08   20.00
   2  -5  -6  144.59   14.10
  -2   5   6  157.88   12.80
  -2   5   6  159.58   15.00
  -2   5   6  160.48   12.40
   1  -5  -6  102.39   10.10
   1  -5  -6   79.29   12.90
   1  -5  -6   75.79   15.50
  -1   5   6   83.69   10.80
  -1   5   6   79.99    9.90
  -1   5   6   95.79   10.20
   0  -5  -6    6.30    4.00
   0  -5  -6    2.80    2.30
   0   5   6   16.10    5.10
   0   5   6   12.20    4.50
  -1  -5  -6  133.39   15.90
  -1  -5  -6   87.29   13.70
   1   5   6  107.89   11.90
   1   5   6  114.09   12.80
  -2  -5  -6  125.79   14.40
  -2  -5  -6  116.09   20.30
  -2  -5  -6  111.39    8.00
   2   5   6  111.49   13.50
   2   5   6  126.59   13.30
  -3  -5  -6   31.80    9.70
  -3  -5  -6   34.80    5.90
  -3  -5  -6   34.50   10.80
   3   5   6   14.90    7.20
   3   5   6   18.20    6.70
   8  -6  -6   14.50    8.10
   8  -6  -6   22.50   11.40
  -8   6   6   21.00    7.90
  -8   6   6   20.00    6.50
   7  -6  -6   12.70    9.00
   7  -6  -6   39.90    5.80
  -7   6   6   38.70    7.30
  -7   6   6   38.00   11.40
   6  -6  -6   85.49   16.80
   6  -6  -6   76.79    7.40
   6  -6  -6   88.59    7.30
  -6   6   6   78.79    8.10
  -6   6   6   83.59    8.30
  -6   6   6   77.59   15.20
   5  -6  -6  107.69    9.80
   5  -6  -6   89.79    7.60
   5  -6  -6  105.49   19.20
   5  -6  -6  100.99    8.10
  -5   6   6   76.19   14.20
  -5   6   6  101.79    7.40
  -5   6   6   95.49    9.70
  -5   6   6  110.79    8.10
   4  -6  -6   56.39    6.60
   4  -6  -6   61.09    6.60
   4  -6  -6   70.59    9.00
  -4   6   6   71.49    7.60
  -4   6   6   66.29   19.00
   3  -6  -6   67.59   15.90
   3  -6  -6   86.59    8.50
   3  -6  -6   87.89    8.40
   3  -6  -6   70.59   11.40
  -3   6   6  100.99   12.50
  -3   6   6   76.89    8.70
   2  -6  -6   21.50    6.80
   2  -6  -6   44.60   12.60
   2  -6  -6   35.50    6.60
   2  -6  -6   33.30    6.10
  -2   6   6   38.00    7.80
  -2   6   6   30.60    7.80
  -2   6   6   35.90    7.40
   1  -6  -6   85.99    9.70
   1  -6  -6   80.39   13.50
   1  -6  -6   65.79   22.10
  -1   6   6  114.39   11.40
  -1   6   6   88.49   10.30
   0  -6  -6  159.78   17.80
   0  -6  -6  159.38   14.50
   0   6   6  169.58   14.30
   0   6   6  159.48   16.60
   0   6   6  155.48   14.80
  -1  -6  -6   56.59   10.20
  -1  -6  -6   77.19   15.00
   1   6   6   65.69   11.10
   1   6   6   39.30   10.50
  -2  -6  -6   81.89   17.60
  -2  -6  -6   51.79   10.80
   2   6   6   62.09   11.90
   2   6   6   74.69   12.40
   7  -7  -6    7.20    9.20
  -7   7   6   20.20    6.20
  -7   7   6   21.90    9.20
   6  -7  -6    4.50    3.10
   6  -7  -6    4.80    2.40
   6  -7  -6    5.20    2.90
  -6   7   6    4.70    3.00
  -6   7   6   10.80    6.90
   5  -7  -6   11.50    6.70
   5  -7  -6   10.60    3.30
   5  -7  -6    4.80    2.60
   5  -7  -6    9.80    3.60
  -5   7   6   -1.40    3.50
  -5   7   6    1.30    2.60
   4  -7  -6   23.70    4.80
   4  -7  -6   29.80    6.40
   4  -7  -6   34.30    6.10
   4  -7  -6   22.90   10.90
  -4   7   6   25.00    5.90
  -4   7   6   25.30    7.60
   3  -7  -6   58.99    9.30
   3  -7  -6   71.09    7.80
   3  -7  -6   56.49   15.80
   3  -7  -6   87.49   18.80
  -3   7   6   58.49    9.00
  -3   7   6   77.89   14.40
   2  -7  -6   87.89   18.30
   2  -7  -6   87.49    9.20
   2  -7  -6  129.59   13.90
  -2   7   6   98.89   10.70
  -2   7   6  102.39   11.00
  -2   7   6  100.09   13.10
   1  -7  -6   20.70    5.60
   1  -7  -6   11.50    6.80
   1  -7  -6   20.40    7.10
  -1   7   6   44.10    8.50
  -1   7   6   14.60    5.10
  -1   7   6   32.20    9.00
   0  -7  -6   33.80    9.30
   0  -7  -6   44.70    8.70
   0   7   6   26.40    6.70
   0   7   6   43.20   10.60
   0   7   6   28.20    7.90
  -1  -7  -6   10.50    8.70
  -1  -7  -6    5.30    3.80
   1   7   6    4.10    4.50
   1   7   6    6.20    5.70
   7  -8  -6   -9.60    8.60
  -7   8   6   -1.40    4.30
  -7   8   6  -12.30    5.10
   6  -8  -6    8.50    3.40
   6  -8  -6    1.50    7.30
  -6   8   6    9.90    4.30
  -6   8   6   15.10    6.60
   5  -8  -6    6.00    5.80
   5  -8  -6    4.60    3.70
   5  -8  -6   10.40    3.80
  -5   8   6    3.40    3.90
   4  -8  -6   11.20    4.20
   4  -8  -6   22.00    5.70
   4  -8  -6    9.40    6.10
  -4   8   6    7.50    4.60
  -4   8   6   12.40    6.10
   3  -8  -6    0.80    3.90
   3  -8  -6    5.40    3.80
   3  -8  -6   -3.30    3.50
  -3   8   6    6.80    4.70
  -3   8   6    3.30    5.20
   2  -8  -6    0.60    3.60
   2  -8  -6    1.20    4.30
   2  -8  -6    0.70    2.70
  -2   8   6   -0.60    3.70
  -2   8   6   -3.80    3.30
   1  -8  -6   -4.50    2.90
   1  -8  -6    1.20    4.60
   1  -8  -6   -0.60    3.20
  -1   8   6   -5.40    3.50
  -1   8   6   -2.30    3.20
  -1   8   6    5.50    3.70
   0  -8  -6    9.50    5.90
   0   8   6   -3.10    4.00
   0   8   6   11.60    5.00
   5  -9  -6    6.00    3.50
   5  -9  -6   13.00    4.20
  -5   9   6   17.60   10.60
   4  -9  -6    1.40    3.60
   4  -9  -6   -8.40    3.80
   4  -9  -6   -2.50    8.30
  -4   9   6   12.60    6.90
   3  -9  -6   -2.90    2.90
   3  -9  -6   12.50    5.60
  -3   9   6    2.80    4.80
   2  -9  -6    7.00    7.10
   2  -9  -6    7.10    8.90
   2  -9  -6   17.30    6.30
  -2   9   6   15.40    6.20
  -2   9   6   20.60    7.70
   1  11  -7   10.00    4.10
  -1 -11   7    8.60    4.00
   0  11  -7   17.50    5.40
   0 -11   7    7.00    4.00
   0 -11   7    4.10    4.00
  -1  11  -7   41.30    7.20
   1 -11   7   36.20    6.70
   1 -11   7   41.70    8.30
   2 -11   7   13.00    5.20
  -3  11  -7   10.50    4.80
   3 -11   7   11.20    5.30
   3 -11   7   15.80    7.10
   2  10  -7   63.99   12.10
   2  10  -7   40.40    7.20
  -2 -10   7   24.90    7.10
  -2 -10   7   40.00    8.70
   1  10  -7   29.00    6.00
   1  10  -7   35.80    8.10
  -1 -10   7   20.10    6.00
  -1 -10   7   17.60    5.90
   0  10  -7   34.90    7.00
   0  10  -7   33.30    8.30
   0 -10   7   44.90    8.10
   0 -10   7   25.60    6.00
  -1  10  -7   60.69    8.80
  -1  10  -7   54.59    9.20
   1 -10   7   53.49    7.90
   1 -10   7   45.30    8.40
  -2  10  -7  111.09   11.80
   2 -10   7  108.59   11.80
  -3  10  -7    1.10    3.60
   3 -10   7   -1.40    3.00
   3 -10   7    5.70    4.50
   3 -10   7   13.70    3.60
  -4  10  -7   13.70    4.80
   4 -10   7   14.50    4.20
   4 -10   7    8.70    4.50
   3   9  -7   74.29   19.30
   3   9  -7   81.29   20.30
   3   9  -7   79.49    8.60
  -3  -9   7   53.89    8.90
  -3  -9   7   66.69   12.90
   2   9  -7   51.79   10.20
   2   9  -7   47.30    8.00
  -2  -9   7   62.39   11.00
  -2  -9   7   55.39    9.20
   1   9  -7   23.80    5.40
   1   9  -7   37.20    7.70
  -1  -9   7   29.60    8.00
  -1  -9   7   33.70    6.70
   0   9  -7   91.89    9.80
   0   9  -7  110.19   10.90
   0  -9   7  102.59   10.70
   0  -9   7   94.29    9.50
   0  -9   7   84.79   12.20
  -1   9  -7   19.40    4.80
  -1   9  -7   15.30    4.80
   1  -9   7   10.00    3.60
   1  -9   7   14.50    4.50
  -2   9  -7   38.90    6.30
  -2   9  -7   36.40    7.80
   2  -9   7   49.10    5.10
   2  -9   7   40.30    6.60
   2  -9   7   51.19    8.70
   2  -9   7   38.40    5.70
   2  -9   7   49.50    6.50
  -3   9  -7  131.09   12.20
  -3   9  -7  158.48   13.40
   3  -9   7  139.79   13.10
   3  -9   7  130.09   11.00
   3  -9   7  121.49   12.20
  -4   9  -7   14.40    4.40
   4  -9   7   10.10    3.80
   4  -9   7   11.80    4.30
  -5   9  -7   16.00    9.50
  -5   9  -7    4.50    3.90
   5  -9   7    7.40    4.30
   5  -9   7   -6.40    3.50
   4   8  -7   22.40    7.70
   4   8  -7   35.80    5.60
   4   8  -7   18.50    9.80
  -4  -8   7   20.20    5.50
  -4  -8   7   33.00    8.30
   3   8  -7   74.99    7.60
   3   8  -7   87.59   19.70
   3   8  -7   74.39   11.80
  -3  -8   7   65.49    8.00
   2   8  -7   49.60   15.10
   2   8  -7   51.39    9.70
   2   8  -7   57.09    7.00
  -2  -8   7   56.99    9.80
  -2  -8   7   53.09    8.50
   1   8  -7    2.10    4.10
   1   8  -7    2.60    2.90
   1   8  -7    0.10    1.70
  -1  -8   7    8.80    3.60
  -1  -8   7   -0.80    3.70
   0   8  -7    8.50    3.10
   0   8  -7    5.30    2.90
   0  -8   7   -1.30    3.50
   0  -8   7    5.70    4.00
   0  -8   7    6.70    2.80
  -1   8  -7  187.78   16.70
  -1   8  -7  175.78   12.70
  -1   8  -7  178.28    9.00
   1  -8   7  187.68    9.30
   1  -8   7  189.48   11.50
   1  -8   7  178.98   13.80
   1  -8   7  169.68   14.20
  -2   8  -7   28.00    5.90
  -2   8  -7   35.40    6.60
  -2   8  -7   32.80    5.50
   2  -8   7   34.00    6.00
   2  -8   7   28.50    6.80
   2  -8   7   33.20    4.40
   2  -8   7   33.40    5.80
   2  -8   7   36.50    6.30
  -3   8  -7   16.80    5.10
   3  -8   7   17.40    4.90
  -4   8  -7   13.40    6.50
  -4   8  -7   25.80    6.60
   4  -8   7   25.10    6.10
  -5   8  -7   12.10    5.90
  -5   8  -7    4.70    4.10
   5  -8   7    4.30    4.60
   5   7  -7    3.30    8.70
   5   7  -7    2.20    4.00
   5   7  -7   -3.30    3.20
   5   7  -7    3.20    2.50
  -5  -7   7   -0.10    2.60
  -5  -7   7    7.50    4.50
   4   7  -7    9.70    8.10
   4   7  -7   -1.20    3.00
   4   7  -7    3.70    2.80
   4   7  -7    6.50    3.90
  -4  -7   7    4.80    3.00
  -4  -7   7    1.00    3.10
   3   7  -7   -4.80    2.70
   3   7  -7    3.50    4.90
   3   7  -7   -0.40    1.50
   3   7  -7   -2.80    1.30
   3   7  -7    8.00    2.90
  -3  -7   7   -0.60    1.70
  -3  -7   7    0.60    2.50
   2   7  -7    0.30    1.60
   2   7  -7    4.90    4.20
   2   7  -7    0.70    2.60
  -2  -7   7    3.10    2.10
   1   7  -7   20.70    4.70
   1   7  -7   16.00    4.90
   1   7  -7   36.40   10.70
  -1  -7   7   17.20    4.40
  -1  -7   7   19.90    4.80
  -1  -7   7   34.80    7.40
   0   7  -7    3.50    2.30
   0   7  -7    1.20    4.10
   0   7  -7    2.40    1.50
   0   7  -7   -2.30    1.40
   0  -7   7   -0.20    1.50
   0  -7   7   -0.60    1.30
   0  -7   7   -1.90    2.40
   0  -7   7    1.60    1.90
  -1   7  -7   -1.80    1.20
  -1   7  -7    0.80    1.70
  -1   7  -7    1.90    1.90
   1  -7   7    2.10    3.80
   1  -7   7    1.60    1.60
   1  -7   7    1.70    2.80
   1  -7   7    0.50    1.40
   1  -7   7    3.30    1.70
   1  -7   7   -1.80    1.10
  -2   7  -7   27.90    5.80
  -2   7  -7   22.80    5.20
   2  -7   7   17.00    4.60
   2  -7   7   26.50    6.60
   2  -7   7   19.20    4.00
   2  -7   7   30.20    5.60
   2  -7   7   19.00    4.90
  -3   7  -7    6.60    3.90
  -3   7  -7   14.30    5.40
  -3   7  -7    4.50    3.30
   3  -7   7    7.90    2.60
   3  -7   7    1.20    3.30
   3  -7   7   17.50    3.80
  -4   7  -7   -0.20    3.20
  -4   7  -7   17.50    5.10
  -4   7  -7    8.20    3.50
   4  -7   7    7.30    3.80
   4  -7   7    6.20    2.30
   4  -7   7    5.90    2.50
  -5   7  -7   -1.80    2.00
  -5   7  -7    1.80    3.10
   5  -7   7    1.10    3.80
  -6   7  -7   -2.70    2.70
  -6   7  -7    2.30    4.30
   6  -7   7   -1.80    3.40
   6   6  -7   27.60    8.20
   6   6  -7   -0.10    7.80
   6   6  -7   10.50    9.70
  -6  -6   7   11.90    5.70
  -6  -6   7   23.10    5.40
   5   6  -7   26.20   11.10
   5   6  -7   68.29    8.60
   5   6  -7   66.19   12.00
   5   6  -7   52.09    5.30
  -5  -6   7   48.00   11.00
  -5  -6   7   42.90   10.40
   4   6  -7    2.90    3.10
   4   6  -7    3.00    3.10
   4   6  -7    8.10    2.60
   4   6  -7   13.50    7.30
  -4  -6   7    5.70    3.10
  -4  -6   7   11.30    3.50
   3   6  -7    6.50    4.80
   3   6  -7    7.10    3.00
   3   6  -7    9.90    6.70
   3   6  -7   20.80    4.30
  -3  -6   7    7.10    3.10
  -3  -6   7    7.70    2.90
   2   6  -7    3.50    4.30
   2   6  -7    3.20    2.30
   2   6  -7    3.40    2.30
   2   6  -7    8.10    3.40
  -2  -6   7    5.20    2.40
  -2  -6   7    7.00    3.10
   1   6  -7  115.79   10.90
   1   6  -7  111.79    7.60
   1   6  -7   93.09    8.80
   1   6  -7  102.69   17.70
  -1  -6   7  110.89   11.20
  -1  -6   7  116.79    9.90
  -1  -6   7  104.99    9.50
   0   6  -7   24.30    5.30
   0   6  -7   26.40    7.40
   0   6  -7   26.80    4.70
   0   6  -7   21.10    5.60
   0  -6   7   26.20    4.50
   0  -6   7   27.60    6.30
   0  -6   7   28.10    5.60
   0  -6   7   27.40    5.90
   0  -6   7   32.10    8.50
  -1   6  -7   -1.00    1.30
  -1   6  -7    1.60    2.10
  -1   6  -7   -0.10    1.50
   1  -6   7    0.90    1.20
   1  -6   7    1.30    2.80
   1  -6   7   -1.70    1.30
   1  -6   7    2.70    2.60
   1  -6   7    3.40    1.60
  -2   6  -7   -0.70    1.90
  -2   6  -7    4.80    2.30
   2  -6   7    0.40    1.30
   2  -6   7    0.70    1.90
   2  -6   7    3.60    2.30
   2  -6   7   -3.20    2.00
  -3   6  -7   12.10    5.00
  -3   6  -7    9.70    3.90
  -3   6  -7   17.10    5.20
   3  -6   7   12.50    5.00
   3  -6   7   22.40    4.10
   3  -6   7   23.30    5.00
  -4   6  -7   22.60    5.40
  -4   6  -7   10.80    4.90
  -4   6  -7   10.60    5.10
   4  -6   7   17.80    4.30
   4  -6   7   20.30    4.10
   4  -6   7   21.80    6.60
  -5   6  -7    9.50    4.50
  -5   6  -7   20.70    6.40
  -5   6  -7   18.60    6.60
   5  -6   7   -1.60    4.20
   5  -6   7   10.50    3.20
  -6   6  -7    0.80    2.90
  -6   6  -7    5.60    7.10
   6  -6   7   11.20    6.10
   6   5  -7   18.80    7.50
   6   5  -7   32.00    9.90
   6   5  -7   30.40   14.00
  -6  -5   7   28.70    5.40
   5   5  -7   33.40    8.30
   5   5  -7   47.10    8.60
   5   5  -7   42.70    4.40
   5   5  -7   50.29    8.60
   5   5  -7   57.99   17.30
  -5  -5   7   41.10    9.20
  -5  -5   7   33.30    5.60
   4   5  -7   14.90    4.90
   4   5  -7   18.60    5.80
   4   5  -7   16.60   10.30
  -4  -5   7   17.50    3.90
  -4  -5   7   18.50    5.20
   3   5  -7   75.39    9.10
   3   5  -7   49.40    6.40
   3   5  -7   38.00   12.00
   3   5  -7   52.39    6.00
  -3  -5   7   56.09    6.30
  -3  -5   7   68.49    8.40
   2   5  -7   97.69   18.10
   2   5  -7   98.19    8.00
   2   5  -7   94.59    8.20
   2   5  -7  100.09   19.60
  -2  -5   7  106.89    9.00
  -2  -5   7   85.29    8.70
   1   5  -7   97.99    7.70
   1   5  -7  116.69    9.30
   1   5  -7  102.69   10.30
   1   5  -7  100.29   13.10
  -1  -5   7   90.79   19.40
  -1  -5   7  113.89    9.50
  -1  -5   7  127.99    8.70
  -1  -5   7  108.89    9.50
   0   5  -7  185.28   12.10
   0   5  -7  184.08   13.30
   0   5  -7  177.28   15.40
   0  -5   7  168.98   16.20
   0  -5   7  179.78   10.90
   0  -5   7  196.18   12.10
   0  -5   7  172.78   13.50
  -1   5  -7  117.39   10.60
  -1   5  -7  118.69    9.10
  -1   5  -7  127.39   10.00
  -1   5  -7  101.49    9.20
   1  -5   7  112.59   10.60
   1  -5   7  131.19   10.10
   1  -5   7  113.19    9.60
   1  -5   7  110.59    9.40
   1  -5   7  106.49    8.60
  -2   5  -7  120.29   10.40
  -2   5  -7  131.49   11.50
  -2   5  -7   99.29   10.70
   2  -5   7  130.69   11.00
   2  -5   7  109.69    8.60
   2  -5   7  121.59   10.80
  -3   5  -7   90.49   10.90
  -3   5  -7  100.19    9.50
  -3   5  -7   83.99    9.90
   3  -5   7   90.49    9.00
   3  -5   7   80.79    7.70
   3  -5   7   88.69   10.20
  -4   5  -7   22.80    6.80
  -4   5  -7   17.70    6.70
  -4   5  -7   16.60    4.40
   4  -5   7    7.80    3.60
   4  -5   7    8.50    4.20
   4  -5   7   21.10    4.90
  -5   5  -7   22.10    5.60
  -5   5  -7   30.60    7.50
  -5   5  -7   16.20    6.90
   5  -5   7   23.80    5.60
   5  -5   7   14.20    5.90
  -6   5  -7   40.40    7.50
  -6   5  -7   33.90    7.90
   6  -5   7   22.40    5.60
   6  -5   7   24.80    8.00
   7   4  -7    0.90    4.50
   7   4  -7    3.30    7.90
   7   4  -7   19.10    7.10
  -7  -4   7   10.40    3.90
   6   4  -7   24.80   10.80
   6   4  -7   40.30    8.90
   6   4  -7   56.89   10.80
  -6  -4   7   44.00    9.00
  -6  -4   7   41.50    6.30
   5   4  -7  187.28   14.90
   5   4  -7  165.08    8.00
   5   4  -7  191.18   25.10
   5   4  -7  155.88   11.70
  -5  -4   7  159.38   15.00
  -5  -4   7  176.48   10.50
   4   4  -7  101.29    7.30
   4   4  -7  119.49   12.20
   4   4  -7  115.29    7.90
   4   4  -7  101.89   19.90
  -4  -4   7  120.29   11.50
  -4  -4   7  109.09    8.10
   3   4  -7   31.90    5.20
   3   4  -7   30.50    6.20
   3   4  -7   12.20    7.50
   3   4  -7   24.40    6.30
  -3  -4   7   19.30    5.10
  -3  -4   7   29.90    5.40
   2   4  -7  263.37   16.90
   2   4  -7  281.47   14.10
   2   4  -7  262.37   22.70
  -2  -4   7  265.57   17.90
  -2  -4   7  253.17   13.90
  -2  -4   7  301.37   16.30
   1   4  -7  431.86   17.90
   1   4  -7  447.96   21.70
   1   4  -7  451.25   26.50
   1   4  -7  456.15   18.30
  -1  -4   7  429.66   27.20
  -1  -4   7  420.16   18.90
  -1  -4   7  443.56   18.00
  -1  -4   7  444.96   25.10
   0   4  -7  484.05   19.60
   0   4  -7  461.85   22.30
   0   4  -7  471.75   23.40
   0   4  -7  539.95   20.00
   0  -4   7  475.45   22.40
   0  -4   7  544.05   20.40
   0  -4   7  463.15   19.30
   0  -4   7  484.45   23.00
  -1   4  -7  374.06   19.90
  -1   4  -7  344.47   16.90
   1  -4   7  351.26   19.00
   1  -4   7  346.07   14.30
   1  -4   7  417.06   17.50
   1  -4   7  382.16   18.40
  -2   4  -7   31.00    5.80
  -2   4  -7   40.40    8.10
  -2   4  -7   30.90    6.80
   2  -4   7   48.40    8.10
   2  -4   7   32.10    6.70
   2  -4   7   36.90    6.30
  -3   4  -7   39.00    8.50
  -3   4  -7   63.99    8.30
  -3   4  -7   56.69    8.50
   3  -4   7   43.30    8.30
   3  -4   7   58.89    7.30
   3  -4   7   42.90    7.20
  -4   4  -7   72.49    8.50
  -4   4  -7   64.89   11.90
  -4   4  -7   81.59   10.20
   4  -4   7   78.99    8.60
   4  -4   7   74.39   12.50
   4  -4   7   85.19    9.20
  -5   4  -7   34.00    8.90
  -5   4  -7   30.50    6.70
  -5   4  -7   46.40    9.30
   5  -4   7   39.70    7.30
   5  -4   7   32.30    8.30
  -6   4  -7   50.39   11.30
  -6   4  -7   42.70    9.40
   6  -4   7   29.30    6.70
   6  -4   7   35.50   11.20
   7   3  -7   28.00    8.40
   7   3  -7   27.80   12.20
   7   3  -7   49.00   10.60
  -7  -3   7   25.80    4.80
  -7  -3   7   27.70    7.20
   6   3  -7  130.59   26.10
   6   3  -7  119.89   13.10
   6   3  -7   97.79   11.60
  -6  -3   7   94.49    7.20
  -6  -3   7  128.29   13.20
   5   3  -7   54.29   14.00
   5   3  -7   79.49    9.50
   5   3  -7  104.29   11.40
   5   3  -7   97.89    5.80
  -5  -3   7  108.19   11.40
  -5  -3   7  101.89    7.30
   4   3  -7  162.48   20.40
   4   3  -7  166.08    9.00
   4   3  -7  154.88   13.70
   4   3  -7  154.98   10.00
  -4  -3   7  157.58   12.80
  -4  -3   7  166.48    9.30
   3   3  -7   64.09    6.00
   3   3  -7   65.09    8.60
   3   3  -7   60.09   13.80
  -3  -3   7   77.19    6.60
  -3  -3   7   76.09    8.40
  -3  -3   7   60.09    5.90
   2   3  -7  364.56   25.00
   2   3  -7  305.37   18.00
   2   3  -7  318.87   15.70
   2   3  -7  307.87   14.20
  -2  -3   7  302.57   11.50
  -2  -3   7  299.17   16.10
  -2  -3   7  304.87   18.70
   1   3  -7  943.41   37.60
   1   3  -7  938.91   32.90
   1   3  -7  936.71   28.00
   1   3  -7  926.11   29.40
  -1  -3   7  905.91   35.10
  -1  -3   7  880.71   30.90
  -1  -3   7  883.81   28.10
  -1  -3   7  957.30   22.80
  -1  -3   7  965.90   28.60
   0   3  -7   88.29    9.60
   0   3  -7   92.19    8.10
   0   3  -7  105.29   10.10
   0   3  -7   99.59    8.60
   0  -3   7   89.99    8.50
   0  -3   7  106.99   10.50
   0  -3   7  106.79    8.80
   0  -3   7   89.99    8.80
   0  -3   7   99.29    8.80
  -1   3  -7   66.89   10.60
  -1   3  -7   66.09    7.00
  -1   3  -7   53.49    6.90
   1  -3   7   63.99    8.10
   1  -3   7   62.29    6.80
   1  -3   7   62.39    7.50
  -2   3  -7  178.68   14.80
  -2   3  -7  159.08   11.40
  -2   3  -7  166.28   12.60
   2  -3   7  151.58   11.10
   2  -3   7  150.68   13.00
   2  -3   7  162.78   12.70
  -3   3  -7   48.40    8.20
  -3   3  -7   54.99   10.70
  -3   3  -7   46.50    7.40
   3  -3   7   50.99    8.60
   3  -3   7   37.40    7.90
   3  -3   7   46.80    8.00
  -4   3  -7  123.69   10.60
  -4   3  -7  109.89   13.40
  -4   3  -7  101.19   11.10
   4  -3   7   98.59   12.60
   4  -3   7  117.39   13.60
   4  -3   7  109.49   10.90
  -5   3  -7   93.49   11.70
  -5   3  -7   95.49    9.60
  -5   3  -7   66.59   13.30
   5  -3   7   87.29    9.90
   5  -3   7   74.79   13.90
  -6   3  -7   16.40    5.10
  -6   3  -7    1.60    5.40
  -6   3  -7   18.10    9.20
   6  -3   7   13.50    6.30
   6  -3   7   14.70    5.20
   7   2  -7   -3.70    5.80
   7   2  -7    0.40    2.80
   7   2  -7    7.50    4.80
  -7  -2   7    3.80    2.80
  -7  -2   7    3.10    5.00
   6   2  -7   83.99   11.00
   6   2  -7   76.09   19.90
   6   2  -7   61.29   10.80
  -6  -2   7   77.49    5.30
  -6  -2   7   79.19   10.20
   5   2  -7   60.49   10.20
   5   2  -7   68.49    5.10
   5   2  -7   77.99   18.20
  -5  -2   7   61.69    5.00
  -5  -2   7   68.79    8.70
   4   2  -7   61.89   10.20
   4   2  -7   64.69    6.90
   4   2  -7   64.39    5.50
   4   2  -7   54.09   13.40
  -4  -2   7   72.99    8.10
  -4  -2   7   73.99    8.60
  -4  -2   7   65.09    5.40
   3   2  -7  229.98   16.00
   3   2  -7  219.68   11.40
   3   2  -7  242.68   21.80
   3   2  -7  218.08   11.00
  -3  -2   7  209.78   12.10
  -3  -2   7  218.68   14.00
   2   2  -7    1.80    2.60
   2   2  -7    2.20    1.30
   2   2  -7   -2.30    1.10
   2   2  -7   -2.20    1.30
  -2  -2   7    1.30    1.60
  -2  -2   7    2.30    1.40
  -2  -2   7    4.90    2.50
  -2  -2   7    1.20    2.70
  -2  -2   7    0.20    1.60
  -2  -2   7    0.20    1.30
   1   2  -7  107.79   11.50
   1   2  -7  112.69    9.20
   1   2  -7  129.19   11.70
  -1  -2   7   95.69    8.70
  -1  -2   7  108.49    8.30
  -1  -2   7  112.29    9.30
  -1  -2   7  107.99   10.70
  -1  -2   7   97.49    8.60
  -1  -2   7  115.69   11.30
   0   2  -7  250.97   16.80
   0   2  -7  273.87   16.00
   0  -2   7  256.87   12.70
   0  -2   7  255.47   15.10
   0  -2   7  250.97   14.00
   0  -2   7  244.28   19.50
   0  -2   7  282.87   15.10
  -1   2  -7   36.90    4.90
  -1   2  -7   38.40    6.50
  -1   2  -7   33.10    7.30
   1  -2   7   37.10    7.90
   1  -2   7   31.70    4.20
   1  -2   7   31.10    6.10
   1  -2   7   27.90    6.00
  -2   2  -7  215.98   13.80
  -2   2  -7  213.88   16.80
  -2   2  -7  221.48   16.10
   2  -2   7  183.18   14.50
   2  -2   7  207.78   13.70
   2  -2   7  221.88   16.30
  -3   2  -7  118.59   13.40
  -3   2  -7  133.19   11.50
  -3   2  -7  113.39    9.70
  -3   2  -7  111.19   11.90
   3  -2   7  123.09   12.90
   3  -2   7  101.39   10.10
   3  -2   7   90.99    9.90
  -4   2  -7    3.40    4.10
  -4   2  -7    2.40    2.40
  -4   2  -7    0.20    2.40
  -4   2  -7    5.60    4.20
   4  -2   7    7.90    3.20
   4  -2   7    3.70    3.00
  -5   2  -7   13.10    4.90
  -5   2  -7   16.90    5.00
  -5   2  -7   27.50    7.20
  -5   2  -7   -3.00    5.40
   5  -2   7   14.80    5.00
   5  -2   7   17.40    7.50
  -6   2  -7   23.20    6.70
  -6   2  -7   24.60   10.70
  -6   2  -7   31.50    7.10
   6  -2   7   34.20    9.50
   8   1  -7    2.60    8.20
   8   1  -7    3.00    4.70
  -8  -1   7    2.00    4.80
  -8  -1   7   -0.80    3.80
   7   1  -7   -0.30    2.10
   7   1  -7   -2.40    2.50
   7   1  -7    9.30    7.00
  -7  -1   7    4.50    3.40
  -7  -1   7    0.20    1.70
   6   1  -7    1.30    6.10
   6   1  -7    9.80    4.20
  -6  -1   7   13.60    6.70
  -6  -1   7   10.60    4.10
   5   1  -7  147.79   13.30
   5   1  -7   99.69   19.50
   5   1  -7  132.99    7.30
  -5  -1   7  125.59   12.70
  -5  -1   7  132.99    6.30
  -5  -1   7  147.69   12.30
  -5  -1   7  128.69    7.80
   4   1  -7   28.70    6.30
   4   1  -7   37.40   11.10
   4   1  -7   33.10    6.30
  -4  -1   7   30.70    4.70
  -4  -1   7   30.80    6.70
  -4  -1   7   36.10    7.50
  -4  -1   7   31.50    3.60
   3   1  -7   59.29   12.60
   3   1  -7   63.89   10.20
   3   1  -7   57.69    6.60
  -3  -1   7   49.70    5.30
  -3  -1   7   58.69    6.60
  -3  -1   7   55.29    8.60
   2   1  -7   14.70    4.50
   2   1  -7   15.60    3.90
   2   1  -7   16.00    5.90
  -2  -1   7    9.50    4.60
  -2  -1   7   26.00    5.80
  -2  -1   7   19.30    4.30
  -2  -1   7   20.30    4.00
  -2  -1   7   18.70    4.60
   1   1  -7   15.60    4.20
   1   1  -7   18.30    5.80
   1   1  -7   22.50    5.40
  -1  -1   7   21.20    4.60
  -1  -1   7   21.00    5.70
  -1  -1   7   26.80    6.30
  -1  -1   7   20.80    4.30
  -1  -1   7   24.30    4.20
  -1  -1   7   27.30    5.60
   0   1  -7  295.97   16.70
   0   1  -7  302.17   17.30
   0   1  -7  342.47   20.20
   0  -1   7  330.17   13.10
   0  -1   7  347.57   18.40
   0  -1   7  306.77   16.10
   0  -1   7  293.07   18.20
  -1   1  -7   58.79    7.70
  -1   1  -7   56.29    6.80
  -1   1  -7   60.79    6.50
  -1   1  -7   51.59    9.60
   1  -1   7   65.09    7.40
   1  -1   7   61.69    5.40
   1  -1   7   45.40    8.40
   1  -1   7   64.39    8.20
  -2   1  -7   16.70    4.70
  -2   1  -7   18.50    4.60
  -2   1  -7   21.80    4.40
  -2   1  -7   16.90    5.70
  -2   1  -7   23.70    5.70
   2  -1   7   21.80    5.90
   2  -1   7   14.10    4.20
  -3   1  -7   -4.30    2.00
  -3   1  -7    3.10    2.90
   3  -1   7    2.20    2.90
   3  -1   7   -3.40    1.70
  -4   1  -7    0.60    3.00
  -4   1  -7    5.20    4.40
  -4   1  -7    0.10    2.50
  -4   1  -7   -4.10    2.10
   4  -1   7   -0.30    2.40
   4  -1   7    1.30    2.30
  -5   1  -7    2.70    5.50
  -5   1  -7    0.00    4.30
  -5   1  -7   10.00    4.20
  -5   1  -7    6.00    3.30
   5  -1   7    2.60    3.20
   5  -1   7    7.10    4.80
   8   0  -7    6.50    3.70
   8   0  -7   -2.50    4.10
   8   0  -7    1.80    7.20
  -8   0   7    8.10    3.80
  -8   0   7    4.40    3.60
   7   0  -7   -1.80    7.50
   7   0  -7   -0.40    3.00
   7   0  -7    3.40    4.50
  -7   0   7   -1.50    1.70
  -7   0   7   -3.00    2.40
  -7   0   7    4.10    5.00
   6   0  -7    5.40    5.10
   6   0  -7    8.10    3.90
  -6   0   7   10.00    3.40
  -6   0   7    7.40    3.40
  -6   0   7    3.30    3.50
   5   0  -7   12.20    6.40
   5   0  -7    7.70    3.70
  -5   0   7    8.40    4.50
   4   0  -7   23.90    5.60
   4   0  -7   41.10   10.70
   4   0  -7   45.60    7.70
  -4   0   7   34.50    3.90
  -4   0   7   39.60    8.40
  -4   0   7   31.30    6.50
   3   0  -7  169.88   11.70
   3   0  -7  164.08   17.00
   3   0  -7  149.49   12.80
  -3   0   7  166.48    9.20
  -3   0   7  184.68   12.30
  -3   0   7  167.78   12.00
   2   0  -7   32.50    8.30
   2   0  -7   35.30   10.90
   2   0  -7   15.90    3.70
  -2   0   7   26.40    5.10
  -2   0   7   26.20    4.60
  -2   0   7   39.20    6.90
  -2   0   7   31.50    7.60
  -2   0   7   34.40    6.70
   1   0  -7    8.90    3.90
   1   0  -7    7.80    3.40
   1   0  -7    9.70    3.20
   1   0  -7    2.70    1.90
  -1   0   7    4.50    2.20
  -1   0   7    3.90    2.90
  -1   0   7    9.00    2.30
  -1   0   7    2.60    1.90
  -1   0   7    6.20    2.60
   0   0  -7  108.39   11.50
   0   0  -7  107.19    9.90
   0   0  -7   94.09   10.40
   0   0   7  121.19   10.20
   0   0   7   94.89    5.90
   0   0   7   85.69    9.20
  -1   0  -7   48.80   10.10
  -1   0  -7   50.39    5.60
  -1   0  -7   37.40    7.30
  -1   0  -7   43.80    7.60
   1   0   7   35.50    7.00
   1   0   7   29.50    6.00
  -2   0  -7   38.00    8.20
  -2   0  -7   33.30    7.20
  -2   0  -7   30.30    7.50
  -2   0  -7   36.40    9.10
  -2   0  -7   31.10    6.90
   2   0   7   28.80    7.10
   2   0   7   32.80    6.90
  -3   0  -7   24.30    6.10
  -3   0  -7   21.70    6.60
  -3   0  -7   14.90    4.50
  -3   0  -7   19.30    6.90
   3   0   7   18.00    5.50
   3   0   7   28.00    7.70
  -4   0  -7   -0.20    2.70
  -4   0  -7   -0.30    2.50
  -4   0  -7    7.40    6.40
  -4   0  -7    0.10    8.10
   4   0   7    2.70    4.40
   4   0   7    1.80    2.00
  -5   0  -7    0.80    2.90
  -5   0  -7    2.80    6.50
  -5   0  -7    8.50    5.20
  -5   0  -7    8.90    4.00
   5   0   7   -1.40    3.90
   5   0   7    5.80    3.90
   8  -1  -7   34.80    8.20
   8  -1  -7   38.80    9.30
   8  -1  -7   10.40   12.40
  -8   1   7   15.10    6.20
  -8   1   7   22.70    5.80
   7  -1  -7   71.09    9.30
   7  -1  -7   29.70   12.50
  -7   1   7   68.79   11.00
  -7   1   7   89.19   16.00
  -7   1   7   61.69    7.70
   6  -1  -7   34.70   12.00
   6  -1  -7   31.40    6.80
   6  -1  -7   30.60    6.60
   6  -1  -7   27.00    3.10
  -6   1   7   39.90    9.40
  -6   1   7   21.20    4.30
  -6   1   7   29.90    7.20
   5  -1  -7   53.69    8.10
   5  -1  -7   76.69   16.10
   5  -1  -7   37.50    7.20
  -5   1   7   46.10    5.20
  -5   1   7   47.20    8.00
  -5   1   7   52.49   10.00
   4  -1  -7   18.00    6.20
   4  -1  -7   14.20    4.90
   4  -1  -7   36.90    7.00
  -4   1   7   27.00    6.00
  -4   1   7   15.00    4.70
  -4   1   7   23.00    2.90
   3  -1  -7  280.27   17.70
   3  -1  -7  268.77   14.80
   3  -1  -7  224.68   20.60
  -3   1   7  228.18   18.30
  -3   1   7  263.97   10.90
  -3   1   7  255.67   14.60
   2  -1  -7  383.36   17.60
   2  -1  -7  363.46   20.90
   2  -1  -7  368.46   32.40
   2  -1  -7  387.36   17.30
  -2   1   7  387.66   20.70
  -2   1   7  380.16   19.50
  -2   1   7  408.06   15.30
  -2   1   7  391.16   18.30
   1  -1  -7   89.79   16.60
   1  -1  -7   62.89   11.00
   1  -1  -7   80.09    9.80
   1  -1  -7   78.69    8.20
  -1   1   7   82.69    4.30
  -1   1   7   81.29    8.80
  -1   1   7   76.99    8.10
   0  -1  -7  135.69   11.50
   0  -1  -7  140.09   14.00
   0  -1  -7  164.08   15.00
   0   1   7  165.48   12.40
   0   1   7  150.38   12.60
   0   1   7  147.69    6.10
  -1  -1  -7   88.99   11.00
  -1  -1  -7   97.39   10.70
  -1  -1  -7   99.89   12.20
  -1  -1  -7   98.09    7.30
   1   1   7   74.89    9.40
   1   1   7   93.89   10.10
   1   1   7   88.29    5.50
  -2  -1  -7   44.60    6.80
  -2  -1  -7   46.80    9.30
  -2  -1  -7   51.39   10.40
  -2  -1  -7   44.60   10.20
  -2  -1  -7   31.50    8.10
   2   1   7   47.70    8.90
   2   1   7   52.79    9.20
  -3  -1  -7   66.59    7.90
  -3  -1  -7   84.19   15.50
  -3  -1  -7   56.49   11.00
   3   1   7   82.89   10.10
   3   1   7   68.79   12.90
  -4  -1  -7   68.69   16.90
  -4  -1  -7   62.29    8.10
  -4  -1  -7   54.99   11.20
   4   1   7   90.49   16.10
   4   1   7   65.39   12.10
  -5  -1  -7   -7.10    4.30
  -5  -1  -7    6.30    6.10
  -5  -1  -7   -1.50    3.30
   5   1   7   -4.50    3.00
   5   1   7   -1.90    3.50
   8  -2  -7   56.49   16.20
   8  -2  -7   64.09   10.10
   8  -2  -7   50.09   12.00
  -8   2   7   53.09   13.30
  -8   2   7   41.60    9.00
  -8   2   7   48.80    8.00
   7  -2  -7   66.09    8.60
   7  -2  -7   91.69   20.90
   7  -2  -7   75.89    9.10
  -7   2   7   38.90    7.80
  -7   2   7   42.90   12.00
  -7   2   7   54.89    9.50
   6  -2  -7    7.00    3.00
   6  -2  -7   -3.80    4.30
   6  -2  -7    1.50    3.40
   6  -2  -7    5.60    1.90
  -6   2   7    6.70    4.50
  -6   2   7   10.00    3.60
  -6   2   7    9.10    3.10
   5  -2  -7   74.99   16.00
   5  -2  -7   75.09    8.40
   5  -2  -7   70.19    8.80
  -5   2   7   80.79    6.30
  -5   2   7   77.59   10.50
  -5   2   7   99.59    9.60
   4  -2  -7  358.36   20.30
   4  -2  -7  378.56   18.10
   4  -2  -7  320.07   26.90
  -4   2   7  360.36   11.20
  -4   2   7  386.96   12.40
  -4   2   7  383.76   22.10
  -4   2   7  377.56   18.30
   3  -2  -7  300.97   24.10
   3  -2  -7  295.17   18.90
   3  -2  -7  289.97   18.40
   3  -2  -7  299.67   14.20
  -3   2   7  290.47    8.70
  -3   2   7  302.47   17.90
  -3   2   7  314.17   18.70
  -3   2   7  297.07   16.00
  -3   2   7  260.57   17.00
   2  -2  -7  327.67   20.40
   2  -2  -7  324.77   16.60
   2  -2  -7  340.77   24.30
   2  -2  -7  345.87   16.60
  -2   2   7  323.77   17.00
  -2   2   7  315.37   13.60
  -2   2   7  332.17   19.20
  -2   2   7  318.27   18.40
   1  -2  -7  160.98   14.90
   1  -2  -7  150.48   11.60
   1  -2  -7  122.79   14.60
  -1   2   7  171.38   13.40
  -1   2   7  138.69   11.60
   0  -2  -7   72.69    8.80
   0  -2  -7   91.49   12.30
   0  -2  -7  102.49   12.50
   0   2   7   90.89    9.70
   0   2   7   91.79    9.90
  -1  -2  -7  157.78   13.90
  -1  -2  -7  157.78   15.90
  -1  -2  -7  155.28    8.80
  -1  -2  -7  163.68   16.30
   1   2   7  137.99   13.50
   1   2   7  154.58   13.10
  -2  -2  -7  163.28   16.40
  -2  -2  -7  204.38   19.80
  -2  -2  -7  177.68   11.00
   2   2   7  191.38   16.60
   2   2   7  212.18   16.60
  -3  -2  -7   56.29    6.90
  -3  -2  -7   65.39   12.20
  -3  -2  -7   61.29   13.80
   3   2   7   58.39   11.00
   3   2   7   50.49   11.00
  -4  -2  -7   11.30    8.00
  -4  -2  -7   13.10    6.50
  -4  -2  -7    4.00    3.90
   4   2   7   10.70    5.10
   4   2   7   14.20    6.70
   8  -3  -7   12.50   11.30
   8  -3  -7   17.20    6.90
   8  -3  -7   17.80    5.10
  -8   3   7    2.80    5.50
  -8   3   7   18.40    5.40
  -8   3   7   16.90    5.50
   7  -3  -7   64.49    5.80
   7  -3  -7   70.79    8.70
   7  -3  -7   48.80    8.70
   7  -3  -7   61.39   16.60
  -7   3   7   66.49   10.00
  -7   3   7   65.79    7.50
  -7   3   7   43.30   11.20
   6  -3  -7   57.59    9.40
   6  -3  -7   58.49    7.60
   6  -3  -7   68.09   23.20
  -6   3   7   72.39    8.60
  -6   3   7   72.29    6.80
  -6   3   7   42.60   10.10
   5  -3  -7   11.90    6.90
   5  -3  -7   37.60    7.10
   5  -3  -7   32.10    6.20
  -5   3   7   45.50    7.60
  -5   3   7   33.70    4.10
  -5   3   7   20.50    7.30
   4  -3  -7  231.18   13.80
   4  -3  -7  237.98   16.50
   4  -3  -7  257.87   12.30
   4  -3  -7  196.28   21.50
  -4   3   7  236.48    9.00
  -4   3   7  219.68   14.00
  -4   3   7  186.98   16.00
  -4   3   7  237.68    9.30
   3  -3  -7  310.57   16.20
   3  -3  -7  295.07   25.10
   3  -3  -7  324.07   20.10
   3  -3  -7  335.27   15.70
  -3   3   7  287.37   12.00
  -3   3   7  355.16   21.20
  -3   3   7  317.27   16.80
  -3   3   7  297.17   18.20
   2  -3  -7  116.09    9.90
   2  -3  -7  139.29   10.90
   2  -3  -7  123.49   12.90
   2  -3  -7  120.29   15.00
  -2   3   7  129.39   11.70
  -2   3   7  135.69   11.10
  -2   3   7  115.49   12.00
   1  -3  -7  179.48   18.10
   1  -3  -7  152.28   14.90
   1  -3  -7  133.49   11.30
  -1   3   7  141.19   12.50
  -1   3   7  117.99   10.90
  -1   3   7  142.69   13.60
   0  -3  -7  223.08   19.00
   0  -3  -7  245.38   21.40
   0  -3  -7  214.48   15.50
   0   3   7  212.88   16.30
   0   3   7  221.08   15.90
  -1  -3  -7   52.69   12.50
  -1  -3  -7   43.10    8.40
  -1  -3  -7   59.99   12.70
  -1  -3  -7   50.19    4.80
   1   3   7   59.49   10.80
   1   3   7   62.19   11.20
  -2  -3  -7   20.50    4.70
  -2  -3  -7   27.30    8.00
  -2  -3  -7   23.30    7.10
   2   3   7   12.70    7.10
   2   3   7   21.60    6.30
  -3  -3  -7  118.49   19.60
  -3  -3  -7  122.49   14.40
  -3  -3  -7  136.49   10.80
   3   3   7  126.09   14.60
   3   3   7  155.38   16.50
  -4  -3  -7   42.60   14.40
  -4  -3  -7   49.20   12.20
   4   3   7   60.99   12.40
   4   3   7   54.49   11.90
   8  -4  -7   43.30   13.40
   8  -4  -7   21.40    7.40
   8  -4  -7   25.70    5.70
  -8   4   7   20.00    5.90
  -8   4   7   36.10   10.20
   7  -4  -7    7.00    7.00
   7  -4  -7   21.00    5.00
  -7   4   7   14.90    4.40
  -7   4   7    9.90    4.50
  -7   4   7   14.10    7.00
   6  -4  -7   11.30    3.40
   6  -4  -7   20.90    4.90
   6  -4  -7   10.20    5.80
  -6   4   7   13.10    4.30
  -6   4   7   16.50    3.80
  -6   4   7   24.20    7.90
   5  -4  -7   29.30    9.80
   5  -4  -7   30.60    5.50
   5  -4  -7   36.70    7.20
  -5   4   7   25.30    8.20
  -5   4   7   39.20    4.50
  -5   4   7   29.60    3.30
  -5   4   7   33.70    6.60
   4  -4  -7   52.49    8.90
   4  -4  -7   60.29    7.10
   4  -4  -7   65.29   15.20
   4  -4  -7   79.49    7.10
  -4   4   7   78.29   10.60
  -4   4   7   81.59    8.60
  -4   4   7   67.09    5.30
   3  -4  -7  144.39   10.70
   3  -4  -7  130.99   13.00
   3  -4  -7  151.78   11.00
   3  -4  -7  131.69   17.00
  -3   4   7  134.79   11.20
  -3   4   7  133.89   13.30
   2  -4  -7  132.19   17.20
   2  -4  -7  120.59   13.10
   2  -4  -7  129.49   11.10
   2  -4  -7  135.39   11.10
  -2   4   7  149.99   14.30
  -2   4   7  132.19   12.20
  -2   4   7  134.99   11.80
   1  -4  -7   10.00    4.10
   1  -4  -7    9.60    5.90
   1  -4  -7    1.50    2.90
  -1   4   7   -0.10    1.80
  -1   4   7    1.20    2.20
  -1   4   7    3.70    2.70
   0  -4  -7    1.40    1.90
   0  -4  -7   -2.60    2.90
   0  -4  -7    3.90    3.70
   0   4   7   -1.10    1.90
   0   4   7   -3.30    2.50
  -1  -4  -7   95.49   15.90
  -1  -4  -7  138.69   14.00
   1   4   7  138.19   13.80
   1   4   7  144.89   14.20
  -2  -4  -7   63.99   14.40
  -2  -4  -7   59.69   11.30
  -2  -4  -7   55.29    5.90
   2   4   7   69.89   12.70
   2   4   7   58.19   11.60
  -3  -4  -7   15.90    7.30
  -3  -4  -7    8.40    3.80
  -3  -4  -7   20.00    7.60
   3   4   7   18.70    6.30
   3   4   7    9.00    4.60
   8  -5  -7    1.00    2.60
   8  -5  -7    6.40    7.80
  -8   5   7   -2.30    2.90
  -8   5   7   -8.10    9.60
   7  -5  -7    9.00    3.20
   7  -5  -7    5.30    6.90
  -7   5   7   18.60    5.70
  -7   5   7    6.00    3.70
  -7   5   7    6.20    6.50
   6  -5  -7    2.80    2.50
   6  -5  -7    1.60    2.30
   6  -5  -7    0.50    3.80
  -6   5   7    3.00    2.20
  -6   5   7   -4.20    2.60
  -6   5   7    0.60    2.80
   5  -5  -7   -2.40    5.50
   5  -5  -7   -0.40    2.30
   5  -5  -7    3.80    2.30
  -5   5   7   -4.30    3.20
  -5   5   7   -0.60    2.80
  -5   5   7    3.60    2.20
   4  -5  -7   35.50    6.30
   4  -5  -7   32.10    6.70
   4  -5  -7   29.20   10.00
   4  -5  -7   18.00    5.60
  -4   5   7   29.00    8.50
   3  -5  -7    1.00    2.20
   3  -5  -7    2.10    1.60
   3  -5  -7    5.90    5.00
   3  -5  -7   -2.00    1.80
  -3   5   7    4.00    2.80
  -3   5   7   -3.70    1.80
   2  -5  -7   16.40    4.70
   2  -5  -7   12.40    4.20
   2  -5  -7    6.40    4.60
   2  -5  -7    4.60    4.00
  -2   5   7   16.50    6.10
  -2   5   7    3.00    2.90
  -2   5   7    9.40    4.50
   1  -5  -7   74.09   17.10
   1  -5  -7   50.69    8.70
  -1   5   7   59.39   10.70
  -1   5   7   58.49   15.00
  -1   5   7   49.90    8.60
   0  -5  -7   11.90    7.00
   0  -5  -7   11.50    5.90
   0  -5  -7   12.60    4.60
   0   5   7   19.30    6.00
   0   5   7   22.80    6.50
  -1  -5  -7    2.40    5.40
  -1  -5  -7   -0.80    2.90
   1   5   7    1.20    3.50
   1   5   7   -1.00    2.70
  -2  -5  -7    3.70    4.40
  -2  -5  -7    3.00    2.60
  -2  -5  -7    2.60    3.90
   2   5   7    8.30    6.10
   2   5   7    1.40    3.90
   7  -6  -7   -6.00    4.80
   7  -6  -7    0.60    2.60
  -7   6   7    1.50    5.20
  -7   6   7    1.70    3.20
   6  -6  -7   16.90    8.30
  -6   6   7   19.20    4.20
  -6   6   7    4.30    3.80
   5  -6  -7   82.39    8.00
   5  -6  -7   58.39   14.50
   5  -6  -7   85.29    9.70
   5  -6  -7   65.39    7.40
  -5   6   7   64.59   13.30
  -5   6   7   86.09    9.20
   4  -6  -7   33.30    6.50
   4  -6  -7   30.30   11.00
   4  -6  -7   33.30    7.30
   4  -6  -7   17.20    4.20
  -4   6   7    5.90    4.80
  -4   6   7   23.90    5.60
   3  -6  -7   24.00   10.90
   3  -6  -7   38.20    7.20
   3  -6  -7   18.80   10.80
  -3   6   7   23.70    6.10
  -3   6   7   38.00    9.40
   2  -6  -7   -4.70    4.30
   2  -6  -7   -0.20    3.00
  -2   6   7   -2.40    2.40
  -2   6   7    1.10    2.30
   1  -6  -7   23.90    7.20
   1  -6  -7   29.20    6.90
   1  -6  -7   25.00   10.10
  -1   6   7   21.60    5.70
  -1   6   7   24.90    7.40
  -1   6   7   40.90    8.80
   0  -6  -7   -0.40    4.60
   0  -6  -7   10.70    6.60
   0  -6  -7    6.50    4.30
   0   6   7    5.30    4.10
   0   6   7   10.20    5.20
   0   6   7    1.70    4.00
  -1  -6  -7   -4.10    6.50
  -1  -6  -7    8.90    5.90
   1   6   7   24.40    7.10
   1   6   7    0.50    4.60
   7  -7  -7   29.40   12.30
   7  -7  -7   37.30    5.60
  -7   7   7   45.30    8.00
  -7   7   7   47.10   12.10
   6  -7  -7   46.90    6.40
   6  -7  -7   47.90    7.50
   6  -7  -7   34.50   13.30
  -6   7   7   54.69    6.80
  -6   7   7   51.79   12.70
   5  -7  -7    2.90    2.50
   5  -7  -7   -8.60    3.40
   5  -7  -7    1.30    5.60
  -5   7   7   -7.60    3.50
  -5   7   7   -2.00    3.60
   4  -7  -7    7.40    4.20
   4  -7  -7    3.50    4.50
   4  -7  -7    4.00    3.30
  -4   7   7    1.30    4.30
  -4   7   7   -2.50    3.30
   3  -7  -7   24.80    9.60
   3  -7  -7   24.40    5.90
   3  -7  -7   34.40    8.10
  -3   7   7   21.20    6.10
  -3   7   7   32.60    9.30
   2  -7  -7   39.90   13.20
   2  -7  -7   51.79    9.40
   2  -7  -7   40.30   10.00
  -2   7   7   34.20    8.70
  -2   7   7   61.99   12.90
  -2   7   7   50.79   10.00
   1  -7  -7   83.69   11.00
   1  -7  -7   57.79   15.40
   1  -7  -7   71.99   13.50
  -1   7   7   58.99   12.40
  -1   7   7   72.39   12.20
  -1   7   7   61.79   10.80
   0  -7  -7   43.40    9.10
   0  -7  -7   11.80    8.80
   0  -7  -7   25.30    7.60
   0   7   7   41.50    8.60
   0   7   7   30.60   10.10
   0   7   7   40.70    9.50
   6  -8  -7   15.00    4.50
   6  -8  -7   18.30    4.70
  -6   8   7   10.30    7.20
   5  -8  -7   44.80    8.40
   5  -8  -7   59.29    8.90
   5  -8  -7   38.90   14.50
  -5   8   7   49.30   13.30
   4  -8  -7   54.39   10.80
   4  -8  -7   46.30   10.80
   4  -8  -7   55.79   17.80
  -4   8   7   51.59   12.50
  -4   8   7   51.89    9.80
   3  -8  -7   52.19   12.10
   3  -8  -7   61.09   17.30
   3  -8  -7   76.69    9.80
  -3   8   7   61.89   13.80
  -3   8   7   66.59   16.50
   2  -8  -7   48.70   14.90
   2  -8  -7   30.30    7.80
   2  -8  -7   32.30    8.10
  -2   8   7   38.60    9.20
  -2   8   7   46.00   11.10
   1  -8  -7   49.40   10.00
   1  -8  -7   40.20   24.10
   1  -8  -7   37.70   11.10
  -1   8   7   43.50   10.00
  -1   8   7   48.90   11.50
  -1   8   7   44.70    9.50
   4  -9  -7   15.40    9.60
   4  -9  -7   11.40    4.80
  -4   9   7   12.60    6.60
   0  11  -8   11.00    7.20
   0 -11   8   10.30    4.90
   0 -11   8   13.40    5.70
  -1  11  -8   -2.00    2.10
   1 -11   8    3.80    2.80
   1 -11   8    3.80    2.60
  -2  11  -8   -6.90    2.50
   2 -11   8    5.40    4.50
   2  10  -8    2.50    3.20
   2  10  -8    4.10    5.20
   1  10  -8   11.70    4.10
   1  10  -8   18.80    6.10
  -1 -10   8    1.10    3.50
   0  10  -8   -6.10    3.90
   0 -10   8    4.50    3.00
  -1  10  -8   32.80    8.30
  -1  10  -8   29.80    7.20
   1 -10   8   27.40    7.10
  -2  10  -8   -3.40    2.50
   2 -10   8    1.30    2.50
  -3  10  -8   -3.40    2.90
   3 -10   8    3.50    3.10
   3 -10   8    4.10    4.70
  -4  10  -8   -2.40    3.80
   4 -10   8    7.90    4.10
   4 -10   8   -0.60    3.20
   3   9  -8   73.29   13.80
   3   9  -8   59.09    7.20
   3   9  -8   64.59   18.60
  -3  -9   8   50.09    8.80
   2   9  -8    6.80    4.00
   2   9  -8   11.20    8.30
   2   9  -8   -0.80    1.60
  -2  -9   8    4.20    3.60
  -2  -9   8    3.70    3.40
   1   9  -8   25.10    5.90
   1   9  -8   30.10    7.60
  -1  -9   8   30.20    6.70
  -1  -9   8   34.50    6.90
   0   9  -8    7.00    3.30
   0   9  -8   14.80    5.10
   0  -9   8   19.30    5.10
   0  -9   8   13.90    6.70
   0  -9   8    5.70    3.40
  -1   9  -8   25.70    5.90
  -1   9  -8   17.20    5.30
   1  -9   8   18.20    4.20
   1  -9   8   23.80    6.10
   1  -9   8   22.00    6.80
  -2   9  -8   24.20    5.90
  -2   9  -8   13.10    5.10
   2  -9   8   14.30    3.60
   2  -9   8   16.60    5.40
   2  -9   8   16.40    4.30
   2  -9   8   15.10    5.30
  -3   9  -8    0.90    2.80
   3  -9   8    5.30    2.60
   3  -9   8   -0.30    3.00
  -4   9  -8   -0.50    3.00
   4  -9   8   -1.10    3.20
   4  -9   8    3.90    3.50
   4   8  -8    7.20    3.30
   4   8  -8    7.30    8.60
   4   8  -8   17.60    6.90
  -4  -8   8    3.90    2.60
   3   8  -8  -10.80    4.60
   3   8  -8   -1.60    2.30
   3   8  -8    0.40    2.30
  -3  -8   8    5.30    3.50
  -3  -8   8    6.30    3.60
   2   8  -8   54.39   15.80
   2   8  -8   50.19   10.10
   2   8  -8   55.09   10.10
  -2  -8   8   75.19    8.90
  -2  -8   8   52.69    8.70
   1   8  -8   29.90    9.90
  -1  -8   8   38.70    7.80
  -1  -8   8   35.50    7.20
  -1  -8   8   50.39   10.00
   0   8  -8  120.29   10.80
   0   8  -8  111.69   11.50
   0  -8   8  128.29   12.80
   0  -8   8  115.59   10.10
   0  -8   8   98.99   10.80
  -1   8  -8  184.08   14.40
  -1   8  -8  176.28   13.50
   1  -8   8  163.68   14.10
   1  -8   8  165.08   11.30
   1  -8   8  170.38   14.40
   1  -8   8  175.88   10.60
  -2   8  -8   -1.10    2.50
   2  -8   8   -3.50    5.20
   2  -8   8    5.60    2.20
   2  -8   8    4.30    2.90
   2  -8   8    5.40    3.30
   2  -8   8    2.20    3.50
   2  -8   8   10.10    3.60
  -3   8  -8   -0.50    3.80
  -3   8  -8    5.00    3.20
   3  -8   8   14.80    4.40
   3  -8   8   12.60    3.70
   3  -8   8    7.10    2.60
  -4   8  -8   29.10    7.90
  -4   8  -8   33.30    6.90
   4  -8   8   22.80    6.50
  -5   8  -8   37.70   11.50
  -5   8  -8   20.80    6.30
   5  -8   8   27.90    8.10
   5   7  -8   -1.40    2.10
   5   7  -8   21.30   17.70
   5   7  -8    1.70    3.80
   5   7  -8   -0.60    3.90
  -5  -7   8    0.90    2.90
   4   7  -8   73.09   13.00
   4   7  -8   71.09    8.20
   4   7  -8   75.39   19.60
   4   7  -8   69.59    7.00
  -4  -7   8   64.09    7.90
  -4  -7   8   63.99   11.00
   3   7  -8   70.49   18.30
   3   7  -8   81.49    8.10
   3   7  -8   62.59    8.30
   3   7  -8   83.69    7.60
   3   7  -8   91.69   11.60
  -3  -7   8  103.29   11.70
  -3  -7   8   77.79    8.60
   2   7  -8  153.38    9.40
   2   7  -8  143.29   11.40
   2   7  -8  124.79   22.50
   2   7  -8  134.29   13.00
  -2  -7   8  193.08   14.70
  -2  -7   8  149.09   12.10
   1   7  -8  200.78   22.20
   1   7  -8  222.18   14.60
   1   7  -8  227.88   11.10
   1   7  -8  217.28   16.30
  -1  -7   8  223.38   15.10
  -1  -7   8  216.08   17.70
  -1  -7   8  245.48   15.70
   0   7  -8   22.00    7.70
   0   7  -8   31.40    5.10
   0   7  -8   24.20    5.00
   0   7  -8   29.00    6.30
   0  -7   8   41.20    7.80
   0  -7   8   25.10    5.40
   0  -7   8   27.90    5.10
   0  -7   8   28.70    7.10
  -1   7  -8  145.89   12.20
  -1   7  -8  128.79   11.80
  -1   7  -8  143.69    9.80
   1  -7   8  150.38   14.60
   1  -7   8  129.59   10.20
   1  -7   8  147.39   10.70
   1  -7   8  134.99    8.80
   1  -7   8  124.59   12.30
  -2   7  -8  102.79   10.50
   2  -7   8  122.49   11.00
   2  -7   8  113.39    9.00
   2  -7   8  104.49   13.20
  -3   7  -8   32.30    6.90
  -3   7  -8   35.70    7.40
   3  -7   8   32.00    7.20
   3  -7   8   22.80    5.40
   3  -7   8   24.80    4.50
  -4   7  -8   13.90    7.10
  -4   7  -8   25.10    7.00
  -4   7  -8   30.30    7.50
   4  -7   8   31.30    5.50
   4  -7   8   20.90    7.30
   4  -7   8   27.30    4.90
  -5   7  -8   13.60    6.80
  -5   7  -8   14.60    5.80
   5  -7   8   20.60    7.20
   5  -7   8   23.10    4.70
   6   6  -8   40.80    9.80
   6   6  -8   26.60    8.00
   6   6  -8    7.20   10.70
  -6  -6   8   40.90    7.20
   5   6  -8   35.00    5.30
   5   6  -8   48.00    8.50
   5   6  -8   65.89   18.50
   5   6  -8   44.40   10.10
  -5  -6   8   33.90    8.50
   4   6  -8  106.99    8.50
   4   6  -8   91.79    9.20
   4   6  -8   84.59   13.60
   4   6  -8   78.29   17.60
  -4  -6   8   70.19   11.90
  -4  -6   8   88.69    8.70
   3   6  -8  240.58   13.60
   3   6  -8  254.17   18.50
   3   6  -8  206.98   24.90
   3   6  -8  215.98   13.40
  -3  -6   8  219.18   25.20
  -3  -6   8  234.28   14.10
   2   6  -8   25.70    4.80
   2   6  -8   22.20    5.00
   2   6  -8   46.20   13.00
   2   6  -8   42.20    8.70
  -2  -6   8   18.60    4.50
  -2  -6   8   30.20    7.00
   1   6  -8   60.99    7.50
   1   6  -8   61.69    9.80
   1   6  -8   48.80    7.60
   1   6  -8   62.69   13.60
  -1  -6   8   61.79    7.70
  -1  -6   8   41.80    9.10
  -1  -6   8   57.89    9.30
   0   6  -8  134.49    9.70
   0   6  -8  129.99   14.40
   0   6  -8  145.09   11.70
   0   6  -8  140.09   12.50
   0  -6   8  155.08   13.30
   0  -6   8  135.69   10.70
   0  -6   8  107.99   12.50
   0  -6   8  139.19   10.20
  -1   6  -8  133.69   11.40
  -1   6  -8  142.19   12.70
   1  -6   8  129.09   10.00
   1  -6   8  146.89   12.60
   1  -6   8  127.19   13.00
   1  -6   8  150.08   12.00
   1  -6   8  124.69    9.90
  -2   6  -8   97.79   10.50
  -2   6  -8  114.29   10.70
   2  -6   8  118.99   10.90
   2  -6   8  108.19    9.20
   2  -6   8  115.89   11.10
  -3   6  -8   12.10    3.90
  -3   6  -8   10.10    3.90
  -3   6  -8   12.10    4.20
   3  -6   8    8.10    3.00
   3  -6   8   15.90    6.10
   3  -6   8   27.50    6.10
  -4   6  -8   24.50    7.00
  -4   6  -8   29.80    7.70
  -4   6  -8   23.40    5.80
   4  -6   8   26.90    7.70
   4  -6   8   29.60    5.70
  -5   6  -8   48.90    9.00
  -5   6  -8   39.70    9.70
   5  -6   8   34.50    9.30
   5  -6   8   41.10    6.60
   6   5  -8   18.00    5.50
   6   5  -8   19.90   11.20
   6   5  -8   27.70    7.10
  -6  -5   8   13.80    4.00
  -6  -5   8   24.50    8.00
   5   5  -8   47.80   15.60
   5   5  -8   63.89   12.50
   5   5  -8   76.19    9.80
  -5  -5   8   55.79    6.70
  -5  -5   8   33.50    8.30
   4   5  -8    9.70    2.80
   4   5  -8    0.40    8.80
   4   5  -8   12.90    4.80
  -4  -5   8   13.20    6.60
  -4  -5   8   12.20    3.40
   3   5  -8   35.10    6.00
   3   5  -8   10.00    7.40
   3   5  -8   33.50    7.90
  -3  -5   8   22.30    5.80
  -3  -5   8   31.30    5.70
   2   5  -8   32.60    5.70
   2   5  -8   34.20    6.10
   2   5  -8   36.90   10.40
   2   5  -8   41.50    8.50
  -2  -5   8   34.90    6.90
  -2  -5   8   28.80    6.70
   1   5  -8   26.60    6.70
   1   5  -8   24.80    4.90
   1   5  -8   15.40    4.40
  -1  -5   8   18.90    4.40
  -1  -5   8   15.00    4.70
  -1  -5   8   14.50    5.50
   0   5  -8  134.29   13.40
   0   5  -8  148.39   11.30
   0   5  -8  138.99   10.60
   0   5  -8  146.19   12.70
   0  -5   8  133.89   12.80
   0  -5   8  153.58   11.20
   0  -5   8  165.18   11.60
   0  -5   8  152.18    9.50
  -1   5  -8   97.99    8.90
  -1   5  -8  108.09    9.80
  -1   5  -8   87.49   10.20
   1  -5   8  112.49   10.20
   1  -5   8   93.89    8.30
   1  -5   8   94.99    8.60
   1  -5   8  115.19   11.00
   1  -5   8  116.99   10.50
  -2   5  -8   52.89    8.80
  -2   5  -8   42.50    9.10
  -2   5  -8   54.19   10.00
   2  -5   8   39.20    6.40
   2  -5   8   44.40    7.80
   2  -5   8   35.70    7.50
  -3   5  -8    6.80    5.30
  -3   5  -8   10.20    4.10
  -3   5  -8   18.20    5.90
   3  -5   8   14.80    4.80
   3  -5   8   17.20    4.70
   3  -5   8   19.70    5.10
  -4   5  -8   23.70    8.00
  -4   5  -8   30.10    8.50
   4  -5   8   33.40    7.10
   4  -5   8   26.20    5.80
   4  -5   8   17.40    5.90
  -5   5  -8   29.20    8.40
  -5   5  -8   45.80   10.50
  -5   5  -8   36.30    8.00
   5  -5   8   30.70    6.30
   5  -5   8   18.70    7.90
   7   4  -8    6.60    4.10
   7   4  -8    0.90    4.80
   7   4  -8   -4.40    7.50
  -7  -4   8    4.50    4.30
  -7  -4   8    6.40    3.90
   6   4  -8   -0.90    2.80
   6   4  -8   -3.10    3.80
  -6  -4   8    2.90    1.90
  -6  -4   8    4.80    3.50
   5   4  -8   -1.40    2.20
   5   4  -8   -4.90    3.30
   5   4  -8   -1.70    1.30
   5   4  -8    3.90    6.80
  -5  -4   8    0.60    1.30
   4   4  -8   -1.50    1.80
   4   4  -8   -2.20    4.20
   4   4  -8    1.90    1.90
  -4  -4   8    4.30    1.90
  -4  -4   8    4.50    2.40
   3   4  -8    3.10    2.50
   3   4  -8   -2.50    2.10
   3   4  -8    6.00    3.80
  -3  -4   8    6.80    2.70
  -3  -4   8    3.50    2.10
   2   4  -8   15.80    4.10
   2   4  -8   12.20    5.80
   2   4  -8   12.30    4.60
  -2  -4   8   18.30    4.90
   1   4  -8   -1.10    1.60
   1   4  -8    1.00    1.80
   1   4  -8   -0.70    1.20
   1   4  -8   -0.70    2.30
  -1  -4   8   -1.70    1.40
  -1  -4   8    1.20    1.20
  -1  -4   8    3.70    3.20
  -1  -4   8    0.70    2.60
  -1  -4   8   -0.90    0.80
   0   4  -8    9.40    3.50
   0   4  -8    6.40    3.40
   0   4  -8    6.60    2.90
   0  -4   8    6.30    3.40
   0  -4   8    4.20    2.40
   0  -4   8   -1.00    2.60
  -1   4  -8   38.40    7.00
  -1   4  -8   42.00    8.90
   1  -4   8   38.40    6.70
   1  -4   8   42.60    7.90
   1  -4   8   40.60    8.10
  -2   4  -8   20.90    5.20
  -2   4  -8   13.10    4.70
  -2   4  -8   12.40    4.40
   2  -4   8   20.50    4.70
   2  -4   8   28.50    6.50
   2  -4   8   12.90    4.20
  -3   4  -8    0.80    2.30
  -3   4  -8    2.10    3.60
  -3   4  -8    2.50    2.20
   3  -4   8    2.70    3.30
   3  -4   8   -1.70    2.00
  -4   4  -8   19.30    5.40
  -4   4  -8   18.60    7.50
   4  -4   8   20.50    5.40
   4  -4   8    5.70    3.20
   4  -4   8   12.30    4.00
  -5   4  -8   -1.00    3.60
  -5   4  -8   -1.70    5.70
  -5   4  -8    2.60    3.40
   5  -4   8    0.20    2.70
   5  -4   8    0.40    3.50
   7   3  -8   14.10    5.40
   7   3  -8   14.10    9.80
   7   3  -8   11.80    6.30
  -7  -3   8    7.70    4.10
  -7  -3   8    6.10    4.80
   6   3  -8   16.50    5.80
   6   3  -8   10.20    7.20
  -6  -3   8   12.00    2.90
  -6  -3   8   13.20    8.80
   5   3  -8    6.80    8.30
   5   3  -8   21.70    6.30
   5   3  -8   18.40    3.70
   5   3  -8    6.20    4.00
  -5  -3   8   11.60    3.00
  -5  -3   8   12.40    4.40
   4   3  -8    2.90    2.80
   4   3  -8   -0.50    1.80
   4   3  -8    4.50    1.90
  -4  -3   8    7.90    3.40
  -4  -3   8    4.50    2.40
  -4  -3   8    0.80    1.90
   3   3  -8    1.30    1.60
   3   3  -8    3.20    2.00
   3   3  -8   -3.70    2.90
  -3  -3   8    5.90    2.70
  -3  -3   8    0.60    1.30
  -3  -3   8    2.20    2.10
   2   3  -8   76.49   13.70
   2   3  -8   83.49    9.80
   2   3  -8   78.99    7.40
  -2  -3   8   69.29    6.00
  -2  -3   8   72.19    8.20
   1   3  -8   57.89    9.80
   1   3  -8   60.69    6.60
   1   3  -8   51.79   10.30
  -1  -3   8   80.49   10.00
  -1  -3   8   77.29   11.90
  -1  -3   8   60.29    7.20
  -1  -3   8   68.09    6.10
   0   3  -8   -0.30    0.80
   0   3  -8    3.00    2.50
   0   3  -8    0.80    2.10
   0  -3   8   -0.10    1.70
   0  -3   8   -1.10    0.90
   0  -3   8   -1.40    1.10
   0  -3   8    2.80    2.30
  -1   3  -8    0.70    1.00
  -1   3  -8    7.30    3.20
   1  -3   8    3.20    2.50
   1  -3   8    2.10    1.50
  -2   3  -8   80.59    8.30
  -2   3  -8   81.99   13.50
  -2   3  -8   99.89   10.10
   2  -3   8   74.69    8.70
   2  -3   8   54.59    9.50
   2  -3   8   76.89    9.80
  -3   3  -8   46.50    8.00
  -3   3  -8   68.49    8.90
  -3   3  -8   41.30    9.60
   3  -3   8   48.90    8.60
   3  -3   8   53.79   10.50
   3  -3   8   45.70    8.70
  -4   3  -8    5.10    4.00
  -4   3  -8   -2.10    2.30
  -4   3  -8   -2.20    3.20
   4  -3   8   -1.00    1.90
   4  -3   8   -6.40    3.40
  -5   3  -8   -1.20    3.20
  -5   3  -8    3.10    6.30
  -5   3  -8    4.40    4.10
   5  -3   8   -2.40    3.70
   5  -3   8    3.50    2.60
   7   2  -8   18.60    6.60
   7   2  -8    6.10    9.70
   7   2  -8   10.50    5.30
  -7  -2   8   24.30    7.50
   6   2  -8   38.00    8.30
   6   2  -8   32.30   12.40
  -6  -2   8   27.20    6.80
  -6  -2   8   28.10    3.50
   5   2  -8   38.10    4.60
   5   2  -8   45.10    9.50
   5   2  -8   46.10   12.60
  -5  -2   8   50.49    9.50
  -5  -2   8   43.90    4.40
  -5  -2   8   35.60    8.30
   4   2  -8  115.19   11.70
   4   2  -8  104.79    7.90
   4   2  -8  110.89    9.20
   4   2  -8   83.69   16.20
  -4  -2   8  107.69   10.70
  -4  -2   8  126.49    8.10
  -4  -2   8   97.69    8.70
  -4  -2   8  109.69   10.20
   3   2  -8  132.79   12.80
   3   2  -8  109.09    8.40
   3   2  -8  118.59   15.60
  -3  -2   8  115.49   10.50
  -3  -2   8  106.89    8.90
  -3  -2   8  114.89    9.30
   2   2  -8   85.49   12.10
   2   2  -8   83.39    9.80
  -2  -2   8   88.39    7.50
  -2  -2   8   86.79    9.00
  -2  -2   8   75.39    8.30
   1   2  -8  296.17   19.30
   1   2  -8  305.37   20.60
  -1  -2   8  278.27   18.50
  -1  -2   8  290.47   14.30
  -1  -2   8  278.97   20.70
  -1  -2   8  300.67   16.80
  -1  -2   8  252.97   15.30
   0   2  -8  225.78   17.40
   0   2  -8  260.57   16.70
   0  -2   8  247.28   14.90
   0  -2   8  268.07   18.10
   0  -2   8  231.98   15.50
   0  -2   8  244.78   15.00
   0  -2   8  240.88   12.70
  -1   2  -8   33.80    7.90
  -1   2  -8   38.70    5.30
  -1   2  -8   41.60    7.10
   1  -2   8   34.80    8.10
   1  -2   8   53.79    9.50
   1  -2   8   38.70    7.40
  -2   2  -8   55.59   12.90
  -2   2  -8   45.80    8.20
  -2   2  -8   30.50    8.00
   2  -2   8   27.30    8.40
   2  -2   8   47.70    8.60
   2  -2   8   41.40    8.40
  -3   2  -8   94.39   12.40
  -3   2  -8   85.49    9.00
  -3   2  -8   82.49    9.60
  -3   2  -8   93.09   11.60
   3  -2   8  103.99   20.00
  -4   2  -8   43.50   10.20
  -4   2  -8   52.99   10.00
  -4   2  -8   34.70    9.00
  -4   2  -8   36.20    7.60
   4  -2   8   43.30    9.90
   4  -2   8   52.49   10.00
  -5   2  -8   10.30    7.60
  -5   2  -8   17.80    5.20
  -5   2  -8    0.80    3.60
   5  -2   8    4.60    5.00
   5  -2   8    7.00    3.70
   8   1  -8   18.90    6.80
   8   1  -8   26.10    8.70
  -8  -1   8   22.50    6.70
   7   1  -8   31.40   13.30
   7   1  -8   30.90    7.10
  -7  -1   8   37.10    8.80
  -7  -1   8   21.90    5.40
   6   1  -8   86.99   19.90
   6   1  -8   96.99   11.40
  -6  -1   8   84.99   10.40
  -6  -1   8   84.19   11.70
   5   1  -8  145.49   20.20
   5   1  -8  155.68   14.60
   5   1  -8  154.68    9.00
  -5  -1   8  139.69   13.30
  -5  -1   8  172.98   13.90
  -5  -1   8  158.88    9.40
  -5  -1   8  150.58    7.40
   4   1  -8   42.00    8.90
   4   1  -8   38.40   11.20
  -4  -1   8   47.30    8.50
  -4  -1   8   42.10    5.40
  -4  -1   8   41.40    8.20
   3   1  -8  244.88   22.10
   3   1  -8  248.28   17.70
  -3  -1   8  266.67   16.00
  -3  -1   8  235.48   12.90
  -3  -1   8  254.27   14.80
   2   1  -8  572.14   32.10
   2   1  -8  571.94   27.20
  -2  -1   8  530.85   21.40
  -2  -1   8  567.74   23.60
  -2  -1   8  570.14   24.40
  -2  -1   8  532.05   22.10
   1   1  -8  304.97   20.80
   1   1  -8  309.87   20.10
  -1  -1   8  310.27   16.80
  -1  -1   8  372.66   21.70
  -1  -1   8  272.57   16.80
  -1  -1   8  293.07   13.40
   0   1  -8  135.49   12.60
   0   1  -8  147.69   12.40
   0   1  -8  127.59   13.30
   0  -1   8  138.69    8.50
   0  -1   8  137.29   11.90
   0  -1   8  130.19   11.20
  -1   1  -8   77.29    9.50
  -1   1  -8   89.69   11.90
  -1   1  -8   93.69    8.30
  -1   1  -8   87.49    8.90
   1  -1   8   87.89   10.10
   1  -1   8   79.49    8.90
   1  -1   8   77.89    6.50
  -2   1  -8  116.89   11.10
  -2   1  -8  123.99   14.00
  -2   1  -8  119.69   12.70
  -2   1  -8  132.29   10.60
  -2   1  -8  124.29   10.60
   2  -1   8  135.49   12.40
   2  -1   8  122.09   12.90
  -3   1  -8  108.39   14.50
  -3   1  -8  131.09   11.70
  -3   1  -8  140.79   14.50
   3  -1   8  138.79   13.20
   3  -1   8  138.29   14.70
  -4   1  -8   60.39   11.80
  -4   1  -8   70.09   15.10
  -4   1  -8   52.89    8.60
   4  -1   8   78.09   15.00
   4  -1   8   57.69   10.50
  -5   1  -8   14.20    5.40
  -5   1  -8   11.80   10.00
  -5   1  -8    7.20    5.80
  -5   1  -8   11.30    5.20
   5  -1   8   20.70    7.40
   5  -1   8   10.70    6.60
   8   0  -8   42.10   13.70
   8   0  -8   30.80    9.30
   8   0  -8    8.50    9.00
  -8   0   8   22.60    5.60
  -8   0   8   18.30    6.60
   7   0  -8   62.39   11.30
   7   0  -8   67.69   18.40
  -7   0   8   26.60    6.90
  -7   0   8   42.40    7.20
   6   0  -8   26.20    3.90
   6   0  -8   21.40    6.10
   6   0  -8   16.70    8.70
  -6   0   8   29.60    8.30
  -6   0   8   30.30    6.80
   5   0  -8  139.19   13.20
   5   0  -8  126.29   17.90
  -5   0   8  147.79    7.40
  -5   0   8  153.08    6.90
  -5   0   8  137.89   12.20
  -5   0   8  135.29   14.10
   4   0  -8  216.88   16.50
   4   0  -8  223.58   23.00
  -4   0   8  247.18   11.30
  -4   0   8  241.78   16.30
  -4   0   8  215.48   14.80
   3   0  -8   97.19   13.30
   3   0  -8  127.59   12.60
  -3   0   8  106.39   12.50
  -3   0   8   95.49   10.00
  -3   0   8  102.49    8.00
  -3   0   8  115.09   18.70
   2   0  -8  238.08   17.70
   2   0  -8  295.47   22.20
  -2   0   8  254.17   15.80
  -2   0   8  239.38   16.00
  -2   0   8  252.97   15.40
  -2   0   8  265.27   11.90
   1   0  -8  290.07   17.00
   1   0  -8  293.47   20.80
   1   0  -8  273.67   19.70
  -1   0   8  275.27   17.20
  -1   0   8  286.87   16.60
  -1   0   8  312.27   20.30
  -1   0   8  292.97   11.50
   0   0  -8  185.08   15.90
   0   0  -8  165.98   13.50
   0   0  -8  187.18   16.70
   0   0   8  194.48    8.80
   0   0   8  185.68   13.80
   0   0   8  157.38   13.50
  -1   0  -8   40.80    6.40
  -1   0  -8   41.40   10.10
  -1   0  -8   26.30    6.40
  -1   0  -8   48.30    8.90
   1   0   8   33.60    6.60
   1   0   8   40.30    4.30
   1   0   8   43.30    9.00
  -2   0  -8   67.49   13.40
  -2   0  -8   72.19    7.80
  -2   0  -8   97.29   12.10
  -2   0  -8   87.29   10.80
  -2   0  -8   80.99   10.10
   2   0   8   74.99   12.20
   2   0   8   91.59   10.40
  -3   0  -8  120.49   15.60
  -3   0  -8  108.49   11.90
  -3   0  -8  142.39   15.00
  -3   0  -8  126.09   13.90
  -3   0  -8  119.39   11.20
   3   0   8  113.99   12.90
   3   0   8  110.29   12.90
  -4   0  -8   31.30   10.50
  -4   0  -8   37.50    8.70
  -4   0  -8   29.80    8.60
   4   0   8   34.90    8.60
   4   0   8   28.80    8.90
   8  -1  -8    3.50    7.60
   8  -1  -8   -3.10    4.20
   8  -1  -8    3.00    2.50
  -8   1   8    0.70    5.50
  -8   1   8    4.00    2.80
  -8   1   8   13.30    5.50
   7  -1  -8   27.80    9.40
   7  -1  -8   21.00    6.40
  -7   1   8   25.30    6.90
  -7   1   8   13.50    6.80
  -7   1   8   19.40    4.60
   6  -1  -8  115.99   12.10
   6  -1  -8   85.69   18.90
  -6   1   8   98.49   11.20
  -6   1   8   78.39   13.70
  -6   1   8   83.29    7.60
   5  -1  -8   42.60   12.60
   5  -1  -8   30.70    7.70
  -5   1   8   45.70   10.10
   4  -1  -8   12.90    6.60
   4  -1  -8   29.90    7.20
   4  -1  -8   22.40    5.00
  -4   1   8   18.10    3.40
  -4   1   8   20.60    5.40
  -4   1   8   21.40    5.70
   3  -1  -8   52.79    9.80
   3  -1  -8   58.99    7.30
   3  -1  -8   28.80    8.40
  -3   1   8   57.09    5.50
  -3   1   8   36.00    7.20
  -3   1   8   68.89    8.40
  -3   1   8   63.79    7.70
   2  -1  -8  190.98   22.00
   2  -1  -8  168.18   17.40
   2  -1  -8  197.38   16.40
  -2   1   8  198.28   14.30
  -2   1   8  200.18   14.80
  -2   1   8  203.68    8.70
  -2   1   8  202.48   14.90
   1  -1  -8  120.09   13.10
   1  -1  -8  106.59   13.30
   1  -1  -8   96.49    9.90
  -1   1   8  101.39    5.10
  -1   1   8   87.99   10.00
  -1   1   8  107.99   10.20
   0  -1  -8   21.70    5.60
   0  -1  -8    7.00    4.60
   0  -1  -8   22.30    7.10
   0   1   8   17.70    2.30
   0   1   8   12.30    3.70
   0   1   8    7.30    3.60
  -1  -1  -8   35.60    9.90
  -1  -1  -8   32.50    8.80
  -1  -1  -8   22.30    6.60
  -1  -1  -8   25.50    4.90
   1   1   8   18.00    5.90
   1   1   8   22.90    5.30
   1   1   8   17.00    5.50
  -2  -1  -8   19.40    7.80
  -2  -1  -8   21.00    4.70
  -2  -1  -8   20.60    6.00
  -2  -1  -8   23.10    7.70
   2   1   8   13.70    7.80
  -3  -1  -8   96.39   12.50
  -3  -1  -8  112.19   13.10
  -3  -1  -8   90.19    9.60
  -3  -1  -8   71.19   18.00
   3   1   8  118.99   13.30
   3   1   8   97.49   15.80
  -4  -1  -8   31.40   10.80
  -4  -1  -8   28.00    8.10
  -4  -1  -8   30.80   10.10
  -4  -1  -8   40.50   10.60
   4   1   8   33.20    7.20
   4   1   8   47.10   10.50
   8  -2  -8   17.70    5.00
   8  -2  -8    8.60    8.00
  -8   2   8   11.80    4.20
  -8   2   8    8.90    6.70
  -8   2   8   14.20    5.50
   7  -2  -8    5.00    2.90
   7  -2  -8   11.60    4.00
  -7   2   8    2.00    1.70
  -7   2   8   -3.80    3.10
   6  -2  -8    1.40    3.00
   6  -2  -8   -3.60    4.10
   6  -2  -8    3.70    2.70
  -6   2   8    0.50    1.60
  -6   2   8   -4.00    2.80
  -6   2   8    4.20    3.00
   5  -2  -8    0.90    2.30
   5  -2  -8    5.50    4.60
   5  -2  -8    2.90    2.70
  -5   2   8    2.10    2.80
  -5   2   8   -0.80    2.10
  -5   2   8    0.20    1.10
   4  -2  -8    4.00    1.90
   4  -2  -8    8.10    3.80
   4  -2  -8    2.50    3.50
  -4   2   8    2.90    1.30
  -4   2   8    2.30    1.70
  -4   2   8   -0.40    1.20
  -4   2   8    1.20    1.90
   3  -2  -8    4.80    3.30
   3  -2  -8    0.30    1.70
   3  -2  -8    1.80    2.30
   3  -2  -8    0.30    1.80
  -3   2   8    1.70    0.90
  -3   2   8    1.90    1.60
  -3   2   8    0.90    1.90
  -3   2   8   -1.40    1.30
  -3   2   8    3.30    2.70
   2  -2  -8    2.10    2.10
   2  -2  -8    2.50    2.30
   2  -2  -8    5.20    4.40
  -2   2   8    2.00    2.50
  -2   2   8    1.40    1.90
  -2   2   8    5.60    3.70
   1  -2  -8   48.40   11.30
   1  -2  -8   33.20    7.90
   1  -2  -8   56.39    9.10
  -1   2   8   58.69   10.20
  -1   2   8   44.30    7.90
   0  -2  -8   -1.90    1.70
   0  -2  -8    4.60    3.20
   0   2   8    1.30    2.10
   0   2   8   -1.00    2.10
  -1  -2  -8   13.30    6.60
  -1  -2  -8   12.30    2.90
  -1  -2  -8    9.20    4.60
  -1  -2  -8    6.30    5.00
   1   2   8    7.10    3.80
   1   2   8   11.70    5.10
  -2  -2  -8   14.30    5.20
  -2  -2  -8   24.80   12.20
  -2  -2  -8   11.20    5.80
   2   2   8   12.90    5.40
   2   2   8   25.90    7.70
  -3  -2  -8    4.10    5.20
  -3  -2  -8   -0.50    3.60
  -3  -2  -8    1.80    4.60
  -3  -2  -8    1.50    2.60
   3   2   8    2.90    5.10
   3   2   8    0.00    2.40
  -4  -2  -8   16.00    8.40
  -4  -2  -8    8.50    7.10
  -4  -2  -8    0.70    3.30
  -4  -2  -8    3.70    5.10
   4   2   8   13.00    9.00
   4   2   8   -0.70    3.10
   8  -3  -8    9.50    8.00
   8  -3  -8    8.30    4.20
  -8   3   8    2.50    6.00
  -8   3   8   19.00    5.70
  -8   3   8   22.00    6.70
   7  -3  -8   12.40    4.00
   7  -3  -8    8.90    7.90
  -7   3   8   -0.80    3.50
  -7   3   8    7.50    3.90
  -7   3   8   -0.30    2.40
   6  -3  -8   10.70    7.90
   6  -3  -8    2.70    3.00
  -6   3   8    2.40    2.60
  -6   3   8    2.60    2.00
  -6   3   8    4.80    3.30
   5  -3  -8   19.80    5.90
   5  -3  -8   27.50    7.10
   5  -3  -8   20.50    8.60
  -5   3   8   28.00    8.00
  -5   3   8   21.00    2.70
  -5   3   8   24.10    6.20
  -5   3   8   19.60    3.70
   4  -3  -8   77.89   17.10
   4  -3  -8   61.59    7.50
   4  -3  -8   56.79   10.80
   4  -3  -8   60.49    6.50
  -4   3   8   57.89    4.20
  -4   3   8   49.30    9.70
  -4   3   8   66.19    8.20
  -4   3   8   57.59    5.00
   3  -3  -8   10.50    5.60
   3  -3  -8   13.90    4.30
   3  -3  -8   10.60    4.40
   3  -3  -8   12.30    3.90
  -3   3   8   20.50    6.30
  -3   3   8   11.00    4.20
  -3   3   8    5.50    3.60
   2  -3  -8    6.40    3.00
   2  -3  -8   11.10    4.90
   2  -3  -8    8.70    4.90
  -2   3   8    5.40    2.80
  -2   3   8    5.30    3.50
  -2   3   8    5.80    3.30
   1  -3  -8    9.50    4.50
   1  -3  -8   28.90    9.30
   1  -3  -8   23.60    7.80
  -1   3   8   22.80    5.60
  -1   3   8   19.30    6.10
  -1   3   8   10.50    4.80
   0  -3  -8    9.70    3.80
   0  -3  -8    6.00    4.20
   0   3   8    8.50    4.90
   0   3   8    7.70    4.80
  -1  -3  -8  160.68   15.50
  -1  -3  -8  135.09   16.70
  -1  -3  -8  140.99   17.50
   1   3   8  141.39   14.50
  -2  -3  -8   26.90    9.00
  -2  -3  -8   30.50    5.30
  -2  -3  -8   18.20    8.60
  -2  -3  -8   20.50    7.10
   2   3   8    9.20    5.10
  -3  -3  -8    0.50    3.50
  -3  -3  -8    0.20    6.30
  -3  -3  -8   -0.80    6.40
  -3  -3  -8   -1.10    3.80
   3   3   8    1.60    4.90
   3   3   8    4.90    4.60
   8  -4  -8   14.40   10.20
   8  -4  -8    9.40    4.30
  -8   4   8    1.20    3.10
  -8   4   8   18.70    7.90
   7  -4  -8   15.60    7.80
   7  -4  -8   11.50    4.00
  -7   4   8   11.30    4.60
  -7   4   8   20.80    9.50
  -7   4   8   19.20    6.00
   6  -4  -8   19.80    4.90
   6  -4  -8   26.60    6.20
   6  -4  -8   18.60   11.20
  -6   4   8   33.50    6.70
  -6   4   8   27.40    4.90
  -6   4   8   27.20    7.80
   5  -4  -8   51.79    5.80
   5  -4  -8   50.59    9.20
   5  -4  -8   48.40    7.90
   5  -4  -8   45.00   13.30
  -5   4   8   46.60    4.80
  -5   4   8   32.50    6.90
  -5   4   8   44.70    9.70
  -5   4   8   48.20    4.30
   4  -4  -8   94.79    9.50
   4  -4  -8  104.19   19.50
   4  -4  -8   79.99    8.90
   4  -4  -8   97.59   11.50
  -4   4   8   99.89   12.30
  -4   4   8   84.99    9.50
   3  -4  -8   19.50    5.00
   3  -4  -8   21.80    7.00
   3  -4  -8   17.80    4.60
   3  -4  -8    6.80    5.00
  -3   4   8   12.90    4.90
  -3   4   8   10.00    3.90
  -3   4   8   12.10    4.40
   2  -4  -8   16.30    5.40
   2  -4  -8   28.10    6.20
   2  -4  -8   31.90   10.60
  -2   4   8   48.10    9.40
  -2   4   8   29.60    6.80
  -2   4   8   24.70    7.20
   1  -4  -8  138.69   18.60
   1  -4  -8  169.48   20.50
   1  -4  -8  169.78   14.50
  -1   4   8  155.78   13.90
  -1   4   8  140.89   18.40
  -1   4   8  161.18   15.10
   0  -4  -8   75.89   15.80
   0  -4  -8   92.29   11.50
   0  -4  -8   57.99   11.60
   0   4   8   89.09   11.70
   0   4   8   86.39   11.00
  -1  -4  -8  137.99   19.30
  -1  -4  -8  158.78   19.30
  -1  -4  -8  155.48   16.00
   1   4   8  151.78   15.40
   1   4   8  152.28   15.50
  -2  -4  -8   17.50    6.40
  -2  -4  -8    8.90    3.60
  -2  -4  -8   25.50    8.90
  -2  -4  -8   31.30   11.40
   2   4   8   10.80    5.50
   2   4   8    7.50    5.30
   8  -5  -8    9.30    4.30
   8  -5  -8   14.40   10.40
  -8   5   8   10.90    5.30
  -8   5   8   20.60    8.20
   7  -5  -8   36.40    7.40
   7  -5  -8   25.00   11.20
  -7   5   8   43.20    7.10
  -7   5   8   25.80   10.00
  -7   5   8   34.10   10.20
   6  -5  -8    4.10    8.80
   6  -5  -8   34.20    7.30
  -6   5   8   31.30    7.00
  -6   5   8   35.20    6.90
  -6   5   8   28.60    9.00
   5  -5  -8   23.80    5.00
   5  -5  -8   17.30    9.40
   5  -5  -8    8.20    3.20
   5  -5  -8   20.20    5.80
  -5   5   8    8.60    4.70
  -5   5   8   27.90    6.50
  -5   5   8   18.40    3.30
   4  -5  -8  117.59   22.50
   4  -5  -8  120.59   10.40
  -4   5   8  144.99   15.70
  -4   5   8  123.99   11.20
   3  -5  -8  234.68   15.30
   3  -5  -8  266.97   16.90
   3  -5  -8  273.27   21.50
   3  -5  -8  249.08   26.10
  -3   5   8  250.17   20.60
  -3   5   8  251.97   18.50
   2  -5  -8   34.00    9.30
   2  -5  -8   46.20    9.00
   2  -5  -8   32.10   10.90
  -2   5   8   41.70    9.50
  -2   5   8   53.19    9.50
  -2   5   8   32.50    8.00
   1  -5  -8  100.69   11.80
   1  -5  -8   87.19   18.30
   1  -5  -8   82.09   15.40
  -1   5   8  123.29   13.20
  -1   5   8   95.49   11.70
  -1   5   8  109.49   13.60
   0  -5  -8   51.49   14.70
   0  -5  -8   77.19   15.30
   0  -5  -8   57.09   11.00
   0   5   8   69.39   12.30
   0   5   8   50.89   10.10
  -1  -5  -8    6.50    7.00
  -1  -5  -8    4.50    4.70
  -1  -5  -8    2.30    5.90
   1   5   8    2.10    4.00
   1   5   8    7.00    5.00
  -2  -5  -8   48.50   14.90
  -2  -5  -8   63.99   12.70
  -2  -5  -8   48.80   13.40
   2   5   8   53.39   11.70
   2   5   8   57.29   12.10
   7  -6  -8    4.60    3.20
   7  -6  -8    6.40    7.10
  -7   6   8    2.90    4.20
  -7   6   8  -10.90    6.90
   6  -6  -8   40.30   11.90
   6  -6  -8   41.50    7.50
  -6   6   8   39.80    8.50
  -6   6   8   34.60    5.70
  -6   6   8   42.60   11.50
   5  -6  -8   97.69    9.30
   5  -6  -8   84.79   11.30
   5  -6  -8   90.09   20.10
  -5   6   8   92.59   10.50
  -5   6   8  107.69   15.10
   4  -6  -8   48.60   15.10
   4  -6  -8   54.59    8.70
   4  -6  -8   35.20    8.60
   4  -6  -8   43.10    7.70
  -4   6   8   51.19   12.40
  -4   6   8   57.79    9.60
   3  -6  -8  156.68   24.10
   3  -6  -8  142.39   15.00
   3  -6  -8  149.79   26.70
   3  -6  -8  111.69   11.70
  -3   6   8  131.59   12.80
  -3   6   8  139.59   15.80
   2  -6  -8   24.80    6.10
   2  -6  -8   15.60    8.00
   2  -6  -8   17.40    6.90
  -2   6   8   16.50    7.50
  -2   6   8   23.10    7.20
  -2   6   8   18.00    6.40
   1  -6  -8   10.60    4.60
   1  -6  -8    4.80    5.80
   1  -6  -8   18.50    7.80
  -1   6   8    8.90    5.50
  -1   6   8    3.70    4.10
  -1   6   8   11.90    4.80
   0  -6  -8   58.79   14.20
   0  -6  -8  105.19   20.50
   0  -6  -8   81.99   13.00
   0   6   8  125.09   14.90
   0   6   8  119.89   15.70
   0   6   8  100.79   13.10
  -1  -6  -8  106.89   16.70
  -1  -6  -8   94.09   18.10
   1   6   8  128.89   15.40
   1   6   8   89.49   15.20
   6  -7  -8    3.10    5.10
   6  -7  -8   -5.00    3.40
   6  -7  -8   17.10    6.90
  -6   7   8   -4.30    3.70
   5  -7  -8   34.70    7.70
   5  -7  -8   47.90   14.60
   5  -7  -8   35.10    7.00
  -5   7   8   35.40   10.80
  -5   7   8   30.90    7.90
   4  -7  -8   36.50   12.50
   4  -7  -8   26.00    6.60
   4  -7  -8   32.60    8.00
  -4   7   8   15.60    5.70
  -4   7   8   20.10    8.80
   3  -7  -8    2.70    5.90
   3  -7  -8    2.50    4.30
   3  -7  -8   -0.10    3.20
  -3   7   8   -1.90    3.00
  -3   7   8    1.80    4.20
   2  -7  -8   27.40   10.50
   2  -7  -8    7.30    5.70
   2  -7  -8   20.10    7.00
  -2   7   8   26.50    7.60
  -2   7   8   26.20    7.50
  -2   7   8   21.00    7.70
   1  -7  -8   19.20   10.50
   1  -7  -8   21.80    7.90
   1  -7  -8   26.00    7.30
  -1   7   8   29.80    7.80
  -1   7   8   22.80    7.40
  -1   7   8   26.90    6.70
   5  -8  -8    7.70    4.40
   5  -8  -8   -9.00    6.50
   5  -8  -8   14.50    4.70
  -5   8   8   12.10    6.40
   4  -8  -8    2.30    4.50
   4  -8  -8    4.30    4.00
   4  -8  -8   22.80   11.80
  -4   8   8   11.80    7.30
   3  -8  -8    2.50    4.40
   3  -8  -8    7.20    6.30
   3  -8  -8    9.60    8.60
  -3   8   8   17.30    6.50
  -3   8   8   14.30    8.10
   2  -8  -8   -0.20    4.90
   2  -8  -8   -5.30    6.40
   2  -8  -8   -0.70    3.30
  -2   8   8    1.80    4.20
  -2   8   8   -1.20    5.00
  -1  11  -9   60.99   11.00
   1 -11   9   73.49   11.80
   1 -11   9   66.09    7.90
   2  10  -9   78.99   12.80
   2  10  -9   80.99    9.60
  -2 -10   9   79.49   10.10
   1  10  -9  106.89   11.40
   1  10  -9  103.29   12.80
  -1 -10   9   96.99   11.30
  -1 -10   9  110.79   11.80
   0  10  -9   15.60    4.90
   0  10  -9   20.80    6.80
   0 -10   9   12.70    5.30
   0 -10   9   19.00    5.10
  -1  10  -9    8.80    4.90
   1 -10   9   12.40    4.20
   1 -10   9   22.00    6.20
  -2  10  -9   23.00    6.70
   2 -10   9   10.70    4.00
   2 -10   9   25.90    4.60
  -3  10  -9    9.10    3.90
   3 -10   9    3.70    4.30
   3 -10   9    5.10    4.00
   3   9  -9   74.89   13.00
   3   9  -9   85.19   21.50
   3   9  -9   57.49    7.00
  -3  -9   9   49.60    8.80
  -3  -9   9   59.09   13.30
   2   9  -9   14.70    5.90
   2   9  -9    8.30    6.30
   2   9  -9    9.40    4.00
  -2  -9   9    8.60    3.60
  -2  -9   9    0.60    2.90
   1   9  -9   20.60    5.60
   1   9  -9   18.60    5.30
  -1  -9   9   20.30    6.00
  -1  -9   9   20.80    5.40
   0   9  -9   72.29    9.00
   0   9  -9   62.89   10.50
   0  -9   9   42.70    8.20
   0  -9   9   64.39    8.10
  -1   9  -9   40.00    8.10
  -1   9  -9   14.00    5.80
   1  -9   9   30.70    7.10
   1  -9   9   29.30    4.90
   1  -9   9   35.80    6.40
  -2   9  -9   -0.30    4.10
  -2   9  -9    8.10    4.20
   2  -9   9   10.30    2.90
   2  -9   9   -0.70    2.60
   2  -9   9    6.10    3.70
  -3   9  -9   29.70    7.00
   3  -9   9   17.60    5.80
   3  -9   9   23.20    4.10
   3  -9   9   34.90    7.20
  -4   9  -9   27.70    7.50
   4  -9   9   38.60    8.90
   4   8  -9   -9.00    3.40
   4   8  -9    2.60    9.70
   4   8  -9    2.30    2.20
  -4  -8   9   -1.30    2.40
   3   8  -9    5.60    2.80
   3   8  -9    5.50    3.90
   3   8  -9   14.80    8.60
  -3  -8   9   13.90    5.00
  -3  -8   9   10.30    5.20
   2   8  -9    9.20    3.70
   2   8  -9   21.40    6.50
   2   8  -9   19.70   10.00
  -2  -8   9   15.30    5.30
  -2  -8   9   10.50    4.10
   1   8  -9    7.60    6.30
   1   8  -9   13.10    5.80
   1   8  -9   22.10    5.10
  -1  -8   9   17.70    5.30
  -1  -8   9   15.30    4.70
   0   8  -9    5.30    3.40
   0   8  -9    3.60    4.00
   0  -8   9    6.20    2.60
   0  -8   9    8.80    3.50
   0  -8   9    7.10    3.00
   0  -8   9    4.50    6.10
  -1   8  -9   51.99    8.40
  -1   8  -9   41.50    8.70
   1  -8   9   33.40    5.80
   1  -8   9   33.30    7.40
   1  -8   9   32.40   11.00
   1  -8   9   36.00    7.10
  -2   8  -9   64.59   10.00
  -2   8  -9   65.79   10.40
   2  -8   9   87.59   11.70
   2  -8   9   76.99    9.60
   2  -8   9   83.39    7.80
  -3   8  -9    8.10    4.50
   3  -8   9    4.60    2.90
   3  -8   9    8.10    3.80
  -4   8  -9    2.80    3.50
   4  -8   9    6.30    3.40
   4  -8   9   -1.30    2.40
   5   7  -9   -4.90    3.70
   5   7  -9    6.80   10.20
   5   7  -9    4.00    2.40
  -5  -7   9    4.70    3.10
   4   7  -9    4.00    6.50
   4   7  -9    1.10    3.10
   4   7  -9   -2.70    3.10
   4   7  -9   -3.20    1.70
  -4  -7   9   -0.30    2.60
  -4  -7   9    3.20    2.20
   3   7  -9   -4.30    1.90
   3   7  -9    4.60    5.30
  -3  -7   9    1.50    2.90
  -3  -7   9    2.00    2.70
   2   7  -9    3.50    3.20
   2   7  -9   14.30    5.40
   2   7  -9   13.80    9.00
   2   7  -9   12.20    3.80
  -2  -7   9   14.70    5.10
  -2  -7   9    5.50    3.10
   1   7  -9    2.70    5.30
   1   7  -9    8.20    3.30
   1   7  -9    3.40    3.10
   1   7  -9   -0.30    2.00
  -1  -7   9    2.50    2.30
  -1  -7   9   -0.40    2.00
   0   7  -9   85.99    8.40
   0   7  -9  117.99   20.10
   0   7  -9  100.49   11.60
   0   7  -9   93.99   15.60
   0  -7   9  110.49    9.20
   0  -7   9  115.19   10.40
   0  -7   9   74.99   15.50
   0  -7   9   92.19   17.80
  -1   7  -9    5.20    3.00
  -1   7  -9   -2.10    2.60
   1  -7   9    2.70    2.50
   1  -7   9   -2.00    4.20
   1  -7   9    5.70    2.60
   1  -7   9    4.50    3.80
   1  -7   9    1.20    1.70
  -2   7  -9    7.10    3.70
  -2   7  -9    4.10    4.00
   2  -7   9    9.60    4.50
   2  -7   9   13.20    4.90
   2  -7   9    7.30    3.10
  -3   7  -9    7.60    4.70
  -3   7  -9    0.30    3.40
   3  -7   9   11.30    4.80
  -4   7  -9    2.20    2.30
  -4   7  -9    6.40    3.40
   4  -7   9   -4.80    2.00
   4  -7   9    2.60    3.50
  -5   7  -9   -0.90    3.80
  -5   7  -9    4.20    3.90
   5  -7   9   -3.40    2.40
   5  -7   9    2.90    5.00
   6   6  -9   -2.60    7.20
   6   6  -9    6.30    4.90
  -6  -6   9    6.70    3.50
  -6  -6   9   -0.80    3.00
   5   6  -9   -4.60    5.40
   5   6  -9    5.30    3.90
   5   6  -9    8.30    4.60
   5   6  -9   -0.50    2.00
  -5  -6   9    5.60    3.30
  -5  -6   9    1.10    2.70
   4   6  -9   33.40    5.90
   4   6  -9   33.30   12.40
   4   6  -9   31.40   11.60
  -4  -6   9   33.10    6.20
  -4  -6   9   31.80    7.40
   3   6  -9   18.10    6.00
   3   6  -9   27.40    5.70
   3   6  -9   16.20   10.40
  -3  -6   9   23.40    5.40
  -3  -6   9   19.60    5.80
   2   6  -9    9.90    3.80
   2   6  -9   11.40    5.10
   2   6  -9    7.30    5.90
  -2  -6   9    8.70    4.10
  -2  -6   9   16.00    4.40
   1   6  -9   35.20    9.30
   1   6  -9   39.50   11.10
   1   6  -9   42.00    7.40
  -1  -6   9   34.70    6.30
  -1  -6   9   30.80    6.50
  -1  -6   9   35.60    7.10
   0   6  -9   29.10   10.20
   0   6  -9   45.80    9.30
   0   6  -9   58.29    9.40
   0  -6   9   40.80    9.20
   0  -6   9   42.30    7.10
   0  -6   9   32.00    8.30
   0  -6   9   49.70    6.40
  -1   6  -9   17.80    5.20
  -1   6  -9   20.60    5.50
   1  -6   9   24.10    5.50
   1  -6   9   22.20    6.00
   1  -6   9   15.80    5.40
   1  -6   9   24.00    5.50
   1  -6   9   14.20    4.60
  -2   6  -9   46.20    9.00
  -2   6  -9   47.00    8.10
   2  -6   9   42.00    7.70
   2  -6   9   33.90    6.30
   2  -6   9   40.30    7.90
  -3   6  -9    7.90    5.30
  -3   6  -9    2.90    2.70
  -3   6  -9    3.30    4.10
   3  -6   9   -2.30    3.40
   3  -6   9   11.10    4.40
  -4   6  -9    1.60    3.30
  -4   6  -9    1.70    5.60
  -4   6  -9    3.70    3.30
   4  -6   9    0.30    3.40
   4  -6   9    3.20    2.70
  -5   6  -9    0.20    5.10
  -5   6  -9   -6.10    2.90
   5  -6   9    3.10    3.90
   5  -6   9    0.10    2.80
   6   5  -9   46.20    9.80
   6   5  -9   47.20   15.40
   6   5  -9   31.00    8.20
   6   5  -9   41.70    4.70
  -6  -5   9   33.20    9.10
  -6  -5   9   51.29    6.50
   5   5  -9   60.29    6.00
   5   5  -9   49.10   10.10
   5   5  -9   61.39   16.60
  -5  -5   9   63.79   11.90
  -5  -5   9   59.89    7.30
   4   5  -9    1.70    2.30
   4   5  -9   -4.00    6.50
   4   5  -9    1.00    3.80
  -4  -5   9    2.50    2.50
  -4  -5   9    1.50    1.80
   3   5  -9   70.59   11.60
   3   5  -9   82.49    8.30
   3   5  -9   66.79   15.50
  -3  -5   9   88.19   10.60
  -3  -5   9   82.79    8.40
   2   5  -9  232.78   14.50
   2   5  -9  262.37   19.00
   2   5  -9  230.28   23.00
  -2  -5   9  226.78   15.10
  -2  -5   9  224.48   15.60
   1   5  -9   96.69    9.60
   1   5  -9  118.79   24.90
   1   5  -9  129.49   14.90
  -1  -5   9  123.19   10.30
  -1  -5   9   99.19   10.10
   0   5  -9  107.69   12.10
   0   5  -9  100.29    9.80
   0   5  -9  100.09   11.60
   0  -5   9  115.29   10.40
   0  -5   9   98.19   11.40
   0  -5   9   90.79   10.60
   0  -5   9  102.29    9.90
  -1   5  -9   44.00    8.60
  -1   5  -9   26.10    5.90
   1  -5   9   27.00    6.50
   1  -5   9   25.80    5.90
   1  -5   9   34.30    7.80
  -2   5  -9   54.29    9.10
  -2   5  -9   43.50    9.20
   2  -5   9   45.40    8.90
   2  -5   9   54.89    7.10
   2  -5   9   42.50    8.60
  -3   5  -9    9.90    4.90
  -3   5  -9   13.30    6.40
  -3   5  -9    8.80    4.20
   3  -5   9   16.40    4.70
   3  -5   9   24.60    7.50
   3  -5   9    7.10    5.00
  -4   5  -9   30.60    7.10
  -4   5  -9   35.00    9.50
  -4   5  -9   23.30    6.80
   4  -5   9   34.00    7.90
   4  -5   9   23.00    5.80
  -5   5  -9   41.90    9.90
  -5   5  -9   49.00    9.20
   5  -5   9   50.19    8.60
   5  -5   9   64.79   12.70
   7   4  -9    7.30   11.00
   7   4  -9   24.30    8.10
   7   4  -9   30.60    9.10
  -7  -4   9   16.10    4.90
  -7  -4   9   22.70    6.90
   6   4  -9    1.00    1.80
   6   4  -9   -2.40    4.00
   6   4  -9    0.80    3.20
   6   4  -9   -2.70    7.10
  -6  -4   9    1.70    2.10
  -6  -4   9    2.80    3.30
   5   4  -9   79.19   13.20
   5   4  -9   74.19    6.70
   5   4  -9   85.39   11.10
   5   4  -9   80.39   20.60
  -5  -4   9   70.09   11.20
  -5  -4   9   64.89    6.90
   4   4  -9  189.78   16.60
   4   4  -9  206.58   12.20
   4   4  -9  205.28   24.60
  -4  -4   9  207.18   12.50
  -4  -4   9  224.98   16.70
   3   4  -9   92.39    8.80
   3   4  -9  106.09   19.70
   3   4  -9  114.39   12.70
  -3  -4   9  118.19    9.90
  -3  -4   9  133.59   12.20
   2   4  -9  226.38   13.90
   2   4  -9  196.88   20.70
   2   4  -9  247.38   18.20
  -2  -4   9  232.18   15.90
  -2  -4   9  242.68   10.30
  -2  -4   9  223.48   14.50
   1   4  -9  131.89   11.00
   1   4  -9  132.49   13.60
   1   4  -9  153.88   16.50
  -1  -4   9  127.19   11.30
  -1  -4   9  130.69    8.50
  -1  -4   9  115.69   10.50
   0   4  -9  100.39   11.20
   0   4  -9   93.29    9.10
   0   4  -9   92.79   10.90
   0  -4   9   84.69    9.20
   0  -4   9   83.49    9.00
   0  -4   9   80.39    9.20
   0  -4   9   65.89   10.50
  -1   4  -9   62.09   11.70
  -1   4  -9   47.60    7.70
   1  -4   9   53.89    8.60
   1  -4   9   64.69    8.60
   1  -4   9   81.09    9.80
  -2   4  -9  124.29   12.50
  -2   4  -9  124.49   11.50
  -2   4  -9  143.39   14.80
   2  -4   9  109.59   10.70
   2  -4   9  114.59   13.20
   2  -4   9  118.39   12.60
  -3   4  -9  176.38   16.10
  -3   4  -9  178.68   17.10
   3  -4   9  220.48   17.30
   3  -4   9  193.48   14.70
   3  -4   9  207.88   17.70
  -4   4  -9   13.40    5.90
  -4   4  -9   24.90    6.70
  -4   4  -9   19.40    7.80
   4  -4   9   32.90    7.30
   4  -4   9   33.40    9.80
  -5   4  -9   14.30    8.00
  -5   4  -9    4.80    4.20
  -5   4  -9    9.10    5.50
   5  -4   9    3.60    4.60
   7   3  -9   31.50   16.70
   7   3  -9   12.80    6.40
   7   3  -9   16.30    6.40
  -7  -3   9   17.70    7.30
   6   3  -9  109.99   24.70
   6   3  -9  109.79    6.80
   6   3  -9  109.29   13.40
  -6  -3   9  104.39    7.40
  -6  -3   9  110.89   12.90
   5   3  -9   42.60   13.40
   5   3  -9   62.19    6.90
   5   3  -9   68.79   12.30
   5   3  -9   61.39    7.60
  -5  -3   9   60.89   10.00
  -5  -3   9   59.49    9.90
  -5  -3   9   62.99    6.10
   4   3  -9   71.09   16.20
   4   3  -9   94.29   11.40
   4   3  -9   88.59    7.60
  -4  -3   9   91.69    8.80
  -4  -3   9   78.99    9.90
  -4  -3   9   84.79    7.60
   3   3  -9  119.79   17.10
   3   3  -9  113.39   12.60
   3   3  -9  122.29    9.80
  -3  -3   9  120.69    9.00
  -3  -3   9  116.49   11.20
   2   3  -9  122.39   15.30
   2   3  -9  114.49    9.60
   2   3  -9  138.89   13.80
  -2  -3   9  125.09   11.20
  -2  -3   9  130.49    8.80
  -2  -3   9  132.49   11.50
   1   3  -9  146.69   11.20
   1   3  -9  149.59   15.30
   1   3  -9  161.38   15.00
  -1  -3   9  146.29   10.10
  -1  -3   9  152.18   12.20
  -1  -3   9  139.79   12.00
  -1  -3   9  151.68   14.10
   0   3  -9  104.69   21.90
   0   3  -9  104.89    9.80
   0   3  -9  107.59   11.30
   0  -3   9  114.59   10.80
   0  -3   9  123.89   11.80
   0  -3   9  104.39   10.20
  -1   3  -9  192.38   17.50
  -1   3  -9  189.98   13.60
   1  -3   9  182.58   15.10
   1  -3   9  167.68   15.50
   1  -3   9  205.18   14.60
  -2   3  -9   50.69    8.80
  -2   3  -9   66.09    8.10
  -2   3  -9   78.69   13.60
   2  -3   9   62.79    8.20
   2  -3   9   64.49   11.10
  -3   3  -9   26.10    6.30
  -3   3  -9   24.80    8.60
  -3   3  -9   22.90    6.40
   3  -3   9   26.70    7.80
   3  -3   9   35.40    7.60
  -4   3  -9   21.50    6.80
  -4   3  -9   34.50    9.40
  -4   3  -9   28.00    6.80
   4  -3   9   26.60    8.30
   4  -3   9   23.80    6.40
  -5   3  -9   17.10    9.20
  -5   3  -9    9.70    5.60
  -5   3  -9   16.70    5.80
   5  -3   9   21.40    8.00
   7   2  -9    2.30    3.70
   7   2  -9   11.40    9.10
  -7  -2   9    8.70    5.20
   6   2  -9   13.30   10.00
   6   2  -9   10.80    4.70
   6   2  -9   14.60    3.50
  -6  -2   9   17.50    6.30
  -6  -2   9   15.20    5.40
  -6  -2   9   10.90    2.60
  -6  -2   9    8.10    5.10
   5   2  -9   43.10   13.40
   5   2  -9   52.09    5.80
  -5  -2   9   51.69    5.10
  -5  -2   9   45.40    9.00
  -5  -2   9   56.79    8.00
  -5  -2   9   61.09   10.70
   4   2  -9    9.60    4.10
   4   2  -9    5.60    5.70
   4   2  -9    9.10    3.00
  -4  -2   9    6.10    3.10
  -4  -2   9   15.50    4.70
  -4  -2   9    4.20    2.10
   3   2  -9   63.29    7.10
   3   2  -9   60.69   10.20
   3   2  -9   83.19   16.70
  -3  -2   9   57.19    9.40
  -3  -2   9   52.79    6.60
   2   2  -9   92.79   13.20
   2   2  -9   87.49   13.60
  -2  -2   9   99.29    8.60
  -2  -2   9   90.39    9.50
  -2  -2   9  101.09   10.00
   1   2  -9   87.99   11.90
   1   2  -9   89.99   11.50
  -1  -2   9   82.69    9.20
  -1  -2   9   81.49   10.80
  -1  -2   9   77.09    8.90
   0   2  -9   11.40    5.20
   0   2  -9   22.20    5.70
   0  -2   9   16.80    5.00
   0  -2   9   18.80    5.40
   0  -2   9   32.80    6.40
  -1   2  -9   16.00    5.90
  -1   2  -9   11.80    4.10
   1  -2   9   11.20    4.10
   1  -2   9    5.60    4.40
  -2   2  -9   46.40    8.40
  -2   2  -9   41.00   10.90
   2  -2   9   25.80    6.90
   2  -2   9   37.70    9.20
  -3   2  -9   11.80    5.30
  -3   2  -9   28.60    6.80
  -3   2  -9   26.20    8.00
   3  -2   9   20.90    5.60
   3  -2   9   30.60    8.50
  -4   2  -9   36.50    7.70
  -4   2  -9   22.90    6.50
  -4   2  -9   16.70    7.10
   4  -2   9   28.00    7.50
   4  -2   9   33.50    9.70
  -8  -1   9    1.90    4.40
  -8  -1   9    1.70    4.00
   7   1  -9   -2.10    3.40
   7   1  -9    7.10    6.40
  -7  -1   9    2.70    2.30
  -7  -1   9   -4.20    3.40
  -7  -1   9    1.70    4.90
   6   1  -9    3.80    2.10
   6   1  -9    8.40    4.10
   6   1  -9   -2.30    5.70
  -6  -1   9    2.20    3.50
  -6  -1   9    0.60    2.60
   5   1  -9    8.90    6.40
   5   1  -9    6.90    4.50
  -5  -1   9    3.40    3.10
  -5  -1   9   13.30    5.80
  -5  -1   9   13.80    2.90
   4   1  -9    6.50    5.00
   4   1  -9    2.20    2.80
  -4  -1   9    3.40    2.80
  -4  -1   9   -2.90    2.20
  -4  -1   9    6.60    3.40
   3   1  -9    6.70    6.10
   3   1  -9   15.10    5.40
  -3  -1   9   10.30    4.00
  -3  -1   9   12.10    3.90
  -3  -1   9    6.70    3.10
   2   1  -9   12.80    5.10
   2   1  -9   14.40    5.80
  -2  -1   9   12.00    4.50
  -2  -1   9   11.80    4.60
  -2  -1   9   13.80    3.30
  -2  -1   9   10.70    4.10
   1   1  -9    8.90    4.20
   1   1  -9    3.60    3.60
  -1  -1   9    7.50    4.90
  -1  -1   9    7.50    2.80
  -1  -1   9    9.50    2.80
  -1  -1   9   13.30    4.60
   0   1  -9   -5.20    2.10
   0   1  -9    2.20    2.70
   0   1  -9   -2.60    1.90
   0  -1   9   -1.60    1.80
   0  -1   9    1.00    1.50
  -1   1  -9    0.60    2.00
  -1   1  -9    3.40    4.10
  -1   1  -9    5.50    3.40
  -1   1  -9   -0.30    2.50
   1  -1   9   -0.50    2.50
   1  -1   9   -0.60    2.10
  -2   1  -9   17.40    7.30
  -2   1  -9   22.00    6.10
  -2   1  -9    5.60    3.20
  -2   1  -9    2.00    3.50
  -2   1  -9    7.60    4.80
   2  -1   9    7.00    4.40
   2  -1   9   10.50    4.20
  -3   1  -9   14.50    6.30
  -3   1  -9    3.70    3.90
  -3   1  -9   10.70    4.00
   3  -1   9    4.20    3.40
   3  -1   9    9.90    4.40
  -4   1  -9    1.60    3.00
  -4   1  -9   -2.10    5.80
  -4   1  -9    0.20    2.30
   4  -1   9   -3.60    2.10
   8   0  -9    6.90    6.00
   8   0  -9    6.40    8.40
   8   0  -9    9.80    5.50
  -8   0   9    0.10    7.30
  -8   0   9   14.80    4.60
  -8   0   9   19.00    8.00
   7   0  -9    1.90    7.50
   7   0  -9    3.50    3.30
  -7   0   9    4.60    4.10
  -7   0   9   -1.10    1.40
  -7   0   9   -4.70    4.40
   6   0  -9    9.60    6.70
   6   0  -9    1.80    2.60
  -6   0   9   -0.20    3.10
  -6   0   9    7.10    3.70
   5   0  -9   68.19   16.50
   5   0  -9   57.29   10.90
  -5   0   9   80.59    9.80
  -5   0   9   79.39   10.90
  -5   0   9   83.79    6.20
  -5   0   9   87.69    6.40
   4   0  -9    7.20    4.90
   4   0  -9    6.70    3.80
  -4   0   9   11.80    4.30
  -4   0   9   18.80    5.50
  -4   0   9   11.10    3.10
   3   0  -9    5.50    4.10
   3   0  -9    9.70    4.40
  -3   0   9   13.30    4.30
  -3   0   9    4.40    3.00
  -3   0   9    7.10    3.10
   2   0  -9   23.70    7.50
   2   0  -9   25.90    6.80
  -2   0   9   25.00    4.20
  -2   0   9   26.70    6.70
  -2   0   9   25.30    5.80
  -2   0   9   35.90    7.40
   1   0  -9    1.80    3.40
   1   0  -9    5.40    3.10
   1   0  -9    1.40    3.10
  -1   0   9    2.30    1.60
  -1   0   9    1.30    2.00
  -1   0   9    8.40    3.80
   0   0  -9   30.20    7.80
   0   0  -9   34.30    9.40
   0   0  -9   27.50    6.50
   0   0   9   27.40    6.90
   0   0   9   16.70    5.20
  -1   0  -9   21.10    6.50
  -1   0  -9   20.80    4.50
  -1   0  -9   10.80    5.80
  -1   0  -9   12.70    5.50
   1   0   9   14.90    5.80
   1   0   9   13.10    4.50
   1   0   9   23.00    3.70
  -2   0  -9   23.90    6.80
  -2   0  -9   20.50    7.80
  -2   0  -9   10.60    6.10
  -2   0  -9    4.10    4.20
  -2   0  -9   17.00    5.30
   2   0   9   10.20    5.10
   2   0   9    3.60    2.80
  -3   0  -9   55.89   11.20
  -3   0  -9   30.60    9.10
  -3   0  -9   34.70   10.00
  -3   0  -9   27.60    6.80
   3   0   9   32.20    8.90
   3   0   9   34.70    8.80
  -4   0  -9    3.40    6.60
  -4   0  -9    6.90    6.70
  -4   0  -9    3.40    4.00
   4   0   9   -0.60    6.20
   8  -1  -9    7.30    6.50
   8  -1  -9    0.60    7.50
  -8   1   9    4.20    5.70
  -8   1   9    8.00    4.10
  -8   1   9   17.30    6.50
   7  -1  -9  159.38   29.20
   7  -1  -9  125.89   13.70
  -7   1   9  123.79   13.10
  -7   1   9  109.59    9.60
  -7   1   9  134.99   17.30
   6  -1  -9    2.70    5.90
   6  -1  -9   17.70    5.40
  -6   1   9   11.80    3.00
  -6   1   9   23.20    7.60
  -6   1   9   16.40    5.90
   5  -1  -9    5.20    6.00
   5  -1  -9   11.10    4.00
  -5   1   9   12.70    4.40
  -5   1   9   11.60    4.70
  -5   1   9    9.20    2.10
   4  -1  -9  156.58   20.10
   4  -1  -9  136.99   13.70
  -4   1   9  129.89    8.50
  -4   1   9  147.09   13.90
  -4   1   9  129.29   11.80
   3  -1  -9   50.39    9.30
   3  -1  -9   52.29   11.90
  -3   1   9   53.39    8.80
  -3   1   9   49.50    9.00
  -3   1   9   58.09   10.20
   2  -1  -9   98.89   14.10
   2  -1  -9   96.09   10.20
   2  -1  -9   95.09   12.10
  -2   1   9   92.09    5.80
  -2   1   9   99.79   11.00
  -2   1   9   99.39   10.30
  -2   1   9  108.59   11.50
   1  -1  -9  102.49   16.10
   1  -1  -9  101.99   13.70
   1  -1  -9   94.99   10.50
  -1   1   9   93.09    5.10
  -1   1   9   85.79   10.50
  -1   1   9  113.19   11.50
   0  -1  -9  109.09   12.20
   0  -1  -9  146.19   15.90
   0  -1  -9  118.69   14.90
   0   1   9  113.09   12.50
   0   1   9  118.69    6.00
   0   1   9  118.69   12.50
  -1  -1  -9  181.38   17.80
  -1  -1  -9  196.88   19.80
  -1  -1  -9  217.08   21.70
  -1  -1  -9  167.98   10.50
   1   1   9  186.98    8.90
   1   1   9  183.38   16.00
  -2  -1  -9   38.20    9.90
  -2  -1  -9   28.80    8.40
  -2  -1  -9   40.00    6.70
   2   1   9   30.30    7.90
   2   1   9   15.70    6.30
  -3  -1  -9    1.50    3.20
  -3  -1  -9   -1.90    4.00
  -3  -1  -9   -8.20    3.50
  -3  -1  -9    9.20    6.90
   3   1   9    0.70    4.80
   3   1   9    0.70    3.40
   8  -2  -9   14.90    5.20
   8  -2  -9    1.00    9.40
  -8   2   9   22.20    5.70
  -8   2   9   14.60    8.10
  -8   2   9   25.60    7.30
   7  -2  -9    9.50    4.30
   7  -2  -9    3.80    7.70
  -7   2   9   20.40    7.50
  -7   2   9    7.60    3.10
  -7   2   9    9.20    5.40
   6  -2  -9   78.99   17.20
   6  -2  -9   92.69   11.50
  -6   2   9   64.19    6.40
  -6   2   9   88.99   10.50
  -6   2   9   65.19   15.00
   5  -2  -9   32.50   17.20
   5  -2  -9   28.50   10.50
  -5   2   9   38.70    4.00
  -5   2   9   41.70    8.70
  -5   2   9   30.70    7.90
   4  -2  -9  187.28   22.10
   4  -2  -9  134.49   14.30
  -4   2   9  143.29   14.50
  -4   2   9  159.78    9.20
  -4   2   9  180.38    8.00
  -4   2   9  153.28   13.10
   3  -2  -9  187.98   13.50
   3  -2  -9  147.29   18.10
   3  -2  -9  181.28   16.60
  -3   2   9  184.18   15.50
  -3   2   9  139.09   13.30
  -3   2   9  166.28   13.50
   2  -2  -9  105.09   15.00
   2  -2  -9   89.09   10.20
   2  -2  -9  108.49   13.10
  -2   2   9  119.69   12.70
  -2   2   9  110.79   12.10
  -2   2   9  114.89   11.30
   1  -2  -9  282.27   18.70
   1  -2  -9  278.47   22.00
   1  -2  -9  265.47   23.60
  -1   2   9  285.87   19.10
  -1   2   9  292.97   19.90
   0  -2  -9   62.29   13.40
   0  -2  -9   65.09   14.00
   0  -2  -9   58.19   10.10
   0   2   9   73.19   12.20
   0   2   9   74.19   12.30
  -1  -2  -9   13.40    6.60
  -1  -2  -9   21.50    4.40
  -1  -2  -9    5.90    5.10
  -1  -2  -9   18.60    6.40
   1   2   9   20.00    6.60
   1   2   9   11.80    4.30
  -2  -2  -9   41.50   11.00
  -2  -2  -9   84.29   15.10
  -2  -2  -9   71.89   16.00
  -2  -2  -9   65.99    7.80
   2   2   9   86.99   14.90
   2   2   9   73.59   13.60
  -3  -2  -9   49.50    8.00
  -3  -2  -9   52.39   13.10
  -3  -2  -9   27.00    9.30
  -3  -2  -9   47.50   13.70
   3   2   9   60.49   12.70
   3   2   9   28.00    7.90
   8  -3  -9   30.30    7.80
   8  -3  -9   27.30   13.40
  -8   3   9   18.40    5.60
  -8   3   9   29.60   10.20
   7  -3  -9   26.60   14.10
   7  -3  -9   34.90    8.10
  -7   3   9   21.40    7.80
  -7   3   9   35.70    6.30
   6  -3  -9   38.60   13.70
   6  -3  -9   31.70    6.70
   6  -3  -9   54.59   10.00
  -6   3   9   51.59    5.70
  -6   3   9   51.89    9.30
  -6   3   9   40.80   11.10
   5  -3  -9   77.59   10.20
   5  -3  -9   72.39   18.10
   5  -3  -9   77.99    8.70
  -5   3   9   66.39    5.30
  -5   3   9   60.59   12.70
   4  -3  -9   92.99   19.10
   4  -3  -9   81.99    8.80
   4  -3  -9   96.99   12.00
  -4   3   9   79.99   11.10
  -4   3   9   81.89    9.70
   3  -3  -9  306.67   17.80
   3  -3  -9  282.27   27.00
   3  -3  -9  282.87   21.50
  -3   3   9  273.07   17.80
  -3   3   9  252.97   19.80
  -3   3   9  261.27   19.10
   2  -3  -9    9.70    6.30
   2  -3  -9   17.30    5.60
   2  -3  -9   31.60    6.80
  -2   3   9   17.10    6.20
  -2   3   9   27.10    6.80
  -2   3   9   32.50    7.40
   1  -3  -9    9.10    3.70
   1  -3  -9   10.10    7.60
   1  -3  -9   13.30    8.80
  -1   3   9   11.20    4.60
  -1   3   9   18.00    5.60
  -1   3   9    8.00    6.80
   0  -3  -9  118.89   13.40
   0  -3  -9  108.99   18.80
   0  -3  -9   95.19   17.10
   0   3   9  124.29   14.00
   0   3   9  125.49   13.30
  -1  -3  -9   64.79   14.60
  -1  -3  -9   75.19   14.20
  -1  -3  -9   64.39   13.90
   1   3   9   76.79   13.40
   1   3   9   75.19   12.70
  -2  -3  -9   33.50    6.30
  -2  -3  -9   28.70    8.40
  -2  -3  -9   36.60   11.50
  -2  -3  -9   36.20   11.90
   2   3   9   34.50    8.80
   2   3   9   28.00    8.60
   7  -4  -9   15.50    8.90
   7  -4  -9   27.30    6.60
  -7   4   9   11.40    5.70
  -7   4   9   15.60    6.10
  -7   4   9   24.00    5.60
   6  -4  -9   12.20    4.90
   6  -4  -9    5.60    5.40
  -6   4   9    2.20    2.30
  -6   4   9    2.90    3.10
  -6   4   9    4.00    3.60
   5  -4  -9   64.89    8.50
   5  -4  -9   82.59   10.50
   5  -4  -9   74.99    7.90
   5  -4  -9   51.29   16.00
  -5   4   9   62.09    9.70
  -5   4   9   66.79    5.80
  -5   4   9   55.49   12.00
  -5   4   9   70.09    5.30
   4  -4  -9    6.30    4.10
   4  -4  -9    8.80    3.80
   4  -4  -9   11.00    3.10
  -4   4   9    8.00    3.60
  -4   4   9    2.40    3.10
   3  -4  -9    4.00    2.70
   3  -4  -9    3.30    4.80
   3  -4  -9    0.60    3.40
  -3   4   9    2.00    2.70
  -3   4   9    6.90    3.30
   2  -4  -9   42.20   14.00
   2  -4  -9   49.90   10.90
   2  -4  -9   59.79    9.90
  -2   4   9   47.50    9.90
  -2   4   9   49.99    9.00
  -2   4   9   58.49   11.50
   1  -4  -9   32.50    8.00
   1  -4  -9   27.30    9.20
   1  -4  -9   33.50   14.10
  -1   4   9   30.40    7.50
  -1   4   9   24.70    6.90
  -1   4   9   24.40    7.90
   0  -4  -9   13.80    7.90
   0  -4  -9   38.30   10.70
   0  -4  -9   21.10    6.90
   0   4   9   26.00    6.90
   0   4   9   16.40    7.10
  -1  -4  -9   11.10    7.80
  -1  -4  -9    9.10    5.40
  -1  -4  -9   11.20    8.40
   1   4   9   24.40    8.50
   1   4   9    6.40    5.10
  -2  -4  -9   35.00   13.50
  -2  -4  -9   13.90    9.90
  -2  -4  -9   23.20    8.90
   2   4   9   39.50    9.20
   2   4   9   18.00    9.10
   7  -5  -9   -6.50    8.10
   7  -5  -9    9.60    4.40
  -7   5   9    2.70    5.00
  -7   5   9    9.90    4.40
   6  -5  -9   11.50    4.60
   6  -5  -9   11.10    8.60
  -6   5   9    8.20    5.10
  -6   5   9    0.30    2.70
  -6   5   9    7.80    5.10
   5  -5  -9   14.20    4.40
   5  -5  -9   12.40    6.90
   5  -5  -9    7.10    5.10
  -5   5   9   14.00    4.80
  -5   5   9    2.40    4.90
   4  -5  -9   26.00    7.30
   4  -5  -9   29.20   10.80
   4  -5  -9   14.80    4.90
  -4   5   9   23.30    6.40
  -4   5   9   18.20    6.10
   3  -5  -9    4.10    3.50
   3  -5  -9   19.30    7.60
   3  -5  -9    3.20    6.60
  -3   5   9    4.10    3.40
  -3   5   9    4.20    4.10
  -3   5   9    0.70    2.70
   2  -5  -9   -6.30    4.00
   2  -5  -9    0.60    3.00
   2  -5  -9    7.20    3.50
  -2   5   9    4.40    3.10
  -2   5   9   -0.30    2.70
  -2   5   9   -3.90    2.90
   1  -5  -9   -0.10    5.10
   1  -5  -9   -1.90    3.60
   1  -5  -9   -1.70    2.50
  -1   5   9   -0.70    3.70
  -1   5   9   -0.90    3.50
  -1   5   9   -2.40    3.00
   0  -5  -9   12.10    6.20
   0  -5  -9   15.90    7.50
   0  -5  -9    6.50    7.50
   0   5   9   14.10    5.40
   0   5   9   11.50    5.50
   0   5   9    8.60    4.70
  -1  -5  -9   -3.10    7.10
  -1  -5  -9    8.40    5.80
  -1  -5  -9   -0.30    4.90
   1   5   9    8.00    5.10
   1   5   9    5.20    5.40
   7  -6  -9    5.20    4.60
   7  -6  -9   24.80   11.70
  -7   6   9    5.60    6.50
   6  -6  -9    5.10    5.00
   6  -6  -9    3.20    3.40
   6  -6  -9    4.40    3.60
  -6   6   9    0.10    4.20
   5  -6  -9   -2.30    3.70
   5  -6  -9    0.00    2.50
   5  -6  -9    7.20    5.50
  -5   6   9    3.60    4.60
  -5   6   9    6.80    4.80
   4  -6  -9    9.30    6.30
   4  -6  -9    3.90    3.70
   4  -6  -9    8.10    3.70
  -4   6   9    9.00    4.10
  -4   6   9   14.20    6.60
   3  -6  -9   17.50    5.20
   3  -6  -9    2.60    6.80
   3  -6  -9    9.00    5.90
  -3   6   9    8.70    4.70
  -3   6   9    8.70    5.50
   2  -6  -9   -3.10    5.70
   2  -6  -9    0.90    2.90
   2  -6  -9   -2.40    4.20
  -2   6   9    6.90    4.80
  -2   6   9   -1.40    3.30
  -2   6   9   -2.80    3.40
   1  -6  -9   -5.90    5.40
   1  -6  -9    6.20    5.80
   1  -6  -9    5.10    3.50
  -1   6   9   -0.60    4.20
  -1   6   9   -0.50    4.30
  -1   6   9    1.20    4.10
   0  -6  -9   44.30   10.20
   0  -6  -9   58.79   16.50
   0  -6  -9   29.00   10.40
   0   6   9   36.40   10.40
   0   6   9   42.90   10.10
   0   6   9   42.30   10.80
   6  -7  -9   21.20    5.80
   6  -7  -9    1.60   10.30
  -6   7   9   26.10    9.80
   5  -7  -9   28.20    7.50
   5  -7  -9   40.70   13.80
   5  -7  -9   46.50    8.20
  -5   7   9   53.29   13.40
   4  -7  -9    4.30    5.20
   4  -7  -9    6.00    4.70
   4  -7  -9   -0.90    7.00
  -4   7   9    5.30    3.30
  -4   7   9   -6.60    3.90
   3  -7  -9    7.70    3.60
   3  -7  -9   12.20    5.90
   3  -7  -9   -2.70    6.90
  -3   7   9    3.50    5.40
  -3   7   9    1.70    4.00
   2  -7  -9   95.89   15.00
   2  -7  -9  111.29   33.40
   2  -7  -9   76.39   16.40
  -2   7   9   92.09   14.50
  -2   7   9  127.59   16.60
  -2   7   9   87.49   14.10
   1  10 -10   12.10    6.80
   1  10 -10    2.40    2.70
  -1 -10  10   -3.90    1.90
  -1 -10  10    0.40    3.60
   0  10 -10    6.90    3.40
   0 -10  10   -6.00    4.70
   0 -10  10    7.90    3.50
  -1  10 -10   -4.00    3.40
   1 -10  10   -3.90    2.20
   1 -10  10   -4.70    3.00
  -2  10 -10   -2.50    2.60
   2 -10  10    0.10    2.70
   2 -10  10    8.00    3.80
   3   9 -10    1.70    5.60
   3   9 -10  -11.20    6.30
   3   9 -10    7.10    3.40
  -3  -9  10    1.00    2.70
  -3  -9  10    5.80    3.20
   2   9 -10    6.10    8.30
   2   9 -10    1.70    4.50
   2   9 -10   18.10    5.10
  -2  -9  10   12.30    4.60
  -2  -9  10   17.70    5.00
   1   9 -10   13.40    5.40
   1   9 -10   17.60    9.70
   1   9 -10    3.40    3.60
  -1  -9  10    8.80    4.00
  -1  -9  10    4.10    2.70
   0   9 -10    5.90    3.70
   0   9 -10   11.40    5.20
   0  -9  10   -2.50    2.20
   0  -9  10    3.00    3.20
  -1   9 -10    0.30    3.00
  -1   9 -10   -4.40    4.30
   1  -9  10    1.90    2.60
   1  -9  10    4.90    4.30
   1  -9  10    2.70    3.00
  -2   9 -10   -0.30    2.70
   2  -9  10   -2.90    3.20
   2  -9  10    2.50    2.40
   2  -9  10    9.00    4.10
   3  -9  10    4.50    4.40
   3  -9  10    1.00    2.30
   4   8 -10   10.00    3.60
   4   8 -10   19.10   12.00
   4   8 -10    2.50    4.10
  -4  -8  10    4.00    3.10
  -4  -8  10    3.90    4.60
   3   8 -10   46.20    8.10
   3   8 -10   61.29   15.90
  -3  -8  10   48.50    8.30
  -3  -8  10   42.40    9.60
   2   8 -10   63.89   17.20
   2   8 -10   61.19   12.00
   2   8 -10   53.79    8.80
  -2  -8  10   54.59    9.30
  -2  -8  10   58.49   10.50
   1   8 -10   11.60    9.60
   1   8 -10    9.80    4.80
   1   8 -10    4.40    4.10
  -1  -8  10    8.90    4.50
  -1  -8  10   11.40    4.50
   0   8 -10    3.20    3.60
   0   8 -10    6.60    3.70
   0  -8  10    0.50    2.30
   0  -8  10    4.30    3.00
   0  -8  10   12.70    5.90
  -1   8 -10   46.90    9.00
  -1   8 -10   36.20    7.30
   1  -8  10   33.40    6.80
   1  -8  10   43.40    7.60
  -2   8 -10   22.70    6.10
  -2   8 -10   38.90    8.70
   2  -8  10   43.00    7.50
   2  -8  10   46.70    8.30
  -3   8 -10   54.89    9.80
   3  -8  10   57.79    7.00
   3  -8  10   71.39   18.20
  -4   8 -10    9.40    6.80
   4  -8  10   19.80    5.10
   4  -8  10   15.30    6.80
   5   7 -10    9.10    9.30
   5   7 -10   12.10    6.10
   5   7 -10   13.50    4.80
   5   7 -10   15.70    4.20
  -5  -7  10    8.00    4.20
  -5  -7  10   11.80    4.40
   4   7 -10   43.30    7.20
   4   7 -10   28.50    9.10
   4   7 -10   13.50   10.90
  -4  -7  10   34.00    8.40
  -4  -7  10   28.10    6.20
   3   7 -10   74.09   13.20
   3   7 -10   50.79   14.60
  -3  -7  10   58.39   11.00
  -3  -7  10   64.29    9.90
   2   7 -10   27.90   10.70
   2   7 -10   35.90    8.80
   2   7 -10   26.50    6.20
  -2  -7  10   37.80    8.20
  -2  -7  10   42.10    7.90
   1   7 -10  144.09   18.50
   1   7 -10  130.59   13.80
   1   7 -10  115.39   11.20
  -1  -7  10  130.49   12.30
  -1  -7  10  137.59   13.30
   0   7 -10   92.59   15.60
   0   7 -10   74.09   11.80
   0   7 -10   54.79    9.30
   0  -7  10   69.19    8.10
   0  -7  10   63.09   11.50
   0  -7  10   72.79    8.70
  -1   7 -10   84.49   11.20
  -1   7 -10   84.29   10.10
   1  -7  10   80.19    8.70
   1  -7  10   78.29   12.70
   1  -7  10   88.99   11.30
   1  -7  10   98.39    9.60
   1  -7  10   97.39   10.20
  -2   7 -10   53.89   10.60
  -2   7 -10   59.09    9.90
   2  -7  10   63.29   10.70
   2  -7  10   60.69   10.90
   2  -7  10   60.99    7.80
  -3   7 -10    6.70    3.60
  -3   7 -10    1.90    5.90
   3  -7  10   10.20    3.90
   3  -7  10   -2.70    3.60
  -4   7 -10   -2.60    6.20
  -4   7 -10   17.10    5.70
   4  -7  10   12.00    5.60
   4  -7  10   16.70    4.80
   5   6 -10   12.90    5.10
   5   6 -10    6.90    8.30
   5   6 -10   20.70    4.70
  -5  -6  10    9.50    4.10
  -5  -6  10   10.70    5.20
   4   6 -10   13.90   10.10
   4   6 -10    5.00    3.70
   4   6 -10   -2.10    1.80
  -4  -6  10    3.20    2.90
  -4  -6  10    3.30    3.00
   3   6 -10  180.58   16.90
   3   6 -10  185.98   13.40
  -3  -6  10  194.38   14.30
  -3  -6  10  225.48   17.30
   2   6 -10  153.48   20.60
   2   6 -10  191.48   14.00
   2   6 -10  197.88   16.80
  -2  -6  10  174.88   14.10
  -2  -6  10  161.18   14.30
   1   6 -10   57.39   12.70
   1   6 -10   41.60    7.30
   1   6 -10   57.39   10.10
  -1  -6  10   39.30   10.50
  -1  -6  10   46.20    7.60
   0   6 -10   59.69   10.80
   0   6 -10   67.79   14.30
   0   6 -10   82.59   13.60
   0  -6  10   48.60    6.20
   0  -6  10   65.99   11.00
   0  -6  10   46.70   10.00
   0  -6  10   56.39    9.30
   0  -6  10   59.49   10.50
  -1   6 -10   -0.10    2.10
  -1   6 -10    2.50    3.40
   1  -6  10    0.00    4.10
   1  -6  10    0.80    2.10
   1  -6  10   -2.80    2.20
  -2   6 -10   24.80    7.70
  -2   6 -10   13.80    4.90
   2  -6  10   12.30    6.10
   2  -6  10   27.30    6.20
   2  -6  10   20.50    6.40
  -3   6 -10    5.30    4.00
  -3   6 -10   21.20    7.30
   3  -6  10   17.70    6.20
   3  -6  10   11.50    4.10
  -4   6 -10   37.80   10.40
  -4   6 -10   32.10    7.70
   4  -6  10   31.90    7.00
   4  -6  10   24.60    8.00
   6   5 -10   -5.20    3.60
   6   5 -10   -0.90    2.00
   6   5 -10   17.20   15.40
   6   5 -10   -1.40    4.60
  -6  -5  10    2.20    2.40
  -6  -5  10   -1.70    2.40
   5   5 -10   21.00    6.50
   5   5 -10   17.20    9.10
   5   5 -10   23.90    5.30
  -5  -5  10   33.30    6.50
  -5  -5  10   28.20    8.10
   4   5 -10   22.50   11.00
   4   5 -10   40.90    7.30
   4   5 -10   42.80   15.60
  -4  -5  10   50.39    7.80
  -4  -5  10   44.60    9.40
   3   5 -10    8.80    5.70
   3   5 -10   11.30    4.00
   3   5 -10    6.30    6.40
  -3  -5  10   13.80    4.70
  -3  -5  10   19.70    5.40
   2   5 -10   90.89   11.60
   2   5 -10  122.69   10.80
   2   5 -10  107.69   20.10
  -2  -5  10  103.19   11.00
   1   5 -10   13.40    5.80
   1   5 -10    7.60    3.30
   1   5 -10   -0.10    3.30
  -1  -5  10   11.00    3.50
  -1  -5  10   12.60    3.80
   0   5 -10    2.50    3.60
   0   5 -10    1.90    1.90
   0   5 -10    4.90    3.80
   0  -5  10   -0.30    1.80
   0  -5  10   -7.20    4.00
   0  -5  10   -2.00    1.80
  -1   5 -10    9.90    4.60
  -1   5 -10   31.70    7.90
   1  -5  10   20.40    5.60
   1  -5  10   15.70    5.20
   1  -5  10    8.00    5.20
  -2   5 -10   36.80    8.30
  -2   5 -10   34.40    9.30
   2  -5  10   30.50    7.00
   2  -5  10   31.30    7.80
   2  -5  10   26.80    8.10
  -3   5 -10  223.88   16.50
  -3   5 -10  181.88   18.80
  -3   5 -10  221.28   18.30
   3  -5  10  200.48   18.00
   3  -5  10  204.18   15.60
  -4   5 -10   12.10    8.10
  -4   5 -10    7.70    4.40
  -4   5 -10    7.30    3.70
   4  -5  10    7.40    3.70
   4  -5  10    4.00    3.40
   6   4 -10    3.00    9.40
   6   4 -10    8.70    2.90
   6   4 -10   15.80    6.50
  -6  -4  10    3.00    2.50
  -6  -4  10   12.10    5.10
   5   4 -10   16.20   10.60
   5   4 -10   34.50    5.90
   5   4 -10   25.20    7.50
  -5  -4  10   27.50    7.70
  -5  -4  10   22.10    4.50
   4   4 -10    5.70    3.40
   4   4 -10    3.60    2.60
  -4  -4  10    0.50    3.00
  -4  -4  10    3.50    2.90
  -4  -4  10    1.80    1.70
   3   4 -10   22.20    5.40
   3   4 -10   21.60    6.70
   3   4 -10   22.10    8.90
  -3  -4  10   26.00    6.50
  -3  -4  10   15.50    4.20
   2   4 -10   -1.40    2.10
   2   4 -10   -0.80    2.00
   2   4 -10    1.60    3.30
  -2  -4  10    0.60    2.20
  -2  -4  10   -3.00    1.30
  -2  -4  10    2.50    2.30
   1   4 -10    3.60    2.50
   1   4 -10   10.10    6.50
   1   4 -10   -1.50    2.30
  -1  -4  10    1.40    1.70
  -1  -4  10    6.80    3.40
  -1  -4  10    7.00    2.20
   0   4 -10   -0.60    3.30
   0   4 -10    0.50    2.30
   0  -4  10   -1.20    2.60
  -1   4 -10  319.07   23.00
  -1   4 -10  305.77   18.50
   1  -4  10  328.87   19.40
   1  -4  10  305.47   20.90
  -2   4 -10   -5.10    3.50
  -2   4 -10    3.10    1.90
   2  -4  10    5.00    2.70
  -3   4 -10  144.99   16.40
  -3   4 -10  129.29   13.80
  -3   4 -10  120.59   12.70
   3  -4  10  137.29   13.00
   3  -4  10  136.49   15.50
  -4   4 -10    4.50    4.80
  -4   4 -10    0.30    3.00
  -4   4 -10    0.40    5.20
   4  -4  10    9.00    3.40
   4  -4  10    2.90    4.50
   7   3 -10   12.10    9.10
   7   3 -10   18.40    6.70
  -7  -3  10    7.10    5.10
   6   3 -10   -2.60    2.90
   6   3 -10   -5.00    5.60
  -6  -3  10    1.30    2.10
  -6  -3  10    8.90    4.60
   5   3 -10  102.29   12.80
   5   3 -10  101.89   23.30
   5   3 -10  106.69    8.50
  -5  -3  10   88.79   16.00
  -5  -3  10  101.39   11.00
  -5  -3  10   91.49    7.90
   4   3 -10   54.69    6.60
   4   3 -10   71.29   13.00
   4   3 -10   61.69   15.60
  -4  -3  10   58.49    7.50
  -4  -3  10   48.80    9.70
  -4  -3  10   55.39    6.70
   3   3 -10    4.00    2.10
   3   3 -10    8.10    6.20
   3   3 -10   -0.50    2.90
  -3  -3  10    1.40    2.20
  -3  -3  10    7.10    2.70
   2   3 -10    5.40    3.40
   2   3 -10    4.70    4.30
   2   3 -10    7.20    4.00
  -2  -3  10    5.30    2.80
  -2  -3  10    5.60    2.80
  -2  -3  10   19.80    5.60
   1   3 -10  220.88   18.60
   1   3 -10  234.18   20.10
   1   3 -10  227.38   15.10
  -1  -3  10  216.78   16.10
  -1  -3  10  223.28   13.90
  -1  -3  10  213.78   15.80
   0   3 -10  148.09   15.50
   0   3 -10  129.49   11.70
   0   3 -10  116.89   12.80
   0  -3  10  118.39   11.80
   0  -3  10  133.09   12.60
  -1   3 -10  678.53   35.10
  -1   3 -10  674.03   28.20
   1  -3  10  672.73   32.10
   1  -3  10  663.23   29.00
  -2   3 -10    6.50    4.00
  -2   3 -10    3.20    2.80
  -2   3 -10    1.10    2.80
   2  -3  10    5.50    4.00
   2  -3  10    0.80    2.00
  -3   3 -10    0.90    4.80
  -3   3 -10    1.30    2.10
  -3   3 -10    3.10    3.30
   3  -3  10    2.60    2.80
   3  -3  10    0.10    3.40
  -4   3 -10    0.20    3.40
  -4   3 -10   -6.70    6.30
  -4   3 -10    1.00    3.60
   4  -3  10   -0.70    2.50
   4  -3  10    1.10    2.50
   7   2 -10   34.60   16.30
   7   2 -10   19.00    7.30
  -7  -2  10   37.80   10.20
   6   2 -10   45.40   10.40
   6   2 -10   25.30   13.70
  -6  -2  10   66.69   11.80
  -6  -2  10   52.19    5.00
  -6  -2  10   36.40    8.60
   5   2 -10   25.90   10.20
   5   2 -10   43.30    7.00
   5   2 -10   26.70    8.30
  -5  -2  10   30.80    5.10
  -5  -2  10   37.10    8.10
  -5  -2  10   45.30    9.00
   4   2 -10   98.79   12.70
   4   2 -10   84.99    8.30
   4   2 -10   84.89   18.10
  -4  -2  10   87.29   10.50
   3   2 -10  124.79   13.90
   3   2 -10  130.79   17.80
  -3  -2  10  111.19    9.80
  -3  -2  10  110.89   11.70
  -3  -2  10  110.79   11.40
   2   2 -10  178.38   19.20
   2   2 -10  166.28   16.10
  -2  -2  10  185.28   14.80
  -2  -2  10  194.78   15.40
  -2  -2  10  193.88   13.10
   1   2 -10 1484.35   51.89
   1   2 -10 1199.08   80.39
  -1  -2  10 1481.05   46.30
  -1  -2  10 1443.56   44.50
   0   2 -10   26.80    8.60
   0   2 -10   15.00    5.70
   0  -2  10   18.90    5.50
   0  -2  10   11.20    4.90
  -1   2 -10   11.50    4.70
  -1   2 -10   12.80    6.00
   1  -2  10   10.20    4.20
   1  -2  10   14.30    5.30
  -2   2 -10   24.00    6.30
  -2   2 -10   25.60    8.30
   2  -2  10   30.90    8.30
   2  -2  10   21.90    6.60
  -3   2 -10    0.40    6.10
  -3   2 -10    3.50    3.10
  -3   2 -10    6.60    3.00
   3  -2  10    6.40    4.30
   3  -2  10    3.30    3.60
  -4   2 -10   13.60    8.80
  -4   2 -10   20.30    6.20
  -4   2 -10   17.30    6.20
   4  -2  10    9.00    8.50
   7   1 -10    4.80    7.60
   7   1 -10   17.80    6.10
  -7  -1  10    1.50    4.00
   6   1 -10   38.70    9.10
   6   1 -10   57.59   17.90
   6   1 -10   44.80    6.60
  -6  -1  10   47.50    4.30
  -6  -1  10   70.19   12.30
  -6  -1  10   54.59    9.70
   5   1 -10    0.30    1.80
   5   1 -10   -3.40    3.50
   5   1 -10    2.70    2.60
  -5  -1  10   -4.60    2.30
  -5  -1  10    0.60    1.50
  -5  -1  10    3.80    2.90
  -5  -1  10    2.50    2.90
   4   1 -10  221.58   18.80
   4   1 -10  238.78   25.00
  -4  -1  10  248.98   17.50
  -4  -1  10  224.88   16.40
   3   1 -10 1199.58   46.10
   3   1 -10 1223.48   55.49
  -3  -1  10 1191.18   40.30
  -3  -1  10 1201.68   41.70
  -3  -1  10 1173.08   37.90
   2   1 -10    1.80    3.50
   2   1 -10    4.00    3.30
  -2  -1  10   -0.70    1.90
  -2  -1  10   -2.90    1.70
  -2  -1  10   -1.60    1.60
  -2  -1  10    3.40    2.00
   1   1 -10   10.50    5.80
   1   1 -10   24.50    7.60
  -1  -1  10   21.30    5.80
  -1  -1  10   22.50    4.30
  -1  -1  10   21.00    5.90
   0   1 -10   77.99   13.60
   0   1 -10   80.89   10.40
   0   1 -10   96.09   12.00
   0  -1  10   93.89   10.90
   0  -1  10  128.09   13.30
  -1   1 -10   10.00    5.10
  -1   1 -10   12.20    6.40
  -1   1 -10    9.90    5.00
   1  -1  10    1.20    2.50
   1  -1  10   21.40    6.70
  -2   1 -10  118.29   11.30
  -2   1 -10  115.89   13.90
  -2   1 -10  123.09   19.80
  -2   1 -10  128.09   13.80
  -2   1 -10  113.79   11.30
   2  -1  10  162.78   15.30
   2  -1  10  108.79   17.00
  -3   1 -10   41.90    9.80
  -3   1 -10   57.29   15.80
  -3   1 -10   63.49   10.30
   3  -1  10   49.99   10.50
   3  -1  10   57.99   12.60
  -4   1 -10   21.10    9.70
  -4   1 -10   35.80    8.10
  -4   1 -10   40.80    7.80
  -4   1 -10   19.80    8.50
   4  -1  10   26.50    9.50
   4  -1  10   20.60    6.80
   7   0 -10   -0.70    3.10
   7   0 -10   17.60    8.50
   7   0 -10   -3.50    2.60
  -7   0  10   -2.30    2.20
  -7   0  10    5.10    5.20
  -7   0  10   11.40    4.80
   6   0 -10   85.99   20.40
   6   0 -10  106.99   13.30
  -6   0  10   90.59   11.80
  -6   0  10  114.29   13.80
   5   0 -10  825.32   37.70
   5   0 -10  805.62   51.19
  -5   0  10  777.12   22.90
  -5   0  10  821.92   35.80
  -5   0  10  779.52   33.20
   4   0 -10    4.10    3.00
   4   0 -10    4.00    6.20
  -4   0  10    2.10    2.20
  -4   0  10    3.20    3.60
   3   0 -10    4.60    3.40
   3   0 -10   14.00    7.60
  -3   0  10    5.00    3.30
  -3   0  10    5.50    3.00
  -3   0  10   11.20    3.70
   2   0 -10   55.59   12.50
   2   0 -10   74.19   13.90
  -2   0  10   39.80    8.30
  -2   0  10   66.69   10.90
  -2   0  10   65.99   11.00
  -2   0  10   46.40    8.80
   1   0 -10   22.20    7.30
   1   0 -10   26.30    6.70
   1   0 -10   17.20    6.80
  -1   0  10   22.40    3.70
  -1   0  10   14.30    5.00
  -1   0  10   19.50    6.10
   0   0 -10  265.97   19.70
   0   0 -10  251.37   22.20
   0   0 -10  240.58   20.30
   0   0  10  237.68   19.10
   0   0  10  268.77   19.10
   0   0  10  237.88   10.70
  -1   0 -10  116.79   13.20
  -1   0 -10  130.19   16.00
   1   0  10  117.09   14.10
   1   0  10  121.79   13.20
  -2   0 -10   68.09   12.30
  -2   0 -10   82.29    9.10
  -2   0 -10   91.39   24.30
  -2   0 -10   76.59   14.20
   2   0  10   67.09   12.30
   2   0  10   66.69   13.20
  -3   0 -10   31.10    7.30
  -3   0 -10   39.40    9.30
  -3   0 -10   30.40    8.80
  -3   0 -10   43.90   13.00
   3   0  10   30.60    8.80
   3   0  10   14.60    7.10
  -8   1  10   11.50    4.40
   7  -1 -10  138.39   27.20
   7  -1 -10  117.19   14.00
  -7   1  10  124.39   13.70
  -7   1  10  141.59   16.70
  -7   1  10  131.39   10.70
   6  -1 -10    0.50    3.10
   6  -1 -10   -5.40    5.90
  -6   1  10   -2.50    1.30
  -6   1  10    0.00    3.00
   5  -1 -10    2.10    3.70
   5  -1 -10    4.40    6.10
  -5   1  10    4.60    2.90
  -5   1  10   -1.00    3.00
  -5   1  10    1.10    2.40
   4  -1 -10   34.30   11.50
   4  -1 -10   62.09   12.40
  -4   1  10   38.40    8.70
  -4   1  10   54.59    9.70
   3  -1 -10    3.60    2.80
   3  -1 -10   -3.10    3.90
  -3   1  10   -1.90    1.80
  -3   1  10    0.90    1.70
  -3   1  10    2.20    2.50
  -3   1  10    1.00    2.90
   2  -1 -10   99.79   13.20
   2  -1 -10  136.99   17.20
   2  -1 -10  136.29   12.50
  -2   1  10  132.69   12.80
  -2   1  10  120.69   13.00
  -2   1  10  131.69   13.60
   1  -1 -10  101.79   17.30
   1  -1 -10   93.19   11.30
   1  -1 -10  129.59   15.80
  -1   1  10   90.69   10.90
  -1   1  10  102.69   12.20
   0  -1 -10   53.19   10.10
   0  -1 -10   59.89   12.60
   0  -1 -10   71.99   15.60
   0   1  10   58.49   10.90
   0   1  10   58.09    4.30
   0   1  10   52.99   10.40
  -1  -1 -10   43.00   11.10
  -1  -1 -10   40.30   10.50
  -1  -1 -10   26.90    8.00
   1   1  10   21.70    7.10
   1   1  10   30.50    7.60
  -2  -1 -10    3.10    3.10
  -2  -1 -10   -2.40    2.60
  -2  -1 -10   -0.70    5.30
  -2  -1 -10   -1.40    4.40
   2   1  10   -3.00    3.10
   2   1  10   -1.50    2.80
  -3  -1 -10   16.10    9.30
  -3  -1 -10    7.20    4.70
  -3  -1 -10   -1.60    4.30
  -3  -1 -10    1.20    6.00
   3   1  10    3.30    4.90
   3   1  10    2.50    4.20
   7  -2 -10   51.89   16.30
   7  -2 -10   43.00    8.90
  -7   2  10   31.20    9.60
  -7   2  10   32.60    9.30
  -7   2  10   35.30    6.10
   6  -2 -10   -0.20    3.30
   6  -2 -10    3.40    7.20
  -6   2  10    4.60    5.20
  -6   2  10    3.50    4.00
  -6   2  10    4.00    2.20
   5  -2 -10    4.20    6.60
   5  -2 -10   -3.90    2.00
  -5   2  10   -1.10    2.30
  -5   2  10    3.40    2.10
  -5   2  10    2.00    3.50
  -5   2  10    1.00    1.10
   4  -2 -10   30.60   14.30
   4  -2 -10   35.00    9.00
  -4   2  10   26.50    7.10
  -4   2  10   30.00    3.10
  -4   2  10   20.30    6.10
   3  -2 -10    1.70    3.60
   3  -2 -10    3.20    5.40
   3  -2 -10    4.90    2.90
  -3   2  10    5.80    2.60
  -3   2  10    2.00    2.80
  -3   2  10    3.20    3.20
   2  -2 -10   -5.80    2.70
   2  -2 -10    1.70    3.70
  -2   2  10    5.20    3.60
  -2   2  10   -3.50    2.50
  -2   2  10    0.10    2.40
   1  -2 -10    9.80    5.00
   1  -2 -10    0.20    4.40
   1  -2 -10    7.20    4.40
  -1   2  10   20.80    6.40
  -1   2  10    5.20    3.20
  -1   2  10    0.80    4.60
   0  -2 -10   12.20    6.10
   0  -2 -10    3.80    4.30
   0  -2 -10   16.10    8.80
   0   2  10   14.50    5.40
   0   2  10   22.30    7.70
  -1  -2 -10   -2.00    5.40
  -1  -2 -10    5.90    5.00
  -1  -2 -10    4.70    3.60
   1   2  10    1.30    3.50
   1   2  10    0.00    3.10
  -2  -2 -10    8.30    6.60
  -2  -2 -10   -4.80    5.30
  -2  -2 -10   11.70    4.60
  -2  -2 -10   -0.20    3.40
   2   2  10    2.30    4.30
   2   2  10    1.60    5.10
   7  -3 -10   14.90    4.10
   7  -3 -10    5.30    9.20
  -7   3  10    3.80    3.30
  -7   3  10    9.10    4.50
  -7   3  10    3.70    5.70
   6  -3 -10    7.70    7.00
   6  -3 -10    2.80    3.20
  -6   3  10    0.10    2.60
  -6   3  10    0.20    3.40
  -6   3  10    1.70    1.90
   5  -3 -10    1.50    6.00
   5  -3 -10    2.60    2.70
  -5   3  10    1.60    3.90
  -5   3  10    4.00    3.80
  -5   3  10    2.20    1.70
   4  -3 -10   34.50   12.10
   4  -3 -10   25.00    6.90
   4  -3 -10   27.30    6.20
  -4   3  10   42.90    8.90
  -4   3  10   47.90   11.00
   3  -3 -10   50.59   18.90
   3  -3 -10   22.20    6.00
   3  -3 -10   21.90    7.10
  -3   3  10   10.50    4.30
  -3   3  10   31.10    7.40
  -3   3  10   23.50    7.40
   2  -3 -10   72.49    9.50
   2  -3 -10   71.79   13.00
   2  -3 -10   76.29   16.40
  -2   3  10   88.59   12.30
  -2   3  10   65.79   11.60
  -2   3  10   79.59   10.40
   1  -3 -10   21.10    6.90
   1  -3 -10    8.50    5.30
   1  -3 -10   26.10   10.00
  -1   3  10   19.90    6.40
  -1   3  10   19.30    6.80
  -1   3  10   17.60    6.20
   0  -3 -10   10.90    4.60
   0  -3 -10    2.00    3.70
   0  -3 -10   -1.00    5.30
   0   3  10    0.40    3.00
   0   3  10    1.90    3.60
  -1  -3 -10   -0.90    5.00
  -1  -3 -10   16.20    6.30
   1   3  10    5.50    4.70
   1   3  10    8.30    5.50
  -2  -3 -10    8.60    6.10
  -2  -3 -10   -8.70    9.80
  -2  -3 -10    2.60    9.80
   2   3  10    8.30    7.50
   2   3  10   13.50   10.20
   7  -4 -10   12.20    5.30
  -7   4  10   10.40    5.80
  -7   4  10    5.70    5.60
  -7   4  10    4.00    3.40
   6  -4 -10   27.40   10.80
   6  -4 -10   41.30    9.90
  -6   4  10   60.99   11.10
  -6   4  10   44.10    6.00
  -6   4  10   37.80    9.20
   5  -4 -10    8.60    6.60
   5  -4 -10   16.30    6.40
   5  -4 -10   19.20    5.20
  -5   4  10   22.50    9.10
  -5   4  10    4.80    4.60
   4  -4 -10   56.99    9.50
   4  -4 -10   33.90    8.80
   4  -4 -10   56.29   16.90
  -4   4  10   49.50   10.00
  -4   4  10   39.80    9.50
   3  -4 -10   88.39   10.90
   3  -4 -10  109.79   14.40
   3  -4 -10   88.99   19.20
  -3   4  10   93.39   13.00
  -3   4  10   94.29   11.80
  -3   4  10   90.69   11.80
   2  -4 -10   27.10   10.60
   2  -4 -10   20.40    6.40
   2  -4 -10   22.80    7.40
  -2   4  10   24.60    8.10
  -2   4  10   16.00    5.90
  -2   4  10   13.30    6.20
   1  -4 -10   14.50    9.20
   1  -4 -10    8.50    6.50
   1  -4 -10   21.10    7.30
  -1   4  10   42.10   11.90
  -1   4  10   22.40    7.00
  -1   4  10   22.70    7.50
   0  -4 -10   43.10   11.40
   0  -4 -10   35.40    9.10
   0  -4 -10   32.80   11.00
   0   4  10   56.39   12.00
   0   4  10   38.00   10.00
  -1  -4 -10   12.70    8.50
  -1  -4 -10   28.40    9.30
  -1  -4 -10   13.60    9.10
   1   4  10   13.40    5.90
   1   4  10   11.70    6.60
   7  -5 -10   36.10   15.50
   7  -5 -10   20.30    6.20
  -7   5  10   30.10   10.30
   6  -5 -10   -3.30    7.60
   6  -5 -10   23.40    5.90
  -6   5  10   19.30    8.10
  -6   5  10   11.70    6.20
   5  -5 -10   23.90    6.00
   5  -5 -10   43.40   15.90
   5  -5 -10   33.10    8.10
  -5   5  10   35.40    8.30
  -5   5  10   29.20    8.80
   4  -5 -10   24.00    5.90
   4  -5 -10   18.30   11.10
   4  -5 -10   19.70    6.50
  -4   5  10   12.60    6.30
  -4   5  10    8.60    5.50
   3  -5 -10   66.29   11.00
   3  -5 -10   80.69   15.50
   3  -5 -10   65.89   18.40
  -3   5  10   70.79   11.80
  -3   5  10   87.09   14.80
  -3   5  10   52.59   11.30
   2  -5 -10   63.19   14.20
   2  -5 -10   41.10   13.50
   2  -5 -10   57.89   10.70
  -2   5  10   60.09   11.30
  -2   5  10   79.59   14.10
  -2   5  10   56.19   12.40
   1  -5 -10   46.20   13.00
   1  -5 -10   20.60    6.30
   1  -5 -10   49.80   13.70
  -1   5  10   20.00    7.20
  -1   5  10   18.80    8.00
  -1   5  10   21.10    7.30
   0  -5 -10   25.40   10.40
   0  -5 -10   15.70    7.60
   0   5  10   11.60    7.00
   0   5  10   25.80    8.70
   0   5  10    5.00    4.80
   6  -6 -10    5.00    4.60
   6  -6 -10    9.90   10.60
  -6   6  10   12.00    7.00
   5  -6 -10   13.70    6.30
   5  -6 -10   11.00    4.90
  -5   6  10   21.30    7.10
  -5   6  10   39.20   18.10
   4  -6 -10   35.90   12.40
   4  -6 -10   45.50   10.20
   4  -6 -10   47.30    9.00
  -4   6  10   41.00    8.60
  -4   6  10   23.80    7.70
   3  -6 -10   28.80    7.40
   3  -6 -10   17.20    8.20
   3  -6 -10   18.90   11.80
  -3   6  10   26.50    9.80
  -3   6  10   28.90    8.20
  -3   6  10   24.40    8.00
   2  -6 -10   17.50    9.40
   2  -6 -10   14.10    7.30
   2  -6 -10    7.30    7.10
  -2   6  10   22.10    8.40
  -2   6  10   -3.50    6.50
  -2   6  10   24.80    8.50
   0  10 -11   24.80    6.40
   0 -10  11   23.20    5.80
   0 -10  11   16.90    5.90
   2   9 -11   20.80   11.00
   2   9 -11   19.00    8.00
   2   9 -11   11.50    4.40
  -2  -9  11    9.40    4.80
  -2  -9  11   11.60    5.60
   1   9 -11   15.70    9.70
   1   9 -11   14.40    6.70
   1   9 -11   10.40    4.40
  -1  -9  11   13.50    5.00
  -1  -9  11   28.60    7.70
   0   9 -11   25.40    5.90
   0   9 -11   37.60    8.10
   0  -9  11   20.00    5.70
   0  -9  11   25.80    7.20
  -1   9 -11   10.90    5.40
   1  -9  11    6.50    4.00
   1  -9  11   -0.30    2.50
   1  -9  11    6.20    3.90
  -2   9 -11    8.70    4.90
   2  -9  11    7.00    3.20
   2  -9  11    0.80    2.50
   2  -9  11    5.00    3.90
   3   8 -11    3.20    8.20
   3   8 -11    3.90    4.40
   3   8 -11    8.10    3.70
  -3  -8  11   -1.60    2.70
  -3  -8  11    6.60    3.50
   2   8 -11   16.00    6.50
   2   8 -11   10.30    7.70
   2   8 -11   16.30    4.30
  -2  -8  11    7.80    4.60
  -2  -8  11   11.70    5.10
   1   8 -11    0.30    2.50
   1   8 -11    5.60    8.00
   1   8 -11    6.90    5.50
  -1  -8  11    5.10    3.20
  -1  -8  11    7.80    3.90
   0   8 -11   10.00    5.80
   0   8 -11   12.80    5.60
   0  -8  11   11.10    4.00
   0  -8  11    8.00    4.30
   0  -8  11   12.60    4.70
  -1   8 -11   63.79   11.10
  -1   8 -11   77.09   13.20
   1  -8  11   75.39    9.20
   1  -8  11   83.39    9.60
  -2   8 -11   -0.90    6.10
  -2   8 -11   -4.00    2.90
   2  -8  11   -4.80    2.50
   2  -8  11   -3.40    3.90
  -3   8 -11   -1.20    3.30
   3  -8  11   -1.80    2.10
   3  -8  11   10.90    4.30
   4   7 -11    9.00    5.20
   4   7 -11   -0.20    2.60
   4   7 -11   11.90    9.30
  -4  -7  11   -3.20    3.40
  -4  -7  11    3.10    3.10
   3   7 -11   -2.10    2.40
   3   7 -11    2.60    6.50
  -3  -7  11    0.80    3.20
  -3  -7  11    3.50    2.40
   2   7 -11   -0.70    6.20
   2   7 -11    4.20    3.00
   2   7 -11   -7.70    3.10
  -2  -7  11   -4.20    1.70
  -2  -7  11    4.20    2.80
   1   7 -11  114.39   13.70
   1   7 -11  109.29   11.50
   1   7 -11   95.19   17.60
  -1  -7  11   95.49   10.80
  -1  -7  11  105.09   11.70
  -1  -7  11   94.59   10.00
   0   7 -11    3.50    4.20
   0   7 -11    5.50    4.00
   0   7 -11    0.60    3.20
   0  -7  11   -3.20    1.70
   0  -7  11   -0.80    2.10
  -1   7 -11   48.30    9.80
  -1   7 -11   55.49   13.60
   1  -7  11   33.70    7.60
   1  -7  11   29.30    6.70
  -2   7 -11    3.90    3.40
  -2   7 -11   -2.30    4.90
   2  -7  11   -1.30    4.30
   2  -7  11    1.40    2.10
  -3   7 -11    2.30    3.40
   3  -7  11   -0.10    2.80
   3  -7  11    3.50    4.60
   5   6 -11    8.30    3.60
   5   6 -11   21.90   12.90
   5   6 -11   14.70    6.10
  -5  -6  11   17.40    4.50
  -5  -6  11   14.10    5.80
   4   6 -11   13.30    5.30
   4   6 -11    8.70    8.20
   4   6 -11   13.70    3.90
  -4  -6  11   16.20    5.80
   3   6 -11   14.80    5.80
   3   6 -11   13.60    9.40
  -3  -6  11   18.40    5.00
  -3  -6  11    6.90    4.20
   2   6 -11   33.50    6.70
   2   6 -11   32.30   12.30
   2   6 -11   31.20    8.20
  -2  -6  11   36.00    8.20
  -2  -6  11   23.10    6.30
   1   6 -11   73.49   11.00
   1   6 -11  108.49   13.70
   1   6 -11   83.39   16.20
  -1  -6  11  105.69   10.90
  -1  -6  11   98.19   11.20
   0   6 -11   10.40    4.80
   0   6 -11   -3.10    2.10
   0   6 -11   10.00    4.60
   0  -6  11    0.70    2.40
   0  -6  11    0.80    2.50
  -1   6 -11   47.80    9.20
  -1   6 -11   32.00    9.20
   1  -6  11   34.70    6.90
   1  -6  11   36.00    8.20
  -2   6 -11   15.50    5.60
  -2   6 -11   16.10    6.90
   2  -6  11   11.70    5.60
   2  -6  11   13.00    4.60
  -3   6 -11    3.00    3.20
  -3   6 -11    4.30    8.30
   3  -6  11    3.60    4.70
   3  -6  11   -0.70    2.80
   6   5 -11    5.80    3.20
   6   5 -11    3.60    8.50
  -6  -5  11   -1.40    4.40
  -6  -5  11   12.40    4.30
   5   5 -11    7.00    2.90
   5   5 -11    2.50    8.40
   5   5 -11   -1.30    3.60
  -5  -5  11   -0.50    1.90
  -5  -5  11   -4.30    3.10
   4   5 -11   50.49   10.60
   4   5 -11   76.39    8.10
   4   5 -11   54.19   17.50
  -4  -5  11   59.79   11.00
  -4  -5  11   66.89    8.20
   3   5 -11  228.08   26.50
   3   5 -11  240.08   15.70
   3   5 -11  260.27   21.40
  -3  -5  11  230.28   17.80
  -3  -5  11  232.78   16.20
   2   5 -11   24.90   10.70
   2   5 -11   37.70    9.60
   2   5 -11   29.70    6.40
  -2  -5  11   25.00    6.50
  -2  -5  11   27.90    6.60
   1   5 -11   52.29   11.80
   1   5 -11   28.00    7.00
   1   5 -11   56.29   12.80
  -1  -5  11   53.79    6.00
  -1  -5  11   42.20    8.30
  -1  -5  11   43.60    8.60
   0   5 -11   26.00    7.80
   0   5 -11   19.20    6.60
   0   5 -11   17.60    5.40
   0  -5  11   23.40    6.10
   0  -5  11   24.70    6.70
   0  -5  11   15.40    5.10
  -1   5 -11   47.20    9.20
   1  -5  11   37.50    7.80
   1  -5  11   37.30    9.30
  -2   5 -11   66.49   11.20
  -2   5 -11   69.49   13.60
   2  -5  11   74.19   12.60
   2  -5  11   75.69    9.50
  -3   5 -11    0.20    3.00
  -3   5 -11    9.00    5.50
   3  -5  11   -4.80    3.80
   3  -5  11    8.50    4.50
  -4   5 -11   20.30    6.10
  -4   5 -11   22.50    7.40
   4  -5  11   11.90    7.50
   6   4 -11   30.10    8.40
   6   4 -11   71.79   21.20
   6   4 -11   36.50    6.10
  -6  -4  11   27.30    8.20
  -6  -4  11   42.10    6.90
   5   4 -11  167.48   11.90
   5   4 -11  160.98   17.20
   5   4 -11  142.79   28.20
  -5  -4  11  177.68   16.60
  -5  -4  11  156.78   11.30
   4   4 -11   79.99   20.00
   4   4 -11   68.39    8.00
   4   4 -11   55.89   11.70
  -4  -4  11   55.69    8.70
  -4  -4  11   55.99    7.00
  -4  -4  11   53.89    9.90
   3   4 -11   76.69   14.00
   3   4 -11   84.89   18.50
   3   4 -11   63.89    9.80
  -3  -4  11   83.69    7.60
  -3  -4  11   67.19   11.20
   2   4 -11   41.10    7.30
   2   4 -11   51.89   13.10
   2   4 -11   58.19   11.80
  -2  -4  11   33.90    7.40
  -2  -4  11   56.99    6.30
  -2  -4  11   57.69   14.90
   1   4 -11    9.20    4.80
   1   4 -11   17.20    7.70
   1   4 -11   10.10    4.30
  -1  -4  11   15.70    5.20
  -1  -4  11   15.40    4.20
   0   4 -11  114.39   13.30
   0   4 -11  118.39   11.40
   0   4 -11  115.69   14.70
   0  -4  11  110.49   12.50
   0  -4  11  103.59   11.30
   0  -4  11  136.19   12.80
  -1   4 -11   59.79   13.70
  -1   4 -11   65.59   10.30
   1  -4  11   83.09   10.00
   1  -4  11   56.69   15.20
  -2   4 -11  130.69   20.30
  -2   4 -11  103.59   11.40
   2  -4  11  122.79   12.70
   2  -4  11  125.19   14.90
  -3   4 -11   24.50   10.40
  -3   4 -11   60.29   12.00
  -3   4 -11   38.80    7.90
   3  -4  11   46.70   11.10
   3  -4  11   47.50    9.90
   6   3 -11   15.10    3.90
   6   3 -11   27.10    8.70
   6   3 -11   18.90   13.40
  -6  -3  11   18.60    4.20
  -6  -3  11   10.60    5.80
  -6  -3  11   11.00    6.10
   5   3 -11   20.20    5.10
   5   3 -11   13.60    5.70
   5   3 -11   20.20    9.90
  -5  -3  11   16.60    6.20
  -5  -3  11   14.90    4.00
  -5  -3  11   15.50    5.60
   4   3 -11   49.99    7.70
   4   3 -11   50.29   11.70
  -4  -3  11   45.90    8.20
  -4  -3  11   43.30    9.60
   3   3 -11   39.30   11.10
   3   3 -11   18.80    4.80
   3   3 -11   15.60    6.00
  -3  -3  11   18.60    4.70
  -3  -3  11   14.90    4.70
   2   3 -11  120.49   11.20
   2   3 -11  148.49   16.20
   2   3 -11  126.79   17.10
  -2  -3  11  141.19   11.00
  -2  -3  11  134.69   13.20
  -2  -3  11  144.29   13.50
   1   3 -11   52.59   11.30
   1   3 -11   71.29   14.60
   1   3 -11   54.09    8.70
  -1  -3  11   52.29    9.10
  -1  -3  11   73.19    8.40
  -1  -3  11   68.99   11.60
   0   3 -11   61.99   11.80
   0   3 -11   93.89   16.30
   0   3 -11   60.99   10.10
   0  -3  11   53.89   10.00
   0  -3  11   58.59   10.80
  -1   3 -11  145.29   16.90
  -1   3 -11  131.09   12.60
   1  -3  11  122.99   12.70
   1  -3  11  141.89   15.10
  -2   3 -11    9.20    4.00
  -2   3 -11   -2.50    5.70
   2  -3  11    8.80    3.30
   2  -3  11   36.90    9.20
  -3   3 -11   11.30    6.10
  -3   3 -11    7.90    4.50
  -3   3 -11   17.20    5.70
   3  -3  11   16.20    5.60
   3  -3  11    9.10    4.60
   7   2 -11    1.90    3.70
   7   2 -11    5.30    9.70
  -7  -2  11    3.60    3.80
  -7  -2  11   -8.30    4.90
   6   2 -11    2.10    4.00
   6   2 -11   16.80    4.10
   6   2 -11    4.00    8.40
  -6  -2  11    5.70    4.10
  -6  -2  11    3.50    2.20
  -6  -2  11   -4.20    4.10
   5   2 -11   -0.40    1.90
   5   2 -11    2.50    6.00
   5   2 -11    6.90    3.80
  -5  -2  11    2.10    3.60
  -5  -2  11    1.70    2.00
  -5  -2  11    2.40    4.70
   4   2 -11   57.29   11.50
   4   2 -11   62.19   15.20
   4   2 -11   80.29    8.60
  -4  -2  11   69.79    9.40
  -4  -2  11   64.29   11.30
   3   2 -11  106.69   20.10
   3   2 -11   99.89   13.40
  -3  -2  11   92.39    9.40
  -3  -2  11   94.79   11.10
  -3  -2  11  103.29   11.90
   2   2 -11   12.30    5.70
   2   2 -11    6.20    4.40
  -2  -2  11    2.00    2.90
  -2  -2  11   13.40    4.40
  -2  -2  11    5.60    3.30
   1   2 -11   28.80    8.00
   1   2 -11   28.80    9.10
  -1  -2  11   25.10    6.50
  -1  -2  11   16.80    5.30
   0   2 -11    3.80    4.00
   0   2 -11   -0.80    3.60
   0  -2  11    0.50    2.30
  -1   2 -11   21.10    6.00
  -1   2 -11   13.50    7.40
   1  -2  11   31.40    9.00
   1  -2  11   25.10    7.30
  -2   2 -11   30.90    7.80
  -2   2 -11   34.60    7.70
  -2   2 -11   45.00   11.30
   2  -2  11   56.69   11.90
   2  -2  11   40.70    9.40
  -3   2 -11    6.00    3.30
  -3   2 -11    9.10    5.10
  -3   2 -11   10.30    7.70
   3  -2  11   -4.50    3.40
   7   1 -11    3.70    2.70
  -7  -1  11    8.00    4.70
  -7  -1  11  -11.80    5.50
   6   1 -11   -2.00    2.30
   6   1 -11   11.80    8.00
   6   1 -11    1.00    2.40
  -6  -1  11    0.70    1.90
  -6  -1  11   -4.10    3.80
  -6  -1  11   -4.00    3.60
   5   1 -11   14.00    7.70
   5   1 -11   30.30    8.90
  -5  -1  11   17.80    5.70
  -5  -1  11   15.10    5.50
   4   1 -11    1.30    5.60
   4   1 -11   12.40    6.10
  -4  -1  11   -0.60    2.50
  -4  -1  11    7.80    3.90
   3   1 -11    2.80    3.60
   3   1 -11   -8.60    4.10
  -3  -1  11    4.40    2.50
  -3  -1  11    7.40    2.60
  -3  -1  11    1.30    2.50
   2   1 -11   30.30    8.10
   2   1 -11   10.00    5.90
  -2  -1  11    6.80    4.20
  -2  -1  11   18.80    5.90
  -2  -1  11   14.60    5.30
   1   1 -11    9.30    6.00
   1   1 -11   16.70    7.50
  -1  -1  11   14.10    5.70
  -1  -1  11   14.80    4.70
   0   1 -11   10.80    6.10
   0   1 -11   -2.80    3.00
   0  -1  11    6.80    3.80
   0  -1  11    8.20    3.30
  -1   1 -11   -3.70    2.70
  -1   1 -11    4.90    2.80
  -1   1 -11    3.90    4.10
   1  -1  11   -0.90    2.90
   1  -1  11    0.80    2.50
  -2   1 -11   30.90    6.90
  -2   1 -11   23.60    7.40
  -2   1 -11   30.40    7.50
  -2   1 -11   20.20    8.90
   2  -1  11   44.90   10.10
   2  -1  11   35.10    9.10
  -3   1 -11  -10.60    5.10
  -3   1 -11    3.40    6.60
  -3   1 -11   -3.40    3.30
   3  -1  11    9.00    5.00
   3  -1  11   -1.50    3.40
   7   0 -11    0.70    3.70
  -7   0  11    6.10    4.60
  -7   0  11    0.40    4.90
  -7   0  11   -1.80    2.10
   6   0 -11   47.90   16.10
   6   0 -11   64.19   13.10
  -6   0  11   54.79   10.70
  -6   0  11   49.00   11.50
   5   0 -11   23.20   11.20
   5   0 -11   15.50    5.50
  -5   0  11   23.30    6.80
  -5   0  11   42.60    9.30
   4   0 -11   15.80    6.20
   4   0 -11   23.30   10.70
  -4   0  11   12.90    4.50
  -4   0  11   25.90    6.90
   3   0 -11   25.80    7.90
   3   0 -11   25.70    8.00
  -3   0  11   28.00    6.90
  -3   0  11   18.40    4.60
  -3   0  11   18.40    5.70
  -3   0  11   34.40   13.70
   2   0 -11    0.70    4.10
   2   0 -11   -3.90    2.50
  -2   0  11   -1.90    2.20
  -2   0  11    0.10    2.00
  -2   0  11   -4.60    2.10
  -2   0  11   -2.80    3.80
   1   0 -11   40.00   10.50
   1   0 -11   40.80   10.30
   1   0 -11   29.30    8.20
  -1   0  11   32.30    4.70
  -1   0  11   35.50    7.90
  -1   0  11   28.40    7.10
   0   0 -11    5.10    3.90
   0   0 -11    1.50    4.50
   0   0 -11   -0.50    3.20
   0   0  11    2.00    2.50
   0   0  11   -2.40    1.90
   0   0  11    6.50    3.90
  -1   0 -11   14.60    6.60
  -1   0 -11    8.50    6.10
  -1   0 -11    5.30    3.60
   1   0  11    4.70    3.60
   1   0  11    4.30    4.20
  -2   0 -11   45.70   13.90
  -2   0 -11   51.49   11.90
  -2   0 -11   53.69    8.70
  -2   0 -11   47.40   11.20
   2   0  11   50.49   10.90
   2   0  11   41.30    9.70
   7  -1 -11   40.00    9.80
   7  -1 -11   29.30   13.10
  -7   1  11   42.80   10.80
  -7   1  11   31.90    8.90
  -7   1  11   42.70    6.90
   6  -1 -11   21.70    7.90
   6  -1 -11   15.50    9.90
  -6   1  11   39.10   10.90
  -6   1  11   27.60    4.90
  -6   1  11   40.50    8.90
   5  -1 -11   57.29   16.10
   5  -1 -11   29.60    7.80
  -5   1  11   56.79   11.90
  -5   1  11   56.89   11.10
   4  -1 -11    8.00    6.40
   4  -1 -11   -3.60    3.00
  -4   1  11    1.90    2.60
  -4   1  11    2.80    2.40
   3  -1 -11   31.60    9.60
  -3   1  11   40.50    5.50
  -3   1  11   43.70    9.40
  -3   1  11   27.60    7.40
  -3   1  11   35.60    8.10
   2  -1 -11   19.40    7.60
   2  -1 -11   21.20    6.50
   2  -1 -11    8.60    7.40
  -2   1  11   30.90    8.00
  -2   1  11   19.20    5.70
  -2   1  11   14.90    6.00
   1  -1 -11  118.39   13.60
   1  -1 -11  129.39   16.20
   1  -1 -11  134.99   17.80
  -1   1  11  129.19   14.40
  -1   1  11  132.89   14.70
   0  -1 -11  269.57   24.90
   0  -1 -11  258.67   24.00
   0  -1 -11  285.97   22.30
   0   1  11  299.27   21.80
   0   1  11  284.67   22.70
   0   1  11  240.58   10.40
  -1  -1 -11   11.60    6.90
  -1  -1 -11   -1.00    5.00
  -1  -1 -11   -1.30    3.60
   1   1  11    0.30    4.10
   1   1  11   -0.50    3.30
  -2  -1 -11   -3.70    5.80
  -2  -1 -11   -1.60    3.60
  -2  -1 -11    8.90    7.00
  -2  -1 -11    3.60    5.70
   2   1  11   -1.10    3.40
   7  -2 -11   27.30    8.30
  -7   2  11   35.50   10.50
  -7   2  11   21.20    4.80
  -7   2  11   38.60    9.40
   6  -2 -11   33.70    8.80
   6  -2 -11   11.80   10.80
  -6   2  11   12.00    5.00
  -6   2  11   14.50    3.60
  -6   2  11   16.60    6.50
   5  -2 -11   37.00   10.00
   5  -2 -11   49.80   14.30
  -5   2  11   38.40    4.30
  -5   2  11   47.00    8.70
  -5   2  11   53.89   11.20
   4  -2 -11   22.20    7.40
   4  -2 -11   47.90   14.20
  -4   2  11   22.50    6.90
  -4   2  11   50.49   10.70
   3  -2 -11   91.49   19.90
   3  -2 -11   70.79   13.40
   3  -2 -11   80.89   10.50
  -3   2  11   99.79   12.70
  -3   2  11   64.49   10.70
  -3   2  11   82.89   13.90
   2  -2 -11  378.76   28.10
   2  -2 -11  358.56   23.20
   2  -2 -11  303.47   28.20
  -2   2  11  310.27   23.40
  -2   2  11  346.37   23.10
  -2   2  11  352.26   24.30
   1  -2 -11   19.90    7.20
   1  -2 -11   26.80    7.60
   1  -2 -11   44.60   11.40
  -1   2  11   25.60    7.60
  -1   2  11   17.10    6.10
  -1   2  11   39.40    9.60
   0  -2 -11   23.30    9.20
   0  -2 -11   11.20    5.40
   0  -2 -11    9.60    7.80
   0   2  11    7.90    4.40
   0   2  11   15.80    6.30
  -1  -2 -11   38.30   11.80
  -1  -2 -11   30.20    9.60
  -1  -2 -11   14.00    8.60
   1   2  11   28.10    8.40
   1   2  11   29.10    8.60
  -7   3  11   13.90    7.70
  -7   3  11    7.70    4.10
  -7   3  11   16.60    6.70
   6  -3 -11    7.00    7.20
   6  -3 -11   21.10    7.20
  -6   3  11   29.00    8.40
  -6   3  11   23.10    6.60
  -6   3  11   17.60    4.40
   5  -3 -11   53.29   15.50
   5  -3 -11   71.59   13.30
  -5   3  11   48.50   10.90
  -5   3  11   71.59   11.70
   4  -3 -11  171.48   23.50
   4  -3 -11  183.78   14.60
   4  -3 -11  222.38   20.10
  -4   3  11  166.48   17.30
  -4   3  11  188.48   16.90
   3  -3 -11    4.80    6.50
   3  -3 -11    0.60    4.50
   3  -3 -11    4.90    3.70
  -3   3  11    0.10    2.60
  -3   3  11    5.10    3.90
   2  -3 -11   -5.30    2.80
   2  -3 -11    6.80    5.70
   2  -3 -11   -7.70    3.30
  -2   3  11    5.50    3.60
  -2   3  11   -3.50    4.00
  -2   3  11    6.90    3.70
   1  -3 -11   79.09   16.80
   1  -3 -11   82.99   17.90
   1  -3 -11   71.29   13.20
  -1   3  11   70.19   13.90
  -1   3  11   74.79   12.90
  -1   3  11   72.99   14.30
   0  -3 -11   43.10   13.30
   0  -3 -11   19.40    6.90
   0  -3 -11   66.29   17.10
   0   3  11   31.70    9.30
   0   3  11   24.80    7.70
  -1  -3 -11   16.90   10.00
  -1  -3 -11   10.20   10.50
  -1  -3 -11   21.00    8.10
   1   3  11   10.20    5.10
   1   3  11   16.50    7.30
   6  -4 -11   78.19   13.40
   6  -4 -11   36.30   15.70
  -6   4  11   67.79   15.00
  -6   4  11   52.59   10.50
   5  -4 -11    5.40    3.60
   5  -4 -11   -1.30    3.90
  -5   4  11   -1.10    3.20
  -5   4  11    8.30    3.30
   4  -4 -11   -5.70    6.70
   4  -4 -11    4.30    4.40
   4  -4 -11    1.60    4.10
  -4   4  11    3.30    4.30
  -4   4  11   12.10    6.00
   3  -4 -11    6.70    4.30
   3  -4 -11    7.00    5.80
   3  -4 -11   -5.20    7.20
  -3   4  11    0.30    3.80
  -3   4  11   16.70    6.40
  -3   4  11    9.00    4.50
   2  -4 -11    1.80    7.60
   2  -4 -11   19.00    7.90
   2  -4 -11    7.30    5.20
  -2   4  11    3.70    4.70
  -2   4  11    5.80    4.60
  -2   4  11    8.30    5.30
   1  -4 -11   34.90   12.40
   1  -4 -11   38.70   11.00
   1  -4 -11   30.00    8.20
  -1   4  11   24.00    8.60
  -1   4  11   25.80    8.60
  -1   4  11   42.00   11.60
   0  -4 -11    5.10    6.00
   0  -4 -11   11.50    7.60
   0  -4 -11   12.60    9.40
   0   4  11   12.20    5.80
   0   4  11    8.80    6.30
   0   4  11   15.20    6.10
   6  -5 -11   20.10    7.70
  -6   5  11   12.80    7.50
  -6   5  11    6.50    6.10
   5  -5 -11   -5.90    2.90
   5  -5 -11    3.90    4.50
   5  -5 -11    9.20   11.10
  -5   5  11   -3.30    4.20
  -5   5  11    0.80    4.50
   4  -5 -11    0.70    5.90
   4  -5 -11    5.30    3.50
   4  -5 -11   -3.80    3.50
  -4   5  11    2.00    3.30
  -4   5  11    5.40    4.30
   3  -5 -11    0.00    4.60
   3  -5 -11    6.10    6.70
   3  -5 -11    2.70    5.20
  -3   5  11   10.20    5.30
  -3   5  11    4.80    4.90
  -3   5  11    6.20    3.90
   2  -5 -11   -4.60    5.20
   2  -5 -11   -1.00    3.40
   2  -5 -11    0.30    4.40
  -2   5  11   -0.10    4.30
  -2   5  11    6.50    4.40
  -2   5  11    0.50    5.20
   1  -5 -11    8.70    9.50
  -1   5  11   24.00    9.20
   1   9 -12   10.00    6.00
   1   9 -12  -12.40    7.20
  -1  -9  12   -4.20    2.10
  -1  -9  12   -5.20    2.00
   0   9 -12    9.00    4.80
   0   9 -12    5.50    7.80
   0  -9  12    5.20    3.30
   0  -9  12    9.50    4.40
   0  -9  12   11.40    3.70
  -1   9 -12    7.30    5.00
   1  -9  12   16.10    6.60
   1  -9  12   12.40    5.30
   1  -9  12   22.70    5.60
   3   8 -12    9.50    3.70
   3   8 -12   17.90   11.20
   3   8 -12   -0.30    5.90
  -3  -8  12   18.10    5.80
  -3  -8  12    9.10    4.90
   2   8 -12   33.70    8.30
   2   8 -12   35.30   13.50
   2   8 -12   43.00    9.70
  -2  -8  12   39.40    8.40
  -2  -8  12   39.70    8.80
   1   8 -12   15.00    9.40
   1   8 -12   45.00   10.90
   1   8 -12   35.70    8.50
  -1  -8  12   31.70    7.90
  -1  -8  12   40.00    8.70
   0   8 -12   11.50    4.70
   0   8 -12   13.90    7.20
   0  -8  12   11.00    4.90
   0  -8  12   19.90    6.00
   0  -8  12   23.00    6.50
  -1   8 -12   12.40    6.50
  -1   8 -12    8.50    6.90
   1  -8  12   16.60    5.60
   1  -8  12   14.80    5.10
  -2   8 -12   23.00    6.80
   2  -8  12   12.10    6.50
   4   7 -12   39.80    8.10
   4   7 -12   49.00   11.30
   4   7 -12   30.00   13.20
  -4  -7  12   47.50   11.00
  -4  -7  12   36.70    7.80
   3   7 -12   50.39   11.60
   3   7 -12   72.99   11.00
   3   7 -12   61.89   19.30
  -3  -7  12   70.59    9.10
  -3  -7  12   45.10    9.00
   2   7 -12   23.80    6.40
   2   7 -12   24.30   17.40
   2   7 -12    7.60    5.60
  -2  -7  12   26.90    6.90
  -2  -7  12   31.10    8.00
   1   7 -12   16.50    9.10
   1   7 -12   18.60    5.50
   1   7 -12   22.00    8.10
  -1  -7  12   26.20    6.20
  -1  -7  12   23.30    6.80
   0   7 -12   30.20    8.50
   0   7 -12    9.90    7.00
   0   7 -12   22.90    6.90
   0  -7  12   11.20    5.00
   0  -7  12   17.00    6.20
  -1   7 -12   57.59   12.60
  -1   7 -12   47.70    9.90
   1  -7  12   43.20    9.20
   1  -7  12   48.40    9.30
  -2   7 -12   16.60    6.00
  -2   7 -12   36.70    8.50
   2  -7  12   22.30    5.90
   2  -7  12   38.60    8.90
   5   6 -12   21.10    5.30
   5   6 -12   23.20    7.60
   5   6 -12   21.40   15.00
  -5  -6  12   24.40    6.10
  -5  -6  12   29.60    8.30
   4   6 -12   13.50    5.70
   4   6 -12    7.90    8.60
   4   6 -12   11.40    3.90
  -4  -6  12    6.90    4.40
  -4  -6  12    7.20    4.00
   3   6 -12   16.30    7.50
   3   6 -12   28.10   12.90
   3   6 -12   39.70    7.90
  -3  -6  12   31.60    7.10
  -3  -6  12   25.90    7.40
   2   6 -12   23.20   11.00
   2   6 -12   19.40    5.60
   2   6 -12   14.30    7.40
  -2  -6  12   26.40    7.40
   1   6 -12   27.10    8.60
   1   6 -12   27.20   10.10
   1   6 -12   19.00    6.00
  -1  -6  12   31.50    7.30
  -1  -6  12   18.20    6.30
   0   6 -12   26.20    8.80
   0   6 -12   18.20    5.50
   0   6 -12   35.80   10.10
   0  -6  12   20.10    5.60
   0  -6  12   29.90    7.60
  -1   6 -12   26.60    8.50
  -1   6 -12   41.40    8.80
   1  -6  12   27.20    7.60
   1  -6  12   36.60    7.70
  -2   6 -12    9.70    5.10
  -2   6 -12   15.40    9.00
   2  -6  12   19.40    5.30
   2  -6  12   25.60    7.40
  -3   6 -12    0.60    3.70
   3  -6  12    2.60    4.90
   5   5 -12    5.90    9.90
   5   5 -12    0.50    3.80
   5   5 -12    0.20    2.90
  -5  -5  12   13.60    6.30
  -5  -5  12    5.10    3.40
   4   5 -12    7.30    9.00
   4   5 -12   -1.70    2.10
   4   5 -12    7.20    4.80
  -4  -5  12   10.90    5.30
  -4  -5  12    5.70    3.00
   3   5 -12   13.90    9.30
   3   5 -12    3.50    4.50
   3   5 -12   15.70    5.10
  -3  -5  12   18.30    5.80
  -3  -5  12   12.90    6.10
   2   5 -12   17.60    9.40
   2   5 -12   20.80    7.20
   2   5 -12   19.60    5.60
  -2  -5  12   18.50    5.50
  -2  -5  12    9.40    3.60
   1   5 -12   12.70    7.20
   1   5 -12   14.10    7.40
   1   5 -12   10.70    3.90
  -1  -5  12    5.90    3.30
  -1  -5  12   11.90    5.10
   0   5 -12    8.10    3.40
   0   5 -12   -2.20    4.40
   0   5 -12    9.80    6.20
   0  -5  12    4.20    6.50
   0  -5  12    5.30    3.80
   0  -5  12    8.50    5.10
  -1   5 -12    9.40    5.80
  -1   5 -12    4.90    3.70
   1  -5  12   -0.60    4.20
   1  -5  12    4.00    4.00
  -2   5 -12   63.79   11.00
  -2   5 -12   46.50   12.70
   2  -5  12   47.40    9.40
   2  -5  12   55.29   12.20
  -3   5 -12   -4.00    7.10
  -3   5 -12    8.40    4.90
   3  -5  12   -0.10    4.40
   3  -5  12    3.80    4.80
   6   4 -12    5.20    3.10
   6   4 -12   -8.40    8.40
   6   4 -12   -3.30    5.00
  -6  -4  12   -1.70    2.60
  -6  -4  12   -6.10    2.40
   5   4 -12    0.00    3.70
   5   4 -12   10.40    4.00
   5   4 -12    1.30    7.00
  -5  -4  12   -0.10    3.70
  -5  -4  12    9.40    3.90
   4   4 -12   -0.80    2.70
   4   4 -12    0.10    4.30
  -4  -4  12    2.30    2.90
  -4  -4  12    4.00    3.00
  -4  -4  12   -2.40    2.20
   3   4 -12    2.40    2.70
   3   4 -12    9.10    5.20
   3   4 -12   16.00    8.70
  -3  -4  12    4.90    3.60
  -3  -4  12   -2.40    2.30
   2   4 -12    0.00    2.10
   2   4 -12   -4.30    4.90
   2   4 -12   -2.60    3.60
  -2  -4  12    3.10    2.40
  -2  -4  12    4.10    2.30
  -2  -4  12   -5.10    2.50
   1   4 -12    1.90    6.90
   1   4 -12   -2.90    2.00
   1   4 -12    1.60    3.70
  -1  -4  12    1.10    3.40
  -1  -4  12    6.90    3.30
  -1  -4  12   -0.50    2.70
   0   4 -12   11.70    6.10
   0   4 -12   24.70    8.30
   0   4 -12   30.30    7.10
   0  -4  12   25.40    6.90
   0  -4  12   28.00    7.90
  -1   4 -12   -1.40    1.70
  -1   4 -12    0.70    4.60
   1  -4  12   -1.60    2.60
   1  -4  12    3.70    4.30
  -2   4 -12    4.70    3.60
  -2   4 -12    2.60    5.90
   2  -4  12   29.80    9.30
   2  -4  12   -0.10    3.50
  -3   4 -12   -1.60    4.10
   3  -4  12  -14.10    5.80
   3  -4  12    7.80    3.80
   6   3 -12    1.40    3.80
   6   3 -12    8.20    4.20
   6   3 -12   -4.70    9.60
  -6  -3  12   17.00    5.90
  -6  -3  12    6.70    3.40
  -6  -3  12   13.50    5.40
   5   3 -12   12.20    5.80
   5   3 -12   -7.90    7.00
   5   3 -12   21.50    5.40
  -5  -3  12   32.80    7.00
  -5  -3  12   18.80    4.90
  -5  -3  12   12.00    5.40
   4   3 -12   12.90    9.90
   4   3 -12    8.40    5.50
   4   3 -12   19.80    5.90
  -4  -3  12   21.30    6.20
  -4  -3  12   23.20    6.90
   3   3 -12    5.10    4.70
   3   3 -12    2.50    6.10
  -3  -3  12    5.10    3.60
  -3  -3  12    3.90    3.40
  -3  -3  12    4.40    4.60
   2   3 -12    3.50    4.60
   2   3 -12    7.70    4.40
   2   3 -12    0.60    2.20
  -2  -3  12   10.20    4.50
  -2  -3  12    0.40    2.80
   1   3 -12   50.69    8.50
   1   3 -12   40.80   10.40
   1   3 -12   51.89   12.90
  -1  -3  12   70.39   11.60
  -1  -3  12   60.19    8.40
  -1  -3  12   47.30   10.00
   0   3 -12  128.49   15.80
   0   3 -12  110.89   12.00
   0   3 -12  105.19   13.30
   0  -3  12  128.89   14.50
   0  -3  12  137.79   14.30
  -1   3 -12   -4.20    4.60
  -1   3 -12   -0.20    2.50
   1  -3  12    0.80    2.60
  -2   3 -12   -1.50    4.80
  -2   3 -12   -1.00    3.40
   2  -3  12    1.30    3.20
   2  -3  12    8.70    4.10
  -3   3 -12   12.80    5.70
  -3   3 -12   28.60   11.80
  -3   3 -12   22.00    6.00
   3  -3  12   17.20    5.30
   3  -3  12    4.90    4.60
   6   2 -12   31.00    6.40
   6   2 -12   26.80    8.20
   6   2 -12   18.50   13.10
  -6  -2  12   32.10    8.80
  -6  -2  12   25.90    5.00
  -6  -2  12    8.60    6.60
   5   2 -12   21.20    9.70
   5   2 -12   18.90    6.70
   5   2 -12   22.40    5.20
  -5  -2  12   29.60    5.50
  -5  -2  12   31.40    8.60
  -5  -2  12   40.80    8.70
   4   2 -12    3.30    2.90
   4   2 -12    0.90    3.30
   4   2 -12    5.90    6.30
  -4  -2  12    8.10    4.60
  -4  -2  12   12.90    4.00
   3   2 -12   55.89   12.80
   3   2 -12   68.19   17.70
  -3  -2  12   56.09   10.40
  -3  -2  12   78.29   13.20
  -3  -2  12   69.29    9.40
   2   2 -12  204.58   22.20
   2   2 -12  186.78   19.60
  -2  -2  12  219.18   16.00
  -2  -2  12  207.58   17.90
  -2  -2  12  165.78   15.40
   1   2 -12   21.10    8.60
   1   2 -12   19.70    9.20
  -1  -2  12   25.50    7.10
  -1  -2  12   31.70    8.00
  -1  -2  12   27.50    7.10
   0   2 -12   32.00   10.10
   0   2 -12   34.40    9.00
   0  -2  12   35.70    9.80
   0  -2  12   37.20    8.70
  -1   2 -12   38.80   14.60
  -1   2 -12   34.10    8.60
   1  -2  12   43.10    8.90
   1  -2  12   51.79   11.10
  -2   2 -12   12.70    4.80
  -2   2 -12    6.40    6.10
   2  -2  12    2.70    5.40
   2  -2  12    4.00    3.30
   7   1 -12    6.60    5.30
   7   1 -12    3.70    3.30
   7   1 -12   -5.50    9.20
  -7  -1  12    0.70    4.60
  -7  -1  12    2.60    5.70
   6   1 -12    4.50    4.10
   6   1 -12   27.40   11.70
   6   1 -12    9.30    3.40
  -6  -1  12   14.90    7.00
  -6  -1  12   21.40    6.40
  -6  -1  12    6.30    2.70
   5   1 -12  122.89   15.90
   5   1 -12  146.89   27.10
  -5  -1  12  114.19   13.80
  -5  -1  12  163.48   15.20
   4   1 -12  194.68   24.60
   4   1 -12  200.08   19.80
  -4  -1  12  175.58   15.60
  -4  -1  12  196.68   18.20
   3   1 -12   16.80    7.00
   3   1 -12    9.80    7.90
  -3  -1  12   16.00    6.10
  -3  -1  12   21.10    7.40
  -3  -1  12    8.30    4.40
   2   1 -12   32.80   10.00
   2   1 -12   38.70   10.50
  -2  -1  12   32.60    8.50
  -2  -1  12   43.90    8.40
  -2  -1  12   29.60    8.20
   1   1 -12  114.29   18.90
   1   1 -12  115.79   15.70
  -1  -1  12   71.49   12.50
  -1  -1  12   78.09   13.50
  -1  -1  12   92.69   11.90
   0   1 -12   43.60   10.50
   0   1 -12   64.59   14.60
   0  -1  12   36.50    8.60
   0  -1  12   58.39   11.70
  -1   1 -12   37.20   10.20
   1  -1  12   34.60    9.70
   1  -1  12   25.90    7.60
  -2   1 -12    5.40    5.90
   2  -1  12   22.60   13.70
   2  -1  12    0.30    6.90
   7   0 -12   33.60    9.50
   7   0 -12   35.70    6.10
   7   0 -12   17.40   12.50
  -7   0  12   29.20    6.00
  -7   0  12   47.20   12.30
  -7   0  12   44.70    9.60
   6   0 -12   80.49   20.30
   6   0 -12   64.09   13.10
  -6   0  12   41.20   10.10
  -6   0  12   53.69   11.40
  -6   0  12   61.29    6.30
   5   0 -12   10.80    9.30
   5   0 -12   19.20    6.30
  -5   0  12   41.40   10.20
   4   0 -12   18.60    7.00
   4   0 -12   13.80   10.00
  -4   0  12   13.90    5.30
  -4   0  12    6.80    5.00
   3   0 -12   15.50    6.60
   3   0 -12   12.20    7.20
  -3   0  12   11.50    4.50
  -3   0  12   17.80    5.70
   2   0 -12   43.60   11.60
   2   0 -12   31.70    8.60
  -2   0  12   29.90    5.50
  -2   0  12   29.70    7.60
  -2   0  12   36.30    8.90
  -2   0  12   49.80   10.00
   1   0 -12   71.09   15.30
   1   0 -12   64.39   13.90
   1   0 -12   54.89   11.00
  -1   0  12   54.69   10.10
  -1   0  12   40.20    9.50
  -1   0  12   52.49    6.30
  -1   0  12   59.09   11.20
   0   0 -12   39.50   10.00
   0   0 -12   47.20   12.60
   0   0 -12   28.20    8.40
   0   0  12   22.70    6.40
   0   0  12   31.90    8.90
  -1   0 -12   25.10    7.60
  -1   0 -12   23.90    8.90
  -1   0 -12   19.40    7.10
   1   0  12   22.80    7.80
   1   0  12   26.00    9.10
  -2   0 -12   20.80    9.30
  -2   0 -12   22.50    6.90
   2   0  12   22.50    8.30
   2   0  12   27.40    7.50
   7  -1 -12    2.70    7.20
   7  -1 -12   -3.50    3.00
  -7   1  12   -6.80    5.10
  -7   1  12   -1.50    2.40
  -7   1  12   -3.90    3.70
   6  -1 -12    1.90    4.30
   6  -1 -12    3.00    6.80
  -6   1  12    2.40    4.10
  -6   1  12   -0.80    1.40
  -6   1  12   -1.40    5.40
   5  -1 -12    0.30    5.60
   5  -1 -12    3.40    4.20
  -5   1  12   12.70    4.80
  -5   1  12    6.00    5.10
   4  -1 -12   10.80    4.50
   4  -1 -12   18.00    9.30
  -4   1  12   20.60    6.30
  -4   1  12    8.70    4.20
   3  -1 -12   10.40    5.30
   3  -1 -12    2.30    4.80
  -3   1  12    7.70    3.90
  -3   1  12    0.80    3.10
  -3   1  12    8.00    7.10
   2  -1 -12   15.90    7.30
   2  -1 -12    0.20    4.20
   2  -1 -12    8.20    5.10
  -2   1  12   11.30    5.40
  -2   1  12   10.50    5.80
  -2   1  12   16.20    5.90
   1  -1 -12   32.50   10.60
   1  -1 -12   28.80    7.60
   1  -1 -12   25.90    8.60
  -1   1  12   28.20    7.50
  -1   1  12   35.60    9.50
  -1   1  12   23.50    7.00
   0  -1 -12    3.40    5.90
   0  -1 -12   10.50    9.20
   0  -1 -12   12.60    5.90
   0   1  12   25.40    8.10
   0   1  12   15.20    7.20
  -1  -1 -12    0.60    6.90
  -1  -1 -12   15.80    8.70
   1   1  12    5.50    6.30
   6  -2 -12   -2.20    7.40
   6  -2 -12   -1.40    2.80
  -6   2  12    2.40    3.40
  -6   2  12    0.00    2.30
  -6   2  12   -8.40    4.90
   5  -2 -12   13.20    5.10
   5  -2 -12   13.80    7.70
  -5   2  12    1.50    5.50
  -5   2  12   -2.00    3.10
  -5   2  12    2.80    1.70
   4  -2 -12   -0.10    5.00
   4  -2 -12    7.10    5.10
  -4   2  12    6.70    4.30
  -4   2  12    1.50    4.50
   3  -2 -12   -3.10    2.70
   3  -2 -12    3.20    7.00
  -3   2  12    2.80    3.20
  -3   2  12   -0.10    4.00
  -3   2  12    0.30    2.80
   2  -2 -12    2.70    3.60
   2  -2 -12   -3.90    4.60
   2  -2 -12   -3.90    3.20
  -2   2  12   -0.20    2.60
  -2   2  12   -0.40    3.30
   1  -2 -12    7.90    5.20
   1  -2 -12    5.80    5.10
   1  -2 -12   -0.50    7.40
  -1   2  12   -4.60    3.40
  -1   2  12   -1.30    4.60
  -1   2  12    1.70    3.60
   0  -2 -12    0.00    8.00
   0  -2 -12    3.90    5.40
   0  -2 -12   10.60    3.90
   0   2  12    2.70    3.60
   0   2  12   -0.20    4.00
   6  -3 -12    6.90    9.30
  -6   3  12    7.20    5.20
  -6   3  12   15.70    5.90
   5  -3 -12   10.90    5.50
   5  -3 -12   -3.60    5.70
  -5   3  12    1.90    4.00
  -5   3  12    5.80    5.00
   4  -3 -12   24.60    6.60
   4  -3 -12   16.00    6.30
   4  -3 -12   17.50   11.20
  -4   3  12   26.90    8.50
  -4   3  12   29.40    7.90
   3  -3 -12    1.20    5.10
   3  -3 -12   14.90    8.60
   3  -3 -12   18.60    5.50
  -3   3  12   -1.30    3.80
  -3   3  12    6.90    4.50
  -3   3  12    7.00    5.30
   2  -3 -12    9.10    7.50
   2  -3 -12    7.20    5.10
   2  -3 -12   23.70    9.50
  -2   3  12   14.00    6.00
  -2   3  12    1.50    4.30
  -2   3  12    0.00    4.40
   1  -3 -12    7.00    5.60
   1  -3 -12   20.90   10.80
   1  -3 -12    7.30    5.80
  -1   3  12   28.80    8.30
  -1   3  12    7.00    4.60
  -1   3  12   18.10    6.70
   5  -4 -12   -0.70    5.90
  -5   4  12   12.20    6.00
  -5   4  12    3.00    3.90
   4  -4 -12    7.10    5.90
   4  -4 -12    5.50    9.30
   4  -4 -12   15.10    8.10
  -4   4  12   29.40    8.80
   3  -4 -12  105.39   23.00
   3  -4 -12   65.09   12.50
  -3   4  12   55.79   12.30
  -3   4  12   63.89   13.00
  -3   4  12   61.59   12.40
   2  -4 -12   27.60    9.50
   2  -4 -12   17.60    6.40
   2  -4 -12   43.90   13.30
  -2   4  12   18.90    7.20
  -2   4  12   22.70    7.90
  -2   4  12   38.30   11.10
   2   8 -13    4.80    4.80
   2   8 -13   14.70   10.70
   2   8 -13   17.10    8.50
  -2  -8  13    8.50    4.40
  -2  -8  13    8.40    5.80
   1   8 -13   21.90    7.60
   1   8 -13   -1.50    4.80
   1   8 -13   10.00   10.40
  -1  -8  13   -3.10    2.10
  -1  -8  13    3.90    3.70
   0   8 -13    4.80    7.50
   0   8 -13   -1.20    2.90
   0  -8  13   -1.20    2.60
   3   7 -13   -2.60    2.90
   3   7 -13    1.60    5.80
   3   7 -13    7.70    8.70
  -3  -7  13    7.80    3.70
  -3  -7  13    1.10    3.40
   2   7 -13   15.80    9.10
   2   7 -13   10.00    4.90
   2   7 -13    3.80    4.80
  -2  -7  13   15.50    5.00
  -2  -7  13   20.30    7.00
   1   7 -13    0.80    7.80
   1   7 -13   -6.20    3.50
   1   7 -13   -1.50    5.20
  -1  -7  13    8.40    4.20
   0   7 -13    1.80    3.30
   0   7 -13   -1.10    6.50
   0   7 -13   -1.60    5.00
   0  -7  13    0.30    3.00
   0  -7  13   -0.30    4.10
  -1   7 -13    8.20    8.30
  -1   7 -13   -0.80    3.80
   1  -7  13    7.40    3.10
   1  -7  13    6.00    4.60
   4   6 -13   18.40    8.60
   4   6 -13   28.60   11.80
   4   6 -13   18.30    5.90
  -4  -6  13    7.60    4.00
  -4  -6  13   21.50    6.90
   3   6 -13   12.20    6.10
   3   6 -13    6.00    4.00
   3   6 -13   16.60    9.70
  -3  -6  13    2.20    3.10
  -3  -6  13   12.40    4.70
   2   6 -13    2.00    7.80
   2   6 -13   -4.20    2.20
   2   6 -13   -7.30    5.00
  -2  -6  13    1.80    3.10
  -2  -6  13    4.80    5.30
   1   6 -13   17.00    7.20
   1   6 -13    6.50    4.50
   1   6 -13    9.80    7.90
  -1  -6  13   12.40    4.70
  -1  -6  13   15.00    5.30
   0   6 -13    8.30    4.50
   0   6 -13    7.20    6.20
   0   6 -13   13.20    7.20
   0  -6  13    7.70    3.60
   0  -6  13    6.00    5.00
  -1   6 -13   12.30    5.10
  -1   6 -13    8.60    6.80
   1  -6  13   16.10    5.00
   1  -6  13   10.30    5.70
  -2   6 -13   36.40    8.30
  -2   6 -13   14.80    9.50
   2  -6  13   17.20    5.20
   2  -6  13   25.80    7.60
   5   5 -13    6.70    6.10
   5   5 -13    9.20    4.70
   5   5 -13   -2.20    8.20
  -5  -5  13    6.20    6.20
  -5  -5  13   10.30    4.40
   4   5 -13   -2.60    3.70
   4   5 -13   14.00    8.70
   4   5 -13    0.60    3.20
  -4  -5  13    1.90    4.20
  -4  -5  13    1.10    3.60
   3   5 -13   35.30    8.00
   3   5 -13   40.90   12.50
   3   5 -13   48.90   11.60
  -3  -5  13   27.00    7.00
   2   5 -13   31.30    9.20
   2   5 -13   22.50    9.80
   2   5 -13   24.20    6.40
  -2  -5  13   27.20    7.30
  -2  -5  13   19.60    6.70
  -2  -5  13   31.50    5.70
   1   5 -13   77.59   15.00
   1   5 -13   79.99   10.00
   1   5 -13   82.69   16.30
  -1  -5  13   75.89   12.70
  -1  -5  13   55.09    8.70
  -1  -5  13   61.19   11.20
   0   5 -13  108.09   18.60
   0   5 -13   97.49   13.10
   0   5 -13   75.29   11.90
   0  -5  13   97.99   12.00
  -1   5 -13    1.20    3.40
  -1   5 -13   -5.00    4.90
   1  -5  13   -1.70    4.40
   1  -5  13   -1.40    2.80
  -2   5 -13   -0.60    3.60
  -2   5 -13  -10.20    5.50
   2  -5  13    3.40    3.20
   2  -5  13    6.80    4.80
   5   4 -13   17.10    7.80
   5   4 -13   26.70    6.20
   5   4 -13   23.40   12.40
  -5  -4  13   20.70    5.30
  -5  -4  13   20.50    8.10
   4   4 -13   12.40    6.90
   4   4 -13    3.00    3.80
   4   4 -13   12.50    6.20
  -4  -4  13   12.80    5.40
  -4  -4  13    3.40    4.50
  -4  -4  13   15.60    5.20
   3   4 -13  101.09   11.20
   3   4 -13   76.29   14.30
   3   4 -13  102.59   22.70
  -3  -4  13  103.89    9.80
  -3  -4  13  106.39   13.30
   2   4 -13  141.19   20.10
   2   4 -13  146.99   14.10
   2   4 -13  163.08   18.40
  -2  -4  13  161.18   15.80
  -2  -4  13  165.08   12.60
  -2  -4  13  151.28   15.80
   1   4 -13    7.40    5.80
   1   4 -13    7.00    5.60
   1   4 -13   -4.00    2.50
  -1  -4  13    5.60    3.40
  -1  -4  13    1.00    4.20
  -1  -4  13    3.40    3.60
   0   4 -13   15.70    7.10
   0   4 -13   12.60    6.60
   0   4 -13   11.90    4.80
   0  -4  13    4.50    4.00
   0  -4  13    5.30    3.80
  -1   4 -13   15.10    7.10
  -1   4 -13    7.00    4.60
   1  -4  13   16.20    6.00
   1  -4  13   17.00    6.50
  -2   4 -13   33.60   12.60
  -2   4 -13   10.10    6.00
   2  -4  13   23.70    6.80
   6   3 -13    4.60    5.10
   6   3 -13   11.40    7.50
   6   3 -13   14.60   11.60
  -6  -3  13    8.70    6.00
  -6  -3  13    5.70    6.10
  -6  -3  13    8.80    4.40
   5   3 -13   53.69    9.30
   5   3 -13   70.09   18.60
   5   3 -13   41.10   11.90
  -5  -3  13   44.00    7.50
  -5  -3  13   42.70   10.40
  -5  -3  13   37.90    8.90
   4   3 -13   57.29   12.40
   4   3 -13   60.29    9.40
   4   3 -13   53.09   16.60
  -4  -3  13   64.19   10.40
  -4  -3  13   43.30   10.10
   3   3 -13    2.10    4.60
   3   3 -13   -0.10    7.10
  -3  -3  13    3.90    3.10
  -3  -3  13    2.50    3.30
  -3  -3  13   -5.60    2.40
   2   3 -13   20.10    5.20
   2   3 -13   16.50    6.30
   2   3 -13   23.70   10.40
  -2  -3  13   28.20    7.30
  -2  -3  13   17.30    5.40
  -2  -3  13    7.90    5.40
   1   3 -13   39.20    8.00
   1   3 -13   22.90    7.60
   1   3 -13   26.30   10.20
  -1  -3  13   27.70    7.50
  -1  -3  13   12.90    4.60
  -1  -3  13   26.00    7.80
   0   3 -13    9.10    6.60
   0   3 -13   13.00    4.90
   0  -3  13    8.40    5.20
   0  -3  13   26.70    7.60
  -1   3 -13  112.89   20.10
  -1   3 -13   99.09   12.40
   1  -3  13   81.59   13.90
   1  -3  13   73.99   12.60
  -2   3 -13   14.40    6.00
  -2   3 -13    2.10    6.10
   2  -3  13   14.30    6.30
   2  -3  13   16.80    7.60
   6   2 -13   16.90    8.10
   6   2 -13   18.10    8.20
   6   2 -13   -3.30   16.10
  -6  -2  13   25.50    8.50
  -6  -2  13   19.60    6.80
  -6  -2  13   10.10    4.30
   5   2 -13   -1.70    3.30
   5   2 -13    6.70    3.80
   5   2 -13    4.40    8.20
  -5  -2  13    6.70    4.60
  -5  -2  13    7.10    5.40
   4   2 -13   -0.70    6.40
   4   2 -13   -2.10    4.60
   4   2 -13    3.00    3.00
  -4  -2  13    1.40    2.80
  -4  -2  13   13.10    4.30
   3   2 -13   -3.50    4.30
   3   2 -13    2.90    7.90
  -3  -2  13   11.20    4.50
  -3  -2  13   13.70    5.70
  -3  -2  13   -0.40    3.50
   2   2 -13    9.60    7.40
   2   2 -13   16.10    7.30
  -2  -2  13    8.40    4.10
  -2  -2  13   -0.20    3.20
  -2  -2  13   13.80    4.90
   1   2 -13   69.19   14.80
   1   2 -13   91.29   17.70
  -1  -2  13   86.99   15.00
  -1  -2  13  100.19   11.70
  -1  -2  13   84.29   13.50
   0   2 -13    1.40    6.20
   0   2 -13   11.90    7.20
   0  -2  13    4.30    4.30
   0  -2  13    8.40    5.10
  -1   2 -13   -5.00    6.30
  -1   2 -13    1.40    3.20
   1  -2  13    5.40    3.80
   1  -2  13    1.60    3.20
   6   1 -13    4.50    4.90
   6   1 -13   -0.70    3.00
  -6  -1  13   -6.30    4.60
  -6  -1  13   -3.70    2.70
  -6  -1  13   -0.30    4.10
   5   1 -13    0.50    7.20
   5   1 -13   -1.60    3.10
  -5  -1  13   -0.50    4.50
  -5  -1  13   -0.50    3.00
   4   1 -13   10.80    5.10
   4   1 -13   -1.20    5.40
  -4  -1  13    0.50    3.60
  -4  -1  13    9.40    4.50
   3   1 -13   30.90    9.60
   3   1 -13   53.19   15.10
  -3  -1  13   35.30    9.20
  -3  -1  13   18.40    5.90
  -3  -1  13   28.70    8.60
   2   1 -13    1.30    3.50
   2   1 -13  -12.60    5.40
  -2  -1  13    6.20    3.50
  -2  -1  13    2.00    3.30
  -2  -1  13   -2.50    3.20
   1   1 -13   24.70    9.80
   1   1 -13   15.40    9.90
  -1  -1  13   17.70    6.10
  -1  -1  13   26.90    8.30
  -1  -1  13   12.30    4.90
   0   1 -13    6.60    4.80
   0   1 -13    4.70    7.20
   0  -1  13    5.10    3.90
   0  -1  13    1.90    4.20
  -1   1 -13   -8.80    5.40
   1  -1  13   -3.40    3.70
   1  -1  13    7.00    4.70
   6   0 -13   21.10    7.60
  -6   0  13    8.90    5.80
  -6   0  13    8.80    6.20
   5   0 -13    1.40    3.80
   5   0 -13    3.70    6.80
  -5   0  13    8.40    5.00
  -5   0  13   -0.40    3.50
   4   0 -13   12.30    6.40
   4   0 -13   14.50    8.30
  -4   0  13   12.20    5.00
  -4   0  13    6.40    4.20
   3   0 -13   51.69   12.20
   3   0 -13   55.49   13.10
  -3   0  13   50.59   10.70
  -3   0  13   51.09   10.50
  -3   0  13   38.70    9.50
   2   0 -13   18.50   11.20
   2   0 -13   11.00    6.70
  -2   0  13   12.70    5.60
  -2   0  13    4.20    3.80
  -2   0  13    5.00    4.20
   1   0 -13   32.60   10.40
   1   0 -13   22.40   10.30
  -1   0  13   20.70    7.60
  -1   0  13    8.70    5.60
   0   0 -13    5.80    7.40
   0   0 -13    6.70    5.60
   0   0 -13    8.00    7.50
   0   0  13    9.30    6.40
   0   0  13   13.50    6.00
   6  -1 -13   11.60    8.10
   6  -1 -13   -4.20    8.90
  -6   1  13    5.00    3.10
  -6   1  13    2.00    5.40
  -6   1  13    8.10    5.80
   5  -1 -13   62.99   13.10
   5  -1 -13   73.69   20.80
  -5   1  13   51.89   11.60
  -5   1  13   64.49   11.40
   4  -1 -13   44.60   12.40
  -4   1  13   55.29   11.30
  -4   1  13   53.99   11.60
   3  -1 -13   29.00   11.00
   3  -1 -13   42.80   14.40
  -3   1  13   43.80   11.00
  -3   1  13   27.60    7.70
  -3   1  13   34.80    9.30
   2  -1 -13    7.00    9.10
   2  -1 -13   11.40    6.30
  -2   1  13   13.50    5.50
  -2   1  13   26.30    8.10
  -2   1  13   17.30    6.30
   1  -1 -13   18.70    6.40
   1  -1 -13    4.40    7.40
   1  -1 -13   11.30    8.80
  -1   1  13    8.80    5.90
  -1   1  13    9.70    5.90
  -1   1  13   19.00    7.60
   0  -1 -13   26.90   10.60
   0  -1 -13   10.40    7.10
   0  -1 -13   26.30    9.50
   0   1  13   29.60    9.60
   0   1  13   26.80    9.30
   6  -2 -13   16.10   10.40
  -6   2  13   13.30    8.20
   5  -2 -13   34.70   12.20
   5  -2 -13   15.70   10.30
  -5   2  13   33.30    8.70
  -5   2  13    3.00    6.50
   4  -2 -13   23.30    7.40
   4  -2 -13   25.60   11.60
  -4   2  13   23.10    9.20
  -4   2  13   26.20    7.60
   3  -2 -13    5.90    5.60
   3  -2 -13   13.10    9.80
   3  -2 -13    7.60    4.80
  -3   2  13   12.40    5.90
  -3   2  13    6.90    5.80
  -3   2  13    7.80    5.10
   2  -2 -13   20.60    8.50
   2  -2 -13   44.60   15.70
   2  -2 -13   19.40    7.20
  -2   2  13   30.20    8.60
  -2   2  13   40.60    9.60
  -2   2  13   37.40   10.50
   1  -2 -13   47.00   10.90
   1  -2 -13   20.60   17.80
   1  -2 -13   49.80   15.10
  -1   2  13   56.89   12.20
  -1   2  13   26.70    8.70
  -1   2  13   41.60    9.90
   5  -3 -13    9.80    9.20
   5  -3 -13    3.30    5.30
  -5   3  13   18.20    7.30
  -5   3  13   17.70    8.50
   4  -3 -13   10.00    6.20
   4  -3 -13   26.10   13.30
  -4   3  13   15.00    6.70
  -4   3  13   18.80    7.80
   3  -3 -13   27.10    7.20
   3  -3 -13   36.10   15.00
   3  -3 -13   42.30   11.10
  -3   3  13   30.50    7.90
  -3   3  13   36.10    9.60
  -3   3  13   31.10    8.80
   2  -3 -13    5.30    9.50
   2  -3 -13   -0.50    5.00
   2  -3 -13    9.00    5.30
  -2   3  13    5.60    4.80
  -2   3  13   -3.50    4.60
  -2   3  13    5.40    6.50
   1   7 -14    9.50   11.80
   1   7 -14    9.20    5.60
  -1  -7  14   30.10    7.70
  -1  -7  14   32.40    8.40
   3   6 -14    2.40    8.50
   3   6 -14    1.60    3.20
   3   6 -14    7.40    7.30
  -3  -6  14   19.70    6.70
  -3  -6  14   -3.10    2.30
   2   6 -14   15.40    5.60
   2   6 -14    7.00   10.50
   2   6 -14   11.30    7.10
  -2  -6  14   15.10    7.10
  -2  -6  14    5.40    4.60
   1   6 -14    5.60    7.00
   1   6 -14  -11.60    8.50
  -1  -6  14    3.60    3.90
  -1  -6  14    4.70    4.20
   0   6 -14   -1.10    7.00
   0   6 -14    2.60    4.40
   0  -6  14    9.80    5.00
   0  -6  14    7.50    6.50
   0  -6  14   11.00    4.90
   4   5 -14    8.90   10.10
   4   5 -14    7.10    4.40
   4   5 -14    0.20    4.00
  -4  -5  14    1.50    3.20
  -4  -5  14    2.70    3.60
   3   5 -14    8.60    6.40
   3   5 -14    1.00    7.80
   3   5 -14    6.90    3.80
  -3  -5  14   -0.70    4.00
   2   5 -14    3.00    7.60
   2   5 -14   -0.90    2.50
   2   5 -14   -0.80    6.20
  -2  -5  14   -3.00    3.60
  -2  -5  14    5.80    4.10
   1   5 -14   46.70   14.40
   1   5 -14   34.50   11.10
   1   5 -14   40.90    8.00
  -1  -5  14   48.80    9.80
  -1  -5  14   55.89    9.20
  -1  -5  14   44.10    9.90
   0   5 -14    5.60    3.60
   0   5 -14   13.50    7.30
   0  -5  14    6.60    3.90
   0  -5  14    2.40    4.80
   4   4 -14    2.20    2.40
   4   4 -14    3.10    7.40
   4   4 -14    7.60    5.30
  -4  -4  14    2.40    4.80
  -4  -4  14   -3.50    3.70
   3   4 -14    9.20    8.80
   3   4 -14   18.20    5.40
   3   4 -14   11.60    5.50
  -3  -4  14    3.60    4.40
   2   4 -14    5.70    5.70
   2   4 -14   -2.60    2.60
   2   4 -14   -4.70    7.10
  -2  -4  14    0.50    3.30
  -2  -4  14   -1.40    3.20
  -2  -4  14    0.30    3.90
   1   4 -14    6.30    3.70
   1   4 -14   -1.00    4.70
   1   4 -14   14.50   10.00
  -1  -4  14    7.60    5.30
  -1  -4  14    6.20    4.80
  -1  -4  14    2.80    4.20
   0   4 -14    2.20    6.10
   0   4 -14    2.30    4.30
   0  -4  14    4.70    4.20
   0  -4  14    7.20    6.50
   5   3 -14   -9.40    3.70
   5   3 -14    5.50    7.60
   5   3 -14   -6.90    3.40
  -5  -3  14   -0.20    3.20
  -5  -3  14   -5.90    4.20
  -5  -3  14   -2.10    4.10
   4   3 -14   14.50    7.70
   4   3 -14   25.30    6.60
   4   3 -14   17.50   10.20
  -4  -3  14   15.50    6.20
  -4  -3  14   11.90    6.30
   3   3 -14   47.90    8.70
   3   3 -14   42.50   12.00
   3   3 -14   63.19   17.30
  -3  -3  14   58.59   11.70
  -3  -3  14   51.09   11.20
  -3  -3  14   44.70    8.70
   2   3 -14   21.10   10.20
   2   3 -14   17.20    7.20
   2   3 -14    9.30    4.50
  -2  -3  14   11.40    4.50
  -2  -3  14    9.20    4.50
  -2  -3  14   10.60    5.10
   1   3 -14    7.40    6.70
   1   3 -14    3.80    4.10
   1   3 -14    5.60    6.30
  -1  -3  14    1.00    4.60
  -1  -3  14    4.20    3.30
  -1  -3  14   -2.70    4.10
   0   3 -14   15.10    8.50
   0   3 -14    7.70    5.20
   0   3 -14    8.70    9.50
   0  -3  14   18.40    7.10
   0  -3  14   11.90    7.00
   5   2 -14   48.80   13.70
   5   2 -14   12.90   11.10
  -5  -2  14   37.90   10.30
  -5  -2  14   35.30    8.20
   4   2 -14   19.00    5.40
   4   2 -14   13.40    7.80
   4   2 -14   34.80   10.20
  -4  -2  14   23.30    7.80
  -4  -2  14   28.40    7.70
   3   2 -14   23.00   10.80
   3   2 -14   26.10    8.30
  -3  -2  14    8.70    5.20
  -3  -2  14   17.40    6.60
  -3  -2  14   20.60    6.40
   2   2 -14   52.39   14.40
   2   2 -14   34.40    9.60
  -2  -2  14   50.29   11.20
  -2  -2  14   48.30   10.50
  -2  -2  14   22.50   10.40
   1   2 -14   60.09   14.50
   1   2 -14   31.60   10.60
  -1  -2  14   40.20   10.50
  -1  -2  14   61.69   12.10
  -1  -2  14   57.99   11.70
   0   2 -14    0.60    8.10
   0   2 -14    7.80    7.60
   0  -2  14   -2.70    3.90
   0  -2  14    1.40    5.60
   5   1 -14    3.00    5.50
   5   1 -14    6.00    7.50
  -5  -1  14    7.90    6.20
  -5  -1  14    7.40    4.30
   4   1 -14   50.19   11.30
   4   1 -14   27.80   12.80
  -4  -1  14   34.80   10.00
  -4  -1  14   27.80    8.40
   3   1 -14   73.19   15.10
   3   1 -14   67.39   16.80
  -3  -1  14   94.69   16.10
  -3  -1  14  116.59   14.50
  -3  -1  14  109.69   13.00
   2   1 -14   -3.40    4.70
   2   1 -14  -12.30    5.80
  -2  -1  14   -7.00    3.90
  -2  -1  14    2.80    3.20
  -2  -1  14    2.60    4.20
   1   1 -14    2.30    8.00
   1   1 -14    6.30    6.80
  -1  -1  14   11.50    4.70
  -1  -1  14    3.40    3.50
  -1  -1  14    2.50    3.70
   0   1 -14   31.30   11.10
   0   1 -14   17.60   11.80
   0  -1  14   21.50    8.10
   0  -1  14   18.80    7.10
   5   0 -14   26.70   13.20
   5   0 -14   40.40   10.80
  -5   0  14   46.50   10.70
  -5   0  14   46.70    9.90
   4   0 -14    4.90    6.80
   4   0 -14   11.40    7.80
  -4   0  14    0.10    3.10
  -4   0  14   -4.20    3.80
   3   0 -14    5.80    9.60
   3   0 -14    5.60    6.00
  -3   0  14    6.60    5.40
  -3   0  14    2.00    4.50
  -3   0  14    7.60    5.00
   2   0 -14   58.59   14.10
   2   0 -14   35.10   12.50
  -2   0  14   28.10    7.50
  -2   0  14   41.20   10.40
  -2   0  14   49.20   16.80
   1   0 -14   20.10    8.50
   1   0 -14    7.50    8.90
  -1   0  14   14.90    5.90
  -1   0  14    0.20    4.90
  -1   0  14   13.60    7.20
  -5   1  14   -4.10    4.60
   4  -1 -14   27.40   11.20
   4  -1 -14   14.90   12.20
  -4   1  14   10.00    6.20
  -4   1  14   19.40    7.80
   3  -1 -14    6.90    5.30
   3  -1 -14    3.50   10.10
  -3   1  14    7.40    5.10
  -3   1  14   11.70    5.40
  -3   1  14    0.60    4.70
   2  -1 -14   -5.10    8.00
   2  -1 -14    7.50    7.80
  -2   1  14    5.50    4.60
  -2   1  14    6.00    4.50
  -2   1  14   12.40    6.40
   2   4 -15   33.90   11.50
   2   4 -15   31.50    7.50
   2   4 -15   52.39   16.60
  -2  -4  15   29.40    7.50
  -2  -4  15   16.30    5.90
  -2  -4  15   35.90    9.40
   3   3 -15   21.80    9.10
   3   3 -15   18.80   10.30
   3   3 -15   23.70   12.40
  -3  -3  15   11.30    5.30
  -3  -3  15   13.60    7.30
  -3  -3  15   12.30    6.10
   2   3 -15   15.90    8.60
   2   3 -15   14.90    6.40
   2   3 -15   21.10   14.00
  -2  -3  15   23.60    7.00
  -2  -3  15   14.30    6.90
   3   2 -15   -4.90    3.70
   3   2 -15   10.10    8.60
   3   2 -15   11.40    9.70
  -3  -2  15    4.60    4.40
  -3  -2  15   19.50    6.40
  -3  -2  15    3.90    6.30
   2   2 -15   22.40   11.10
   2   2 -15   13.50    6.40
   2   2 -15    7.60    4.40
  -2  -2  15    7.60    5.10
  -2  -2  15    4.20    4.50
  -2  -2  15    5.60    4.40
   0   0   0    0.00    0.00

_computing_structure_solution     'SHELXT 2014/5 (Sheldrick, 2014)'
;
_shelx_hkl_checksum              29218
_olex2_submission_special_instructions 'No special instructions were received'
loop_
_space_group_symop_operation_xyz
'x, y, z'
'-x, -y, -z'
loop_
_atom_site_label
_atom_site_type_symbol
_atom_site_fract_x
_atom_site_fract_y
_atom_site_fract_z
_atom_site_U_iso_or_equiv
_atom_site_adp_type
_atom_site_occupancy
_atom_site_site_symmetry_order
_atom_site_calc_flag
_atom_site_refinement_flags_posn
_atom_site_refinement_flags_adp
_atom_site_refinement_flags_occupancy
_atom_site_disorder_assembly
_atom_site_disorder_group
Zn1 Zn 0.49986(6) 0.08315(4) 0.75733(3) 0.03022(13) Uani 1 1 d . . . . .
O4 O 0.1370(4) 0.2660(2) 0.3657(2) 0.0390(6) Uani 1 1 d . . . . .
O2 O 0.6673(4) 0.3297(2) 1.0267(2) 0.0354(5) Uani 1 1 d . . . . .
O5 O 0.1020(4) 0.2675(3) 0.7480(2) 0.0398(6) Uani 1 1 d . . . . .
O3 O 0.8775(4) 0.8028(2) 0.9608(2) 0.0407(6) Uani 1 1 d . . . . .
O1 O 0.6416(4) 0.3405(3) 0.6374(2) 0.0393(6) Uani 1 1 d . . . . .
O6 O 0.3710(4) 0.7320(2) 0.6842(2) 0.0389(6) Uani 1 1 d . . . . .
N1 N 0.6378(4) 0.3247(3) 0.8275(2) 0.0250(5) Uani 1 1 d . . . . .
O7 O 0.3200(5) 0.0130(3) 0.5723(2) 0.0512(7) Uani 1 1 d D . . . .
N6 N 0.2537(4) 0.4984(3) 0.5241(2) 0.0274(5) Uani 1 1 d . . . . .
N5 N 0.2284(4) 0.4995(3) 0.7151(3) 0.0285(6) Uani 1 1 d . . . . .
N2 N 0.7783(5) 0.5665(3) 0.9952(3) 0.0296(6) Uani 1 1 d . . . . .
N4 N 0.1031(5) 0.2536(3) 0.5514(2) 0.0366(7) Uani 1 1 d . . . . .
N3 N 0.7709(4) 0.5715(3) 0.7995(3) 0.0294(6) Uani 1 1 d . . . . .
O9 O 0.7617(5) 0.0138(3) 0.7778(3) 0.0548(7) Uani 1 1 d D . . . .
O8 O 0.2957(5) -0.0075(4) 0.8410(3) 0.0606(8) Uani 1 1 d D . . . .
C2 C 0.6929(5) 0.4019(3) 0.9523(3) 0.0262(6) Uani 1 1 d . . . . .
C1 C 0.6812(5) 0.4076(3) 0.7498(3) 0.0263(6) Uani 1 1 d . . . . .
C6 C 0.2901(5) 0.5881(3) 0.6437(3) 0.0267(6) Uani 1 1 d . . . . .
C5 C 0.1406(5) 0.3347(3) 0.6723(3) 0.0290(6) Uani 1 1 d . . . . .
C3 C 0.8133(5) 0.6585(3) 0.9215(3) 0.0290(6) Uani 1 1 d . . . . .
C4 C 0.1619(5) 0.3340(3) 0.4766(3) 0.0285(6) Uani 1 1 d . . . . .
H3 H 0.793(5) 0.619(4) 0.755(3) 0.029(9) Uiso 1 1 d . . . . .
H2 H 0.807(6) 0.612(4) 1.067(4) 0.033(10) Uiso 1 1 d . . . . .
H6 H 0.281(6) 0.544(4) 0.480(4) 0.040(11) Uiso 1 1 d . . . . .
H5 H 0.243(6) 0.549(4) 0.787(4) 0.041(10) Uiso 1 1 d . . . . .
H7A H 0.192(6) -0.087(4) 0.536(5) 0.106(19) Uiso 1 1 d D . . . .
H7B H 0.266(9) 0.095(5) 0.548(5) 0.11(2) Uiso 1 1 d D . . . .
H9A H 0.717(8) -0.096(3) 0.715(4) 0.092(17) Uiso 1 1 d D . . . .
H8A H 0.279(9) 0.071(5) 0.911(4) 0.100(18) Uiso 1 1 d D . . . .
H8B H 0.162(9) -0.096(7) 0.777(6) 0.19(4) Uiso 1 1 d D . . . .
H9B H 0.868(19) 0.062(17) 0.866(5) 0.39(8) Uiso 1 1 d D . . . .
loop_
_atom_site_aniso_label
_atom_site_aniso_U_11
_atom_site_aniso_U_22
_atom_site_aniso_U_33
_atom_site_aniso_U_23
_atom_site_aniso_U_13
_atom_site_aniso_U_12
Zn1 0.0319(2) 0.02313(19) 0.0304(2) 0.00578(14) 0.01015(15) 0.00548(14)
O4 0.0637(15) 0.0227(11) 0.0269(12) 0.0046(9) 0.0228(11) 0.0057(10)
O2 0.0557(14) 0.0250(11) 0.0232(11) 0.0093(9) 0.0157(10) 0.0081(10)
O5 0.0598(15) 0.0262(11) 0.0293(12) 0.0103(10) 0.0215(11) 0.0018(11)
O3 0.0604(15) 0.0198(11) 0.0339(13) 0.0054(9) 0.0153(11) 0.0067(10)
O1 0.0589(15) 0.0256(11) 0.0217(11) 0.0048(9) 0.0141(11) -0.0002(10)
O6 0.0586(15) 0.0150(10) 0.0357(13) 0.0033(9) 0.0207(11) 0.0021(10)
N1 0.0324(13) 0.0186(11) 0.0190(12) 0.0046(9) 0.0076(10) 0.0047(10)
O7 0.0588(17) 0.0291(13) 0.0417(15) 0.0099(11) -0.0028(13) 0.0025(12)
N6 0.0397(14) 0.0179(12) 0.0256(13) 0.0086(10) 0.0173(11) 0.0047(10)
N5 0.0408(15) 0.0188(12) 0.0222(13) 0.0036(10) 0.0149(11) 0.0036(10)
N2 0.0460(16) 0.0208(12) 0.0184(13) 0.0040(10) 0.0115(12) 0.0084(11)
N4 0.0614(18) 0.0182(12) 0.0265(14) 0.0055(10) 0.0221(13) 0.0034(12)
N3 0.0405(15) 0.0198(12) 0.0255(14) 0.0094(11) 0.0126(12) 0.0045(11)
O9 0.0498(16) 0.0385(15) 0.068(2) 0.0100(14) 0.0172(14) 0.0132(13)
O8 0.0645(19) 0.0481(17) 0.063(2) 0.0060(15) 0.0353(16) 0.0090(15)
C2 0.0306(15) 0.0211(14) 0.0252(15) 0.0057(11) 0.0097(12) 0.0089(12)
C1 0.0265(14) 0.0246(14) 0.0233(15) 0.0074(12) 0.0068(12) 0.0045(11)
C6 0.0308(15) 0.0244(14) 0.0241(15) 0.0070(12) 0.0108(12) 0.0085(12)
C5 0.0369(16) 0.0222(14) 0.0256(15) 0.0072(12) 0.0133(13) 0.0054(12)
C3 0.0332(15) 0.0242(15) 0.0265(15) 0.0074(12) 0.0082(13) 0.0090(12)
C4 0.0388(16) 0.0203(14) 0.0246(15) 0.0066(12) 0.0126(13) 0.0071(12)
loop_
_atom_type_symbol
_atom_type_description
_atom_type_scat_dispersion_real
_atom_type_scat_dispersion_imag
_atom_type_scat_source
C C 0.0033 0.0016 'International Tables Vol C Tables 4.2.6.8 and 6.1.1.4'
H H 0.0000 0.0000 'International Tables Vol C Tables 4.2.6.8 and 6.1.1.4'
N N 0.0061 0.0033 'International Tables Vol C Tables 4.2.6.8 and 6.1.1.4'
O O 0.0106 0.0060 'International Tables Vol C Tables 4.2.6.8 and 6.1.1.4'
Zn Zn 0.2839 1.4301 'International Tables Vol C Tables 4.2.6.8 and 6.1.1.4'
loop_
_geom_angle_atom_site_label_1
_geom_angle_atom_site_label_2
_geom_angle_atom_site_label_3
_geom_angle
_geom_angle_site_symmetry_1
_geom_angle_site_symmetry_3
_geom_angle_publ_flag
O7 Zn1 N1 109.84(10) . . ?
O7 Zn1 O9 108.87(13) . . ?
O7 Zn1 O8 106.53(13) . . ?
O9 Zn1 N1 102.82(11) . . ?
O9 Zn1 O8 115.31(13) . . ?
O8 Zn1 N1 113.40(11) . . ?
C2 N1 Zn1 119.77(19) . . ?
C2 N1 C1 120.4(2) . . ?
C1 N1 Zn1 119.77(19) . . ?
C6 N6 C4 124.3(3) . . ?
C6 N5 C5 124.1(3) . . ?
C3 N2 C2 125.0(3) . . ?
C4 N4 C5 119.4(3) . . ?
C3 N3 C1 124.5(3) . . ?
O2 C2 N1 122.1(3) . . ?
O2 C2 N2 120.0(3) . . ?
N1 C2 N2 117.9(3) . . ?
O1 C1 N1 121.9(3) . . ?
O1 C1 N3 119.7(3) . . ?
N1 C1 N3 118.4(3) . . ?
O6 C6 N6 123.7(3) . . ?
O6 C6 N5 122.9(3) . . ?
N6 C6 N5 113.5(3) . . ?
O5 C5 N5 118.1(3) . . ?
O5 C5 N4 122.6(3) . . ?
N4 C5 N5 119.2(3) . . ?
O3 C3 N2 123.3(3) . . ?
O3 C3 N3 123.4(3) . . ?
N2 C3 N3 113.3(3) . . ?
O4 C4 N6 118.1(3) . . ?
O4 C4 N4 122.5(3) . . ?
N4 C4 N6 119.4(3) . . ?
loop_
_geom_bond_atom_site_label_1
_geom_bond_atom_site_label_2
_geom_bond_distance
_geom_bond_site_symmetry_2
_geom_bond_publ_flag
Zn1 N1 2.030(2) . ?
Zn1 O7 2.006(3) . ?
Zn1 O9 2.013(3) . ?
Zn1 O8 2.028(3) . ?
O4 C4 1.240(4) . ?
O2 C2 1.233(3) . ?
O5 C5 1.239(4) . ?
O3 C3 1.211(4) . ?
O1 C1 1.229(4) . ?
O6 C6 1.209(4) . ?
N1 C2 1.356(4) . ?
N1 C1 1.360(4) . ?
N6 C6 1.361(4) . ?
N6 C4 1.380(4) . ?
N5 C6 1.368(4) . ?
N5 C5 1.383(4) . ?
N2 C2 1.380(4) . ?
N2 C3 1.365(4) . ?
N4 C5 1.348(4) . ?
N4 C4 1.347(4) . ?
N3 C1 1.377(4) . ?
N3 C3 1.366(4) . ?
