#------------------------------------------------------------------------------
#$Date: 2021-03-05 04:04:50 +0200 (Fri, 05 Mar 2021) $
#$Revision: 262642 $
#$URL: file:///home/coder/svn-repositories/cod/cif/7/70/64/7706499.cif $
#------------------------------------------------------------------------------
#
# This file is available in the Crystallography Open Database (COD),
# http://www.crystallography.net/
#
# All data on this site have been placed in the public domain by the
# contributors.
#
data_7706499
loop_
_publ_author_name
'Khalaniya, R. A.'
'Sobolev, A. V.'
'Verchenko, V. Yu'
'Tsirlin, A. A.'
'Senyshyn, A.'
'Damay, F.'
'Presniakov, I. A.'
'Shevelkov, A. V.'
_publ_section_title
;
 Magnetic structures of Fe<sub>32+\d</sub>Ge<sub>33</sub>As<sub>2</sub>
 and Fe<sub>32+\d'</sub>Ge<sub>35-x</sub>P<sub>x</sub> intermetallic
 compounds: a neutron diffraction and <sup>57</sup>Fe M\"ossbauer
 spectroscopy study.
;
_journal_issue                   6
_journal_name_full
'Dalton transactions (Cambridge, England : 2003)'
_journal_page_first              2210
_journal_page_last               2220
_journal_paper_doi               10.1039/d0dt03923c
_journal_volume                  50
_journal_year                    2021
_chemical_formula_moiety         'As2 Fe32.147 Ge33'
_chemical_formula_sum            'As2 Fe32.147 Ge33'
_chemical_formula_weight         4340.6
_space_group_IT_number           191
_space_group_name_Hall           '-P 6 2'
_space_group_name_H-M_alt        'P 6/m m m'
_symmetry_cell_setting           hexagonal
_symmetry_Int_Tables_number      191
_symmetry_space_group_name_Hall  '-P 6 2'
_symmetry_space_group_name_H-M   'P 6/m m m'
_audit_creation_method           'Jana2006 Version : 25/04/2020'
_audit_update_record
;
2020-11-10 deposited with the CCDC.	2021-01-11 downloaded from the CCDC.
;
_cell_angle_alpha                90
_cell_angle_beta                 90
_cell_angle_gamma                120
_cell_formula_units_Z            1
_cell_length_a                   11.91971(7)
_cell_length_b                   11.91971(7)
_cell_length_c                   7.52994(6)
_cell_measurement_temperature    4
_cell_volume                     926.517(11)
_diffrn_ambient_temperature      4
_diffrn_detector_type            '80 position-sensitive 3He tubes'
_diffrn_measurement_device       'high resolution powder diffractometer'
_diffrn_measurement_device_type  'SPODI high resolution powder diffractometer'
_diffrn_radiation_monochromator  'Ge (551) monochromator'
_diffrn_radiation_probe          neutron
_diffrn_radiation_type           neutron
_diffrn_radiation_wavelength     1.5482
_exptl_absorpt_coefficient_mu    0.015
_exptl_crystal_density_diffrn    7.7794
_exptl_crystal_description       powder
_exptl_crystal_F_000             587.055
_pd_instr_location               ' ?'
_pd_meas_2theta_range_inc        0.05
_pd_meas_2theta_range_max        151.900
_pd_meas_2theta_range_min        0.950
_pd_meas_number_of_points        3020
_pd_proc_2theta_range_inc        0.05
_pd_proc_2theta_range_max        151.9
_pd_proc_2theta_range_min        6.05
_pd_proc_ls_background_function  '10 Legendre polynoms'
_pd_proc_ls_pref_orient_corr     none
_pd_proc_ls_profile_function     Gaussian
_pd_proc_ls_prof_R_factor        0.0289
_pd_proc_ls_prof_wR_expected     0.0141
_pd_proc_ls_prof_wR_factor       0.0336
_refine_ls_goodness_of_fit_all   2.39
_refine_ls_number_constraints    0
_refine_ls_number_parameters     58
_refine_ls_number_restraints     0
_refine_ls_R_factor_all          0.0139
_refine_ls_R_factor_gt           0.0138
_refine_ls_shift/su_max          0.0321
_refine_ls_shift/su_mean         0.0128
_refine_ls_weighting_scheme      sigma
_refine_ls_wR_factor_all         0.0201
_refine_ls_wR_factor_gt          0.0201
_cod_data_source_file            d0dt03923c2.cif
_cod_data_source_block           Fe32p1Ge33As2_4K
_cod_depositor_comments
'Adding full bibliography for 7706499--7706504.cif.'
_cod_original_cell_volume        926.518(10)
_cod_original_sg_symbol_Hall     '-P 6;-2'
_cod_database_code               7706499
loop_
_space_group_symop_id
_space_group_symop_operation_xyz
1 x,y,z
2 -y,x-y,z
3 -x+y,-x,z
4 -x,-y,z
5 y,-x+y,z
6 x-y,x,z
7 y,x,-z
8 x-y,-y,-z
9 -x,-x+y,-z
10 -y,-x,-z
11 -x+y,y,-z
12 x,x-y,-z
13 -x,-y,-z
14 y,-x+y,-z
15 x-y,x,-z
16 x,y,-z
17 -y,x-y,-z
18 -x+y,-x,-z
19 -y,-x,z
20 -x+y,y,z
21 x,x-y,z
22 y,x,z
23 x-y,-y,z
24 -x,-x+y,z
loop_
_atom_site_label
_atom_site_type_symbol
_atom_site_fract_x
_atom_site_fract_y
_atom_site_fract_z
_atom_site_adp_type
_atom_site_U_iso_or_equiv
_atom_site_site_symmetry_multiplicity
_atom_site_occupancy
_atom_site_calc_flag
_atom_site_refinement_flags
_atom_site_disorder_assembly
_atom_site_disorder_group
As1 As 0 0 0.1647(4) Uani 0.0005 2 1 d . . .
Ge1 Ge 0 0.22824(12) 0.5 Uani 0.0030(5) 6 1 d . . .
Fe1 Fe 0.21205(6) 0.42410(12) 0.5 Uani 0.0012(4) 6 1 d . . .
Ge2 Ge 0.43173(7) 0.56827(7) 0.5 Uani 0.0035(3) 6 1 d . . .
Ge3 Ge 0.24431(5) 0.48862(9) 0.19628(13) Uani 0.0102(4) 12 1 d . . .
Ge4 Ge 0.27604(11) 0 0 Uani 0.0032(5) 6 1 d . . .
Fe2 Fe 0.333333 0.666667 0 Uani 0.0070(6) 2 1 d . . .
Fe3 Fe 0 0.38610(7) 0.28034(12) Uani 0.0026(3) 12 1 d . . .
Ge5 Ge -0.0517(3) 0.47414(17) 0 Uani 0.0190(15) 6 0.5 d . . .
Fe4 Fe 0.12326(4) 0.24652(8) 0.23305(13) Uani 0.0030(2) 12 1 d . . .
Fe5 Fe 0 0 0.5 Uani 0.013(6) 1 0.148(11) d . . .
loop_
_atom_site_aniso_label
_atom_site_aniso_type_symbol
_atom_site_aniso_U_11
_atom_site_aniso_U_22
_atom_site_aniso_U_33
_atom_site_aniso_U_12
_atom_site_aniso_U_13
_atom_site_aniso_U_23
As1 As 0.000261 0.000261 0.001 0.000131 0 0
Ge1 Ge 0.0037(7) 0.0032(5) 0.0021(7) 0.0019(4) 0 0
Fe1 Fe 0.0007(4) 0.0012(6) 0.0018(6) 0.0006(3) 0 0
Ge2 Ge 0.0025(3) 0.0025(3) 0.0037(8) 0.0001 0 0
Ge3 Ge 0.0180(5) 0.0035(5) 0.0043(5) 0.0017(2) -0.00021(19) -0.0004(4)
Ge4 Ge 0.0032(5) 0.0040(6) 0.0028(8) 0.0020(3) 0 0
Fe2 Fe 0.0092(7) 0.0092(7) 0.0027(12) 0.0046(4) 0 0
Fe3 Fe 0.0014(4) 0.0026(3) 0.0033(4) 0.0007(2) 0 0.0001(3)
Ge5 Ge 0.049(3) 0.0150(12) 0.0043(16) 0.0245(13) 0 0
Fe4 Fe 0.0017 0.0039(4) 0.0043(4) 0.0019(2) 0.00036(17) 0.0007(3)
Fe5 Fe 0.008959 0.008959 0.021(17) 0.00448 0 0
loop_
_atom_type_symbol
_atom_type_scat_length_neutron
_atom_type_scat_source
As 6.580 International_Tables_Vol_C
Fe 9.450 International_Tables_Vol_C
Ge 8.185 International_Tables_Vol_C
loop_
_exptl_crystal_face_index_h
_exptl_crystal_face_index_k
_exptl_crystal_face_index_l
_exptl_crystal_face_perp_dist
? ? ? ?
loop_
_geom_angle_atom_site_label_1
_geom_angle_atom_site_label_2
_geom_angle_atom_site_label_3
_geom_angle_site_symmetry_1
_geom_angle_site_symmetry_2
_geom_angle_site_symmetry_3
_geom_angle
_geom_angle_publ_flag
As1 As1 Fe4 7_555 . . 101.45(6) ?
As1 As1 Fe4 7_555 . 2_555 101.45(6) ?
As1 As1 Fe4 7_555 . 3_555 101.45(6) ?
As1 As1 Fe4 7_555 . 4_555 101.45(6) ?
As1 As1 Fe4 7_555 . 5_555 101.45(6) ?
As1 As1 Fe4 7_555 . 6_555 101.45(6) ?
As1 As1 Fe5 7_555 . . 180 ?
Fe4 As1 Fe4 . . 2_555 116.16(5) ?
Fe4 As1 Fe4 . . 3_555 116.16(4) ?
Fe4 As1 Fe4 . . 4_555 157.10(12) ?
Fe4 As1 Fe4 . . 5_555 58.69(3) ?
Fe4 As1 Fe4 . . 6_555 58.69(2) ?
Fe4 As1 Fe5 . . . 78.55(6) ?
Fe4 As1 Fe4 2_555 . 3_555 116.16(5) ?
Fe4 As1 Fe4 2_555 . 4_555 58.69(3) ?
Fe4 As1 Fe4 2_555 . 5_555 157.10(12) ?
Fe4 As1 Fe4 2_555 . 6_555 58.69(3) ?
Fe4 As1 Fe5 2_555 . . 78.55(6) ?
Fe4 As1 Fe4 3_555 . 4_555 58.69(2) ?
Fe4 As1 Fe4 3_555 . 5_555 58.69(3) ?
Fe4 As1 Fe4 3_555 . 6_555 157.10(12) ?
Fe4 As1 Fe5 3_555 . . 78.55(6) ?
Fe4 As1 Fe4 4_555 . 5_555 116.16(5) ?
Fe4 As1 Fe4 4_555 . 6_555 116.16(4) ?
Fe4 As1 Fe5 4_555 . . 78.55(6) ?
Fe4 As1 Fe4 5_555 . 6_555 116.16(5) ?
Fe4 As1 Fe5 5_555 . . 78.55(6) ?
Fe4 As1 Fe5 6_555 . . 78.55(6) ?
Ge1 Ge1 Ge1 5_555 . 6_555 120.00(6) ?
Ge1 Ge1 Fe1 5_555 . . 56.06(4) ?
Ge1 Ge1 Fe1 5_555 . 6_555 176.06(6) ?
Ge1 Ge1 Fe3 5_555 . . 112.05(2) ?
Ge1 Ge1 Fe3 5_555 . 9_556 112.05(2) ?
Ge1 Ge1 Fe4 5_555 . . 56.02(2) ?
Ge1 Ge1 Fe4 5_555 . 6_555 110.26(4) ?
Ge1 Ge1 Fe4 5_555 . 9_556 110.26(4) ?
Ge1 Ge1 Fe4 5_555 . 11_556 56.02(3) ?
Ge1 Ge1 Fe5 5_555 . . 60.00(4) ?
Ge1 Ge1 Fe1 6_555 . . 176.06(7) ?
Ge1 Ge1 Fe1 6_555 . 6_555 56.06(3) ?
Ge1 Ge1 Fe3 6_555 . . 112.05(2) ?
Ge1 Ge1 Fe3 6_555 . 9_556 112.05(2) ?
Ge1 Ge1 Fe4 6_555 . . 110.26(4) ?
Ge1 Ge1 Fe4 6_555 . 6_555 56.02(2) ?
Ge1 Ge1 Fe4 6_555 . 9_556 56.02(2) ?
Ge1 Ge1 Fe4 6_555 . 11_556 110.26(4) ?
Ge1 Ge1 Fe5 6_555 . . 60.00(4) ?
Fe1 Ge1 Fe1 . . 6_555 127.88(7) ?
Fe1 Ge1 Fe3 . . . 70.74(4) ?
Fe1 Ge1 Fe3 . . 9_556 70.74(4) ?
Fe1 Ge1 Fe4 . . . 67.91(2) ?
Fe1 Ge1 Fe4 . . 6_555 124.25(2) ?
Fe1 Ge1 Fe4 . . 9_556 124.25(2) ?
Fe1 Ge1 Fe4 . . 11_556 67.91(2) ?
Fe1 Ge1 Fe5 . . . 116.06(4) ?
Fe1 Ge1 Fe3 6_555 . . 70.74(3) ?
Fe1 Ge1 Fe3 6_555 . 9_556 70.74(3) ?
Fe1 Ge1 Fe4 6_555 . . 124.25(2) ?
Fe1 Ge1 Fe4 6_555 . 6_555 67.91(3) ?
Fe1 Ge1 Fe4 6_555 . 9_556 67.91(2) ?
Fe1 Ge1 Fe4 6_555 . 11_556 124.25(3) ?
Fe1 Ge1 Fe5 6_555 . . 116.06(3) ?
Fe3 Ge1 Fe3 . . 9_556 82.65(5) ?
Fe3 Ge1 Fe4 . . . 67.32(3) ?
Fe3 Ge1 Fe4 . . 6_555 67.32(3) ?
Fe3 Ge1 Fe4 . . 9_556 134.82(5) ?
Fe3 Ge1 Fe4 . . 11_556 134.82(5) ?
Fe3 Ge1 Fe5 . . . 138.68(3) ?
Fe3 Ge1 Fe4 9_556 . . 134.82(5) ?
Fe3 Ge1 Fe4 9_556 . 6_555 134.82(5) ?
Fe3 Ge1 Fe4 9_556 . 9_556 67.32(3) ?
Fe3 Ge1 Fe4 9_556 . 11_556 67.32(3) ?
Fe3 Ge1 Fe5 9_556 . . 138.68(3) ?
Fe4 Ge1 Fe4 . . 6_555 63.01(3) ?
Fe4 Ge1 Fe4 . . 9_556 155.45(7) ?
Fe4 Ge1 Fe4 . . 11_556 111.31(4) ?
Fe4 Ge1 Fe5 . . . 77.73(4) ?
Fe4 Ge1 Fe4 6_555 . 9_556 111.31(3) ?
Fe4 Ge1 Fe4 6_555 . 11_556 155.45(7) ?
Fe4 Ge1 Fe5 6_555 . . 77.73(4) ?
Fe4 Ge1 Fe4 9_556 . 11_556 63.01(3) ?
Fe4 Ge1 Fe5 9_556 . . 77.73(4) ?
Fe4 Ge1 Fe5 11_556 . . 77.73(4) ?
Ge1 Fe1 Ge1 . . 5_555 67.88(5) ?
Ge1 Fe1 Ge2 . . . 164.18(8) ?
Ge1 Fe1 Ge2 . . 3_565 96.30(5) ?
Ge1 Fe1 Ge3 . . . 103.40(2) ?
Ge1 Fe1 Ge3 . . 11_556 103.40(3) ?
Ge1 Fe1 Fe3 . . . 55.75(3) ?
Ge1 Fe1 Fe3 . . 5_555 109.59(5) ?
Ge1 Fe1 Fe3 . . 9_556 55.75(3) ?
Ge1 Fe1 Fe3 . . 11_556 109.59(5) ?
Ge1 Fe1 Fe4 . . . 56.00(3) ?
Ge1 Fe1 Fe4 . . 11_556 56.00(3) ?
Ge1 Fe1 Ge2 5_555 . . 96.30(6) ?
Ge1 Fe1 Ge2 5_555 . 3_565 164.18(5) ?
Ge1 Fe1 Ge3 5_555 . . 103.40(4) ?
Ge1 Fe1 Ge3 5_555 . 11_556 103.40(5) ?
Ge1 Fe1 Fe3 5_555 . . 109.59(4) ?
Ge1 Fe1 Fe3 5_555 . 5_555 55.75(4) ?
Ge1 Fe1 Fe3 5_555 . 9_556 109.59(4) ?
Ge1 Fe1 Fe3 5_555 . 11_556 55.75(4) ?
Ge1 Fe1 Fe4 5_555 . . 56.00(3) ?
Ge1 Fe1 Fe4 5_555 . 11_556 56.00(4) ?
Ge2 Fe1 Ge2 . . 3_565 99.53(6) ?
Ge2 Fe1 Ge3 . . . 79.60(2) ?
Ge2 Fe1 Ge3 . . 11_556 79.60(3) ?
Ge2 Fe1 Fe3 . . . 134.64(4) ?
Ge2 Fe1 Fe3 . . 5_555 58.30(3) ?
Ge2 Fe1 Fe3 . . 9_556 134.64(4) ?
Ge2 Fe1 Fe3 . . 11_556 58.30(3) ?
Ge2 Fe1 Fe4 . . . 115.81(3) ?
Ge2 Fe1 Fe4 . . 11_556 115.81(4) ?
Ge2 Fe1 Ge3 3_565 . . 79.60(4) ?
Ge2 Fe1 Ge3 3_565 . 11_556 79.60(5) ?
Ge2 Fe1 Fe3 3_565 . . 58.30(3) ?
Ge2 Fe1 Fe3 3_565 . 5_555 134.64(4) ?
Ge2 Fe1 Fe3 3_565 . 9_556 58.30(3) ?
Ge2 Fe1 Fe3 3_565 . 11_556 134.64(4) ?
Ge2 Fe1 Fe4 3_565 . . 115.81(3) ?
Ge2 Fe1 Fe4 3_565 . 11_556 115.81(4) ?
Ge3 Fe1 Ge3 . . 11_556 147.55(6) ?
Ge3 Fe1 Fe3 . . . 58.88(2) ?
Ge3 Fe1 Fe3 . . 5_555 58.88(3) ?
Ge3 Fe1 Fe3 . . 9_556 126.40(5) ?
Ge3 Fe1 Fe3 . . 11_556 126.40(4) ?
Ge3 Fe1 Fe4 . . . 58.60(3) ?
Ge3 Fe1 Fe4 . . 11_556 153.85(6) ?
Ge3 Fe1 Fe3 11_556 . . 126.40(5) ?
Ge3 Fe1 Fe3 11_556 . 5_555 126.40(5) ?
Ge3 Fe1 Fe3 11_556 . 9_556 58.88(3) ?
Ge3 Fe1 Fe3 11_556 . 11_556 58.88(4) ?
Ge3 Fe1 Fe4 11_556 . . 153.85(6) ?
Ge3 Fe1 Fe4 11_556 . 11_556 58.60(3) ?
Fe3 Fe1 Fe3 . . 5_555 107.09(2) ?
Fe3 Fe1 Fe3 . . 9_556 70.64(3) ?
Fe3 Fe1 Fe3 . . 11_556 164.24(5) ?
Fe3 Fe1 Fe4 . . . 58.70(2) ?
Fe3 Fe1 Fe4 . . 11_556 109.55(3) ?
Fe3 Fe1 Fe3 5_555 . 9_556 164.24(5) ?
Fe3 Fe1 Fe3 5_555 . 11_556 70.64(4) ?
Fe3 Fe1 Fe4 5_555 . . 58.70(3) ?
Fe3 Fe1 Fe4 5_555 . 11_556 109.55(6) ?
Fe3 Fe1 Fe3 9_556 . 11_556 107.09(2) ?
Fe3 Fe1 Fe4 9_556 . . 109.55(3) ?
Fe3 Fe1 Fe4 9_556 . 11_556 58.70(3) ?
Fe3 Fe1 Fe4 11_556 . . 109.55(5) ?
Fe3 Fe1 Fe4 11_556 . 11_556 58.70(3) ?
Fe4 Fe1 Fe4 . . 11_556 95.25(5) ?
Fe1 Ge2 Fe1 . . 2_665 140.47(7) ?
Fe1 Ge2 Ge2 . . 4_665 109.76(5) ?
Fe1 Ge2 Fe3 . . 2_665 133.21(3) ?
Fe1 Ge2 Fe3 . . 5_555 71.79(3) ?
Fe1 Ge2 Fe3 . . 8_666 133.21(3) ?
Fe1 Ge2 Fe3 . . 11_556 71.79(3) ?
Fe1 Ge2 Ge2 2_665 . 4_665 109.76(5) ?
Fe1 Ge2 Fe3 2_665 . 2_665 71.79(4) ?
Fe1 Ge2 Fe3 2_665 . 5_555 133.21(3) ?
Fe1 Ge2 Fe3 2_665 . 8_666 71.79(4) ?
Fe1 Ge2 Fe3 2_665 . 11_556 133.21(3) ?
Ge2 Ge2 Fe3 4_665 . 2_665 56.62(3) ?
Ge2 Ge2 Fe3 4_665 . 5_555 56.62(3) ?
Ge2 Ge2 Fe3 4_665 . 8_666 56.62(3) ?
Ge2 Ge2 Fe3 4_665 . 11_556 56.62(3) ?
Fe3 Ge2 Fe3 2_665 . 5_555 63.98(3) ?
Fe3 Ge2 Fe3 2_665 . 8_666 80.40(4) ?
Fe3 Ge2 Fe3 2_665 . 11_556 113.24(5) ?
Fe3 Ge2 Fe3 5_555 . 8_666 113.24(5) ?
Fe3 Ge2 Fe3 5_555 . 11_556 80.40(4) ?
Fe3 Ge2 Fe3 8_666 . 11_556 63.98(3) ?
Fe1 Ge3 Ge3 . . 11_555 163.78(5) ?
Fe1 Ge3 Fe2 . . . 145.02(5) ?
Fe1 Ge3 Fe3 . . . 69.76(3) ?
Fe1 Ge3 Fe3 . . 5_555 69.76(5) ?
Fe1 Ge3 Ge5 . . 4_565 121.24(6) ?
Fe1 Ge3 Ge5 . . 5_555 121.24(6) ?
Fe1 Ge3 Fe4 . . . 67.45(4) ?
Ge3 Ge3 Fe2 11_555 . . 51.20(3) ?
Ge3 Ge3 Fe3 11_555 . . 104.03(4) ?
Ge3 Ge3 Fe3 11_555 . 5_555 104.03(5) ?
Ge3 Ge3 Ge5 11_555 . 4_565 59.86(5) ?
Ge3 Ge3 Ge5 11_555 . 5_555 59.86(4) ?
Ge3 Ge3 Fe4 11_555 . . 96.33(4) ?
Fe2 Ge3 Fe3 . . . 117.89(4) ?
Fe2 Ge3 Fe3 . . 5_555 117.89(3) ?
Fe2 Ge3 Ge5 . . 4_565 65.38(5) ?
Fe2 Ge3 Ge5 . . 5_555 65.38(8) ?
Fe2 Ge3 Fe4 . . . 147.53(5) ?
Fe3 Ge3 Fe3 . . 5_555 123.64(4) ?
Fe3 Ge3 Ge5 . . 4_565 54.64(5) ?
Fe3 Ge3 Ge5 . . 5_555 158.17(7) ?
Fe3 Ge3 Fe4 . . . 64.57(3) ?
Fe3 Ge3 Ge5 5_555 . 4_565 158.17(6) ?
Fe3 Ge3 Ge5 5_555 . 5_555 54.64(7) ?
Fe3 Ge3 Fe4 5_555 . . 64.57(3) ?
Ge5 Ge3 Ge5 4_565 . 5_555 117.48(7) ?
Ge5 Ge3 Fe4 4_565 . . 100.69(4) ?
Ge5 Ge3 Fe4 5_555 . . 100.69(9) ?
Fe3 Ge4 Fe3 3_555 . 7_555 116.29(6) ?
Fe3 Ge4 Ge5 3_555 . 3_555 58.84(3) ?
Fe3 Ge4 Ge5 3_555 . 6_655 58.84(3) ?
Fe3 Ge4 Fe4 3_555 . 3_555 67.78(3) ?
Fe3 Ge4 Fe4 3_555 . 5_555 67.78(3) ?
Fe3 Ge4 Fe4 3_555 . 7_555 148.358(16) ?
Fe3 Ge4 Fe4 3_555 . 12_555 148.36(3) ?
Fe3 Ge4 Ge5 7_555 . 3_555 58.84(3) ?
Fe3 Ge4 Ge5 7_555 . 6_655 58.84(3) ?
Fe3 Ge4 Fe4 7_555 . 3_555 148.358(18) ?
Fe3 Ge4 Fe4 7_555 . 5_555 148.36(2) ?
Fe3 Ge4 Fe4 7_555 . 7_555 67.78(3) ?
Fe3 Ge4 Fe4 7_555 . 12_555 67.78(2) ?
Ge5 Ge4 Ge5 3_555 . 6_655 22.67(11) ?
Ge5 Ge4 Fe4 3_555 . 3_555 122.86(6) ?
Ge5 Ge4 Fe4 3_555 . 5_555 109.66(6) ?
Ge5 Ge4 Fe4 3_555 . 7_555 109.66(6) ?
Ge5 Ge4 Fe4 3_555 . 12_555 122.86(6) ?
Ge5 Ge4 Fe4 6_655 . 3_555 109.66(6) ?
Ge5 Ge4 Fe4 6_655 . 5_555 122.86(5) ?
Ge5 Ge4 Fe4 6_655 . 7_555 122.86(5) ?
Ge5 Ge4 Fe4 6_655 . 12_555 109.66(5) ?
Fe4 Ge4 Fe4 3_555 . 5_555 63.28(3) ?
Fe4 Ge4 Fe4 3_555 . 7_555 126.73(7) ?
Fe4 Ge4 Fe4 3_555 . 12_555 92.73(4) ?
Fe4 Ge4 Fe4 5_555 . 7_555 92.73(5) ?
Fe4 Ge4 Fe4 5_555 . 12_555 126.73(7) ?
Fe4 Ge4 Fe4 7_555 . 12_555 63.28(3) ?
Ge3 Fe2 Ge3 . . 2_665 84.90(3) ?
Ge3 Fe2 Ge3 . . 3_565 84.90(3) ?
Ge3 Fe2 Ge3 . . 10_665 134.13(3) ?
Ge3 Fe2 Ge3 . . 11_555 77.60(3) ?
Ge3 Fe2 Ge3 . . 12_565 134.13(2) ?
Ge3 Fe2 Ge5 . . 4_565 67.07(5) ?
Ge3 Fe2 Ge5 . . 5_555 67.07(4) ?
Ge3 Fe2 Ge5 . . 6_665 141.20(2) ?
Ge3 Fe2 Ge3 2_665 . 3_565 84.90(4) ?
Ge3 Fe2 Ge3 2_665 . 10_665 77.60(3) ?
Ge3 Fe2 Ge3 2_665 . 11_555 134.13(5) ?
Ge3 Fe2 Ge3 2_665 . 12_565 134.13(4) ?
Ge3 Fe2 Ge5 2_665 . 4_565 141.20(2) ?
Ge3 Fe2 Ge5 2_665 . 5_555 67.07(5) ?
Ge3 Fe2 Ge5 2_665 . 6_665 67.07(8) ?
Ge3 Fe2 Ge3 3_565 . 10_665 134.13(2) ?
Ge3 Fe2 Ge3 3_565 . 11_555 134.13(4) ?
Ge3 Fe2 Ge3 3_565 . 12_565 77.60(4) ?
Ge3 Fe2 Ge5 3_565 . 4_565 67.07(5) ?
Ge3 Fe2 Ge5 3_565 . 5_555 141.20(3) ?
Ge3 Fe2 Ge5 3_565 . 6_665 67.07(7) ?
Ge3 Fe2 Ge3 10_665 . 11_555 84.90(3) ?
Ge3 Fe2 Ge3 10_665 . 12_565 84.90(3) ?
Ge3 Fe2 Ge5 10_665 . 4_565 141.20(2) ?
Ge3 Fe2 Ge5 10_665 . 5_555 67.07(4) ?
Ge3 Fe2 Ge5 10_665 . 6_665 67.07(7) ?
Ge3 Fe2 Ge3 11_555 . 12_565 84.90(4) ?
Ge3 Fe2 Ge5 11_555 . 4_565 67.07(5) ?
Ge3 Fe2 Ge5 11_555 . 5_555 67.07(5) ?
Ge3 Fe2 Ge5 11_555 . 6_665 141.20(2) ?
Ge3 Fe2 Ge5 12_565 . 4_565 67.07(4) ?
Ge3 Fe2 Ge5 12_565 . 5_555 141.20(3) ?
Ge3 Fe2 Ge5 12_565 . 6_665 67.07(8) ?
Ge5 Fe2 Ge5 4_565 . 5_555 120.00(8) ?
Ge5 Fe2 Ge5 4_565 . 6_665 120.00(11) ?
Ge5 Fe2 Ge5 5_555 . 6_665 120.00(11) ?
Ge1 Fe3 Fe1 . . . 53.52(3) ?
Ge1 Fe3 Fe1 . . 6_555 53.52(3) ?
Ge1 Fe3 Ge2 . . 3_565 88.38(4) ?
Ge1 Fe3 Ge2 . . 6_555 88.38(4) ?
Ge1 Fe3 Ge3 . . . 95.32(3) ?
Ge1 Fe3 Ge3 . . 6_555 95.32(3) ?
Ge1 Fe3 Ge4 . . 2_555 99.47(4) ?
Ge1 Fe3 Fe3 . . 4_565 138.68(5) ?
Ge1 Fe3 Ge5 . . . 160.13(5) ?
Ge1 Fe3 Ge5 . . 4_565 160.13(9) ?
Ge1 Fe3 Fe4 . . . 55.11(3) ?
Ge1 Fe3 Fe4 . . 6_555 55.11(3) ?
Fe1 Fe3 Fe1 . . 6_555 99.84(4) ?
Fe1 Fe3 Ge2 . . 3_565 49.91(4) ?
Fe1 Fe3 Ge2 . . 6_555 101.42(4) ?
Fe1 Fe3 Ge3 . . . 51.36(2) ?
Fe1 Fe3 Ge3 . . 6_555 148.63(4) ?
Fe1 Fe3 Ge4 . . 2_555 109.97(3) ?
Fe1 Fe3 Fe3 . . 4_565 106.46(4) ?
Fe1 Fe3 Ge5 . . . 141.73(7) ?
Fe1 Fe3 Ge5 . . 4_565 117.77(8) ?
Fe1 Fe3 Fe4 . . . 58.09(3) ?
Fe1 Fe3 Fe4 . . 6_555 100.51(4) ?
Fe1 Fe3 Ge2 6_555 . 3_565 101.41(3) ?
Fe1 Fe3 Ge2 6_555 . 6_555 49.91(3) ?
Fe1 Fe3 Ge3 6_555 . . 148.63(5) ?
Fe1 Fe3 Ge3 6_555 . 6_555 51.36(3) ?
Fe1 Fe3 Ge4 6_555 . 2_555 109.97(3) ?
Fe1 Fe3 Fe3 6_555 . 4_565 106.46(3) ?
Fe1 Fe3 Ge5 6_555 . . 117.77(8) ?
Fe1 Fe3 Ge5 6_555 . 4_565 141.73(9) ?
Fe1 Fe3 Fe4 6_555 . . 100.51(4) ?
Fe1 Fe3 Fe4 6_555 . 6_555 58.09(3) ?
Ge2 Fe3 Ge2 3_565 . 6_555 66.76(4) ?
Ge2 Fe3 Ge3 3_565 . . 70.89(3) ?
Ge2 Fe3 Ge3 3_565 . 6_555 137.35(5) ?
Ge2 Fe3 Ge4 3_565 . 2_555 145.88(3) ?
Ge2 Fe3 Fe3 3_565 . 4_565 58.01(3) ?
Ge2 Fe3 Ge5 3_565 . . 111.43(5) ?
Ge2 Fe3 Ge5 3_565 . 4_565 97.81(4) ?
Ge2 Fe3 Fe4 3_565 . . 107.00(4) ?
Ge2 Fe3 Fe4 3_565 . 6_555 143.47(4) ?
Ge2 Fe3 Ge3 6_555 . . 137.35(4) ?
Ge2 Fe3 Ge3 6_555 . 6_555 70.89(3) ?
Ge2 Fe3 Ge4 6_555 . 2_555 145.88(2) ?
Ge2 Fe3 Fe3 6_555 . 4_565 58.01(3) ?
Ge2 Fe3 Ge5 6_555 . . 97.81(8) ?
Ge2 Fe3 Ge5 6_555 . 4_565 111.43(9) ?
Ge2 Fe3 Fe4 6_555 . . 143.47(4) ?
Ge2 Fe3 Fe4 6_555 . 6_555 107.00(3) ?
Ge3 Fe3 Ge3 . . 6_555 150.03(5) ?
Ge3 Fe3 Ge4 . . 2_555 75.33(3) ?
Ge3 Fe3 Fe3 . . 4_565 95.15(3) ?
Ge3 Fe3 Ge5 . . . 92.84(9) ?
Ge3 Fe3 Ge5 . . 4_565 69.31(9) ?
Ge3 Fe3 Fe4 . . . 56.02(3) ?
Ge3 Fe3 Fe4 . . 6_555 109.79(4) ?
Ge3 Fe3 Ge4 6_555 . 2_555 75.33(3) ?
Ge3 Fe3 Fe3 6_555 . 4_565 95.15(3) ?
Ge3 Fe3 Ge5 6_555 . . 69.31(7) ?
Ge3 Fe3 Ge5 6_555 . 4_565 92.84(8) ?
Ge3 Fe3 Fe4 6_555 . . 109.79(4) ?
Ge3 Fe3 Fe4 6_555 . 6_555 56.02(3) ?
Ge4 Fe3 Fe3 2_555 . 4_565 121.86(5) ?
Ge4 Fe3 Ge5 2_555 . . 65.20(7) ?
Ge4 Fe3 Ge5 2_555 . 4_565 65.20(6) ?
Ge4 Fe3 Fe4 2_555 . . 55.06(3) ?
Ge4 Fe3 Fe4 2_555 . 6_555 55.06(3) ?
Fe3 Fe3 Ge5 4_565 . . 58.06(5) ?
Fe3 Fe3 Ge5 4_565 . 4_565 58.06(7) ?
Fe3 Fe3 Fe4 4_565 . . 151.158(18) ?
Fe3 Fe3 Fe4 4_565 . 6_555 151.16(3) ?
Ge5 Fe3 Ge5 . . 4_565 24.07(11) ?
Ge5 Fe3 Fe4 . . . 116.96(8) ?
Ge5 Fe3 Fe4 . . 6_555 105.05(5) ?
Ge5 Fe3 Fe4 4_565 . . 105.05(9) ?
Ge5 Fe3 Fe4 4_565 . 6_555 116.96(5) ?
Fe4 Fe3 Fe4 . . 6_555 55.36(3) ?
Ge3 Ge5 Ge3 4_565 . 6_555 65.48(7) ?
Ge3 Ge5 Ge3 4_565 . 8_565 60.28(9) ?
Ge3 Ge5 Ge3 4_565 . 9_555 95.12(10) ?
Ge3 Ge5 Ge4 4_565 . 2_555 131.52(6) ?
Ge3 Ge5 Ge4 4_565 . 5_565 66.57(8) ?
Ge3 Ge5 Fe2 4_565 . 4_565 47.56(6) ?
Ge3 Ge5 Fe3 4_565 . . 90.79(5) ?
Ge3 Ge5 Fe3 4_565 . 4_565 56.05(6) ?
Ge3 Ge5 Fe3 4_565 . 9_555 147.13(12) ?
Ge3 Ge5 Fe3 4_565 . 12_565 105.52(13) ?
Ge3 Ge5 Ge5 4_565 . 4_565 132.44(16) ?
Ge3 Ge5 Ge3 6_555 . 8_565 95.12(11) ?
Ge3 Ge5 Ge3 6_555 . 9_555 60.28(5) ?
Ge3 Ge5 Ge4 6_555 . 2_555 66.57(5) ?
Ge3 Ge5 Ge4 6_555 . 5_565 131.52(13) ?
Ge3 Ge5 Fe2 6_555 . 4_565 47.56(5) ?
Ge3 Ge5 Fe3 6_555 . . 56.05(3) ?
Ge3 Ge5 Fe3 6_555 . 4_565 90.79(4) ?
Ge3 Ge5 Fe3 6_555 . 9_555 105.52(7) ?
Ge3 Ge5 Fe3 6_555 . 12_565 147.13(12) ?
Ge3 Ge5 Ge5 6_555 . 4_565 132.4(2) ?
Ge3 Ge5 Ge3 8_565 . 9_555 65.48(7) ?
Ge3 Ge5 Ge4 8_565 . 2_555 131.52(6) ?
Ge3 Ge5 Ge4 8_565 . 5_565 66.57(8) ?
Ge3 Ge5 Fe2 8_565 . 4_565 47.56(6) ?
Ge3 Ge5 Fe3 8_565 . . 147.13(12) ?
Ge3 Ge5 Fe3 8_565 . 4_565 105.52(13) ?
Ge3 Ge5 Fe3 8_565 . 9_555 90.79(5) ?
Ge3 Ge5 Fe3 8_565 . 12_565 56.05(6) ?
Ge3 Ge5 Ge5 8_565 . 4_565 132.44(16) ?
Ge3 Ge5 Ge4 9_555 . 2_555 66.57(5) ?
Ge3 Ge5 Ge4 9_555 . 5_565 131.52(13) ?
Ge3 Ge5 Fe2 9_555 . 4_565 47.56(5) ?
Ge3 Ge5 Fe3 9_555 . . 105.52(7) ?
Ge3 Ge5 Fe3 9_555 . 4_565 147.13(12) ?
Ge3 Ge5 Fe3 9_555 . 9_555 56.05(3) ?
Ge3 Ge5 Fe3 9_555 . 12_565 90.79(4) ?
Ge3 Ge5 Ge5 9_555 . 4_565 132.4(2) ?
Ge4 Ge5 Ge4 2_555 . 5_565 157.33(15) ?
Ge4 Ge5 Fe2 2_555 . 4_565 101.34(5) ?
Ge4 Ge5 Fe3 2_555 . . 55.96(7) ?
Ge4 Ge5 Fe3 2_555 . 4_565 118.54(10) ?
Ge4 Ge5 Fe3 2_555 . 9_555 55.96(7) ?
Ge4 Ge5 Fe3 2_555 . 12_565 118.54(10) ?
Ge4 Ge5 Ge5 2_555 . 4_565 78.7(3) ?
Ge4 Ge5 Fe2 5_565 . 4_565 101.34(13) ?
Ge4 Ge5 Fe3 5_565 . . 118.54(4) ?
Ge4 Ge5 Fe3 5_565 . 4_565 55.96(5) ?
Ge4 Ge5 Fe3 5_565 . 9_555 118.54(4) ?
Ge4 Ge5 Fe3 5_565 . 12_565 55.96(5) ?
Ge4 Ge5 Ge5 5_565 . 4_565 78.66(19) ?
Fe2 Ge5 Fe3 4_565 . . 102.04(6) ?
Fe2 Ge5 Fe3 4_565 . 4_565 102.04(11) ?
Fe2 Ge5 Fe3 4_565 . 9_555 102.04(6) ?
Fe2 Ge5 Fe3 4_565 . 12_565 102.04(11) ?
Fe2 Ge5 Ge5 4_565 . 4_565 180 ?
Fe3 Ge5 Fe3 . . 4_565 63.88(3) ?
Fe3 Ge5 Fe3 . . 9_555 110.69(14) ?
Fe3 Ge5 Fe3 . . 12_565 155.93(16) ?
Fe3 Ge5 Ge5 . . 4_565 77.96(17) ?
Fe3 Ge5 Fe3 4_565 . 9_555 155.93(16) ?
Fe3 Ge5 Fe3 4_565 . 12_565 110.69(8) ?
Fe3 Ge5 Ge5 4_565 . 4_565 77.96(10) ?
Fe3 Ge5 Fe3 9_555 . 12_565 63.88(3) ?
Fe3 Ge5 Ge5 9_555 . 4_565 77.96(17) ?
Fe3 Ge5 Ge5 12_565 . 4_565 77.96(10) ?
As1 Fe4 Ge1 . . . 95.06(6) ?
As1 Fe4 Ge1 . . 5_555 95.06(7) ?
As1 Fe4 Fe1 . . . 143.82(7) ?
As1 Fe4 Ge3 . . . 162.22(8) ?
As1 Fe4 Ge4 . . 2_555 88.84(6) ?
As1 Fe4 Ge4 . . 6_555 88.84(6) ?
As1 Fe4 Fe3 . . . 122.795(18) ?
As1 Fe4 Fe3 . . 5_555 122.79(4) ?
As1 Fe4 Fe4 . . 5_555 60.66(3) ?
As1 Fe4 Fe4 . . 6_555 60.66(2) ?
Ge1 Fe4 Ge1 . . 5_555 67.96(4) ?
Ge1 Fe4 Fe1 . . . 56.09(3) ?
Ge1 Fe4 Ge3 . . . 99.65(5) ?
Ge1 Fe4 Ge4 . . 2_555 103.19(3) ?
Ge1 Fe4 Ge4 . . 6_555 170.56(4) ?
Ge1 Fe4 Fe3 . . . 57.57(4) ?
Ge1 Fe4 Fe3 . . 5_555 113.76(4) ?
Ge1 Fe4 Fe4 . . 5_555 116.45(5) ?
Ge1 Fe4 Fe4 . . 6_555 58.49(3) ?
Ge1 Fe4 Fe1 5_555 . . 56.09(5) ?
Ge1 Fe4 Ge3 5_555 . . 99.65(4) ?
Ge1 Fe4 Ge4 5_555 . 2_555 170.56(6) ?
Ge1 Fe4 Ge4 5_555 . 6_555 103.19(5) ?
Ge1 Fe4 Fe3 5_555 . . 113.76(5) ?
Ge1 Fe4 Fe3 5_555 . 5_555 57.57(3) ?
Ge1 Fe4 Fe4 5_555 . 5_555 58.49(5) ?
Ge1 Fe4 Fe4 5_555 . 6_555 116.45(5) ?
Fe1 Fe4 Ge3 . . . 53.95(3) ?
Fe1 Fe4 Ge4 . . 2_555 116.73(5) ?
Fe1 Fe4 Ge4 . . 6_555 116.73(3) ?
Fe1 Fe4 Fe3 . . . 63.21(4) ?
Fe1 Fe4 Fe3 . . 5_555 63.21(3) ?
Fe1 Fe4 Fe4 . . 5_555 109.69(4) ?
Fe1 Fe4 Fe4 . . 6_555 109.69(4) ?
Ge3 Fe4 Ge4 . . 2_555 78.18(4) ?
Ge3 Fe4 Ge4 . . 6_555 78.18(4) ?
Ge3 Fe4 Fe3 . . . 59.42(3) ?
Ge3 Fe4 Fe3 . . 5_555 59.42(3) ?
Ge3 Fe4 Fe4 . . 5_555 119.80(3) ?
Ge3 Fe4 Fe4 . . 6_555 119.80(4) ?
Ge4 Fe4 Ge4 2_555 . 6_555 85.45(4) ?
Ge4 Fe4 Fe3 2_555 . . 57.16(4) ?
Ge4 Fe4 Fe3 2_555 . 5_555 126.72(4) ?
Ge4 Fe4 Fe4 2_555 . 5_555 130.58(5) ?
Ge4 Fe4 Fe4 2_555 . 6_555 58.36(3) ?
Ge4 Fe4 Fe3 6_555 . . 126.72(5) ?
Ge4 Fe4 Fe3 6_555 . 5_555 57.16(3) ?
Ge4 Fe4 Fe4 6_555 . 5_555 58.36(4) ?
Ge4 Fe4 Fe4 6_555 . 6_555 130.58(5) ?
Fe3 Fe4 Fe3 . . 5_555 114.34(4) ?
Fe3 Fe4 Fe4 . . 5_555 172.26(5) ?
Fe3 Fe4 Fe4 . . 6_555 62.32(2) ?
Fe3 Fe4 Fe4 5_555 . 5_555 62.32(3) ?
Fe3 Fe4 Fe4 5_555 . 6_555 172.26(5) ?
Fe4 Fe4 Fe4 5_555 . 6_555 120.00(4) ?
As1 Fe5 As1 . . 7_556 180 ?
As1 Fe5 Ge1 . . . 90 ?
As1 Fe5 Ge1 . . 2_555 90 ?
As1 Fe5 Ge1 . . 3_555 90 ?
As1 Fe5 Ge1 . . 4_555 90 ?
As1 Fe5 Ge1 . . 5_555 90 ?
As1 Fe5 Ge1 . . 6_555 90 ?
As1 Fe5 Ge1 7_556 . . 90 ?
As1 Fe5 Ge1 7_556 . 2_555 90 ?
As1 Fe5 Ge1 7_556 . 3_555 90 ?
As1 Fe5 Ge1 7_556 . 4_555 90 ?
As1 Fe5 Ge1 7_556 . 5_555 90 ?
As1 Fe5 Ge1 7_556 . 6_555 90 ?
Ge1 Fe5 Ge1 . . 2_555 120.00(4) ?
Ge1 Fe5 Ge1 . . 3_555 120.0000(4) ?
Ge1 Fe5 Ge1 . . 4_555 180 ?
Ge1 Fe5 Ge1 . . 5_555 60.00(4) ?
Ge1 Fe5 Ge1 . . 6_555 60.0000(4) ?
Ge1 Fe5 Ge1 2_555 . 3_555 120.00(4) ?
Ge1 Fe5 Ge1 2_555 . 4_555 60.00(4) ?
Ge1 Fe5 Ge1 2_555 . 5_555 180 ?
Ge1 Fe5 Ge1 2_555 . 6_555 60.00(4) ?
Ge1 Fe5 Ge1 3_555 . 4_555 60.0000(4) ?
Ge1 Fe5 Ge1 3_555 . 5_555 60.00(4) ?
Ge1 Fe5 Ge1 3_555 . 6_555 180 ?
Ge1 Fe5 Ge1 4_555 . 5_555 120.00(4) ?
Ge1 Fe5 Ge1 4_555 . 6_555 120.0000(4) ?
Ge1 Fe5 Ge1 5_555 . 6_555 120.00(4) ?
loop_
_geom_bond_atom_site_label_1
_geom_bond_atom_site_label_2
_geom_bond_site_symmetry_1
_geom_bond_site_symmetry_2
_geom_bond_distance
_geom_bond_publ_flag
As1 As1 . 7_555 2.479(4) ?
As1 Fe4 . . 2.5960(10) ?
As1 Fe4 . 2_555 2.5960(10) ?
As1 Fe4 . 3_555 2.5960(11) ?
As1 Fe4 . 4_555 2.5960(10) ?
As1 Fe4 . 5_555 2.5960(10) ?
As1 Fe4 . 6_555 2.5960(11) ?
As1 Fe5 . . 2.525(3) ?
Ge1 Ge1 . 5_555 2.7210(18) ?
Ge1 Ge1 . 6_555 2.7210(10) ?
Ge1 Fe1 . . 2.4367(10) ?
Ge1 Fe1 . 6_555 2.4367(17) ?
Ge1 Fe3 . . 2.5050(14) ?
Ge1 Fe3 . 9_556 2.5050(14) ?
Ge1 Fe4 . . 2.4343(9) ?
Ge1 Fe4 . 6_555 2.4343(9) ?
Ge1 Fe4 . 9_556 2.4343(9) ?
Ge1 Fe4 . 11_556 2.4343(11) ?
Ge1 Fe5 . . 2.7210(14) ?
Fe1 Ge2 . . 2.3041(9) ?
Fe1 Ge2 . 3_565 2.3041(19) ?
Fe1 Ge3 . . 2.3818(11) ?
Fe1 Ge3 . 11_556 2.3818(11) ?
Fe1 Fe3 . . 2.8609(9) ?
Fe1 Fe3 . 5_555 2.8609(13) ?
Fe1 Fe3 . 9_556 2.8609(9) ?
Fe1 Fe3 . 11_556 2.8609(13) ?
Fe1 Fe4 . . 2.7206(12) ?
Fe1 Fe4 . 11_556 2.7206(12) ?
Ge2 Ge2 . 4_665 2.8197(15) ?
Ge2 Fe3 . 2_665 2.5626(11) ?
Ge2 Fe3 . 5_555 2.5626(11) ?
Ge2 Fe3 . 8_666 2.5626(11) ?
Ge2 Fe3 . 11_556 2.5626(11) ?
Ge3 Ge3 . 11_555 2.9561(14) ?
Ge3 Fe2 . . 2.3589(10) ?
Ge3 Fe3 . . 2.6105(6) ?
Ge3 Fe3 . 5_555 2.6105(14) ?
Ge3 Ge5 . 4_565 2.944(4) ?
Ge3 Ge5 . 5_555 2.944(2) ?
Ge3 Fe4 . . 2.5144(13) ?
Ge4 Fe3 . 3_555 2.4852(11) ?
Ge4 Fe3 . 7_555 2.4852(11) ?
Ge4 Ge5 . 3_555 2.722(5) ?
Ge4 Ge5 . 6_655 2.722(5) ?
Ge4 Fe4 . 3_555 2.4250(11) ?
Ge4 Fe4 . 5_555 2.4250(13) ?
Ge4 Fe4 . 7_555 2.4250(11) ?
Ge4 Fe4 . 12_555 2.4250(10) ?
Fe2 Ge5 . 4_565 2.906(4) ?
Fe2 Ge5 . 5_555 2.906(4) ?
Fe2 Ge5 . 6_665 2.906(4) ?
Fe3 Fe3 . 4_565 2.7153(11) ?
Fe3 Ge5 . . 2.566(2) ?
Fe3 Ge5 . 4_565 2.5662(14) ?
Fe3 Fe4 . . 2.7384(12) ?
Fe3 Fe4 . 6_555 2.7384(8) ?
Ge5 Ge5 . 4_565 1.070(5) ?
Fe4 Fe4 . 5_555 2.5444(15) ?
Fe4 Fe4 . 6_555 2.5444(10) ?
loop_
_geom_hbond_atom_site_label_D
_geom_hbond_atom_site_label_H
_geom_hbond_atom_site_label_A
_geom_hbond_site_symmetry_D
_geom_hbond_site_symmetry_H
_geom_hbond_site_symmetry_A
_geom_hbond_distance_DH
_geom_hbond_distance_HA
_geom_hbond_distance_DA
_geom_hbond_angle_DHA
_geom_hbond_publ_flag
? ? ? ? ? ? ? ? ? ? ?
loop_
_geom_torsion_atom_site_label_1
_geom_torsion_atom_site_label_2
_geom_torsion_atom_site_label_3
_geom_torsion_atom_site_label_4
_geom_torsion_site_symmetry_1
_geom_torsion_site_symmetry_2
_geom_torsion_site_symmetry_3
_geom_torsion_site_symmetry_4
_geom_torsion
_geom_torsion_publ_flag
? ? ? ? ? ? ? ? ? ?
loop_
_pd_proc_point_id
_pd_proc_2theta_corrected
_pd_proc_d_spacing
_pd_proc_intensity_net
_pd_calc_intensity_net
_pd_proc_ls_weight
1 6.0100 14.766390 4333.00 3888.65 324.00
2 6.0600 14.644668 4195.00 3881.50 318.00
3 6.1100 14.524939 3852.00 3874.35 303.00
4 6.1600 14.407153 4184.00 3867.20 315.00
5 6.2100 14.291265 4363.00 3860.06 320.00
6 6.2600 14.177230 4055.00 3852.92 307.00
7 6.3100 14.065003 3942.00 3845.78 302.00
8 6.3600 13.954541 3916.00 3838.65 300.00
9 6.4100 13.845804 3877.00 3831.52 297.00
10 6.4600 13.738751 3948.00 3824.40 298.00
11 6.5100 13.633343 3830.00 3817.28 293.00
12 6.5600 13.529543 3993.00 3810.17 298.00
13 6.6100 13.427312 4033.00 3803.06 298.00
14 6.6600 13.326619 3898.00 3795.96 292.00
15 6.7100 13.227427 3855.00 3788.87 289.00
16 6.7600 13.129704 3904.00 3781.78 290.00
17 6.8100 13.033417 3732.00 3774.70 282.00
18 6.8600 12.938532 3763.00 3767.63 282.00
19 6.9100 12.845023 3808.00 3760.56 283.00
20 6.9600 12.752857 3669.00 3753.50 276.00
21 7.0100 12.662007 3729.00 3746.46 277.00
22 7.0600 12.572447 3884.00 3739.42 282.00
23 7.1100 12.484144 3594.00 3732.39 270.00
24 7.1600 12.397078 3611.00 3725.37 270.00
25 7.2100 12.311218 3485.00 3718.36 264.00
26 7.2600 12.226542 3567.00 3711.35 266.00
27 7.3100 12.143026 3543.00 3704.36 264.00
28 7.3600 12.060645 3571.00 3697.38 264.00
29 7.4100 11.979376 3660.00 3690.42 267.00
30 7.4600 11.899199 3769.00 3683.46 269.00
31 7.5100 11.820087 3466.00 3676.51 257.00
32 7.5600 11.742024 3720.00 3669.58 266.00
33 7.6100 11.664989 3754.00 3662.66 266.00
34 7.6600 11.588959 3635.00 3655.75 261.00
35 7.7100 11.513915 3539.00 3648.85 256.00
36 7.7600 11.439840 3488.00 3641.97 253.00
37 7.8100 11.366714 3705.00 3635.10 260.00
38 7.8600 11.294519 3897.00 3628.24 266.00
39 7.9100 11.223238 3700.00 3621.41 258.00
40 7.9600 11.152852 3407.00 3614.61 247.00
41 8.0100 11.083345 3564.00 3607.94 252.00
42 8.0600 11.014703 3514.00 3601.61 249.00
43 8.1100 10.946908 3538.00 3596.32 249.00
44 8.1600 10.879944 3652.00 3593.63 252.00
45 8.2100 10.813796 3923.00 3596.78 260.00
46 8.2600 10.748448 3686.00 3611.15 251.00
47 8.3100 10.683888 3591.00 3643.85 247.00
48 8.3600 10.620104 3852.00 3701.21 255.00
49 8.4100 10.557076 3953.00 3784.15 257.00
50 8.4600 10.494794 4206.00 3883.34 265.00
51 8.5100 10.433245 4266.00 3978.06 266.00
52 8.5600 10.372416 4550.00 4041.66 273.00
53 8.6100 10.312293 4504.00 4052.72 271.00
54 8.6600 10.252867 4422.00 4005.52 268.00
55 8.7100 10.194121 3982.00 3913.00 253.00
56 8.7600 10.136048 3567.00 3800.17 239.00
57 8.8100 10.078634 3623.00 3692.39 240.00
58 8.8600 10.021871 3484.00 3606.06 234.00
59 8.9100 9.965743 3275.00 3545.93 226.00
60 8.9600 9.910244 3171.00 3508.27 222.00
61 9.0100 9.855360 3268.00 3485.99 224.00
62 9.0600 9.801083 3217.00 3472.49 222.00
63 9.1100 9.747402 3183.00 3463.29 220.00
64 9.1600 9.694308 3196.00 3455.91 220.00
65 9.2100 9.641792 3312.00 3449.21 223.00
66 9.2600 9.589843 3338.00 3442.75 223.00
67 9.3100 9.538451 3426.00 3436.37 225.00
68 9.3600 9.487612 3427.00 3430.02 224.00
69 9.4100 9.437312 3415.00 3423.70 223.00
70 9.4600 9.387544 3000.00 3417.40 209.00
71 9.5100 9.338300 3092.00 3411.12 211.00
72 9.5600 9.289572 3434.00 3404.85 222.00
73 9.6100 9.241352 3391.00 3398.61 220.00
74 9.6600 9.193631 3438.00 3392.40 220.00
75 9.7100 9.146402 3391.00 3386.20 218.00
76 9.7600 9.099658 3148.00 3380.02 210.00
77 9.8100 9.053391 3368.00 3373.87 216.00
78 9.8600 9.007594 3305.00 3367.73 213.00
79 9.9100 8.962259 3476.00 3361.62 218.00
80 9.9600 8.917381 3264.00 3355.53 211.00
81 10.0100 8.872951 3119.00 3349.46 205.00
82 10.0600 8.828963 3383.00 3343.42 213.00
83 10.1100 8.785412 3437.00 3337.39 214.00
84 10.1600 8.742289 3399.00 3331.39 212.00
85 10.2100 8.699589 3704.00 3325.42 221.00
86 10.2600 8.657306 4430.00 3319.46 241.00
87 10.3100 8.615433 4549.00 3313.53 243.00
88 10.3600 8.573966 4781.00 3307.62 249.00
89 10.4100 8.532897 4720.00 3301.73 246.00
90 10.4600 8.492221 5001.00 3295.87 253.00
91 10.5100 8.451933 4482.00 3290.03 238.00
92 10.5600 8.412026 3899.00 3284.21 222.00
93 10.6100 8.372498 3802.00 3278.42 218.00
94 10.6600 8.333340 3242.00 3272.65 201.00
95 10.7100 8.294547 3176.00 3266.90 198.00
96 10.7600 8.256116 3177.00 3261.18 198.00
97 10.8100 8.218041 2975.00 3255.48 191.00
98 10.8600 8.180318 2997.00 3249.81 191.00
99 10.9100 8.142941 2972.00 3244.16 189.00
100 10.9600 8.105905 3146.00 3238.53 194.00
101 11.0100 8.069205 3140.00 3232.93 193.00
102 11.0600 8.032839 3161.00 3227.36 193.00
103 11.1100 7.996800 3127.00 3221.84 192.00
104 11.1600 7.961085 3071.00 3216.44 190.00
105 11.2100 7.925688 3258.00 3211.48 195.00
106 11.2600 7.890607 3139.00 3207.92 190.00
107 11.3100 7.855836 3185.00 3208.52 191.00
108 11.3600 7.821373 3101.00 3219.90 188.00
109 11.4100 7.787210 3180.00 3255.68 190.00
110 11.4600 7.753347 3366.00 3338.92 195.00
111 11.5100 7.719779 3518.00 3500.43 199.00
112 11.5600 7.686502 3835.00 3768.14 207.00
113 11.6100 7.653512 4304.00 4146.94 219.00
114 11.6600 7.620805 4469.00 4597.38 222.00
115 11.7100 7.588378 4985.00 5029.85 234.00
116 11.7600 7.556227 5168.00 5328.46 237.00
117 11.8100 7.524348 4940.00 5399.62 231.00
118 11.8600 7.492740 4617.00 5218.36 223.00
119 11.9100 7.461397 4330.00 4841.41 215.00
120 11.9600 7.430316 3926.00 4377.89 204.00
121 12.0100 7.399495 3468.00 3937.91 192.00
122 12.0600 7.368929 3437.00 3591.82 190.00
123 12.1100 7.338617 3108.00 3359.15 180.00
124 12.1600 7.308555 3109.00 3222.82 180.00
125 12.2100 7.278739 3089.00 3151.80 179.00
126 12.2600 7.249166 2990.00 3117.73 175.00
127 12.3100 7.219835 2834.00 3101.50 170.00
128 12.3600 7.190742 2827.00 3092.73 169.00
129 12.4100 7.161882 2937.00 3086.67 172.00
130 12.4600 7.133255 3070.00 3081.49 176.00
131 12.5100 7.104858 2945.00 3076.58 172.00
132 12.5600 7.076686 2835.00 3071.75 168.00
133 12.6100 7.048740 2758.00 3066.96 165.00
134 12.6600 7.021014 2802.00 3062.19 166.00
135 12.7100 6.993506 2748.00 3057.46 164.00
136 12.7600 6.966215 2695.00 3052.75 162.00
137 12.8100 6.939137 2921.00 3048.07 168.00
138 12.8600 6.912271 2799.00 3043.41 164.00
139 12.9100 6.885612 2844.00 3038.78 165.00
140 12.9600 6.859160 3002.00 3034.17 169.00
141 13.0100 6.832911 2851.00 3029.60 164.00
142 13.0600 6.806864 2795.00 3025.04 162.00
143 13.1100 6.781017 2868.00 3020.52 164.00
144 13.1600 6.755366 2978.00 3016.02 166.00
145 13.2100 6.729909 3091.00 3011.55 169.00
146 13.2600 6.704645 2792.00 3007.10 160.00
147 13.3100 6.679572 2916.00 3002.68 163.00
148 13.3600 6.654686 2963.00 2998.29 164.00
149 13.4100 6.629986 2877.00 2993.92 161.00
150 13.4600 6.605471 2742.00 2989.58 157.00
151 13.5100 6.581137 2924.00 2985.27 162.00
152 13.5600 6.556983 2840.00 2980.98 159.00
153 13.6100 6.533007 3074.00 2976.72 165.00
154 13.6600 6.509207 2954.00 2972.48 161.00
155 13.7100 6.485580 2975.00 2968.27 161.00
156 13.7600 6.462126 2828.00 2964.09 157.00
157 13.8100 6.438842 2789.00 2959.93 155.00
158 13.8600 6.415727 2768.00 2955.80 154.00
159 13.9100 6.392778 2877.00 2951.70 157.00
160 13.9600 6.369994 2766.00 2947.63 154.00
161 14.0100 6.347373 2732.00 2943.59 152.00
162 14.0600 6.324914 2678.00 2939.63 150.00
163 14.1100 6.302614 2832.00 2935.84 154.00
164 14.1600 6.280471 2709.00 2932.50 150.00
165 14.2100 6.258485 2781.00 2930.20 152.00
166 14.2600 6.236654 2935.00 2930.13 156.00
167 14.3100 6.214975 3010.00 2934.39 157.00
168 14.3600 6.193449 2827.00 2946.38 152.00
169 14.4100 6.172071 2945.00 2972.11 155.00
170 14.4600 6.150842 3090.00 3023.75 158.00
171 14.5100 6.129760 3080.00 3127.18 158.00
172 14.5600 6.108822 3515.00 3332.62 168.00
173 14.6100 6.088029 3865.00 3720.49 176.00
174 14.6600 6.067378 4422.00 4387.18 187.00
175 14.7100 6.046867 5588.00 5397.10 210.00
176 14.7600 6.026496 7107.00 6710.21 237.00
177 14.8100 6.006263 8818.00 8127.70 263.00
178 14.8600 5.986166 9970.00 9314.00 279.00
179 14.9100 5.966205 10683.00 9917.69 288.00
180 14.9600 5.946377 9724.00 9736.93 274.00
181 15.0100 5.926682 8375.00 8825.64 254.00
182 15.0600 5.907118 6843.00 7465.12 229.00
183 15.1100 5.887684 5442.00 6021.95 203.00
184 15.1600 5.868378 4236.00 4789.71 179.00
185 15.2100 5.849200 3548.00 3904.83 163.00
186 15.2600 5.830148 3012.00 3359.05 150.00
187 15.3100 5.811220 2829.00 3066.14 145.00
188 15.3600 5.792416 2905.00 2927.79 147.00
189 15.4100 5.773735 2771.00 2869.25 143.00
190 15.4600 5.755174 2832.00 2846.07 144.00
191 15.5100 5.736734 2706.00 2836.49 140.00
192 15.5600 5.718413 2725.00 2831.47 141.00
193 15.6100 5.700209 2774.00 2827.80 141.00
194 15.6600 5.682123 2881.00 2824.51 144.00
195 15.7100 5.664151 2866.00 2821.32 143.00
196 15.7600 5.646294 2832.00 2818.16 142.00
197 15.8100 5.628550 2887.00 2815.04 143.00
198 15.8600 5.610919 2732.00 2811.94 139.00
199 15.9100 5.593398 3191.00 2808.87 150.00
200 15.9600 5.575987 3407.00 2805.82 154.00
201 16.0100 5.558687 3625.00 2802.79 159.00
202 16.0600 5.541494 3532.00 2799.79 156.00
203 16.1100 5.524407 3316.00 2796.82 151.00
204 16.1600 5.507428 3312.00 2793.87 150.00
205 16.2100 5.490553 3198.00 2790.94 148.00
206 16.2600 5.473782 2942.00 2788.04 141.00
207 16.3100 5.457115 2818.00 2785.17 138.00
208 16.3600 5.440549 2880.00 2782.31 139.00
209 16.4100 5.424086 2772.00 2779.49 136.00
210 16.4600 5.407722 2800.00 2776.68 136.00
211 16.5100 5.391458 2680.00 2773.91 133.00
212 16.5600 5.375292 2687.00 2771.17 133.00
213 16.6100 5.359224 2686.00 2768.54 133.00
214 16.6600 5.343253 2615.00 2766.24 131.00
215 16.7100 5.327378 2603.00 2765.05 130.00
216 16.7600 5.311598 2666.00 2767.20 131.00
217 16.8100 5.295912 2854.00 2778.17 135.00
218 16.8600 5.280319 2779.00 2809.46 133.00
219 16.9100 5.264819 2976.00 2880.96 138.00
220 16.9600 5.249411 2940.00 3019.75 136.00
221 17.0100 5.234093 3275.00 3251.20 144.00
222 17.0600 5.218866 3480.00 3581.09 148.00
223 17.1100 5.203728 3937.00 3976.11 157.00
224 17.1600 5.188679 4332.00 4357.93 164.00
225 17.2100 5.173717 4723.00 4623.69 171.00
226 17.2600 5.158843 4687.00 4689.63 170.00
227 17.3100 5.144054 4546.00 4533.04 167.00
228 17.3600 5.129351 3933.00 4204.39 155.00
229 17.4100 5.114734 3461.00 3800.77 145.00
230 17.4600 5.100200 3285.00 3419.66 141.00
231 17.5100 5.085749 3024.00 3122.42 135.00
232 17.5600 5.071381 2775.00 2925.01 129.00
233 17.6100 5.057095 2685.00 2811.42 127.00
234 17.6600 5.042890 2698.00 2753.92 127.00
235 17.7100 5.028766 2683.00 2727.70 126.00
236 17.7600 5.014721 2705.00 2716.34 126.00
237 17.8100 5.000756 2672.00 2711.09 125.00
238 17.8600 4.986869 2762.00 2708.03 127.00
239 17.9100 4.973060 2752.00 2705.66 126.00
240 17.9600 4.959329 2895.00 2703.49 129.00
241 18.0100 4.945673 3014.00 2701.39 132.00
242 18.0600 4.932094 3074.00 2699.32 133.00
243 18.1100 4.918590 3282.00 2697.27 137.00
244 18.1600 4.905160 3253.00 2695.25 136.00
245 18.2100 4.891806 3332.00 2693.25 137.00
246 18.2600 4.878523 3384.00 2691.27 138.00
247 18.3100 4.865315 3252.00 2689.31 135.00
248 18.3600 4.852178 3046.00 2687.39 130.00
249 18.4100 4.839113 2953.00 2685.54 128.00
250 18.4600 4.826119 2729.00 2683.98 123.00
251 18.5100 4.813196 2510.00 2683.35 117.00
252 18.5600 4.800343 2821.00 2685.74 124.00
253 18.6100 4.787559 2798.00 2696.56 123.00
254 18.6600 4.774843 2642.00 2727.95 120.00
255 18.7100 4.762197 2862.00 2802.65 124.00
256 18.7600 4.749617 3047.00 2954.90 128.00
257 18.8100 4.737105 3379.00 3222.81 135.00
258 18.8600 4.724659 4031.00 3627.83 147.00
259 18.9100 4.712280 4659.00 4146.81 157.00
260 18.9600 4.699966 5393.00 4693.75 169.00
261 19.0100 4.687717 5846.00 5133.86 176.00
262 19.0600 4.675533 5894.00 5334.54 176.00
263 19.1100 4.663413 5444.00 5229.11 169.00
264 19.1600 4.651357 5065.00 4852.20 162.00
265 19.2100 4.639364 4327.00 4321.13 150.00
266 19.2600 4.627432 3590.00 3777.08 136.00
267 19.3100 4.615564 3165.00 3325.60 127.00
268 19.3600 4.603756 2832.00 3009.88 120.00
269 19.4100 4.592010 2695.00 2820.07 117.00
270 19.4600 4.580326 2620.00 2720.71 115.00
271 19.5100 4.568700 2753.00 2674.84 118.00
272 19.5600 4.557135 2810.00 2655.73 119.00
273 19.6100 4.545628 2789.00 2648.12 118.00
274 19.6600 4.534181 2760.00 2644.80 117.00
275 19.7100 4.522792 2567.00 2642.88 113.00
276 19.7600 4.511461 2589.00 2641.38 113.00
277 19.8100 4.500187 2758.00 2639.99 116.00
278 19.8600 4.488971 2735.00 2638.64 116.00
279 19.9100 4.477811 2651.00 2637.31 114.00
280 19.9600 4.466707 2714.00 2636.00 115.00
281 20.0100 4.455659 2555.00 2634.71 111.00
282 20.0600 4.444667 2590.00 2633.44 112.00
283 20.1100 4.433729 2474.00 2632.19 109.00
284 20.1600 4.422846 2496.00 2630.95 109.00
285 20.2100 4.412017 2498.00 2629.73 109.00
286 20.2600 4.401242 2628.00 2628.53 111.00
287 20.3100 4.390520 2584.00 2627.35 110.00
288 20.3600 4.379851 2629.00 2626.19 111.00
289 20.4100 4.369235 2683.00 2625.05 112.00
290 20.4600 4.358671 2504.00 2623.95 108.00
291 20.5100 4.348158 2518.00 2622.92 108.00
292 20.5600 4.337697 2480.00 2622.04 107.00
293 20.6100 4.327287 2533.00 2621.44 108.00
294 20.6600 4.316927 2439.00 2621.31 106.00
295 20.7100 4.306619 2531.00 2621.81 107.00
296 20.7600 4.296359 2685.00 2623.01 110.00
297 20.8100 4.286150 2622.00 2624.69 109.00
298 20.8600 4.275990 2547.00 2626.31 107.00
299 20.9100 4.265878 2604.00 2627.19 108.00
300 20.9600 4.255816 2553.00 2626.73 107.00
301 21.0100 4.245800 2722.00 2624.77 110.00
302 21.0600 4.235834 2634.00 2621.64 108.00
303 21.1100 4.225914 2480.00 2618.00 104.00
304 21.1600 4.216042 2697.00 2614.53 109.00
305 21.2100 4.206217 2713.00 2611.64 109.00
306 21.2600 4.196437 2807.00 2609.44 111.00
307 21.3100 4.186705 2605.00 2607.84 106.00
308 21.3600 4.177018 2647.00 2606.63 107.00
309 21.4100 4.167377 2630.00 2605.64 106.00
310 21.4600 4.157781 2752.00 2604.77 109.00
311 21.5100 4.148229 2680.00 2603.96 107.00
312 21.5600 4.138722 2486.00 2603.18 103.00
313 21.6100 4.129259 2454.00 2602.41 102.00
314 21.6600 4.119841 2531.00 2601.66 103.00
315 21.7100 4.110466 2572.00 2600.93 104.00
316 21.7600 4.101134 2549.00 2600.21 103.00
317 21.8100 4.091846 2471.00 2599.50 101.00
318 21.8600 4.082600 2372.00 2598.81 99.00
319 21.9100 4.073397 2588.00 2598.14 103.00
320 21.9600 4.064236 2591.00 2597.48 103.00
321 22.0100 4.055116 2468.00 2596.83 100.00
322 22.0600 4.046039 2533.00 2596.19 102.00
323 22.1100 4.037002 2527.00 2595.57 101.00
324 22.1600 4.028007 2566.00 2594.97 102.00
325 22.2100 4.019053 2531.00 2594.38 101.00
326 22.2600 4.010138 2673.00 2593.82 104.00
327 22.3100 4.001265 2627.00 2593.35 102.00
328 22.3600 3.992430 2682.00 2593.14 103.00
329 22.4100 3.983636 2463.00 2593.66 99.00
330 22.4600 3.974882 2512.00 2596.09 100.00
331 22.5100 3.966166 2506.00 2602.77 99.00
332 22.5600 3.957489 2387.00 2617.58 97.00
333 22.6100 3.948851 2450.00 2645.49 98.00
334 22.6600 3.940251 2520.00 2690.50 99.00
335 22.7100 3.931690 2750.00 2752.19 103.00
336 22.7600 3.923166 2871.00 2822.52 105.00
337 22.8100 3.914680 2700.00 2885.85 102.00
338 22.8600 3.906230 2796.00 2923.93 103.00
339 22.9100 3.897819 2691.00 2924.28 101.00
340 22.9600 3.889444 2763.00 2886.62 102.00
341 23.0100 3.881106 2847.00 2823.10 104.00
342 23.0600 3.872805 2751.00 2751.90 102.00
343 23.1100 3.864539 2595.00 2688.97 99.00
344 23.1600 3.856309 2641.00 2642.87 99.00
345 23.2100 3.848116 2545.00 2614.99 97.00
346 23.2600 3.839957 2561.00 2603.44 97.00
347 23.3100 3.831834 2593.00 2607.97 98.00
348 23.3600 3.823746 2659.00 2633.95 99.00
349 23.4100 3.815693 2794.00 2693.94 101.00
350 23.4600 3.807674 2921.00 2804.92 103.00
351 23.5100 3.799689 3110.00 2979.57 106.00
352 23.5600 3.791739 3549.00 3212.82 113.00
353 23.6100 3.783822 3821.00 3470.87 118.00
354 23.6600 3.775940 3916.00 3693.66 119.00
355 23.7100 3.768091 4178.00 3815.68 122.00
356 23.7600 3.760275 4113.00 3796.74 121.00
357 23.8100 3.752492 3839.00 3643.18 117.00
358 23.8600 3.744742 3551.00 3404.40 112.00
359 23.9100 3.737025 3096.00 3147.34 105.00
360 23.9600 3.729340 2833.00 2926.61 100.00
361 24.0100 3.721687 2612.00 2768.11 96.00
362 24.0600 3.714067 2553.00 2670.83 94.00
363 24.1100 3.706478 2510.00 2619.17 93.00
364 24.1600 3.698921 2579.00 2595.24 94.00
365 24.2100 3.691396 2473.00 2585.50 92.00
366 24.2600 3.683901 2455.00 2581.97 92.00
367 24.3100 3.676438 2558.00 2580.80 94.00
368 24.3600 3.669005 2519.00 2580.40 93.00
369 24.4100 3.661604 2392.00 2580.24 90.00
370 24.4600 3.654233 2377.00 2580.13 90.00
371 24.5100 3.646892 2534.00 2580.06 92.00
372 24.5600 3.639581 2514.00 2580.00 92.00
373 24.6100 3.632300 2565.00 2579.97 93.00
374 24.6600 3.625049 2561.00 2580.10 92.00
375 24.7100 3.617828 2714.00 2580.76 95.00
376 24.7600 3.610636 2804.00 2583.22 96.00
377 24.8100 3.603473 2757.00 2591.07 95.00
378 24.8600 3.596339 2846.00 2612.81 97.00
379 24.9100 3.589234 2852.00 2665.54 97.00
380 24.9600 3.582158 3106.00 2777.24 101.00
381 25.0100 3.575110 3186.00 2982.92 102.00
382 25.0600 3.568091 3552.00 3309.70 107.00
383 25.1100 3.561099 4196.00 3751.78 116.00
384 25.1600 3.554136 4730.00 4248.71 123.00
385 25.2100 3.547201 5233.00 4687.53 130.00
386 25.2600 3.540293 5540.00 4940.92 133.00
387 25.3100 3.533413 5363.00 4926.90 131.00
388 25.3600 3.526561 4981.00 4653.49 126.00
389 25.4100 3.519735 4293.00 4217.50 116.00
390 25.4600 3.512937 3717.00 3759.40 108.00
391 25.5100 3.506165 3260.00 3405.82 101.00
392 25.5600 3.499420 3063.00 3232.13 98.00
393 25.6100 3.492702 3179.00 3253.47 99.00
394 25.6600 3.486010 3387.00 3432.20 102.00
395 25.7100 3.479344 3598.00 3690.52 105.00
396 25.7600 3.472704 3859.00 3929.06 109.00
397 25.8100 3.466091 4063.00 4056.24 112.00
398 25.8600 3.459503 4045.00 4021.50 111.00
399 25.9100 3.452941 3678.00 3834.01 106.00
400 25.9600 3.446404 3301.00 3552.96 100.00
401 26.0100 3.439893 2941.00 3254.98 94.00
402 26.0600 3.433407 2812.00 3000.36 92.00
403 26.1100 3.426946 2728.00 2816.44 90.00
404 26.1600 3.420510 2558.00 2701.20 87.00
405 26.2100 3.414098 2535.00 2637.47 87.00
406 26.2600 3.407712 2530.00 2605.93 86.00
407 26.3100 3.401349 2582.00 2591.81 87.00
408 26.3600 3.395011 2521.00 2586.08 86.00
409 26.4100 3.388698 2646.00 2584.01 88.00
410 26.4600 3.382409 2720.00 2583.41 89.00
411 26.5100 3.376143 2961.00 2583.35 93.00
412 26.5600 3.369901 3105.00 2583.48 95.00
413 26.6100 3.363683 3191.00 2583.68 96.00
414 26.6600 3.357488 3427.00 2583.89 99.00
415 26.7100 3.351317 3428.00 2584.11 99.00
416 26.7600 3.345169 3302.00 2584.34 97.00
417 26.8100 3.339045 3157.00 2584.58 95.00
418 26.8600 3.332943 2848.00 2584.82 90.00
419 26.9100 3.326864 2664.00 2585.06 87.00
420 26.9600 3.320808 2664.00 2585.31 87.00
421 27.0100 3.314775 2646.00 2585.56 86.00
422 27.0600 3.308764 2360.00 2585.82 81.00
423 27.1100 3.302775 2354.00 2586.08 81.00
424 27.1600 3.296809 2508.00 2586.34 83.00
425 27.2100 3.290865 2457.00 2586.61 82.00
426 27.2600 3.284943 2388.00 2586.89 81.00
427 27.3100 3.279042 2507.00 2587.16 83.00
428 27.3600 3.273164 2397.00 2587.44 81.00
429 27.4100 3.267307 2432.00 2587.73 81.00
430 27.4600 3.261472 2491.00 2588.02 82.00
431 27.5100 3.255658 2398.00 2588.35 80.00
432 27.5600 3.249866 2524.00 2588.78 82.00
433 27.6100 3.244094 2553.00 2589.59 83.00
434 27.6600 3.238344 2446.00 2591.60 81.00
435 27.7100 3.232615 2427.00 2596.86 80.00
436 27.7600 3.226907 2537.00 2609.80 82.00
437 27.8100 3.221219 2630.00 2638.27 83.00
438 27.8600 3.215552 2609.00 2693.23 83.00
439 27.9100 3.209905 2661.00 2785.26 84.00
440 27.9600 3.204280 2809.00 2917.34 86.00
441 28.0100 3.198673 2988.00 3076.67 88.00
442 28.0600 3.193088 3184.00 3232.49 91.00
443 28.1100 3.187522 3307.00 3346.01 93.00
444 28.1600 3.181977 3375.00 3392.46 93.00
445 28.2100 3.176451 3301.00 3386.32 92.00
446 28.2600 3.170945 3335.00 3397.33 92.00
447 28.3100 3.165459 3547.00 3547.95 95.00
448 28.3600 3.159992 3977.00 3986.41 101.00
449 28.4100 3.154545 4782.00 4831.04 110.00
450 28.4600 3.149117 6322.00 6091.44 127.00
451 28.5100 3.143708 8139.00 7599.59 143.00
452 28.5600 3.138319 9940.00 9008.73 158.00
453 28.6100 3.132948 10545.00 9902.36 163.00
454 28.6600 3.127597 10369.00 9980.18 161.00
455 28.7100 3.122264 9679.00 9211.42 155.00
456 28.7600 3.116950 8061.00 7848.83 142.00
457 28.8100 3.111655 6070.00 6292.47 123.00
458 28.8600 3.106378 4514.00 4901.58 105.00
459 28.9100 3.101119 3631.00 3870.96 94.00
460 28.9600 3.095880 2937.00 3221.74 85.00
461 29.0100 3.090658 2593.00 2869.85 79.00
462 29.0600 3.085454 2658.00 2705.62 80.00
463 29.1100 3.080269 2653.00 2642.13 80.00
464 29.1600 3.075101 2563.00 2627.93 78.00
465 29.2100 3.069952 2532.00 2639.53 78.00
466 29.2600 3.064820 2622.00 2668.51 79.00
467 29.3100 3.059706 2754.00 2710.73 81.00
468 29.3600 3.054609 2728.00 2759.52 80.00
469 29.4100 3.049531 2751.00 2803.76 81.00
470 29.4600 3.044469 2796.00 2830.70 81.00
471 29.5100 3.039425 2771.00 2831.61 81.00
472 29.5600 3.034398 2768.00 2806.31 80.00
473 29.6100 3.029388 2605.00 2763.32 78.00
474 29.6600 3.024396 2581.00 2715.38 77.00
475 29.7100 3.019420 2559.00 2673.73 77.00
476 29.7600 3.014462 2582.00 2644.49 77.00
477 29.8100 3.009520 2478.00 2628.76 75.00
478 29.8600 3.004595 2563.00 2624.55 77.00
479 29.9100 2.999686 2519.00 2628.85 76.00
480 29.9600 2.994794 2532.00 2638.38 76.00
481 30.0100 2.989919 2543.00 2649.53 76.00
482 30.0600 2.985060 2397.00 2658.55 74.00
483 30.1100 2.980217 2607.00 2662.36 77.00
484 30.1600 2.975391 2740.00 2659.65 78.00
485 30.2100 2.970581 2664.00 2651.44 77.00
486 30.2600 2.965787 2707.00 2640.40 78.00
487 30.3100 2.961009 2553.00 2629.54 75.00
488 30.3600 2.956246 2508.00 2620.91 74.00
489 30.4100 2.951500 2511.00 2615.22 74.00
490 30.4600 2.946770 2561.00 2612.08 75.00
491 30.5100 2.942055 2520.00 2610.69 74.00
492 30.5600 2.937356 2442.00 2610.30 73.00
493 30.6100 2.932672 2446.00 2610.37 73.00
494 30.6600 2.928004 2567.00 2610.65 75.00
495 30.7100 2.923352 2605.00 2611.02 75.00
496 30.7600 2.918714 2653.00 2611.53 76.00
497 30.8100 2.914092 2609.00 2612.49 75.00
498 30.8600 2.909484 2540.00 2614.97 74.00
499 30.9100 2.904892 2559.00 2621.88 74.00
500 30.9600 2.900316 2607.00 2640.10 74.00
501 31.0100 2.895753 2628.00 2683.04 75.00
502 31.0600 2.891207 2559.00 2771.96 73.00
503 31.1100 2.886674 2772.00 2932.06 76.00
504 31.1600 2.882157 3060.00 3180.19 80.00
505 31.2100 2.877654 3267.00 3506.21 83.00
506 31.2600 2.873166 3698.00 3859.10 88.00
507 31.3100 2.868692 4095.00 4153.02 92.00
508 31.3600 2.864232 4104.00 4298.99 92.00
509 31.4100 2.859787 4174.00 4248.16 93.00
510 31.4600 2.855357 4029.00 4018.06 91.00
511 31.5100 2.850940 3786.00 3682.92 88.00
512 31.5600 2.846538 3428.00 3335.40 84.00
513 31.6100 2.842150 3274.00 3046.06 82.00
514 31.6600 2.837776 3202.00 2844.31 81.00
515 31.7100 2.833416 3073.00 2724.15 79.00
516 31.7600 2.829070 3113.00 2662.43 79.00
517 31.8100 2.824738 3026.00 2635.03 78.00
518 31.8600 2.820419 2995.00 2624.86 77.00
519 31.9100 2.816114 3089.00 2622.96 79.00
520 31.9600 2.811823 2967.00 2627.10 77.00
521 32.0100 2.807546 2869.00 2641.44 75.00
522 32.0600 2.803282 2790.00 2677.93 74.00
523 32.1100 2.799031 2846.00 2758.48 75.00
524 32.1600 2.794794 2919.00 2913.19 76.00
525 32.2100 2.790570 3141.00 3170.05 78.00
526 32.2600 2.786360 3674.00 3534.29 85.00
527 32.3100 2.782162 4103.00 3966.22 89.00
528 32.3600 2.777978 4472.00 4375.71 93.00
529 32.4100 2.773807 4671.00 4647.97 95.00
530 32.4600 2.769649 4963.00 4694.72 98.00
531 32.5100 2.765504 4742.00 4500.03 95.00
532 32.5600 2.761372 4126.00 4129.15 89.00
533 32.6100 2.757253 3667.00 3693.56 84.00
534 32.6600 2.753146 3258.00 3297.72 79.00
535 32.7100 2.749053 2842.00 3001.87 73.00
536 32.7600 2.744972 2719.00 2817.69 72.00
537 32.8100 2.740903 2637.00 2728.00 70.00
538 32.8600 2.736847 2597.00 2710.87 70.00
539 32.9100 2.732804 2623.00 2753.99 70.00
540 32.9600 2.728773 2851.00 2854.96 73.00
541 33.0100 2.724754 3001.00 3010.78 75.00
542 33.0600 2.720748 3286.00 3204.19 78.00
543 33.1100 2.716754 3592.00 3396.97 81.00
544 33.1600 2.712772 3659.00 3538.34 82.00
545 33.2100 2.708803 3813.00 3587.54 84.00
546 33.2600 2.704846 3707.00 3537.58 82.00
547 33.3100 2.700900 3388.00 3423.54 78.00
548 33.3600 2.696967 3217.00 3307.78 76.00
549 33.4100 2.693045 3154.00 3249.64 75.00
550 33.4600 2.689136 3194.00 3276.45 76.00
551 33.5100 2.685238 3204.00 3370.62 76.00
552 33.5600 2.681352 3308.00 3478.88 77.00
553 33.6100 2.677478 3235.00 3538.85 76.00
554 33.6600 2.673616 3316.00 3509.55 77.00
555 33.7100 2.669765 3153.00 3389.42 75.00
556 33.7600 2.665926 2968.00 3212.18 72.00
557 33.8100 2.662098 2805.00 3025.65 70.00
558 33.8600 2.658282 2680.00 2868.28 68.00
559 33.9100 2.654477 2629.00 2757.30 68.00
560 33.9600 2.650684 2609.00 2690.54 67.00
561 34.0100 2.646902 2580.00 2655.91 67.00
562 34.0600 2.643131 2545.00 2640.37 66.00
563 34.1100 2.639371 2537.00 2634.36 66.00
564 34.1600 2.635623 2592.00 2632.42 67.00
565 34.2100 2.631886 2619.00 2632.02 67.00
566 34.2600 2.628160 2613.00 2632.34 67.00
567 34.3100 2.624444 2641.00 2633.83 67.00
568 34.3600 2.620740 2585.00 2639.28 66.00
569 34.4100 2.617047 2634.00 2657.56 67.00
570 34.4600 2.613365 2637.00 2712.34 67.00
571 34.5100 2.609693 2973.00 2856.80 71.00
572 34.5600 2.606032 3299.00 3190.18 74.00
573 34.6100 2.602382 4019.00 3860.29 82.00
574 34.6600 2.598743 5227.00 5025.64 93.00
575 34.7100 2.595115 7002.00 6762.15 108.00
576 34.7600 2.591497 9290.00 8941.11 124.00
577 34.8100 2.587889 11456.00 11164.40 138.00
578 34.8600 2.584292 13297.00 12847.60 148.00
579 34.9100 2.580706 13945.00 13459.30 152.00
580 34.9600 2.577130 13197.00 12791.20 147.00
581 35.0100 2.573565 11401.00 11070.80 137.00
582 35.0600 2.570009 9019.00 8837.94 121.00
583 35.1100 2.566464 6653.00 6672.55 104.00
584 35.1600 2.562930 4860.00 4961.73 89.00
585 35.2100 2.559405 3618.00 3822.42 76.00
586 35.2600 2.555891 3083.00 3172.25 70.00
587 35.3100 2.552387 2818.00 2851.78 67.00
588 35.3600 2.548893 2826.00 2715.70 67.00
589 35.4100 2.545409 2759.00 2669.25 66.00
590 35.4600 2.541935 2749.00 2667.35 66.00
591 35.5100 2.538471 2744.00 2702.93 66.00
592 35.5600 2.535016 2863.00 2799.01 67.00
593 35.6100 2.531572 3017.00 3004.03 69.00
594 35.6600 2.528137 3475.00 3379.70 74.00
595 35.7100 2.524713 3990.00 3970.75 79.00
596 35.7600 2.521298 4905.00 4758.88 87.00
597 35.8100 2.517893 5849.00 5625.71 95.00
598 35.8600 2.514497 6506.00 6363.34 100.00
599 35.9100 2.511111 6722.00 6749.39 102.00
600 35.9600 2.507735 6736.00 6654.09 102.00
601 36.0100 2.504368 6008.00 6110.25 96.00
602 36.0600 2.501010 5210.00 5294.98 89.00
603 36.1100 2.497662 4312.00 4437.23 81.00
604 36.1600 2.494324 3669.00 3716.11 74.00
605 36.2100 2.490995 2969.00 3209.28 67.00
606 36.2600 2.487675 2647.00 2905.35 63.00
607 36.3100 2.484365 2646.00 2748.09 63.00
608 36.3600 2.481064 2576.00 2677.56 62.00
609 36.4100 2.477772 2623.00 2650.77 62.00
610 36.4600 2.474489 2499.00 2644.81 61.00
611 36.5100 2.471215 2493.00 2653.24 61.00
612 36.5600 2.467951 2644.00 2683.72 62.00
613 36.6100 2.464695 2727.00 2759.03 63.00
614 36.6600 2.461449 2802.00 2917.96 64.00
615 36.7100 2.458212 3135.00 3208.45 68.00
616 36.7600 2.454984 3628.00 3665.24 73.00
617 36.8100 2.451764 4205.00 4274.81 78.00
618 36.8600 2.448554 5054.00 4947.12 85.00
619 36.9100 2.445352 5661.00 5522.62 90.00
620 36.9600 2.442159 5891.00 5829.47 92.00
621 37.0100 2.438975 5986.00 5765.48 93.00
622 37.0600 2.435800 5294.00 5352.66 87.00
623 37.1100 2.432633 4515.00 4725.16 80.00
624 37.1600 2.429475 3975.00 4059.29 75.00
625 37.2100 2.426326 3390.00 3494.98 69.00
626 37.2600 2.423186 2875.00 3095.17 64.00
627 37.3100 2.420053 2672.00 2853.22 61.00
628 37.3600 2.416930 2559.00 2726.71 60.00
629 37.4100 2.413815 2520.00 2669.15 59.00
630 37.4600 2.410709 2503.00 2646.28 59.00
631 37.5100 2.407611 2572.00 2638.60 60.00
632 37.5600 2.404521 2596.00 2637.75 60.00
633 37.6100 2.401440 2748.00 2643.62 61.00
634 37.6600 2.398367 2621.00 2666.10 60.00
635 37.7100 2.395302 2776.00 2734.39 62.00
636 37.7600 2.392246 2966.00 2914.62 64.00
637 37.8100 2.389198 3507.00 3329.70 69.00
638 37.8600 2.386158 4322.00 4161.19 77.00
639 37.9100 2.383126 5720.00 5600.89 88.00
640 37.9600 2.380103 7979.00 7735.13 104.00
641 38.0100 2.377087 10939.00 10395.70 121.00
642 38.0600 2.374080 13756.00 13085.00 136.00
643 38.1100 2.371080 15833.00 15087.70 146.00
644 38.1600 2.368089 16555.00 15766.70 149.00
645 38.2100 2.365106 15480.00 14889.90 144.00
646 38.2600 2.362131 13176.00 12756.90 132.00
647 38.3100 2.359163 10395.00 10036.40 117.00
648 38.3600 2.356204 7507.00 7432.16 99.00
649 38.4100 2.353252 5499.00 5403.40 85.00
650 38.4600 2.350308 4164.00 4080.95 74.00
651 38.5100 2.347372 3463.00 3357.17 67.00
652 38.5600 2.344444 3109.00 3032.80 63.00
653 38.6100 2.341523 2953.00 2926.29 62.00
654 38.6600 2.338610 2918.00 2919.84 61.00
655 38.7100 2.335706 3138.00 2965.00 63.00
656 38.7600 2.332808 3238.00 3073.02 64.00
657 38.8100 2.329918 3616.00 3297.63 68.00
658 38.8600 2.327036 4025.00 3704.26 72.00
659 38.9100 2.324161 4776.00 4322.27 78.00
660 38.9600 2.321294 5516.00 5095.72 84.00
661 39.0100 2.318434 6122.00 5865.28 88.00
662 39.0600 2.315582 6697.00 6411.88 92.00
663 39.1100 2.312737 6880.00 6553.48 93.00
664 39.1600 2.309900 6533.00 6242.92 90.00
665 39.2100 2.307070 5833.00 5603.38 85.00
666 39.2600 2.304248 5200.00 4887.20 80.00
667 39.3100 2.301432 4814.00 4404.30 77.00
668 39.3600 2.298625 4986.00 4480.42 78.00
669 39.4100 2.295824 6013.00 5450.49 86.00
670 39.4600 2.293031 8102.00 7619.37 100.00
671 39.5100 2.290245 11513.00 11116.50 119.00
672 39.5600 2.287466 16046.00 15664.10 140.00
673 39.6100 2.284694 20672.00 20430.50 159.00
674 39.6600 2.281929 24597.00 24179.80 173.00
675 39.7100 2.279172 25587.00 25769.80 176.00
676 39.7600 2.276421 24459.00 24739.10 172.00
677 39.8100 2.273678 21301.00 21587.00 160.00
678 39.8600 2.270941 16968.00 17519.50 143.00
679 39.9100 2.268212 13365.00 13826.60 126.00
680 39.9600 2.265490 11221.00 11294.40 116.00
681 40.0100 2.262774 9890.00 9986.04 108.00
682 40.0600 2.260066 9430.00 9427.72 106.00
683 40.1100 2.257365 8997.00 9001.41 103.00
684 40.1600 2.254670 8131.00 8289.95 98.00
685 40.2100 2.251982 7099.00 7214.37 91.00
686 40.2600 2.249301 5891.00 5956.55 83.00
687 40.3100 2.246627 4621.00 4776.20 73.00
688 40.3600 2.243959 3575.00 3856.45 64.00
689 40.4100 2.241299 3059.00 3248.50 59.00
690 40.4600 2.238645 2676.00 2902.89 55.00
691 40.5100 2.235998 2578.00 2732.46 54.00
692 40.5600 2.233357 2562.00 2659.05 54.00
693 40.6100 2.230723 2622.00 2631.21 55.00
694 40.6600 2.228096 2585.00 2621.75 54.00
695 40.7100 2.225476 2518.00 2618.71 53.00
696 40.7600 2.222861 2523.00 2617.62 53.00
697 40.8100 2.220254 2648.00 2617.04 54.00
698 40.8600 2.217653 2596.00 2616.58 54.00
699 40.9100 2.215058 2599.00 2616.14 54.00
700 40.9600 2.212470 2575.00 2615.70 53.00
701 41.0100 2.209889 2527.00 2615.25 53.00
702 41.0600 2.207314 2430.00 2614.81 52.00
703 41.1100 2.204745 2416.00 2614.35 51.00
704 41.1600 2.202183 2629.00 2613.89 54.00
705 41.2100 2.199627 2633.00 2613.43 54.00
706 41.2600 2.197077 2438.00 2612.96 51.00
707 41.3100 2.194534 2498.00 2612.49 52.00
708 41.3600 2.191997 2474.00 2612.02 52.00
709 41.4100 2.189466 2457.00 2611.54 51.00
710 41.4600 2.186942 2429.00 2611.06 51.00
711 41.5100 2.184424 2467.00 2610.60 51.00
712 41.5600 2.181912 2373.00 2610.21 50.00
713 41.6100 2.179406 2475.00 2610.01 51.00
714 41.6600 2.176906 2491.00 2610.26 51.00
715 41.7100 2.174413 2452.00 2611.38 51.00
716 41.7600 2.171925 2458.00 2613.98 51.00
717 41.8100 2.169444 2473.00 2618.57 51.00
718 41.8600 2.166969 2508.00 2625.18 51.00
719 41.9100 2.164500 2528.00 2632.95 51.00
720 41.9600 2.162037 2528.00 2640.10 51.00
721 42.0100 2.159580 2646.00 2644.57 52.00
722 42.0600 2.157128 2600.00 2645.37 52.00
723 42.1100 2.154683 2526.00 2644.46 51.00
724 42.1600 2.152244 2513.00 2649.47 51.00
725 42.2100 2.149811 2567.00 2678.75 51.00
726 42.2600 2.147383 2763.00 2769.47 53.00
727 42.3100 2.144962 3029.00 2986.14 56.00
728 42.3600 2.142546 3503.00 3419.09 60.00
729 42.4100 2.140136 4312.00 4157.04 66.00
730 42.4600 2.137733 5487.00 5228.26 75.00
731 42.5100 2.135334 6679.00 6533.64 82.00
732 42.5600 2.132942 7946.00 7826.89 90.00
733 42.6100 2.130555 8947.00 8794.54 95.00
734 42.6600 2.128174 9473.00 9222.45 98.00
735 42.7100 2.125799 9496.00 9152.16 97.00
736 42.7600 2.123430 9153.00 8902.74 96.00
737 42.8100 2.121066 9073.00 8908.70 95.00
738 42.8600 2.118708 9519.00 9453.66 97.00
739 42.9100 2.116355 10808.00 10465.40 103.00
740 42.9600 2.114008 11778.00 11515.60 108.00
741 43.0100 2.111667 12357.00 12042.60 111.00
742 43.0600 2.109331 11635.00 11661.90 107.00
743 43.1100 2.107001 10372.00 10370.40 101.00
744 43.1600 2.104677 8593.00 8517.65 92.00
745 43.2100 2.102358 6623.00 6592.21 81.00
746 43.2600 2.100044 4971.00 4982.39 70.00
747 43.3100 2.097736 3828.00 3855.37 61.00
748 43.3600 2.095433 3074.00 3181.83 55.00
749 43.4100 2.093136 2772.00 2834.59 52.00
750 43.4600 2.090844 2696.00 2679.88 51.00
751 43.5100 2.088558 2596.00 2623.50 50.00
752 43.5600 2.086277 2595.00 2618.61 50.00
753 43.6100 2.084002 2686.00 2659.54 51.00
754 43.6600 2.081731 2900.00 2778.21 53.00
755 43.7100 2.079467 3118.00 3044.13 55.00
756 43.7600 2.077207 3647.00 3555.00 60.00
757 43.8100 2.074953 4419.00 4399.66 66.00
758 43.8600 2.072704 5660.00 5589.11 75.00
759 43.9100 2.070460 7130.00 6984.86 84.00
760 43.9600 2.068222 8124.00 8286.53 90.00
761 44.0100 2.065988 8998.00 9121.65 94.00
762 44.0600 2.063760 9124.00 9215.18 95.00
763 44.1100 2.061538 8602.00 8534.52 92.00
764 44.1600 2.059320 7160.00 7307.77 84.00
765 44.2100 2.057107 6146.00 5901.15 78.00
766 44.2600 2.054900 4645.00 4644.90 68.00
767 44.3100 2.052698 4001.00 3721.21 63.00
768 44.3600 2.050501 3607.00 3160.91 60.00
769 44.4100 2.048309 3404.00 2921.40 58.00
770 44.4600 2.046122 3647.00 2987.87 60.00
771 44.5100 2.043940 4285.00 3456.72 65.00
772 44.5600 2.041763 5277.00 4574.77 72.00
773 44.6100 2.039591 7089.00 6696.60 84.00
774 44.6600 2.037424 10404.00 10115.80 102.00
775 44.7100 2.035262 14747.00 14787.10 121.00
776 44.7600 2.033105 19668.00 20074.90 140.00
777 44.8100 2.030953 24289.00 24767.50 155.00
778 44.8600 2.028806 27294.00 27497.70 165.00
779 44.9100 2.026664 26989.00 27421.10 164.00
780 44.9600 2.024527 24472.00 24768.10 156.00
781 45.0100 2.022395 21086.00 20936.40 145.00
782 45.0600 2.020267 18541.00 18141.90 136.00
783 45.1100 2.018145 19188.00 18901.10 138.00
784 45.1600 2.016027 25520.00 25488.40 159.00
785 45.2100 2.013914 38259.00 39238.30 195.00
786 45.2600 2.011806 58398.00 59570.60 241.00
787 45.3100 2.009703 82542.00 83179.50 287.00
788 45.3600 2.007604 105077.00 104340.00 324.00
789 45.4100 2.005510 118347.00 116894.00 344.00
790 45.4600 2.003421 118439.00 117256.00 344.00
791 45.5100 2.001337 107727.00 106467.00 328.00
792 45.5600 1.999257 90390.00 89752.70 300.00
793 45.6100 1.997182 72822.00 73732.10 269.00
794 45.6600 1.995112 61200.00 63110.70 247.00
795 45.7100 1.993047 56882.00 58860.70 238.00
796 45.7600 1.990986 56824.00 58616.90 238.00
797 45.8100 1.988930 57407.00 58593.40 239.00
798 45.8600 1.986878 55112.00 55714.10 234.00
799 45.9100 1.984831 48672.00 48899.30 220.00
800 45.9600 1.982789 39550.00 39114.70 198.00
801 46.0100 1.980751 28677.00 28457.70 169.00
802 46.0600 1.978717 19486.00 18971.90 139.00
803 46.1100 1.976688 11943.00 11838.80 109.00
804 46.1600 1.974664 7332.00 7230.17 85.00
805 46.2100 1.972645 4790.00 4648.58 69.00
806 46.2600 1.970629 3661.00 3391.55 60.00
807 46.3100 1.968619 3157.00 2869.08 56.00
808 46.3600 1.966612 2881.00 2714.34 53.00
809 46.4100 1.964611 2893.00 2759.13 53.00
810 46.4600 1.962613 3140.00 2964.05 56.00
811 46.5100 1.960620 3459.00 3347.79 58.00
812 46.5600 1.958632 3923.00 3922.63 62.00
813 46.6100 1.956648 4474.00 4640.25 66.00
814 46.6600 1.954668 5257.00 5367.24 72.00
815 46.7100 1.952693 5725.00 5917.43 75.00
816 46.7600 1.950722 5916.00 6139.55 76.00
817 46.8100 1.948755 5854.00 6017.04 76.00
818 46.8600 1.946793 5508.00 5716.82 74.00
819 46.9100 1.944835 5365.00 5548.46 73.00
820 46.9600 1.942881 5750.00 5843.56 75.00
821 47.0100 1.940932 6642.00 6801.10 81.00
822 47.0600 1.938986 8168.00 8356.68 90.00
823 47.1100 1.937046 9805.00 10143.30 99.00
824 47.1600 1.935109 11178.00 11594.80 105.00
825 47.2100 1.933177 11897.00 12183.10 109.00
826 47.2600 1.931249 11530.00 11672.60 107.00
827 47.3100 1.929325 9913.00 10231.80 99.00
828 47.3600 1.927405 7935.00 8326.20 89.00
829 47.4100 1.925489 6240.00 6469.75 78.00
830 47.4600 1.923578 4729.00 5004.08 68.00
831 47.5100 1.921671 3740.00 4023.92 61.00
832 47.5600 1.919768 3266.00 3443.19 57.00
833 47.6100 1.917869 3026.00 3114.20 55.00
834 47.6600 1.915974 2917.00 2915.11 54.00
835 47.7100 1.914083 2838.00 2778.47 53.00
836 47.7600 1.912197 2781.00 2678.77 52.00
837 47.8100 1.910314 2705.00 2609.17 52.00
838 47.8600 1.908435 2600.00 2566.27 50.00
839 47.9100 1.906561 2633.00 2546.75 51.00
840 47.9600 1.904691 2684.00 2551.74 51.00
841 48.0100 1.902824 2802.00 2596.23 52.00
842 48.0600 1.900962 3138.00 2723.47 56.00
843 48.1100 1.899103 3452.00 3026.10 58.00
844 48.1600 1.897249 4169.00 3671.48 64.00
845 48.2100 1.895399 5615.00 4918.46 74.00
846 48.2600 1.893552 7894.00 7094.03 88.00
847 48.3100 1.891710 11279.00 10488.50 106.00
848 48.3600 1.889871 15776.00 15152.10 125.00
849 48.4100 1.888037 20859.00 20652.80 144.00
850 48.4600 1.886206 25879.00 25975.60 160.00
851 48.5100 1.884379 29468.00 29744.60 171.00
852 48.5600 1.882556 30201.00 30771.80 173.00
853 48.6100 1.880737 27787.00 28658.40 166.00
854 48.6600 1.878922 23012.00 24034.70 151.00
855 48.7100 1.877111 17338.00 18249.40 131.00
856 48.7600 1.875304 12156.00 12722.00 110.00
857 48.8100 1.873500 7946.00 8384.00 89.00
858 48.8600 1.871700 5340.00 5505.73 73.00
859 48.9100 1.869904 3998.00 3873.27 63.00
860 48.9600 1.868112 3126.00 3091.11 55.00
861 49.0100 1.866324 3031.00 2811.62 55.00
862 49.0600 1.864539 2994.00 2821.15 54.00
863 49.1100 1.862758 3176.00 3022.42 56.00
864 49.1600 1.860981 3508.00 3372.68 59.00
865 49.2100 1.859208 3929.00 3822.01 62.00
866 49.2600 1.857438 4282.00 4279.36 65.00
867 49.3100 1.855672 4488.00 4621.61 66.00
868 49.3600 1.853910 4715.00 4740.01 68.00
869 49.4100 1.852152 4422.00 4594.01 66.00
870 49.4600 1.850397 4084.00 4232.99 63.00
871 49.5100 1.848646 3545.00 3769.18 59.00
872 49.5600 1.846898 3127.00 3321.69 55.00
873 49.6100 1.845154 2888.00 2968.84 53.00
874 49.6600 1.843414 2653.00 2733.82 51.00
875 49.7100 1.841678 2517.00 2599.21 50.00
876 49.7600 1.839945 2407.00 2532.12 49.00
877 49.8100 1.838215 2391.00 2502.66 48.00
878 49.8600 1.836490 2441.00 2490.98 49.00
879 49.9100 1.834767 2430.00 2486.53 49.00
880 49.9600 1.833049 2516.00 2484.62 50.00
881 50.0100 1.831334 2471.00 2483.54 49.00
882 50.0600 1.829623 2387.00 2482.81 48.00
883 50.1100 1.827915 2461.00 2482.68 49.00
884 50.1600 1.826210 2439.00 2484.19 49.00
885 50.2100 1.824509 2520.00 2490.01 50.00
886 50.2600 1.822812 2513.00 2505.61 50.00
887 50.3100 1.821118 2497.00 2540.22 49.00
888 50.3600 1.819428 2631.00 2605.90 51.00
889 50.4100 1.817741 2784.00 2713.77 52.00
890 50.4600 1.816058 2824.00 2868.13 53.00
891 50.5100 1.814378 3046.00 3064.69 55.00
892 50.5600 1.812701 3150.00 3301.04 56.00
893 50.6100 1.811028 3582.00 3601.16 59.00
894 50.6600 1.809359 4058.00 4040.35 63.00
895 50.7100 1.807692 4758.00 4742.02 68.00
896 50.7600 1.806030 5693.00 5822.34 75.00
897 50.8100 1.804370 7341.00 7295.03 85.00
898 50.8600 1.802714 9187.00 8992.29 95.00
899 50.9100 1.801062 10681.00 10568.90 103.00
900 50.9600 1.799412 11840.00 11617.60 108.00
901 51.0100 1.797766 11975.00 11839.80 109.00
902 51.0600 1.796124 11171.00 11173.60 105.00
903 51.1100 1.794485 9955.00 9808.08 99.00
904 51.1600 1.792849 8207.00 8088.50 90.00
905 51.2100 1.791216 6354.00 6374.65 79.00
906 51.2600 1.789587 4738.00 4928.70 68.00
907 51.3100 1.787961 3643.00 3868.36 60.00
908 51.3600 1.786339 3075.00 3184.69 55.00
909 51.4100 1.784719 2701.00 2795.94 51.00
910 51.4600 1.783103 2627.00 2602.46 51.00
911 51.5100 1.781490 2495.00 2523.24 49.00
912 51.5600 1.779881 2473.00 2509.06 49.00
913 51.6100 1.778274 2486.00 2539.35 49.00
914 51.6600 1.776671 2571.00 2611.14 50.00
915 51.7100 1.775072 2723.00 2725.46 52.00
916 51.7600 1.773475 2816.00 2874.81 53.00
917 51.8100 1.771881 2919.00 3037.30 54.00
918 51.8600 1.770291 3038.00 3183.37 55.00
919 51.9100 1.768704 3228.00 3295.36 56.00
920 51.9600 1.767120 3346.00 3389.21 57.00
921 52.0100 1.765540 3509.00 3519.24 59.00
922 52.0600 1.763962 3758.00 3753.12 61.00
923 52.1100 1.762388 4101.00 4123.74 64.00
924 52.1600 1.760816 4554.00 4585.89 67.00
925 52.2100 1.759248 4954.00 5013.55 70.00
926 52.2600 1.757683 5322.00 5250.65 72.00
927 52.3100 1.756121 5297.00 5191.22 72.00
928 52.3600 1.754562 5046.00 4836.74 71.00
929 52.4100 1.753007 4413.00 4292.76 66.00
930 52.4600 1.751454 3670.00 3709.31 60.00
931 52.5100 1.749905 3109.00 3210.35 55.00
932 52.5600 1.748358 2911.00 2854.53 53.00
933 52.6100 1.746815 2656.00 2639.51 51.00
934 52.6600 1.745275 2476.00 2531.71 49.00
935 52.7100 1.743737 2471.00 2495.86 49.00
936 52.7600 1.742203 2476.00 2511.27 49.00
937 52.8100 1.740672 2576.00 2573.46 50.00
938 52.8600 1.739144 2645.00 2685.91 51.00
939 52.9100 1.737618 2691.00 2847.02 51.00
940 52.9600 1.736096 2964.00 3039.01 54.00
941 53.0100 1.734577 3182.00 3227.09 56.00
942 53.0600 1.733061 3266.00 3374.61 57.00
943 53.1100 1.731548 3370.00 3468.41 58.00
944 53.1600 1.730038 3480.00 3537.60 58.00
945 53.2100 1.728530 3631.00 3646.63 60.00
946 53.2600 1.727026 3925.00 3858.83 62.00
947 53.3100 1.725525 4255.00 4188.16 65.00
948 53.3600 1.724026 4470.00 4571.11 66.00
949 53.4100 1.722531 4888.00 4882.87 69.00
950 53.4600 1.721038 4982.00 4995.15 70.00
951 53.5100 1.719548 4831.00 4842.86 69.00
952 53.5600 1.718061 4470.00 4457.44 66.00
953 53.6100 1.716578 3898.00 3946.64 62.00
954 53.6600 1.715097 3453.00 3437.99 58.00
955 53.7100 1.713619 3076.00 3024.18 55.00
956 53.7600 1.712143 2670.00 2741.30 51.00
957 53.8100 1.710671 2581.00 2580.91 50.00
958 53.8600 1.709201 2575.00 2519.63 50.00
959 53.9100 1.707735 2635.00 2547.59 51.00
960 53.9600 1.706271 2854.00 2685.97 53.00
961 54.0100 1.704810 3047.00 2989.44 55.00
962 54.0600 1.703351 3665.00 3527.46 60.00
963 54.1100 1.701896 4447.00 4340.54 66.00
964 54.1600 1.700444 5562.00 5381.99 74.00
965 54.2100 1.698994 6531.00 6481.28 80.00
966 54.2600 1.697547 7522.00 7369.44 86.00
967 54.3100 1.696103 7920.00 7780.11 88.00
968 54.3600 1.694661 7462.00 7577.28 86.00
969 54.4100 1.693223 6718.00 6827.92 81.00
970 54.4600 1.691787 5672.00 5767.95 75.00
971 54.5100 1.690354 4488.00 4686.54 66.00
972 54.5600 1.688923 3780.00 3809.94 61.00
973 54.6100 1.687496 3159.00 3250.25 56.00
974 54.6600 1.686071 2950.00 3026.10 54.00
975 54.7100 1.684649 3110.00 3111.31 55.00
976 54.7600 1.683229 3387.00 3462.49 58.00
977 54.8100 1.681812 3908.00 4010.13 62.00
978 54.8600 1.680398 4620.00 4635.18 67.00
979 54.9100 1.678987 5216.00 5170.71 72.00
980 54.9600 1.677578 5576.00 5449.71 74.00
981 55.0100 1.676172 5509.00 5376.89 74.00
982 55.0600 1.674769 5118.00 4976.29 71.00
983 55.1100 1.673368 4402.00 4376.69 66.00
984 55.1600 1.671970 3751.00 3745.03 61.00
985 55.2100 1.670575 3156.00 3212.75 56.00
986 55.2600 1.669183 2854.00 2839.41 53.00
987 55.3100 1.667792 2730.00 2621.92 52.00
988 55.3600 1.666405 2606.00 2528.92 51.00
989 55.4100 1.665020 2569.00 2533.26 50.00
990 55.4600 1.663638 2602.00 2627.52 51.00
991 55.5100 1.662258 2848.00 2820.12 53.00
992 55.5600 1.660881 3157.00 3116.36 56.00
993 55.6100 1.659507 3472.00 3494.46 58.00
994 55.6600 1.658135 3869.00 3891.07 62.00
995 55.7100 1.656766 4176.00 4211.39 64.00
996 55.7600 1.655399 4420.00 4364.25 66.00
997 55.8100 1.654035 4374.00 4304.05 66.00
998 55.8600 1.652674 3957.00 4052.74 62.00
999 55.9100 1.651315 3824.00 3686.88 61.00
1000 55.9600 1.649958 3233.00 3300.19 56.00
1001 56.0100 1.648605 2859.00 2966.02 53.00
1002 56.0600 1.647253 2637.00 2719.25 51.00
1003 56.1100 1.645904 2552.00 2560.07 50.00
1004 56.1600 1.644558 2413.00 2469.20 49.00
1005 56.2100 1.643214 2455.00 2422.85 49.00
1006 56.2600 1.641873 2420.00 2401.51 49.00
1007 56.3100 1.640534 2419.00 2392.50 49.00
1008 56.3600 1.639198 2428.00 2388.85 49.00
1009 56.4100 1.637864 2432.00 2387.28 49.00
1010 56.4600 1.636533 2474.00 2386.43 49.00
1011 56.5100 1.635204 2409.00 2385.79 49.00
1012 56.5600 1.633878 2432.00 2385.22 49.00
1013 56.6100 1.632554 2469.00 2384.67 49.00
1014 56.6600 1.631233 2345.00 2384.15 48.00
1015 56.7100 1.629914 2284.00 2383.73 47.00
1016 56.7600 1.628597 2464.00 2383.62 49.00
1017 56.8100 1.627283 2462.00 2384.52 49.00
1018 56.8600 1.625971 2268.00 2388.15 47.00
1019 56.9100 1.624662 2367.00 2398.22 48.00
1020 56.9600 1.623355 2374.00 2421.30 48.00
1021 57.0100 1.622051 2460.00 2466.54 49.00
1022 57.0600 1.620749 2522.00 2542.76 50.00
1023 57.1100 1.619449 2604.00 2652.35 51.00
1024 57.1600 1.618152 2713.00 2784.36 52.00
1025 57.2100 1.616857 2905.00 2912.27 53.00
1026 57.2600 1.615564 3003.00 3000.94 54.00
1027 57.3100 1.614274 2923.00 3021.86 54.00
1028 57.3600 1.612986 2973.00 2967.77 54.00
1029 57.4100 1.611701 2863.00 2856.59 53.00
1030 57.4600 1.610418 2946.00 2721.87 54.00
1031 57.5100 1.609137 2610.00 2596.70 51.00
1032 57.5600 1.607859 2545.00 2501.66 50.00
1033 57.6100 1.606583 2330.00 2442.99 48.00
1034 57.6600 1.605309 2299.00 2419.16 47.00
1035 57.7100 1.604038 2372.00 2430.06 48.00
1036 57.7600 1.602769 2445.00 2483.37 49.00
1037 57.8100 1.601502 2608.00 2594.56 51.00
1038 57.8600 1.600237 2761.00 2778.45 52.00
1039 57.9100 1.598975 2953.00 3033.71 54.00
1040 57.9600 1.597715 3388.00 3328.08 58.00
1041 58.0100 1.596458 3677.00 3597.01 60.00
1042 58.0600 1.595203 3935.00 3763.56 62.00
1043 58.1100 1.593950 4063.00 3773.28 63.00
1044 58.1600 1.592699 3734.00 3622.74 61.00
1045 58.2100 1.591450 3429.00 3361.35 58.00
1046 58.2600 1.590204 3055.00 3065.25 55.00
1047 58.3100 1.588960 2814.00 2802.06 53.00
1048 58.3600 1.587718 2574.00 2608.17 50.00
1049 58.4100 1.586479 2463.00 2488.20 49.00
1050 58.4600 1.585242 2360.00 2429.13 48.00
1051 58.5100 1.584007 2419.00 2417.23 49.00
1052 58.5600 1.582774 2365.00 2449.17 48.00
1053 58.6100 1.581543 2520.00 2534.62 50.00
1054 58.6600 1.580315 2519.00 2690.02 50.00
1055 58.7100 1.579089 2861.00 2924.44 53.00
1056 58.7600 1.577865 3147.00 3221.79 56.00
1057 58.8100 1.576643 3325.00 3531.00 57.00
1058 58.8600 1.575424 3665.00 3775.32 60.00
1059 58.9100 1.574206 3804.00 3882.86 61.00
1060 58.9600 1.572991 3731.00 3823.11 61.00
1061 59.0100 1.571778 3655.00 3625.05 60.00
1062 59.0600 1.570567 3409.00 3364.06 58.00
1063 59.1100 1.569359 3122.00 3128.33 55.00
1064 59.1600 1.568152 3009.00 2989.50 54.00
1065 59.2100 1.566948 3039.00 2998.47 55.00
1066 59.2600 1.565746 3293.00 3203.62 57.00
1067 59.3100 1.564545 3660.00 3668.42 60.00
1068 59.3600 1.563348 4384.00 4456.78 66.00
1069 59.4100 1.562152 5472.00 5575.03 73.00
1070 59.4600 1.560958 6844.00 6899.65 82.00
1071 59.5100 1.559766 8386.00 8153.25 91.00
1072 59.5600 1.558577 9007.00 8981.12 94.00
1073 59.6100 1.557390 9215.00 9112.68 95.00
1074 59.6600 1.556204 8792.00 8509.35 93.00
1075 59.7100 1.555021 7412.00 7397.15 86.00
1076 59.7600 1.553840 6063.00 6157.12 77.00
1077 59.8100 1.552661 4953.00 5149.17 70.00
1078 59.8600 1.551484 4320.00 4573.60 65.00
1079 59.9100 1.550309 4302.00 4435.64 65.00
1080 59.9600 1.549137 4521.00 4600.66 67.00
1081 60.0100 1.547966 4850.00 4893.76 69.00
1082 60.0600 1.546797 5077.00 5187.63 71.00
1083 60.1100 1.545631 5425.00 5437.33 73.00
1084 60.1600 1.544466 5667.00 5650.42 75.00
1085 60.2100 1.543304 5730.00 5822.75 75.00
1086 60.2600 1.542144 5775.00 5897.45 75.00
1087 60.3100 1.540985 5831.00 5785.42 76.00
1088 60.3600 1.539829 5485.00 5431.17 74.00
1089 60.4100 1.538674 4923.00 4865.14 70.00
1090 60.4600 1.537522 4262.00 4198.36 65.00
1091 60.5100 1.536372 3571.00 3565.44 59.00
1092 60.5600 1.535224 3005.00 3063.19 54.00
1093 60.6100 1.534077 2717.00 2723.72 52.00
1094 60.6600 1.532933 2526.00 2526.45 50.00
1095 60.7100 1.531791 2405.00 2428.66 49.00
1096 60.7600 1.530651 2429.00 2391.50 49.00
1097 60.8100 1.529512 2350.00 2392.28 48.00
1098 60.8600 1.528376 2526.00 2425.46 50.00
1099 60.9100 1.527242 2437.00 2497.54 49.00
1100 60.9600 1.526109 2563.00 2618.15 50.00
1101 61.0100 1.524979 2716.00 2788.99 52.00
1102 61.0600 1.523851 2991.00 2995.26 54.00
1103 61.1100 1.522724 3210.00 3207.09 56.00
1104 61.1600 1.521600 3414.00 3395.52 58.00
1105 61.2100 1.520477 3421.00 3556.60 58.00
1106 61.2600 1.519356 3600.00 3723.67 60.00
1107 61.3100 1.518238 3859.00 3950.46 62.00
1108 61.3600 1.517121 4085.00 4266.89 63.00
1109 61.4100 1.516006 4527.00 4636.16 67.00
1110 61.4600 1.514893 4951.00 4950.58 70.00
1111 61.5100 1.513783 5173.00 5079.60 71.00
1112 61.5600 1.512673 4964.00 4942.34 70.00
1113 61.6100 1.511566 4653.00 4555.44 68.00
1114 61.6600 1.510461 4142.00 4022.71 64.00
1115 61.7100 1.509358 3541.00 3478.83 59.00
1116 61.7600 1.508256 3086.00 3027.53 55.00
1117 61.8100 1.507157 2805.00 2712.05 52.00
1118 61.8600 1.506059 2646.00 2522.95 51.00
1119 61.9100 1.504963 2447.00 2424.83 49.00
1120 61.9600 1.503870 2366.00 2380.89 48.00
1121 62.0100 1.502777 2412.00 2365.57 49.00
1122 62.0600 1.501687 2368.00 2367.48 48.00
1123 62.1100 1.500599 2385.00 2389.63 48.00
1124 62.1600 1.499513 2467.00 2451.91 49.00
1125 62.2100 1.498428 2545.00 2596.25 50.00
1126 62.2600 1.497345 2909.00 2888.14 53.00
1127 62.3100 1.496264 3301.00 3404.36 57.00
1128 62.3600 1.495185 4179.00 4197.18 64.00
1129 62.4100 1.494108 5235.00 5240.48 72.00
1130 62.4600 1.493033 6474.00 6388.63 80.00
1131 62.5100 1.491960 7499.00 7386.63 86.00
1132 62.5600 1.490888 8092.00 7955.44 89.00
1133 62.6100 1.489818 7889.00 7915.91 88.00
1134 62.6600 1.488750 7396.00 7279.52 86.00
1135 62.7100 1.487684 6230.00 6243.55 78.00
1136 62.7600 1.486619 5011.00 5092.56 70.00
1137 62.8100 1.485557 4196.00 4074.64 64.00
1138 62.8600 1.484496 3460.00 3325.33 58.00
1139 62.9100 1.483437 2854.00 2866.57 53.00
1140 62.9600 1.482380 2686.00 2657.13 51.00
1141 63.0100 1.481324 2664.00 2649.83 51.00
1142 63.0600 1.480271 2867.00 2821.85 53.00
1143 63.1100 1.479219 3279.00 3169.85 57.00
1144 63.1600 1.478169 3797.00 3678.50 61.00
1145 63.2100 1.477120 4320.00 4285.01 65.00
1146 63.2600 1.476074 4918.00 4866.28 70.00
1147 63.3100 1.475029 5406.00 5267.60 73.00
1148 63.3600 1.473986 5457.00 5365.95 73.00
1149 63.4100 1.472945 5263.00 5129.80 72.00
1150 63.4600 1.471905 4692.00 4636.15 68.00
1151 63.5100 1.470867 4184.00 4033.03 64.00
1152 63.5600 1.469831 3693.00 3473.99 60.00
1153 63.6100 1.468797 3101.00 3068.51 55.00
1154 63.6600 1.467764 3090.00 2870.55 55.00
1155 63.7100 1.466734 3038.00 2895.59 55.00
1156 63.7600 1.465705 3231.00 3139.45 56.00
1157 63.8100 1.464677 3652.00 3577.55 60.00
1158 63.8600 1.463651 4323.00 4146.89 65.00
1159 63.9100 1.462627 4815.00 4732.70 69.00
1160 63.9600 1.461605 5231.00 5184.99 72.00
1161 64.0100 1.460585 5237.00 5369.33 72.00
1162 64.0600 1.459566 5212.00 5226.07 72.00
1163 64.1100 1.458549 4731.00 4800.02 68.00
1164 64.1600 1.457533 4221.00 4218.33 64.00
1165 64.2100 1.456519 3576.00 3629.90 59.00
1166 64.2600 1.455507 3188.00 3147.86 56.00
1167 64.3100 1.454497 2825.00 2823.72 53.00
1168 64.3600 1.453488 2712.00 2659.91 52.00
1169 64.4100 1.452481 2751.00 2640.95 52.00
1170 64.4600 1.451476 2923.00 2757.50 54.00
1171 64.5100 1.450472 3144.00 3008.88 56.00
1172 64.5600 1.449470 3492.00 3383.41 59.00
1173 64.6100 1.448470 3951.00 3832.69 62.00
1174 64.6600 1.447471 4313.00 4261.38 65.00
1175 64.7100 1.446474 4555.00 4550.65 67.00
1176 64.7600 1.445478 4602.00 4607.45 67.00
1177 64.8100 1.444485 4455.00 4411.42 66.00
1178 64.8600 1.443492 3959.00 4025.30 62.00
1179 64.9100 1.442502 3509.00 3562.41 59.00
1180 64.9600 1.441513 3155.00 3132.78 56.00
1181 65.0100 1.440526 2821.00 2803.85 53.00
1182 65.0600 1.439540 2595.00 2592.26 50.00
1183 65.1100 1.438556 2448.00 2480.72 49.00
1184 65.1600 1.437574 2482.00 2441.81 49.00
1185 65.2100 1.436593 2442.00 2452.70 49.00
1186 65.2600 1.435614 2472.00 2498.15 49.00
1187 65.3100 1.434636 2543.00 2565.49 50.00
1188 65.3600 1.433660 2669.00 2639.04 51.00
1189 65.4100 1.432686 2688.00 2699.12 51.00
1190 65.4600 1.431713 2732.00 2727.49 52.00
1191 65.5100 1.430742 2743.00 2715.21 52.00
1192 65.5600 1.429773 2717.00 2668.00 52.00
1193 65.6100 1.428805 2672.00 2605.45 51.00
1194 65.6600 1.427838 2536.00 2556.81 50.00
1195 65.7100 1.426873 2603.00 2558.95 51.00
1196 65.7600 1.425910 2654.00 2659.12 51.00
1197 65.8100 1.424949 2909.00 2916.70 53.00
1198 65.8600 1.423988 3322.00 3391.92 57.00
1199 65.9100 1.423030 3885.00 4112.03 62.00
1200 65.9600 1.422073 4777.00 5025.26 69.00
1201 66.0100 1.421117 5929.00 5972.79 77.00
1202 66.0600 1.420164 6677.00 6717.51 81.00
1203 66.1100 1.419211 6869.00 7035.35 82.00
1204 66.1600 1.418260 6715.00 6822.07 81.00
1205 66.2100 1.417311 6207.00 6149.10 78.00
1206 66.2600 1.416363 5184.00 5227.09 72.00
1207 66.3100 1.415417 4310.00 4305.82 65.00
1208 66.3600 1.414473 3621.00 3579.79 60.00
1209 66.4100 1.413530 3229.00 3154.52 56.00
1210 66.4600 1.412588 3190.00 3072.13 56.00
1211 66.5100 1.411648 3286.00 3354.04 57.00
1212 66.5600 1.410709 3885.00 4012.92 62.00
1213 66.6100 1.409772 4818.00 5017.71 69.00
1214 66.6600 1.408837 6038.00 6236.07 77.00
1215 66.7100 1.407903 7082.00 7414.19 84.00
1216 66.7600 1.406970 7776.00 8232.93 88.00
1217 66.8100 1.406039 8277.00 8437.23 90.00
1218 66.8600 1.405110 7811.00 7959.79 88.00
1219 66.9100 1.404182 6843.00 6955.43 82.00
1220 66.9600 1.403255 5693.00 5720.03 75.00
1221 67.0100 1.402330 4535.00 4550.96 67.00
1222 67.0600 1.401407 3670.00 3638.12 60.00
1223 67.1100 1.400485 3216.00 3034.88 56.00
1224 67.1600 1.399564 2848.00 2701.03 53.00
1225 67.2100 1.398645 2695.00 2567.65 51.00
1226 67.2600 1.397727 2695.00 2587.47 51.00
1227 67.3100 1.396811 2835.00 2753.94 53.00
1228 67.3600 1.395897 3191.00 3091.41 56.00
1229 67.4100 1.394983 3726.00 3622.49 61.00
1230 67.4600 1.394072 4460.00 4327.06 66.00
1231 67.5100 1.393161 5155.00 5115.75 71.00
1232 67.5600 1.392252 5816.00 5846.95 76.00
1233 67.6100 1.391345 6401.00 6392.34 80.00
1234 67.6600 1.390439 6566.00 6713.63 81.00
1235 67.7100 1.389535 6697.00 6889.38 81.00
1236 67.7600 1.388631 6934.00 7055.14 83.00
1237 67.8100 1.387730 7163.00 7290.60 84.00
1238 67.8600 1.386830 7266.00 7540.44 85.00
1239 67.9100 1.385931 7434.00 7637.87 86.00
1240 67.9600 1.385033 7327.00 7419.28 85.00
1241 68.0100 1.384138 6834.00 6841.68 82.00
1242 68.0600 1.383243 5975.00 6015.98 77.00
1243 68.1100 1.382350 4931.00 5138.27 70.00
1244 68.1600 1.381458 4250.00 4382.14 65.00
1245 68.2100 1.380568 3847.00 3827.85 62.00
1246 68.2600 1.379679 3587.00 3465.01 59.00
1247 68.3100 1.378792 3317.00 3241.74 57.00
1248 68.3600 1.377906 3174.00 3114.55 56.00
1249 68.4100 1.377021 3157.00 3067.03 56.00
1250 68.4600 1.376138 3226.00 3099.89 56.00
1251 68.5100 1.375256 3298.00 3217.54 57.00
1252 68.5600 1.374376 3494.00 3436.15 59.00
1253 68.6100 1.373496 3918.00 3822.16 62.00
1254 68.6600 1.372619 4561.00 4539.58 67.00
1255 68.7100 1.371742 5491.00 5860.33 74.00
1256 68.7600 1.370867 7659.00 8081.01 87.00
1257 68.8100 1.369994 10730.00 11333.20 103.00
1258 68.8600 1.369122 14865.00 15361.90 121.00
1259 68.9100 1.368251 18917.00 19425.30 137.00
1260 68.9600 1.367381 22413.00 22466.90 149.00
1261 69.0100 1.366513 24222.00 23540.90 155.00
1262 69.0600 1.365647 22842.00 22274.90 151.00
1263 69.1100 1.364781 19544.00 19061.30 139.00
1264 69.1600 1.363917 15020.00 14853.30 122.00
1265 69.2100 1.363055 10492.00 10701.90 102.00
1266 69.2600 1.362193 6942.00 7350.91 83.00
1267 69.3100 1.361333 4846.00 5079.06 69.00
1268 69.3600 1.360475 3607.00 3800.39 60.00
1269 69.4100 1.359617 3204.00 3270.44 56.00
1270 69.4600 1.358762 3309.00 3243.89 57.00
1271 69.5100 1.357907 3465.00 3531.45 58.00
1272 69.5600 1.357054 3829.00 3980.91 61.00
1273 69.6100 1.356202 4293.00 4444.22 65.00
1274 69.6600 1.355351 4930.00 4775.24 70.00
1275 69.7100 1.354502 4973.00 4865.05 70.00
1276 69.7600 1.353654 4847.00 4684.28 69.00
1277 69.8100 1.352808 4332.00 4296.72 65.00
1278 69.8600 1.351962 3776.00 3829.17 61.00
1279 69.9100 1.351118 3375.00 3419.24 58.00
1280 69.9600 1.350275 3065.00 3170.30 55.00
1281 70.0100 1.349434 3022.00 3133.33 54.00
1282 70.0600 1.348594 3271.00 3307.12 57.00
1283 70.1100 1.347755 3645.00 3643.46 60.00
1284 70.1600 1.346918 4027.00 4052.36 63.00
1285 70.2100 1.346081 4490.00 4418.24 67.00
1286 70.2600 1.345247 4665.00 4632.81 68.00
1287 70.3100 1.344413 4746.00 4638.48 68.00
1288 70.3600 1.343581 4561.00 4456.20 67.00
1289 70.4100 1.342750 4329.00 4178.12 65.00
1290 70.4600 1.341920 3996.00 3925.08 63.00
1291 70.5100 1.341091 3882.00 3793.04 62.00
1292 70.5600 1.340264 3771.00 3816.85 61.00
1293 70.6100 1.339438 3809.00 3970.68 61.00
1294 70.6600 1.338614 3956.00 4200.07 62.00
1295 70.7100 1.337790 4222.00 4461.64 64.00
1296 70.7600 1.336968 4524.00 4739.83 67.00
1297 70.8100 1.336147 4844.00 5028.85 69.00
1298 70.8600 1.335328 5148.00 5296.77 71.00
1299 70.9100 1.334509 5410.00 5469.23 73.00
1300 70.9600 1.333692 5460.00 5456.21 73.00
1301 71.0100 1.332876 5230.00 5206.20 72.00
1302 71.0600 1.332062 4749.00 4746.04 68.00
1303 71.1100 1.331249 4194.00 4173.49 64.00
1304 71.1600 1.330436 3562.00 3610.97 59.00
1305 71.2100 1.329626 3083.00 3153.34 55.00
1306 71.2600 1.328816 2832.00 2844.97 53.00
1307 71.3100 1.328008 2781.00 2691.12 52.00
1308 71.3600 1.327201 2722.00 2688.53 52.00
1309 71.4100 1.326395 2918.00 2852.41 54.00
1310 71.4600 1.325590 3224.00 3222.18 56.00
1311 71.5100 1.324787 3765.00 3837.94 61.00
1312 71.5600 1.323985 4583.00 4693.40 67.00
1313 71.6100 1.323184 5606.00 5689.66 74.00
1314 71.6600 1.322384 6638.00 6625.44 81.00
1315 71.7100 1.321585 7388.00 7252.82 85.00
1316 71.7600 1.320788 7535.00 7380.33 86.00
1317 71.8100 1.319992 7244.00 6966.89 85.00
1318 71.8600 1.319197 6434.00 6143.09 80.00
1319 71.9100 1.318403 5470.00 5145.25 73.00
1320 71.9600 1.317611 4346.00 4206.19 65.00
1321 72.0100 1.316819 3488.00 3472.60 59.00
1322 72.0600 1.316029 2909.00 2983.51 53.00
1323 72.1100 1.315240 2745.00 2701.09 52.00
1324 72.1600 1.314453 2571.00 2558.95 50.00
1325 72.2100 1.313666 2544.00 2496.45 50.00
1326 72.2600 1.312881 2494.00 2472.64 49.00
1327 72.3100 1.312097 2451.00 2465.25 49.00
1328 72.3600 1.311314 2422.00 2464.47 49.00
1329 72.4100 1.310532 2425.00 2468.03 49.00
1330 72.4600 1.309752 2522.00 2479.95 50.00
1331 72.5100 1.308972 2552.00 2514.33 50.00
1332 72.5600 1.308194 2714.00 2604.93 52.00
1333 72.6100 1.307417 2858.00 2819.51 53.00
1334 72.6600 1.306641 3367.00 3272.04 58.00
1335 72.7100 1.305866 4113.00 4117.74 64.00
1336 72.7600 1.305093 5233.00 5508.98 72.00
1337 72.8100 1.304320 7199.00 7506.43 84.00
1338 72.8600 1.303549 9511.00 9973.97 97.00
1339 72.9100 1.302779 12080.00 12521.40 109.00
1340 72.9600 1.302010 14137.00 14574.20 118.00
1341 73.0100 1.301243 15446.00 15572.40 124.00
1342 73.0600 1.300476 15222.00 15215.60 123.00
1343 73.1100 1.299711 13658.00 13610.40 116.00
1344 73.1600 1.298946 11437.00 11223.40 106.00
1345 73.2100 1.298183 8922.00 8673.36 94.00
1346 73.2600 1.297421 6706.00 6503.64 81.00
1347 73.3100 1.296660 5253.00 5060.75 72.00
1348 73.3600 1.295901 4644.00 4519.20 68.00
1349 73.4100 1.295142 4827.00 4983.63 69.00
1350 73.4600 1.294384 6130.00 6544.72 78.00
1351 73.5100 1.293628 8655.00 9216.96 93.00
1352 73.5600 1.292873 12179.00 12778.00 110.00
1353 73.6100 1.292119 15997.00 16638.00 126.00
1354 73.6600 1.291366 19431.00 19892.10 139.00
1355 73.7100 1.290614 21383.00 21617.30 146.00
1356 73.7600 1.289863 21330.00 21280.40 146.00
1357 73.8100 1.289114 19208.00 19007.30 138.00
1358 73.8600 1.288365 15782.00 15519.50 125.00
1359 73.9100 1.287618 12017.00 11788.60 109.00
1360 73.9600 1.286872 8864.00 8629.86 94.00
1361 74.0100 1.286127 6772.00 6479.90 82.00
1362 74.0600 1.285383 5599.00 5398.96 74.00
1363 74.1100 1.284640 5260.00 5210.23 72.00
1364 74.1600 1.283898 5688.00 5634.07 75.00
1365 74.2100 1.283157 6391.00 6354.48 79.00
1366 74.2600 1.282418 7132.00 7049.32 84.00
1367 74.3100 1.281679 7641.00 7436.46 87.00
1368 74.3600 1.280942 7698.00 7347.20 87.00
1369 74.4100 1.280205 7150.00 6781.51 84.00
1370 74.4600 1.279470 6126.00 5897.73 78.00
1371 74.5100 1.278736 5196.00 4935.87 72.00
1372 74.5600 1.278003 4259.00 4123.37 65.00
1373 74.6100 1.277271 3695.00 3620.72 60.00
1374 74.6600 1.276540 3511.00 3527.43 59.00
1375 74.7100 1.275810 3795.00 3914.03 61.00
1376 74.7600 1.275081 4717.00 4833.57 68.00
1377 74.8100 1.274354 5913.00 6282.23 76.00
1378 74.8600 1.273627 7712.00 8128.19 87.00
1379 74.9100 1.272902 9782.00 10066.40 98.00
1380 74.9600 1.272177 11606.00 11662.80 107.00
1381 75.0100 1.271454 12469.00 12495.20 111.00
1382 75.0600 1.270731 12531.00 12330.10 111.00
1383 75.1100 1.270010 11508.00 11225.50 107.00
1384 75.1600 1.269290 9841.00 9498.99 99.00
1385 75.2100 1.268571 7791.00 7580.37 88.00
1386 75.2600 1.267853 5833.00 5846.37 76.00
1387 75.3100 1.267136 4496.00 4516.48 67.00
1388 75.3600 1.266420 3708.00 3644.97 60.00
1389 75.4100 1.265705 3373.00 3179.21 58.00
1390 75.4600 1.264991 3117.00 3027.67 55.00
1391 75.5100 1.264278 3241.00 3103.16 56.00
1392 75.5600 1.263566 3385.00 3330.26 58.00
1393 75.6100 1.262855 3600.00 3633.49 60.00
1394 75.6600 1.262146 3897.00 3928.71 62.00
1395 75.7100 1.261437 4112.00 4134.13 64.00
1396 75.7600 1.260729 4255.00 4197.71 65.00
1397 75.8100 1.260023 4207.00 4123.33 64.00
1398 75.8600 1.259317 4040.00 3974.08 63.00
1399 75.9100 1.258612 3887.00 3845.42 62.00
1400 75.9600 1.257909 3873.00 3819.22 62.00
1401 76.0100 1.257206 3979.00 3922.38 63.00
1402 76.0600 1.256505 4094.00 4111.46 63.00
1403 76.1100 1.255804 4142.00 4292.49 64.00
1404 76.1600 1.255105 4005.00 4366.73 63.00
1405 76.2100 1.254407 4134.00 4279.23 64.00
1406 76.2600 1.253709 4017.00 4045.10 63.00
1407 76.3100 1.253013 3674.00 3742.48 60.00
1408 76.3600 1.252317 3466.00 3481.56 58.00
1409 76.4100 1.251623 3270.00 3370.92 57.00
1410 76.4600 1.250930 3393.00 3493.13 58.00
1411 76.5100 1.250237 3649.00 3888.24 60.00
1412 76.5600 1.249546 4331.00 4535.84 65.00
1413 76.6100 1.248855 5089.00 5340.90 71.00
1414 76.6600 1.248166 6103.00 6139.58 78.00
1415 76.7100 1.247478 6494.00 6743.67 80.00
1416 76.7600 1.246791 6954.00 7010.53 83.00
1417 76.8100 1.246104 6909.00 6903.54 83.00
1418 76.8600 1.245419 6369.00 6501.13 79.00
1419 76.9100 1.244734 5672.00 5948.71 75.00
1420 76.9600 1.244051 5237.00 5384.34 72.00
1421 77.0100 1.243369 4997.00 4886.28 70.00
1422 77.0600 1.242687 4498.00 4466.09 67.00
1423 77.1100 1.242007 4101.00 4098.32 64.00
1424 77.1600 1.241327 3740.00 3758.62 61.00
1425 77.2100 1.240649 3405.00 3442.93 58.00
1426 77.2600 1.239971 3220.00 3165.21 56.00
1427 77.3100 1.239295 2916.00 2942.67 54.00
1428 77.3600 1.238619 2809.00 2783.07 53.00
1429 77.4100 1.237944 2618.00 2681.44 51.00
1430 77.4600 1.237271 2780.00 2624.21 52.00
1431 77.5100 1.236598 2592.00 2596.05 50.00
1432 77.5600 1.235927 2578.00 2584.60 50.00
1433 77.6100 1.235256 2648.00 2582.37 51.00
1434 77.6600 1.234586 2787.00 2586.59 52.00
1435 77.7100 1.233917 2697.00 2598.60 51.00
1436 77.7600 1.233249 2761.00 2623.28 52.00
1437 77.8100 1.232583 2823.00 2668.09 53.00
1438 77.8600 1.231917 2907.00 2740.74 53.00
1439 77.9100 1.231252 2862.00 2844.87 53.00
1440 77.9600 1.230588 3020.00 2974.89 54.00
1441 78.0100 1.229925 3215.00 3112.76 56.00
1442 78.0600 1.229262 3314.00 3230.94 57.00
1443 78.1100 1.228601 3492.00 3303.04 59.00
1444 78.1600 1.227941 3402.00 3321.05 58.00
1445 78.2100 1.227282 3420.00 3315.70 58.00
1446 78.2600 1.226623 3537.00 3377.94 59.00
1447 78.3100 1.225966 3757.00 3681.15 61.00
1448 78.3600 1.225309 4410.00 4496.30 66.00
1449 78.4100 1.224654 5831.00 6171.57 76.00
1450 78.4600 1.223999 8488.00 9038.95 92.00
1451 78.5100 1.223346 12623.00 13229.40 112.00
1452 78.5600 1.222693 18083.00 18466.50 134.00
1453 78.6100 1.222041 24031.00 23994.30 155.00
1454 78.6600 1.221390 29115.00 28771.00 170.00
1455 78.7100 1.220740 32509.00 31928.00 180.00
1456 78.7600 1.220091 33704.00 33208.20 183.00
1457 78.8100 1.219443 33168.00 33076.30 182.00
1458 78.8600 1.218796 32146.00 32351.30 179.00
1459 78.9100 1.218150 31468.00 31607.90 177.00
1460 78.9600 1.217504 30935.00 30794.20 175.00
1461 79.0100 1.216860 29841.00 29348.80 172.00
1462 79.0600 1.216216 27272.00 26703.40 165.00
1463 79.1100 1.215574 23556.00 22762.20 153.00
1464 79.1600 1.214932 18391.00 18021.80 135.00
1465 79.2100 1.214291 13470.00 13297.00 116.00
1466 79.2600 1.213651 9261.00 9317.80 96.00
1467 79.3100 1.213012 6271.00 6467.85 79.00
1468 79.3600 1.212374 4770.00 4770.51 69.00
1469 79.4100 1.211737 4217.00 4045.26 64.00
1470 79.4600 1.211101 4244.00 4065.98 65.00
1471 79.5100 1.210465 4831.00 4636.98 69.00
1472 79.5600 1.209831 5812.00 5574.65 76.00
1473 79.6100 1.209197 6879.00 6658.14 82.00
1474 79.6600 1.208565 7896.00 7613.49 88.00
1475 79.7100 1.207933 8457.00 8170.06 91.00
1476 79.7600 1.207302 8710.00 8157.43 93.00
1477 79.8100 1.206672 7826.00 7581.30 88.00
1478 79.8600 1.206043 6818.00 6619.77 82.00
1479 79.9100 1.205414 5482.00 5541.95 74.00
1480 79.9600 1.204787 4480.00 4597.21 66.00
1481 80.0100 1.204161 3852.00 3941.07 62.00
1482 80.0600 1.203535 3488.00 3616.29 59.00
1483 80.1100 1.202910 3629.00 3577.71 60.00
1484 80.1600 1.202286 3688.00 3728.81 60.00
1485 80.2100 1.201663 4033.00 3952.71 63.00
1486 80.2600 1.201041 4216.00 4138.61 64.00
1487 80.3100 1.200420 4379.00 4207.82 66.00
1488 80.3600 1.199800 4344.00 4135.61 65.00
1489 80.4100 1.199180 4149.00 3957.78 64.00
1490 80.4600 1.198562 3856.00 3757.02 62.00
1491 80.5100 1.197944 3785.00 3637.10 61.00
1492 80.5600 1.197327 3862.00 3700.19 62.00
1493 80.6100 1.196711 4102.00 4039.28 64.00
1494 80.6600 1.196096 4724.00 4741.62 68.00
1495 80.7100 1.195481 5696.00 5885.07 75.00
1496 80.7600 1.194868 7219.00 7503.58 84.00
1497 80.8100 1.194255 9310.00 9519.88 96.00
1498 80.8600 1.193644 11538.00 11681.10 107.00
1499 80.9100 1.193033 13507.00 13560.30 116.00
1500 80.9600 1.192423 14568.00 14671.80 120.00
1501 81.0100 1.191813 14765.00 14668.20 121.00
1502 81.0600 1.191205 13455.00 13511.90 115.00
1503 81.1100 1.190598 11542.00 11504.30 107.00
1504 81.1600 1.189991 9093.00 9151.61 95.00
1505 81.2100 1.189385 6879.00 6946.92 82.00
1506 81.2600 1.188780 5190.00 5207.47 72.00
1507 81.3100 1.188176 4101.00 4025.57 64.00
1508 81.3600 1.187573 3479.00 3327.28 58.00
1509 81.4100 1.186970 3027.00 2969.58 55.00
1510 81.4600 1.186369 2919.00 2814.52 54.00
1511 81.5100 1.185768 2748.00 2762.68 52.00
1512 81.5600 1.185168 2664.00 2754.38 51.00
1513 81.6100 1.184569 2832.00 2758.14 53.00
1514 81.6600 1.183971 2750.00 2759.49 52.00
1515 81.7100 1.183373 2683.00 2753.95 51.00
1516 81.7600 1.182777 2704.00 2743.25 52.00
1517 81.8100 1.182181 2670.00 2732.83 51.00
1518 81.8600 1.181586 2677.00 2729.76 51.00
1519 81.9100 1.180992 2636.00 2741.02 51.00
1520 81.9600 1.180398 2536.00 2771.65 50.00
1521 82.0100 1.179806 2678.00 2822.67 51.00
1522 82.0600 1.179214 2800.00 2888.89 52.00
1523 82.1100 1.178623 2827.00 2958.22 53.00
1524 82.1600 1.178033 2929.00 3013.99 54.00
1525 82.2100 1.177444 2834.00 3040.82 53.00
1526 82.2600 1.176856 2917.00 3031.51 54.00
1527 82.3100 1.176268 2897.00 2991.76 53.00
1528 82.3600 1.175681 2884.00 2940.86 53.00
1529 82.4100 1.175095 2873.00 2911.03 53.00
1530 82.4600 1.174510 2901.00 2949.20 53.00
1531 82.5100 1.173926 3112.00 3123.01 55.00
1532 82.5600 1.173342 3443.00 3524.00 58.00
1533 82.6100 1.172759 4006.00 4254.88 63.00
1534 82.6600 1.172177 5069.00 5387.57 71.00
1535 82.7100 1.171596 6638.00 6898.90 81.00
1536 82.7600 1.171016 8552.00 8613.38 92.00
1537 82.8100 1.170436 10384.00 10206.10 101.00
1538 82.8600 1.169858 11705.00 11291.10 108.00
1539 82.9100 1.169279 12032.00 11570.20 109.00
1540 82.9600 1.168702 11553.00 10966.60 107.00
1541 83.0100 1.168126 9966.00 9658.88 99.00
1542 83.0600 1.167550 8102.00 7997.09 90.00
1543 83.1100 1.166976 6294.00 6353.15 79.00
1544 83.1600 1.166401 4958.00 4998.17 70.00
1545 83.2100 1.165828 4069.00 4052.99 63.00
1546 83.2600 1.165256 3468.00 3518.88 58.00
1547 83.3100 1.164684 3332.00 3338.49 57.00
1548 83.3600 1.164113 3434.00 3444.96 58.00
1549 83.4100 1.163543 3842.00 3776.24 61.00
1550 83.4600 1.162974 4129.00 4260.78 64.00
1551 83.5100 1.162405 4715.00 4798.26 68.00
1552 83.5600 1.161838 5284.00 5260.66 72.00
1553 83.6100 1.161270 5542.00 5522.85 74.00
1554 83.6600 1.160704 5610.00 5508.21 74.00
1555 83.7100 1.160139 5339.00 5221.67 73.00
1556 83.7600 1.159574 4671.00 4746.49 68.00
1557 83.8100 1.159010 4081.00 4205.84 63.00
1558 83.8600 1.158447 3544.00 3711.96 59.00
1559 83.9100 1.157885 3166.00 3331.73 56.00
1560 83.9600 1.157323 2907.00 3079.75 53.00
1561 84.0100 1.156762 2841.00 2934.82 53.00
1562 84.0600 1.156202 2790.00 2862.76 52.00
1563 84.1100 1.155643 2836.00 2834.61 53.00
1564 84.1600 1.155084 2809.00 2835.84 53.00
1565 84.2100 1.154526 2867.00 2869.32 53.00
1566 84.2600 1.153969 2936.00 2955.46 54.00
1567 84.3100 1.153413 3149.00 3130.76 56.00
1568 84.3600 1.152858 3455.00 3444.15 58.00
1569 84.4100 1.152303 3939.00 3949.08 62.00
1570 84.4600 1.151749 4584.00 4693.07 67.00
1571 84.5100 1.151196 5648.00 5704.47 75.00
1572 84.5600 1.150643 6835.00 6977.96 82.00
1573 84.6100 1.150091 8353.00 8457.52 91.00
1574 84.6600 1.149540 9998.00 10016.00 99.00
1575 84.7100 1.148990 11437.00 11449.70 106.00
1576 84.7600 1.148440 12693.00 12498.50 112.00
1577 84.8100 1.147892 13109.00 12915.30 114.00
1578 84.8600 1.147344 12647.00 12558.60 112.00
1579 84.9100 1.146796 11536.00 11464.40 107.00
1580 84.9600 1.146250 9944.00 9849.63 99.00
1581 85.0100 1.145704 8063.00 8036.86 89.00
1582 85.0600 1.145159 6486.00 6340.21 80.00
1583 85.1100 1.144614 5079.00 4970.25 71.00
1584 85.1600 1.144071 4184.00 4003.14 64.00
1585 85.2100 1.143528 3521.00 3406.10 59.00
1586 85.2600 1.142986 3158.00 3093.29 56.00
1587 85.3100 1.142444 3035.00 2974.26 55.00
1588 85.3600 1.141904 3060.00 2980.82 55.00
1589 85.4100 1.141364 3053.00 3073.14 55.00
1590 85.4600 1.140824 3012.00 3236.68 54.00
1591 85.5100 1.140286 3296.00 3479.24 57.00
1592 85.5600 1.139748 3775.00 3828.51 61.00
1593 85.6100 1.139211 4134.00 4323.63 64.00
1594 85.6600 1.138675 4855.00 4992.42 69.00
1595 85.7100 1.138139 5737.00 5821.23 75.00
1596 85.7600 1.137604 6537.00 6733.48 80.00
1597 85.8100 1.137070 7480.00 7600.20 86.00
1598 85.8600 1.136537 8082.00 8284.10 89.00
1599 85.9100 1.136004 8582.00 8690.93 92.00
1600 85.9600 1.135472 8519.00 8795.80 92.00
1601 86.0100 1.134941 8284.00 8628.15 91.00
1602 86.0600 1.134410 8075.00 8239.76 89.00
1603 86.1100 1.133880 7659.00 7689.51 87.00
1604 86.1600 1.133351 7173.00 7061.65 84.00
1605 86.2100 1.132822 6625.00 6496.30 81.00
1606 86.2600 1.132295 6651.00 6198.70 81.00
1607 86.3100 1.131768 6867.00 6403.71 82.00
1608 86.3600 1.131241 7503.00 7298.80 86.00
1609 86.4100 1.130716 8878.00 8931.38 94.00
1610 86.4600 1.130191 10759.00 11141.20 103.00
1611 86.5100 1.129666 12784.00 13556.50 113.00
1612 86.5600 1.129143 15062.00 15679.10 122.00
1613 86.6100 1.128620 16379.00 17039.10 127.00
1614 86.6600 1.128098 17181.00 17344.20 131.00
1615 86.7100 1.127576 16432.00 16562.80 128.00
1616 86.7600 1.127056 14884.00 14901.80 122.00
1617 86.8100 1.126536 12840.00 12710.10 113.00
1618 86.8600 1.126016 10333.00 10361.00 101.00
1619 86.9100 1.125498 7973.00 8167.53 89.00
1620 86.9600 1.124980 6148.00 6333.38 78.00
1621 87.0100 1.124462 4893.00 4946.06 69.00
1622 87.0600 1.123946 3968.00 3994.09 62.00
1623 87.1100 1.123430 3341.00 3401.52 57.00
1624 87.1600 1.122915 3012.00 3067.74 54.00
1625 87.2100 1.122400 2922.00 2897.84 54.00
1626 87.2600 1.121886 2880.00 2820.00 53.00
1627 87.3100 1.121373 2732.00 2788.08 52.00
1628 87.3600 1.120861 2737.00 2776.56 52.00
1629 87.4100 1.120349 2664.00 2773.17 51.00
1630 87.4600 1.119838 2695.00 2772.76 51.00
1631 87.5100 1.119327 2687.00 2773.56 51.00
1632 87.5600 1.118818 2690.00 2775.43 51.00
1633 87.6100 1.118309 2711.00 2779.18 52.00
1634 87.6600 1.117800 2702.00 2786.61 51.00
1635 87.7100 1.117292 2702.00 2800.55 51.00
1636 87.7600 1.116785 2830.00 2824.49 53.00
1637 87.8100 1.116279 2799.00 2861.64 52.00
1638 87.8600 1.115773 2912.00 2913.58 53.00
1639 87.9100 1.115268 3078.00 2979.87 55.00
1640 87.9600 1.114764 3164.00 3061.14 56.00
1641 88.0100 1.114260 3345.00 3167.96 57.00
1642 88.0600 1.113757 3566.00 3336.76 59.00
1643 88.1100 1.113255 4159.00 3648.76 64.00
1644 88.1600 1.112753 4813.00 4241.50 69.00
1645 88.2100 1.112252 5996.00 5296.45 77.00
1646 88.2600 1.111751 7421.00 6985.45 86.00
1647 88.3100 1.111252 9591.00 9376.28 97.00
1648 88.3600 1.110753 12270.00 12329.50 110.00
1649 88.4100 1.110254 15376.00 15444.20 124.00
1650 88.4600 1.109757 17720.00 18126.30 133.00
1651 88.5100 1.109259 19354.00 19771.50 139.00
1652 88.5600 1.108763 19848.00 20006.70 140.00
1653 88.6100 1.108267 18752.00 18844.30 136.00
1654 88.6600 1.107772 16668.00 16662.40 129.00
1655 88.7100 1.107278 14116.00 14019.60 118.00
1656 88.7600 1.106784 11504.00 11423.90 107.00
1657 88.8100 1.106291 9126.00 9184.31 95.00
1658 88.8600 1.105798 7341.00 7394.36 85.00
1659 88.9100 1.105306 6045.00 6015.30 77.00
1660 88.9600 1.104815 5141.00 4968.39 71.00
1661 89.0100 1.104325 4205.00 4188.93 64.00
1662 89.0600 1.103835 3580.00 3632.37 59.00
1663 89.1100 1.103345 3303.00 3260.73 57.00
1664 89.1600 1.102857 2934.00 3034.16 54.00
1665 89.2100 1.102369 3053.00 2912.18 55.00
1666 89.2600 1.101881 2940.00 2861.96 54.00
1667 89.3100 1.101395 2844.00 2865.56 53.00
1668 89.3600 1.100909 2913.00 2923.43 53.00
1669 89.4100 1.100423 3145.00 3053.43 56.00
1670 89.4600 1.099938 3234.00 3284.42 56.00
1671 89.5100 1.099454 3578.00 3642.94 59.00
1672 89.5600 1.098971 4023.00 4133.96 63.00
1673 89.6100 1.098488 4775.00 4722.12 69.00
1674 89.6600 1.098005 5345.00 5323.80 73.00
1675 89.7100 1.097524 5738.00 5822.19 75.00
1676 89.7600 1.097043 6075.00 6101.81 77.00
1677 89.8100 1.096562 5985.00 6092.24 77.00
1678 89.8600 1.096083 5886.00 5796.61 76.00
1679 89.9100 1.095604 5387.00 5290.13 73.00
1680 89.9600 1.095125 4656.00 4689.30 68.00
1681 90.0100 1.094647 4205.00 4109.80 64.00
1682 90.0600 1.094170 3624.00 3633.20 60.00
1683 90.1100 1.093693 3271.00 3297.36 57.00
1684 90.1600 1.093217 3166.00 3109.15 56.00
1685 90.2100 1.092742 3197.00 3069.61 56.00
1686 90.2600 1.092267 3265.00 3199.84 57.00
1687 90.3100 1.091793 3580.00 3555.46 59.00
1688 90.3600 1.091320 4177.00 4220.76 64.00
1689 90.4100 1.090847 5285.00 5273.57 72.00
1690 90.4600 1.090374 6677.00 6727.12 81.00
1691 90.5100 1.089903 8473.00 8467.58 92.00
1692 90.5600 1.089432 10460.00 10230.00 102.00
1693 90.6100 1.088961 11891.00 11646.70 109.00
1694 90.6600 1.088492 12452.00 12366.50 111.00
1695 90.7100 1.088022 12553.00 12194.90 112.00
1696 90.7600 1.087554 11472.00 11180.70 107.00
1697 90.8100 1.087086 9977.00 9596.50 99.00
1698 90.8600 1.086618 7955.00 7826.20 89.00
1699 90.9100 1.086152 6156.00 6228.16 78.00
1700 90.9600 1.085685 4937.00 5038.97 70.00
1701 91.0100 1.085220 4290.00 4356.22 65.00
1702 91.0600 1.084755 4150.00 4169.37 64.00
1703 91.1100 1.084291 4411.00 4402.93 66.00
1704 91.1600 1.083827 4894.00 4940.02 69.00
1705 91.2100 1.083364 5475.00 5628.10 73.00
1706 91.2600 1.082901 6136.00 6288.11 78.00
1707 91.3100 1.082439 6555.00 6747.04 80.00
1708 91.3600 1.081978 6650.00 6887.03 81.00
1709 91.4100 1.081517 6369.00 6685.90 79.00
1710 91.4600 1.081057 5916.00 6220.57 76.00
1711 91.5100 1.080598 5432.00 5627.38 73.00
1712 91.5600 1.080139 5078.00 5041.61 71.00
1713 91.6100 1.079680 4605.00 4549.45 67.00
1714 91.6600 1.079223 4255.00 4176.42 65.00
1715 91.7100 1.078766 4121.00 3905.60 64.00
1716 91.7600 1.078309 3791.00 3708.08 61.00
1717 91.8100 1.077853 3640.00 3563.38 60.00
1718 91.8600 1.077398 3619.00 3463.12 60.00
1719 91.9100 1.076943 3377.00 3404.22 58.00
1720 91.9600 1.076489 3404.00 3382.72 58.00
1721 92.0100 1.076035 3485.00 3395.53 59.00
1722 92.0600 1.075582 3488.00 3449.11 59.00
1723 92.1100 1.075130 3575.00 3568.65 59.00
1724 92.1600 1.074678 3887.00 3801.19 62.00
1725 92.2100 1.074226 4285.00 4209.93 65.00
1726 92.2600 1.073776 4808.00 4861.58 69.00
1727 92.3100 1.073326 5586.00 5809.01 74.00
1728 92.3600 1.072876 6701.00 7071.83 81.00
1729 92.4100 1.072427 8282.00 8611.54 91.00
1730 92.4600 1.071979 9854.00 10309.10 99.00
1731 92.5100 1.071531 11616.00 11952.80 107.00
1732 92.5600 1.071084 13115.00 13263.00 114.00
1733 92.6100 1.070637 13854.00 13957.50 117.00
1734 92.6600 1.070191 14032.00 13846.90 118.00
1735 92.7100 1.069746 12931.00 12916.70 113.00
1736 92.7600 1.069301 11482.00 11350.30 107.00
1737 92.8100 1.068856 9493.00 9477.03 97.00
1738 92.8600 1.068413 7585.00 7669.47 87.00
1739 92.9100 1.067969 6293.00 6250.09 79.00
1740 92.9600 1.067527 5564.00 5436.40 74.00
1741 93.0100 1.067085 5355.00 5336.77 73.00
1742 93.0600 1.066643 5954.00 5960.09 77.00
1743 93.1100 1.066202 7333.00 7212.50 85.00
1744 93.1600 1.065762 8949.00 8877.32 94.00
1745 93.2100 1.065322 10949.00 10615.90 104.00
1746 93.2600 1.064883 12526.00 12020.40 111.00
1747 93.3100 1.064444 13318.00 12733.00 115.00
1748 93.3600 1.064006 13066.00 12580.50 114.00
1749 93.4100 1.063569 12016.00 11651.10 109.00
1750 93.4600 1.063132 10526.00 10267.70 102.00
1751 93.5100 1.062695 8736.00 8867.58 93.00
1752 93.5600 1.062260 7513.00 7850.70 86.00
1753 93.6100 1.061824 7256.00 7460.09 85.00
1754 93.6600 1.061390 7577.00 7732.37 87.00
1755 93.7100 1.060955 8327.00 8510.96 91.00
1756 93.7600 1.060522 9498.00 9504.01 97.00
1757 93.8100 1.060089 10331.00 10369.70 101.00
1758 93.8600 1.059656 10916.00 10814.50 104.00
1759 93.9100 1.059224 10717.00 10678.40 103.00
1760 93.9600 1.058793 9911.00 9982.24 99.00
1761 94.0100 1.058362 9019.00 8912.11 94.00
1762 94.0600 1.057932 7809.00 7750.15 88.00
1763 94.1100 1.057502 6885.00 6782.17 82.00
1764 94.1600 1.057073 6357.00 6224.56 79.00
1765 94.2100 1.056644 6333.00 6192.05 79.00
1766 94.2600 1.056216 6919.00 6703.08 83.00
1767 94.3100 1.055789 7827.00 7699.05 88.00
1768 94.3600 1.055362 9159.00 9055.64 95.00
1769 94.4100 1.054935 10640.00 10578.60 103.00
1770 94.4600 1.054509 11993.00 12007.50 109.00
1771 94.5100 1.054084 12941.00 13045.10 113.00
1772 94.5600 1.053659 13197.00 13432.10 114.00
1773 94.6100 1.053235 12785.00 13035.70 113.00
1774 94.6600 1.052811 11667.00 11908.40 108.00
1775 94.7100 1.052388 10039.00 10278.50 100.00
1776 94.7600 1.051965 8379.00 8472.66 91.00
1777 94.8100 1.051543 6754.00 6813.04 82.00
1778 94.8600 1.051122 5498.00 5533.77 74.00
1779 94.9100 1.050701 4734.00 4752.40 68.00
1780 94.9600 1.050280 4436.00 4481.76 66.00
1781 95.0100 1.049860 4556.00 4659.66 67.00
1782 95.0600 1.049441 5155.00 5169.33 71.00
1783 95.1100 1.049022 6000.00 5851.14 77.00
1784 95.1600 1.048604 6730.00 6516.87 82.00
1785 95.2100 1.048186 7192.00 6984.54 84.00
1786 95.2600 1.047768 7328.00 7127.92 85.00
1787 95.3100 1.047352 7259.00 6922.68 85.00
1788 95.3600 1.046935 6695.00 6462.33 81.00
1789 95.4100 1.046520 6107.00 5933.92 78.00
1790 95.4600 1.046105 5660.00 5562.73 75.00
1791 95.5100 1.045690 5647.00 5546.82 75.00
1792 95.5600 1.045276 6023.00 5999.62 77.00
1793 95.6100 1.044862 6983.00 6914.69 83.00
1794 95.6600 1.044449 8374.00 8163.18 91.00
1795 95.7100 1.044037 10009.00 9541.06 100.00
1796 95.7600 1.043625 11540.00 10863.00 107.00
1797 95.8100 1.043213 12652.00 12082.40 112.00
1798 95.8600 1.042802 13461.00 13370.10 116.00
1799 95.9100 1.042392 14909.00 15082.00 122.00
1800 95.9600 1.041982 17203.00 17593.10 131.00
1801 96.0100 1.041572 20712.00 21051.00 143.00
1802 96.0600 1.041164 25116.00 25185.40 158.00
1803 96.1100 1.040755 29752.00 29304.60 172.00
1804 96.1600 1.040347 32922.00 32520.20 181.00
1805 96.2100 1.039940 34542.00 34109.80 185.00
1806 96.2600 1.039533 33963.00 33808.10 184.00
1807 96.3100 1.039127 31637.00 31871.50 177.00
1808 96.3600 1.038721 28532.00 28884.20 168.00
1809 96.4100 1.038316 25315.00 25458.80 159.00
1810 96.4600 1.037911 22077.00 22005.30 148.00
1811 96.5100 1.037507 19416.00 18691.70 139.00
1812 96.5600 1.037103 16302.00 15547.60 127.00
1813 96.6100 1.036700 13343.00 12598.50 115.00
1814 96.6600 1.036297 10422.00 9931.67 102.00
1815 96.7100 1.035895 7912.00 7670.84 88.00
1816 96.7600 1.035493 6228.00 5913.01 78.00
1817 96.8100 1.035092 4863.00 4680.90 69.00
1818 96.8600 1.034692 4181.00 3920.34 64.00
1819 96.9100 1.034292 3723.00 3531.25 61.00
1820 96.9600 1.033892 3700.00 3403.58 60.00
1821 97.0100 1.033493 3695.00 3444.45 60.00
1822 97.0600 1.033094 3804.00 3590.44 61.00
1823 97.1100 1.032696 4022.00 3812.05 63.00
1824 97.1600 1.032298 4316.00 4112.53 65.00
1825 97.2100 1.031901 4714.00 4519.92 68.00
1826 97.2600 1.031505 5298.00 5069.25 72.00
1827 97.3100 1.031108 6121.00 5780.36 78.00
1828 97.3600 1.030713 7132.00 6643.96 84.00
1829 97.4100 1.030318 8271.00 7630.64 90.00
1830 97.4600 1.029923 9471.00 8725.34 97.00
1831 97.5100 1.029529 10642.00 9962.74 103.00
1832 97.5600 1.029135 12005.00 11430.40 109.00
1833 97.6100 1.028742 13221.00 13215.90 114.00
1834 97.6600 1.028349 15134.00 15306.80 123.00
1835 97.7100 1.027957 16818.00 17507.10 129.00
1836 97.7600 1.027566 18438.00 19427.40 135.00
1837 97.8100 1.027174 19421.00 20589.80 139.00
1838 97.8600 1.026784 19516.00 20607.50 139.00
1839 97.9100 1.026394 18688.00 19352.20 136.00
1840 97.9600 1.026004 16694.00 17020.80 129.00
1841 98.0100 1.025615 14258.00 14063.90 119.00
1842 98.0600 1.025226 11171.00 11018.90 105.00
1843 98.1100 1.024838 8477.00 8332.01 92.00
1844 98.1600 1.024450 6417.00 6255.03 80.00
1845 98.2100 1.024063 4961.00 4831.74 70.00
1846 98.2600 1.023676 4046.00 3962.82 63.00
1847 98.3100 1.023290 3591.00 3486.79 59.00
1848 98.3600 1.022904 3251.00 3247.16 57.00
1849 98.4100 1.022519 3158.00 3127.44 56.00
1850 98.4600 1.022134 3074.00 3057.56 55.00
1851 98.5100 1.021750 2955.00 3005.20 54.00
1852 98.5600 1.021366 2907.00 2962.49 53.00
1853 98.6100 1.020983 2874.00 2934.96 53.00
1854 98.6600 1.020600 2805.00 2935.20 52.00
1855 98.7100 1.020217 2769.00 2980.33 52.00
1856 98.7600 1.019835 2923.00 3090.57 54.00
1857 98.8100 1.019454 3123.00 3285.41 55.00
1858 98.8600 1.019073 3404.00 3575.44 58.00
1859 98.9100 1.018692 3674.00 3950.51 60.00
1860 98.9600 1.018312 4221.00 4371.00 64.00
1861 99.0100 1.017933 4572.00 4768.41 67.00
1862 99.0600 1.017554 4854.00 5060.96 69.00
1863 99.1100 1.017175 5097.00 5180.23 71.00
1864 99.1600 1.016797 4829.00 5096.98 69.00
1865 99.2100 1.016420 4555.00 4833.49 67.00
1866 99.2600 1.016043 4368.00 4455.62 66.00
1867 99.3100 1.015666 3996.00 4049.02 63.00
1868 99.3600 1.015290 3576.00 3691.92 59.00
1869 99.4100 1.014914 3411.00 3437.32 58.00
1870 99.4600 1.014539 3321.00 3307.76 57.00
1871 99.5100 1.014164 3283.00 3301.10 57.00
1872 99.5600 1.013790 3366.00 3400.37 58.00
1873 99.6100 1.013416 3588.00 3584.61 59.00
1874 99.6600 1.013042 3863.00 3839.79 62.00
1875 99.7100 1.012669 4267.00 4169.71 65.00
1876 99.7600 1.012297 4612.00 4601.82 67.00
1877 99.8100 1.011925 5169.00 5181.42 71.00
1878 99.8600 1.011554 5783.00 5948.38 76.00
1879 99.9100 1.011182 6851.00 6902.65 82.00
1880 99.9600 1.010812 7962.00 7978.80 89.00
1881 100.0100 1.010442 9022.00 9050.03 94.00
1882 100.0600 1.010072 9997.00 9973.66 99.00
1883 100.1100 1.009703 10621.00 10659.90 103.00
1884 100.1600 1.009334 11237.00 11119.90 106.00
1885 100.2100 1.008966 11074.00 11461.40 105.00
1886 100.2600 1.008598 11261.00 11817.80 106.00
1887 100.3100 1.008231 11962.00 12252.20 109.00
1888 100.3600 1.007864 12833.00 12693.50 113.00
1889 100.4100 1.007497 13246.00 12950.40 115.00
1890 100.4600 1.007132 13274.00 12800.70 115.00
1891 100.5100 1.006766 12421.00 12105.60 111.00
1892 100.5600 1.006401 11088.00 10884.80 105.00
1893 100.6100 1.006036 9233.00 9311.96 96.00
1894 100.6600 1.005672 7449.00 7643.68 86.00
1895 100.7100 1.005309 5860.00 6121.47 76.00
1896 100.7600 1.004945 4744.00 4901.91 68.00
1897 100.8100 1.004583 3878.00 4036.12 62.00
1898 100.8600 1.004220 3479.00 3490.62 58.00
1899 100.9100 1.003858 3215.00 3188.94 56.00
1900 100.9600 1.003497 3035.00 3047.27 55.00
1901 101.0100 1.003136 3046.00 2996.18 55.00
1902 101.0600 1.002775 3055.00 2987.33 55.00
1903 101.1100 1.002415 2983.00 2992.12 54.00
1904 101.1600 1.002056 2999.00 2997.29 54.00
1905 101.2100 1.001697 2930.00 2999.94 54.00
1906 101.2600 1.001338 2926.00 3002.73 54.00
1907 101.3100 1.000980 2928.00 3009.27 54.00
1908 101.3600 1.000622 2862.00 3020.58 53.00
1909 101.4100 1.000264 2862.00 3033.56 53.00
1910 101.4600 0.999907 2825.00 3042.06 53.00
1911 101.5100 0.999551 2870.00 3039.70 53.00
1912 101.5600 0.999195 3006.00 3023.10 54.00
1913 101.6100 0.998839 2945.00 2993.70 54.00
1914 101.6600 0.998484 2807.00 2957.53 52.00
1915 101.7100 0.998129 2814.00 2923.55 53.00
1916 101.7600 0.997775 2799.00 2901.92 52.00
1917 101.8100 0.997421 2857.00 2903.67 53.00
1918 101.8600 0.997068 2944.00 2942.41 54.00
1919 101.9100 0.996715 2984.00 3037.49 54.00
1920 101.9600 0.996362 2991.00 3216.64 54.00
1921 102.0100 0.996010 3433.00 3514.93 58.00
1922 102.0600 0.995659 3887.00 3966.50 62.00
1923 102.1100 0.995307 4489.00 4588.68 67.00
1924 102.1600 0.994957 5131.00 5361.16 71.00
1925 102.2100 0.994606 6051.00 6211.55 77.00
1926 102.2600 0.994256 6921.00 7016.67 83.00
1927 102.3100 0.993907 7621.00 7628.23 87.00
1928 102.3600 0.993558 7920.00 7917.06 88.00
1929 102.4100 0.993209 7986.00 7816.60 89.00
1930 102.4600 0.992861 7284.00 7348.02 85.00
1931 102.5100 0.992513 6517.00 6612.45 80.00
1932 102.5600 0.992166 5649.00 5755.25 75.00
1933 102.6100 0.991819 4806.00 4919.39 69.00
1934 102.6600 0.991473 4051.00 4209.27 63.00
1935 102.7100 0.991127 3671.00 3675.66 60.00
1936 102.7600 0.990781 3260.00 3321.72 57.00
1937 102.8100 0.990436 3038.00 3120.16 55.00
1938 102.8600 0.990091 2950.00 3031.30 54.00
1939 102.9100 0.989747 2934.00 3015.62 54.00
1940 102.9600 0.989403 2889.00 3039.33 53.00
1941 103.0100 0.989060 3038.00 3076.24 55.00
1942 103.0600 0.988717 3116.00 3108.82 55.00
1943 103.1100 0.988374 3116.00 3130.25 55.00
1944 103.1600 0.988032 3151.00 3147.07 56.00
1945 103.2100 0.987690 3091.00 3181.05 55.00
1946 103.2600 0.987349 3125.00 3268.09 55.00
1947 103.3100 0.987008 3304.00 3452.78 57.00
1948 103.3600 0.986668 3629.00 3776.99 60.00
1949 103.4100 0.986328 4059.00 4263.15 63.00
1950 103.4600 0.985988 4738.00 4896.53 68.00
1951 103.5100 0.985649 5527.00 5613.20 74.00
1952 103.5600 0.985310 6254.00 6304.11 79.00
1953 103.6100 0.984972 6940.00 6840.31 83.00
1954 103.6600 0.984634 7440.00 7111.42 86.00
1955 103.7100 0.984296 7092.00 7066.34 84.00
1956 103.7600 0.983959 6776.00 6733.94 82.00
1957 103.8100 0.983623 6155.00 6215.48 78.00
1958 103.8600 0.983286 5627.00 5651.47 75.00
1959 103.9100 0.982950 5208.00 5180.60 72.00
1960 103.9600 0.982615 4999.00 4908.61 70.00
1961 104.0100 0.982280 4977.00 4897.14 70.00
1962 104.0600 0.981945 5382.00 5168.47 73.00
1963 104.1100 0.981611 5753.00 5714.44 75.00
1964 104.1600 0.981278 6611.00 6496.58 81.00
1965 104.2100 0.980944 7476.00 7437.95 86.00
1966 104.2600 0.980611 8545.00 8412.82 92.00
1967 104.3100 0.980279 9431.00 9254.29 97.00
1968 104.3600 0.979947 10059.00 9786.78 100.00
1969 104.4100 0.979615 10334.00 9876.05 101.00
1970 104.4600 0.979284 9695.00 9477.28 98.00
1971 104.5100 0.978953 8490.00 8654.68 92.00
1972 104.5600 0.978622 7470.00 7561.29 86.00
1973 104.6100 0.978292 6119.00 6388.30 78.00
1974 104.6600 0.977962 5171.00 5308.15 71.00
1975 104.7100 0.977633 4378.00 4433.11 66.00
1976 104.7600 0.977304 3748.00 3804.68 61.00
1977 104.8100 0.976976 3370.00 3406.15 58.00
1978 104.8600 0.976648 3316.00 3187.12 57.00
1979 104.9100 0.976320 3196.00 3087.86 56.00
1980 104.9600 0.975993 3151.00 3054.67 56.00
1981 105.0100 0.975666 3125.00 3047.80 55.00
1982 105.0600 0.975340 3148.00 3043.44 56.00
1983 105.1100 0.975014 3013.00 3032.84 54.00
1984 105.1600 0.974688 3058.00 3019.97 55.00
1985 105.2100 0.974363 3024.00 3018.16 54.00
1986 105.2600 0.974038 2949.00 3045.81 54.00
1987 105.3100 0.973714 3019.00 3120.99 54.00
1988 105.3600 0.973390 3090.00 3255.40 55.00
1989 105.4100 0.973066 3378.00 3448.20 58.00
1990 105.4600 0.972743 3644.00 3682.12 60.00
1991 105.5100 0.972420 3783.00 3923.31 61.00
1992 105.5600 0.972098 4027.00 4127.74 63.00
1993 105.6100 0.971776 4110.00 4252.94 64.00
1994 105.6600 0.971455 4102.00 4271.00 64.00
1995 105.7100 0.971133 3875.00 4177.80 62.00
1996 105.7600 0.970812 3755.00 3994.04 61.00
1997 105.8100 0.970492 3574.00 3757.67 59.00
1998 105.8600 0.970172 3405.00 3511.63 58.00
1999 105.9100 0.969852 3225.00 3292.52 56.00
2000 105.9600 0.969533 3103.00 3123.67 55.00
2001 106.0100 0.969214 2890.00 3014.47 53.00
2002 106.0600 0.968896 2934.00 2963.34 54.00
2003 106.1100 0.968578 2895.00 2961.71 53.00
2004 106.1600 0.968260 2950.00 2997.18 54.00
2005 106.2100 0.967943 2973.00 3055.05 54.00
2006 106.2600 0.967626 3069.00 3119.33 55.00
2007 106.3100 0.967310 3121.00 3174.18 55.00
2008 106.3600 0.966994 3179.00 3206.29 56.00
2009 106.4100 0.966678 3254.00 3207.54 57.00
2010 106.4600 0.966363 3239.00 3176.84 56.00
2011 106.5100 0.966048 3172.00 3119.99 56.00
2012 106.5600 0.965733 3046.00 3047.61 55.00
2013 106.6100 0.965419 2943.00 2971.71 54.00
2014 106.6600 0.965106 2870.00 2902.50 53.00
2015 106.7100 0.964792 2750.00 2846.54 52.00
2016 106.7600 0.964479 2778.00 2806.63 52.00
2017 106.8100 0.964167 2781.00 2783.62 52.00
2018 106.8600 0.963854 2851.00 2779.22 53.00
2019 106.9100 0.963543 2805.00 2800.01 52.00
2020 106.9600 0.963231 2984.00 2862.14 54.00
2021 107.0100 0.962920 3234.00 2996.01 56.00
2022 107.0600 0.962610 3607.00 3249.47 60.00
2023 107.1100 0.962299 3952.00 3685.56 62.00
2024 107.1600 0.961989 4704.00 4370.51 68.00
2025 107.2100 0.961680 5399.00 5350.63 73.00
2026 107.2600 0.961371 6590.00 6619.84 81.00
2027 107.3100 0.961062 8102.00 8090.95 90.00
2028 107.3600 0.960754 9505.00 9588.85 97.00
2029 107.4100 0.960446 11290.00 10873.40 106.00
2030 107.4600 0.960138 12295.00 11701.10 110.00
2031 107.5100 0.959831 12584.00 11898.60 112.00
2032 107.5600 0.959524 11954.00 11422.50 109.00
2033 107.6100 0.959218 10546.00 10374.10 102.00
2034 107.6600 0.958912 9148.00 8965.56 95.00
2035 107.7100 0.958606 7250.00 7448.45 85.00
2036 107.7600 0.958301 5850.00 6044.22 76.00
2037 107.8100 0.957996 4712.00 4895.74 68.00
2038 107.8600 0.957691 4055.00 4056.88 63.00
2039 107.9100 0.957387 3636.00 3513.14 60.00
2040 107.9600 0.957083 3390.00 3213.30 58.00
2041 108.0100 0.956780 3162.00 3099.14 56.00
2042 108.0600 0.956477 3318.00 3121.95 57.00
2043 108.1100 0.956174 3374.00 3245.79 58.00
2044 108.1600 0.955871 3594.00 3441.79 59.00
2045 108.2100 0.955570 3701.00 3680.15 60.00
2046 108.2600 0.955268 3938.00 3924.71 62.00
2047 108.3100 0.954967 4226.00 4134.10 65.00
2048 108.3600 0.954666 4327.00 4269.04 65.00
2049 108.4100 0.954365 4401.00 4302.10 66.00
2050 108.4600 0.954065 4226.00 4226.13 65.00
2051 108.5100 0.953766 4084.00 4056.33 63.00
2052 108.5600 0.953466 3837.00 3825.20 61.00
2053 108.6100 0.953167 3593.00 3572.20 59.00
2054 108.6600 0.952869 3335.00 3332.99 57.00
2055 108.7100 0.952570 3171.00 3131.74 56.00
2056 108.7600 0.952273 3135.00 2978.89 55.00
2057 108.8100 0.951975 2888.00 2873.30 53.00
2058 108.8600 0.951678 2869.00 2806.91 53.00
2059 108.9100 0.951381 2801.00 2769.60 52.00
2060 108.9600 0.951085 2784.00 2752.47 52.00
2061 109.0100 0.950789 2651.00 2749.61 51.00
2062 109.0600 0.950493 2742.00 2758.31 52.00
2063 109.1100 0.950198 2723.00 2778.63 52.00
2064 109.1600 0.949903 2842.00 2812.65 53.00
2065 109.2100 0.949608 2899.00 2863.96 53.00
2066 109.2600 0.949314 3001.00 2937.60 54.00
2067 109.3100 0.949020 3171.00 3040.35 56.00
2068 109.3600 0.948727 3271.00 3181.33 57.00
2069 109.4100 0.948433 3335.00 3371.62 57.00
2070 109.4600 0.948141 3755.00 3622.27 61.00
2071 109.5100 0.947848 3938.00 3939.59 62.00
2072 109.5600 0.947556 4413.00 4318.78 66.00
2073 109.6100 0.947265 4659.00 4738.38 68.00
2074 109.6600 0.946973 5101.00 5157.76 71.00
2075 109.7100 0.946682 5444.00 5522.64 73.00
2076 109.7600 0.946392 5641.00 5776.87 75.00
2077 109.8100 0.946101 5843.00 5878.84 76.00
2078 109.8600 0.945811 5787.00 5815.42 76.00
2079 109.9100 0.945522 5736.00 5607.52 75.00
2080 109.9600 0.945233 5516.00 5304.48 74.00
2081 110.0100 0.944944 5207.00 4969.60 72.00
2082 110.0600 0.944655 4889.00 4662.71 69.00
2083 110.1100 0.944367 4523.00 4426.99 67.00
2084 110.1600 0.944080 4343.00 4284.40 65.00
2085 110.2100 0.943792 4392.00 4238.52 66.00
2086 110.2600 0.943505 4591.00 4281.67 67.00
2087 110.3100 0.943218 4602.00 4400.72 67.00
2088 110.3600 0.942932 4711.00 4579.42 68.00
2089 110.4100 0.942646 4883.00 4796.62 69.00
2090 110.4600 0.942360 4897.00 5023.81 69.00
2091 110.5100 0.942075 4959.00 5224.51 70.00
2092 110.5600 0.941790 5018.00 5359.09 70.00
2093 110.6100 0.941506 5131.00 5394.22 71.00
2094 110.6600 0.941221 4989.00 5314.52 70.00
2095 110.7100 0.940938 4938.00 5131.42 70.00
2096 110.7600 0.940654 4851.00 4884.58 69.00
2097 110.8100 0.940371 4739.00 4633.99 68.00
2098 110.8600 0.940088 4540.00 4444.18 67.00
2099 110.9100 0.939805 4503.00 4366.28 67.00
2100 110.9600 0.939523 4559.00 4422.33 67.00
2101 111.0100 0.939242 4802.00 4597.96 69.00
2102 111.0600 0.938960 4941.00 4845.10 70.00
2103 111.1100 0.938679 5239.00 5094.64 72.00
2104 111.1600 0.938398 5325.00 5275.20 72.00
2105 111.2100 0.938118 5402.00 5332.52 73.00
2106 111.2600 0.937838 5247.00 5243.48 72.00
2107 111.3100 0.937558 5043.00 5020.49 71.00
2108 111.3600 0.937279 4674.00 4705.21 68.00
2109 111.4100 0.937000 4193.00 4355.32 64.00
2110 111.4600 0.936721 3982.00 4028.36 63.00
2111 111.5100 0.936443 3732.00 3769.16 61.00
2112 111.5600 0.936165 3602.00 3601.81 60.00
2113 111.6100 0.935887 3621.00 3527.76 60.00
2114 111.6600 0.935610 3668.00 3528.96 60.00
2115 111.7100 0.935333 3703.00 3574.22 60.00
2116 111.7600 0.935056 3647.00 3627.74 60.00
2117 111.8100 0.934780 3736.00 3658.22 61.00
2118 111.8600 0.934504 3659.00 3646.40 60.00
2119 111.9100 0.934228 3581.00 3589.52 59.00
2120 111.9600 0.933953 3408.00 3501.18 58.00
2121 112.0100 0.933678 3371.00 3407.21 58.00
2122 112.0600 0.933404 3398.00 3338.64 58.00
2123 112.1100 0.933130 3353.00 3324.00 57.00
2124 112.1600 0.932856 3521.00 3382.82 59.00
2125 112.2100 0.932582 3642.00 3520.91 60.00
2126 112.2600 0.932309 3840.00 3728.33 61.00
2127 112.3100 0.932036 4140.00 3980.41 64.00
2128 112.3600 0.931764 4339.00 4242.21 65.00
2129 112.4100 0.931491 4479.00 4475.27 66.00
2130 112.4600 0.931219 4601.00 4646.18 67.00
2131 112.5100 0.930948 4524.00 4732.95 67.00
2132 112.5600 0.930677 4480.00 4728.50 66.00
2133 112.6100 0.930406 4442.00 4639.64 66.00
2134 112.6600 0.930135 4420.00 4483.17 66.00
2135 112.7100 0.929865 4286.00 4280.78 65.00
2136 112.7600 0.929595 3992.00 4055.50 63.00
2137 112.8100 0.929326 3794.00 3829.31 61.00
2138 112.8600 0.929057 3740.00 3621.80 61.00
2139 112.9100 0.928788 3478.00 3449.26 58.00
2140 112.9600 0.928519 3476.00 3322.88 58.00
2141 113.0100 0.928251 3416.00 3247.51 58.00
2142 113.0600 0.927983 3284.00 3221.09 57.00
2143 113.1100 0.927716 3302.00 3235.90 57.00
2144 113.1600 0.927448 3326.00 3281.41 57.00
2145 113.2100 0.927181 3419.00 3347.80 58.00
2146 113.2600 0.926915 3411.00 3428.77 58.00
2147 113.3100 0.926649 3493.00 3522.47 59.00
2148 113.3600 0.926383 3585.00 3630.35 59.00
2149 113.4100 0.926117 3693.00 3754.24 60.00
2150 113.4600 0.925852 3833.00 3893.90 61.00
2151 113.5100 0.925587 4041.00 4045.41 63.00
2152 113.5600 0.925323 4195.00 4201.45 64.00
2153 113.6100 0.925058 4359.00 4352.41 66.00
2154 113.6600 0.924794 4359.00 4487.08 66.00
2155 113.7100 0.924531 4547.00 4592.95 67.00
2156 113.7600 0.924268 4537.00 4656.08 67.00
2157 113.8100 0.924005 4657.00 4662.48 68.00
2158 113.8600 0.923742 4594.00 4601.46 67.00
2159 113.9100 0.923480 4293.00 4470.20 65.00
2160 113.9600 0.923218 4154.00 4277.64 64.00
2161 114.0100 0.922956 3906.00 4045.59 62.00
2162 114.0600 0.922695 3705.00 3806.41 60.00
2163 114.1100 0.922434 3558.00 3597.88 59.00
2164 114.1600 0.922173 3373.00 3457.89 58.00
2165 114.2100 0.921913 3396.00 3419.56 58.00
2166 114.2600 0.921653 3623.00 3507.68 60.00
2167 114.3100 0.921393 3837.00 3734.51 61.00
2168 114.3600 0.921134 4003.00 4095.21 63.00
2169 114.4100 0.920875 4531.00 4562.24 67.00
2170 114.4600 0.920616 5082.00 5083.54 71.00
2171 114.5100 0.920358 5664.00 5585.98 75.00
2172 114.5600 0.920099 6307.00 5987.73 79.00
2173 114.6100 0.919842 6654.00 6216.75 81.00
2174 114.6600 0.919584 6559.00 6229.60 80.00
2175 114.7100 0.919327 6265.00 6023.92 79.00
2176 114.7600 0.919070 5694.00 5639.47 75.00
2177 114.8100 0.918814 5298.00 5146.68 72.00
2178 114.8600 0.918558 4634.00 4628.49 68.00
2179 114.9100 0.918302 4173.00 4162.08 64.00
2180 114.9600 0.918046 3919.00 3806.55 62.00
2181 115.0100 0.917791 3829.00 3599.45 61.00
2182 115.0600 0.917536 3727.00 3558.72 61.00
2183 115.1100 0.917281 3883.00 3687.94 62.00
2184 115.1600 0.917027 4229.00 3979.25 65.00
2185 115.2100 0.916773 4693.00 4413.10 68.00
2186 115.2600 0.916519 5042.00 4954.86 71.00
2187 115.3100 0.916266 5393.00 5553.14 73.00
2188 115.3600 0.916013 5996.00 6140.93 77.00
2189 115.4100 0.915760 6301.00 6643.32 79.00
2190 115.4600 0.915508 6574.00 6991.04 81.00
2191 115.5100 0.915256 6879.00 7136.31 82.00
2192 115.5600 0.915004 6806.00 7067.63 82.00
2193 115.6100 0.914753 6705.00 6816.33 81.00
2194 115.6600 0.914501 6561.00 6453.70 81.00
2195 115.7100 0.914251 6318.00 6075.97 79.00
2196 115.7600 0.914000 5951.00 5783.98 77.00
2197 115.8100 0.913750 5813.00 5658.08 76.00
2198 115.8600 0.913500 5914.00 5738.59 76.00
2199 115.9100 0.913251 5979.00 6014.56 77.00
2200 115.9600 0.913001 6373.00 6425.52 79.00
2201 116.0100 0.912752 6969.00 6876.13 83.00
2202 116.0600 0.912504 7319.00 7261.20 85.00
2203 116.1100 0.912255 7817.00 7494.74 88.00
2204 116.1600 0.912007 7576.00 7534.31 87.00
2205 116.2100 0.911759 7631.00 7393.93 87.00
2206 116.2600 0.911512 7363.00 7139.64 85.00
2207 116.3100 0.911265 6999.00 6870.89 83.00
2208 116.3600 0.911018 6693.00 6691.67 81.00
2209 116.4100 0.910772 6454.00 6683.06 80.00
2210 116.4600 0.910525 6725.00 6881.34 82.00
2211 116.5100 0.910280 7235.00 7269.12 85.00
2212 116.5600 0.910034 7772.00 7778.20 88.00
2213 116.6100 0.909789 8385.00 8304.94 91.00
2214 116.6600 0.909544 8919.00 8732.39 94.00
2215 116.7100 0.909299 9049.00 8956.12 95.00
2216 116.7600 0.909055 8854.00 8907.33 94.00
2217 116.8100 0.908811 8403.00 8567.75 91.00
2218 116.8600 0.908567 7742.00 7971.90 87.00
2219 116.9100 0.908323 6986.00 7196.23 83.00
2220 116.9600 0.908080 6007.00 6338.97 77.00
2221 117.0100 0.907837 5391.00 5497.00 73.00
2222 117.0600 0.907595 4792.00 4748.02 69.00
2223 117.1100 0.907353 4240.00 4139.13 65.00
2224 117.1600 0.907111 3716.00 3687.08 60.00
2225 117.2100 0.906869 3419.00 3384.23 58.00
2226 117.2600 0.906628 3299.00 3207.94 57.00
2227 117.3100 0.906387 3318.00 3128.58 57.00
2228 117.3600 0.906146 3220.00 3115.98 56.00
2229 117.4100 0.905905 3390.00 3142.76 58.00
2230 117.4600 0.905665 3300.00 3186.31 57.00
2231 117.5100 0.905425 3324.00 3230.00 57.00
2232 117.5600 0.905186 3330.00 3264.62 57.00
2233 117.6100 0.904947 3459.00 3289.46 58.00
2234 117.6600 0.904708 3406.00 3312.71 58.00
2235 117.7100 0.904469 3402.00 3350.38 58.00
2236 117.7600 0.904231 3498.00 3423.51 59.00
2237 117.8100 0.903993 3644.00 3553.90 60.00
2238 117.8600 0.903755 3921.00 3758.87 62.00
2239 117.9100 0.903518 4014.00 4045.71 63.00
2240 117.9600 0.903280 4339.00 4408.45 65.00
2241 118.0100 0.903044 4829.00 4825.48 69.00
2242 118.0600 0.902807 5336.00 5263.00 73.00
2243 118.1100 0.902571 5724.00 5681.33 75.00
2244 118.1600 0.902335 6187.00 6044.18 78.00
2245 118.2100 0.902099 6307.00 6329.24 79.00
2246 118.2600 0.901864 6402.00 6534.17 80.00
2247 118.3100 0.901629 6491.00 6676.61 80.00
2248 118.3600 0.901394 6545.00 6786.46 80.00
2249 118.4100 0.901159 6579.00 6892.57 81.00
2250 118.4600 0.900925 6722.00 7009.09 81.00
2251 118.5100 0.900691 7042.00 7126.74 83.00
2252 118.5600 0.900458 7262.00 7213.23 85.00
2253 118.6100 0.900224 7106.00 7223.72 84.00
2254 118.6600 0.899991 7024.00 7116.62 83.00
2255 118.7100 0.899759 6680.00 6869.44 81.00
2256 118.7600 0.899526 6466.00 6487.91 80.00
2257 118.8100 0.899294 5886.00 6006.19 76.00
2258 118.8600 0.899062 5381.00 5476.25 73.00
2259 118.9100 0.898830 4907.00 4955.57 70.00
2260 118.9600 0.898599 4335.00 4492.14 65.00
2261 119.0100 0.898368 4004.00 4116.61 63.00
2262 119.0600 0.898137 3951.00 3841.21 62.00
2263 119.1100 0.897907 3746.00 3664.29 61.00
2264 119.1600 0.897677 3699.00 3579.94 60.00
2265 119.2100 0.897447 3853.00 3587.57 62.00
2266 119.2600 0.897218 3895.00 3699.02 62.00
2267 119.3100 0.896988 3909.00 3940.29 62.00
2268 119.3600 0.896759 4279.00 4347.02 65.00
2269 119.4100 0.896531 4697.00 4953.20 68.00
2270 119.4600 0.896302 5439.00 5775.46 73.00
2271 119.5100 0.896074 6574.00 6797.17 81.00
2272 119.5600 0.895846 7531.00 7955.96 86.00
2273 119.6100 0.895619 9005.00 9144.71 94.00
2274 119.6600 0.895391 10233.00 10223.60 101.00
2275 119.7100 0.895165 11142.00 11046.10 105.00
2276 119.7600 0.894938 11737.00 11490.20 108.00
2277 119.8100 0.894711 11490.00 11488.40 107.00
2278 119.8600 0.894485 10760.00 11043.00 103.00
2279 119.9100 0.894259 9582.00 10224.40 97.00
2280 119.9600 0.894034 8554.00 9151.83 92.00
2281 120.0100 0.893809 7476.00 7966.31 86.00
2282 120.0600 0.893584 6454.00 6798.89 80.00
2283 120.1100 0.893359 5666.00 5749.98 75.00
2284 120.1600 0.893135 4959.00 4878.85 70.00
2285 120.2100 0.892910 4393.00 4204.78 66.00
2286 120.2600 0.892687 3932.00 3717.01 62.00
2287 120.3100 0.892463 3497.00 3386.07 59.00
2288 120.3600 0.892240 3307.00 3176.19 57.00
2289 120.4100 0.892017 3167.00 3053.86 56.00
2290 120.4600 0.891794 3085.00 2992.05 55.00
2291 120.5100 0.891572 2916.00 2972.22 54.00
2292 120.5600 0.891349 2928.00 2983.26 54.00
2293 120.6100 0.891128 3001.00 3019.77 54.00
2294 120.6600 0.890906 3054.00 3079.84 55.00
2295 120.7100 0.890685 3076.00 3163.10 55.00
2296 120.7600 0.890464 3199.00 3269.14 56.00
2297 120.8100 0.890243 3274.00 3396.34 57.00
2298 120.8600 0.890022 3456.00 3541.06 58.00
2299 120.9100 0.889802 3480.00 3697.01 58.00
2300 120.9600 0.889582 3715.00 3855.22 60.00
2301 121.0100 0.889363 3866.00 4004.21 62.00
2302 121.0600 0.889143 3950.00 4130.71 62.00
2303 121.1100 0.888924 4073.00 4221.64 63.00
2304 121.1600 0.888705 3997.00 4265.69 63.00
2305 121.2100 0.888487 3984.00 4255.91 63.00
2306 121.2600 0.888268 4025.00 4191.22 63.00
2307 121.3100 0.888051 3928.00 4077.22 62.00
2308 121.3600 0.887833 3865.00 3925.40 62.00
2309 121.4100 0.887615 3696.00 3751.23 60.00
2310 121.4600 0.887398 3432.00 3571.40 58.00
2311 121.5100 0.887181 3282.00 3401.04 57.00
2312 121.5600 0.886965 3256.00 3251.79 57.00
2313 121.6100 0.886748 3115.00 3130.53 55.00
2314 121.6600 0.886532 2892.00 3039.83 53.00
2315 121.7100 0.886317 2908.00 2979.00 53.00
2316 121.7600 0.886101 2857.00 2945.58 53.00
2317 121.8100 0.885886 2984.00 2936.82 54.00
2318 121.8600 0.885671 2922.00 2950.53 54.00
2319 121.9100 0.885456 2830.00 2985.39 53.00
2320 121.9600 0.885242 2930.00 3040.52 54.00
2321 122.0100 0.885028 3022.00 3114.59 54.00
2322 122.0600 0.884814 3047.00 3204.74 55.00
2323 122.1100 0.884600 3174.00 3305.68 56.00
2324 122.1600 0.884387 3280.00 3409.32 57.00
2325 122.2100 0.884174 3425.00 3505.32 58.00
2326 122.2600 0.883961 3436.00 3582.31 58.00
2327 122.3100 0.883748 3475.00 3630.20 58.00
2328 122.3600 0.883536 3375.00 3642.14 58.00
2329 122.4100 0.883324 3381.00 3616.25 58.00
2330 122.4600 0.883112 3401.00 3556.16 58.00
2331 122.5100 0.882901 3339.00 3470.39 57.00
2332 122.5600 0.882690 3182.00 3370.59 56.00
2333 122.6100 0.882479 3178.00 3269.52 56.00
2334 122.6600 0.882268 3159.00 3179.50 56.00
2335 122.7100 0.882058 3050.00 3111.81 55.00
2336 122.7600 0.881848 3105.00 3077.75 55.00
2337 122.8100 0.881638 3145.00 3090.53 56.00
2338 122.8600 0.881428 3272.00 3168.24 57.00
2339 122.9100 0.881219 3449.00 3335.82 58.00
2340 122.9600 0.881010 3708.00 3625.98 60.00
2341 123.0100 0.880801 4029.00 4075.70 63.00
2342 123.0600 0.880593 4682.00 4719.93 68.00
2343 123.1100 0.880385 5427.00 5580.57 73.00
2344 123.1600 0.880177 6389.00 6652.45 79.00
2345 123.2100 0.879969 7547.00 7893.09 86.00
2346 123.2600 0.879762 9088.00 9216.39 95.00
2347 123.3100 0.879554 10588.00 10497.80 102.00
2348 123.3600 0.879348 12013.00 11591.60 109.00
2349 123.4100 0.879141 13120.00 12356.60 114.00
2350 123.4600 0.878935 13398.00 12687.90 115.00
2351 123.5100 0.878728 13200.00 12540.90 114.00
2352 123.5600 0.878523 12305.00 11943.50 110.00
2353 123.6100 0.878317 10946.00 10990.90 104.00
2354 123.6600 0.878112 9652.00 9828.15 98.00
2355 123.7100 0.877907 8311.00 8620.15 91.00
2356 123.7600 0.877702 7302.00 7524.10 85.00
2357 123.8100 0.877497 6574.00 6668.04 81.00
2358 123.8600 0.877293 6198.00 6136.00 78.00
2359 123.9100 0.877089 6103.00 5964.97 78.00
2360 123.9600 0.876885 6341.00 6146.15 79.00
2361 124.0100 0.876682 6916.00 6629.88 83.00
2362 124.0600 0.876479 7677.00 7331.55 87.00
2363 124.1100 0.876276 8634.00 8141.39 92.00
2364 124.1600 0.876073 9288.00 8936.37 96.00
2365 124.2100 0.875870 10063.00 9596.40 100.00
2366 124.2600 0.875668 10312.00 10022.40 101.00
2367 124.3100 0.875466 9928.00 10152.00 99.00
2368 124.3600 0.875265 9591.00 9970.22 97.00
2369 124.4100 0.875063 9073.00 9510.23 95.00
2370 124.4600 0.874862 8433.00 8844.69 91.00
2371 124.5100 0.874661 7716.00 8071.46 87.00
2372 124.5600 0.874461 7164.00 7294.37 84.00
2373 124.6100 0.874260 6741.00 6607.28 82.00
2374 124.6600 0.874060 6335.00 6081.56 79.00
2375 124.7100 0.873860 6237.00 5759.14 78.00
2376 124.7600 0.873661 6069.00 5651.05 77.00
2377 124.8100 0.873461 6168.00 5739.40 78.00
2378 124.8600 0.873262 6445.00 5983.66 80.00
2379 124.9100 0.873064 6744.00 6329.15 82.00
2380 124.9600 0.872865 7255.00 6717.53 85.00
2381 125.0100 0.872667 7605.00 7097.17 87.00
2382 125.0600 0.872469 7843.00 7432.85 88.00
2383 125.1100 0.872271 8161.00 7710.45 90.00
2384 125.1600 0.872073 8207.00 7936.59 90.00
2385 125.2100 0.871876 8197.00 8134.04 90.00
2386 125.2600 0.871679 8450.00 8332.68 91.00
2387 125.3100 0.871482 8658.00 8562.23 93.00
2388 125.3600 0.871286 9028.00 8847.16 95.00
2389 125.4100 0.871089 9473.00 9205.71 97.00
2390 125.4600 0.870894 9813.00 9652.46 99.00
2391 125.5100 0.870698 10449.00 10199.90 102.00
2392 125.5600 0.870502 10789.00 10856.90 103.00
2393 125.6100 0.870307 11329.00 11622.60 106.00
2394 125.6600 0.870112 11956.00 12475.30 109.00
2395 125.7100 0.869917 12887.00 13365.10 113.00
2396 125.7600 0.869723 13680.00 14210.20 116.00
2397 125.8100 0.869529 14360.00 14903.60 119.00
2398 125.8600 0.869335 15361.00 15332.60 123.00
2399 125.9100 0.869141 16175.00 15400.70 127.00
2400 125.9600 0.868947 15923.00 15052.50 126.00
2401 126.0100 0.868754 14978.00 14288.10 122.00
2402 126.0600 0.868561 13955.00 13166.50 118.00
2403 126.1100 0.868368 12404.00 11793.00 111.00
2404 126.1600 0.868176 10493.00 10298.40 102.00
2405 126.2100 0.867984 8939.00 8813.61 94.00
2406 126.2600 0.867792 7414.00 7448.31 86.00
2407 126.3100 0.867600 6396.00 6278.23 79.00
2408 126.3600 0.867409 5487.00 5339.09 74.00
2409 126.4100 0.867217 4694.00 4632.38 68.00
2410 126.4600 0.867026 4289.00 4134.26 65.00
2411 126.5100 0.866836 4081.00 3806.49 63.00
2412 126.5600 0.866645 3839.00 3606.63 61.00
2413 126.6100 0.866455 3773.00 3494.68 61.00
2414 126.6600 0.866265 3739.00 3437.80 61.00
2415 126.7100 0.866075 3658.00 3411.85 60.00
2416 126.7600 0.865886 3427.00 3401.14 58.00
2417 126.8100 0.865696 3357.00 3396.99 57.00
2418 126.8600 0.865507 3469.00 3395.65 58.00
2419 126.9100 0.865319 3317.00 3396.12 57.00
2420 126.9600 0.865130 3277.00 3398.24 57.00
2421 127.0100 0.864942 3458.00 3401.38 58.00
2422 127.0600 0.864754 3435.00 3403.84 58.00
2423 127.1100 0.864566 3224.00 3403.02 56.00
2424 127.1600 0.864379 3404.00 3396.11 58.00
2425 127.2100 0.864192 3481.00 3380.98 59.00
2426 127.2600 0.864004 3348.00 3357.05 57.00
2427 127.3100 0.863818 3318.00 3325.70 57.00
2428 127.3600 0.863631 3205.00 3290.55 56.00
2429 127.4100 0.863445 3267.00 3257.30 57.00
2430 127.4600 0.863259 3251.00 3233.84 57.00
2431 127.5100 0.863073 3253.00 3230.57 57.00
2432 127.5600 0.862888 3298.00 3261.11 57.00
2433 127.6100 0.862702 3363.00 3343.42 57.00
2434 127.6600 0.862517 3538.00 3500.46 59.00
2435 127.7100 0.862332 3869.00 3760.58 62.00
2436 127.7600 0.862148 4151.00 4154.99 64.00
2437 127.8100 0.861963 4722.00 4714.04 68.00
2438 127.8600 0.861779 5204.00 5460.12 72.00
2439 127.9100 0.861595 6048.00 6398.02 77.00
2440 127.9600 0.861412 7094.00 7507.28 84.00
2441 128.0100 0.861229 8203.00 8735.18 90.00
2442 128.0600 0.861045 9539.00 9996.74 97.00
2443 128.1100 0.860862 11064.00 11180.00 105.00
2444 128.1600 0.860680 12698.00 12164.60 112.00
2445 128.2100 0.860497 13703.00 12837.20 117.00
2446 128.2600 0.860315 14050.00 13116.00 118.00
2447 128.3100 0.860133 13514.00 12965.60 116.00
2448 128.3600 0.859952 12756.00 12405.50 112.00
2449 128.4100 0.859770 11514.00 11504.10 107.00
2450 128.4600 0.859589 9833.00 10367.60 99.00
2451 128.5100 0.859408 8354.00 9117.16 91.00
2452 128.5600 0.859227 7302.00 7870.12 85.00
2453 128.6100 0.859047 6307.00 6721.36 79.00
2454 128.6600 0.858867 5497.00 5733.53 74.00
2455 128.7100 0.858687 4737.00 4938.00 68.00
2456 128.7600 0.858507 4358.00 4336.50 66.00
2457 128.8100 0.858328 4142.00 3911.61 64.00
2458 128.8600 0.858148 3774.00 3634.57 61.00
2459 128.9100 0.857969 3698.00 3473.66 60.00
2460 128.9600 0.857790 3556.00 3399.05 59.00
2461 129.0100 0.857612 3477.00 3385.34 58.00
2462 129.0600 0.857433 3367.00 3411.96 58.00
2463 129.1100 0.857255 3494.00 3462.59 59.00
2464 129.1600 0.857077 3540.00 3524.25 59.00
2465 129.2100 0.856900 3537.00 3586.71 59.00
2466 129.2600 0.856723 3535.00 3642.28 59.00
2467 129.3100 0.856545 3440.00 3686.14 58.00
2468 129.3600 0.856368 3581.00 3716.54 59.00
2469 129.4100 0.856192 3633.00 3734.94 60.00
2470 129.4600 0.856015 3709.00 3745.69 60.00
2471 129.5100 0.855839 3664.00 3755.37 60.00
2472 129.5600 0.855663 3717.00 3772.03 60.00
2473 129.6100 0.855488 3748.00 3804.64 61.00
2474 129.6600 0.855312 3872.00 3863.17 62.00
2475 129.7100 0.855137 4018.00 3959.18 63.00
2476 129.7600 0.854962 4121.00 4106.82 64.00
2477 129.8100 0.854787 4446.00 4323.84 66.00
2478 129.8600 0.854612 4737.00 4631.08 68.00
2479 129.9100 0.854438 4947.00 5051.42 70.00
2480 129.9600 0.854264 5527.00 5605.62 74.00
2481 130.0100 0.854090 6063.00 6306.91 77.00
2482 130.0600 0.853916 7072.00 7156.64 84.00
2483 130.1100 0.853743 8111.00 8138.45 90.00
2484 130.1600 0.853570 9434.00 9219.95 97.00
2485 130.2100 0.853397 10813.00 10353.80 103.00
2486 130.2600 0.853224 12235.00 11484.60 110.00
2487 130.3100 0.853052 13247.00 12560.70 115.00
2488 130.3600 0.852880 13980.00 13539.90 118.00
2489 130.4100 0.852708 14527.00 14398.50 120.00
2490 130.4600 0.852536 14974.00 15127.70 122.00
2491 130.5100 0.852364 15440.00 15730.60 124.00
2492 130.5600 0.852193 16162.00 16212.40 127.00
2493 130.6100 0.852022 16684.00 16570.50 129.00
2494 130.6600 0.851851 16970.00 16790.20 130.00
2495 130.7100 0.851681 17316.00 16843.30 131.00
2496 130.7600 0.851510 17049.00 16695.60 130.00
2497 130.8100 0.851340 16717.00 16317.10 129.00
2498 130.8600 0.851170 15683.00 15693.70 125.00
2499 130.9100 0.851000 14465.00 14834.00 120.00
2500 130.9600 0.850831 13511.00 13774.70 116.00
2501 131.0100 0.850662 12295.00 12575.00 110.00
2502 131.0600 0.850493 11159.00 11310.10 105.00
2503 131.1100 0.850324 10043.00 10059.20 100.00
2504 131.1600 0.850155 8947.00 8893.64 94.00
2505 131.2100 0.849987 8043.00 7871.80 89.00
2506 131.2600 0.849819 7301.00 7029.75 85.00
2507 131.3100 0.849651 6737.00 6382.32 82.00
2508 131.3600 0.849484 6306.00 5922.78 79.00
2509 131.4100 0.849316 6002.00 5627.72 77.00
2510 131.4600 0.849149 5845.00 5462.26 76.00
2511 131.5100 0.848982 5794.00 5386.24 76.00
2512 131.5600 0.848815 5643.00 5360.49 75.00
2513 131.6100 0.848649 5630.00 5352.11 75.00
2514 131.6600 0.848483 5548.00 5338.49 75.00
2515 131.7100 0.848316 5377.00 5309.19 74.00
2516 131.7600 0.848151 5128.00 5265.63 72.00
2517 131.8100 0.847985 5026.00 5218.56 72.00
2518 131.8600 0.847820 4892.00 5184.09 71.00
2519 131.9100 0.847655 4949.00 5178.85 72.00
2520 131.9600 0.847490 4916.00 5215.56 71.00
2521 132.0100 0.847325 5001.00 5299.53 72.00
2522 132.0600 0.847161 5329.00 5427.06 75.00
2523 132.1100 0.846996 5689.00 5585.46 77.00
2524 132.1600 0.846832 5959.00 5755.34 79.00
2525 132.2100 0.846668 6009.00 5913.45 80.00
2526 132.2600 0.846505 6221.00 6036.40 81.00
2527 132.3100 0.846342 6450.00 6104.55 83.00
2528 132.3600 0.846179 6153.00 6104.69 81.00
2529 132.4100 0.846016 5951.00 6032.00 80.00
2530 132.4600 0.845853 5636.00 5890.51 78.00
2531 132.5100 0.845691 5397.00 5692.76 76.00
2532 132.5600 0.845528 5099.00 5457.86 74.00
2533 132.6100 0.845366 4882.00 5209.92 73.00
2534 132.6600 0.845205 4608.00 4974.77 71.00
2535 132.7100 0.845043 4468.00 4778.56 70.00
2536 132.7600 0.844882 4390.00 4644.78 70.00
2537 132.8100 0.844721 4406.00 4592.55 70.00
2538 132.8600 0.844560 4378.00 4634.70 70.00
2539 132.9100 0.844399 4627.00 4776.18 72.00
2540 132.9600 0.844239 4800.00 5012.48 73.00
2541 133.0100 0.844078 5150.00 5329.17 76.00
2542 133.0600 0.843919 5627.00 5701.57 80.00
2543 133.1100 0.843759 6106.00 6096.62 83.00
2544 133.1600 0.843599 6498.00 6476.08 86.00
2545 133.2100 0.843440 6910.00 6799.80 89.00
2546 133.2600 0.843281 7349.00 7031.99 92.00
2547 133.3100 0.843122 7452.00 7145.43 93.00
2548 133.3600 0.842963 7085.00 7125.95 91.00
2549 133.4100 0.842805 6917.00 6974.00 90.00
2550 133.4600 0.842646 6490.00 6704.59 87.00
2551 133.5100 0.842488 5815.00 6344.26 83.00
2552 133.5600 0.842331 5612.00 5927.23 81.00
2553 133.6100 0.842173 5230.00 5489.85 79.00
2554 133.6600 0.842016 4646.00 5065.72 74.00
2555 133.7100 0.841859 4428.00 4683.25 73.00
2556 133.7600 0.841702 4255.00 4362.48 71.00
2557 133.8100 0.841545 3998.00 4115.74 69.00
2558 133.8600 0.841389 3898.00 3947.95 68.00
2559 133.9100 0.841232 3853.00 3858.58 68.00
2560 133.9600 0.841076 3839.00 3843.21 68.00
2561 134.0100 0.840920 3971.00 3894.89 69.00
2562 134.0600 0.840765 4055.00 4004.79 70.00
2563 134.1100 0.840609 4113.00 4162.49 71.00
2564 134.1600 0.840454 4339.00 4355.86 73.00
2565 134.2100 0.840299 4452.00 4570.95 74.00
2566 134.2600 0.840145 4782.00 4791.93 77.00
2567 134.3100 0.839990 5040.00 5002.06 79.00
2568 134.3600 0.839836 5005.00 5184.59 79.00
2569 134.4100 0.839682 5084.00 5324.35 80.00
2570 134.4600 0.839528 5317.00 5409.47 82.00
2571 134.5100 0.839374 5380.00 5432.68 83.00
2572 134.5600 0.839221 5291.00 5392.44 82.00
2573 134.6100 0.839068 5178.00 5293.07 81.00
2574 134.6600 0.838915 5119.00 5143.90 81.00
2575 134.7100 0.838762 4930.00 4958.12 80.00
2576 134.7600 0.838609 4686.00 4751.05 78.00
2577 134.8100 0.838457 4420.00 4537.92 76.00
2578 134.8600 0.838305 4248.00 4332.64 74.00
2579 134.9100 0.838153 4021.00 4146.05 72.00
2580 134.9600 0.838001 3865.00 3985.82 71.00
2581 135.0100 0.837850 3814.00 3856.35 71.00
2582 135.0600 0.837698 3618.00 3759.11 69.00
2583 135.1100 0.837547 3597.00 3693.78 69.00
2584 135.1600 0.837396 3632.00 3659.07 69.00
2585 135.2100 0.837246 3517.00 3654.10 69.00
2586 135.2600 0.837095 3545.00 3679.24 69.00
2587 135.3100 0.836945 3645.00 3737.11 70.00
2588 135.3600 0.836795 3808.00 3832.91 72.00
2589 135.4100 0.836645 3933.00 3974.73 73.00
2590 135.4600 0.836496 4220.00 4172.65 76.00
2591 135.5100 0.836346 4411.00 4437.89 78.00
2592 135.5600 0.836197 4703.00 4780.48 80.00
2593 135.6100 0.836048 5247.00 5207.25 85.00
2594 135.6600 0.835899 5760.00 5719.63 89.00
2595 135.7100 0.835751 6475.00 6310.12 95.00
2596 135.7600 0.835603 7118.00 6962.26 100.00
2597 135.8100 0.835455 7878.00 7648.87 105.00
2598 135.8600 0.835307 8430.00 8334.27 109.00
2599 135.9100 0.835159 9027.00 8977.24 113.00
2600 135.9600 0.835012 9486.00 9533.37 116.00
2601 136.0100 0.834864 9958.00 9961.89 119.00
2602 136.0600 0.834717 10028.00 10229.20 120.00
2603 136.1100 0.834570 10031.00 10314.00 120.00
2604 136.1600 0.834424 10182.00 10209.40 121.00
2605 136.2100 0.834277 9766.00 9924.12 119.00
2606 136.2600 0.834131 9463.00 9481.13 117.00
2607 136.3100 0.833985 8972.00 8915.30 115.00
2608 136.3600 0.833840 8251.00 8268.55 110.00
2609 136.4100 0.833694 7620.00 7585.60 106.00
2610 136.4600 0.833549 6808.00 6909.29 100.00
2611 136.5100 0.833403 6235.00 6277.59 96.00
2612 136.5600 0.833259 5666.00 5720.15 92.00
2613 136.6100 0.833114 5330.00 5258.02 89.00
2614 136.6600 0.832969 5092.00 4903.78 87.00
2615 136.7100 0.832825 4962.00 4662.83 86.00
2616 136.7600 0.832681 4770.00 4535.50 85.00
2617 136.8100 0.832537 4649.00 4518.84 84.00
2618 136.8600 0.832393 4797.00 4608.61 85.00
2619 136.9100 0.832250 5052.00 4800.66 88.00
2620 136.9600 0.832106 5290.00 5091.35 90.00
2621 137.0100 0.831963 5438.00 5476.76 92.00
2622 137.0600 0.831821 5809.00 5952.05 95.00
2623 137.1100 0.831678 6339.00 6508.50 99.00
2624 137.1600 0.831535 6760.00 7132.82 103.00
2625 137.2100 0.831393 7603.00 7804.17 109.00
2626 137.2600 0.831251 8325.00 8493.16 115.00
2627 137.3100 0.831109 9429.00 9163.57 122.00
2628 137.3600 0.830968 10440.00 9773.00 129.00
2629 137.4100 0.830826 11123.00 10278.60 133.00
2630 137.4600 0.830685 11389.00 10640.60 135.00
2631 137.5100 0.830544 11512.00 10827.90 136.00
2632 137.5600 0.830403 11148.00 10822.90 134.00
2633 137.6100 0.830263 10520.00 10624.60 131.00
2634 137.6600 0.830122 9732.00 10248.20 126.00
2635 137.7100 0.829982 9011.00 9724.34 121.00
2636 137.7600 0.829842 8354.00 9093.93 117.00
2637 137.8100 0.829703 7842.00 8403.01 114.00
2638 137.8600 0.829563 7113.00 7697.87 108.00
2639 137.9100 0.829424 6621.00 7017.92 105.00
2640 137.9600 0.829284 6156.00 6394.78 101.00
2641 138.0100 0.829146 5952.00 5848.37 100.00
2642 138.0600 0.829007 5491.00 5388.64 96.00
2643 138.1100 0.828868 5257.00 5016.12 94.00
2644 138.1600 0.828730 5114.00 4724.59 93.00
2645 138.2100 0.828592 4795.00 4504.56 90.00
2646 138.2600 0.828454 4721.00 4344.80 90.00
2647 138.3100 0.828316 4593.00 4234.83 89.00
2648 138.3600 0.828179 4556.00 4165.79 88.00
2649 138.4100 0.828041 4411.00 4130.95 87.00
2650 138.4600 0.827904 4390.00 4125.73 87.00
2651 138.5100 0.827767 4427.00 4147.04 88.00
2652 138.5600 0.827631 4426.00 4192.65 88.00
2653 138.6100 0.827494 4510.00 4260.48 89.00
2654 138.6600 0.827358 4710.00 4347.97 91.00
2655 138.7100 0.827222 4892.00 4451.57 93.00
2656 138.7600 0.827086 4957.00 4566.59 94.00
2657 138.8100 0.826950 5131.00 4687.01 96.00
2658 138.8600 0.826815 5222.00 4805.88 97.00
2659 138.9100 0.826679 5140.00 4915.65 96.00
2660 138.9600 0.826544 5264.00 5008.76 97.00
2661 139.0100 0.826409 5134.00 5078.19 96.00
2662 139.0600 0.826275 5088.00 5118.36 96.00
2663 139.1100 0.826140 4909.00 5125.62 95.00
2664 139.1600 0.826006 4861.00 5098.75 94.00
2665 139.2100 0.825872 5052.00 5039.23 96.00
2666 139.2600 0.825738 5158.00 4951.29 98.00
2667 139.3100 0.825604 4880.00 4841.53 95.00
2668 139.3600 0.825471 4682.00 4718.55 93.00
2669 139.4100 0.825338 4745.00 4591.86 94.00
2670 139.4600 0.825205 4534.00 4471.28 92.00
2671 139.5100 0.825072 4472.00 4365.92 92.00
2672 139.5600 0.824939 4322.00 4283.18 90.00
2673 139.6100 0.824807 4264.00 4228.23 90.00
2674 139.6600 0.824674 4451.00 4203.36 92.00
2675 139.7100 0.824542 4390.00 4208.01 92.00
2676 139.7600 0.824410 4337.00 4238.79 91.00
2677 139.8100 0.824279 4517.00 4290.01 93.00
2678 139.8600 0.824147 4640.00 4354.23 95.00
2679 139.9100 0.824016 4802.00 4423.42 97.00
2680 139.9600 0.823885 4737.00 4489.58 96.00
2681 140.0100 0.823754 4756.00 4545.97 97.00
2682 140.0600 0.823623 4849.00 4587.83 98.00
2683 140.1100 0.823493 4745.00 4612.95 97.00
2684 140.1600 0.823362 4568.00 4622.15 95.00
2685 140.2100 0.823232 4503.00 4619.11 95.00
2686 140.2600 0.823102 4465.00 4610.14 94.00
2687 140.3100 0.822973 4470.00 4603.47 95.00
2688 140.3600 0.822843 4544.00 4608.45 96.00
2689 140.4100 0.822714 4551.00 4634.60 96.00
2690 140.4600 0.822585 4567.00 4690.70 96.00
2691 140.5100 0.822456 4762.00 4784.16 99.00
2692 140.5600 0.822327 5018.00 4920.49 101.00
2693 140.6100 0.822199 5167.00 5103.46 103.00
2694 140.6600 0.822070 5442.00 5335.74 106.00
2695 140.7100 0.821942 5794.00 5619.15 110.00
2696 140.7600 0.821814 6236.00 5956.34 114.00
2697 140.8100 0.821687 6592.00 6351.17 118.00
2698 140.8600 0.821559 7268.00 6809.80 124.00
2699 140.9100 0.821432 7794.00 7341.17 128.00
2700 140.9600 0.821305 7969.00 7954.94 130.00
2701 141.0100 0.821178 8457.00 8661.53 134.00
2702 141.0600 0.821051 9194.00 9468.18 140.00
2703 141.1100 0.820924 10132.00 10377.50 148.00
2704 141.1600 0.820798 11261.00 11383.70 156.00
2705 141.2100 0.820672 12053.00 12470.90 162.00
2706 141.2600 0.820546 13463.00 13612.10 171.00
2707 141.3100 0.820420 14983.00 14768.80 181.00
2708 141.3600 0.820294 16106.00 15895.00 188.00
2709 141.4100 0.820169 17817.00 16940.10 198.00
2710 141.4600 0.820044 18961.00 17854.30 205.00
2711 141.5100 0.819919 19441.00 18593.40 208.00
2712 141.5600 0.819794 19745.00 19124.60 210.00
2713 141.6100 0.819669 20194.00 19429.50 213.00
2714 141.6600 0.819545 19972.00 19505.70 212.00
2715 141.7100 0.819421 19445.00 19366.00 210.00
2716 141.7600 0.819297 18740.00 19036.20 206.00
2717 141.8100 0.819173 17871.00 18550.30 202.00
2718 141.8600 0.819049 17138.00 17946.70 198.00
2719 141.9100 0.818926 16318.00 17261.60 194.00
2720 141.9600 0.818803 15447.00 16526.90 189.00
2721 142.0100 0.818680 14718.00 15766.70 185.00
2722 142.0600 0.818557 13928.00 14996.40 180.00
2723 142.1100 0.818434 13687.00 14224.00 179.00
2724 142.1600 0.818312 12982.00 13450.80 175.00
2725 142.2100 0.818189 12441.00 12674.80 171.00
2726 142.2600 0.818067 12120.00 11893.90 169.00
2727 142.3100 0.817945 11479.00 11106.80 165.00
2728 142.3600 0.817824 10737.00 10316.30 160.00
2729 142.4100 0.817702 9721.00 9527.33 153.00
2730 142.4600 0.817581 9197.00 8750.01 149.00
2731 142.5100 0.817460 8485.00 7996.01 143.00
2732 142.5600 0.817339 7469.00 7278.12 135.00
2733 142.6100 0.817218 6771.00 6609.46 128.00
2734 142.6600 0.817097 6219.00 5999.99 123.00
2735 142.7100 0.816977 5667.00 5458.05 118.00
2736 142.7600 0.816857 5111.00 4987.72 112.00
2737 142.8100 0.816737 4703.00 4590.11 108.00
2738 142.8600 0.816617 4452.00 4262.87 105.00
2739 142.9100 0.816497 4154.00 4000.90 102.00
2740 142.9600 0.816378 3903.00 3797.91 99.00
2741 143.0100 0.816259 3814.00 3646.30 98.00
2742 143.0600 0.816140 3624.00 3538.53 96.00
2743 143.1100 0.816021 3521.00 3467.29 94.00
2744 143.1600 0.815902 3562.00 3426.05 95.00
2745 143.2100 0.815784 3500.00 3409.28 95.00
2746 143.2600 0.815665 3546.00 3412.35 95.00
2747 143.3100 0.815547 3510.00 3431.47 95.00
2748 143.3600 0.815429 3564.00 3463.50 96.00
2749 143.4100 0.815312 3493.00 3505.77 95.00
2750 143.4600 0.815194 3490.00 3555.86 95.00
2751 143.5100 0.815077 3586.00 3611.52 97.00
2752 143.5600 0.814960 3531.00 3670.46 96.00
2753 143.6100 0.814843 3711.00 3730.48 99.00
2754 143.6600 0.814726 3661.00 3789.42 99.00
2755 143.7100 0.814609 3886.00 3845.23 102.00
2756 143.7600 0.814493 3897.00 3896.06 102.00
2757 143.8100 0.814377 4049.00 3940.40 104.00
2758 143.8600 0.814261 3941.00 3977.07 103.00
2759 143.9100 0.814145 3952.00 4005.30 104.00
2760 143.9600 0.814029 4153.00 4024.67 106.00
2761 144.0100 0.813914 3886.00 4035.11 103.00
2762 144.0600 0.813799 3959.00 4036.81 104.00
2763 144.1100 0.813684 3963.00 4030.13 105.00
2764 144.1600 0.813569 3789.00 4015.54 102.00
2765 144.2100 0.813454 3754.00 3993.55 102.00
2766 144.2600 0.813339 3606.00 3964.69 100.00
2767 144.3100 0.813225 3601.00 3929.50 101.00
2768 144.3600 0.813111 3659.00 3888.61 102.00
2769 144.4100 0.812997 3592.00 3842.66 101.00
2770 144.4600 0.812883 3478.00 3792.42 99.00
2771 144.5100 0.812770 3508.00 3738.86 100.00
2772 144.5600 0.812656 3517.00 3683.00 100.00
2773 144.6100 0.812543 3364.00 3626.07 98.00
2774 144.6600 0.812430 3500.00 3569.26 101.00
2775 144.7100 0.812317 3379.00 3513.80 99.00
2776 144.7600 0.812205 3263.00 3460.89 98.00
2777 144.8100 0.812092 3137.00 3411.49 96.00
2778 144.8600 0.811980 2988.00 3366.45 94.00
2779 144.9100 0.811868 2973.00 3326.30 94.00
2780 144.9600 0.811756 3086.00 3291.41 96.00
2781 145.0100 0.811644 3183.00 3261.90 97.00
2782 145.0600 0.811533 3114.00 3237.77 97.00
2783 145.1100 0.811421 3114.00 3218.95 97.00
2784 145.1600 0.811310 3090.00 3205.35 97.00
2785 145.2100 0.811199 3041.00 3197.08 96.00
2786 145.2600 0.811088 3073.00 3194.45 97.00
2787 145.3100 0.810978 3110.00 3198.13 98.00
2788 145.3600 0.810867 3171.00 3209.25 99.00
2789 145.4100 0.810757 3063.00 3229.52 97.00
2790 145.4600 0.810647 3324.00 3261.27 102.00
2791 145.5100 0.810537 3317.00 3307.53 102.00
2792 145.5600 0.810427 3410.00 3371.99 103.00
2793 145.6100 0.810318 3440.00 3458.98 104.00
2794 145.6600 0.810208 3474.00 3573.41 105.00
2795 145.7100 0.810099 3679.00 3720.34 108.00
2796 145.7600 0.809990 3885.00 3904.94 111.00
2797 145.8100 0.809882 4092.00 4131.75 114.00
2798 145.8600 0.809773 4361.00 4404.57 118.00
2799 145.9100 0.809665 4836.00 4725.72 125.00
2800 145.9600 0.809556 5004.00 5095.60 127.00
2801 146.0100 0.809448 5436.00 5512.33 133.00
2802 146.0600 0.809341 6041.00 5971.01 141.00
2803 146.1100 0.809233 6669.00 6464.19 148.00
2804 146.1600 0.809125 7055.00 6981.53 153.00
2805 146.2100 0.809018 7716.00 7510.36 160.00
2806 146.2600 0.808911 8258.00 8035.63 166.00
2807 146.3100 0.808804 8595.00 8541.53 170.00
2808 146.3600 0.808697 8890.00 9011.85 173.00
2809 146.4100 0.808591 9418.00 9431.09 179.00
2810 146.4600 0.808484 9451.00 9785.51 179.00
2811 146.5100 0.808378 9452.00 10063.70 180.00
2812 146.5600 0.808272 9686.00 10257.70 182.00
2813 146.6100 0.808166 9608.00 10363.20 182.00
2814 146.6600 0.808061 10092.00 10379.90 187.00
2815 146.7100 0.807955 10024.00 10311.20 187.00
2816 146.7600 0.807850 9799.00 10164.20 185.00
2817 146.8100 0.807745 9649.00 9948.62 184.00
2818 146.8600 0.807640 9704.00 9676.90 185.00
2819 146.9100 0.807535 9614.00 9362.45 185.00
2820 146.9600 0.807430 9231.00 9019.43 181.00
2821 147.0100 0.807326 8579.00 8662.09 175.00
2822 147.0600 0.807222 8375.00 8303.38 173.00
2823 147.1100 0.807118 7925.00 7955.26 169.00
2824 147.1600 0.807014 7625.00 7627.15 166.00
2825 147.2100 0.806910 7202.00 7327.04 162.00
2826 147.2600 0.806807 7166.00 7060.37 162.00
2827 147.3100 0.806703 6962.00 6830.67 160.00
2828 147.3600 0.806600 6798.00 6640.00 158.00
2829 147.4100 0.806497 6772.00 6488.83 158.00
2830 147.4600 0.806394 6727.00 6377.23 158.00
2831 147.5100 0.806292 6627.00 6304.92 157.00
2832 147.5600 0.806189 6627.00 6272.00 158.00
2833 147.6100 0.806087 6627.00 6279.22 158.00
2834 147.6600 0.805985 6703.00 6328.36 159.00
2835 147.7100 0.805883 6606.00 6422.16 159.00
2836 147.7600 0.805781 6537.00 6564.34 158.00
2837 147.8100 0.805680 6686.00 6759.00 160.00
2838 147.8600 0.805579 6843.00 7010.30 163.00
2839 147.9100 0.805477 7035.00 7322.04 165.00
2840 147.9600 0.805376 7545.00 7696.16 172.00
2841 148.0100 0.805276 7885.00 8132.89 176.00
2842 148.0600 0.805175 8184.00 8629.27 180.00
2843 148.1100 0.805075 8837.00 9179.18 187.00
2844 148.1600 0.804974 9532.00 9773.47 195.00
2845 148.2100 0.804874 10327.00 10398.40 203.00
2846 148.2600 0.804774 11112.00 11037.60 211.00
2847 148.3100 0.804675 12405.00 11671.40 224.00
2848 148.3600 0.804575 12928.00 12278.50 229.00
2849 148.4100 0.804476 13518.00 12836.70 235.00
2850 148.4600 0.804376 14346.00 13323.90 242.00
2851 148.5100 0.804277 14881.00 13719.80 247.00
2852 148.5600 0.804178 15012.00 14006.60 249.00
2853 148.6100 0.804080 14604.00 14170.60 246.00
2854 148.6600 0.803981 14127.00 14202.80 243.00
2855 148.7100 0.803883 13597.00 14099.30 239.00
2856 148.7600 0.803785 13382.00 13862.00 237.00
2857 148.8100 0.803687 12635.00 13498.00 231.00
2858 148.8600 0.803589 12315.00 13019.20 229.00
2859 148.9100 0.803492 11558.00 12441.80 222.00
2860 148.9600 0.803394 10782.00 11784.70 215.00
2861 149.0100 0.803297 10513.00 11069.40 213.00
2862 149.0600 0.803200 9525.00 10317.40 203.00
2863 149.1100 0.803103 8967.00 9550.85 198.00
2864 149.1600 0.803006 8412.00 8789.06 192.00
2865 149.2100 0.802910 8009.00 8049.81 188.00
2866 149.2600 0.802813 6980.00 7348.35 176.00
2867 149.3100 0.802717 6627.00 6695.89 171.00
2868 149.3600 0.802621 6004.00 6101.14 164.00
2869 149.4100 0.802525 5438.00 5568.52 156.00
2870 149.4600 0.802429 5205.00 5100.01 153.00
2871 149.5100 0.802334 4953.00 4695.19 150.00
2872 149.5600 0.802239 4500.00 4351.09 143.00
2873 149.6100 0.802143 4263.00 4063.63 139.00
2874 149.6600 0.802049 4007.00 3827.08 135.00
2875 149.7100 0.801954 3850.00 3635.68 133.00
2876 149.7600 0.801859 3827.00 3483.18 133.00
2877 149.8100 0.801765 3595.00 3363.53 129.00
2878 149.8600 0.801670 3572.00 3271.15 129.00
2879 149.9100 0.801576 3580.00 3200.82 130.00
2880 149.9600 0.801482 3337.00 3148.13 125.00
2881 150.0100 0.801389 3325.00 3109.21 126.00
2882 150.0600 0.801295 3221.00 3080.90 124.00
2883 150.1100 0.801202 3257.00 3060.61 125.00
2884 150.1600 0.801108 3122.00 3046.27 123.00
2885 150.2100 0.801015 3176.00 3036.31 124.00
2886 150.2600 0.800922 3183.00 3029.53 124.00
2887 150.3100 0.800830 3182.00 3025.03 125.00
2888 150.3600 0.800737 3118.00 3022.16 124.00
2889 150.4100 0.800645 2939.00 3020.47 120.00
2890 150.4600 0.800553 3081.00 3019.66 124.00
2891 150.5100 0.800461 3060.00 3019.52 123.00
2892 150.5600 0.800369 3079.00 3019.93 124.00
2893 150.6100 0.800277 2895.00 3020.84 121.00
2894 150.6600 0.800186 2982.00 3022.20 123.00
2895 150.7100 0.800094 3037.00 3024.03 124.00
2896 150.7600 0.800003 2942.00 3026.33 123.00
2897 150.8100 0.799912 2897.00 3029.16 122.00
2898 150.8600 0.799821 3054.00 3032.53 125.00
2899 150.9100 0.799731 3067.00 3036.53 126.00
2900 150.9600 0.799640 3108.00 3041.21 127.00
2901 151.0100 0.799550 3012.00 3046.67 126.00
2902 151.0600 0.799460 2954.00 3053.04 125.00
2903 151.1100 0.799370 3072.00 3060.52 127.00
2904 151.1600 0.799280 3028.00 3069.35 127.00
2905 151.2100 0.799191 3042.00 3079.88 127.00
2906 151.2600 0.799101 3057.00 3092.59 128.00
2907 151.3100 0.799012 3114.00 3108.10 130.00
2908 151.3600 0.798923 3207.00 3127.19 132.00
2909 151.4100 0.798834 3232.00 3150.90 133.00
2910 151.4600 0.798745 3327.00 3180.44 135.00
2911 151.5100 0.798657 3304.00 3217.27 135.00
2912 151.5600 0.798568 3331.00 3263.10 136.00
2913 151.6100 0.798480 3205.00 3319.76 134.00
2914 151.6600 0.798392 3382.00 3389.36 138.00
2915 151.7100 0.798304 3564.00 3474.04 142.00
2916 151.7600 0.798217 3550.00 3575.86 142.00
2917 151.8100 0.798129 3583.00 3696.87 143.00
2918 151.8600 0.798042 3531.00 3838.68 142.00
loop_
_pd_proc_info_excluded_regions
'from 0 to 6.000'
loop_
_restr_angle_atom_site_label_1
_restr_angle_site_symmetry_1
_restr_angle_atom_site_label_2
_restr_angle_site_symmetry_2
_restr_angle_atom_site_label_3
_restr_angle_site_symmetry_3
_restr_angle_target
_restr_angle_target_weight_param
? ? ? ? ? ? ? ?
loop_
_restr_distance_atom_site_label_1
_restr_distance_site_symmetry_1
_restr_distance_atom_site_label_2
_restr_distance_site_symmetry_2
_restr_distance_target
_restr_distance_target_weight_param
? ? ? ? ? ?
loop_
_restr_equal_angle_atom_site_label_1
_restr_equal_angle_site_symmetry_1
_restr_equal_angle_atom_site_label_2
_restr_equal_angle_site_symmetry_2
_restr_equal_angle_atom_site_label_3
_restr_equal_angle_site_symmetry_3
_restr_equal_angle_class_class_id
_restr_equal_angle_class_target_weight_param
? ? ? ? ? ? ? ?
loop_
_restr_equal_distance_atom_site_label_1
_restr_equal_distance_site_symmetry_1
_restr_equal_distance_atom_site_label_2
_restr_equal_distance_site_symmetry_2
_restr_equal_distance_class_class_id
_restr_equal_distance_class_target_weight_param
? ? ? ? ? ?
loop_
_restr_equal_torsion_atom_site_label_1
_restr_equal_torsion_site_symmetry_1
_restr_equal_torsion_atom_site_label_2
_restr_equal_torsion_site_symmetry_2
_restr_equal_torsion_atom_site_label_3
_restr_equal_torsion_site_symmetry_3
_restr_equal_torsion_atom_site_label_4
_restr_equal_torsion_site_symmetry_4
_restr_equal_torsion_class_class_id
_restr_equal_torsion_class_target_weight_param
? ? ? ? ? ? ? ? ? ?
loop_
_restr_torsion_atom_site_label_1
_restr_torsion_site_symmetry_1
_restr_torsion_atom_site_label_2
_restr_torsion_site_symmetry_2
_restr_torsion_atom_site_label_3
_restr_torsion_site_symmetry_3
_restr_torsion_atom_site_label_4
_restr_torsion_site_symmetry_4
_restr_torsion_angle_target
_restr_torsion_weight_param
? ? ? ? ? ? ? ? ? ?
loop_
_jana_atom_site_adp_c_label
_jana_atom_site_adp_c_type_symbol
_jana_atom_site_adp_c_111
_jana_atom_site_adp_c_112
_jana_atom_site_adp_c_113
_jana_atom_site_adp_c_122
_jana_atom_site_adp_c_123
_jana_atom_site_adp_c_133
_jana_atom_site_adp_c_222
_jana_atom_site_adp_c_223
_jana_atom_site_adp_c_233
_jana_atom_site_adp_c_333
? ? ? ? ? ? ? ? ? ? ? ?
loop_
_jana_atom_site_adp_d_label
_jana_atom_site_adp_d_type_symbol
_jana_atom_site_adp_d_1111
_jana_atom_site_adp_d_1112
_jana_atom_site_adp_d_1113
_jana_atom_site_adp_d_1122
_jana_atom_site_adp_d_1123
_jana_atom_site_adp_d_1133
_jana_atom_site_adp_d_1222
_jana_atom_site_adp_d_1223
_jana_atom_site_adp_d_1233
_jana_atom_site_adp_d_1333
_jana_atom_site_adp_d_2222
_jana_atom_site_adp_d_2223
_jana_atom_site_adp_d_2233
_jana_atom_site_adp_d_2333
_jana_atom_site_adp_d_3333
? ? ? ? ? ? ? ? ? ? ? ? ? ? ? ? ?
loop_
_jana_atom_site_adp_e_label
_jana_atom_site_adp_e_type_symbol
_jana_atom_site_adp_e_11111
_jana_atom_site_adp_e_11112
_jana_atom_site_adp_e_11113
_jana_atom_site_adp_e_11122
_jana_atom_site_adp_e_11123
_jana_atom_site_adp_e_11133
_jana_atom_site_adp_e_11222
_jana_atom_site_adp_e_11223
_jana_atom_site_adp_e_11233
_jana_atom_site_adp_e_11333
_jana_atom_site_adp_e_12222
_jana_atom_site_adp_e_12223
_jana_atom_site_adp_e_12233
_jana_atom_site_adp_e_12333
_jana_atom_site_adp_e_13333
_jana_atom_site_adp_e_22222
_jana_atom_site_adp_e_22223
_jana_atom_site_adp_e_22233
_jana_atom_site_adp_e_22333
_jana_atom_site_adp_e_23333
_jana_atom_site_adp_e_33333
? ? ? ? ? ? ? ? ? ? ? ? ? ? ? ? ? ? ? ? ? ? ?
loop_
_jana_atom_site_adp_f_label
_jana_atom_site_adp_f_type_symbol
_jana_atom_site_adp_f_111111
_jana_atom_site_adp_f_111112
_jana_atom_site_adp_f_111113
_jana_atom_site_adp_f_111122
_jana_atom_site_adp_f_111123
_jana_atom_site_adp_f_111133
_jana_atom_site_adp_f_111222
_jana_atom_site_adp_f_111223
_jana_atom_site_adp_f_111233
_jana_atom_site_adp_f_111333
_jana_atom_site_adp_f_112222
_jana_atom_site_adp_f_112223
_jana_atom_site_adp_f_112233
_jana_atom_site_adp_f_112333
_jana_atom_site_adp_f_113333
_jana_atom_site_adp_f_122222
_jana_atom_site_adp_f_122223
_jana_atom_site_adp_f_122233
_jana_atom_site_adp_f_122333
_jana_atom_site_adp_f_123333
_jana_atom_site_adp_f_133333
_jana_atom_site_adp_f_222222
_jana_atom_site_adp_f_222223
_jana_atom_site_adp_f_222233
_jana_atom_site_adp_f_222333
_jana_atom_site_adp_f_223333
_jana_atom_site_adp_f_233333
_jana_atom_site_adp_f_333333
? ? ? ? ? ? ? ? ? ? ? ? ? ? ? ? ? ? ? ? ? ? ? ? ? ? ? ? ? ?
