#------------------------------------------------------------------------------
#$Date: 2021-03-05 04:04:50 +0200 (Fri, 05 Mar 2021) $
#$Revision: 262642 $
#$URL: file:///home/coder/svn-repositories/cod/cif/7/70/65/7706502.cif $
#------------------------------------------------------------------------------
#
# This file is available in the Crystallography Open Database (COD),
# http://www.crystallography.net/
#
# All data on this site have been placed in the public domain by the
# contributors.
#
data_7706502
loop_
_publ_author_name
'Khalaniya, R. A.'
'Sobolev, A. V.'
'Verchenko, V. Yu'
'Tsirlin, A. A.'
'Senyshyn, A.'
'Damay, F.'
'Presniakov, I. A.'
'Shevelkov, A. V.'
_publ_section_title
;
 Magnetic structures of Fe<sub>32+\d</sub>Ge<sub>33</sub>As<sub>2</sub>
 and Fe<sub>32+\d'</sub>Ge<sub>35-x</sub>P<sub>x</sub> intermetallic
 compounds: a neutron diffraction and <sup>57</sup>Fe M\"ossbauer
 spectroscopy study.
;
_journal_issue                   6
_journal_name_full
'Dalton transactions (Cambridge, England : 2003)'
_journal_page_first              2210
_journal_page_last               2220
_journal_paper_doi               10.1039/d0dt03923c
_journal_volume                  50
_journal_year                    2021
_chemical_formula_moiety         'Fe32.475 Ge32.271 P2.729'
_chemical_formula_sum            'Fe32.475 Ge32.271 P2.729'
_chemical_formula_weight         4240.7
_space_group_IT_number           191
_space_group_name_Hall           '-P 6 2'
_space_group_name_H-M_alt        'P 6/m m m'
_symmetry_cell_setting           hexagonal
_symmetry_Int_Tables_number      191
_symmetry_space_group_name_Hall  '-P 6 2'
_symmetry_space_group_name_H-M   'P 6/m m m'
_audit_creation_method           'Jana2006 Version : 25/04/2020'
_audit_update_record
;
2020-11-10 deposited with the CCDC.	2021-01-11 downloaded from the CCDC.
;
_cell_angle_alpha                90
_cell_angle_beta                 90
_cell_angle_gamma                120
_cell_formula_units_Z            1
_cell_length_a                   11.90625(8)
_cell_length_b                   11.90625(8)
_cell_length_c                   7.53123(8)
_cell_measurement_temperature    300
_cell_volume                     924.584(13)
_diffrn_ambient_temperature      300
_diffrn_detector_type            '80 position-sensitive 3He tubes'
_diffrn_measurement_device       'high resolution powder diffractometer'
_diffrn_measurement_device_type  'SPODI high resolution powder diffractometer'
_diffrn_radiation_monochromator  'Ge (551) monochromator'
_diffrn_radiation_probe          neutron
_diffrn_radiation_type           neutron
_diffrn_radiation_wavelength     1.5482
_exptl_absorpt_coefficient_mu    0.014
_exptl_crystal_density_diffrn    7.6163
_exptl_crystal_description       powder
_exptl_crystal_F_000             585.031
_pd_instr_location               ' ?'
_pd_meas_2theta_range_inc        0.05
_pd_meas_2theta_range_max        151.900
_pd_meas_2theta_range_min        0.950
_pd_meas_number_of_points        3020
_pd_proc_2theta_range_inc        0.05
_pd_proc_2theta_range_max        151.9
_pd_proc_2theta_range_min        6.05
_pd_proc_ls_background_function  '10 Legendre polynoms'
_pd_proc_ls_pref_orient_corr     none
_pd_proc_ls_profile_function     Gaussian
_pd_proc_ls_prof_R_factor        0.0321
_pd_proc_ls_prof_wR_expected     0.0146
_pd_proc_ls_prof_wR_factor       0.0397
_refine_ls_goodness_of_fit_all   2.72
_refine_ls_number_constraints    0
_refine_ls_number_parameters     64
_refine_ls_number_restraints     0
_refine_ls_R_factor_all          0.0287
_refine_ls_R_factor_gt           0.0270
_refine_ls_shift/su_max          0.0301
_refine_ls_shift/su_mean         0.0009
_refine_ls_weighting_scheme      sigma
_refine_ls_wR_factor_all         0.0319
_refine_ls_wR_factor_gt          0.0319
_cod_data_source_file            d0dt03923c2.cif
_cod_data_source_block           Fe32p5Ge32P3_300K
_cod_depositor_comments
'Adding full bibliography for 7706499--7706504.cif.'
_cod_original_sg_symbol_Hall     '-P 6;-2'
_cod_database_code               7706502
loop_
_space_group_symop_id
_space_group_symop_operation_xyz
1 x,y,z
2 -y,x-y,z
3 -x+y,-x,z
4 -x,-y,z
5 y,-x+y,z
6 x-y,x,z
7 y,x,-z
8 x-y,-y,-z
9 -x,-x+y,-z
10 -y,-x,-z
11 -x+y,y,-z
12 x,x-y,-z
13 -x,-y,-z
14 y,-x+y,-z
15 x-y,x,-z
16 x,y,-z
17 -y,x-y,-z
18 -x+y,-x,-z
19 -y,-x,z
20 -x+y,y,z
21 x,x-y,z
22 y,x,z
23 x-y,-y,z
24 -x,-x+y,z
loop_
_atom_site_label
_atom_site_type_symbol
_atom_site_fract_x
_atom_site_fract_y
_atom_site_fract_z
_atom_site_adp_type
_atom_site_U_iso_or_equiv
_atom_site_site_symmetry_multiplicity
_atom_site_occupancy
_atom_site_calc_flag
_atom_site_refinement_flags
_atom_site_disorder_assembly
_atom_site_disorder_group
Ge0 Ge 0 0 0.1625(5) Uani 0.0149(11) 2 1 d . . .
Ge1 Ge 0 0.23259(19) 0.5 Uani 0.0079(9) 6 0.55(2) d . . .
P1 P 0 0.23259(19) 0.5 Uani 0.0079(9) 6 0.45(2) d . . .
Fe1 Fe 0.21118(8) 0.42236(15) 0.5 Uani 0.0077(6) 6 1 d . . .
Ge2 Ge 0.43143(10) 0.56857(10) 0.5 Uani 0.0118(7) 6 1 d . . .
Ge3 Ge 0.24435(7) 0.48870(13) 0.19602(18) Uani 0.0176(5) 12 1 d . . .
Ge4 Ge 0.26920(17) 0 0 Uani 0.0133(7) 6 1 d . . .
Fe2 Fe 0.333333 0.666667 0 Uani 0.0115(9) 2 1 d . . .
Fe3 Fe 0 0.38425(9) 0.27995(17) Uani 0.0108(4) 12 1 d . . .
Ge5 Ge -0.0465(4) 0.4768(2) 0 Uani 0.0178(18) 6 0.5 d . . .
Fe4 Fe 0.12287(6) 0.24574(12) 0.2422(2) Uani 0.0116(4) 12 1 d . . .
Fe5 Fe 0 0 0.5 Uani 0.079(9) 1 0.48(3) d . . .
loop_
_atom_site_aniso_label
_atom_site_aniso_type_symbol
_atom_site_aniso_U_11
_atom_site_aniso_U_22
_atom_site_aniso_U_33
_atom_site_aniso_U_12
_atom_site_aniso_U_13
_atom_site_aniso_U_23
Ge0 Ge 0.0135(12) 0.0135(12) 0.018(2) 0.0067(6) 0 0
Ge1 Ge 0.0088(13) 0.0086(10) 0.0064(12) 0.0044(6) 0 0
P1 P 0.0088(13) 0.0086(10) 0.0064(12) 0.0044(6) 0 0
Fe1 Fe 0.0043(5) 0.0112(9) 0.0098(9) 0.0056(4) 0 0
Ge2 Ge 0.0099(7) 0.0099(7) 0.0117(11) 0.0019(9) 0 0
Ge3 Ge 0.0271(7) 0.0094(7) 0.0104(8) 0.0047(4) 0.0017(3) 0.0035(5)
Ge4 Ge 0.0169(8) 0.0135(10) 0.0085(11) 0.0067(5) 0 0
Fe2 Fe 0.0154(10) 0.0154(10) 0.0037(17) 0.0077(5) 0 0
Fe3 Fe 0.0087(6) 0.0093(4) 0.0143(7) 0.0044(3) 0 0.0002(4)
Ge5 Ge 0.034(3) 0.0178(16) 0.007(2) 0.0170(15) 0 0
Fe4 Fe 0.0072(4) 0.0137(6) 0.0161(6) 0.0069(3) -0.0011(3) -0.0023(6)
Fe5 Fe 0.102(12) 0.102(12) 0.033(11) 0.051(6) 0 0
loop_
_atom_type_symbol
_atom_type_scat_length_neutron
_atom_type_scat_source
Fe 9.450 International_Tables_Vol_C
Ge 8.185 International_Tables_Vol_C
P 5.130 International_Tables_Vol_C
loop_
_exptl_crystal_face_index_h
_exptl_crystal_face_index_k
_exptl_crystal_face_index_l
_exptl_crystal_face_perp_dist
? ? ? ?
loop_
_geom_angle_atom_site_label_1
_geom_angle_atom_site_label_2
_geom_angle_atom_site_label_3
_geom_angle_site_symmetry_1
_geom_angle_site_symmetry_2
_geom_angle_site_symmetry_3
_geom_angle
_geom_angle_publ_flag
Ge0 Ge0 Fe4 7_555 . . 103.33(9) ?
Ge0 Ge0 Fe4 7_555 . 2_555 103.33(9) ?
Ge0 Ge0 Fe4 7_555 . 3_555 103.33(9) ?
Ge0 Ge0 Fe4 7_555 . 4_555 103.33(9) ?
Ge0 Ge0 Fe4 7_555 . 5_555 103.33(9) ?
Ge0 Ge0 Fe4 7_555 . 6_555 103.33(9) ?
Ge0 Ge0 Fe5 7_555 . . 180 ?
Fe4 Ge0 Fe4 . . 2_555 114.85(7) ?
Fe4 Ge0 Fe4 . . 3_555 114.85(7) ?
Fe4 Ge0 Fe4 . . 4_555 153.34(17) ?
Fe4 Ge0 Fe4 . . 5_555 58.23(5) ?
Fe4 Ge0 Fe4 . . 6_555 58.23(4) ?
Fe4 Ge0 Fe5 . . . 76.67(9) ?
Fe4 Ge0 Fe4 2_555 . 3_555 114.85(7) ?
Fe4 Ge0 Fe4 2_555 . 4_555 58.23(5) ?
Fe4 Ge0 Fe4 2_555 . 5_555 153.34(17) ?
Fe4 Ge0 Fe4 2_555 . 6_555 58.23(5) ?
Fe4 Ge0 Fe5 2_555 . . 76.67(9) ?
Fe4 Ge0 Fe4 3_555 . 4_555 58.23(4) ?
Fe4 Ge0 Fe4 3_555 . 5_555 58.23(5) ?
Fe4 Ge0 Fe4 3_555 . 6_555 153.34(17) ?
Fe4 Ge0 Fe5 3_555 . . 76.67(9) ?
Fe4 Ge0 Fe4 4_555 . 5_555 114.85(7) ?
Fe4 Ge0 Fe4 4_555 . 6_555 114.85(7) ?
Fe4 Ge0 Fe5 4_555 . . 76.67(9) ?
Fe4 Ge0 Fe4 5_555 . 6_555 114.85(7) ?
Fe4 Ge0 Fe5 5_555 . . 76.67(9) ?
Fe4 Ge0 Fe5 6_555 . . 76.67(9) ?
Ge1 Ge1 Ge1 5_555 . 6_555 120.00(10) ?
Ge1 Ge1 P1 5_555 . . 0 ?
Ge1 Ge1 P1 5_555 . 5_555 0 ?
Ge1 Ge1 P1 5_555 . 6_555 120.00(10) ?
Ge1 Ge1 Fe1 5_555 . . 54.72(6) ?
Ge1 Ge1 Fe1 5_555 . 6_555 174.72(10) ?
Ge1 Ge1 Fe3 5_555 . . 111.62(3) ?
Ge1 Ge1 Fe3 5_555 . 9_556 111.62(3) ?
Ge1 Ge1 Fe4 5_555 . . 54.57(4) ?
Ge1 Ge1 Fe4 5_555 . 6_555 109.82(7) ?
Ge1 Ge1 Fe4 5_555 . 9_556 109.82(7) ?
Ge1 Ge1 Fe4 5_555 . 11_556 54.57(5) ?
Ge1 Ge1 Fe5 5_555 . . 60.00(6) ?
Ge1 Ge1 P1 6_555 . . 0 ?
Ge1 Ge1 P1 6_555 . 5_555 120.00(10) ?
Ge1 Ge1 P1 6_555 . 6_555 0 ?
Ge1 Ge1 Fe1 6_555 . . 174.72(11) ?
Ge1 Ge1 Fe1 6_555 . 6_555 54.72(5) ?
Ge1 Ge1 Fe3 6_555 . . 111.62(3) ?
Ge1 Ge1 Fe3 6_555 . 9_556 111.62(3) ?
Ge1 Ge1 Fe4 6_555 . . 109.82(6) ?
Ge1 Ge1 Fe4 6_555 . 6_555 54.57(3) ?
Ge1 Ge1 Fe4 6_555 . 9_556 54.57(4) ?
Ge1 Ge1 Fe4 6_555 . 11_556 109.82(6) ?
Ge1 Ge1 Fe5 6_555 . . 60.00(6) ?
P1 Ge1 P1 . . 5_555 0 ?
P1 Ge1 P1 . . 6_555 0 ?
P1 Ge1 Fe1 . . . 0 ?
P1 Ge1 Fe1 . . 6_555 0 ?
P1 Ge1 Fe3 . . . 0 ?
P1 Ge1 Fe3 . . 9_556 0 ?
P1 Ge1 Fe4 . . . 0 ?
P1 Ge1 Fe4 . . 6_555 0 ?
P1 Ge1 Fe4 . . 9_556 0 ?
P1 Ge1 Fe4 . . 11_556 0 ?
P1 Ge1 Fe5 . . . 0 ?
P1 Ge1 P1 5_555 . 6_555 120.00(10) ?
P1 Ge1 Fe1 5_555 . . 54.72(6) ?
P1 Ge1 Fe1 5_555 . 6_555 174.72(10) ?
P1 Ge1 Fe3 5_555 . . 111.62(3) ?
P1 Ge1 Fe3 5_555 . 9_556 111.62(3) ?
P1 Ge1 Fe4 5_555 . . 54.57(4) ?
P1 Ge1 Fe4 5_555 . 6_555 109.82(7) ?
P1 Ge1 Fe4 5_555 . 9_556 109.82(7) ?
P1 Ge1 Fe4 5_555 . 11_556 54.57(5) ?
P1 Ge1 Fe5 5_555 . . 60.00(6) ?
P1 Ge1 Fe1 6_555 . . 174.72(11) ?
P1 Ge1 Fe1 6_555 . 6_555 54.72(5) ?
P1 Ge1 Fe3 6_555 . . 111.62(3) ?
P1 Ge1 Fe3 6_555 . 9_556 111.62(3) ?
P1 Ge1 Fe4 6_555 . . 109.82(6) ?
P1 Ge1 Fe4 6_555 . 6_555 54.57(3) ?
P1 Ge1 Fe4 6_555 . 9_556 54.57(4) ?
P1 Ge1 Fe4 6_555 . 11_556 109.82(6) ?
P1 Ge1 Fe5 6_555 . . 60.00(6) ?
Fe1 Ge1 Fe1 . . 6_555 130.57(11) ?
Fe1 Ge1 Fe3 . . . 72.06(6) ?
Fe1 Ge1 Fe3 . . 9_556 72.06(6) ?
Fe1 Ge1 Fe4 . . . 67.59(3) ?
Fe1 Ge1 Fe4 . . 6_555 125.62(3) ?
Fe1 Ge1 Fe4 . . 9_556 125.62(3) ?
Fe1 Ge1 Fe4 . . 11_556 67.59(3) ?
Fe1 Ge1 Fe5 . . . 114.72(7) ?
Fe1 Ge1 Fe3 6_555 . . 72.06(5) ?
Fe1 Ge1 Fe3 6_555 . 9_556 72.06(5) ?
Fe1 Ge1 Fe4 6_555 . . 125.62(3) ?
Fe1 Ge1 Fe4 6_555 . 6_555 67.59(4) ?
Fe1 Ge1 Fe4 6_555 . 9_556 67.59(3) ?
Fe1 Ge1 Fe4 6_555 . 11_556 125.62(4) ?
Fe1 Ge1 Fe5 6_555 . . 114.72(5) ?
Fe3 Ge1 Fe3 . . 9_556 85.09(8) ?
Fe3 Ge1 Fe4 . . . 68.14(5) ?
Fe3 Ge1 Fe4 . . 6_555 68.14(4) ?
Fe3 Ge1 Fe4 . . 9_556 136.63(8) ?
Fe3 Ge1 Fe4 . . 11_556 136.63(8) ?
Fe3 Ge1 Fe5 . . . 137.45(5) ?
Fe3 Ge1 Fe4 9_556 . . 136.63(8) ?
Fe3 Ge1 Fe4 9_556 . 6_555 136.63(8) ?
Fe3 Ge1 Fe4 9_556 . 9_556 68.14(5) ?
Fe3 Ge1 Fe4 9_556 . 11_556 68.14(5) ?
Fe3 Ge1 Fe5 9_556 . . 137.45(5) ?
Fe4 Ge1 Fe4 . . 6_555 64.06(5) ?
Fe4 Ge1 Fe4 . . 9_556 152.14(12) ?
Fe4 Ge1 Fe4 . . 11_556 108.75(6) ?
Fe4 Ge1 Fe5 . . . 76.07(6) ?
Fe4 Ge1 Fe4 6_555 . 9_556 108.75(5) ?
Fe4 Ge1 Fe4 6_555 . 11_556 152.14(12) ?
Fe4 Ge1 Fe5 6_555 . . 76.07(6) ?
Fe4 Ge1 Fe4 9_556 . 11_556 64.06(4) ?
Fe4 Ge1 Fe5 9_556 . . 76.07(7) ?
Fe4 Ge1 Fe5 11_556 . . 76.07(6) ?
Ge1 P1 Ge1 . . 5_555 0 ?
Ge1 P1 Ge1 . . 6_555 0 ?
Ge1 P1 P1 . . 5_555 0 ?
Ge1 P1 P1 . . 6_555 0 ?
Ge1 P1 Fe1 . . . 0 ?
Ge1 P1 Fe1 . . 6_555 0 ?
Ge1 P1 Fe3 . . . 0 ?
Ge1 P1 Fe3 . . 9_556 0 ?
Ge1 P1 Fe4 . . . 0 ?
Ge1 P1 Fe4 . . 6_555 0 ?
Ge1 P1 Fe4 . . 9_556 0 ?
Ge1 P1 Fe4 . . 11_556 0 ?
Ge1 P1 Fe5 . . . 0 ?
Ge1 P1 Ge1 5_555 . 6_555 120.00(10) ?
Ge1 P1 P1 5_555 . 5_555 0 ?
Ge1 P1 P1 5_555 . 6_555 120.00(10) ?
Ge1 P1 Fe1 5_555 . . 54.72(6) ?
Ge1 P1 Fe1 5_555 . 6_555 174.72(10) ?
Ge1 P1 Fe3 5_555 . . 111.62(3) ?
Ge1 P1 Fe3 5_555 . 9_556 111.62(3) ?
Ge1 P1 Fe4 5_555 . . 54.57(4) ?
Ge1 P1 Fe4 5_555 . 6_555 109.82(7) ?
Ge1 P1 Fe4 5_555 . 9_556 109.82(7) ?
Ge1 P1 Fe4 5_555 . 11_556 54.57(5) ?
Ge1 P1 Fe5 5_555 . . 60.00(6) ?
Ge1 P1 P1 6_555 . 5_555 120.00(10) ?
Ge1 P1 P1 6_555 . 6_555 0 ?
Ge1 P1 Fe1 6_555 . . 174.72(11) ?
Ge1 P1 Fe1 6_555 . 6_555 54.72(5) ?
Ge1 P1 Fe3 6_555 . . 111.62(3) ?
Ge1 P1 Fe3 6_555 . 9_556 111.62(3) ?
Ge1 P1 Fe4 6_555 . . 109.82(6) ?
Ge1 P1 Fe4 6_555 . 6_555 54.57(3) ?
Ge1 P1 Fe4 6_555 . 9_556 54.57(4) ?
Ge1 P1 Fe4 6_555 . 11_556 109.82(6) ?
Ge1 P1 Fe5 6_555 . . 60.00(6) ?
P1 P1 P1 5_555 . 6_555 120.00(10) ?
P1 P1 Fe1 5_555 . . 54.72(6) ?
P1 P1 Fe1 5_555 . 6_555 174.72(10) ?
P1 P1 Fe3 5_555 . . 111.62(3) ?
P1 P1 Fe3 5_555 . 9_556 111.62(3) ?
P1 P1 Fe4 5_555 . . 54.57(4) ?
P1 P1 Fe4 5_555 . 6_555 109.82(7) ?
P1 P1 Fe4 5_555 . 9_556 109.82(7) ?
P1 P1 Fe4 5_555 . 11_556 54.57(5) ?
P1 P1 Fe5 5_555 . . 60.00(6) ?
P1 P1 Fe1 6_555 . . 174.72(11) ?
P1 P1 Fe1 6_555 . 6_555 54.72(5) ?
P1 P1 Fe3 6_555 . . 111.62(3) ?
P1 P1 Fe3 6_555 . 9_556 111.62(3) ?
P1 P1 Fe4 6_555 . . 109.82(6) ?
P1 P1 Fe4 6_555 . 6_555 54.57(3) ?
P1 P1 Fe4 6_555 . 9_556 54.57(4) ?
P1 P1 Fe4 6_555 . 11_556 109.82(6) ?
P1 P1 Fe5 6_555 . . 60.00(6) ?
Fe1 P1 Fe1 . . 6_555 130.57(11) ?
Fe1 P1 Fe3 . . . 72.06(6) ?
Fe1 P1 Fe3 . . 9_556 72.06(6) ?
Fe1 P1 Fe4 . . . 67.59(3) ?
Fe1 P1 Fe4 . . 6_555 125.62(3) ?
Fe1 P1 Fe4 . . 9_556 125.62(3) ?
Fe1 P1 Fe4 . . 11_556 67.59(3) ?
Fe1 P1 Fe5 . . . 114.72(7) ?
Fe1 P1 Fe3 6_555 . . 72.06(5) ?
Fe1 P1 Fe3 6_555 . 9_556 72.06(5) ?
Fe1 P1 Fe4 6_555 . . 125.62(3) ?
Fe1 P1 Fe4 6_555 . 6_555 67.59(4) ?
Fe1 P1 Fe4 6_555 . 9_556 67.59(3) ?
Fe1 P1 Fe4 6_555 . 11_556 125.62(4) ?
Fe1 P1 Fe5 6_555 . . 114.72(5) ?
Fe3 P1 Fe3 . . 9_556 85.09(8) ?
Fe3 P1 Fe4 . . . 68.14(5) ?
Fe3 P1 Fe4 . . 6_555 68.14(4) ?
Fe3 P1 Fe4 . . 9_556 136.63(8) ?
Fe3 P1 Fe4 . . 11_556 136.63(8) ?
Fe3 P1 Fe5 . . . 137.45(5) ?
Fe3 P1 Fe4 9_556 . . 136.63(8) ?
Fe3 P1 Fe4 9_556 . 6_555 136.63(8) ?
Fe3 P1 Fe4 9_556 . 9_556 68.14(5) ?
Fe3 P1 Fe4 9_556 . 11_556 68.14(5) ?
Fe3 P1 Fe5 9_556 . . 137.45(5) ?
Fe4 P1 Fe4 . . 6_555 64.06(5) ?
Fe4 P1 Fe4 . . 9_556 152.14(12) ?
Fe4 P1 Fe4 . . 11_556 108.75(6) ?
Fe4 P1 Fe5 . . . 76.07(6) ?
Fe4 P1 Fe4 6_555 . 9_556 108.75(5) ?
Fe4 P1 Fe4 6_555 . 11_556 152.14(12) ?
Fe4 P1 Fe5 6_555 . . 76.07(6) ?
Fe4 P1 Fe4 9_556 . 11_556 64.06(4) ?
Fe4 P1 Fe5 9_556 . . 76.07(7) ?
Fe4 P1 Fe5 11_556 . . 76.07(6) ?
Ge1 Fe1 Ge1 . . 5_555 70.57(8) ?
Ge1 Fe1 P1 . . . 0 ?
Ge1 Fe1 P1 . . 5_555 70.57(8) ?
Ge1 Fe1 Ge2 . . . 166.00(11) ?
Ge1 Fe1 Ge2 . . 3_565 95.43(7) ?
Ge1 Fe1 Ge3 . . . 103.51(3) ?
Ge1 Fe1 Ge3 . . 11_556 103.51(4) ?
Ge1 Fe1 Fe3 . . . 54.84(4) ?
Ge1 Fe1 Fe3 . . 5_555 110.54(7) ?
Ge1 Fe1 Fe3 . . 9_556 54.84(4) ?
Ge1 Fe1 Fe3 . . 11_556 110.54(7) ?
Ge1 Fe1 Fe4 . . . 56.05(4) ?
Ge1 Fe1 Fe4 . . 11_556 56.05(4) ?
Ge1 Fe1 P1 5_555 . . 70.57(8) ?
Ge1 Fe1 P1 5_555 . 5_555 0 ?
Ge1 Fe1 Ge2 5_555 . . 95.43(8) ?
Ge1 Fe1 Ge2 5_555 . 3_565 166.00(7) ?
Ge1 Fe1 Ge3 5_555 . . 103.51(6) ?
Ge1 Fe1 Ge3 5_555 . 11_556 103.51(6) ?
Ge1 Fe1 Fe3 5_555 . . 110.54(6) ?
Ge1 Fe1 Fe3 5_555 . 5_555 54.84(5) ?
Ge1 Fe1 Fe3 5_555 . 9_556 110.54(6) ?
Ge1 Fe1 Fe3 5_555 . 11_556 54.84(5) ?
Ge1 Fe1 Fe4 5_555 . . 56.05(5) ?
Ge1 Fe1 Fe4 5_555 . 11_556 56.05(5) ?
P1 Fe1 P1 . . 5_555 70.57(8) ?
P1 Fe1 Ge2 . . . 166.00(11) ?
P1 Fe1 Ge2 . . 3_565 95.43(7) ?
P1 Fe1 Ge3 . . . 103.51(3) ?
P1 Fe1 Ge3 . . 11_556 103.51(4) ?
P1 Fe1 Fe3 . . . 54.84(4) ?
P1 Fe1 Fe3 . . 5_555 110.54(7) ?
P1 Fe1 Fe3 . . 9_556 54.84(4) ?
P1 Fe1 Fe3 . . 11_556 110.54(7) ?
P1 Fe1 Fe4 . . . 56.05(4) ?
P1 Fe1 Fe4 . . 11_556 56.05(4) ?
P1 Fe1 Ge2 5_555 . . 95.43(8) ?
P1 Fe1 Ge2 5_555 . 3_565 166.00(7) ?
P1 Fe1 Ge3 5_555 . . 103.51(6) ?
P1 Fe1 Ge3 5_555 . 11_556 103.51(6) ?
P1 Fe1 Fe3 5_555 . . 110.54(6) ?
P1 Fe1 Fe3 5_555 . 5_555 54.84(5) ?
P1 Fe1 Fe3 5_555 . 9_556 110.54(6) ?
P1 Fe1 Fe3 5_555 . 11_556 54.84(5) ?
P1 Fe1 Fe4 5_555 . . 56.05(5) ?
P1 Fe1 Fe4 5_555 . 11_556 56.05(5) ?
Ge2 Fe1 Ge2 . . 3_565 98.57(8) ?
Ge2 Fe1 Ge3 . . . 79.24(3) ?
Ge2 Fe1 Ge3 . . 11_556 79.24(4) ?
Ge2 Fe1 Fe3 . . . 134.25(5) ?
Ge2 Fe1 Fe3 . . 5_555 58.80(4) ?
Ge2 Fe1 Fe3 . . 9_556 134.25(5) ?
Ge2 Fe1 Fe3 . . 11_556 58.80(4) ?
Ge2 Fe1 Fe4 . . . 116.50(5) ?
Ge2 Fe1 Fe4 . . 11_556 116.50(5) ?
Ge2 Fe1 Ge3 3_565 . . 79.24(6) ?
Ge2 Fe1 Ge3 3_565 . 11_556 79.24(7) ?
Ge2 Fe1 Fe3 3_565 . . 58.80(4) ?
Ge2 Fe1 Fe3 3_565 . 5_555 134.25(5) ?
Ge2 Fe1 Fe3 3_565 . 9_556 58.80(4) ?
Ge2 Fe1 Fe3 3_565 . 11_556 134.25(5) ?
Ge2 Fe1 Fe4 3_565 . . 116.50(5) ?
Ge2 Fe1 Fe4 3_565 . 11_556 116.50(5) ?
Ge3 Fe1 Ge3 . . 11_556 146.73(9) ?
Ge3 Fe1 Fe3 . . . 58.85(3) ?
Ge3 Fe1 Fe3 . . 5_555 58.85(5) ?
Ge3 Fe1 Fe3 . . 9_556 126.60(6) ?
Ge3 Fe1 Fe3 . . 11_556 126.60(5) ?
Ge3 Fe1 Fe4 . . . 59.80(5) ?
Ge3 Fe1 Fe4 . . 11_556 153.47(8) ?
Ge3 Fe1 Fe3 11_556 . . 126.60(8) ?
Ge3 Fe1 Fe3 11_556 . 5_555 126.60(7) ?
Ge3 Fe1 Fe3 11_556 . 9_556 58.85(5) ?
Ge3 Fe1 Fe3 11_556 . 11_556 58.85(6) ?
Ge3 Fe1 Fe4 11_556 . . 153.47(8) ?
Ge3 Fe1 Fe4 11_556 . 11_556 59.80(5) ?
Fe3 Fe1 Fe3 . . 5_555 106.66(3) ?
Fe3 Fe1 Fe3 . . 9_556 71.06(4) ?
Fe3 Fe1 Fe3 . . 11_556 164.16(7) ?
Fe3 Fe1 Fe4 . . . 58.80(4) ?
Fe3 Fe1 Fe4 . . 11_556 109.24(5) ?
Fe3 Fe1 Fe3 5_555 . 9_556 164.16(7) ?
Fe3 Fe1 Fe3 5_555 . 11_556 71.06(5) ?
Fe3 Fe1 Fe4 5_555 . . 58.80(4) ?
Fe3 Fe1 Fe4 5_555 . 11_556 109.24(8) ?
Fe3 Fe1 Fe3 9_556 . 11_556 106.66(3) ?
Fe3 Fe1 Fe4 9_556 . . 109.24(4) ?
Fe3 Fe1 Fe4 9_556 . 11_556 58.80(5) ?
Fe3 Fe1 Fe4 11_556 . . 109.24(7) ?
Fe3 Fe1 Fe4 11_556 . 11_556 58.80(5) ?
Fe4 Fe1 Fe4 . . 11_556 93.67(6) ?
Fe1 Ge2 Fe1 . . 2_665 141.43(10) ?
Fe1 Ge2 Ge2 . . 4_665 109.29(7) ?
Fe1 Ge2 Ge3 . . . 51.53(3) ?
Fe1 Ge2 Ge3 . . 2_665 112.24(5) ?
Fe1 Ge2 Ge3 . . 10_666 112.24(5) ?
Fe1 Ge2 Ge3 . . 11_556 51.53(3) ?
Fe1 Ge2 Fe3 . . 2_665 133.30(4) ?
Fe1 Ge2 Fe3 . . 5_555 71.13(5) ?
Fe1 Ge2 Fe3 . . 8_666 133.30(4) ?
Fe1 Ge2 Fe3 . . 11_556 71.13(5) ?
Fe1 Ge2 Ge2 2_665 . 4_665 109.29(7) ?
Fe1 Ge2 Ge3 2_665 . . 112.24(5) ?
Fe1 Ge2 Ge3 2_665 . 2_665 51.53(3) ?
Fe1 Ge2 Ge3 2_665 . 10_666 51.53(3) ?
Fe1 Ge2 Ge3 2_665 . 11_556 112.24(5) ?
Fe1 Ge2 Fe3 2_665 . 2_665 71.13(5) ?
Fe1 Ge2 Fe3 2_665 . 5_555 133.30(4) ?
Fe1 Ge2 Fe3 2_665 . 8_666 71.13(5) ?
Fe1 Ge2 Fe3 2_665 . 11_556 133.30(4) ?
Ge2 Ge2 Ge3 4_665 . . 111.64(4) ?
Ge2 Ge2 Ge3 4_665 . 2_665 111.64(5) ?
Ge2 Ge2 Ge3 4_665 . 10_666 111.64(4) ?
Ge2 Ge2 Ge3 4_665 . 11_556 111.64(5) ?
Ge2 Ge2 Fe3 4_665 . 2_665 56.73(4) ?
Ge2 Ge2 Fe3 4_665 . 5_555 56.73(4) ?
Ge2 Ge2 Fe3 4_665 . 8_666 56.73(4) ?
Ge2 Ge2 Fe3 4_665 . 11_556 56.73(4) ?
Ge3 Ge2 Ge3 . . 2_665 64.02(4) ?
Ge3 Ge2 Ge3 . . 10_666 136.73(7) ?
Ge3 Ge2 Ge3 . . 11_556 99.57(5) ?
Ge3 Ge2 Fe3 . . 2_665 89.70(3) ?
Ge3 Ge2 Fe3 . . 5_555 55.11(4) ?
Ge3 Ge2 Fe3 . . 8_666 167.56(7) ?
Ge3 Ge2 Fe3 . . 11_556 114.19(5) ?
Ge3 Ge2 Ge3 2_665 . 10_666 99.57(5) ?
Ge3 Ge2 Ge3 2_665 . 11_556 136.73(8) ?
Ge3 Ge2 Fe3 2_665 . 2_665 55.11(5) ?
Ge3 Ge2 Fe3 2_665 . 5_555 89.70(4) ?
Ge3 Ge2 Fe3 2_665 . 8_666 114.19(5) ?
Ge3 Ge2 Fe3 2_665 . 11_556 167.56(7) ?
Ge3 Ge2 Ge3 10_666 . 11_556 64.02(4) ?
Ge3 Ge2 Fe3 10_666 . 2_665 114.19(5) ?
Ge3 Ge2 Fe3 10_666 . 5_555 167.56(7) ?
Ge3 Ge2 Fe3 10_666 . 8_666 55.11(4) ?
Ge3 Ge2 Fe3 10_666 . 11_556 89.70(3) ?
Ge3 Ge2 Fe3 11_556 . 2_665 167.56(7) ?
Ge3 Ge2 Fe3 11_556 . 5_555 114.19(5) ?
Ge3 Ge2 Fe3 11_556 . 8_666 89.70(4) ?
Ge3 Ge2 Fe3 11_556 . 11_556 55.11(5) ?
Fe3 Ge2 Fe3 2_665 . 5_555 64.63(4) ?
Fe3 Ge2 Fe3 2_665 . 8_666 80.01(5) ?
Fe3 Ge2 Fe3 2_665 . 11_556 113.46(7) ?
Fe3 Ge2 Fe3 5_555 . 8_666 113.46(7) ?
Fe3 Ge2 Fe3 5_555 . 11_556 80.01(5) ?
Fe3 Ge2 Fe3 8_666 . 11_556 64.63(4) ?
Fe1 Ge3 Ge2 . . . 49.23(3) ?
Fe1 Ge3 Ge2 . . 3_565 49.23(6) ?
Fe1 Ge3 Ge3 . . 11_555 163.37(7) ?
Fe1 Ge3 Fe2 . . . 145.45(7) ?
Fe1 Ge3 Fe3 . . . 69.47(4) ?
Fe1 Ge3 Fe3 . . 5_555 69.47(6) ?
Fe1 Ge3 Ge5 . . 4_565 120.61(7) ?
Fe1 Ge3 Ge5 . . 5_555 120.61(8) ?
Fe1 Ge3 Fe4 . . . 65.46(6) ?
Ge2 Ge3 Ge2 . . 3_565 71.51(5) ?
Ge2 Ge3 Ge3 . . 11_555 139.78(5) ?
Ge2 Ge3 Fe2 . . . 105.34(4) ?
Ge2 Ge3 Fe3 . . . 116.18(6) ?
Ge2 Ge3 Fe3 . . 5_555 54.23(4) ?
Ge2 Ge3 Ge5 . . 4_565 148.03(8) ?
Ge2 Ge3 Ge5 . . 5_555 80.97(4) ?
Ge2 Ge3 Fe4 . . . 99.62(6) ?
Ge2 Ge3 Ge3 3_565 . 11_555 139.78(7) ?
Ge2 Ge3 Fe2 3_565 . . 105.34(6) ?
Ge2 Ge3 Fe3 3_565 . . 54.23(4) ?
Ge2 Ge3 Fe3 3_565 . 5_555 116.18(6) ?
Ge2 Ge3 Ge5 3_565 . 4_565 80.97(6) ?
Ge2 Ge3 Ge5 3_565 . 5_555 148.03(7) ?
Ge2 Ge3 Fe4 3_565 . . 99.62(5) ?
Ge3 Ge3 Fe2 11_555 . . 51.18(4) ?
Ge3 Ge3 Fe3 11_555 . . 104.04(5) ?
Ge3 Ge3 Fe3 11_555 . 5_555 104.04(7) ?
Ge3 Ge3 Ge5 11_555 . 4_565 60.28(7) ?
Ge3 Ge3 Ge5 11_555 . 5_555 60.28(5) ?
Ge3 Ge3 Fe4 11_555 . . 97.90(6) ?
Fe2 Ge3 Fe3 . . . 118.30(6) ?
Fe2 Ge3 Fe3 . . 5_555 118.30(4) ?
Fe2 Ge3 Ge5 . . 4_565 66.18(6) ?
Fe2 Ge3 Ge5 . . 5_555 66.18(10) ?
Fe2 Ge3 Fe4 . . . 149.09(7) ?
Fe3 Ge3 Fe3 . . 5_555 122.74(6) ?
Fe3 Ge3 Ge5 . . 4_565 54.17(6) ?
Fe3 Ge3 Ge5 . . 5_555 157.62(9) ?
Fe3 Ge3 Fe4 . . . 63.73(4) ?
Fe3 Ge3 Ge5 5_555 . 4_565 157.62(7) ?
Fe3 Ge3 Ge5 5_555 . 5_555 54.17(9) ?
Fe3 Ge3 Fe4 5_555 . . 63.73(5) ?
Ge5 Ge3 Ge5 4_565 . 5_555 118.68(8) ?
Ge5 Ge3 Fe4 4_565 . . 100.76(5) ?
Ge5 Ge3 Fe4 5_555 . . 100.76(11) ?
Fe3 Ge4 Fe3 3_555 . 7_555 113.98(8) ?
Fe3 Ge4 Ge5 3_555 . 3_555 57.54(5) ?
Fe3 Ge4 Ge5 3_555 . 6_655 57.54(5) ?
Fe3 Ge4 Fe4 3_555 . 3_555 66.35(4) ?
Fe3 Ge4 Fe4 3_555 . 5_555 66.35(5) ?
Fe3 Ge4 Fe4 3_555 . 7_555 148.49(3) ?
Fe3 Ge4 Fe4 3_555 . 12_555 148.49(4) ?
Fe3 Ge4 Ge5 7_555 . 3_555 57.54(5) ?
Fe3 Ge4 Ge5 7_555 . 6_655 57.54(5) ?
Fe3 Ge4 Fe4 7_555 . 3_555 148.49(3) ?
Fe3 Ge4 Fe4 7_555 . 5_555 148.49(3) ?
Fe3 Ge4 Fe4 7_555 . 7_555 66.35(4) ?
Fe3 Ge4 Fe4 7_555 . 12_555 66.35(3) ?
Ge5 Ge4 Ge5 3_555 . 6_655 19.79(12) ?
Ge5 Ge4 Fe4 3_555 . 3_555 119.82(8) ?
Ge5 Ge4 Fe4 3_555 . 5_555 108.59(8) ?
Ge5 Ge4 Fe4 3_555 . 7_555 108.59(8) ?
Ge5 Ge4 Fe4 3_555 . 12_555 119.82(7) ?
Ge5 Ge4 Fe4 6_655 . 3_555 108.59(7) ?
Ge5 Ge4 Fe4 6_655 . 5_555 119.82(7) ?
Ge5 Ge4 Fe4 6_655 . 7_555 119.82(7) ?
Ge5 Ge4 Fe4 6_655 . 12_555 108.59(7) ?
Fe4 Ge4 Fe4 3_555 . 5_555 62.56(4) ?
Fe4 Ge4 Fe4 3_555 . 7_555 131.06(10) ?
Fe4 Ge4 Fe4 3_555 . 12_555 96.75(6) ?
Fe4 Ge4 Fe4 5_555 . 7_555 96.75(7) ?
Fe4 Ge4 Fe4 5_555 . 12_555 131.06(10) ?
Fe4 Ge4 Fe4 7_555 . 12_555 62.56(5) ?
Ge3 Fe2 Ge3 . . 2_665 84.87(4) ?
Ge3 Fe2 Ge3 . . 3_565 84.87(4) ?
Ge3 Fe2 Ge3 . . 10_665 134.14(5) ?
Ge3 Fe2 Ge3 . . 11_555 77.63(5) ?
Ge3 Fe2 Ge3 . . 12_565 134.14(3) ?
Ge3 Fe2 Ge5 . . 4_565 67.07(5) ?
Ge3 Fe2 Ge5 . . 5_555 67.07(5) ?
Ge3 Fe2 Ge5 . . 6_665 141.18(3) ?
Ge3 Fe2 Ge3 2_665 . 3_565 84.87(6) ?
Ge3 Fe2 Ge3 2_665 . 10_665 77.63(5) ?
Ge3 Fe2 Ge3 2_665 . 11_555 134.14(7) ?
Ge3 Fe2 Ge3 2_665 . 12_565 134.14(5) ?
Ge3 Fe2 Ge5 2_665 . 4_565 141.18(3) ?
Ge3 Fe2 Ge5 2_665 . 5_555 67.07(6) ?
Ge3 Fe2 Ge5 2_665 . 6_665 67.07(9) ?
Ge3 Fe2 Ge3 3_565 . 10_665 134.14(3) ?
Ge3 Fe2 Ge3 3_565 . 11_555 134.14(5) ?
Ge3 Fe2 Ge3 3_565 . 12_565 77.63(5) ?
Ge3 Fe2 Ge5 3_565 . 4_565 67.07(6) ?
Ge3 Fe2 Ge5 3_565 . 5_555 141.18(4) ?
Ge3 Fe2 Ge5 3_565 . 6_665 67.07(9) ?
Ge3 Fe2 Ge3 10_665 . 11_555 84.87(4) ?
Ge3 Fe2 Ge3 10_665 . 12_565 84.87(4) ?
Ge3 Fe2 Ge5 10_665 . 4_565 141.18(3) ?
Ge3 Fe2 Ge5 10_665 . 5_555 67.07(5) ?
Ge3 Fe2 Ge5 10_665 . 6_665 67.07(9) ?
Ge3 Fe2 Ge3 11_555 . 12_565 84.87(6) ?
Ge3 Fe2 Ge5 11_555 . 4_565 67.07(6) ?
Ge3 Fe2 Ge5 11_555 . 5_555 67.07(6) ?
Ge3 Fe2 Ge5 11_555 . 6_665 141.18(3) ?
Ge3 Fe2 Ge5 12_565 . 4_565 67.07(5) ?
Ge3 Fe2 Ge5 12_565 . 5_555 141.18(4) ?
Ge3 Fe2 Ge5 12_565 . 6_665 67.07(9) ?
Ge5 Fe2 Ge5 4_565 . 5_555 120.00(9) ?
Ge5 Fe2 Ge5 4_565 . 6_665 120.00(13) ?
Ge5 Fe2 Ge5 5_555 . 6_665 120.00(13) ?
Ge1 Fe3 P1 . . . 0 ?
Ge1 Fe3 Fe1 . . . 53.10(3) ?
Ge1 Fe3 Fe1 . . 6_555 53.10(4) ?
Ge1 Fe3 Ge2 . . 3_565 87.66(5) ?
Ge1 Fe3 Ge2 . . 6_555 87.66(5) ?
Ge1 Fe3 Ge3 . . . 95.99(4) ?
Ge1 Fe3 Ge3 . . 6_555 95.99(4) ?
Ge1 Fe3 Ge4 . . 2_555 99.53(7) ?
Ge1 Fe3 Fe3 . . 4_565 137.45(7) ?
Ge1 Fe3 Ge5 . . . 162.18(7) ?
Ge1 Fe3 Ge5 . . 4_565 162.18(11) ?
Ge1 Fe3 Fe4 . . . 54.84(5) ?
Ge1 Fe3 Fe4 . . 6_555 54.84(5) ?
P1 Fe3 Fe1 . . . 53.10(3) ?
P1 Fe3 Fe1 . . 6_555 53.10(4) ?
P1 Fe3 Ge2 . . 3_565 87.66(5) ?
P1 Fe3 Ge2 . . 6_555 87.66(5) ?
P1 Fe3 Ge3 . . . 95.99(4) ?
P1 Fe3 Ge3 . . 6_555 95.99(4) ?
P1 Fe3 Ge4 . . 2_555 99.53(7) ?
P1 Fe3 Fe3 . . 4_565 137.45(7) ?
P1 Fe3 Ge5 . . . 162.18(7) ?
P1 Fe3 Ge5 . . 4_565 162.18(11) ?
P1 Fe3 Fe4 . . . 54.84(5) ?
P1 Fe3 Fe4 . . 6_555 54.84(5) ?
Fe1 Fe3 Fe1 . . 6_555 99.55(5) ?
Fe1 Fe3 Ge2 . . 3_565 50.07(6) ?
Fe1 Fe3 Ge2 . . 6_555 101.30(5) ?
Fe1 Fe3 Ge3 . . . 51.68(3) ?
Fe1 Fe3 Ge3 . . 6_555 148.90(6) ?
Fe1 Fe3 Ge4 . . 2_555 109.50(5) ?
Fe1 Fe3 Fe3 . . 4_565 106.36(5) ?
Fe1 Fe3 Ge5 . . . 140.53(9) ?
Fe1 Fe3 Ge5 . . 4_565 119.11(9) ?
Fe1 Fe3 Fe4 . . . 57.11(4) ?
Fe1 Fe3 Fe4 . . 6_555 99.81(6) ?
Fe1 Fe3 Ge2 6_555 . 3_565 101.30(5) ?
Fe1 Fe3 Ge2 6_555 . 6_555 50.07(4) ?
Fe1 Fe3 Ge3 6_555 . . 148.90(7) ?
Fe1 Fe3 Ge3 6_555 . 6_555 51.68(4) ?
Fe1 Fe3 Ge4 6_555 . 2_555 109.50(4) ?
Fe1 Fe3 Fe3 6_555 . 4_565 106.36(5) ?
Fe1 Fe3 Ge5 6_555 . . 119.11(10) ?
Fe1 Fe3 Ge5 6_555 . 4_565 140.53(11) ?
Fe1 Fe3 Fe4 6_555 . . 99.81(6) ?
Fe1 Fe3 Fe4 6_555 . 6_555 57.11(4) ?
Ge2 Fe3 Ge2 3_565 . 6_555 66.54(5) ?
Ge2 Fe3 Ge3 3_565 . . 70.66(5) ?
Ge2 Fe3 Ge3 3_565 . 6_555 136.85(6) ?
Ge2 Fe3 Ge4 3_565 . 2_555 146.13(4) ?
Ge2 Fe3 Fe3 3_565 . 4_565 57.68(5) ?
Ge2 Fe3 Ge5 3_565 . . 110.11(6) ?
Ge2 Fe3 Ge5 3_565 . 4_565 97.97(5) ?
Ge2 Fe3 Fe4 3_565 . . 106.29(5) ?
Ge2 Fe3 Fe4 3_565 . 6_555 142.47(6) ?
Ge2 Fe3 Ge3 6_555 . . 136.85(6) ?
Ge2 Fe3 Ge3 6_555 . 6_555 70.66(4) ?
Ge2 Fe3 Ge4 6_555 . 2_555 146.13(3) ?
Ge2 Fe3 Fe3 6_555 . 4_565 57.68(4) ?
Ge2 Fe3 Ge5 6_555 . . 97.97(10) ?
Ge2 Fe3 Ge5 6_555 . 4_565 110.11(11) ?
Ge2 Fe3 Fe4 6_555 . . 142.47(6) ?
Ge2 Fe3 Fe4 6_555 . 6_555 106.29(5) ?
Ge3 Fe3 Ge3 . . 6_555 150.37(7) ?
Ge3 Fe3 Ge4 . . 2_555 75.67(4) ?
Ge3 Fe3 Fe3 . . 4_565 94.64(4) ?
Ge3 Fe3 Ge5 . . . 91.42(10) ?
Ge3 Fe3 Ge5 . . 4_565 70.33(11) ?
Ge3 Fe3 Fe4 . . . 56.76(4) ?
Ge3 Fe3 Fe4 . . 6_555 110.80(6) ?
Ge3 Fe3 Ge4 6_555 . 2_555 75.67(4) ?
Ge3 Fe3 Fe3 6_555 . 4_565 94.64(4) ?
Ge3 Fe3 Ge5 6_555 . . 70.33(8) ?
Ge3 Fe3 Ge5 6_555 . 4_565 91.42(10) ?
Ge3 Fe3 Fe4 6_555 . . 110.80(5) ?
Ge3 Fe3 Fe4 6_555 . 6_555 56.76(5) ?
Ge4 Fe3 Fe3 2_555 . 4_565 123.01(7) ?
Ge4 Fe3 Ge5 2_555 . . 66.63(8) ?
Ge4 Fe3 Ge5 2_555 . 4_565 66.63(8) ?
Ge4 Fe3 Fe4 2_555 . . 55.51(5) ?
Ge4 Fe3 Fe4 2_555 . 6_555 55.51(5) ?
Fe3 Fe3 Ge5 4_565 . . 57.49(7) ?
Fe3 Fe3 Ge5 4_565 . 4_565 57.49(8) ?
Fe3 Fe3 Fe4 4_565 . . 151.39(2) ?
Fe3 Fe3 Fe4 4_565 . 6_555 151.39(4) ?
Ge5 Fe3 Ge5 . . 4_565 21.55(13) ?
Ge5 Fe3 Fe4 . . . 118.23(10) ?
Ge5 Fe3 Fe4 . . 6_555 107.36(6) ?
Ge5 Fe3 Fe4 4_565 . . 107.36(11) ?
Ge5 Fe3 Fe4 4_565 . 6_555 118.23(7) ?
Fe4 Fe3 Fe4 . . 6_555 55.71(4) ?
Ge3 Ge5 Ge3 4_565 . 6_555 64.51(8) ?
Ge3 Ge5 Ge3 4_565 . 8_565 59.44(10) ?
Ge3 Ge5 Ge3 4_565 . 9_555 93.51(12) ?
Ge3 Ge5 Ge4 4_565 . 2_555 130.05(7) ?
Ge3 Ge5 Ge4 4_565 . 5_565 65.92(9) ?
Ge3 Ge5 Fe2 4_565 . 4_565 46.75(7) ?
Ge3 Ge5 Fe3 4_565 . . 90.42(6) ?
Ge3 Ge5 Fe3 4_565 . 4_565 55.50(7) ?
Ge3 Ge5 Fe3 4_565 . 9_555 145.34(14) ?
Ge3 Ge5 Fe3 4_565 . 12_565 104.41(15) ?
Ge3 Ge5 Ge5 4_565 . 4_565 133.2(2) ?
Ge3 Ge5 Ge3 6_555 . 8_565 93.51(12) ?
Ge3 Ge5 Ge3 6_555 . 9_555 59.44(6) ?
Ge3 Ge5 Ge4 6_555 . 2_555 65.92(6) ?
Ge3 Ge5 Ge4 6_555 . 5_565 130.05(15) ?
Ge3 Ge5 Fe2 6_555 . 4_565 46.75(6) ?
Ge3 Ge5 Fe3 6_555 . . 55.50(4) ?
Ge3 Ge5 Fe3 6_555 . 4_565 90.42(5) ?
Ge3 Ge5 Fe3 6_555 . 9_555 104.41(8) ?
Ge3 Ge5 Fe3 6_555 . 12_565 145.34(14) ?
Ge3 Ge5 Ge5 6_555 . 4_565 133.2(3) ?
Ge3 Ge5 Ge3 8_565 . 9_555 64.51(8) ?
Ge3 Ge5 Ge4 8_565 . 2_555 130.05(7) ?
Ge3 Ge5 Ge4 8_565 . 5_565 65.92(9) ?
Ge3 Ge5 Fe2 8_565 . 4_565 46.75(7) ?
Ge3 Ge5 Fe3 8_565 . . 145.34(14) ?
Ge3 Ge5 Fe3 8_565 . 4_565 104.41(15) ?
Ge3 Ge5 Fe3 8_565 . 9_555 90.42(6) ?
Ge3 Ge5 Fe3 8_565 . 12_565 55.50(7) ?
Ge3 Ge5 Ge5 8_565 . 4_565 133.2(2) ?
Ge3 Ge5 Ge4 9_555 . 2_555 65.92(6) ?
Ge3 Ge5 Ge4 9_555 . 5_565 130.05(15) ?
Ge3 Ge5 Fe2 9_555 . 4_565 46.75(5) ?
Ge3 Ge5 Fe3 9_555 . . 104.41(8) ?
Ge3 Ge5 Fe3 9_555 . 4_565 145.34(14) ?
Ge3 Ge5 Fe3 9_555 . 9_555 55.50(4) ?
Ge3 Ge5 Fe3 9_555 . 12_565 90.42(6) ?
Ge3 Ge5 Ge5 9_555 . 4_565 133.2(3) ?
Ge4 Ge5 Ge4 2_555 . 5_565 160.21(17) ?
Ge4 Ge5 Fe2 2_555 . 4_565 99.89(6) ?
Ge4 Ge5 Fe3 2_555 . . 55.83(8) ?
Ge4 Ge5 Fe3 2_555 . 4_565 119.83(11) ?
Ge4 Ge5 Fe3 2_555 . 9_555 55.83(8) ?
Ge4 Ge5 Fe3 2_555 . 12_565 119.83(11) ?
Ge4 Ge5 Ge5 2_555 . 4_565 80.1(3) ?
Ge4 Ge5 Fe2 5_565 . 4_565 99.89(15) ?
Ge4 Ge5 Fe3 5_565 . . 119.83(5) ?
Ge4 Ge5 Fe3 5_565 . 4_565 55.83(6) ?
Ge4 Ge5 Fe3 5_565 . 9_555 119.83(5) ?
Ge4 Ge5 Fe3 5_565 . 12_565 55.83(6) ?
Ge4 Ge5 Ge5 5_565 . 4_565 80.1(2) ?
Fe2 Ge5 Fe3 4_565 . . 100.77(7) ?
Fe2 Ge5 Fe3 4_565 . 4_565 100.77(13) ?
Fe2 Ge5 Fe3 4_565 . 9_555 100.77(7) ?
Fe2 Ge5 Fe3 4_565 . 12_565 100.77(13) ?
Fe2 Ge5 Ge5 4_565 . 4_565 180 ?
Fe3 Ge5 Fe3 . . 4_565 65.03(4) ?
Fe3 Ge5 Fe3 . . 9_555 110.63(16) ?
Fe3 Ge5 Fe3 . . 12_565 158.45(18) ?
Fe3 Ge5 Ge5 . . 4_565 79.2(2) ?
Fe3 Ge5 Fe3 4_565 . 9_555 158.45(18) ?
Fe3 Ge5 Fe3 4_565 . 12_565 110.63(10) ?
Fe3 Ge5 Ge5 4_565 . 4_565 79.23(13) ?
Fe3 Ge5 Fe3 9_555 . 12_565 65.03(4) ?
Fe3 Ge5 Ge5 9_555 . 4_565 79.2(2) ?
Fe3 Ge5 Ge5 12_565 . 4_565 79.23(13) ?
Ge0 Fe4 Ge1 . . . 97.60(9) ?
Ge0 Fe4 Ge1 . . 5_555 97.60(10) ?
Ge0 Fe4 P1 . . . 97.60(9) ?
Ge0 Fe4 P1 . . 5_555 97.60(10) ?
Ge0 Fe4 Fe1 . . . 146.50(10) ?
Ge0 Fe4 Ge3 . . . 158.77(11) ?
Ge0 Fe4 Ge4 . . 2_555 85.65(8) ?
Ge0 Fe4 Ge4 . . 6_555 85.65(8) ?
Ge0 Fe4 Fe3 . . . 122.46(3) ?
Ge0 Fe4 Fe3 . . 5_555 122.46(6) ?
Ge0 Fe4 Fe4 . . 5_555 60.89(4) ?
Ge0 Fe4 Fe4 . . 6_555 60.89(3) ?
Ge1 Fe4 Ge1 . . 5_555 70.86(7) ?
Ge1 Fe4 P1 . . . 0 ?
Ge1 Fe4 P1 . . 5_555 70.86(7) ?
Ge1 Fe4 Fe1 . . . 56.35(5) ?
Ge1 Fe4 Ge3 . . . 99.67(8) ?
Ge1 Fe4 Ge4 . . 2_555 103.45(5) ?
Ge1 Fe4 Ge4 . . 6_555 173.72(6) ?
Ge1 Fe4 Fe3 . . . 57.02(6) ?
Ge1 Fe4 Fe3 . . 5_555 115.70(6) ?
Ge1 Fe4 Fe4 . . 5_555 118.27(8) ?
Ge1 Fe4 Fe4 . . 6_555 57.97(4) ?
Ge1 Fe4 P1 5_555 . . 70.86(7) ?
Ge1 Fe4 P1 5_555 . 5_555 0 ?
Ge1 Fe4 Fe1 5_555 . . 56.35(7) ?
Ge1 Fe4 Ge3 5_555 . . 99.67(6) ?
Ge1 Fe4 Ge4 5_555 . 2_555 173.72(9) ?
Ge1 Fe4 Ge4 5_555 . 6_555 103.45(7) ?
Ge1 Fe4 Fe3 5_555 . . 115.70(9) ?
Ge1 Fe4 Fe3 5_555 . 5_555 57.02(5) ?
Ge1 Fe4 Fe4 5_555 . 5_555 57.97(7) ?
Ge1 Fe4 Fe4 5_555 . 6_555 118.27(7) ?
P1 Fe4 P1 . . 5_555 70.86(7) ?
P1 Fe4 Fe1 . . . 56.35(5) ?
P1 Fe4 Ge3 . . . 99.67(8) ?
P1 Fe4 Ge4 . . 2_555 103.45(5) ?
P1 Fe4 Ge4 . . 6_555 173.72(6) ?
P1 Fe4 Fe3 . . . 57.02(6) ?
P1 Fe4 Fe3 . . 5_555 115.70(6) ?
P1 Fe4 Fe4 . . 5_555 118.27(8) ?
P1 Fe4 Fe4 . . 6_555 57.97(4) ?
P1 Fe4 Fe1 5_555 . . 56.35(7) ?
P1 Fe4 Ge3 5_555 . . 99.67(6) ?
P1 Fe4 Ge4 5_555 . 2_555 173.72(9) ?
P1 Fe4 Ge4 5_555 . 6_555 103.45(7) ?
P1 Fe4 Fe3 5_555 . . 115.70(9) ?
P1 Fe4 Fe3 5_555 . 5_555 57.02(5) ?
P1 Fe4 Fe4 5_555 . 5_555 57.97(7) ?
P1 Fe4 Fe4 5_555 . 6_555 118.27(7) ?
Fe1 Fe4 Ge3 . . . 54.74(5) ?
Fe1 Fe4 Ge4 . . 2_555 118.52(8) ?
Fe1 Fe4 Ge4 . . 6_555 118.52(4) ?
Fe1 Fe4 Fe3 . . . 64.10(5) ?
Fe1 Fe4 Fe3 . . 5_555 64.10(4) ?
Fe1 Fe4 Fe4 . . 5_555 110.00(6) ?
Fe1 Fe4 Fe4 . . 6_555 110.00(6) ?
Ge3 Fe4 Ge4 . . 2_555 78.41(6) ?
Ge3 Fe4 Ge4 . . 6_555 78.41(6) ?
Ge3 Fe4 Fe3 . . . 59.52(4) ?
Ge3 Fe4 Fe3 . . 5_555 59.52(4) ?
Ge3 Fe4 Fe4 . . 5_555 119.69(4) ?
Ge3 Fe4 Fe4 . . 6_555 119.69(6) ?
Ge4 Fe4 Ge4 2_555 . 6_555 82.11(6) ?
Ge4 Fe4 Fe3 2_555 . . 58.14(5) ?
Ge4 Fe4 Fe3 2_555 . 5_555 125.47(6) ?
Ge4 Fe4 Fe4 2_555 . 5_555 128.20(8) ?
Ge4 Fe4 Fe4 2_555 . 6_555 58.72(4) ?
Ge4 Fe4 Fe3 6_555 . . 125.47(8) ?
Ge4 Fe4 Fe3 6_555 . 5_555 58.14(4) ?
Ge4 Fe4 Fe4 6_555 . 5_555 58.72(7) ?
Ge4 Fe4 Fe4 6_555 . 6_555 128.20(7) ?
Fe3 Fe4 Fe3 . . 5_555 115.04(5) ?
Fe3 Fe4 Fe4 . . 5_555 173.66(8) ?
Fe3 Fe4 Fe4 . . 6_555 62.15(4) ?
Fe3 Fe4 Fe4 5_555 . 5_555 62.15(4) ?
Fe3 Fe4 Fe4 5_555 . 6_555 173.66(8) ?
Fe4 Fe4 Fe4 5_555 . 6_555 120.00(6) ?
Ge0 Fe5 Ge0 . . 7_556 180 ?
Ge0 Fe5 Ge1 . . . 90 ?
Ge0 Fe5 Ge1 . . 2_555 90 ?
Ge0 Fe5 Ge1 . . 3_555 90 ?
Ge0 Fe5 Ge1 . . 4_555 90 ?
Ge0 Fe5 Ge1 . . 5_555 90 ?
Ge0 Fe5 Ge1 . . 6_555 90 ?
Ge0 Fe5 P1 . . . 90 ?
Ge0 Fe5 P1 . . 2_555 90 ?
Ge0 Fe5 P1 . . 3_555 90 ?
Ge0 Fe5 P1 . . 4_555 90 ?
Ge0 Fe5 P1 . . 5_555 90 ?
Ge0 Fe5 P1 . . 6_555 90 ?
Ge0 Fe5 Ge1 7_556 . . 90 ?
Ge0 Fe5 Ge1 7_556 . 2_555 90 ?
Ge0 Fe5 Ge1 7_556 . 3_555 90 ?
Ge0 Fe5 Ge1 7_556 . 4_555 90 ?
Ge0 Fe5 Ge1 7_556 . 5_555 90 ?
Ge0 Fe5 Ge1 7_556 . 6_555 90 ?
Ge0 Fe5 P1 7_556 . . 90 ?
Ge0 Fe5 P1 7_556 . 2_555 90 ?
Ge0 Fe5 P1 7_556 . 3_555 90 ?
Ge0 Fe5 P1 7_556 . 4_555 90 ?
Ge0 Fe5 P1 7_556 . 5_555 90 ?
Ge0 Fe5 P1 7_556 . 6_555 90 ?
Ge1 Fe5 Ge1 . . 2_555 120.00(6) ?
Ge1 Fe5 Ge1 . . 3_555 120.0000(5) ?
Ge1 Fe5 Ge1 . . 4_555 180 ?
Ge1 Fe5 Ge1 . . 5_555 60.00(6) ?
Ge1 Fe5 Ge1 . . 6_555 60.0000(5) ?
Ge1 Fe5 P1 . . . 0 ?
Ge1 Fe5 P1 . . 2_555 120.00(6) ?
Ge1 Fe5 P1 . . 3_555 120.0000(5) ?
Ge1 Fe5 P1 . . 4_555 180 ?
Ge1 Fe5 P1 . . 5_555 60.00(6) ?
Ge1 Fe5 P1 . . 6_555 60.0000(5) ?
Ge1 Fe5 Ge1 2_555 . 3_555 120.00(6) ?
Ge1 Fe5 Ge1 2_555 . 4_555 60.00(6) ?
Ge1 Fe5 Ge1 2_555 . 5_555 180 ?
Ge1 Fe5 Ge1 2_555 . 6_555 60.00(6) ?
Ge1 Fe5 P1 2_555 . . 120.00(6) ?
Ge1 Fe5 P1 2_555 . 2_555 0 ?
Ge1 Fe5 P1 2_555 . 3_555 120.00(6) ?
Ge1 Fe5 P1 2_555 . 4_555 60.00(6) ?
Ge1 Fe5 P1 2_555 . 5_555 180 ?
Ge1 Fe5 P1 2_555 . 6_555 60.00(6) ?
Ge1 Fe5 Ge1 3_555 . 4_555 60.0000(5) ?
Ge1 Fe5 Ge1 3_555 . 5_555 60.00(6) ?
Ge1 Fe5 Ge1 3_555 . 6_555 180 ?
Ge1 Fe5 P1 3_555 . . 120.0000(5) ?
Ge1 Fe5 P1 3_555 . 2_555 120.00(6) ?
Ge1 Fe5 P1 3_555 . 3_555 0 ?
Ge1 Fe5 P1 3_555 . 4_555 60.0000(5) ?
Ge1 Fe5 P1 3_555 . 5_555 60.00(6) ?
Ge1 Fe5 P1 3_555 . 6_555 180 ?
Ge1 Fe5 Ge1 4_555 . 5_555 120.00(6) ?
Ge1 Fe5 Ge1 4_555 . 6_555 120.0000(5) ?
Ge1 Fe5 P1 4_555 . . 180 ?
Ge1 Fe5 P1 4_555 . 2_555 60.00(6) ?
Ge1 Fe5 P1 4_555 . 3_555 60.0000(5) ?
Ge1 Fe5 P1 4_555 . 4_555 0 ?
Ge1 Fe5 P1 4_555 . 5_555 120.00(6) ?
Ge1 Fe5 P1 4_555 . 6_555 120.0000(5) ?
Ge1 Fe5 Ge1 5_555 . 6_555 120.00(6) ?
Ge1 Fe5 P1 5_555 . . 60.00(6) ?
Ge1 Fe5 P1 5_555 . 2_555 180 ?
Ge1 Fe5 P1 5_555 . 3_555 60.00(6) ?
Ge1 Fe5 P1 5_555 . 4_555 120.00(6) ?
Ge1 Fe5 P1 5_555 . 5_555 0 ?
Ge1 Fe5 P1 5_555 . 6_555 120.00(6) ?
Ge1 Fe5 P1 6_555 . . 60.0000(5) ?
Ge1 Fe5 P1 6_555 . 2_555 60.00(6) ?
Ge1 Fe5 P1 6_555 . 3_555 180 ?
Ge1 Fe5 P1 6_555 . 4_555 120.0000(5) ?
Ge1 Fe5 P1 6_555 . 5_555 120.00(6) ?
Ge1 Fe5 P1 6_555 . 6_555 0 ?
P1 Fe5 P1 . . 2_555 120.00(6) ?
P1 Fe5 P1 . . 3_555 120.0000(5) ?
P1 Fe5 P1 . . 4_555 180 ?
P1 Fe5 P1 . . 5_555 60.00(6) ?
P1 Fe5 P1 . . 6_555 60.0000(5) ?
P1 Fe5 P1 2_555 . 3_555 120.00(6) ?
P1 Fe5 P1 2_555 . 4_555 60.00(6) ?
P1 Fe5 P1 2_555 . 5_555 180 ?
P1 Fe5 P1 2_555 . 6_555 60.00(6) ?
P1 Fe5 P1 3_555 . 4_555 60.0000(5) ?
P1 Fe5 P1 3_555 . 5_555 60.00(6) ?
P1 Fe5 P1 3_555 . 6_555 180 ?
P1 Fe5 P1 4_555 . 5_555 120.00(6) ?
P1 Fe5 P1 4_555 . 6_555 120.0000(5) ?
P1 Fe5 P1 5_555 . 6_555 120.00(6) ?
loop_
_geom_bond_atom_site_label_1
_geom_bond_atom_site_label_2
_geom_bond_site_symmetry_1
_geom_bond_site_symmetry_2
_geom_bond_distance
_geom_bond_publ_flag
Ge0 Ge0 . 7_555 2.447(5) ?
Ge0 Fe4 . . 2.6040(15) ?
Ge0 Fe4 . 2_555 2.6040(15) ?
Ge0 Fe4 . 3_555 2.6040(17) ?
Ge0 Fe4 . 4_555 2.6040(15) ?
Ge0 Fe4 . 5_555 2.6040(15) ?
Ge0 Fe4 . 6_555 2.6040(17) ?
Ge0 Fe5 . . 2.542(4) ?
Ge1 Ge1 . 5_555 2.769(3) ?
Ge1 Ge1 . 6_555 2.7693(16) ?
Ge1 P1 . . 0 ?
Ge1 P1 . 5_555 2.769(3) ?
Ge1 P1 . 6_555 2.7693(16) ?
Ge1 Fe1 . . 2.3971(13) ?
Ge1 Fe1 . 6_555 2.397(2) ?
Ge1 Fe3 . . 2.451(2) ?
Ge1 Fe3 . 9_556 2.451(2) ?
Ge1 Fe4 . . 2.3886(15) ?
Ge1 Fe4 . 6_555 2.3886(15) ?
Ge1 Fe4 . 9_556 2.3886(14) ?
Ge1 Fe4 . 11_556 2.3886(17) ?
Ge1 Fe5 . . 2.769(2) ?
P1 P1 . 5_555 2.769(3) ?
P1 P1 . 6_555 2.7693(16) ?
P1 Fe1 . . 2.3971(13) ?
P1 Fe1 . 6_555 2.397(2) ?
P1 Fe3 . . 2.451(2) ?
P1 Fe3 . 9_556 2.451(2) ?
P1 Fe4 . . 2.3886(15) ?
P1 Fe4 . 6_555 2.3886(15) ?
P1 Fe4 . 9_556 2.3886(14) ?
P1 Fe4 . 11_556 2.3886(17) ?
P1 Fe5 . . 2.769(2) ?
Fe1 Ge2 . . 2.3113(12) ?
Fe1 Ge2 . 3_565 2.311(3) ?
Fe1 Ge3 . . 2.3894(14) ?
Fe1 Ge3 . 11_556 2.3894(14) ?
Fe1 Fe3 . . 2.8519(12) ?
Fe1 Fe3 . 5_555 2.8519(18) ?
Fe1 Fe3 . 9_556 2.8519(12) ?
Fe1 Fe3 . 11_556 2.8519(18) ?
Fe1 Fe4 . . 2.6621(18) ?
Fe1 Fe4 . 11_556 2.6621(18) ?
Ge2 Ge2 . 4_665 2.828(2) ?
Ge2 Ge3 . . 2.9981(14) ?
Ge2 Ge3 . 2_665 2.9981(16) ?
Ge2 Ge3 . 10_666 2.9981(14) ?
Ge2 Ge3 . 11_556 2.9981(16) ?
Ge2 Fe3 . 2_665 2.5779(15) ?
Ge2 Fe3 . 5_555 2.5779(15) ?
Ge2 Fe3 . 8_666 2.5779(15) ?
Ge2 Fe3 . 11_556 2.5779(15) ?
Ge3 Ge3 . 11_555 2.9525(19) ?
Ge3 Fe2 . . 2.3551(14) ?
Ge3 Fe3 . . 2.6062(8) ?
Ge3 Fe3 . 5_555 2.606(2) ?
Ge3 Ge5 . 4_565 2.978(4) ?
Ge3 Ge5 . 5_555 2.978(3) ?
Ge3 Fe4 . . 2.5292(18) ?
Ge4 Fe3 . 3_555 2.5143(16) ?
Ge4 Fe3 . 7_555 2.5143(16) ?
Ge4 Ge5 . 3_555 2.789(6) ?
Ge4 Ge5 . 6_655 2.789(6) ?
Ge4 Fe4 . 3_555 2.4400(16) ?
Ge4 Fe4 . 5_555 2.4400(18) ?
Ge4 Fe4 . 7_555 2.4400(16) ?
Ge4 Fe4 . 12_555 2.4400(15) ?
Fe2 Ge5 . 4_565 2.958(4) ?
Fe2 Ge5 . 5_555 2.958(5) ?
Fe2 Ge5 . 6_665 2.958(4) ?
Fe3 Fe3 . 4_565 2.7563(16) ?
Fe3 Ge5 . . 2.564(3) ?
Fe3 Ge5 . 4_565 2.5640(18) ?
Fe3 Fe4 . . 2.7117(17) ?
Fe3 Fe4 . 6_555 2.7117(12) ?
Ge5 Ge5 . 4_565 0.959(6) ?
Fe4 Fe4 . 5_555 2.534(2) ?
Fe4 Fe4 . 6_555 2.5339(15) ?
loop_
_geom_hbond_atom_site_label_D
_geom_hbond_atom_site_label_H
_geom_hbond_atom_site_label_A
_geom_hbond_site_symmetry_D
_geom_hbond_site_symmetry_H
_geom_hbond_site_symmetry_A
_geom_hbond_distance_DH
_geom_hbond_distance_HA
_geom_hbond_distance_DA
_geom_hbond_angle_DHA
_geom_hbond_publ_flag
? ? ? ? ? ? ? ? ? ? ?
loop_
_geom_torsion_atom_site_label_1
_geom_torsion_atom_site_label_2
_geom_torsion_atom_site_label_3
_geom_torsion_atom_site_label_4
_geom_torsion_site_symmetry_1
_geom_torsion_site_symmetry_2
_geom_torsion_site_symmetry_3
_geom_torsion_site_symmetry_4
_geom_torsion
_geom_torsion_publ_flag
? ? ? ? ? ? ? ? ? ?
loop_
_pd_proc_point_id
_pd_proc_2theta_corrected
_pd_proc_d_spacing
_pd_proc_intensity_net
_pd_calc_intensity_net
_pd_proc_ls_weight
1 6.0000 14.790978 4296.00 4058.70 323.00
2 6.0500 14.668851 4164.00 4051.85 317.00
3 6.1000 14.548727 4349.00 4044.97 322.00
4 6.1500 14.430556 4299.00 4038.06 319.00
5 6.2000 14.314295 4508.00 4031.11 325.00
6 6.2500 14.199891 4436.00 4024.13 322.00
7 6.3000 14.087306 4312.00 4017.11 316.00
8 6.3500 13.976495 4215.00 4010.07 311.00
9 6.4000 13.867415 4299.00 4003.00 313.00
10 6.4500 13.760029 4364.00 3995.89 314.00
11 6.5000 13.654295 4043.00 3988.76 301.00
12 6.5500 13.550175 4079.00 3981.60 301.00
13 6.6000 13.447636 4089.00 3974.41 300.00
14 6.6500 13.346637 4228.00 3967.20 304.00
15 6.7000 13.247148 4184.00 3959.96 301.00
16 6.7500 13.149133 4017.00 3952.70 294.00
17 6.8000 13.052560 3909.00 3945.42 289.00
18 6.8500 12.957398 4047.00 3938.11 293.00
19 6.9000 12.863616 4198.00 3930.79 297.00
20 6.9500 12.771185 4191.00 3923.44 295.00
21 7.0000 12.680075 3783.00 3916.07 279.00
22 7.0500 12.590257 3950.00 3908.68 284.00
23 7.1000 12.501706 3940.00 3901.28 283.00
24 7.1500 12.414393 3694.00 3893.85 273.00
25 7.2000 12.328294 3635.00 3886.41 270.00
26 7.2500 12.243384 3917.00 3878.96 279.00
27 7.3000 12.159636 4036.00 3871.49 282.00
28 7.3500 12.077032 3688.00 3864.00 269.00
29 7.4000 11.995542 3893.00 3856.50 275.00
30 7.4500 11.915148 3744.00 3848.99 269.00
31 7.5000 11.835826 3691.00 3841.47 266.00
32 7.5500 11.757554 3597.00 3833.93 261.00
33 7.6000 11.680315 3783.00 3826.39 267.00
34 7.6500 11.604085 3896.00 3818.83 270.00
35 7.7000 11.528847 3743.00 3811.27 264.00
36 7.7500 11.454578 3583.00 3803.69 257.00
37 7.8000 11.381264 3599.00 3796.11 257.00
38 7.8500 11.308885 3783.00 3788.52 262.00
39 7.9000 11.237422 3679.00 3780.93 257.00
40 7.9500 11.166860 3650.00 3773.34 255.00
41 8.0000 11.097178 3743.00 3765.82 258.00
42 8.0500 11.028363 3623.00 3758.59 253.00
43 8.1000 10.960400 3726.00 3752.40 255.00
44 8.1500 10.893271 3730.00 3749.51 255.00
45 8.2000 10.826962 3887.00 3755.54 259.00
46 8.2500 10.761456 3848.00 3782.16 257.00
47 8.3000 10.696739 3865.00 3848.85 256.00
48 8.3500 10.632798 3968.00 3980.09 259.00
49 8.4000 10.569622 4134.00 4193.90 263.00
50 8.4500 10.507193 4504.00 4483.05 274.00
51 8.5000 10.445498 5218.00 4799.93 294.00
52 8.5500 10.384524 5316.00 5061.54 295.00
53 8.6000 10.324261 5424.00 5181.64 297.00
54 8.6500 10.264696 5016.00 5114.89 285.00
55 8.7000 10.205816 4392.00 4882.61 266.00
56 8.7500 10.147610 4294.00 4560.47 262.00
57 8.8000 10.090065 4083.00 4237.72 254.00
58 8.8500 10.033172 3830.00 3977.42 246.00
59 8.9000 9.976918 3688.00 3800.99 240.00
60 8.9500 9.921294 3529.00 3697.61 234.00
61 9.0000 9.866288 3444.00 3643.36 230.00
62 9.0500 9.811890 3533.00 3616.14 233.00
63 9.1000 9.758091 3513.00 3601.40 231.00
64 9.1500 9.704881 3406.00 3591.56 227.00
65 9.2000 9.652249 3250.00 3583.38 221.00
66 9.2500 9.600187 3529.00 3575.68 229.00
67 9.3000 9.548686 3377.00 3568.12 224.00
68 9.3500 9.497736 3558.00 3560.59 229.00
69 9.4000 9.447329 3632.00 3553.08 230.00
70 9.4500 9.397455 3328.00 3545.57 220.00
71 9.5000 9.348107 3474.00 3538.09 224.00
72 9.5500 9.299276 3481.00 3530.61 223.00
73 9.6000 9.250956 3189.00 3523.14 213.00
74 9.6500 9.203135 3242.00 3515.69 214.00
75 9.7000 9.155809 3498.00 3508.25 222.00
76 9.7500 9.108969 3596.00 3500.83 224.00
77 9.8000 9.062607 3421.00 3493.42 218.00
78 9.8500 9.016716 3313.00 3486.02 214.00
79 9.9000 8.971291 3203.00 3478.64 209.00
80 9.9500 8.926321 3310.00 3471.28 212.00
81 10.0000 8.881802 3265.00 3463.93 210.00
82 10.0500 8.837727 3355.00 3456.60 212.00
83 10.1000 8.794087 3464.00 3449.28 215.00
84 10.1500 8.750879 3342.00 3441.98 210.00
85 10.2000 8.708096 3326.00 3434.70 209.00
86 10.2500 8.665730 3400.00 3427.44 211.00
87 10.3000 8.623775 3449.00 3420.19 212.00
88 10.3500 8.582227 3156.00 3412.97 202.00
89 10.4000 8.541080 3105.00 3405.76 200.00
90 10.4500 8.500325 3229.00 3398.57 203.00
91 10.5000 8.459960 3053.00 3391.40 197.00
92 10.5500 8.419978 3417.00 3384.26 207.00
93 10.6000 8.380373 3466.00 3377.13 208.00
94 10.6500 8.341142 3268.00 3370.02 202.00
95 10.7000 8.302277 3209.00 3362.94 199.00
96 10.7500 8.263774 3247.00 3355.87 200.00
97 10.8000 8.225628 3317.00 3348.83 201.00
98 10.8500 8.187835 3079.00 3341.81 193.00
99 10.9000 8.150389 3152.00 3334.81 195.00
100 10.9500 8.113285 3134.00 3327.84 194.00
101 11.0000 8.076519 3119.00 3320.89 193.00
102 11.0500 8.040086 3315.00 3313.96 198.00
103 11.1000 8.003982 3058.00 3307.06 190.00
104 11.1500 7.968203 3065.00 3300.22 189.00
105 11.2000 7.932743 3179.00 3293.55 192.00
106 11.2500 7.897598 3162.00 3287.47 191.00
107 11.3000 7.862766 3196.00 3283.45 192.00
108 11.3500 7.828240 3235.00 3285.61 192.00
109 11.4000 7.794019 3255.00 3303.80 192.00
110 11.4500 7.760097 3535.00 3357.55 200.00
111 11.5000 7.726470 3474.00 3477.61 197.00
112 11.5500 7.693134 4000.00 3699.29 211.00
113 11.6000 7.660087 4325.00 4042.67 219.00
114 11.6500 7.627324 4719.00 4484.71 228.00
115 11.7000 7.594841 5470.00 4942.03 245.00
116 11.7500 7.562635 5555.00 5287.65 246.00
117 11.8000 7.530702 5488.00 5404.96 244.00
118 11.8500 7.499040 5216.00 5249.51 237.00
119 11.9000 7.467644 4683.00 4874.54 224.00
120 11.9500 7.436512 4170.00 4400.52 211.00
121 12.0000 7.405638 3740.00 3952.17 199.00
122 12.0500 7.375022 3389.00 3607.17 189.00
123 12.1000 7.344660 3176.00 3383.40 182.00
124 12.1500 7.314548 3019.00 3258.14 177.00
125 12.2000 7.284682 3025.00 3195.88 177.00
126 12.2500 7.255062 2892.00 3166.82 172.00
127 12.3000 7.225682 3122.00 3152.52 179.00
128 12.3500 7.196541 3104.00 3143.82 178.00
129 12.4000 7.167635 3012.00 3136.96 174.00
130 12.4500 7.138963 3035.00 3130.64 175.00
131 12.5000 7.110519 3061.00 3124.47 175.00
132 12.5500 7.082303 3177.00 3118.36 178.00
133 12.6000 7.054311 3240.00 3112.28 179.00
134 12.6500 7.026542 3135.00 3106.24 176.00
135 12.7000 6.998991 2928.00 3100.23 169.00
136 12.7500 6.971656 2800.00 3094.25 165.00
137 12.8000 6.944536 2925.00 3088.30 168.00
138 12.8500 6.917627 3017.00 3082.38 170.00
139 12.9000 6.890927 3040.00 3076.50 170.00
140 12.9500 6.864434 2992.00 3070.64 169.00
141 13.0000 6.838145 2962.00 3064.82 167.00
142 13.0500 6.812058 3091.00 3059.03 170.00
143 13.1000 6.786170 3105.00 3053.28 170.00
144 13.1500 6.760480 2818.00 3047.55 162.00
145 13.2000 6.734985 2950.00 3041.86 165.00
146 13.2500 6.709683 3049.00 3036.20 167.00
147 13.3000 6.684571 2998.00 3030.57 166.00
148 13.3500 6.659648 2905.00 3024.98 163.00
149 13.4000 6.634912 3125.00 3019.42 168.00
150 13.4500 6.610359 2946.00 3013.89 163.00
151 13.5000 6.585989 2997.00 3008.40 164.00
152 13.5500 6.561799 3062.00 3002.93 165.00
153 13.6000 6.537787 3006.00 2997.51 163.00
154 13.6500 6.513953 2969.00 2992.11 162.00
155 13.7000 6.490292 2868.00 2986.75 159.00
156 13.7500 6.466803 3060.00 2981.43 163.00
157 13.8000 6.443486 3157.00 2976.13 165.00
158 13.8500 6.420337 3077.00 2970.88 163.00
159 13.9000 6.397355 3002.00 2965.65 160.00
160 13.9500 6.374538 2905.00 2960.46 157.00
161 14.0000 6.351885 2818.00 2955.31 155.00
162 14.0500 6.329393 2806.00 2950.22 154.00
163 14.1000 6.307061 2854.00 2945.26 155.00
164 14.1500 6.284887 2822.00 2940.64 154.00
165 14.2000 6.262870 2793.00 2936.91 152.00
166 14.2500 6.241008 3053.00 2935.31 159.00
167 14.3000 6.219299 2957.00 2938.08 156.00
168 14.3500 6.197742 2931.00 2948.49 155.00
169 14.4000 6.176335 3014.00 2970.41 157.00
170 14.4500 6.155076 2874.00 3007.86 153.00
171 14.5000 6.133965 2932.00 3066.85 154.00
172 14.5500 6.112998 3125.00 3162.48 158.00
173 14.6000 6.092176 3363.00 3330.70 164.00
174 14.6500 6.071497 3775.00 3635.86 173.00
175 14.7000 6.050958 4655.00 4156.48 192.00
176 14.7500 6.030560 5634.00 4937.06 211.00
177 14.8000 6.010299 6769.00 5920.81 230.00
178 14.8500 5.990175 7710.00 6912.72 245.00
179 14.9000 5.970187 8301.00 7625.89 254.00
180 14.9500 5.950332 8618.00 7810.57 258.00
181 15.0000 5.930611 7531.00 7390.71 240.00
182 15.0500 5.911020 6447.00 6508.29 222.00
183 15.1000 5.891560 5351.00 5441.85 202.00
184 15.1500 5.872230 4381.00 4462.90 182.00
185 15.2000 5.853025 3411.00 3729.03 160.00
186 15.2500 5.833948 3101.00 3265.79 152.00
187 15.3000 5.814996 2837.00 3015.14 145.00
188 15.3500 5.796167 2661.00 2897.06 140.00
189 15.4000 5.777462 2738.00 2847.33 142.00
190 15.4500 5.758877 2777.00 2827.36 143.00
191 15.5000 5.740413 2801.00 2818.45 143.00
192 15.5500 5.722068 2854.00 2813.12 144.00
193 15.6000 5.703841 2859.00 2808.79 144.00
194 15.6500 5.685730 2772.00 2804.73 141.00
195 15.7000 5.667736 2828.00 2800.75 142.00
196 15.7500 5.649856 2868.00 2796.82 143.00
197 15.8000 5.632090 2712.00 2792.93 138.00
198 15.8500 5.614436 2776.00 2789.07 140.00
199 15.9000 5.596893 2882.00 2785.24 142.00
200 15.9500 5.579461 2750.00 2781.46 138.00
201 16.0000 5.562138 2846.00 2777.70 140.00
202 16.0500 5.544924 2921.00 2773.98 142.00
203 16.1000 5.527816 2718.00 2770.30 137.00
204 16.1500 5.510815 2733.00 2766.65 137.00
205 16.2000 5.493919 2685.00 2763.04 135.00
206 16.2500 5.477128 2712.00 2759.46 135.00
207 16.3000 5.460440 2688.00 2755.92 135.00
208 16.3500 5.443854 2781.00 2752.41 137.00
209 16.4000 5.427371 2669.00 2748.94 133.00
210 16.4500 5.410986 2903.00 2745.50 139.00
211 16.5000 5.394702 2776.00 2742.10 135.00
212 16.5500 5.378518 2757.00 2738.73 135.00
213 16.6000 5.362430 2904.00 2735.41 138.00
214 16.6500 5.346439 2853.00 2732.16 136.00
215 16.7000 5.330545 2753.00 2729.11 134.00
216 16.7500 5.314746 2636.00 2726.72 130.00
217 16.8000 5.299041 2834.00 2726.39 135.00
218 16.8500 5.283430 2930.00 2731.72 137.00
219 16.9000 5.267912 2883.00 2750.48 135.00
220 16.9500 5.252485 2899.00 2796.23 136.00
221 17.0000 5.237149 3127.00 2887.20 140.00
222 17.0500 5.221905 3260.00 3038.97 143.00
223 17.1000 5.206749 3390.00 3251.04 146.00
224 17.1500 5.191682 3727.00 3493.87 152.00
225 17.2000 5.176702 3975.00 3708.72 157.00
226 17.2500 5.161810 3998.00 3828.25 157.00
227 17.3000 5.147006 4052.00 3809.61 158.00
228 17.3500 5.132286 3893.00 3658.52 154.00
229 17.4000 5.117651 3688.00 3425.89 150.00
230 17.4500 5.103099 3225.00 3179.90 140.00
231 17.5000 5.088632 2935.00 2973.91 133.00
232 17.5500 5.074248 2856.00 2830.47 131.00
233 17.6000 5.059946 2751.00 2745.27 128.00
234 17.6500 5.045725 2720.00 2701.16 127.00
235 17.7000 5.031584 2806.00 2680.56 129.00
236 17.7500 5.017524 2777.00 2671.24 128.00
237 17.8000 5.003543 2878.00 2666.50 130.00
238 17.8500 4.989640 2761.00 2663.38 127.00
239 17.9000 4.975816 2593.00 2660.77 123.00
240 17.9500 4.962069 2662.00 2658.32 124.00
241 18.0000 4.948398 2808.00 2655.92 127.00
242 18.0500 4.934804 2676.00 2653.57 124.00
243 18.1000 4.921285 2464.00 2651.25 118.00
244 18.1500 4.907841 2541.00 2648.96 120.00
245 18.2000 4.894470 2615.00 2646.70 122.00
246 18.2500 4.881175 2700.00 2644.48 123.00
247 18.3000 4.867951 2840.00 2642.29 126.00
248 18.3500 4.854800 2633.00 2640.13 121.00
249 18.4000 4.841720 2737.00 2638.02 123.00
250 18.4500 4.828712 2825.00 2636.00 125.00
251 18.5000 4.815775 2505.00 2634.30 117.00
252 18.5500 4.802908 2751.00 2633.70 123.00
253 18.6000 4.790110 2723.00 2636.70 122.00
254 18.6500 4.777381 2772.00 2649.99 123.00
255 18.7000 4.764719 2652.00 2688.54 120.00
256 18.7500 4.752127 2945.00 2779.77 126.00
257 18.8000 4.739602 3221.00 2962.90 131.00
258 18.8500 4.727143 3736.00 3276.03 141.00
259 18.9000 4.714751 4142.00 3728.43 148.00
260 18.9500 4.702424 4833.00 4269.24 160.00
261 19.0000 4.690162 5308.00 4779.15 167.00
262 19.0500 4.677965 5597.00 5106.34 171.00
263 19.1000 4.665832 5603.00 5137.78 171.00
264 19.1500 4.653763 4961.00 4861.54 161.00
265 19.2000 4.641757 4483.00 4373.56 152.00
266 19.2500 4.629814 3853.00 3824.06 141.00
267 19.3000 4.617933 3257.00 3343.54 129.00
268 19.3500 4.606113 2983.00 2997.56 123.00
269 19.4000 4.594355 2841.00 2786.94 120.00
270 19.4500 4.582657 2785.00 2676.87 119.00
271 19.5000 4.571020 2657.00 2626.79 116.00
272 19.5500 4.559443 2762.00 2606.50 118.00
273 19.6000 4.547925 2624.00 2598.73 114.00
274 19.6500 4.536466 2675.00 2595.49 115.00
275 19.7000 4.525065 2600.00 2593.68 113.00
276 19.7500 4.513722 2545.00 2592.26 112.00
277 19.8000 4.502438 2633.00 2590.96 114.00
278 19.8500 4.491210 2663.00 2589.71 114.00
279 19.9000 4.480039 2591.00 2588.49 112.00
280 19.9500 4.468923 2710.00 2587.29 115.00
281 20.0000 4.457864 2654.00 2586.13 113.00
282 20.0500 4.446861 2639.00 2584.99 113.00
283 20.1000 4.435912 2697.00 2583.88 114.00
284 20.1500 4.425018 2594.00 2582.80 111.00
285 20.2000 4.414178 2684.00 2581.75 113.00
286 20.2500 4.403392 2633.00 2580.72 112.00
287 20.3000 4.392660 2609.00 2579.72 111.00
288 20.3500 4.381980 2576.00 2578.75 110.00
289 20.4000 4.371354 2684.00 2577.81 112.00
290 20.4500 4.360779 2744.00 2576.91 113.00
291 20.5000 4.350256 2746.00 2576.07 113.00
292 20.5500 4.339785 2595.00 2575.35 109.00
293 20.6000 4.329365 2651.00 2574.90 110.00
294 20.6500 4.318995 2704.00 2574.95 111.00
295 20.7000 4.308676 2561.00 2575.79 108.00
296 20.7500 4.298407 2525.00 2577.67 107.00
297 20.8000 4.288188 2728.00 2580.57 111.00
298 20.8500 4.278018 2671.00 2583.96 110.00
299 20.9000 4.267897 2696.00 2586.83 110.00
300 20.9500 4.257824 2575.00 2588.07 107.00
301 21.0000 4.247800 2770.00 2587.03 111.00
302 21.0500 4.237823 2709.00 2583.84 109.00
303 21.1000 4.227894 2633.00 2579.38 108.00
304 21.1500 4.218013 2714.00 2574.80 109.00
305 21.2000 4.208178 2611.00 2570.95 107.00
306 21.2500 4.198390 2705.00 2568.16 108.00
307 21.3000 4.188648 2585.00 2566.35 106.00
308 21.3500 4.178951 2585.00 2565.23 106.00
309 21.4000 4.169301 2623.00 2564.51 106.00
310 21.4500 4.159696 2650.00 2564.00 106.00
311 21.5000 4.150136 2620.00 2563.58 106.00
312 21.5500 4.140620 2613.00 2563.20 105.00
313 21.6000 4.131148 2648.00 2562.86 106.00
314 21.6500 4.121721 2502.00 2562.54 103.00
315 21.7000 4.112337 2591.00 2562.25 104.00
316 21.7500 4.102997 2592.00 2561.98 104.00
317 21.8000 4.093700 2464.00 2561.73 101.00
318 21.8500 4.084445 2675.00 2561.51 105.00
319 21.9000 4.075234 2568.00 2561.30 103.00
320 21.9500 4.066064 2663.00 2561.12 105.00
321 22.0000 4.056937 2622.00 2560.97 104.00
322 22.0500 4.047851 2689.00 2560.83 105.00
323 22.1000 4.038806 2589.00 2560.72 103.00
324 22.1500 4.029803 2604.00 2560.63 103.00
325 22.2000 4.020840 2526.00 2560.56 101.00
326 22.2500 4.011918 2692.00 2560.51 104.00
327 22.3000 4.003036 2714.00 2560.48 104.00
328 22.3500 3.994194 2679.00 2560.48 103.00
329 22.4000 3.985392 2575.00 2560.51 101.00
330 22.4500 3.976629 2695.00 2560.59 103.00
331 22.5000 3.967906 2456.00 2560.78 98.00
332 22.5500 3.959221 2671.00 2561.20 102.00
333 22.6000 3.950575 2669.00 2562.03 102.00
334 22.6500 3.941968 2656.00 2563.53 102.00
335 22.7000 3.933398 2530.00 2565.89 99.00
336 22.7500 3.924867 2508.00 2569.04 98.00
337 22.8000 3.916374 2604.00 2572.53 100.00
338 22.8500 3.907917 2610.00 2575.51 100.00
339 22.9000 3.899499 2700.00 2577.11 101.00
340 22.9500 3.891116 2587.00 2576.84 99.00
341 23.0000 3.882771 2589.00 2574.89 99.00
342 23.0500 3.874462 2599.00 2572.00 99.00
343 23.1000 3.866189 2636.00 2569.12 99.00
344 23.1500 3.857952 2684.00 2567.09 100.00
345 23.2000 3.849751 2531.00 2566.72 97.00
346 23.2500 3.841586 2520.00 2569.74 97.00
347 23.3000 3.833456 2511.00 2580.61 96.00
348 23.3500 3.825361 2518.00 2609.44 96.00
349 23.4000 3.817300 2730.00 2674.44 100.00
350 23.4500 3.809275 2922.00 2800.79 103.00
351 23.5000 3.801284 3342.00 3011.33 110.00
352 23.5500 3.793326 3544.00 3308.16 113.00
353 23.6000 3.785403 3914.00 3653.77 119.00
354 23.6500 3.777514 4476.00 3968.68 127.00
355 23.7000 3.769658 4446.00 4157.54 126.00
356 23.7500 3.761835 4473.00 4155.12 126.00
357 23.8000 3.754046 4174.00 3962.49 122.00
358 23.8500 3.746289 3677.00 3646.38 114.00
359 23.9000 3.738566 3339.00 3302.27 109.00
360 23.9500 3.730875 2945.00 3008.67 102.00
361 24.0000 3.723216 2743.00 2801.78 98.00
362 24.0500 3.715589 2732.00 2678.58 98.00
363 24.1000 3.707993 2669.00 2615.91 96.00
364 24.1500 3.700430 2539.00 2588.63 94.00
365 24.2000 3.692898 2425.00 2578.60 91.00
366 24.2500 3.685398 2535.00 2575.72 93.00
367 24.3000 3.677928 2538.00 2575.39 93.00
368 24.3500 3.670490 2579.00 2575.83 94.00
369 24.4000 3.663082 2609.00 2576.50 94.00
370 24.4500 3.655704 2666.00 2577.23 95.00
371 24.5000 3.648358 2571.00 2577.98 93.00
372 24.5500 3.641041 2464.00 2578.75 91.00
373 24.6000 3.633754 2475.00 2579.54 91.00
374 24.6500 3.626497 2398.00 2580.42 89.00
375 24.7000 3.619270 2512.00 2581.61 91.00
376 24.7500 3.612072 2631.00 2583.96 93.00
377 24.8000 3.604903 2592.00 2590.10 92.00
378 24.8500 3.597763 2584.00 2607.14 92.00
379 24.9000 3.590653 2671.00 2650.93 93.00
380 24.9500 3.583570 2780.00 2750.63 95.00
381 25.0000 3.576517 2978.00 2948.03 98.00
382 25.0500 3.569492 3520.00 3284.12 107.00
383 25.1000 3.562495 4221.00 3769.64 117.00
384 25.1500 3.555527 4847.00 4351.79 125.00
385 25.2000 3.548586 5301.00 4904.34 130.00
386 25.2500 3.541673 5625.00 5265.06 134.00
387 25.3000 3.534787 5652.00 5311.64 134.00
388 25.3500 3.527929 5283.00 5029.56 129.00
389 25.4000 3.521098 4526.00 4523.20 120.00
390 25.4500 3.514294 3901.00 3963.17 111.00
391 25.5000 3.507517 3417.00 3511.21 103.00
392 25.5500 3.500767 3279.00 3271.61 101.00
393 25.6000 3.494043 3307.00 3282.58 101.00
394 25.6500 3.487346 3522.00 3525.90 104.00
395 25.7000 3.480675 4149.00 3931.19 113.00
396 25.7500 3.474030 4719.00 4378.10 120.00
397 25.8000 3.467412 4966.00 4718.64 123.00
398 25.8500 3.460819 5161.00 4829.00 126.00
399 25.9000 3.454251 4984.00 4665.89 123.00
400 25.9500 3.447709 4493.00 4286.22 117.00
401 26.0000 3.441193 3785.00 3812.61 107.00
402 26.0500 3.434702 3410.00 3369.29 101.00
403 26.1000 3.428236 3103.00 3032.09 96.00
404 26.1500 3.421795 2783.00 2816.96 91.00
405 26.2000 3.415379 2655.00 2700.17 89.00
406 26.2500 3.408987 2629.00 2645.94 88.00
407 26.3000 3.402620 2592.00 2624.57 87.00
408 26.3500 3.396277 2581.00 2617.78 87.00
409 26.4000 3.389959 2619.00 2616.50 88.00
410 26.4500 3.383664 2493.00 2617.02 85.00
411 26.5000 3.377394 2553.00 2618.06 86.00
412 26.5500 3.371148 2590.00 2619.23 87.00
413 26.6000 3.364924 2631.00 2620.44 87.00
414 26.6500 3.358725 2742.00 2621.66 89.00
415 26.7000 3.352549 2569.00 2622.89 86.00
416 26.7500 3.346397 2618.00 2624.12 86.00
417 26.8000 3.340268 2422.00 2625.36 83.00
418 26.8500 3.334161 2570.00 2626.61 85.00
419 26.9000 3.328078 2559.00 2627.87 85.00
420 26.9500 3.322017 2508.00 2629.13 84.00
421 27.0000 3.315979 2581.00 2630.40 85.00
422 27.0500 3.309964 2484.00 2631.68 83.00
423 27.1000 3.303971 2640.00 2632.96 86.00
424 27.1500 3.298000 2599.00 2634.25 85.00
425 27.2000 3.292052 2516.00 2635.55 83.00
426 27.2500 3.286125 2505.00 2636.85 83.00
427 27.3000 3.280221 2605.00 2638.15 84.00
428 27.3500 3.274338 2631.00 2639.47 85.00
429 27.4000 3.268477 2663.00 2640.78 85.00
430 27.4500 3.262637 2432.00 2642.11 81.00
431 27.5000 3.256819 2442.00 2643.45 81.00
432 27.5500 3.251023 2608.00 2644.86 84.00
433 27.6000 3.245247 2580.00 2646.50 83.00
434 27.6500 3.239493 2525.00 2648.97 82.00
435 27.7000 3.233759 2520.00 2653.95 82.00
436 27.7500 3.228047 2572.00 2665.56 83.00
437 27.8000 3.222355 2700.00 2692.10 85.00
438 27.8500 3.216684 2702.00 2746.97 84.00
439 27.9000 3.211033 2716.00 2846.28 84.00
440 27.9500 3.205403 2966.00 3000.62 88.00
441 28.0000 3.199793 3109.00 3202.61 90.00
442 28.0500 3.194204 3482.00 3418.17 95.00
443 28.1000 3.188634 3621.00 3592.10 97.00
444 28.1500 3.183084 3626.00 3672.17 97.00
445 28.2000 3.177555 3592.00 3641.34 96.00
446 28.2500 3.172045 3482.00 3540.13 95.00
447 28.3000 3.166555 3471.00 3467.49 94.00
448 28.3500 3.161084 3625.00 3561.91 96.00
449 28.4000 3.155633 4045.00 3967.08 101.00
450 28.4500 3.150201 5024.00 4778.64 113.00
451 28.5000 3.144788 6456.00 5973.15 128.00
452 28.5500 3.139395 7891.00 7350.98 141.00
453 28.6000 3.134021 9072.00 8554.37 151.00
454 28.6500 3.128665 9985.00 9195.64 158.00
455 28.7000 3.123329 9388.00 9044.84 153.00
456 28.7500 3.118011 8306.00 8154.08 144.00
457 28.8000 3.112712 6833.00 6824.85 130.00
458 28.8500 3.107432 5242.00 5443.37 114.00
459 28.9000 3.102170 3987.00 4302.87 99.00
460 28.9500 3.096926 3187.00 3520.61 88.00
461 29.0000 3.091701 2816.00 3065.67 83.00
462 29.0500 3.086494 2715.00 2839.18 81.00
463 29.1000 3.081304 2671.00 2742.83 80.00
464 29.1500 3.076133 2563.00 2709.28 79.00
465 29.2000 3.070980 2600.00 2702.81 79.00
466 29.2500 3.065845 2694.00 2708.21 80.00
467 29.3000 3.060727 2757.00 2719.98 81.00
468 29.3500 3.055627 2715.00 2735.32 80.00
469 29.4000 3.050545 2677.00 2751.00 80.00
470 29.4500 3.045480 2733.00 2762.94 80.00
471 29.5000 3.040432 2698.00 2767.64 80.00
472 29.5500 3.035402 2786.00 2763.91 81.00
473 29.6000 3.030389 2714.00 2753.58 80.00
474 29.6500 3.025393 2708.00 2740.44 79.00
475 29.7000 3.020414 2619.00 2728.26 78.00
476 29.7500 3.015452 2739.00 2719.37 79.00
477 29.8000 3.010507 2754.00 2714.25 80.00
478 29.8500 3.005578 2764.00 2712.18 80.00
479 29.9000 3.000666 2573.00 2712.09 77.00
480 29.9500 2.995771 2678.00 2713.11 78.00
481 30.0000 2.990893 2689.00 2714.64 78.00
482 30.0500 2.986031 2587.00 2716.35 76.00
483 30.1000 2.981184 2521.00 2718.02 75.00
484 30.1500 2.976355 2631.00 2719.52 77.00
485 30.2000 2.971542 2529.00 2720.81 75.00
486 30.2500 2.966744 2709.00 2721.93 78.00
487 30.3000 2.961963 2600.00 2722.98 76.00
488 30.3500 2.957198 2684.00 2724.04 77.00
489 30.4000 2.952448 2635.00 2725.18 76.00
490 30.4500 2.947715 2698.00 2726.42 77.00
491 30.5000 2.942997 2694.00 2727.73 77.00
492 30.5500 2.938295 2680.00 2729.09 77.00
493 30.6000 2.933608 2637.00 2730.47 76.00
494 30.6500 2.928936 2708.00 2731.86 77.00
495 30.7000 2.924280 2580.00 2733.25 75.00
496 30.7500 2.919640 2658.00 2734.66 76.00
497 30.8000 2.915015 2561.00 2736.13 74.00
498 30.8500 2.910405 2568.00 2737.85 74.00
499 30.9000 2.905810 2547.00 2740.52 74.00
500 30.9500 2.901230 2624.00 2746.10 75.00
501 31.0000 2.896665 2700.00 2759.39 76.00
502 31.0500 2.892115 2692.00 2790.24 75.00
503 31.1000 2.887580 2688.00 2854.78 75.00
504 31.1500 2.883059 2786.00 2972.85 76.00
505 31.2000 2.878553 3002.00 3158.39 79.00
506 31.2500 2.874062 3276.00 3404.26 83.00
507 31.3000 2.869586 3607.00 3670.64 87.00
508 31.3500 2.865123 3997.00 3889.67 91.00
509 31.4000 2.860675 4104.00 3992.09 92.00
510 31.4500 2.856242 3831.00 3942.30 89.00
511 31.5000 2.851823 3675.00 3758.55 87.00
512 31.5500 2.847418 3450.00 3502.46 84.00
513 31.6000 2.843027 3122.00 3246.17 80.00
514 31.6500 2.838650 2963.00 3040.66 78.00
515 31.7000 2.834287 2663.00 2903.34 73.00
516 31.7500 2.829938 2686.00 2825.62 74.00
517 31.8000 2.825603 2869.00 2788.19 76.00
518 31.8500 2.821282 2515.00 2773.11 71.00
519 31.9000 2.816974 2621.00 2768.62 72.00
520 31.9500 2.812680 2609.00 2769.02 72.00
521 32.0000 2.808400 2607.00 2773.36 72.00
522 32.0500 2.804134 2662.00 2785.22 72.00
523 32.1000 2.799881 2611.00 2814.26 72.00
524 32.1500 2.795640 2736.00 2878.10 73.00
525 32.2000 2.791414 2859.00 3001.11 75.00
526 32.2500 2.787201 3130.00 3205.50 78.00
527 32.3000 2.783001 3417.00 3493.77 81.00
528 32.3500 2.778814 3819.00 3830.54 86.00
529 32.4000 2.774641 4144.00 4139.65 89.00
530 32.4500 2.770480 4309.00 4328.91 91.00
531 32.5000 2.766332 4386.00 4333.81 92.00
532 32.5500 2.762198 4103.00 4153.03 89.00
533 32.6000 2.758076 3776.00 3849.20 85.00
534 32.6500 2.753966 3311.00 3514.50 79.00
535 32.7000 2.749870 3052.00 3226.48 76.00
536 32.7500 2.745787 2927.00 3022.88 74.00
537 32.8000 2.741716 2746.00 2904.27 72.00
538 32.8500 2.737658 2754.00 2852.90 72.00
539 32.9000 2.733611 2726.00 2851.24 71.00
540 32.9500 2.729578 2676.00 2890.46 71.00
541 33.0000 2.725557 2754.00 2967.87 71.00
542 33.0500 2.721549 2913.00 3077.94 73.00
543 33.1000 2.717552 3038.00 3203.47 75.00
544 33.1500 2.713567 3196.00 3314.60 77.00
545 33.2000 2.709596 3234.00 3379.37 77.00
546 33.2500 2.705636 3309.00 3381.13 78.00
547 33.3000 2.701688 3238.00 3332.00 77.00
548 33.3500 2.697753 3161.00 3272.00 76.00
549 33.4000 2.693829 3100.00 3252.74 75.00
550 33.4500 2.689917 3174.00 3313.33 76.00
551 33.5000 2.686017 3406.00 3459.16 78.00
552 33.5500 2.682128 3713.00 3653.39 82.00
553 33.6000 2.678252 3816.00 3827.82 83.00
554 33.6500 2.674387 3999.00 3912.00 84.00
555 33.7000 2.670534 3802.00 3867.39 82.00
556 33.7500 2.666693 3528.00 3705.58 79.00
557 33.8000 2.662863 3405.00 3478.94 77.00
558 33.8500 2.659044 3217.00 3250.80 75.00
559 33.9000 2.655237 2938.00 3066.85 72.00
560 33.9500 2.651441 2778.00 2943.25 70.00
561 34.0000 2.647657 2612.00 2872.82 67.00
562 34.0500 2.643884 2660.00 2838.62 68.00
563 34.1000 2.640122 2649.00 2824.60 68.00
564 34.1500 2.636371 2591.00 2820.02 67.00
565 34.2000 2.632632 2650.00 2819.21 67.00
566 34.2500 2.628904 2769.00 2819.71 69.00
567 34.3000 2.625187 2661.00 2820.75 67.00
568 34.3500 2.621480 2633.00 2822.61 67.00
569 34.4000 2.617785 2702.00 2827.40 68.00
570 34.4500 2.614100 2734.00 2842.25 68.00
571 34.5000 2.610427 2769.00 2887.19 68.00
572 34.5500 2.606764 3037.00 3009.60 71.00
573 34.6000 2.603112 3373.00 3302.24 75.00
574 34.6500 2.599470 3988.00 3910.02 82.00
575 34.7000 2.595840 5108.00 4998.20 92.00
576 34.7500 2.592220 6868.00 6660.34 107.00
577 34.8000 2.588610 9182.00 8789.53 123.00
578 34.8500 2.585011 11547.00 10998.10 138.00
579 34.9000 2.581423 13384.00 12692.40 149.00
580 34.9500 2.577845 13873.00 13321.50 151.00
581 35.0000 2.574277 12899.00 12663.20 145.00
582 35.0500 2.570720 10899.00 10950.40 133.00
583 35.1000 2.567173 8660.00 8738.88 119.00
584 35.1500 2.563636 6380.00 6619.79 102.00
585 35.2000 2.560109 4621.00 4974.12 86.00
586 35.2500 2.556593 3670.00 3902.64 77.00
587 35.3000 2.553087 3165.00 3308.70 71.00
588 35.3500 2.549591 2900.00 3026.98 68.00
589 35.4000 2.546105 2690.00 2914.44 65.00
590 35.4500 2.542629 2789.00 2882.62 66.00
591 35.5000 2.539163 2867.00 2893.70 67.00
592 35.5500 2.535707 2856.00 2947.65 67.00
593 35.6000 2.532260 3036.00 3071.92 69.00
594 35.6500 2.528823 3313.00 3309.86 72.00
595 35.7000 2.525397 3656.00 3698.60 75.00
596 35.7500 2.521980 4298.00 4234.60 82.00
597 35.8000 2.518573 4870.00 4842.62 87.00
598 35.8500 2.515175 5516.00 5377.31 92.00
599 35.9000 2.511787 5733.00 5674.43 94.00
600 35.9500 2.508409 5574.00 5631.16 92.00
601 36.0000 2.505040 5022.00 5262.98 88.00
602 36.0500 2.501681 4457.00 4694.66 82.00
603 36.1000 2.498331 3907.00 4092.62 77.00
604 36.1500 2.494991 3263.00 3587.82 70.00
605 36.2000 2.491660 2985.00 3236.36 67.00
606 36.2500 2.488338 2962.00 3028.84 67.00
607 36.3000 2.485026 2750.00 2923.80 64.00
608 36.3500 2.481723 2656.00 2878.04 63.00
609 36.4000 2.478429 2714.00 2861.21 63.00
610 36.4500 2.475145 2630.00 2857.15 62.00
611 36.5000 2.471869 2637.00 2860.69 62.00
612 36.5500 2.468603 2748.00 2876.08 64.00
613 36.6000 2.465346 2806.00 2919.84 64.00
614 36.6500 2.462098 2943.00 3027.24 66.00
615 36.7000 2.458859 3284.00 3256.61 69.00
616 36.7500 2.455628 3569.00 3679.84 72.00
617 36.8000 2.452407 4264.00 4348.07 79.00
618 36.8500 2.449195 5239.00 5237.42 87.00
619 36.9000 2.445992 6203.00 6205.56 95.00
620 36.9500 2.442797 6977.00 7008.16 100.00
621 37.0000 2.439611 7401.00 7392.46 103.00
622 37.0500 2.436434 7319.00 7224.34 102.00
623 37.1000 2.433266 6463.00 6563.62 96.00
624 37.1500 2.430106 5379.00 5629.95 87.00
625 37.2000 2.426955 4314.00 4685.95 78.00
626 37.2500 2.423813 3698.00 3921.14 72.00
627 37.3000 2.420680 3243.00 3403.90 67.00
628 37.3500 2.417554 2865.00 3106.30 63.00
629 37.4000 2.414437 2748.00 2959.14 62.00
630 37.4500 2.411329 2734.00 2896.23 62.00
631 37.5000 2.408229 2709.00 2873.03 61.00
632 37.5500 2.405138 2708.00 2865.93 61.00
633 37.6000 2.402055 2731.00 2865.27 61.00
634 37.6500 2.398981 2742.00 2870.01 61.00
635 37.7000 2.395914 2738.00 2888.21 61.00
636 37.7500 2.392857 2863.00 2945.54 62.00
637 37.8000 2.389807 3155.00 3103.45 65.00
638 37.8500 2.386765 3586.00 3482.78 70.00
639 37.9000 2.383732 4455.00 4273.17 78.00
640 37.9500 2.380707 6068.00 5693.14 90.00
641 38.0000 2.377690 8321.00 7871.10 106.00
642 38.0500 2.374681 11024.00 10675.60 122.00
643 38.1000 2.371680 14268.00 13607.30 138.00
644 38.1500 2.368687 16659.00 15888.10 149.00
645 38.2000 2.365702 16913.00 16782.60 150.00
646 38.2500 2.362725 16031.00 15977.40 146.00
647 38.3000 2.359756 13757.00 13759.40 135.00
648 38.3500 2.356795 10555.00 10856.70 118.00
649 38.4000 2.353842 7741.00 8062.97 101.00
650 38.4500 2.350896 5764.00 5908.44 87.00
651 38.5000 2.347959 4372.00 4551.77 75.00
652 38.5500 2.345029 3824.00 3873.30 70.00
653 38.6000 2.342107 3782.00 3639.41 70.00
654 38.6500 2.339192 3821.00 3628.90 70.00
655 38.7000 2.336286 3880.00 3696.37 71.00
656 38.7500 2.333387 4065.00 3792.49 72.00
657 38.8000 2.330495 4161.00 3957.68 73.00
658 38.8500 2.327612 4472.00 4286.97 75.00
659 38.9000 2.324735 5243.00 4862.15 82.00
660 38.9500 2.321867 6015.00 5671.27 87.00
661 39.0000 2.319006 7010.00 6560.97 94.00
662 39.0500 2.316152 7673.00 7269.25 98.00
663 39.1000 2.313306 7825.00 7540.36 99.00
664 39.1500 2.310467 7421.00 7260.43 96.00
665 39.2000 2.307636 6774.00 6522.91 92.00
666 39.2500 2.304812 5949.00 5583.71 86.00
667 39.3000 2.301995 5187.00 4753.49 80.00
668 39.3500 2.299186 4924.00 4319.08 78.00
669 39.4000 2.296384 5141.00 4543.90 79.00
670 39.4500 2.293589 6332.00 5702.59 88.00
671 39.5000 2.290801 8657.00 8048.94 103.00
672 39.5500 2.288021 12406.00 11645.20 123.00
673 39.6000 2.285248 16810.00 16118.70 143.00
674 39.6500 2.282481 21505.00 20547.60 162.00
675 39.7000 2.279722 24431.00 23692.60 172.00
676 39.7500 2.276971 24968.00 24542.30 174.00
677 39.8000 2.274226 22821.00 22863.90 166.00
678 39.8500 2.271488 19046.00 19350.90 151.00
679 39.9000 2.268757 14900.00 15242.70 134.00
680 39.9500 2.266034 11287.00 11682.70 116.00
681 40.0000 2.263317 8962.00 9243.32 103.00
682 40.0500 2.260607 7692.00 7860.41 95.00
683 40.1000 2.257904 6925.00 7098.92 90.00
684 40.1500 2.255208 6517.00 6505.86 87.00
685 40.2000 2.252519 5901.00 5834.23 83.00
686 40.2500 2.249837 5157.00 5070.52 77.00
687 40.3000 2.247161 4654.00 4329.16 73.00
688 40.3500 2.244493 4344.00 3726.73 71.00
689 40.4000 2.241830 4178.00 3312.95 69.00
690 40.4500 2.239175 3953.00 3069.83 67.00
691 40.5000 2.236527 3755.00 2946.54 66.00
692 40.5500 2.233885 3533.00 2892.14 63.00
693 40.6000 2.231250 3374.00 2871.05 62.00
694 40.6500 2.228621 3164.00 2863.72 60.00
695 40.7000 2.225999 2932.00 2861.28 57.00
696 40.7500 2.223384 2853.00 2860.36 57.00
697 40.8000 2.220775 2769.00 2859.84 56.00
698 40.8500 2.218173 2832.00 2859.41 56.00
699 40.9000 2.215577 2765.00 2858.98 55.00
700 40.9500 2.212987 2706.00 2858.55 55.00
701 41.0000 2.210405 2835.00 2858.11 56.00
702 41.0500 2.207828 2741.00 2857.66 55.00
703 41.1000 2.205258 2739.00 2857.20 55.00
704 41.1500 2.202695 2758.00 2856.73 55.00
705 41.2000 2.200137 2805.00 2856.24 55.00
706 41.2500 2.197587 2796.00 2855.75 55.00
707 41.3000 2.195042 2679.00 2855.25 54.00
708 41.3500 2.192504 2677.00 2854.73 54.00
709 41.4000 2.189972 2758.00 2854.21 55.00
710 41.4500 2.187446 2744.00 2853.67 54.00
711 41.5000 2.184927 2574.00 2853.14 52.00
712 41.5500 2.182414 2628.00 2852.63 53.00
713 41.6000 2.179907 2760.00 2852.23 54.00
714 41.6500 2.177406 2775.00 2852.15 54.00
715 41.7000 2.174911 2780.00 2852.87 54.00
716 41.7500 2.172422 2749.00 2855.24 54.00
717 41.8000 2.169940 2656.00 2860.48 53.00
718 41.8500 2.167464 2621.00 2869.77 52.00
719 41.9000 2.164993 2726.00 2883.40 53.00
720 41.9500 2.162529 2741.00 2899.86 53.00
721 42.0000 2.160070 2782.00 2915.54 54.00
722 42.0500 2.157618 2721.00 2925.90 53.00
723 42.1000 2.155172 2845.00 2927.92 54.00
724 42.1500 2.152731 2851.00 2923.10 54.00
725 42.2000 2.150297 2907.00 2920.59 55.00
726 42.2500 2.147868 2946.00 2941.61 55.00
727 42.3000 2.145446 3192.00 3026.56 57.00
728 42.3500 2.143029 3468.00 3242.56 59.00
729 42.4000 2.140618 3823.00 3680.34 62.00
730 42.4500 2.138213 4626.00 4424.89 68.00
731 42.5000 2.135813 5836.00 5495.65 77.00
732 42.5500 2.133420 7244.00 6784.29 85.00
733 42.6000 2.131032 8423.00 8051.80 92.00
734 42.6500 2.128650 9167.00 9032.00 96.00
735 42.7000 2.126274 9693.00 9611.68 98.00
736 42.7500 2.123903 10029.00 9964.68 100.00
737 42.8000 2.121538 10461.00 10503.60 102.00
738 42.8500 2.119179 11644.00 11622.20 107.00
739 42.9000 2.116825 13505.00 13370.30 116.00
740 42.9500 2.114477 15358.00 15299.70 123.00
741 43.0000 2.112135 16573.00 16631.50 128.00
742 43.0500 2.109798 16972.00 16675.90 130.00
743 43.1000 2.107467 15369.00 15229.10 123.00
744 43.1500 2.105141 12611.00 12674.20 112.00
745 43.2000 2.102821 9593.00 9739.27 97.00
746 43.2500 2.100506 7010.00 7111.44 83.00
747 43.3000 2.098197 5212.00 5170.30 72.00
748 43.3500 2.095894 4051.00 3957.09 63.00
749 43.4000 2.093595 3381.00 3306.80 58.00
750 43.4500 2.091302 3166.00 3005.24 56.00
751 43.5000 2.089015 3063.00 2884.01 55.00
752 43.5500 2.086733 2963.00 2843.59 54.00
753 43.6000 2.084456 2991.00 2840.14 54.00
754 43.6500 2.082185 3016.00 2867.95 54.00
755 43.7000 2.079919 3055.00 2952.46 55.00
756 43.7500 2.077658 3272.00 3152.29 57.00
757 43.8000 2.075403 3583.00 3557.20 59.00
758 43.8500 2.073153 4312.00 4262.74 65.00
759 43.9000 2.070908 5387.00 5310.32 73.00
760 43.9500 2.068669 6684.00 6612.33 81.00
761 44.0000 2.066435 8121.00 7915.26 90.00
762 44.0500 2.064205 9081.00 8860.30 95.00
763 44.1000 2.061982 9478.00 9138.19 97.00
764 44.1500 2.059763 8998.00 8650.98 94.00
765 44.2000 2.057549 8010.00 7567.54 89.00
766 44.2500 2.055341 6759.00 6229.41 82.00
767 44.3000 2.053138 5813.00 4979.81 76.00
768 44.3500 2.050940 4994.00 4031.89 70.00
769 44.4000 2.048747 4269.00 3445.64 65.00
770 44.4500 2.046559 3905.00 3196.98 62.00
771 44.5000 2.044376 4010.00 3279.22 63.00
772 44.5500 2.042198 4471.00 3783.15 66.00
773 44.6000 2.040025 5495.00 4917.89 74.00
774 44.6500 2.037857 7336.00 6937.81 85.00
775 44.7000 2.035694 10182.00 9963.33 100.00
776 44.7500 2.033536 14038.00 13751.60 118.00
777 44.8000 2.031383 18002.00 17579.50 134.00
778 44.8500 2.029235 20988.00 20409.40 144.00
779 44.9000 2.027092 21676.00 21337.60 147.00
780 44.9500 2.024954 20586.00 20100.80 143.00
781 45.0000 2.022821 18078.00 17314.10 134.00
782 45.0500 2.020692 15416.00 14334.20 124.00
783 45.1000 2.018569 13951.00 12933.20 118.00
784 45.1500 2.016450 16084.00 15014.90 126.00
785 45.2000 2.014336 23186.00 22344.80 152.00
786 45.2500 2.012227 36180.00 35992.50 190.00
787 45.3000 2.010123 56138.00 55361.70 236.00
788 45.3500 2.008024 79153.00 77334.50 281.00
789 45.4000 2.005929 100074.00 96508.30 316.00
790 45.4500 2.003839 110695.00 107153.00 332.00
791 45.5000 2.001753 108706.00 106069.00 329.00
792 45.5500 1.999673 95715.00 94489.20 309.00
793 45.6000 1.997597 78131.00 77558.40 279.00
794 45.6500 1.995526 61526.00 61654.40 248.00
795 45.7000 1.993459 50963.00 51331.00 225.00
796 45.7500 1.991398 47409.00 47670.80 217.00
797 45.8000 1.989340 48940.00 48596.40 221.00
798 45.8500 1.987288 51441.00 50499.50 226.00
799 45.9000 1.985240 51033.00 50127.20 225.00
800 45.9500 1.983196 46851.00 45895.00 216.00
801 46.0000 1.981158 38684.00 38207.20 196.00
802 46.0500 1.979123 28762.00 28844.80 169.00
803 46.1000 1.977094 19449.00 19880.30 139.00
804 46.1500 1.975069 12380.00 12757.00 111.00
805 46.2000 1.973048 7851.00 7944.01 88.00
806 46.2500 1.971032 5246.00 5144.09 72.00
807 46.3000 1.969020 3949.00 3732.60 62.00
808 46.3500 1.967013 3371.00 3118.64 58.00
809 46.4000 1.965011 3237.00 2902.94 56.00
810 46.4500 1.963012 3207.00 2880.83 56.00
811 46.5000 1.961018 3276.00 2982.37 57.00
812 46.5500 1.959029 3301.00 3207.41 57.00
813 46.6000 1.957044 3679.00 3570.91 60.00
814 46.6500 1.955063 4138.00 4056.93 64.00
815 46.7000 1.953087 4622.00 4590.41 67.00
816 46.7500 1.951115 4949.00 5046.15 70.00
817 46.8000 1.949148 5260.00 5304.05 72.00
818 46.8500 1.947185 5236.00 5329.36 72.00
819 46.9000 1.945226 5233.00 5228.94 72.00
820 46.9500 1.943271 5220.00 5240.46 72.00
821 47.0000 1.941321 5807.00 5644.04 76.00
822 47.0500 1.939375 6787.00 6623.19 82.00
823 47.1000 1.937434 8216.00 8131.39 90.00
824 47.1500 1.935496 10068.00 9837.73 100.00
825 47.2000 1.933563 11373.00 11218.10 106.00
826 47.2500 1.931634 12080.00 11781.70 109.00
827 47.3000 1.929709 11472.00 11317.50 107.00
828 47.3500 1.927789 10138.00 10001.00 100.00
829 47.4000 1.925872 8200.00 8282.14 90.00
830 47.4500 1.923960 6396.00 6638.78 79.00
831 47.5000 1.922052 5163.00 5365.83 71.00
832 47.5500 1.920148 4354.00 4516.83 65.00
833 47.6000 1.918248 4005.00 3986.12 63.00
834 47.6500 1.916352 3642.00 3633.26 60.00
835 47.7000 1.914461 3371.00 3363.83 58.00
836 47.7500 1.912573 3224.00 3143.40 56.00
837 47.8000 1.910690 3088.00 2971.14 55.00
838 47.8500 1.908811 3004.00 2850.86 54.00
839 47.9000 1.906935 2866.00 2778.53 53.00
840 47.9500 1.905064 2822.00 2745.46 53.00
841 48.0000 1.903197 3038.00 2749.72 55.00
842 48.0500 1.901334 3177.00 2812.57 56.00
843 48.1000 1.899475 3283.00 3002.36 57.00
844 48.1500 1.897620 3782.00 3467.22 61.00
845 48.2000 1.895768 4683.00 4463.62 68.00
846 48.2500 1.893921 6580.00 6342.47 81.00
847 48.3000 1.892078 9539.00 9440.30 97.00
848 48.3500 1.890239 13898.00 13856.00 117.00
849 48.4000 1.888403 19223.00 19185.60 138.00
850 48.4500 1.886572 24554.00 24416.10 156.00
851 48.5000 1.884744 28208.00 28163.00 167.00
852 48.5500 1.882921 28815.00 29239.30 169.00
853 48.6000 1.881101 26565.00 27258.90 162.00
854 48.6500 1.879285 22538.00 22856.50 150.00
855 48.7000 1.877473 16929.00 17359.20 130.00
856 48.7500 1.875665 12002.00 12138.90 109.00
857 48.8000 1.873860 7994.00 8074.75 89.00
858 48.8500 1.872060 5375.00 5401.81 73.00
859 48.9000 1.870263 4114.00 3895.30 64.00
860 48.9500 1.868470 3464.00 3164.73 58.00
861 49.0000 1.866681 3193.00 2869.29 56.00
862 49.0500 1.864896 3160.00 2797.11 56.00
863 49.1000 1.863114 3014.00 2854.15 54.00
864 49.1500 1.861336 3070.00 3019.12 55.00
865 49.2000 1.859562 3309.00 3295.14 57.00
866 49.2500 1.857792 3711.00 3667.90 60.00
867 49.3000 1.856025 4031.00 4079.04 63.00
868 49.3500 1.854262 4343.00 4427.82 65.00
869 49.4000 1.852503 4602.00 4606.93 67.00
870 49.4500 1.850747 4600.00 4554.77 67.00
871 49.5000 1.848996 4248.00 4288.92 65.00
872 49.5500 1.847247 3764.00 3896.42 61.00
873 49.6000 1.845503 3377.00 3487.64 58.00
874 49.6500 1.843762 3101.00 3147.22 55.00
875 49.7000 1.842025 2830.00 2910.23 53.00
876 49.7500 1.840291 2706.00 2769.23 52.00
877 49.8000 1.838561 2649.00 2696.48 51.00
878 49.8500 1.836835 2610.00 2663.33 51.00
879 49.9000 1.835112 2514.00 2649.50 50.00
880 49.9500 1.833392 2568.00 2643.70 50.00
881 50.0000 1.831677 2560.00 2640.79 50.00
882 50.0500 1.829965 2642.00 2638.81 51.00
883 50.1000 1.828256 2546.00 2637.21 50.00
884 50.1500 1.826551 2557.00 2636.14 50.00
885 50.2000 1.824849 2435.00 2636.61 49.00
886 50.2500 1.823151 2496.00 2641.21 49.00
887 50.3000 1.821457 2585.00 2655.47 50.00
888 50.3500 1.819766 2603.00 2689.01 51.00
889 50.4000 1.818078 2698.00 2755.08 51.00
890 50.4500 1.816394 2776.00 2866.79 52.00
891 50.5000 1.814713 2923.00 3030.90 54.00
892 50.5500 1.813036 3168.00 3245.01 56.00
893 50.6000 1.811363 3340.00 3506.80 57.00
894 50.6500 1.809692 3742.00 3838.15 61.00
895 50.7000 1.808025 4117.00 4309.88 64.00
896 50.7500 1.806362 4799.00 5036.07 69.00
897 50.8000 1.804702 5912.00 6114.58 76.00
898 50.8500 1.803045 7363.00 7529.47 85.00
899 50.9000 1.801392 8903.00 9076.53 94.00
900 50.9500 1.799742 10485.00 10387.90 102.00
901 51.0000 1.798095 11297.00 11071.10 106.00
902 51.0500 1.796452 10944.00 10892.40 104.00
903 51.1000 1.794812 10002.00 9892.14 100.00
904 51.1500 1.793176 8281.00 8357.98 91.00
905 51.2000 1.791543 6520.00 6681.74 80.00
906 51.2500 1.789913 5038.00 5196.60 70.00
907 51.3000 1.788286 3972.00 4080.71 63.00
908 51.3500 1.786663 3242.00 3354.80 56.00
909 51.4000 1.785043 2895.00 2942.11 53.00
910 51.4500 1.783426 2670.00 2737.04 51.00
911 51.5000 1.781813 2624.00 2651.45 51.00
912 51.5500 1.780202 2623.00 2631.11 51.00
913 51.6000 1.778595 2647.00 2652.56 51.00
914 51.6500 1.776991 2712.00 2711.76 52.00
915 51.7000 1.775391 2724.00 2810.56 52.00
916 51.7500 1.773794 2759.00 2943.90 52.00
917 51.8000 1.772200 3026.00 3091.84 55.00
918 51.8500 1.770609 3121.00 3222.58 55.00
919 51.9000 1.769021 3209.00 3308.98 56.00
920 51.9500 1.767437 3267.00 3352.42 57.00
921 52.0000 1.765855 3272.00 3398.65 57.00
922 52.0500 1.764277 3413.00 3530.61 58.00
923 52.1000 1.762702 3794.00 3832.54 61.00
924 52.1500 1.761130 4060.00 4336.11 63.00
925 52.2000 1.759561 4867.00 4976.12 69.00
926 52.2500 1.757996 5570.00 5589.01 74.00
927 52.3000 1.756433 6040.00 5971.78 77.00
928 52.3500 1.754874 6032.00 5977.99 77.00
929 52.4000 1.753318 5677.00 5593.86 75.00
930 52.4500 1.751765 5112.00 4942.09 71.00
931 52.5000 1.750214 4253.00 4212.79 65.00
932 52.5500 1.748667 3520.00 3572.03 59.00
933 52.6000 1.747123 3096.00 3105.27 55.00
934 52.6500 1.745582 2753.00 2817.35 52.00
935 52.7000 1.744045 2678.00 2667.54 51.00
936 52.7500 1.742510 2582.00 2608.44 50.00
937 52.8000 1.740978 2495.00 2608.46 49.00
938 52.8500 1.739449 2555.00 2656.08 50.00
939 52.9000 1.737923 2631.00 2752.05 51.00
940 52.9500 1.736401 2759.00 2895.82 52.00
941 53.0000 1.734881 3030.00 3072.53 55.00
942 53.0500 1.733364 3172.00 3248.55 56.00
943 53.1000 1.731850 3177.00 3381.62 56.00
944 53.1500 1.730339 3347.00 3443.58 57.00
945 53.2000 1.728831 3412.00 3442.12 58.00
946 53.2500 1.727327 3450.00 3424.42 58.00
947 53.3000 1.725825 3398.00 3455.45 58.00
948 53.3500 1.724326 3735.00 3580.61 61.00
949 53.4000 1.722829 3903.00 3793.62 62.00
950 53.4500 1.721336 4303.00 4030.17 65.00
951 53.5000 1.719846 4430.00 4194.30 66.00
952 53.5500 1.718359 4370.00 4205.63 66.00
953 53.6000 1.716874 4318.00 4040.19 65.00
954 53.6500 1.715393 3922.00 3740.39 62.00
955 53.7000 1.713914 3574.00 3388.94 59.00
956 53.7500 1.712438 3301.00 3067.32 57.00
957 53.8000 1.710965 3083.00 2825.39 55.00
958 53.8500 1.709495 3003.00 2677.26 54.00
959 53.9000 1.708028 2802.00 2619.00 52.00
960 53.9500 1.706563 2867.00 2653.43 53.00
961 54.0000 1.705102 3085.00 2808.85 55.00
962 54.0500 1.703643 3300.00 3140.82 57.00
963 54.1000 1.702187 3798.00 3708.72 61.00
964 54.1500 1.700734 4395.00 4526.34 66.00
965 54.2000 1.699284 5208.00 5508.19 72.00
966 54.2500 1.697836 6249.00 6451.64 79.00
967 54.3000 1.696391 6817.00 7092.52 82.00
968 54.3500 1.694949 6935.00 7221.69 83.00
969 54.4000 1.693510 6363.00 6794.02 79.00
970 54.4500 1.692074 5688.00 5953.80 75.00
971 54.5000 1.690640 4730.00 4956.88 68.00
972 54.5500 1.689209 3902.00 4048.28 62.00
973 54.6000 1.687781 3282.00 3375.50 57.00
974 54.6500 1.686356 3038.00 2978.06 55.00
975 54.7000 1.684933 2899.00 2832.49 53.00
976 54.7500 1.683513 3013.00 2903.98 54.00
977 54.8000 1.682096 3152.00 3167.70 56.00
978 54.8500 1.680681 3533.00 3593.43 59.00
979 54.9000 1.679269 4052.00 4113.82 63.00
980 54.9500 1.677860 4559.00 4610.35 67.00
981 55.0000 1.676453 5007.00 4939.18 70.00
982 55.0500 1.675050 5058.00 4991.36 71.00
983 55.1000 1.673648 4688.00 4748.13 68.00
984 55.1500 1.672250 4152.00 4290.85 64.00
985 55.2000 1.670854 3480.00 3756.98 58.00
986 55.2500 1.669461 3067.00 3274.14 55.00
987 55.3000 1.668070 2769.00 2914.46 52.00
988 55.3500 1.666682 2637.00 2689.39 51.00
989 55.4000 1.665297 2583.00 2573.44 50.00
990 55.4500 1.663914 2588.00 2533.57 50.00
991 55.5000 1.662534 2499.00 2548.18 49.00
992 55.5500 1.661157 2506.00 2611.62 50.00
993 55.6000 1.659782 2634.00 2727.73 51.00
994 55.6500 1.658409 2781.00 2896.92 52.00
995 55.7000 1.657040 3030.00 3103.33 55.00
996 55.7500 1.655673 3204.00 3309.49 56.00
997 55.8000 1.654308 3405.00 3464.30 58.00
998 55.8500 1.652946 3474.00 3522.79 58.00
999 55.9000 1.651586 3387.00 3466.74 58.00
1000 55.9500 1.650230 3251.00 3313.25 57.00
1001 56.0000 1.648875 3043.00 3105.92 55.00
1002 56.0500 1.647523 2819.00 2894.67 53.00
1003 56.1000 1.646174 2556.00 2716.92 50.00
1004 56.1500 1.644827 2458.00 2588.99 49.00
1005 56.2000 1.643483 2482.00 2508.77 49.00
1006 56.2500 1.642141 2429.00 2464.34 49.00
1007 56.3000 1.640802 2415.00 2442.26 49.00
1008 56.3500 1.639465 2371.00 2432.05 48.00
1009 56.4000 1.638131 2289.00 2427.30 47.00
1010 56.4500 1.636799 2392.00 2424.74 48.00
1011 56.5000 1.635470 2404.00 2422.95 49.00
1012 56.5500 1.634143 2465.00 2421.40 49.00
1013 56.6000 1.632819 2517.00 2419.91 50.00
1014 56.6500 1.631497 2478.00 2418.45 49.00
1015 56.7000 1.630177 2452.00 2417.00 49.00
1016 56.7500 1.628860 2318.00 2415.60 48.00
1017 56.8000 1.627545 2387.00 2414.36 48.00
1018 56.8500 1.626233 2388.00 2413.63 48.00
1019 56.9000 1.624923 2345.00 2414.43 48.00
1020 56.9500 1.623616 2328.00 2419.14 48.00
1021 57.0000 1.622311 2370.00 2432.54 48.00
1022 57.0500 1.621009 2461.00 2462.30 49.00
1023 57.1000 1.619709 2530.00 2517.77 50.00
1024 57.1500 1.618411 2459.00 2605.65 49.00
1025 57.2000 1.617115 2646.00 2723.18 51.00
1026 57.2500 1.615823 2826.00 2852.61 53.00
1027 57.3000 1.614532 3004.00 2962.72 54.00
1028 57.3500 1.613244 3053.00 3020.09 55.00
1029 57.4000 1.611958 3013.00 3005.05 54.00
1030 57.4500 1.610674 2960.00 2922.29 54.00
1031 57.5000 1.609393 2900.00 2798.35 53.00
1032 57.5500 1.608114 2673.00 2667.82 51.00
1033 57.6000 1.606838 2567.00 2558.42 50.00
1034 57.6500 1.605564 2617.00 2484.01 51.00
1035 57.7000 1.604292 2397.00 2447.60 48.00
1036 57.7500 1.603022 2439.00 2450.25 49.00
1037 57.8000 1.601755 2452.00 2498.83 49.00
1038 57.8500 1.600490 2517.00 2607.56 50.00
1039 57.9000 1.599228 2834.00 2790.29 53.00
1040 57.9500 1.597967 3063.00 3045.04 55.00
1041 58.0000 1.596709 3277.00 3339.14 57.00
1042 58.0500 1.595454 3630.00 3607.59 60.00
1043 58.1000 1.594200 3838.00 3773.09 61.00
1044 58.1500 1.592949 3781.00 3781.34 61.00
1045 58.2000 1.591700 3661.00 3629.33 60.00
1046 58.2500 1.590453 3400.00 3366.79 58.00
1047 58.3000 1.589209 3061.00 3070.04 55.00
1048 58.3500 1.587967 2728.00 2806.24 52.00
1049 58.4000 1.586727 2560.00 2611.37 50.00
1050 58.4500 1.585489 2453.00 2489.21 49.00
1051 58.5000 1.584254 2409.00 2425.37 49.00
1052 58.5500 1.583021 2381.00 2403.47 48.00
1053 58.6000 1.581789 2444.00 2416.12 49.00
1054 58.6500 1.580561 2475.00 2468.88 49.00
1055 58.7000 1.579334 2659.00 2577.61 51.00
1056 58.7500 1.578110 2747.00 2758.61 52.00
1057 58.8000 1.576888 2960.00 3012.67 54.00
1058 58.8500 1.575668 3232.00 3309.60 56.00
1059 58.9000 1.574450 3531.00 3585.62 59.00
1060 58.9500 1.573234 3744.00 3762.79 61.00
1061 59.0000 1.572021 3710.00 3784.70 60.00
1062 59.0500 1.570809 3657.00 3646.78 60.00
1063 59.1000 1.569600 3354.00 3400.85 57.00
1064 59.1500 1.568393 3004.00 3131.20 54.00
1065 59.2000 1.567189 2829.00 2922.55 53.00
1066 59.2500 1.565986 2939.00 2843.06 54.00
1067 59.3000 1.564785 3025.00 2950.24 55.00
1068 59.3500 1.563587 3272.00 3302.68 57.00
1069 59.4000 1.562391 3860.00 3950.71 62.00
1070 59.4500 1.561197 4788.00 4893.03 69.00
1071 59.5000 1.560005 5957.00 6019.74 77.00
1072 59.5500 1.558815 6925.00 7092.92 83.00
1073 59.6000 1.557627 7803.00 7811.15 88.00
1074 59.6500 1.556441 8034.00 7942.07 89.00
1075 59.7000 1.555258 7437.00 7448.20 86.00
1076 59.7500 1.554076 6476.00 6515.59 80.00
1077 59.8000 1.552897 5273.00 5465.40 72.00
1078 59.8500 1.551720 4324.00 4605.96 65.00
1079 59.9000 1.550544 4054.00 4117.38 63.00
1080 59.9500 1.549371 3812.00 4014.02 61.00
1081 60.0000 1.548200 4035.00 4181.80 63.00
1082 60.0500 1.547031 4412.00 4453.96 66.00
1083 60.1000 1.545864 4622.00 4690.79 67.00
1084 60.1500 1.544699 4647.00 4830.67 68.00
1085 60.2000 1.543536 4758.00 4889.83 68.00
1086 60.2500 1.542376 4674.00 4913.31 68.00
1087 60.3000 1.541217 4672.00 4915.15 68.00
1088 60.3500 1.540060 4646.00 4855.97 68.00
1089 60.4000 1.538905 4383.00 4674.76 66.00
1090 60.4500 1.537753 4095.00 4344.40 63.00
1091 60.5000 1.536602 3759.00 3901.78 61.00
1092 60.5500 1.535453 3244.00 3430.73 56.00
1093 60.6000 1.534307 2735.00 3016.73 52.00
1094 60.6500 1.533162 2608.00 2709.46 51.00
1095 60.7000 1.532019 2450.00 2514.51 49.00
1096 60.7500 1.530879 2407.00 2409.20 49.00
1097 60.8000 1.529740 2375.00 2364.43 48.00
1098 60.8500 1.528603 2452.00 2359.39 49.00
1099 60.9000 1.527468 2370.00 2386.05 48.00
1100 60.9500 1.526336 2410.00 2445.77 49.00
1101 61.0000 1.525205 2485.00 2541.23 49.00
1102 61.0500 1.524076 2729.00 2667.35 52.00
1103 61.1000 1.522949 2707.00 2805.89 52.00
1104 61.1500 1.521824 2878.00 2929.40 53.00
1105 61.2000 1.520701 3012.00 3016.24 54.00
1106 61.2500 1.519580 3014.00 3068.81 54.00
1107 61.3000 1.518461 2978.00 3121.60 54.00
1108 61.3500 1.517344 3126.00 3227.32 55.00
1109 61.4000 1.516229 3271.00 3423.96 57.00
1110 61.4500 1.515116 3472.00 3700.60 58.00
1111 61.5000 1.514005 3856.00 3986.90 62.00
1112 61.5500 1.512895 3973.00 4179.19 63.00
1113 61.6000 1.511788 3977.00 4192.27 63.00
1114 61.6500 1.510682 3927.00 4005.01 62.00
1115 61.7000 1.509578 3609.00 3669.75 60.00
1116 61.7500 1.508476 3184.00 3280.96 56.00
1117 61.8000 1.507377 2693.00 2927.76 51.00
1118 61.8500 1.506279 2524.00 2661.03 50.00
1119 61.9000 1.505182 2351.00 2488.60 48.00
1120 61.9500 1.504088 2387.00 2391.18 48.00
1121 62.0000 1.502996 2380.00 2342.28 48.00
1122 62.0500 1.501905 2333.00 2320.99 48.00
1123 62.1000 1.500817 2335.00 2316.56 48.00
1124 62.1500 1.499730 2312.00 2329.60 48.00
1125 62.2000 1.498645 2354.00 2374.38 48.00
1126 62.2500 1.497562 2498.00 2483.55 49.00
1127 62.3000 1.496481 2668.00 2711.74 51.00
1128 62.3500 1.495401 2919.00 3130.03 54.00
1129 62.4000 1.494324 3731.00 3801.84 61.00
1130 62.4500 1.493248 4591.00 4740.41 67.00
1131 62.5000 1.492174 5673.00 5862.19 75.00
1132 62.5500 1.491102 6865.00 6971.42 82.00
1133 62.6000 1.490032 7738.00 7802.39 87.00
1134 62.6500 1.488963 8012.00 8117.77 89.00
1135 62.7000 1.487897 7658.00 7817.11 87.00
1136 62.7500 1.486832 6841.00 6987.94 82.00
1137 62.8000 1.485769 5594.00 5865.05 74.00
1138 62.8500 1.484708 4427.00 4724.23 66.00
1139 62.9000 1.483648 3513.00 3775.50 59.00
1140 62.9500 1.482591 2964.00 3113.70 54.00
1141 63.0000 1.481535 2671.00 2737.32 51.00
1142 63.0500 1.480481 2512.00 2602.44 50.00
1143 63.1000 1.479429 2637.00 2670.29 51.00
1144 63.1500 1.478379 2988.00 2923.27 54.00
1145 63.2000 1.477330 3375.00 3346.42 58.00
1146 63.2500 1.476283 3902.00 3891.91 62.00
1147 63.3000 1.475238 4468.00 4454.99 66.00
1148 63.3500 1.474194 5057.00 4888.80 71.00
1149 63.4000 1.473153 5191.00 5058.85 72.00
1150 63.4500 1.472113 5087.00 4908.56 71.00
1151 63.5000 1.471075 4613.00 4489.87 67.00
1152 63.5500 1.470038 3952.00 3937.69 62.00
1153 63.6000 1.469004 3402.00 3408.09 58.00
1154 63.6500 1.467971 3051.00 3023.86 55.00
1155 63.7000 1.466940 2865.00 2855.29 53.00
1156 63.7500 1.465910 2853.00 2931.31 53.00
1157 63.8000 1.464882 3182.00 3251.19 56.00
1158 63.8500 1.463856 3618.00 3777.08 60.00
1159 63.9000 1.462832 4396.00 4413.72 66.00
1160 63.9500 1.461810 4952.00 5006.14 70.00
1161 64.0000 1.460789 5201.00 5379.57 72.00
1162 64.0500 1.459769 5460.00 5410.80 73.00
1163 64.1000 1.458752 5236.00 5088.76 72.00
1164 64.1500 1.457736 4566.00 4519.37 67.00
1165 64.2000 1.456722 3920.00 3869.55 62.00
1166 64.2500 1.455710 3371.00 3291.42 58.00
1167 64.3000 1.454699 2926.00 2871.53 54.00
1168 64.3500 1.453690 2716.00 2627.79 52.00
1169 64.4000 1.452682 2606.00 2539.09 51.00
1170 64.4500 1.451677 2581.00 2577.92 50.00
1171 64.5000 1.450673 2720.00 2725.44 52.00
1172 64.5500 1.449670 2916.00 2964.31 54.00
1173 64.6000 1.448670 3246.00 3260.56 56.00
1174 64.6500 1.447670 3513.00 3551.91 59.00
1175 64.7000 1.446673 3758.00 3758.28 61.00
1176 64.7500 1.445677 3810.00 3812.64 61.00
1177 64.8000 1.444683 3659.00 3694.48 60.00
1178 64.8500 1.443691 3461.00 3440.71 58.00
1179 64.9000 1.442700 3150.00 3126.49 56.00
1180 64.9500 1.441711 2840.00 2828.49 53.00
1181 65.0000 1.440723 2693.00 2595.87 51.00
1182 65.0500 1.439737 2562.00 2441.97 50.00
1183 65.1000 1.438753 2484.00 2354.55 49.00
1184 65.1500 1.437770 2344.00 2312.29 48.00
1185 65.2000 1.436789 2362.00 2296.47 48.00
1186 65.2500 1.435810 2392.00 2295.41 48.00
1187 65.3000 1.434832 2318.00 2303.56 48.00
1188 65.3500 1.433856 2425.00 2318.51 49.00
1189 65.4000 1.432881 2459.00 2337.96 49.00
1190 65.4500 1.431908 2379.00 2358.09 48.00
1191 65.5000 1.430936 2489.00 2373.72 49.00
1192 65.5500 1.429966 2520.00 2380.23 50.00
1193 65.6000 1.428998 2526.00 2376.22 50.00
1194 65.6500 1.428031 2427.00 2365.40 49.00
1195 65.7000 1.427066 2532.00 2357.80 50.00
1196 65.7500 1.426103 2539.00 2371.11 50.00
1197 65.8000 1.425141 2719.00 2433.31 52.00
1198 65.8500 1.424180 2683.00 2584.17 51.00
1199 65.9000 1.423221 2855.00 2869.05 53.00
1200 65.9500 1.422264 3288.00 3318.75 57.00
1201 66.0000 1.421308 3815.00 3917.23 61.00
1202 66.0500 1.420354 4486.00 4575.80 66.00
1203 66.1000 1.419402 5088.00 5141.45 71.00
1204 66.1500 1.418450 5430.00 5448.81 73.00
1205 66.2000 1.417501 5289.00 5397.87 72.00
1206 66.2500 1.416553 4885.00 5005.87 69.00
1207 66.3000 1.415606 4263.00 4398.75 65.00
1208 66.3500 1.414661 3627.00 3747.82 60.00
1209 66.4000 1.413718 3224.00 3197.96 56.00
1210 66.4500 1.412776 2905.00 2830.93 53.00
1211 66.5000 1.411836 2782.00 2675.87 52.00
1212 66.5500 1.410897 2708.00 2743.61 52.00
1213 66.6000 1.409960 2920.00 3050.79 54.00
1214 66.6500 1.409024 3358.00 3610.57 57.00
1215 66.7000 1.408090 4027.00 4393.25 63.00
1216 66.7500 1.407157 5026.00 5283.58 70.00
1217 66.8000 1.406225 5770.00 6079.20 75.00
1218 66.8500 1.405296 6348.00 6552.30 79.00
1219 66.9000 1.404367 6388.00 6550.13 79.00
1220 66.9500 1.403441 5949.00 6073.47 77.00
1221 67.0000 1.402515 5288.00 5275.57 72.00
1222 67.0500 1.401591 4401.00 4383.57 66.00
1223 67.1000 1.400669 3579.00 3595.26 59.00
1224 67.1500 1.399748 2973.00 3016.91 54.00
1225 67.2000 1.398829 2721.00 2662.30 52.00
1226 67.2500 1.397911 2608.00 2495.05 51.00
1227 67.3000 1.396994 2635.00 2475.22 51.00
1228 67.3500 1.396080 2596.00 2586.17 50.00
1229 67.4000 1.395166 2873.00 2833.77 53.00
1230 67.4500 1.394254 3182.00 3223.46 56.00
1231 67.5000 1.393343 3744.00 3728.60 61.00
1232 67.5500 1.392434 4319.00 4272.67 65.00
1233 67.6000 1.391526 4882.00 4746.54 69.00
1234 67.6500 1.390620 5186.00 5062.42 72.00
1235 67.7000 1.389715 5357.00 5215.66 73.00
1236 67.7500 1.388812 5145.00 5304.84 71.00
1237 67.8000 1.387910 5138.00 5480.46 71.00
1238 67.8500 1.387010 5606.00 5842.89 74.00
1239 67.9000 1.386110 6012.00 6355.67 77.00
1240 67.9500 1.385213 6581.00 6842.21 81.00
1241 68.0000 1.384317 6839.00 7075.86 82.00
1242 68.0500 1.383422 6809.00 6909.60 82.00
1243 68.1000 1.382528 6355.00 6355.29 79.00
1244 68.1500 1.381637 5538.00 5564.36 74.00
1245 68.2000 1.380746 4644.00 4734.20 68.00
1246 68.2500 1.379857 3975.00 4014.76 63.00
1247 68.3000 1.378969 3550.00 3469.28 59.00
1248 68.3500 1.378083 3096.00 3094.83 55.00
1249 68.4000 1.377198 3028.00 2864.44 55.00
1250 68.4500 1.376314 2954.00 2755.57 54.00
1251 68.5000 1.375432 2954.00 2756.27 54.00
1252 68.5500 1.374551 3034.00 2861.46 55.00
1253 68.6000 1.373672 3131.00 3079.87 55.00
1254 68.6500 1.372794 3468.00 3461.96 58.00
1255 68.7000 1.371918 3953.00 4139.48 62.00
1256 68.7500 1.371042 4859.00 5338.57 69.00
1257 68.8000 1.370168 6458.00 7315.73 80.00
1258 68.8500 1.369296 8938.00 10194.30 94.00
1259 68.9000 1.368425 12208.00 13759.00 110.00
1260 68.9500 1.367555 16109.00 17355.90 126.00
1261 69.0000 1.366687 19054.00 20038.50 138.00
1262 69.0500 1.365820 20470.00 20958.10 143.00
1263 69.1000 1.364954 19394.00 19786.10 139.00
1264 69.1500 1.364090 16516.00 16889.60 128.00
1265 69.2000 1.363227 12835.00 13133.40 113.00
1266 69.2500 1.362366 9185.00 9462.43 95.00
1267 69.3000 1.361505 6133.00 6527.90 78.00
1268 69.3500 1.360646 4326.00 4556.18 65.00
1269 69.4000 1.359789 3568.00 3451.87 59.00
1270 69.4500 1.358933 3140.00 2983.74 56.00
1271 69.5000 1.358078 3039.00 2928.64 55.00
1272 69.5500 1.357224 3114.00 3120.12 55.00
1273 69.6000 1.356372 3601.00 3432.76 60.00
1274 69.6500 1.355521 3736.00 3753.16 61.00
1275 69.7000 1.354672 3946.00 3975.46 62.00
1276 69.7500 1.353824 3854.00 4024.03 62.00
1277 69.8000 1.352977 3800.00 3881.88 61.00
1278 69.8500 1.352131 3494.00 3596.62 59.00
1279 69.9000 1.351287 3231.00 3256.77 56.00
1280 69.9500 1.350444 2869.00 2953.05 53.00
1281 70.0000 1.349602 2758.00 2749.94 52.00
1282 70.0500 1.348762 2678.00 2677.57 51.00
1283 70.1000 1.347923 2736.00 2737.92 52.00
1284 70.1500 1.347085 3008.00 2910.69 54.00
1285 70.2000 1.346249 3119.00 3153.38 55.00
1286 70.2500 1.345413 3454.00 3402.07 58.00
1287 70.3000 1.344580 3758.00 3585.06 61.00
1288 70.3500 1.343747 3743.00 3650.30 61.00
1289 70.4000 1.342916 3745.00 3592.90 61.00
1290 70.4500 1.342086 3569.00 3463.71 59.00
1291 70.5000 1.341257 3344.00 3350.10 57.00
1292 70.5500 1.340429 3347.00 3337.94 57.00
1293 70.6000 1.339603 3426.00 3475.78 58.00
1294 70.6500 1.338778 3615.00 3760.70 60.00
1295 70.7000 1.337955 4024.00 4152.68 63.00
1296 70.7500 1.337132 4465.00 4605.95 66.00
1297 70.8000 1.336311 4813.00 5093.04 69.00
1298 70.8500 1.335492 5244.00 5597.69 72.00
1299 70.9000 1.334673 5770.00 6079.70 75.00
1300 70.9500 1.333856 6123.00 6447.33 78.00
1301 71.0000 1.333040 6358.00 6574.36 79.00
1302 71.0500 1.332225 6275.00 6365.35 79.00
1303 71.1000 1.331411 5872.00 5821.79 76.00
1304 71.1500 1.330599 5178.00 5056.78 71.00
1305 71.2000 1.329788 4237.00 4243.34 65.00
1306 71.2500 1.328978 3515.00 3537.57 59.00
1307 71.3000 1.328169 3126.00 3027.07 55.00
1308 71.3500 1.327362 2888.00 2730.04 53.00
1309 71.4000 1.326556 2771.00 2631.67 52.00
1310 71.4500 1.325751 2794.00 2724.30 52.00
1311 71.5000 1.324947 3032.00 3026.40 55.00
1312 71.5500 1.324145 3482.00 3567.00 59.00
1313 71.6000 1.323344 4175.00 4342.15 64.00
1314 71.6500 1.322544 5190.00 5265.55 72.00
1315 71.7000 1.321745 6180.00 6153.43 78.00
1316 71.7500 1.320947 7021.00 6770.29 83.00
1317 71.8000 1.320151 7221.00 6926.08 84.00
1318 71.8500 1.319356 6707.00 6570.18 81.00
1319 71.9000 1.318562 5886.00 5817.77 76.00
1320 71.9500 1.317769 5055.00 4889.87 71.00
1321 72.0000 1.316978 4100.00 4009.73 64.00
1322 72.0500 1.316187 3360.00 3320.10 57.00
1323 72.1000 1.315398 2944.00 2860.11 54.00
1324 72.1500 1.314610 2888.00 2595.37 53.00
1325 72.2000 1.313824 2846.00 2462.88 53.00
1326 72.2500 1.313038 2681.00 2405.20 51.00
1327 72.3000 1.312253 2687.00 2383.63 51.00
1328 72.3500 1.311471 2765.00 2377.15 52.00
1329 72.4000 1.310688 2789.00 2376.36 52.00
1330 72.4500 1.309908 2745.00 2378.26 52.00
1331 72.5000 1.309128 2663.00 2384.04 51.00
1332 72.5500 1.308349 2674.00 2400.61 51.00
1333 72.6000 1.307572 2608.00 2446.66 51.00
1334 72.6500 1.306796 2811.00 2563.64 53.00
1335 72.7000 1.306021 3027.00 2829.10 55.00
1336 72.7500 1.305247 3409.00 3361.41 58.00
1337 72.8000 1.304475 4151.00 4298.51 64.00
1338 72.8500 1.303703 5303.00 5736.79 72.00
1339 72.9000 1.302933 6975.00 7638.47 83.00
1340 72.9500 1.302164 9063.00 9760.21 95.00
1341 73.0000 1.301396 10899.00 11667.10 104.00
1342 73.0500 1.300629 12371.00 12866.40 111.00
1343 73.1000 1.299863 12874.00 13014.30 113.00
1344 73.1500 1.299099 11915.00 12074.50 109.00
1345 73.2000 1.298336 10272.00 10332.80 101.00
1346 73.2500 1.297573 8101.00 8261.06 90.00
1347 73.3000 1.296812 6284.00 6322.09 79.00
1348 73.3500 1.296052 4983.00 4831.86 70.00
1349 73.4000 1.295294 4033.00 3945.27 63.00
1350 73.4500 1.294536 3815.00 3731.28 61.00
1351 73.5000 1.293779 4186.00 4270.33 64.00
1352 73.5500 1.293024 5122.00 5685.41 71.00
1353 73.6000 1.292270 7029.00 8063.41 83.00
1354 73.6500 1.291516 9872.00 11287.50 99.00
1355 73.7000 1.290765 13285.00 14889.60 115.00
1356 73.7500 1.290013 16889.00 18065.20 129.00
1357 73.8000 1.289264 19192.00 19930.00 138.00
1358 73.8500 1.288515 19806.00 19913.40 140.00
1359 73.9000 1.287767 18050.00 18048.10 134.00
1360 73.9500 1.287021 14907.00 14956.00 122.00
1361 74.0000 1.286276 11324.00 11542.40 106.00
1362 74.0500 1.285531 8370.00 8601.38 91.00
1363 74.1000 1.284788 6444.00 6570.74 80.00
1364 74.1500 1.284046 5477.00 5520.41 74.00
1365 74.2000 1.283305 5353.00 5279.19 73.00
1366 74.2500 1.282565 5655.00 5572.10 75.00
1367 74.3000 1.281827 6118.00 6096.45 78.00
1368 74.3500 1.281089 6788.00 6561.03 82.00
1369 74.4000 1.280352 6961.00 6732.71 83.00
1370 74.4500 1.279617 6747.00 6496.80 82.00
1371 74.5000 1.278883 6065.00 5890.67 77.00
1372 74.5500 1.278149 5241.00 5076.14 72.00
1373 74.6000 1.277417 4414.00 4260.20 66.00
1374 74.6500 1.276686 3709.00 3618.40 60.00
1375 74.7000 1.275956 3202.00 3260.68 56.00
1376 74.7500 1.275227 3189.00 3247.92 56.00
1377 74.8000 1.274499 3474.00 3621.45 58.00
1378 74.8500 1.273772 4220.00 4406.19 64.00
1379 74.9000 1.273047 5200.00 5571.39 72.00
1380 74.9500 1.272322 6446.00 6974.98 80.00
1381 75.0000 1.271598 7667.00 8344.15 87.00
1382 75.0500 1.270876 9019.00 9335.97 94.00
1383 75.1000 1.270154 9565.00 9666.54 97.00
1384 75.1500 1.269434 9039.00 9238.25 95.00
1385 75.2000 1.268715 8210.00 8184.93 90.00
1386 75.2500 1.267996 6840.00 6804.96 82.00
1387 75.3000 1.267279 5348.00 5426.36 73.00
1388 75.3500 1.266563 4189.00 4286.37 64.00
1389 75.4000 1.265848 3453.00 3485.17 58.00
1390 75.4500 1.265134 3120.00 3009.95 55.00
1391 75.5000 1.264420 2934.00 2794.50 54.00
1392 75.5500 1.263708 2856.00 2768.77 53.00
1393 75.6000 1.262997 2937.00 2879.82 54.00
1394 75.6500 1.262287 3118.00 3085.97 55.00
1395 75.7000 1.261579 3314.00 3341.78 57.00
1396 75.7500 1.260871 3597.00 3591.78 59.00
1397 75.8000 1.260164 3830.00 3782.36 61.00
1398 75.8500 1.259458 3888.00 3885.31 62.00
1399 75.9000 1.258753 3828.00 3912.96 61.00
1400 75.9500 1.258049 3827.00 3909.55 61.00
1401 76.0000 1.257347 3780.00 3919.25 61.00
1402 76.0500 1.256645 3920.00 3953.07 62.00
1403 76.1000 1.255944 3858.00 3979.52 62.00
1404 76.1500 1.255245 3931.00 3946.77 62.00
1405 76.2000 1.254546 3816.00 3819.43 61.00
1406 76.2500 1.253849 3520.00 3603.17 59.00
1407 76.3000 1.253152 3388.00 3342.26 58.00
1408 76.3500 1.252456 3172.00 3097.23 56.00
1409 76.4000 1.251762 2974.00 2923.25 54.00
1410 76.4500 1.251068 2980.00 2862.96 54.00
1411 76.5000 1.250376 3062.00 2952.89 55.00
1412 76.5500 1.249684 3144.00 3227.48 56.00
1413 76.6000 1.248994 3509.00 3707.32 59.00
1414 76.6500 1.248304 4261.00 4370.62 65.00
1415 76.7000 1.247615 5062.00 5128.60 71.00
1416 76.7500 1.246928 5759.00 5830.95 75.00
1417 76.8000 1.246241 6301.00 6316.57 79.00
1418 76.8500 1.245556 6597.00 6485.60 81.00
1419 76.9000 1.244871 6283.00 6346.54 79.00
1420 76.9500 1.244188 5874.00 6002.11 76.00
1421 77.0000 1.243505 5426.00 5582.81 73.00
1422 77.0500 1.242823 5016.00 5177.16 70.00
1423 77.1000 1.242143 4711.00 4804.98 68.00
1424 77.1500 1.241463 4385.00 4442.86 66.00
1425 77.2000 1.240784 4037.00 4068.26 63.00
1426 77.2500 1.240107 3734.00 3687.55 61.00
1427 77.3000 1.239430 3478.00 3332.35 58.00
1428 77.3500 1.238754 3250.00 3037.56 57.00
1429 77.4000 1.238079 3059.00 2822.25 55.00
1430 77.4500 1.237406 2955.00 2684.02 54.00
1431 77.5000 1.236733 2929.00 2606.17 54.00
1432 77.5500 1.236061 2884.00 2568.07 53.00
1433 77.6000 1.235390 2860.00 2552.67 53.00
1434 77.6500 1.234720 2765.00 2549.47 52.00
1435 77.7000 1.234051 2820.00 2554.40 53.00
1436 77.7500 1.233383 2779.00 2568.76 52.00
1437 77.8000 1.232716 2764.00 2598.32 52.00
1438 77.8500 1.232050 2850.00 2651.61 53.00
1439 77.9000 1.231385 3035.00 2736.16 55.00
1440 77.9500 1.230720 3145.00 2852.67 56.00
1441 78.0000 1.230057 3175.00 2988.96 56.00
1442 78.0500 1.229395 3448.00 3118.89 58.00
1443 78.1000 1.228733 3507.00 3209.43 59.00
1444 78.1500 1.228073 3648.00 3234.57 60.00
1445 78.2000 1.227414 3631.00 3189.38 60.00
1446 78.2500 1.226755 3393.00 3096.96 58.00
1447 78.3000 1.226097 3282.00 3008.62 57.00
1448 78.3500 1.225441 3359.00 3006.05 57.00
1449 78.4000 1.224785 3452.00 3215.85 58.00
1450 78.4500 1.224130 3859.00 3832.32 62.00
1451 78.5000 1.223476 4773.00 5121.97 69.00
1452 78.5500 1.222823 6621.00 7367.51 81.00
1453 78.6000 1.222172 9591.00 10731.00 97.00
1454 78.6500 1.221520 13868.00 15074.40 117.00
1455 78.7000 1.220870 18913.00 19871.00 137.00
1456 78.7500 1.220221 23623.00 24306.00 153.00
1457 78.8000 1.219573 26797.00 27588.50 163.00
1458 78.8500 1.218925 28830.00 29278.90 169.00
1459 78.9000 1.218279 28290.00 29398.20 168.00
1460 78.9500 1.217633 27176.00 28258.80 164.00
1461 79.0000 1.216989 25245.00 26179.10 158.00
1462 79.0500 1.216345 22716.00 23343.60 150.00
1463 79.1000 1.215702 19576.00 19884.20 139.00
1464 79.1500 1.215060 15823.00 16047.70 125.00
1465 79.2000 1.214419 12278.00 12239.70 110.00
1466 79.2500 1.213779 9241.00 8904.87 96.00
1467 79.3000 1.213140 6722.00 6350.63 81.00
1468 79.3500 1.212502 5114.00 4659.94 71.00
1469 79.4000 1.211864 4345.00 3741.27 65.00
1470 79.4500 1.211228 4056.00 3438.73 63.00
1471 79.5000 1.210592 4148.00 3625.08 64.00
1472 79.5500 1.209958 4612.00 4220.89 67.00
1473 79.6000 1.209324 5381.00 5149.60 73.00
1474 79.6500 1.208691 6400.00 6269.98 80.00
1475 79.7000 1.208059 7473.00 7347.94 86.00
1476 79.7500 1.207428 8419.00 8100.25 91.00
1477 79.8000 1.206798 8578.00 8301.65 92.00
1478 79.8500 1.206169 8257.00 7889.34 90.00
1479 79.9000 1.205540 7160.00 6994.71 84.00
1480 79.9500 1.204913 5819.00 5877.88 76.00
1481 80.0000 1.204286 4790.00 4812.02 69.00
1482 80.0500 1.203660 3942.00 3984.82 62.00
1483 80.1000 1.203035 3498.00 3464.37 59.00
1484 80.1500 1.202411 3322.00 3223.51 57.00
1485 80.2000 1.201788 3355.00 3184.56 57.00
1486 80.2500 1.201166 3447.00 3257.01 58.00
1487 80.3000 1.200544 3586.00 3359.76 59.00
1488 80.3500 1.199924 3779.00 3435.40 61.00
1489 80.4000 1.199304 3745.00 3461.24 61.00
1490 80.4500 1.198685 3739.00 3453.27 61.00
1491 80.5000 1.198067 3740.00 3456.60 61.00
1492 80.5500 1.197450 3684.00 3522.53 60.00
1493 80.6000 1.196834 4080.00 3683.47 63.00
1494 80.6500 1.196219 4144.00 3941.65 64.00
1495 80.7000 1.195604 4493.00 4283.09 67.00
1496 80.7500 1.194991 4756.00 4710.36 68.00
1497 80.8000 1.194378 5240.00 5269.94 72.00
1498 80.8500 1.193766 5930.00 6042.09 77.00
1499 80.9000 1.193155 6703.00 7079.50 81.00
1500 80.9500 1.192545 7842.00 8323.09 88.00
1501 81.0000 1.191935 9162.00 9555.22 95.00
1502 81.0500 1.191327 10213.00 10446.80 101.00
1503 81.1000 1.190719 10699.00 10693.70 103.00
1504 81.1500 1.190112 10122.00 10167.70 100.00
1505 81.2000 1.189506 8997.00 8986.14 94.00
1506 81.2500 1.188901 7315.00 7455.46 85.00
1507 81.3000 1.188297 5765.00 5927.88 75.00
1508 81.3500 1.187693 4479.00 4663.04 66.00
1509 81.4000 1.187091 3688.00 3768.09 60.00
1510 81.4500 1.186489 3200.00 3218.59 56.00
1511 81.5000 1.185888 3015.00 2923.59 54.00
1512 81.5500 1.185288 3009.00 2784.89 54.00
1513 81.6000 1.184689 2813.00 2728.18 53.00
1514 81.6500 1.184090 2796.00 2708.82 52.00
1515 81.7000 1.183493 2823.00 2704.45 53.00
1516 81.7500 1.182896 2854.00 2705.65 53.00
1517 81.8000 1.182300 2820.00 2709.27 53.00
1518 81.8500 1.181705 2802.00 2714.88 52.00
1519 81.9000 1.181111 2817.00 2723.23 53.00
1520 81.9500 1.180517 2811.00 2735.94 53.00
1521 82.0000 1.179924 2837.00 2755.39 53.00
1522 82.0500 1.179332 2815.00 2784.43 53.00
1523 82.1000 1.178741 2888.00 2825.14 53.00
1524 82.1500 1.178151 2968.00 2876.62 54.00
1525 82.2000 1.177562 2910.00 2932.89 53.00
1526 82.2500 1.176973 3052.00 2982.84 55.00
1527 82.3000 1.176386 3067.00 3013.63 55.00
1528 82.3500 1.175799 3026.00 3016.42 55.00
1529 82.4000 1.175212 2954.00 2991.76 54.00
1530 82.4500 1.174627 2989.00 2951.78 54.00
1531 82.5000 1.174042 3046.00 2919.96 55.00
1532 82.5500 1.173459 2968.00 2931.37 54.00
1533 82.6000 1.172876 3087.00 3035.87 55.00
1534 82.6500 1.172294 3255.00 3300.65 57.00
1535 82.7000 1.171712 3695.00 3802.33 60.00
1536 82.7500 1.171132 4328.00 4597.28 65.00
1537 82.8000 1.170552 5286.00 5673.41 72.00
1538 82.8500 1.169973 6705.00 6905.85 81.00
1539 82.9000 1.169395 8100.00 8054.95 90.00
1540 82.9500 1.168818 8996.00 8833.41 94.00
1541 83.0000 1.168241 9100.00 9019.85 95.00
1542 83.0500 1.167665 8746.00 8561.15 93.00
1543 83.1000 1.167090 7609.00 7596.37 87.00
1544 83.1500 1.166516 6281.00 6390.30 79.00
1545 83.2000 1.165943 5063.00 5217.47 71.00
1546 83.2500 1.165370 4026.00 4269.20 63.00
1547 83.3000 1.164798 3632.00 3621.81 60.00
1548 83.3500 1.164227 3263.00 3263.17 57.00
1549 83.4000 1.163657 3271.00 3141.93 57.00
1550 83.4500 1.163088 3306.00 3203.94 57.00
1551 83.5000 1.162519 3478.00 3401.86 58.00
1552 83.5500 1.161951 3757.00 3684.83 61.00
1553 83.6000 1.161384 4038.00 3986.58 63.00
1554 83.6500 1.160818 4600.00 4227.82 67.00
1555 83.7000 1.160252 4655.00 4337.95 68.00
1556 83.7500 1.159687 4633.00 4282.66 68.00
1557 83.8000 1.159123 4466.00 4079.43 66.00
1558 83.8500 1.158560 4053.00 3788.01 63.00
1559 83.9000 1.157997 3554.00 3482.38 59.00
1560 83.9500 1.157435 3273.00 3220.90 57.00
1561 84.0000 1.156874 3020.00 3031.36 54.00
1562 84.0500 1.156314 2921.00 2913.14 54.00
1563 84.1000 1.155755 2915.00 2850.13 53.00
1564 84.1500 1.155196 2864.00 2824.12 53.00
1565 84.2000 1.154638 2900.00 2823.61 53.00
1566 84.2500 1.154081 2951.00 2848.29 54.00
1567 84.3000 1.153524 3107.00 2910.74 55.00
1568 84.3500 1.152969 3161.00 3035.93 56.00
1569 84.4000 1.152414 3391.00 3255.89 58.00
1570 84.4500 1.151860 3617.00 3597.87 60.00
1571 84.5000 1.151306 4198.00 4068.38 64.00
1572 84.5500 1.150753 4906.00 4643.56 70.00
1573 84.6000 1.150202 5300.00 5277.70 72.00
1574 84.6500 1.149650 5885.00 5928.68 76.00
1575 84.7000 1.149100 6418.00 6584.45 80.00
1576 84.7500 1.148550 6966.00 7259.19 83.00
1577 84.8000 1.148001 7613.00 7953.78 87.00
1578 84.8500 1.147453 8443.00 8605.04 91.00
1579 84.9000 1.146906 8994.00 9071.04 94.00
1580 84.9500 1.146359 9295.00 9181.30 96.00
1581 85.0000 1.145813 8838.00 8826.25 94.00
1582 85.0500 1.145268 8063.00 8027.67 89.00
1583 85.1000 1.144723 6836.00 6939.77 82.00
1584 85.1500 1.144179 5494.00 5783.56 74.00
1585 85.2000 1.143636 4431.00 4756.64 66.00
1586 85.2500 1.143094 3815.00 3974.01 61.00
1587 85.3000 1.142553 3450.00 3457.91 58.00
1588 85.3500 1.142012 3243.00 3168.02 56.00
1589 85.4000 1.141472 3010.00 3041.11 54.00
1590 85.4500 1.140932 3003.00 3019.36 54.00
1591 85.5000 1.140393 3017.00 3062.52 54.00
1592 85.5500 1.139856 3266.00 3150.16 57.00
1593 85.6000 1.139318 3314.00 3282.60 57.00
1594 85.6500 1.138782 3446.00 3481.93 58.00
1595 85.7000 1.138246 3669.00 3787.93 60.00
1596 85.7500 1.137711 4040.00 4240.18 63.00
1597 85.8000 1.137177 4618.00 4848.00 67.00
1598 85.8500 1.136643 5455.00 5563.41 73.00
1599 85.9000 1.136110 6231.00 6278.97 78.00
1600 85.9500 1.135578 6787.00 6864.04 82.00
1601 86.0000 1.135047 7205.00 7218.99 84.00
1602 86.0500 1.134516 7396.00 7316.11 86.00
1603 86.1000 1.133986 7154.00 7198.47 84.00
1604 86.1500 1.133457 6857.00 6947.98 82.00
1605 86.2000 1.132928 6438.00 6658.47 80.00
1606 86.2500 1.132400 6241.00 6438.92 79.00
1607 86.3000 1.131873 6212.00 6432.52 78.00
1608 86.3500 1.131346 6569.00 6808.92 81.00
1609 86.4000 1.130821 7338.00 7701.08 85.00
1610 86.4500 1.130296 8399.00 9107.93 91.00
1611 86.5000 1.129771 10103.00 10828.00 100.00
1612 86.5500 1.129248 12023.00 12492.70 109.00
1613 86.6000 1.128725 13291.00 13707.30 115.00
1614 86.6500 1.128202 13316.00 14218.30 115.00
1615 86.7000 1.127681 13232.00 14006.70 115.00
1616 86.7500 1.127160 12527.00 13242.20 111.00
1617 86.8000 1.126640 11491.00 12148.60 107.00
1618 86.8500 1.126120 10568.00 10886.70 102.00
1619 86.9000 1.125601 9274.00 9534.46 96.00
1620 86.9500 1.125083 8096.00 8139.48 89.00
1621 87.0000 1.124566 6727.00 6776.71 82.00
1622 87.0500 1.124049 5578.00 5551.93 74.00
1623 87.1000 1.123533 4561.00 4560.23 67.00
1624 87.1500 1.123018 3879.00 3845.25 62.00
1625 87.2000 1.122503 3413.00 3387.85 58.00
1626 87.2500 1.121989 3209.00 3128.77 56.00
1627 87.3000 1.121476 3131.00 2998.97 55.00
1628 87.3500 1.120963 3007.00 2941.67 54.00
1629 87.4000 1.120451 2958.00 2919.78 54.00
1630 87.4500 1.119940 2997.00 2913.05 54.00
1631 87.5000 1.119429 3052.00 2912.06 55.00
1632 87.5500 1.118919 2955.00 2913.09 54.00
1633 87.6000 1.118410 3033.00 2915.05 55.00
1634 87.6500 1.117902 2936.00 2918.19 54.00
1635 87.7000 1.117394 2967.00 2923.97 54.00
1636 87.7500 1.116887 2988.00 2935.47 54.00
1637 87.8000 1.116380 3085.00 2957.91 55.00
1638 87.8500 1.115874 3001.00 2998.46 54.00
1639 87.9000 1.115369 3054.00 3064.51 55.00
1640 87.9500 1.114865 3231.00 3160.76 56.00
1641 88.0000 1.114361 3410.00 3287.33 58.00
1642 88.0500 1.113858 3547.00 3443.97 59.00
1643 88.1000 1.113355 3943.00 3645.36 62.00
1644 88.1500 1.112853 4338.00 3946.78 65.00
1645 88.2000 1.112352 4830.00 4468.08 69.00
1646 88.2500 1.111852 5650.00 5390.87 75.00
1647 88.3000 1.111352 7143.00 6903.02 84.00
1648 88.3500 1.110852 9027.00 9087.48 95.00
1649 88.4000 1.110354 11555.00 11793.90 107.00
1650 88.4500 1.109856 14542.00 14586.80 120.00
1651 88.5000 1.109359 16501.00 16834.10 128.00
1652 88.5500 1.108862 17690.00 17948.90 133.00
1653 88.6000 1.108366 17270.00 17657.50 131.00
1654 88.6500 1.107871 15699.00 16132.00 125.00
1655 88.7000 1.107376 13662.00 13895.20 116.00
1656 88.7500 1.106883 11079.00 11557.00 105.00
1657 88.8000 1.106389 9449.00 9554.27 97.00
1658 88.8500 1.105897 8202.00 8033.79 90.00
1659 88.9000 1.105405 7127.00 6914.28 84.00
1660 88.9500 1.104913 6343.00 6033.29 79.00
1661 89.0000 1.104423 5417.00 5272.42 73.00
1662 89.0500 1.103932 4741.00 4597.74 68.00
1663 89.1000 1.103443 4138.00 4030.48 64.00
1664 89.1500 1.102954 3658.00 3598.91 60.00
1665 89.2000 1.102466 3441.00 3307.07 58.00
1666 89.2500 1.101979 3327.00 3133.17 57.00
1667 89.3000 1.101492 3238.00 3043.68 56.00
1668 89.3500 1.101006 3057.00 3008.95 55.00
1669 89.4000 1.100520 3044.00 3012.75 55.00
1670 89.4500 1.100035 3041.00 3055.55 55.00
1671 89.5000 1.099551 3185.00 3153.66 56.00
1672 89.5500 1.099067 3306.00 3333.86 57.00
1673 89.6000 1.098584 3608.00 3621.48 60.00
1674 89.6500 1.098102 3929.00 4021.14 62.00
1675 89.7000 1.097620 4356.00 4497.94 66.00
1676 89.7500 1.097139 4853.00 4970.28 69.00
1677 89.8000 1.096658 5135.00 5328.15 71.00
1678 89.8500 1.096179 5285.00 5473.57 72.00
1679 89.9000 1.095699 5291.00 5363.87 72.00
1680 89.9500 1.095221 4941.00 5032.06 70.00
1681 90.0000 1.094743 4552.00 4571.22 67.00
1682 90.0500 1.094265 4048.00 4092.46 63.00
1683 90.1000 1.093789 3717.00 3683.04 60.00
1684 90.1500 1.093313 3467.00 3385.80 58.00
1685 90.2000 1.092837 3324.00 3204.15 57.00
1686 90.2500 1.092362 3248.00 3123.97 56.00
1687 90.3000 1.091888 3147.00 3137.78 56.00
1688 90.3500 1.091414 3253.00 3262.78 57.00
1689 90.4000 1.090941 3479.00 3546.73 58.00
1690 90.4500 1.090469 3952.00 4056.76 62.00
1691 90.5000 1.089997 4661.00 4846.23 68.00
1692 90.5500 1.089526 5666.00 5905.10 75.00
1693 90.6000 1.089055 6917.00 7116.58 83.00
1694 90.6500 1.088585 8118.00 8253.49 90.00
1695 90.7000 1.088116 8939.00 9038.55 94.00
1696 90.7500 1.087647 9436.00 9251.68 97.00
1697 90.8000 1.087179 9027.00 8830.23 95.00
1698 90.8500 1.086712 7800.00 7898.75 88.00
1699 90.9000 1.086245 6639.00 6711.56 81.00
1700 90.9500 1.085779 5467.00 5542.73 73.00
1701 91.0000 1.085313 4447.00 4594.60 66.00
1702 91.0500 1.084848 3962.00 3962.40 62.00
1703 91.1000 1.084383 3658.00 3658.39 60.00
1704 91.1500 1.083920 3637.00 3659.76 60.00
1705 91.2000 1.083456 3977.00 3940.78 63.00
1706 91.2500 1.082994 4339.00 4471.70 65.00
1707 91.3000 1.082532 4996.00 5191.97 70.00
1708 91.3500 1.082070 5844.00 5984.62 76.00
1709 91.4000 1.081609 6600.00 6680.99 81.00
1710 91.4500 1.081149 7155.00 7108.67 84.00
1711 91.5000 1.080690 7174.00 7159.80 84.00
1712 91.5500 1.080230 6740.00 6840.46 82.00
1713 91.6000 1.079772 6035.00 6265.06 77.00
1714 91.6500 1.079314 5411.00 5599.59 73.00
1715 91.7000 1.078857 4762.00 4987.44 69.00
1716 91.7500 1.078400 4222.00 4503.27 64.00
1717 91.8000 1.077944 3999.00 4151.40 63.00
1718 91.8500 1.077489 3840.00 3897.01 61.00
1719 91.9000 1.077034 3607.00 3702.35 60.00
1720 91.9500 1.076579 3456.00 3546.70 58.00
1721 92.0000 1.076126 3428.00 3429.13 58.00
1722 92.0500 1.075672 3444.00 3361.44 58.00
1723 92.1000 1.075220 3306.00 3361.13 57.00
1724 92.1500 1.074768 3432.00 3446.46 58.00
1725 92.2000 1.074317 3608.00 3631.67 60.00
1726 92.2500 1.073866 4021.00 3921.90 63.00
1727 92.3000 1.073416 4322.00 4312.27 65.00
1728 92.3500 1.072966 4776.00 4797.45 69.00
1729 92.4000 1.072517 5216.00 5388.80 72.00
1730 92.4500 1.072068 5861.00 6125.68 76.00
1731 92.5000 1.071620 6771.00 7058.38 82.00
1732 92.5500 1.071173 7797.00 8198.03 88.00
1733 92.6000 1.070726 9079.00 9455.11 95.00
1734 92.6500 1.070280 10377.00 10614.30 101.00
1735 92.7000 1.069835 11399.00 11385.70 106.00
1736 92.7500 1.069390 11549.00 11519.10 107.00
1737 92.8000 1.068945 11041.00 10925.20 105.00
1738 92.8500 1.068501 9699.00 9727.78 98.00
1739 92.9000 1.068058 8149.00 8218.54 90.00
1740 92.9500 1.067615 6642.00 6745.34 81.00
1741 93.0000 1.067173 5572.00 5607.03 74.00
1742 93.0500 1.066731 5094.00 5001.70 71.00
1743 93.1000 1.066290 5096.00 5030.30 71.00
1744 93.1500 1.065850 5595.00 5714.12 74.00
1745 93.2000 1.065410 6668.00 6986.48 81.00
1746 93.2500 1.064971 8535.00 8656.92 92.00
1747 93.3000 1.064532 10433.00 10394.60 102.00
1748 93.3500 1.064094 12032.00 11781.50 109.00
1749 93.4000 1.063656 12984.00 12441.80 113.00
1750 93.4500 1.063219 12666.00 12195.10 112.00
1751 93.5000 1.062783 11440.00 11140.30 106.00
1752 93.5500 1.062347 9807.00 9619.51 99.00
1753 93.6000 1.061911 8009.00 8080.55 89.00
1754 93.6500 1.061476 6772.00 6922.03 82.00
1755 93.7000 1.061042 6194.00 6386.51 78.00
1756 93.7500 1.060609 6407.00 6527.01 80.00
1757 93.8000 1.060175 7078.00 7219.48 84.00
1758 93.8500 1.059743 8233.00 8202.10 90.00
1759 93.9000 1.059311 9229.00 9136.96 96.00
1760 93.9500 1.058879 10041.00 9705.52 100.00
1761 94.0000 1.058448 10066.00 9714.56 100.00
1762 94.0500 1.058018 9598.00 9168.10 97.00
1763 94.1000 1.057588 8371.00 8257.97 91.00
1764 94.1500 1.057159 7213.00 7274.64 84.00
1765 94.2000 1.056730 6367.00 6487.67 79.00
1766 94.2500 1.056302 5835.00 6060.59 76.00
1767 94.3000 1.055874 5807.00 6032.36 76.00
1768 94.3500 1.055447 6177.00 6351.99 78.00
1769 94.4000 1.055020 6659.00 6922.54 81.00
1770 94.4500 1.054594 7339.00 7622.17 85.00
1771 94.5000 1.054169 8224.00 8300.69 90.00
1772 94.5500 1.053744 8515.00 8784.26 92.00
1773 94.6000 1.053320 8778.00 8911.61 93.00
1774 94.6500 1.052896 8544.00 8594.57 92.00
1775 94.7000 1.052473 7986.00 7865.10 89.00
1776 94.7500 1.052050 6939.00 6870.49 83.00
1777 94.8000 1.051628 5692.00 5815.90 75.00
1778 94.8500 1.051206 4952.00 4887.19 70.00
1779 94.9000 1.050785 4252.00 4201.64 65.00
1780 94.9500 1.050364 3807.00 3802.50 61.00
1781 95.0000 1.049944 3774.00 3688.38 61.00
1782 95.0500 1.049525 3980.00 3844.86 63.00
1783 95.1000 1.049106 4298.00 4255.43 65.00
1784 95.1500 1.048687 4906.00 4884.73 70.00
1785 95.2000 1.048269 5494.00 5651.03 74.00
1786 95.2500 1.047852 6423.00 6412.93 80.00
1787 95.3000 1.047435 7019.00 6993.49 83.00
1788 95.3500 1.047019 7542.00 7239.31 86.00
1789 95.4000 1.046603 7343.00 7085.61 85.00
1790 95.4500 1.046188 6699.00 6590.08 81.00
1791 95.5000 1.045773 5984.00 5914.93 77.00
1792 95.5500 1.045359 5380.00 5268.33 73.00
1793 95.6000 1.044945 4865.00 4837.40 69.00
1794 95.6500 1.044532 4770.00 4741.19 69.00
1795 95.7000 1.044119 5040.00 5009.21 70.00
1796 95.7500 1.043707 5629.00 5581.37 75.00
1797 95.8000 1.043295 6692.00 6327.78 81.00
1798 95.8500 1.042884 7308.00 7098.37 85.00
1799 95.9000 1.042474 8258.00 7802.96 90.00
1800 95.9500 1.042064 8884.00 8500.25 94.00
1801 96.0000 1.041654 9333.00 9439.18 96.00
1802 96.0500 1.041245 10266.00 11000.60 101.00
1803 96.1000 1.040837 12276.00 13524.10 110.00
1804 96.1500 1.040429 15976.00 17079.10 126.00
1805 96.2000 1.040022 20369.00 21309.30 142.00
1806 96.2500 1.039615 25331.00 25462.50 159.00
1807 96.3000 1.039208 29383.00 28642.90 171.00
1808 96.3500 1.038802 30530.00 30169.10 174.00
1809 96.4000 1.038397 29842.00 29826.00 172.00
1810 96.4500 1.037992 27648.00 27883.40 166.00
1811 96.5000 1.037588 24537.00 24886.50 156.00
1812 96.5500 1.037184 21066.00 21391.40 145.00
1813 96.6000 1.036781 17496.00 17805.20 132.00
1814 96.6500 1.036378 14195.00 14382.90 119.00
1815 96.7000 1.035976 11397.00 11296.20 106.00
1816 96.7500 1.035574 8624.00 8681.81 92.00
1817 96.8000 1.035172 6743.00 6632.27 82.00
1818 96.8500 1.034772 5368.00 5165.18 73.00
1819 96.9000 1.034371 4530.00 4218.34 67.00
1820 96.9500 1.033972 4130.00 3675.37 64.00
1821 97.0000 1.033572 3830.00 3410.03 61.00
1822 97.0500 1.033174 3735.00 3317.40 61.00
1823 97.1000 1.032776 3751.00 3326.11 61.00
1824 97.1500 1.032378 3670.00 3395.10 60.00
1825 97.2000 1.031981 3631.00 3506.40 60.00
1826 97.2500 1.031584 3786.00 3661.72 61.00
1827 97.3000 1.031188 4025.00 3883.44 63.00
1828 97.3500 1.030792 4323.00 4214.52 65.00
1829 97.4000 1.030397 4724.00 4711.53 68.00
1830 97.4500 1.030002 5628.00 5431.52 75.00
1831 97.5000 1.029608 6597.00 6417.44 81.00
1832 97.5500 1.029214 7945.00 7688.85 89.00
1833 97.6000 1.028821 9462.00 9234.78 97.00
1834 97.6500 1.028428 11176.00 10991.80 105.00
1835 97.7000 1.028036 12679.00 12813.10 112.00
1836 97.7500 1.027644 14116.00 14443.50 118.00
1837 97.8000 1.027253 15089.00 15549.40 122.00
1838 97.8500 1.026862 15377.00 15820.30 124.00
1839 97.9000 1.026472 14906.00 15104.60 122.00
1840 97.9500 1.026082 13113.00 13500.60 114.00
1841 98.0000 1.025693 11243.00 11337.60 106.00
1842 98.0500 1.025304 8895.00 9049.64 94.00
1843 98.1000 1.024915 6926.00 7015.59 83.00
1844 98.1500 1.024528 5479.00 5454.94 74.00
1845 98.2000 1.024140 4590.00 4409.47 67.00
1846 98.2500 1.023753 4076.00 3800.21 63.00
1847 98.3000 1.023367 3805.00 3499.62 61.00
1848 98.3500 1.022981 3628.00 3386.56 60.00
1849 98.4000 1.022596 3446.00 3369.89 58.00
1850 98.4500 1.022211 3465.00 3389.34 58.00
1851 98.5000 1.021827 3358.00 3408.62 57.00
1852 98.5500 1.021443 3361.00 3409.12 57.00
1853 98.6000 1.021059 3241.00 3385.86 56.00
1854 98.6500 1.020676 3202.00 3344.06 56.00
1855 98.7000 1.020294 3227.00 3294.92 56.00
1856 98.7500 1.019912 3063.00 3251.46 55.00
1857 98.8000 1.019530 3135.00 3226.08 55.00
1858 98.8500 1.019149 3010.00 3230.97 54.00
1859 98.9000 1.018769 3130.00 3279.90 55.00
1860 98.9500 1.018389 3178.00 3388.59 56.00
1861 99.0000 1.018009 3409.00 3570.52 58.00
1862 99.0500 1.017630 3667.00 3827.45 60.00
1863 99.1000 1.017251 3919.00 4138.76 62.00
1864 99.1500 1.016873 4257.00 4456.37 65.00
1865 99.2000 1.016495 4477.00 4713.53 66.00
1866 99.2500 1.016118 4762.00 4845.98 69.00
1867 99.3000 1.015741 4683.00 4818.35 68.00
1868 99.3500 1.015365 4433.00 4640.11 66.00
1869 99.4000 1.014989 4256.00 4362.14 65.00
1870 99.4500 1.014614 3912.00 4055.81 62.00
1871 99.5000 1.014239 3653.00 3786.80 60.00
1872 99.5500 1.013864 3323.00 3596.66 57.00
1873 99.6000 1.013490 3312.00 3497.38 57.00
1874 99.6500 1.013117 3350.00 3477.60 57.00
1875 99.7000 1.012744 3461.00 3513.91 58.00
1876 99.7500 1.012372 3514.00 3584.14 59.00
1877 99.8000 1.011999 3512.00 3680.70 59.00
1878 99.8500 1.011628 3570.00 3822.10 59.00
1879 99.9000 1.011257 3828.00 4057.23 61.00
1880 99.9500 1.010886 4064.00 4455.53 63.00
1881 100.0000 1.010516 4837.00 5078.86 69.00
1882 100.0500 1.010146 5704.00 5942.43 75.00
1883 100.1000 1.009777 6777.00 6985.65 82.00
1884 100.1500 1.009408 8232.00 8073.94 90.00
1885 100.2000 1.009040 9328.00 9047.82 96.00
1886 100.2500 1.008672 10065.00 9794.76 100.00
1887 100.3000 1.008304 10185.00 10302.70 100.00
1888 100.3500 1.007937 10269.00 10651.10 101.00
1889 100.4000 1.007571 10341.00 10936.60 101.00
1890 100.4500 1.007205 10465.00 11183.00 102.00
1891 100.5000 1.006839 11047.00 11300.60 105.00
1892 100.5500 1.006474 10853.00 11130.00 104.00
1893 100.6000 1.006109 10087.00 10543.30 100.00
1894 100.6500 1.005745 9150.00 9533.65 95.00
1895 100.7000 1.005381 7948.00 8234.12 89.00
1896 100.7500 1.005018 6627.00 6860.96 81.00
1897 100.8000 1.004655 5212.00 5623.23 72.00
1898 100.8500 1.004293 4455.00 4651.46 66.00
1899 100.9000 1.003931 3955.00 3979.26 62.00
1900 100.9500 1.003569 3533.00 3566.40 59.00
1901 101.0000 1.003208 3389.00 3340.62 58.00
1902 101.0500 1.002847 3234.00 3231.34 56.00
1903 101.1000 1.002487 3240.00 3186.69 56.00
1904 101.1500 1.002128 3138.00 3176.18 56.00
1905 101.2000 1.001768 3132.00 3185.71 55.00
1906 101.2500 1.001410 3196.00 3210.95 56.00
1907 101.3000 1.001051 3111.00 3251.30 55.00
1908 101.3500 1.000693 3205.00 3305.23 56.00
1909 101.4000 1.000336 3262.00 3367.10 57.00
1910 101.4500 0.999979 3364.00 3426.44 58.00
1911 101.5000 0.999622 3364.00 3470.22 58.00
1912 101.5500 0.999266 3380.00 3487.28 58.00
1913 101.6000 0.998910 3368.00 3473.05 58.00
1914 101.6500 0.998555 3193.00 3431.54 56.00
1915 101.7000 0.998200 3203.00 3373.84 56.00
1916 101.7500 0.997846 3198.00 3313.87 56.00
1917 101.8000 0.997492 3182.00 3264.11 56.00
1918 101.8500 0.997138 3055.00 3233.25 55.00
1919 101.9000 0.996785 3022.00 3226.72 54.00
1920 101.9500 0.996433 3045.00 3248.89 55.00
1921 102.0000 0.996081 3174.00 3305.85 56.00
1922 102.0500 0.995729 3201.00 3407.54 56.00
1923 102.1000 0.995378 3311.00 3568.65 57.00
1924 102.1500 0.995027 3572.00 3806.48 59.00
1925 102.2000 0.994676 3827.00 4134.24 61.00
1926 102.2500 0.994326 4323.00 4548.65 65.00
1927 102.3000 0.993977 4731.00 5016.62 68.00
1928 102.3500 0.993628 5412.00 5470.25 73.00
1929 102.4000 0.993279 5868.00 5817.37 76.00
1930 102.4500 0.992931 6175.00 5971.38 78.00
1931 102.5000 0.992583 6227.00 5885.81 78.00
1932 102.5500 0.992236 5709.00 5576.22 75.00
1933 102.6000 0.991889 5245.00 5115.22 72.00
1934 102.6500 0.991542 4571.00 4603.67 67.00
1935 102.7000 0.991196 4039.00 4134.41 63.00
1936 102.7500 0.990850 3729.00 3767.50 61.00
1937 102.8000 0.990505 3380.00 3524.92 58.00
1938 102.8500 0.990160 3367.00 3401.21 58.00
1939 102.9000 0.989816 3333.00 3378.90 57.00
1940 102.9500 0.989472 3372.00 3438.38 58.00
1941 103.0000 0.989128 3309.00 3559.47 57.00
1942 103.0500 0.988785 3520.00 3717.34 59.00
1943 103.1000 0.988443 3697.00 3879.56 60.00
1944 103.1500 0.988100 3768.00 4009.04 61.00
1945 103.2000 0.987759 3873.00 4074.26 62.00
1946 103.2500 0.987417 3842.00 4061.76 61.00
1947 103.3000 0.987076 3851.00 3984.88 62.00
1948 103.3500 0.986736 3664.00 3883.78 60.00
1949 103.4000 0.986396 3730.00 3817.31 61.00
1950 103.4500 0.986056 3555.00 3849.52 59.00
1951 103.5000 0.985717 3773.00 4033.98 61.00
1952 103.5500 0.985378 4227.00 4396.28 65.00
1953 103.6000 0.985039 4891.00 4917.76 69.00
1954 103.6500 0.984701 5495.00 5525.30 74.00
1955 103.7000 0.984364 6113.00 6100.43 78.00
1956 103.7500 0.984027 6603.00 6510.61 81.00
1957 103.8000 0.983690 6590.00 6657.15 81.00
1958 103.8500 0.983354 6449.00 6516.57 80.00
1959 103.9000 0.983018 6050.00 6152.37 77.00
1960 103.9500 0.982682 5653.00 5689.26 75.00
1961 104.0000 0.982347 5133.00 5263.70 71.00
1962 104.0500 0.982012 4817.00 4977.21 69.00
1963 104.1000 0.981678 4876.00 4875.73 69.00
1964 104.1500 0.981344 5028.00 4959.75 70.00
1965 104.2000 0.981011 5283.00 5210.60 72.00
1966 104.2500 0.980678 5609.00 5610.19 74.00
1967 104.3000 0.980345 6157.00 6139.29 78.00
1968 104.3500 0.980013 6855.00 6756.64 82.00
1969 104.4000 0.979681 7395.00 7376.85 85.00
1970 104.4500 0.979350 7977.00 7872.46 89.00
1971 104.5000 0.979019 8421.00 8107.28 91.00
1972 104.5500 0.978688 8122.00 7989.91 90.00
1973 104.6000 0.978358 7432.00 7515.82 86.00
1974 104.6500 0.978028 6659.00 6773.98 81.00
1975 104.7000 0.977699 5854.00 5912.35 76.00
1976 104.7500 0.977370 4876.00 5083.86 69.00
1977 104.8000 0.977042 4177.00 4399.83 64.00
1978 104.8500 0.976714 3766.00 3909.82 61.00
1979 104.9000 0.976386 3558.00 3610.67 59.00
1980 104.9500 0.976059 3532.00 3467.40 59.00
1981 105.0000 0.975732 3493.00 3434.50 59.00
1982 105.0500 0.975405 3578.00 3468.01 59.00
1983 105.1000 0.975079 3640.00 3529.68 60.00
1984 105.1500 0.974753 3747.00 3588.02 61.00
1985 105.2000 0.974428 3715.00 3620.25 60.00
1986 105.2500 0.974103 3697.00 3615.26 60.00
1987 105.3000 0.973779 3653.00 3575.82 60.00
1988 105.3500 0.973455 3442.00 3517.43 58.00
1989 105.4000 0.973131 3419.00 3463.83 58.00
1990 105.4500 0.972808 3388.00 3440.50 58.00
1991 105.5000 0.972485 3407.00 3468.29 58.00
1992 105.5500 0.972163 3468.00 3557.66 58.00
1993 105.6000 0.971841 3688.00 3704.10 60.00
1994 105.6500 0.971519 3727.00 3885.59 61.00
1995 105.7000 0.971198 3985.00 4065.15 63.00
1996 105.7500 0.970877 4125.00 4199.38 64.00
1997 105.8000 0.970556 4066.00 4252.48 63.00
1998 105.8500 0.970236 4066.00 4209.11 63.00
1999 105.9000 0.969916 4039.00 4080.12 63.00
2000 105.9500 0.969597 3851.00 3897.66 62.00
2001 106.0000 0.969278 3588.00 3702.53 59.00
2002 106.0500 0.968960 3567.00 3530.66 59.00
2003 106.1000 0.968642 3358.00 3404.76 57.00
2004 106.1500 0.968324 3258.00 3333.70 57.00
2005 106.2000 0.968007 3293.00 3316.16 57.00
2006 106.2500 0.967690 3329.00 3345.23 57.00
2007 106.3000 0.967373 3476.00 3410.48 58.00
2008 106.3500 0.967057 3629.00 3497.97 60.00
2009 106.4000 0.966741 3644.00 3589.80 60.00
2010 106.4500 0.966426 3680.00 3665.87 60.00
2011 106.5000 0.966111 3694.00 3708.06 60.00
2012 106.5500 0.965796 3656.00 3705.68 60.00
2013 106.6000 0.965482 3602.00 3659.08 60.00
2014 106.6500 0.965168 3517.00 3579.28 59.00
2015 106.7000 0.964855 3382.00 3483.64 58.00
2016 106.7500 0.964542 3148.00 3389.76 56.00
2017 106.8000 0.964229 3243.00 3310.49 56.00
2018 106.8500 0.963917 3262.00 3251.94 57.00
2019 106.9000 0.963605 3251.00 3214.87 57.00
2020 106.9500 0.963294 3189.00 3198.31 56.00
2021 107.0000 0.962982 3235.00 3204.62 56.00
2022 107.0500 0.962672 3341.00 3245.47 57.00
2023 107.1000 0.962361 3404.00 3348.57 58.00
2024 107.1500 0.962051 3687.00 3563.08 60.00
2025 107.2000 0.961742 4087.00 3959.46 63.00
2026 107.2500 0.961433 4681.00 4616.13 68.00
2027 107.3000 0.961124 5421.00 5588.39 73.00
2028 107.3500 0.960815 6893.00 6865.60 83.00
2029 107.4000 0.960507 8348.00 8330.91 91.00
2030 107.4500 0.960200 9827.00 9757.97 99.00
2031 107.5000 0.959892 11148.00 10857.20 105.00
2032 107.5500 0.959585 11794.00 11369.50 108.00
2033 107.6000 0.959279 11619.00 11165.10 107.00
2034 107.6500 0.958973 10504.00 10296.80 102.00
2035 107.7000 0.958667 8888.00 8977.43 94.00
2036 107.7500 0.958362 7462.00 7496.38 86.00
2037 107.8000 0.958057 6274.00 6117.36 79.00
2038 107.8500 0.957752 5043.00 5007.39 71.00
2039 107.9000 0.957448 4386.00 4221.15 66.00
2040 107.9500 0.957144 4069.00 3727.19 63.00
2041 108.0000 0.956840 3723.00 3452.90 61.00
2042 108.0500 0.956537 3472.00 3322.17 58.00
2043 108.1000 0.956234 3427.00 3275.58 58.00
2044 108.1500 0.955932 3423.00 3275.51 58.00
2045 108.2000 0.955630 3593.00 3302.29 59.00
2046 108.2500 0.955328 3453.00 3347.73 58.00
2047 108.3000 0.955027 3542.00 3408.76 59.00
2048 108.3500 0.954726 3666.00 3482.29 60.00
2049 108.4000 0.954426 3632.00 3561.52 60.00
2050 108.4500 0.954125 3636.00 3634.90 60.00
2051 108.5000 0.953826 3752.00 3688.01 61.00
2052 108.5500 0.953526 3765.00 3707.99 61.00
2053 108.6000 0.953227 3789.00 3688.45 61.00
2054 108.6500 0.952928 3633.00 3632.25 60.00
2055 108.7000 0.952630 3508.00 3550.65 59.00
2056 108.7500 0.952332 3404.00 3459.33 58.00
2057 108.8000 0.952035 3326.00 3373.11 57.00
2058 108.8500 0.951737 3210.00 3302.01 56.00
2059 108.9000 0.951440 3144.00 3250.00 56.00
2060 108.9500 0.951144 3120.00 3215.92 55.00
2061 109.0000 0.950848 3166.00 3195.92 56.00
2062 109.0500 0.950552 3149.00 3185.50 56.00
2063 109.1000 0.950257 3147.00 3181.01 56.00
2064 109.1500 0.949962 3093.00 3180.18 55.00
2065 109.2000 0.949667 3168.00 3182.16 56.00
2066 109.2500 0.949373 3219.00 3187.49 56.00
2067 109.3000 0.949079 3228.00 3198.17 56.00
2068 109.3500 0.948785 3109.00 3218.07 55.00
2069 109.4000 0.948492 3218.00 3253.68 56.00
2070 109.4500 0.948199 3327.00 3314.81 57.00
2071 109.5000 0.947907 3407.00 3414.42 58.00
2072 109.5500 0.947615 3564.00 3566.36 59.00
2073 109.6000 0.947323 3833.00 3780.13 61.00
2074 109.6500 0.947031 4051.00 4052.78 63.00
2075 109.7000 0.946740 4357.00 4362.03 66.00
2076 109.7500 0.946450 4689.00 4665.07 68.00
2077 109.8000 0.946159 4948.00 4907.80 70.00
2078 109.8500 0.945869 5115.00 5043.49 71.00
2079 109.9000 0.945580 5171.00 5053.06 71.00
2080 109.9500 0.945291 5131.00 4956.54 71.00
2081 110.0000 0.945002 4926.00 4808.10 70.00
2082 110.0500 0.944713 4631.00 4675.53 68.00
2083 110.1000 0.944425 4478.00 4614.03 66.00
2084 110.1500 0.944137 4620.00 4647.57 67.00
2085 110.2000 0.943850 4802.00 4766.36 69.00
2086 110.2500 0.943562 5057.00 4940.15 71.00
2087 110.3000 0.943276 5160.00 5138.01 71.00
2088 110.3500 0.942989 5361.00 5341.89 73.00
2089 110.4000 0.942703 5559.00 5545.55 74.00
2090 110.4500 0.942418 5905.00 5741.36 76.00
2091 110.5000 0.942132 5948.00 5905.52 77.00
2092 110.5500 0.941847 5973.00 5995.55 77.00
2093 110.6000 0.941563 5857.00 5964.00 76.00
2094 110.6500 0.941278 5696.00 5781.97 75.00
2095 110.7000 0.940994 5418.00 5457.42 73.00
2096 110.7500 0.940711 5031.00 5037.42 70.00
2097 110.8000 0.940427 4615.00 4593.53 67.00
2098 110.8500 0.940145 4276.00 4199.16 65.00
2099 110.9000 0.939862 4085.00 3913.04 63.00
2100 110.9500 0.939580 3963.00 3772.02 62.00
2101 111.0000 0.939298 4159.00 3793.43 64.00
2102 111.0500 0.939016 4149.00 3977.79 64.00
2103 111.1000 0.938735 4460.00 4307.00 66.00
2104 111.1500 0.938454 4951.00 4738.13 70.00
2105 111.2000 0.938174 5282.00 5200.04 72.00
2106 111.2500 0.937894 5726.00 5601.04 75.00
2107 111.3000 0.937614 6184.00 5850.75 78.00
2108 111.3500 0.937335 6228.00 5888.88 78.00
2109 111.4000 0.937056 5961.00 5707.21 77.00
2110 111.4500 0.936777 5556.00 5352.98 74.00
2111 111.5000 0.936498 4883.00 4912.04 69.00
2112 111.5500 0.936220 4581.00 4479.49 67.00
2113 111.6000 0.935943 4368.00 4132.04 66.00
2114 111.6500 0.935665 4075.00 3912.49 63.00
2115 111.7000 0.935388 3893.00 3827.00 62.00
2116 111.7500 0.935112 3876.00 3852.06 62.00
2117 111.8000 0.934835 4099.00 3944.86 64.00
2118 111.8500 0.934559 4178.00 4054.84 64.00
2119 111.9000 0.934284 4147.00 4135.12 64.00
2120 111.9500 0.934008 4274.00 4153.24 65.00
2121 112.0000 0.933733 4130.00 4098.14 64.00
2122 112.0500 0.933459 4004.00 3981.12 63.00
2123 112.1000 0.933184 3872.00 3829.75 62.00
2124 112.1500 0.932910 3720.00 3678.35 60.00
2125 112.2000 0.932637 3638.00 3558.87 60.00
2126 112.2500 0.932364 3568.00 3496.13 59.00
2127 112.3000 0.932091 3611.00 3507.03 60.00
2128 112.3500 0.931818 3581.00 3601.25 59.00
2129 112.4000 0.931546 3715.00 3779.98 60.00
2130 112.4500 0.931274 4057.00 4032.07 63.00
2131 112.5000 0.931002 4366.00 4329.27 66.00
2132 112.5500 0.930731 4790.00 4625.91 69.00
2133 112.6000 0.930460 5002.00 4866.39 70.00
2134 112.6500 0.930189 5093.00 4999.45 71.00
2135 112.7000 0.929919 5188.00 4994.95 72.00
2136 112.7500 0.929649 4981.00 4854.09 70.00
2137 112.8000 0.929380 4574.00 4609.04 67.00
2138 112.8500 0.929110 4292.00 4311.05 65.00
2139 112.9000 0.928841 3984.00 4013.87 63.00
2140 112.9500 0.928573 3708.00 3759.20 60.00
2141 113.0000 0.928305 3658.00 3570.38 60.00
2142 113.0500 0.928037 3563.00 3453.44 59.00
2143 113.1000 0.927769 3569.00 3403.12 59.00
2144 113.1500 0.927502 3401.00 3409.01 58.00
2145 113.2000 0.927235 3476.00 3459.08 58.00
2146 113.2500 0.926968 3583.00 3540.81 59.00
2147 113.3000 0.926702 3689.00 3641.61 60.00
2148 113.3500 0.926436 3818.00 3750.67 61.00
2149 113.4000 0.926170 3916.00 3862.20 62.00
2150 113.4500 0.925905 4033.00 3978.60 63.00
2151 113.5000 0.925640 4040.00 4110.00 63.00
2152 113.5500 0.925375 4236.00 4268.63 65.00
2153 113.6000 0.925111 4245.00 4459.58 65.00
2154 113.6500 0.924847 4591.00 4672.68 67.00
2155 113.7000 0.924584 4763.00 4881.73 69.00
2156 113.7500 0.924320 4990.00 5051.92 70.00
2157 113.8000 0.924057 5154.00 5152.88 71.00
2158 113.8500 0.923795 5221.00 5169.57 72.00
2159 113.9000 0.923532 5061.00 5105.08 71.00
2160 113.9500 0.923270 4787.00 4975.17 69.00
2161 114.0000 0.923008 4627.00 4799.33 68.00
2162 114.0500 0.922747 4468.00 4594.62 66.00
2163 114.1000 0.922486 4288.00 4374.83 65.00
2164 114.1500 0.922225 4057.00 4153.90 63.00
2165 114.2000 0.921965 3929.00 3948.84 62.00
2166 114.2500 0.921705 3725.00 3780.73 61.00
2167 114.3000 0.921445 3702.00 3673.29 60.00
2168 114.3500 0.921186 3645.00 3650.72 60.00
2169 114.4000 0.920926 3771.00 3735.31 61.00
2170 114.4500 0.920668 4044.00 3943.01 63.00
2171 114.5000 0.920409 4371.00 4275.53 66.00
2172 114.5500 0.920151 4829.00 4710.46 69.00
2173 114.6000 0.919893 5416.00 5194.80 73.00
2174 114.6500 0.919636 5827.00 5648.16 76.00
2175 114.7000 0.919378 6266.00 5979.97 79.00
2176 114.7500 0.919122 6578.00 6115.99 81.00
2177 114.8000 0.918865 6374.00 6024.44 79.00
2178 114.8500 0.918609 5988.00 5727.41 77.00
2179 114.9000 0.918353 5544.00 5292.95 74.00
2180 114.9500 0.918097 4956.00 4811.82 70.00
2181 115.0000 0.917842 4627.00 4371.50 68.00
2182 115.0500 0.917587 4261.00 4038.07 65.00
2183 115.1000 0.917332 4095.00 3853.49 63.00
2184 115.1500 0.917078 4189.00 3842.76 64.00
2185 115.2000 0.916824 4385.00 4022.51 66.00
2186 115.2500 0.916570 4779.00 4401.48 69.00
2187 115.3000 0.916317 5304.00 4970.57 72.00
2188 115.3500 0.916064 5954.00 5686.41 77.00
2189 115.4000 0.915811 6609.00 6460.35 81.00
2190 115.4500 0.915559 7137.00 7164.78 84.00
2191 115.5000 0.915306 7744.00 7660.54 88.00
2192 115.5500 0.915055 7887.00 7840.55 88.00
2193 115.6000 0.914803 7685.00 7667.60 87.00
2194 115.6500 0.914552 7264.00 7191.33 85.00
2195 115.7000 0.914301 6584.00 6533.08 81.00
2196 115.7500 0.914050 5904.00 5850.35 76.00
2197 115.8000 0.913800 5441.00 5291.75 73.00
2198 115.8500 0.913550 5403.00 4963.94 73.00
2199 115.9000 0.913300 5290.00 4914.58 72.00
2200 115.9500 0.913051 5410.00 5128.75 73.00
2201 116.0000 0.912802 5752.00 5535.98 75.00
2202 116.0500 0.912553 6264.00 6024.60 79.00
2203 116.1000 0.912305 6675.00 6465.14 81.00
2204 116.1500 0.912057 7024.00 6741.41 83.00
2205 116.2000 0.911809 6972.00 6783.36 83.00
2206 116.2500 0.911561 6757.00 6587.01 82.00
2207 116.3000 0.911314 6380.00 6214.01 79.00
2208 116.3500 0.911067 5965.00 5767.67 77.00
2209 116.4000 0.910821 5469.00 5359.71 73.00
2210 116.4500 0.910575 5352.00 5078.48 73.00
2211 116.5000 0.910329 5272.00 4974.42 72.00
2212 116.5500 0.910083 5425.00 5062.27 73.00
2213 116.6000 0.909838 5716.00 5332.53 75.00
2214 116.6500 0.909593 6067.00 5761.47 77.00
2215 116.7000 0.909348 6528.00 6311.46 80.00
2216 116.7500 0.909103 7286.00 6923.83 85.00
2217 116.8000 0.908859 7725.00 7512.64 87.00
2218 116.8500 0.908616 8203.00 7972.65 90.00
2219 116.9000 0.908372 8546.00 8201.92 92.00
2220 116.9500 0.908129 8494.00 8133.79 92.00
2221 117.0000 0.907886 7807.00 7762.00 88.00
2222 117.0500 0.907643 7141.00 7145.92 84.00
2223 117.1000 0.907401 6267.00 6391.12 79.00
2224 117.1500 0.907159 5637.00 5616.18 75.00
2225 117.2000 0.906917 5060.00 4919.66 71.00
2226 117.2500 0.906676 4442.00 4361.16 66.00
2227 117.3000 0.906435 3929.00 3957.76 62.00
2228 117.3500 0.906194 3863.00 3695.46 62.00
2229 117.4000 0.905954 3584.00 3544.26 59.00
2230 117.4500 0.905713 3626.00 3471.24 60.00
2231 117.5000 0.905473 3668.00 3448.18 60.00
2232 117.5500 0.905234 3588.00 3453.71 59.00
2233 117.6000 0.904995 3545.00 3472.81 59.00
2234 117.6500 0.904756 3575.00 3495.31 59.00
2235 117.7000 0.904517 3551.00 3515.06 59.00
2236 117.7500 0.904278 3516.00 3529.75 59.00
2237 117.8000 0.904040 3458.00 3540.93 58.00
2238 117.8500 0.903803 3630.00 3553.56 60.00
2239 117.9000 0.903565 3640.00 3575.07 60.00
2240 117.9500 0.903328 3654.00 3614.06 60.00
2241 118.0000 0.903091 3704.00 3678.78 60.00
2242 118.0500 0.902854 3748.00 3775.46 61.00
2243 118.1000 0.902618 3809.00 3905.99 61.00
2244 118.1500 0.902382 4107.00 4065.13 64.00
2245 118.2000 0.902146 4316.00 4238.97 65.00
2246 118.2500 0.901911 4453.00 4406.12 66.00
2247 118.3000 0.901676 4576.00 4543.43 67.00
2248 118.3500 0.901441 4609.00 4635.53 67.00
2249 118.4000 0.901206 4627.00 4684.17 68.00
2250 118.4500 0.900972 4774.00 4712.73 69.00
2251 118.5000 0.900738 4635.00 4761.11 68.00
2252 118.5500 0.900504 4528.00 4871.34 67.00
2253 118.6000 0.900271 4903.00 5068.93 70.00
2254 118.6500 0.900038 5187.00 5346.88 72.00
2255 118.7000 0.899805 5468.00 5662.06 73.00
2256 118.7500 0.899573 5850.00 5946.15 76.00
2257 118.8000 0.899340 6211.00 6128.19 78.00
2258 118.8500 0.899108 6127.00 6160.73 78.00
2259 118.9000 0.898877 5933.00 6035.63 77.00
2260 118.9500 0.898645 5609.00 5784.60 74.00
2261 119.0000 0.898414 5357.00 5463.51 73.00
2262 119.0500 0.898184 4952.00 5130.27 70.00
2263 119.1000 0.897953 4575.00 4825.79 67.00
2264 119.1500 0.897723 4442.00 4567.16 66.00
2265 119.2000 0.897493 4280.00 4352.38 65.00
2266 119.2500 0.897263 4207.00 4171.69 64.00
2267 119.3000 0.897034 4092.00 4018.80 63.00
2268 119.3500 0.896805 3908.00 3897.51 62.00
2269 119.4000 0.896576 3826.00 3824.07 61.00
2270 119.4500 0.896348 3935.00 3827.13 62.00
2271 119.5000 0.896120 4015.00 3946.60 63.00
2272 119.5500 0.895892 4348.00 4230.37 65.00
2273 119.6000 0.895664 4776.00 4725.77 69.00
2274 119.6500 0.895437 5432.00 5462.63 73.00
2275 119.7000 0.895210 6444.00 6430.52 80.00
2276 119.7500 0.894983 7590.00 7556.84 87.00
2277 119.8000 0.894757 8827.00 8702.83 93.00
2278 119.8500 0.894531 9772.00 9682.83 98.00
2279 119.9000 0.894305 10323.00 10310.30 101.00
2280 119.9500 0.894079 10427.00 10454.40 102.00
2281 120.0000 0.893854 9928.00 10084.30 99.00
2282 120.0500 0.893629 8968.00 9279.78 94.00
2283 120.1000 0.893404 7712.00 8203.19 87.00
2284 120.1500 0.893179 6888.00 7046.65 82.00
2285 120.2000 0.892955 5855.00 5976.86 76.00
2286 120.2500 0.892731 5030.00 5100.87 70.00
2287 120.3000 0.892508 4432.00 4456.38 66.00
2288 120.3500 0.892284 4127.00 4027.47 64.00
2289 120.4000 0.892061 3927.00 3769.10 62.00
2290 120.4500 0.891839 3753.00 3628.73 61.00
2291 120.5000 0.891616 3765.00 3561.67 61.00
2292 120.5500 0.891394 3638.00 3536.26 60.00
2293 120.6000 0.891172 3566.00 3534.05 59.00
2294 120.6500 0.890950 3484.00 3546.93 59.00
2295 120.7000 0.890729 3512.00 3573.68 59.00
2296 120.7500 0.890508 3616.00 3616.86 60.00
2297 120.8000 0.890287 3646.00 3680.05 60.00
2298 120.8500 0.890066 3663.00 3765.92 60.00
2299 120.9000 0.889846 3756.00 3874.97 61.00
2300 120.9500 0.889626 3872.00 4005.56 62.00
2301 121.0000 0.889407 4169.00 4154.32 64.00
2302 121.0500 0.889187 4367.00 4316.31 66.00
2303 121.1000 0.888968 4442.00 4484.67 66.00
2304 121.1500 0.888749 4603.00 4648.40 67.00
2305 121.2000 0.888530 4926.00 4791.47 70.00
2306 121.2500 0.888312 4779.00 4893.57 69.00
2307 121.3000 0.888094 5186.00 4934.30 72.00
2308 121.3500 0.887876 4978.00 4900.01 70.00
2309 121.4000 0.887659 4821.00 4789.68 69.00
2310 121.4500 0.887442 4485.00 4617.14 66.00
2311 121.5000 0.887225 4332.00 4407.87 65.00
2312 121.5500 0.887008 3962.00 4191.97 62.00
2313 121.6000 0.886792 3811.00 3995.74 61.00
2314 121.6500 0.886576 3780.00 3836.30 61.00
2315 121.7000 0.886360 3689.00 3720.13 60.00
2316 121.7500 0.886144 3567.00 3645.10 59.00
2317 121.8000 0.885929 3532.00 3604.29 59.00
2318 121.8500 0.885714 3576.00 3589.42 59.00
2319 121.9000 0.885499 3489.00 3593.06 59.00
2320 121.9500 0.885285 3433.00 3609.27 58.00
2321 122.0000 0.885070 3526.00 3633.34 59.00
2322 122.0500 0.884856 3462.00 3661.54 58.00
2323 122.1000 0.884643 3546.00 3691.19 59.00
2324 122.1500 0.884429 3620.00 3721.25 60.00
2325 122.2000 0.884216 3623.00 3752.83 60.00
2326 122.2500 0.884003 3550.00 3789.05 59.00
2327 122.3000 0.883791 3609.00 3833.75 60.00
2328 122.3500 0.883579 3626.00 3889.23 60.00
2329 122.4000 0.883367 3560.00 3953.81 59.00
2330 122.4500 0.883155 3711.00 4020.62 60.00
2331 122.5000 0.882943 3834.00 4078.42 61.00
2332 122.5500 0.882732 3759.00 4114.77 61.00
2333 122.6000 0.882521 3871.00 4120.12 62.00
2334 122.6500 0.882310 3844.00 4091.27 62.00
2335 122.7000 0.882100 3676.00 4032.57 60.00
2336 122.7500 0.881890 3663.00 3954.49 60.00
2337 122.8000 0.881680 3548.00 3870.11 59.00
2338 122.8500 0.881470 3519.00 3791.47 59.00
2339 122.9000 0.881261 3525.00 3727.20 59.00
2340 122.9500 0.881052 3629.00 3681.90 60.00
2341 123.0000 0.880843 3521.00 3658.04 59.00
2342 123.0500 0.880635 3529.00 3658.79 59.00
2343 123.1000 0.880426 3527.00 3691.64 59.00
2344 123.1500 0.880218 3830.00 3771.63 61.00
2345 123.2000 0.880011 4035.00 3922.95 63.00
2346 123.2500 0.879803 4286.00 4177.30 65.00
2347 123.3000 0.879596 4574.00 4567.32 67.00
2348 123.3500 0.879389 5062.00 5114.54 71.00
2349 123.4000 0.879182 5739.00 5813.36 75.00
2350 123.4500 0.878976 6625.00 6618.50 81.00
2351 123.5000 0.878770 7566.00 7441.13 86.00
2352 123.5500 0.878564 8494.00 8159.89 92.00
2353 123.6000 0.878358 9067.00 8650.81 95.00
2354 123.6500 0.878153 9098.00 8819.92 95.00
2355 123.7000 0.877948 8666.00 8634.42 93.00
2356 123.7500 0.877743 8106.00 8132.56 90.00
2357 123.8000 0.877538 7194.00 7412.17 84.00
2358 123.8500 0.877334 6443.00 6600.20 80.00
2359 123.9000 0.877130 5772.00 5819.23 75.00
2360 123.9500 0.876926 5202.00 5162.34 72.00
2361 124.0000 0.876723 4892.00 4684.16 69.00
2362 124.0500 0.876519 4649.00 4407.30 68.00
2363 124.1000 0.876316 4358.00 4334.99 66.00
2364 124.1500 0.876113 4450.00 4463.46 66.00
2365 124.2000 0.875911 4722.00 4785.52 68.00
2366 124.2500 0.875709 5337.00 5284.88 73.00
2367 124.3000 0.875507 5886.00 5924.15 76.00
2368 124.3500 0.875305 6564.00 6636.25 81.00
2369 124.4000 0.875104 7332.00 7324.41 85.00
2370 124.4500 0.874902 8187.00 7877.08 90.00
2371 124.5000 0.874701 8454.00 8193.73 91.00
2372 124.5500 0.874501 8518.00 8214.54 92.00
2373 124.6000 0.874300 8044.00 7939.24 89.00
2374 124.6500 0.874100 7551.00 7428.80 86.00
2375 124.7000 0.873900 6906.00 6788.16 83.00
2376 124.7500 0.873701 6088.00 6138.55 78.00
2377 124.8000 0.873501 5570.00 5587.60 74.00
2378 124.8500 0.873302 5341.00 5209.62 73.00
2379 124.9000 0.873103 5097.00 5036.91 71.00
2380 124.9500 0.872905 5172.00 5061.03 71.00
2381 125.0000 0.872706 5295.00 5240.20 72.00
2382 125.0500 0.872508 5780.00 5510.15 76.00
2383 125.1000 0.872310 5957.00 5798.01 77.00
2384 125.1500 0.872113 6267.00 6038.01 79.00
2385 125.2000 0.871916 6443.00 6189.06 80.00
2386 125.2500 0.871718 6405.00 6246.54 80.00
2387 125.3000 0.871522 6146.00 6246.71 78.00
2388 125.3500 0.871325 6161.00 6257.88 78.00
2389 125.4000 0.871129 6411.00 6361.33 80.00
2390 125.4500 0.870933 6675.00 6627.36 81.00
2391 125.5000 0.870737 7179.00 7095.11 84.00
2392 125.5500 0.870541 7918.00 7763.31 88.00
2393 125.6000 0.870346 8997.00 8594.74 94.00
2394 125.6500 0.870151 9877.00 9529.32 99.00
2395 125.7000 0.869956 10708.00 10501.00 103.00
2396 125.7500 0.869762 11588.00 11445.60 107.00
2397 125.8000 0.869567 12233.00 12297.90 110.00
2398 125.8500 0.869373 12997.00 12986.60 114.00
2399 125.9000 0.869180 13427.00 13428.00 115.00
2400 125.9500 0.868986 13844.00 13538.10 117.00
2401 126.0000 0.868793 13538.00 13254.90 116.00
2402 126.0500 0.868600 12787.00 12566.20 113.00
2403 126.1000 0.868407 11442.00 11525.60 106.00
2404 126.1500 0.868214 10401.00 10247.60 101.00
2405 126.2000 0.868022 8974.00 8881.41 94.00
2406 126.2500 0.867830 7688.00 7573.84 87.00
2407 126.3000 0.867638 6639.00 6438.30 81.00
2408 126.3500 0.867447 5626.00 5535.30 75.00
2409 126.4000 0.867256 4984.00 4874.61 70.00
2410 126.4500 0.867065 4769.00 4428.69 69.00
2411 126.5000 0.866874 4629.00 4151.08 68.00
2412 126.5500 0.866683 4321.00 3992.73 65.00
2413 126.6000 0.866493 4080.00 3911.60 63.00
2414 126.6500 0.866303 3972.00 3876.83 63.00
2415 126.7000 0.866113 3942.00 3868.22 62.00
2416 126.7500 0.865924 3899.00 3873.92 62.00
2417 126.8000 0.865734 3912.00 3887.82 62.00
2418 126.8500 0.865545 3913.00 3907.56 62.00
2419 126.9000 0.865356 3957.00 3933.16 62.00
2420 126.9500 0.865168 3845.00 3965.88 62.00
2421 127.0000 0.864980 3781.00 4007.06 61.00
2422 127.0500 0.864792 3878.00 4056.84 62.00
2423 127.1000 0.864604 4009.00 4113.00 63.00
2424 127.1500 0.864416 3983.00 4170.37 63.00
2425 127.2000 0.864229 3972.00 4221.38 63.00
2426 127.2500 0.864042 3898.00 4257.68 62.00
2427 127.3000 0.863855 3965.00 4272.49 62.00
2428 127.3500 0.863669 4021.00 4262.70 63.00
2429 127.4000 0.863482 4058.00 4229.90 63.00
2430 127.4500 0.863296 4004.00 4179.93 63.00
2431 127.5000 0.863110 3903.00 4121.24 62.00
2432 127.5500 0.862925 3889.00 4062.51 62.00
2433 127.6000 0.862739 3807.00 4010.87 61.00
2434 127.6500 0.862554 3836.00 3971.15 61.00
2435 127.7000 0.862369 3870.00 3946.28 62.00
2436 127.7500 0.862185 3877.00 3939.26 62.00
2437 127.8000 0.862000 3826.00 3955.67 61.00
2438 127.8500 0.861816 3940.00 4007.11 62.00
2439 127.9000 0.861632 4267.00 4114.23 65.00
2440 127.9500 0.861449 4383.00 4308.85 66.00
2441 128.0000 0.861265 4755.00 4632.85 68.00
2442 128.0500 0.861082 5276.00 5132.28 72.00
2443 128.1000 0.860899 5786.00 5844.00 76.00
2444 128.1500 0.860716 6689.00 6779.86 81.00
2445 128.2000 0.860534 7844.00 7905.49 88.00
2446 128.2500 0.860352 9078.00 9131.84 95.00
2447 128.3000 0.860170 10670.00 10316.70 103.00
2448 128.3500 0.859988 11531.00 11290.20 107.00
2449 128.4000 0.859807 12371.00 11893.50 111.00
2450 128.4500 0.859625 12336.00 12019.80 111.00
2451 128.5000 0.859444 12073.00 11646.70 109.00
2452 128.5500 0.859264 10826.00 10842.70 104.00
2453 128.6000 0.859083 9721.00 9746.96 98.00
2454 128.6500 0.858903 8332.00 8528.58 91.00
2455 128.7000 0.858723 7131.00 7347.90 84.00
2456 128.7500 0.858543 6240.00 6321.03 78.00
2457 128.8000 0.858363 5574.00 5509.43 74.00
2458 128.8500 0.858184 5174.00 4922.63 71.00
2459 128.9000 0.858005 4634.00 4535.26 68.00
2460 128.9500 0.857826 4536.00 4305.26 67.00
2461 129.0000 0.857647 4428.00 4188.62 66.00
2462 129.0500 0.857469 4357.00 4147.83 66.00
2463 129.1000 0.857291 4223.00 4154.15 64.00
2464 129.1500 0.857113 4181.00 4186.64 64.00
2465 129.2000 0.856935 4264.00 4229.69 65.00
2466 129.2500 0.856758 4275.00 4271.19 65.00
2467 129.3000 0.856581 4373.00 4301.91 66.00
2468 129.3500 0.856404 4208.00 4315.80 64.00
2469 129.4000 0.856227 4113.00 4310.73 64.00
2470 129.4500 0.856051 4065.00 4288.68 63.00
2471 129.5000 0.855874 4169.00 4255.38 64.00
2472 129.5500 0.855698 4132.00 4219.05 64.00
2473 129.6000 0.855523 4035.00 4188.95 63.00
2474 129.6500 0.855347 4069.00 4173.93 63.00
2475 129.7000 0.855172 3964.00 4181.36 62.00
2476 129.7500 0.854997 3975.00 4216.26 63.00
2477 129.8000 0.854822 4029.00 4280.55 63.00
2478 129.8500 0.854647 4183.00 4372.40 64.00
2479 129.9000 0.854473 4363.00 4486.35 66.00
2480 129.9500 0.854299 4631.00 4614.46 68.00
2481 130.0000 0.854125 4844.00 4749.44 69.00
2482 130.0500 0.853951 4954.00 4889.99 70.00
2483 130.1000 0.853778 5214.00 5046.43 72.00
2484 130.1500 0.853605 5430.00 5245.70 73.00
2485 130.2000 0.853432 5671.00 5531.47 75.00
2486 130.2500 0.853259 5955.00 5957.70 77.00
2487 130.3000 0.853086 6581.00 6575.82 81.00
2488 130.3500 0.852914 7666.00 7415.08 87.00
2489 130.4000 0.852742 8542.00 8467.36 92.00
2490 130.4500 0.852570 9826.00 9674.68 99.00
2491 130.5000 0.852399 11320.00 10937.50 106.00
2492 130.5500 0.852227 12695.00 12135.90 112.00
2493 130.6000 0.852056 13936.00 13161.80 118.00
2494 130.6500 0.851885 14470.00 13954.70 120.00
2495 130.7000 0.851715 14568.00 14514.30 120.00
2496 130.7500 0.851544 14782.00 14895.60 121.00
2497 130.8000 0.851374 15239.00 15175.80 123.00
2498 130.8500 0.851204 15410.00 15412.70 124.00
2499 130.9000 0.851034 15790.00 15610.50 125.00
2500 130.9500 0.850865 16194.00 15710.10 127.00
2501 131.0000 0.850696 16417.00 15609.90 128.00
2502 131.0500 0.850527 16028.00 15207.20 126.00
2503 131.1000 0.850358 15039.00 14443.00 122.00
2504 131.1500 0.850189 13493.00 13329.00 116.00
2505 131.2000 0.850021 12171.00 11952.80 110.00
2506 131.2500 0.849853 10501.00 10451.50 102.00
2507 131.3000 0.849685 9150.00 8977.60 95.00
2508 131.3500 0.849517 7787.00 7661.23 88.00
2509 131.4000 0.849350 7114.00 6588.74 84.00
2510 131.4500 0.849182 6405.00 5796.84 80.00
2511 131.5000 0.849015 5901.00 5280.56 77.00
2512 131.5500 0.848849 5469.00 5008.47 74.00
2513 131.6000 0.848682 5350.00 4935.87 74.00
2514 131.6500 0.848516 5376.00 5014.53 74.00
2515 131.7000 0.848350 5463.00 5196.33 75.00
2516 131.7500 0.848184 5574.00 5433.62 75.00
2517 131.8000 0.848018 5786.00 5680.12 77.00
2518 131.8500 0.847853 5987.00 5893.49 79.00
2519 131.9000 0.847688 6169.00 6040.40 80.00
2520 131.9500 0.847523 6057.00 6102.03 79.00
2521 132.0000 0.847358 6147.00 6077.51 80.00
2522 132.0500 0.847193 5863.00 5983.26 78.00
2523 132.1000 0.847029 5649.00 5848.08 77.00
2524 132.1500 0.846865 5529.00 5704.99 76.00
2525 132.2000 0.846701 5448.00 5583.77 76.00
2526 132.2500 0.846538 5382.00 5505.44 76.00
2527 132.3000 0.846374 5296.00 5480.19 75.00
2528 132.3500 0.846211 5331.00 5508.23 76.00
2529 132.4000 0.846048 5376.00 5581.91 76.00
2530 132.4500 0.845886 5532.00 5687.49 77.00
2531 132.5000 0.845723 5619.00 5806.29 78.00
2532 132.5500 0.845561 5702.00 5916.04 79.00
2533 132.6000 0.845399 5835.00 5992.98 80.00
2534 132.6500 0.845237 5617.00 6015.86 78.00
2535 132.7000 0.845075 5831.00 5970.46 80.00
2536 132.7500 0.844914 5703.00 5853.72 79.00
2537 132.8000 0.844753 5371.00 5675.25 77.00
2538 132.8500 0.844592 5045.00 5456.03 75.00
2539 132.9000 0.844431 4918.00 5223.61 74.00
2540 132.9500 0.844271 4857.00 5007.81 74.00
2541 133.0000 0.844110 4675.00 4835.64 73.00
2542 133.0500 0.843950 4549.00 4729.50 72.00
2543 133.1000 0.843791 4490.00 4706.37 71.00
2544 133.1500 0.843631 4577.00 4778.23 72.00
2545 133.2000 0.843472 4870.00 4951.56 75.00
2546 133.2500 0.843313 4976.00 5225.29 76.00
2547 133.3000 0.843154 5262.00 5586.98 78.00
2548 133.3500 0.842995 5816.00 6009.91 82.00
2549 133.4000 0.842836 6489.00 6452.59 87.00
2550 133.4500 0.842678 6930.00 6861.27 90.00
2551 133.5000 0.842520 7260.00 7179.60 92.00
2552 133.5500 0.842362 7377.00 7359.23 93.00
2553 133.6000 0.842205 7252.00 7371.80 93.00
2554 133.6500 0.842047 7124.00 7215.44 92.00
2555 133.7000 0.841890 6574.00 6915.52 89.00
2556 133.7500 0.841733 6089.00 6517.75 85.00
2557 133.8000 0.841576 5700.00 6077.71 83.00
2558 133.8500 0.841420 5330.00 5648.26 80.00
2559 133.9000 0.841264 4976.00 5271.14 78.00
2560 133.9500 0.841107 4883.00 4972.83 77.00
2561 134.0000 0.840952 4897.00 4765.52 77.00
2562 134.0500 0.840796 4635.00 4651.48 75.00
2563 134.1000 0.840640 4667.00 4627.65 76.00
2564 134.1500 0.840485 4884.00 4689.45 78.00
2565 134.2000 0.840330 4874.00 4831.67 78.00
2566 134.2500 0.840176 5161.00 5046.62 80.00
2567 134.3000 0.840021 5337.00 5321.16 82.00
2568 134.3500 0.839867 5466.00 5633.71 83.00
2569 134.4000 0.839713 5934.00 5953.57 86.00
2570 134.4500 0.839559 6140.00 6243.64 88.00
2571 134.5000 0.839405 6370.00 6466.14 90.00
2572 134.5500 0.839251 6412.00 6590.92 90.00
2573 134.6000 0.839098 6447.00 6602.22 91.00
2574 134.6500 0.838945 6172.00 6502.92 89.00
2575 134.7000 0.838792 5990.00 6313.57 88.00
2576 134.7500 0.838640 5792.00 6067.28 87.00
2577 134.8000 0.838487 5571.00 5801.22 85.00
2578 134.8500 0.838335 5504.00 5548.84 85.00
2579 134.9000 0.838183 5065.00 5333.22 81.00
2580 134.9500 0.838031 5033.00 5165.43 81.00
2581 135.0000 0.837880 4967.00 5045.53 81.00
2582 135.0500 0.837728 4980.00 4965.76 81.00
2583 135.1000 0.837577 4816.00 4914.92 80.00
2584 135.1500 0.837426 4660.00 4881.41 79.00
2585 135.2000 0.837276 4708.00 4855.50 79.00
2586 135.2500 0.837125 4641.00 4829.93 79.00
2587 135.3000 0.836975 4535.00 4800.00 78.00
2588 135.3500 0.836825 4693.00 4763.36 80.00
2589 135.4000 0.836675 4661.00 4719.67 80.00
2590 135.4500 0.836526 4582.00 4670.64 79.00
2591 135.5000 0.836376 4494.00 4619.74 78.00
2592 135.5500 0.836227 4481.00 4572.22 78.00
2593 135.6000 0.836078 4349.00 4534.88 77.00
2594 135.6500 0.835929 4318.00 4516.25 77.00
2595 135.7000 0.835781 4518.00 4527.03 79.00
2596 135.7500 0.835632 4600.00 4580.47 80.00
2597 135.8000 0.835484 4739.00 4692.37 82.00
2598 135.8500 0.835336 4858.00 4879.98 83.00
2599 135.9000 0.835189 5004.00 5159.52 84.00
2600 135.9500 0.835041 5623.00 5540.79 89.00
2601 136.0000 0.834894 6023.00 6022.14 93.00
2602 136.0500 0.834747 6609.00 6584.18 97.00
2603 136.1000 0.834600 7381.00 7187.78 103.00
2604 136.1500 0.834453 8147.00 7775.64 108.00
2605 136.2000 0.834307 8604.00 8279.99 112.00
2606 136.2500 0.834161 8933.00 8634.96 114.00
2607 136.3000 0.834014 9205.00 8790.24 116.00
2608 136.3500 0.833869 8869.00 8723.27 114.00
2609 136.4000 0.833723 8265.00 8444.26 110.00
2610 136.4500 0.833578 7630.00 7993.66 106.00
2611 136.5000 0.833432 7318.00 7433.17 104.00
2612 136.5500 0.833287 6728.00 6831.37 100.00
2613 136.6000 0.833143 5959.00 6250.82 94.00
2614 136.6500 0.832998 5408.00 5738.37 90.00
2615 136.7000 0.832854 5217.00 5320.99 89.00
2616 136.7500 0.832710 4978.00 5007.50 87.00
2617 136.8000 0.832566 4816.00 4792.75 85.00
2618 136.8500 0.832422 4658.00 4664.44 84.00
2619 136.9000 0.832278 4655.00 4607.93 84.00
2620 136.9500 0.832135 4598.00 4610.13 84.00
2621 137.0000 0.831992 4729.00 4660.59 85.00
2622 137.0500 0.831849 4583.00 4751.25 84.00
2623 137.1000 0.831706 4837.00 4875.25 87.00
2624 137.1500 0.831564 5117.00 5026.51 89.00
2625 137.2000 0.831422 5164.00 5199.78 90.00
2626 137.2500 0.831280 5528.00 5392.19 93.00
2627 137.3000 0.831138 5727.00 5606.05 95.00
2628 137.3500 0.830996 5978.00 5850.45 97.00
2629 137.4000 0.830855 6293.00 6142.32 100.00
2630 137.4500 0.830713 6417.00 6503.06 101.00
2631 137.5000 0.830572 6846.00 6952.09 105.00
2632 137.5500 0.830432 7802.00 7498.63 112.00
2633 137.6000 0.830291 8343.00 8131.44 116.00
2634 137.6500 0.830151 9364.00 8815.04 123.00
2635 137.7000 0.830010 10069.00 9487.83 128.00
2636 137.7500 0.829870 10796.00 10072.40 133.00
2637 137.8000 0.829731 11342.00 10489.30 137.00
2638 137.8500 0.829591 11473.00 10674.30 138.00
2639 137.9000 0.829452 11096.00 10594.40 136.00
2640 137.9500 0.829312 10250.00 10254.40 131.00
2641 138.0000 0.829173 9610.00 9696.24 127.00
2642 138.0500 0.829035 8769.00 8988.91 121.00
2643 138.1000 0.828896 7811.00 8212.45 115.00
2644 138.1500 0.828758 6996.00 7441.63 109.00
2645 138.2000 0.828619 6427.00 6736.04 104.00
2646 138.2500 0.828481 6009.00 6131.94 101.00
2647 138.3000 0.828344 5596.00 5644.24 98.00
2648 138.3500 0.828206 5314.00 5270.10 96.00
2649 138.4000 0.828069 5061.00 4995.75 93.00
2650 138.4500 0.827932 4703.00 4803.52 90.00
2651 138.5000 0.827795 4785.00 4675.64 91.00
2652 138.5500 0.827658 4736.00 4597.67 91.00
2653 138.6000 0.827521 4841.00 4559.24 92.00
2654 138.6500 0.827385 4751.00 4554.15 91.00
2655 138.7000 0.827249 4728.00 4579.51 91.00
2656 138.7500 0.827113 4631.00 4634.47 91.00
2657 138.8000 0.826977 4764.00 4718.64 92.00
2658 138.8500 0.826842 4854.00 4830.51 93.00
2659 138.9000 0.826706 5207.00 4965.97 97.00
2660 138.9500 0.826571 5291.00 5117.28 98.00
2661 139.0000 0.826436 5333.00 5272.77 98.00
2662 139.0500 0.826302 5649.00 5417.99 101.00
2663 139.1000 0.826167 5825.00 5537.40 103.00
2664 139.1500 0.826033 5792.00 5617.09 103.00
2665 139.2000 0.825899 5808.00 5647.30 103.00
2666 139.2500 0.825765 5752.00 5624.40 103.00
2667 139.3000 0.825631 5623.00 5551.60 102.00
2668 139.3500 0.825498 5341.00 5438.34 100.00
2669 139.4000 0.825364 5362.00 5298.16 100.00
2670 139.4500 0.825231 5175.00 5146.32 99.00
2671 139.5000 0.825098 5110.00 4997.43 98.00
2672 139.5500 0.824965 4668.00 4863.29 94.00
2673 139.6000 0.824833 4628.00 4752.41 94.00
2674 139.6500 0.824701 4560.00 4669.76 93.00
2675 139.7000 0.824569 4416.00 4617.87 92.00
2676 139.7500 0.824437 4427.00 4597.83 92.00
2677 139.8000 0.824305 4599.00 4610.11 94.00
2678 139.8500 0.824173 4554.00 4654.96 94.00
2679 139.9000 0.824042 4573.00 4732.19 94.00
2680 139.9500 0.823911 4615.00 4840.15 95.00
2681 140.0000 0.823780 4668.00 4974.67 96.00
2682 140.0500 0.823649 4986.00 5128.09 99.00
2683 140.1000 0.823519 4984.00 5288.66 99.00
2684 140.1500 0.823388 5296.00 5441.73 103.00
2685 140.2000 0.823258 5573.00 5570.92 105.00
2686 140.2500 0.823128 5690.00 5661.21 107.00
2687 140.3000 0.822999 5733.00 5701.54 107.00
2688 140.3500 0.822869 5553.00 5687.30 106.00
2689 140.4000 0.822740 5439.00 5621.41 105.00
2690 140.4500 0.822611 5271.00 5514.21 104.00
2691 140.5000 0.822482 5323.00 5381.70 104.00
2692 140.5500 0.822353 5034.00 5243.30 102.00
2693 140.6000 0.822224 4980.00 5118.98 101.00
2694 140.6500 0.822096 4875.00 5026.92 100.00
2695 140.7000 0.821968 4868.00 4982.12 101.00
2696 140.7500 0.821840 4842.00 4994.94 100.00
2697 140.8000 0.821712 5052.00 5070.55 103.00
2698 140.8500 0.821585 5208.00 5208.22 105.00
2699 140.9000 0.821457 5482.00 5401.18 108.00
2700 140.9500 0.821330 5728.00 5636.21 110.00
2701 141.0000 0.821203 6130.00 5895.29 114.00
2702 141.0500 0.821076 6636.00 6157.61 119.00
2703 141.1000 0.820950 7020.00 6404.34 123.00
2704 141.1500 0.820823 7249.00 6623.73 125.00
2705 141.2000 0.820697 7389.00 6816.73 127.00
2706 141.2500 0.820571 7760.00 7001.28 130.00
2707 141.3000 0.820445 7962.00 7213.22 132.00
2708 141.3500 0.820320 8300.00 7503.61 135.00
2709 141.4000 0.820194 8557.00 7930.76 137.00
2710 141.4500 0.820069 9164.00 8548.96 142.00
2711 141.5000 0.819944 10017.00 9394.18 149.00
2712 141.5500 0.819819 11212.00 10472.70 158.00
2713 141.6000 0.819694 13020.00 11752.30 171.00
2714 141.6500 0.819570 14738.00 13162.00 182.00
2715 141.7000 0.819446 16378.00 14600.00 193.00
2716 141.7500 0.819322 17744.00 15948.60 201.00
2717 141.8000 0.819198 18492.00 17096.50 205.00
2718 141.8500 0.819074 19283.00 17956.70 210.00
2719 141.9000 0.818951 19490.00 18482.80 212.00
2720 141.9500 0.818827 18817.00 18670.90 209.00
2721 142.0000 0.818704 18465.00 18554.10 207.00
2722 142.0500 0.818581 18005.00 18188.30 205.00
2723 142.1000 0.818459 17456.00 17634.60 202.00
2724 142.1500 0.818336 16916.00 16943.60 199.00
2725 142.2000 0.818214 16543.00 16148.60 198.00
2726 142.2500 0.818092 15693.00 15266.60 193.00
2727 142.3000 0.817970 14833.00 14303.80 188.00
2728 142.3500 0.817848 13681.00 13268.00 181.00
2729 142.4000 0.817726 12340.00 12173.20 172.00
2730 142.4500 0.817605 11593.00 11047.90 167.00
2731 142.5000 0.817484 10117.00 9930.33 156.00
2732 142.5500 0.817363 9148.00 8863.43 149.00
2733 142.6000 0.817242 8260.00 7888.70 142.00
2734 142.6500 0.817121 7536.00 7036.34 136.00
2735 142.7000 0.817001 6889.00 6324.77 130.00
2736 142.7500 0.816881 6226.00 5756.87 124.00
2737 142.8000 0.816761 5754.00 5323.93 119.00
2738 142.8500 0.816641 5501.00 5008.26 117.00
2739 142.9000 0.816521 5209.00 4787.84 114.00
2740 142.9500 0.816402 4894.00 4640.58 111.00
2741 143.0000 0.816283 4867.00 4546.25 111.00
2742 143.0500 0.816163 4766.00 4488.36 110.00
2743 143.1000 0.816045 4614.00 4454.33 108.00
2744 143.1500 0.815926 4490.00 4435.30 107.00
2745 143.2000 0.815807 4464.00 4425.51 107.00
2746 143.2500 0.815689 4320.00 4421.48 105.00
2747 143.3000 0.815571 4117.00 4421.43 103.00
2748 143.3500 0.815453 4317.00 4424.73 106.00
2749 143.4000 0.815335 4328.00 4431.46 106.00
2750 143.4500 0.815218 4327.00 4442.21 106.00
2751 143.5000 0.815100 4288.00 4457.76 106.00
2752 143.5500 0.814983 4408.00 4478.81 108.00
2753 143.6000 0.814866 4436.00 4505.83 108.00
2754 143.6500 0.814749 4310.00 4538.77 107.00
2755 143.7000 0.814633 4353.00 4576.93 108.00
2756 143.7500 0.814516 4180.00 4618.86 106.00
2757 143.8000 0.814400 4331.00 4662.50 108.00
2758 143.8500 0.814284 4365.00 4705.42 109.00
2759 143.9000 0.814168 4369.00 4745.13 109.00
2760 143.9500 0.814052 4564.00 4779.50 112.00
2761 144.0000 0.813937 4508.00 4807.05 111.00
2762 144.0500 0.813822 4666.00 4827.09 113.00
2763 144.1000 0.813707 4599.00 4839.66 113.00
2764 144.1500 0.813592 4600.00 4845.33 113.00
2765 144.2000 0.813477 4619.00 4844.76 113.00
2766 144.2500 0.813362 4600.00 4838.48 113.00
2767 144.3000 0.813248 4662.00 4826.70 114.00
2768 144.3500 0.813134 4648.00 4809.31 114.00
2769 144.4000 0.813020 4634.00 4786.09 115.00
2770 144.4500 0.812906 4601.00 4757.00 114.00
2771 144.5000 0.812792 4538.00 4722.48 114.00
2772 144.5500 0.812679 4406.00 4683.55 112.00
2773 144.6000 0.812566 4231.00 4641.83 110.00
2774 144.6500 0.812453 4330.00 4599.28 112.00
2775 144.7000 0.812340 4164.00 4557.98 110.00
2776 144.7500 0.812227 4127.00 4519.80 110.00
2777 144.8000 0.812115 4068.00 4486.11 109.00
2778 144.8500 0.812002 4051.00 4457.71 109.00
2779 144.9000 0.811890 4103.00 4434.77 110.00
2780 144.9500 0.811778 4060.00 4416.99 110.00
2781 145.0000 0.811666 4140.00 4403.72 111.00
2782 145.0500 0.811555 4078.00 4394.12 111.00
2783 145.1000 0.811443 4040.00 4387.35 110.00
2784 145.1500 0.811332 4033.00 4382.65 110.00
2785 145.2000 0.811221 4049.00 4379.36 111.00
2786 145.2500 0.811110 4067.00 4377.02 111.00
2787 145.3000 0.811000 4101.00 4375.25 112.00
2788 145.3500 0.810889 4047.00 4373.84 112.00
2789 145.4000 0.810779 3889.00 4372.64 110.00
2790 145.4500 0.810669 3961.00 4371.55 111.00
2791 145.5000 0.810559 3971.00 4370.53 111.00
2792 145.5500 0.810449 4126.00 4369.58 114.00
2793 145.6000 0.810340 4277.00 4368.70 116.00
2794 145.6500 0.810230 4094.00 4367.99 114.00
2795 145.7000 0.810121 3967.00 4367.58 112.00
2796 145.7500 0.810012 4202.00 4367.78 116.00
2797 145.8000 0.809903 4466.00 4369.14 120.00
2798 145.8500 0.809795 4361.00 4372.64 118.00
2799 145.9000 0.809686 4549.00 4379.94 121.00
2800 145.9500 0.809578 4673.00 4393.74 123.00
2801 146.0000 0.809470 4761.00 4418.20 125.00
2802 146.0500 0.809362 4641.00 4459.41 123.00
2803 146.1000 0.809254 4755.00 4525.86 125.00
2804 146.1500 0.809147 5050.00 4628.65 129.00
2805 146.2000 0.809040 5206.00 4781.42 131.00
2806 146.2500 0.808932 5544.00 4999.37 136.00
2807 146.3000 0.808825 5768.00 5297.96 139.00
2808 146.3500 0.808719 5957.00 5690.30 142.00
2809 146.4000 0.808612 6604.00 6184.04 149.00
2810 146.4500 0.808506 7376.00 6778.15 158.00
2811 146.5000 0.808399 8107.00 7459.13 166.00
2812 146.5500 0.808293 8868.00 8200.43 174.00
2813 146.6000 0.808187 9788.00 8961.00 184.00
2814 146.6500 0.808082 10459.00 9690.27 190.00
2815 146.7000 0.807976 11070.00 10331.50 196.00
2816 146.7500 0.807871 11600.00 10829.60 201.00
2817 146.8000 0.807766 11608.00 11139.40 202.00
2818 146.8500 0.807661 11672.00 11232.50 203.00
2819 146.9000 0.807556 11346.00 11102.00 201.00
2820 146.9500 0.807451 10791.00 10763.60 196.00
2821 147.0000 0.807347 10091.00 10253.60 190.00
2822 147.0500 0.807243 9503.00 9622.91 185.00
2823 147.1000 0.807138 8911.00 8930.44 179.00
2824 147.1500 0.807035 8089.00 8233.49 171.00
2825 147.2000 0.806931 7652.00 7583.49 167.00
2826 147.2500 0.806827 7478.00 7019.31 165.00
2827 147.3000 0.806724 6903.00 6566.12 159.00
2828 147.3500 0.806621 6618.00 6235.85 156.00
2829 147.4000 0.806518 6600.00 6028.02 156.00
2830 147.4500 0.806415 6508.00 5933.51 156.00
2831 147.5000 0.806312 6410.00 5936.48 155.00
2832 147.5500 0.806210 6553.00 6016.86 157.00
2833 147.6000 0.806108 6609.00 6152.09 158.00
2834 147.6500 0.806005 6916.00 6318.70 162.00
2835 147.7000 0.805904 7082.00 6493.24 164.00
2836 147.7500 0.805802 7092.00 6654.25 165.00
2837 147.8000 0.805700 7333.00 6783.68 168.00
2838 147.8500 0.805599 7370.00 6869.08 169.00
2839 147.9000 0.805498 7313.00 6905.20 169.00
2840 147.9500 0.805397 7384.00 6894.91 170.00
2841 148.0000 0.805296 7040.00 6849.42 166.00
2842 148.0500 0.805195 6869.00 6787.06 164.00
2843 148.1000 0.805095 6909.00 6730.87 165.00
2844 148.1500 0.804994 6975.00 6705.36 167.00
2845 148.2000 0.804894 7013.00 6732.97 167.00
2846 148.2500 0.804794 7257.00 6830.58 171.00
2847 148.3000 0.804694 7477.00 7006.86 174.00
2848 148.3500 0.804595 7807.00 7261.09 178.00
2849 148.4000 0.804495 8100.00 7583.33 182.00
2850 148.4500 0.804396 8822.00 7956.16 190.00
2851 148.5000 0.804297 9288.00 8357.71 195.00
2852 148.5500 0.804198 9880.00 8764.79 202.00
2853 148.6000 0.804100 10394.00 9156.84 208.00
2854 148.6500 0.804001 10123.00 9518.14 205.00
2855 148.7000 0.803903 10135.00 9838.96 206.00
2856 148.7500 0.803805 10421.00 10114.80 209.00
2857 148.8000 0.803706 10507.00 10345.00 211.00
2858 148.8500 0.803609 10645.00 10529.60 213.00
2859 148.9000 0.803511 10748.00 10666.60 214.00
2860 148.9500 0.803414 11182.00 10750.60 219.00
2861 149.0000 0.803316 11301.00 10772.00 221.00
2862 149.0500 0.803219 11003.00 10718.40 218.00
2863 149.1000 0.803122 10837.00 10577.90 217.00
2864 149.1500 0.803025 10486.00 10341.50 214.00
2865 149.2000 0.802929 9993.00 10006.80 210.00
2866 149.2500 0.802832 9560.00 9580.17 205.00
2867 149.3000 0.802736 8765.00 9076.36 197.00
2868 149.3500 0.802640 8150.00 8518.25 191.00
2869 149.4000 0.802544 7801.00 7932.61 187.00
2870 149.4500 0.802449 7143.00 7347.88 179.00
2871 149.5000 0.802353 6673.00 6790.66 174.00
2872 149.5500 0.802258 6297.00 6281.88 169.00
2873 149.6000 0.802162 5719.00 5836.51 162.00
2874 149.6500 0.802067 5555.00 5461.38 160.00
2875 149.7000 0.801973 5188.00 5157.62 155.00
2876 149.7500 0.801878 5006.00 4920.63 152.00
2877 149.8000 0.801784 4852.00 4742.41 150.00
2878 149.8500 0.801689 4560.00 4613.30 146.00
2879 149.9000 0.801595 4603.00 4523.06 147.00
2880 149.9500 0.801501 4651.00 4462.39 148.00
2881 150.0000 0.801407 4509.00 4423.17 146.00
2882 150.0500 0.801314 4608.00 4398.96 148.00
2883 150.1000 0.801220 4445.00 4384.83 146.00
2884 150.1500 0.801127 4379.00 4377.22 145.00
2885 150.2000 0.801034 4290.00 4373.70 144.00
2886 150.2500 0.800941 4363.00 4372.66 146.00
2887 150.3000 0.800848 4341.00 4373.09 146.00
2888 150.3500 0.800756 4241.00 4374.37 144.00
2889 150.4000 0.800663 4145.00 4376.16 143.00
2890 150.4500 0.800571 4069.00 4378.25 142.00
2891 150.5000 0.800479 4138.00 4380.54 144.00
2892 150.5500 0.800387 4188.00 4382.99 145.00
2893 150.6000 0.800295 4175.00 4385.59 145.00
2894 150.6500 0.800204 4211.00 4388.36 146.00
2895 150.7000 0.800113 4324.00 4391.34 148.00
2896 150.7500 0.800021 4018.00 4394.61 143.00
2897 150.8000 0.799930 4147.00 4398.27 146.00
2898 150.8500 0.799840 4283.00 4402.46 149.00
2899 150.9000 0.799749 4193.00 4407.37 147.00
2900 150.9500 0.799658 4235.00 4413.23 149.00
2901 151.0000 0.799568 4069.00 4420.31 146.00
2902 151.0500 0.799478 4008.00 4428.91 145.00
2903 151.1000 0.799388 4270.00 4439.35 150.00
2904 151.1500 0.799298 4364.00 4451.89 152.00
2905 151.2000 0.799209 4119.00 4466.74 148.00
2906 151.2500 0.799119 4154.00 4483.97 149.00
2907 151.3000 0.799030 4370.00 4503.47 154.00
2908 151.3500 0.798941 4417.00 4524.89 155.00
2909 151.4000 0.798852 4393.00 4547.69 155.00
2910 151.4500 0.798763 4428.00 4571.05 156.00
2911 151.5000 0.798675 4287.00 4593.96 154.00
2912 151.5500 0.798586 4440.00 4615.33 157.00
2913 151.6000 0.798498 4331.00 4634.03 155.00
2914 151.6500 0.798410 4393.00 4649.07 157.00
2915 151.7000 0.798322 4416.00 4659.68 158.00
2916 151.7500 0.798234 4352.00 4665.45 157.00
2917 151.8000 0.798147 4350.00 4666.33 157.00
2918 151.8500 0.798059 4340.00 4662.75 158.00
loop_
_pd_proc_info_excluded_regions
'from 0 to 6.000'
loop_
_restr_angle_atom_site_label_1
_restr_angle_site_symmetry_1
_restr_angle_atom_site_label_2
_restr_angle_site_symmetry_2
_restr_angle_atom_site_label_3
_restr_angle_site_symmetry_3
_restr_angle_target
_restr_angle_target_weight_param
? ? ? ? ? ? ? ?
loop_
_restr_distance_atom_site_label_1
_restr_distance_site_symmetry_1
_restr_distance_atom_site_label_2
_restr_distance_site_symmetry_2
_restr_distance_target
_restr_distance_target_weight_param
? ? ? ? ? ?
loop_
_restr_equal_angle_atom_site_label_1
_restr_equal_angle_site_symmetry_1
_restr_equal_angle_atom_site_label_2
_restr_equal_angle_site_symmetry_2
_restr_equal_angle_atom_site_label_3
_restr_equal_angle_site_symmetry_3
_restr_equal_angle_class_class_id
_restr_equal_angle_class_target_weight_param
? ? ? ? ? ? ? ?
loop_
_restr_equal_distance_atom_site_label_1
_restr_equal_distance_site_symmetry_1
_restr_equal_distance_atom_site_label_2
_restr_equal_distance_site_symmetry_2
_restr_equal_distance_class_class_id
_restr_equal_distance_class_target_weight_param
? ? ? ? ? ?
loop_
_restr_equal_torsion_atom_site_label_1
_restr_equal_torsion_site_symmetry_1
_restr_equal_torsion_atom_site_label_2
_restr_equal_torsion_site_symmetry_2
_restr_equal_torsion_atom_site_label_3
_restr_equal_torsion_site_symmetry_3
_restr_equal_torsion_atom_site_label_4
_restr_equal_torsion_site_symmetry_4
_restr_equal_torsion_class_class_id
_restr_equal_torsion_class_target_weight_param
? ? ? ? ? ? ? ? ? ?
loop_
_restr_torsion_atom_site_label_1
_restr_torsion_site_symmetry_1
_restr_torsion_atom_site_label_2
_restr_torsion_site_symmetry_2
_restr_torsion_atom_site_label_3
_restr_torsion_site_symmetry_3
_restr_torsion_atom_site_label_4
_restr_torsion_site_symmetry_4
_restr_torsion_angle_target
_restr_torsion_weight_param
? ? ? ? ? ? ? ? ? ?
loop_
_jana_atom_site_adp_c_label
_jana_atom_site_adp_c_type_symbol
_jana_atom_site_adp_c_111
_jana_atom_site_adp_c_112
_jana_atom_site_adp_c_113
_jana_atom_site_adp_c_122
_jana_atom_site_adp_c_123
_jana_atom_site_adp_c_133
_jana_atom_site_adp_c_222
_jana_atom_site_adp_c_223
_jana_atom_site_adp_c_233
_jana_atom_site_adp_c_333
? ? ? ? ? ? ? ? ? ? ? ?
loop_
_jana_atom_site_adp_d_label
_jana_atom_site_adp_d_type_symbol
_jana_atom_site_adp_d_1111
_jana_atom_site_adp_d_1112
_jana_atom_site_adp_d_1113
_jana_atom_site_adp_d_1122
_jana_atom_site_adp_d_1123
_jana_atom_site_adp_d_1133
_jana_atom_site_adp_d_1222
_jana_atom_site_adp_d_1223
_jana_atom_site_adp_d_1233
_jana_atom_site_adp_d_1333
_jana_atom_site_adp_d_2222
_jana_atom_site_adp_d_2223
_jana_atom_site_adp_d_2233
_jana_atom_site_adp_d_2333
_jana_atom_site_adp_d_3333
? ? ? ? ? ? ? ? ? ? ? ? ? ? ? ? ?
loop_
_jana_atom_site_adp_e_label
_jana_atom_site_adp_e_type_symbol
_jana_atom_site_adp_e_11111
_jana_atom_site_adp_e_11112
_jana_atom_site_adp_e_11113
_jana_atom_site_adp_e_11122
_jana_atom_site_adp_e_11123
_jana_atom_site_adp_e_11133
_jana_atom_site_adp_e_11222
_jana_atom_site_adp_e_11223
_jana_atom_site_adp_e_11233
_jana_atom_site_adp_e_11333
_jana_atom_site_adp_e_12222
_jana_atom_site_adp_e_12223
_jana_atom_site_adp_e_12233
_jana_atom_site_adp_e_12333
_jana_atom_site_adp_e_13333
_jana_atom_site_adp_e_22222
_jana_atom_site_adp_e_22223
_jana_atom_site_adp_e_22233
_jana_atom_site_adp_e_22333
_jana_atom_site_adp_e_23333
_jana_atom_site_adp_e_33333
? ? ? ? ? ? ? ? ? ? ? ? ? ? ? ? ? ? ? ? ? ? ?
loop_
_jana_atom_site_adp_f_label
_jana_atom_site_adp_f_type_symbol
_jana_atom_site_adp_f_111111
_jana_atom_site_adp_f_111112
_jana_atom_site_adp_f_111113
_jana_atom_site_adp_f_111122
_jana_atom_site_adp_f_111123
_jana_atom_site_adp_f_111133
_jana_atom_site_adp_f_111222
_jana_atom_site_adp_f_111223
_jana_atom_site_adp_f_111233
_jana_atom_site_adp_f_111333
_jana_atom_site_adp_f_112222
_jana_atom_site_adp_f_112223
_jana_atom_site_adp_f_112233
_jana_atom_site_adp_f_112333
_jana_atom_site_adp_f_113333
_jana_atom_site_adp_f_122222
_jana_atom_site_adp_f_122223
_jana_atom_site_adp_f_122233
_jana_atom_site_adp_f_122333
_jana_atom_site_adp_f_123333
_jana_atom_site_adp_f_133333
_jana_atom_site_adp_f_222222
_jana_atom_site_adp_f_222223
_jana_atom_site_adp_f_222233
_jana_atom_site_adp_f_222333
_jana_atom_site_adp_f_223333
_jana_atom_site_adp_f_233333
_jana_atom_site_adp_f_333333
? ? ? ? ? ? ? ? ? ? ? ? ? ? ? ? ? ? ? ? ? ? ? ? ? ? ? ? ? ?
