#------------------------------------------------------------------------------
#$Date: 2021-02-05 01:15:53 +0200 (Fri, 05 Feb 2021) $
#$Revision: 261679 $
#$URL: file:///home/coder/svn-repositories/cod/cif/7/70/60/7706007.cif $
#------------------------------------------------------------------------------
#
# This file is available in the Crystallography Open Database (COD),
# http://www.crystallography.net/
#
# All data on this site have been placed in the public domain by the
# contributors.
#
data_7706007
loop_
_publ_author_name
'Bilyj, Jessica K.'
'Silajew, Nicole V.'
'Bernhardt, Paul V.'
_publ_section_title
;
 Nickel coordination chemistry of bis(dithiocarbazate) Schiff base
 ligands; metal and ligand centred redox reactions.
;
_journal_issue                   2
_journal_name_full
'Dalton transactions (Cambridge, England : 2003)'
_journal_page_first              612
_journal_page_last               623
_journal_paper_doi               10.1039/d0dt03204b
_journal_volume                  50
_journal_year                    2021
_chemical_formula_sum            'C9 H14 N4 Ni S4'
_chemical_formula_weight         365.19
_space_group_IT_number           2
_space_group_name_Hall           '-P 1'
_space_group_name_H-M_alt        'P -1'
_symmetry_cell_setting           triclinic
_symmetry_Int_Tables_number      2
_symmetry_space_group_name_Hall  '-P 1'
_symmetry_space_group_name_H-M   'P -1'
_atom_sites_solution_hydrogens   geom
_audit_conform_dict_location     ftp://ftp.iucr.org/pub/cif_core.dic
_audit_conform_dict_name         cif_core.dic
_audit_conform_dict_version      2.4.5
_audit_creation_date             2020-09-14T12:29:04-00:00
_audit_creation_method           'WinGX routine CIF_UPDATE'
_audit_update_record
;
2020-10-24 deposited with the CCDC.	2020-12-01 downloaded from the CCDC.
;
_cell_angle_alpha                104.320(8)
_cell_angle_beta                 104.614(8)
_cell_angle_gamma                96.573(8)
_cell_formula_units_Z            2
_cell_length_a                   7.6588(7)
_cell_length_b                   8.7590(10)
_cell_length_c                   11.3774(9)
_cell_measurement_reflns_used    2289
_cell_measurement_temperature    190(2)
_cell_measurement_theta_max      62.6
_cell_measurement_theta_min      5.3
_cell_measurement_wavelength     0.71073
_cell_volume                     702.75(13)
_computing_cell_refinement       'CrysalisPro (Agilent Technologies,     )'
_computing_data_collection       'CrysalisPro (Agilent Technologies,     )'
_computing_data_reduction        'CrysalisPro (Agilent Technologies,     )'
_computing_molecular_graphics    'Ortep for Windows (Farrugia, 2012)'
_computing_publication_material  'WinGX publication routines (Farrugia, 2012)'
_computing_structure_refinement  'SHELXL-2018/1 (Sheldrick, 2018)'
_computing_structure_solution    'SHELXT-2014/5 (Sheldrick, 2015)'
_diffrn_ambient_temperature      190(2)
_diffrn_detector                 'CCD plate'
_diffrn_detector_area_resol_mean 8.02
_diffrn_measured_fraction_theta_full 0.989
_diffrn_measured_fraction_theta_max 0.989
_diffrn_measurement_device       '\k-geometry diffractometer'
_diffrn_measurement_device_type
'Agilent Technologies Xcalibur, EosS2, Gemini ultra'
_diffrn_measurement_method       '\w scans'
_diffrn_orient_matrix_UB_11      -0.078025
_diffrn_orient_matrix_UB_12      -0.179984
_diffrn_orient_matrix_UB_13      -0.030115
_diffrn_orient_matrix_UB_21      0.191823
_diffrn_orient_matrix_UB_22      -0.027438
_diffrn_orient_matrix_UB_23      0.063928
_diffrn_orient_matrix_UB_31      -0.043826
_diffrn_orient_matrix_UB_32      0.032025
_diffrn_orient_matrix_UB_33      0.12785
_diffrn_radiation_monochromator  mirror
_diffrn_radiation_probe          x-ray
_diffrn_radiation_type           CuK\a
_diffrn_radiation_wavelength     1.54184
_diffrn_reflns_av_R_equivalents  0.0351
_diffrn_reflns_av_unetI/netI     0.0486
_diffrn_reflns_Laue_measured_fraction_full 0.989
_diffrn_reflns_Laue_measured_fraction_max 0.989
_diffrn_reflns_limit_h_max       8
_diffrn_reflns_limit_h_min       -8
_diffrn_reflns_limit_k_max       10
_diffrn_reflns_limit_k_min       -9
_diffrn_reflns_limit_l_max       13
_diffrn_reflns_limit_l_min       -10
_diffrn_reflns_number            4193
_diffrn_reflns_point_group_measured_fraction_full 0.989
_diffrn_reflns_point_group_measured_fraction_max 0.989
_diffrn_reflns_reduction_process
;
 Scaled and merged with Sortav
 R.H. Blessing, (1987) Cryst. Rev. 1, 3-58
 R.H. Blessing, (1989) J. Appl. Cryst. 22, 396-397
;
_diffrn_reflns_theta_full        62.392
_diffrn_reflns_theta_max         62.392
_diffrn_reflns_theta_min         4.192
_diffrn_source                   'fine-focus sealed X-ray tube'
_diffrn_standards_number         0
_exptl_absorpt_coefficient_mu    7.442
_exptl_absorpt_correction_T_max  1
_exptl_absorpt_correction_T_min  0.768
_exptl_absorpt_correction_type   multi-scan
_exptl_absorpt_process_details
;
        CrysAlisPro 1.171.38.46 (Rigaku Oxford Diffraction, 2015)
        Empirical absorption correction using spherical harmonics,
        implemented in SCALE3 ABSPACK scaling algorithm.
;
_exptl_crystal_colour            'clear orange'
_exptl_crystal_density_diffrn    1.726
_exptl_crystal_density_method    'not measured'
_exptl_crystal_description       prism
_exptl_crystal_F_000             376
_exptl_crystal_size_max          0.15
_exptl_crystal_size_mid          0.05
_exptl_crystal_size_min          0.05
_refine_diff_density_max         0.874
_refine_diff_density_min         -0.498
_refine_diff_density_rms         0.115
_refine_ls_extinction_method     none
_refine_ls_goodness_of_fit_ref   1.071
_refine_ls_hydrogen_treatment    constr
_refine_ls_matrix_type           full
_refine_ls_number_constraints    0
_refine_ls_number_parameters     167
_refine_ls_number_reflns         2211
_refine_ls_number_restraints     0
_refine_ls_restrained_S_all      1.071
_refine_ls_R_factor_all          0.0499
_refine_ls_R_factor_gt           0.0458
_refine_ls_shift/su_max          0
_refine_ls_shift/su_mean         0
_refine_ls_structure_factor_coef Fsqd
_refine_ls_weighting_details
'w=1/[\s^2^(Fo^2^)+(0.0752P)^2^] where P=(Fo^2^+2Fc^2^)/3'
_refine_ls_weighting_scheme      calc
_refine_ls_wR_factor_gt          0.115
_refine_ls_wR_factor_ref         0.1196
_reflns_Friedel_coverage         0
_reflns_number_gt                2000
_reflns_number_total             2211
_reflns_threshold_expression     'I > 2\s(I)'
_iucr_refine_instructions_details
;
TITL 1817jb21 in P-1
    shelx.res
    created by SHELXL-2018/1 at 12:18:50 on 14-Sep-2020
CELL  1.54184   7.6588   8.7590  11.3774  104.320  104.614   96.573
ZERR     2.00   0.0007   0.0010   0.0009    0.008    0.008    0.008
LATT   1
SFAC  C    H    N    S    NI
UNIT  18 28 8 8 2
MERG   2
OMIT    -2.00 125.00
FMAP   2
PLAN   20
ACTA
BOND
L.S.   4
TEMP   -83.00
WGHT    0.075200
FVAR       3.79348
C1    1    0.408543    0.902617    0.668936    11.00000    0.02493    0.03920 =
         0.02771    0.00907    0.00830    0.00640
C2    1    0.325885    1.222152    0.563451    11.00000    0.02605    0.03362 =
         0.03310    0.00595    0.01014    0.00681
C3    1    0.223170    1.274132    0.455155    11.00000    0.03542    0.02789 =
         0.03874    0.01071    0.01179    0.00593
AFIX  23
H3A   2    0.147652    1.348169    0.489241    11.00000   -1.20000
H3B   2    0.316153    1.339719    0.432176    11.00000   -1.20000
AFIX   0
C4    1    0.100047    1.162594    0.333901    11.00000    0.02952    0.03406 =
         0.03633    0.01317    0.01160    0.00986
C5    1   -0.081424    0.772445    0.174824    11.00000    0.02366    0.03600 =
         0.02608    0.00828    0.00581    0.00449
C6    1    0.651279    1.031373    0.908546    11.00000    0.04210    0.04011 =
         0.03335    0.00454    0.00436   -0.00005
AFIX 137
H6A   2    0.731429    1.086200    0.870739    11.00000   -1.50000
H6B   2    0.725787    1.012998    0.985709    11.00000   -1.50000
H6C   2    0.562991    1.098079    0.929843    11.00000   -1.50000
AFIX   0
C7    1    0.441085    1.356632    0.676565    11.00000    0.03599    0.03239 =
         0.03467    0.00384    0.00532    0.00129
AFIX 137
H7A   2    0.399329    1.352895    0.750618    11.00000   -1.50000
H7B   2    0.428893    1.459615    0.659104    11.00000   -1.50000
H7C   2    0.570108    1.345027    0.693690    11.00000   -1.50000
AFIX   0
C8    1    0.014569    1.241375    0.237409    11.00000    0.04219    0.03781 =
         0.04154    0.01591    0.00605    0.00510
AFIX 137
H8A   2    0.051370    1.202809    0.160442    11.00000   -1.50000
H8B   2    0.055692    1.357914    0.271417    11.00000   -1.50000
H8C   2   -0.119508    1.215155    0.216981    11.00000   -1.50000
AFIX   0
C9    1   -0.241250    0.457124    0.026747    11.00000    0.03975    0.03691 =
         0.03650    0.00358    0.00242   -0.00336
AFIX 137
H9A   2   -0.115810    0.435810    0.044187    11.00000   -1.50000
H9B   2   -0.315719    0.386613   -0.056447    11.00000   -1.50000
H9C   2   -0.294979    0.436730    0.092249    11.00000   -1.50000
AFIX   0
N1    3    0.423532    1.050356    0.673360    11.00000    0.02879    0.03625 =
         0.02788    0.00935    0.00500    0.00446
N2    3    0.314311    1.073552    0.560233    11.00000    0.02603    0.03248 =
         0.02740    0.00750    0.00637    0.00369
N3    3    0.068766    1.009143    0.314443    11.00000    0.02445    0.03201 =
         0.02805    0.00896    0.00573    0.00452
N4    3   -0.056176    0.924859    0.194430    11.00000    0.02957    0.03911 =
         0.02893    0.00974    0.00368    0.00289
S1    4    0.275772    0.743097    0.540793    11.00000    0.03412    0.03043 =
         0.02984    0.00910    0.00234    0.00493
S2    4    0.025381    0.676601    0.280812    11.00000    0.03364    0.02915 =
         0.03144    0.00723   -0.00095    0.00374
S3    4    0.529389    0.841924    0.797157    11.00000    0.03434    0.03854 =
         0.02869    0.01030    0.00192    0.00536
S4    4   -0.236173    0.663680    0.027210    11.00000    0.03667    0.03864 =
         0.03099    0.00849   -0.00276    0.00161
NI1   5    0.173290    0.892518    0.425155    11.00000    0.02390    0.02800 =
         0.02677    0.00734    0.00392    0.00353
HKLF    4




REM  1817jb21 in P-1
REM R1 =  0.0458 for    2000 Fo > 4sig(Fo)  and  0.0499 for all    2211 data
REM    167 parameters refined using      0 restraints

END

WGHT      0.0752      0.0000

REM Highest difference peak  0.874,  deepest hole -0.498,  1-sigma level  0.115
Q1    1   0.1544  0.7919  0.3614  11.00000  0.05    0.87
Q2    1   0.1905  0.9817  0.4965  11.00000  0.05    0.76
Q3    1   0.2172  0.8161  0.4847  11.00000  0.05    0.64
Q4    1  -0.2399  0.5557  0.0015  11.00000  0.05    0.56
Q5    1   0.5567  0.9393  0.8602  11.00000  0.05    0.55
Q6    1   0.1566  0.9434  0.3589  11.00000  0.05    0.55
Q7    1   0.2087  0.9029  0.3417  11.00000  0.05    0.53
Q8    1   0.3062  0.8358  0.6106  11.00000  0.05    0.52
Q9    1  -0.0046  0.7319  0.2297  11.00000  0.05    0.48
Q10   1   0.0117  0.5802  0.2185  11.00000  0.05    0.46
Q11   1   0.2524  0.6411  0.4829  11.00000  0.05    0.43
Q12   1   0.2827  0.6479  0.5537  11.00000  0.05    0.42
Q13   1   0.4923  0.8936  0.7397  11.00000  0.05    0.40
Q14   1   0.5197  0.7364  0.7431  11.00000  0.05    0.38
Q15   1   0.3400  1.1526  0.5409  11.00000  0.05    0.37
Q16   1   0.0482  0.6000  0.3248  11.00000  0.05    0.33
Q17   1  -0.2549  0.7388 -0.0171  11.00000  0.05    0.31
Q18   1  -0.0027  0.6561  0.3737  11.00000  0.05    0.31
Q19   1  -0.2039  0.7512  0.0921  11.00000  0.05    0.31
Q20   1   0.5341  0.9628  0.8009  11.00000  0.05    0.30
;
_cod_data_source_file            d0dt03204b2.cif
_cod_data_source_block           1817jb21
_cod_depositor_comments
'Adding full bibliography for 7706005--7706008.cif.'
_cod_original_cell_volume        702.75(12)
_cod_database_code               7706007
_shelx_shelxl_version_number     2018/1
_iucr_refine_reflections_details
;
   0   0   1 83563.6 3016.08   6
   0   0   2 1806.62 181.851   1
   0   0  -3 2477.30 249.741   3
   0   0  -4 25413.1 1244.14   3
   0   0  -5 8450.61 645.928   3
   0   0  -6 182.083 115.619   3
   0   0   7 14081.1 681.595  23
   0   0  -7 15671.2 1112.42   3
   0   0   8 33988.6 1390.02  22
   0   0   8 35513.9 1449.72  23
   0   0   9 11372.7 580.752  22
   0   0   9 11122.8 608.412  23
   0   0  10 73.2227 50.8903  22
   0   0  10 78.1883 59.2668  23
   0   0  11 566.658 87.3675  22
   0   0  11 486.290 92.9236  23
   0   0  12 715.607 101.398  23
   0  -1  12 187.034 43.9193  22
   0  -1  12 197.742 55.1366  23
   0  -1  11 74.5987 36.4639  22
   0  -1  11 64.7977 37.5241  23
   0  -1  10 186.590 78.8077  23
   0  -1  10 230.993 71.8176  22
   0  -1   9 15295.1 759.899  23
   0  -1   8 107322. 3835.94   9
   0  -1   8 99517.3 3868.35  23
   0   1  -8 105596. 4584.51   3
   0   1  -7 595.534 191.352   3
   0  -1   7 1019.32 115.492   9
   0  -1   7 693.578 99.8393  11
   0  -1   7 1025.10 127.060  23
   0   1  -6 526.969 172.467   3
   0  -1   4 61462.2 2676.23   1
   0  -1   4 73682.0 2726.98   6
   0  -1   3 43503.3 1830.87   1
   0  -1   3 47749.0 1846.58   6
   0  -1   2 406.758 76.7371   6
   0  -1   2 450.104 71.2988   1
   0  -1   1 85922.6 3151.90   4
   0  -1   1 91041.5 3186.29   5
   0  -1   0 85071.6 3074.13   3
   0  -1  -1 22178.9 914.601   3
   0  -1  -2 17881.4 828.156   3
   0  -1  -3 1242.69 180.602   3
   0  -1  -4 580.851 141.071   3
   0  -1  -5 9594.79 725.634   3
   0   1   6 4208.23 277.446  23
   0  -1  -6 3679.95 469.587   3
   0   1   7 1038.25 138.758  23
   0   1   7 827.439 107.797  22
   0   1   7 949.819 117.804  26
   0  -1  -7 689.933 217.077   3
   0   1   8 3813.88 271.007  26
   0   1   8 3837.95 301.541  23
   0   1   8 3625.59 266.875  22
   0   1   9 1556.57 192.356  23
   0   1   9 1561.27 171.449  22
   0   1  10 3187.21 242.804  22
   0   1  10 3406.53 261.482  28
   0   1  10 3312.23 279.091  23
   0   1  11 1796.34 161.076  22
   0   1  11 1619.45 158.042  20
   0  -2  12 3712.38 266.040  23
   0  -2  12 3388.34 227.045  22
   0  -2  11 1110.70 131.781  22
   0  -2  11 1409.81 168.782  23
   0  -2  10 146.736 60.9992  23
   0  -2   9 4303.51 302.391   9
   0  -2   9 4013.77 300.105  11
   0  -2   9 4369.83 327.932  23
   0   2  -8 153.459 139.580   3
   0  -2   8 90.3574 39.7614  11
   0  -2   8 101.044 40.7907   9
   0  -2   7 1531.98 148.967  11
   0   2  -7 1507.59 311.405   3
   0  -2   7 1631.76 150.584   9
   0  -2   6 10020.7 765.705   6
   0  -2   5 11556.9 735.075   1
   0  -2   5 12039.8 770.492   6
   0  -2   4 10430.0 603.211   1
   0  -2   4 10280.0 638.397   6
   0  -2   3 21324.5 920.392   4
   0  -2   3 22336.2 947.640   1
   0  -2   3 22522.3 1010.78   6
   0  -2   2 9027.79 424.761   4
   0  -2   2 7644.31 384.795   1
   0  -2   1 41382.4 1619.67   4
   0  -2   1 40966.4 1617.01   5
   0  -2   0 27517.3 1166.41   4
   0  -2   0 26634.6 1129.43   3
   0  -2  -1 355.398 80.4123   3
   0  -2  -2 10769.0 607.554   3
   0  -2  -3 116194. 4457.44   3
   0  -2  -4 120791. 4740.20   3
   0  -2  -5 2002.53 316.383   3
   0  -2  -6 4562.43 560.219   3
   0   2   6 5588.00 344.811  23
   0   2   6 4433.46 287.774  22
   0   2   6 5181.65 320.382  26
   0   2   7 4853.33 323.108  22
   0   2   7 4905.70 349.047  23
   0   2   7 5210.35 337.156  26
   0   2   8 7.15547 28.9333  26
   0   2   8 37.9589 44.8120  23
   0   2   8-56.7785 46.7043  22
   0   2   9 1341.79 152.959  22
   0   2   9 1588.09 193.771  23
   0   2  10 2240.29 208.478  28
   0   2  10 2546.05 215.676  20
   0   2  10 2736.37 212.773  22
   0   2  11 14359.1 638.355  20
   0  -3  12 1140.95 139.056  23
   0  -3  12 918.196 105.889  22
   0  -3  11 2602.53 242.951  23
   0  -3  10 2731.41 262.049  23
   0  -3  10 3235.68 252.379   9
   0  -3   9 830.494 124.293  11
   0  -3   9 1006.45 139.803   9
   0  -3   8 7092.63 421.689  11
   0  -3   8 7587.71 423.830   9
   0  -3   7 1790.97 159.422   9
   0  -3   7 1443.54 309.268   6
   0  -3   7 1630.92 158.076  11
   0  -3   6 15723.9 1027.35   6
   0  -3   5 109198. 4331.80   6
   0  -3   4 88164.7 3515.96   6
   0  -3   4 89742.7 3362.67   4
   0  -3   3 112.870 48.0755   4
   0  -3   3 134.885 46.4440   1
   0  -3   2 27719.0 1197.64   4
   0  -3   2 27622.5 1245.75   5
   0  -3   1 4871.65 357.054   4
   0  -3   1 4103.92 326.145   5
   0  -3   0 8576.32 555.257   4
   0  -3  -1 24461.5 1240.81   4
   0  -3  -1 26377.0 1201.75   3
   0  -3  -2 11146.5 688.101   3
   0  -3  -3 93695.1 3751.61   3
   0  -3  -4 6183.54 568.721   3
   0   3   5 87.5628 30.8085  12
   0   3   5 14.4562 32.8768  22
   0   3   6 2037.66 196.242  26
   0   3   6 1736.68 169.624  22
   0   3   6 2031.63 194.626  17
   0   3   6 1864.62 170.959  12
   0   3   7 7816.57 447.538  17
   0   3   7 6951.57 436.553  26
   0   3   7 7567.56 435.626  20
   0   3   7 7183.96 425.176  22
   0   3   8 87.0743 46.4370  22
   0   3   8-38.7960 45.9457  20
   0   3   8 39.6961 37.6591  26
   0   3   9 2360.23 207.179  22
   0   3   9 2573.71 216.852  20
   0   3  10 321.781 68.4579  20
   0   3  10 125.658 45.3283  28
   0  -4  12 7300.46 419.635  23
   0  -4  11 23.5759 47.4151  23
   0  -4  10 9260.22 504.530   9
   0  -4   9 1865.33 191.433  11
   0  -4   9 2071.56 216.351  18
   0  -4   9 1755.45 181.468   9
   0  -4   8 282.870 64.3443  11
   0  -4   8 412.205 81.6493   9
   0  -4   7 7938.00 413.781   9
   0  -4   7 7399.99 399.294  27
   0  -4   7 6915.77 733.172   6
   0  -4   6 25.7741 51.7056   6
   0  -4   6 0.89171 15.5372  27
   0  -4   5 36875.7 1811.67   6
   0  -4   4 23.6837 22.3022   4
   0  -4   4 23.1971 36.9844   6
   0  -4   3 3709.96 330.101   4
   0  -4   2 1096.87 178.914   4
   0  -4   2 1017.28 182.193   5
   0  -4   1 44177.0 1974.83   4
   0  -4   1 47180.5 1962.08   5
   0  -4   0 6093.97 505.840   4
   0  -4   0 5845.08 460.943   5
   0  -4  -1 33915.3 1623.75   3
   0  -4  -1 36055.4 1708.62   4
   0  -4  -2 234.397 91.9480   3
   0  -4  -2 451.023 155.567   4
   0   4   3 4062.90 272.919  17
   0  -4  -3 3751.27 479.146   4
   0   4   3 3995.33 244.981  22
   0   4   4 1873.05 160.065  20
   0  -4  -4 1759.20 339.690   4
   0   4   4 1875.77 181.038  17
   0   4   4 1781.00 162.909  22
   0   4   5 304.863 70.7645  12
   0   4   5 277.512 77.2252  17
   0   4   5 299.870 73.2751  26
   0   4   5 298.834 79.8064  22
   0   4   5 406.760 80.2215  20
   0   4   6 3301.57 270.062  26
   0   4   6 3053.45 248.003  20
   0   4   6 3632.00 263.203  12
   0   4   6 3733.74 287.663  17
   0   4   6 3166.55 255.865  22
   0   4   7 68.3180 36.7788  22
   0   4   7 52.2138 40.0733  26
   0   4   7 7.17661 24.0403  17
   0   4   7 61.3476 33.6807  20
   0   4   8 5066.33 326.901  20
   0   4   8 4830.28 325.455  17
   0   4   8 5170.40 340.789  26
   0   4   9 705.669 98.5962  20
   0   4   9 574.615 100.985  28
   0  -5  12 38.9047 26.8121  23
   0  -5  11 115.042 52.6957  23
   0  -5  11 147.305 46.6339   9
   0  -5  10 489.823 108.260  18
   0  -5  10 461.426 92.9172   9
   0  -5   9 9345.48 521.830   9
   0  -5   9 11204.3 617.668  18
   0  -5   8 14417.4 685.796   9
   0  -5   7 6914.10 390.409  27
   0  -5   6-22.9643 80.9931   6
   0  -5   6 61.6798 30.0194  27
   0  -5   5 9000.55 752.136   6
   0  -5   4 905.137 206.766   6
   0  -5   3 2464.33 302.837   4
   0  -5   2 21567.5 1186.44   5
   0  -5   2 21489.1 1162.14   4
   0  -5   1 7393.50 609.059   4
   0  -5   1 7808.88 591.186   5
   0  -5   0 21096.7 1150.51   5
   0  -5   0 22146.8 1245.54   4
   0   5   1 10159.5 501.818  19
   0   5   1 9563.33 486.403  17
   0  -5  -1 9676.11 788.005   4
   0   5   2 130.819 37.4562  20
   0  -5  -2-29.4222 82.3623   4
   0   5   2 26.0887 30.8102  19
   0   5   2 53.1720 32.9892  17
   0   5   3 3161.53 223.021  20
   0   5   3 3471.10 265.519  17
   0  -5  -3 2963.56 480.083   4
   0   5   4 4854.06 341.070  17
   0   5   4 5089.42 338.617  26
   0   5   4 4823.26 306.412  20
   0   5   5 17153.4 787.885  12
   0   5   5 15867.3 751.725  20
   0   5   5 16640.7 798.583  26
   0   5   5 16757.3 807.529  17
   0   5   6 12555.8 630.344  12
   0   5   6 13156.0 627.939  20
   0   5   6 12755.6 656.022  26
   0   5   6 12329.6 660.326  17
   0   5   7 10076.0 514.628  20
   0   5   7 9705.49 537.364  17
   0   5   7 10732.0 555.579  26
   0   5   8 626.064 95.3586  17
   0   5   8 548.184 97.3826  28
   0   5   8 743.106 94.8688  20
   0  -6  11 1423.18 143.306   9
   0  -6  11 1397.91 163.502  23
   0  -6  11 1894.55 189.902  18
   0  -6  10 7724.53 432.488   9
   0  -6  10 8062.90 499.565  18
   0  -6   9 8581.73 539.588  18
   0  -6   9 7888.48 451.547   9
   0  -6   8 11130.4 577.741  27
   0  -6   8 12030.8 592.667   9
   0  -6   7 10705.4 555.973  27
   0  -6   6 1748.00 170.994  27
   0  -6   5 482.927 196.655   6
   0   6  -5 27.2547 21.0608  19
   0  -6   4 479.118 173.948   6
   0   6  -4 511.301 93.1245  19
   0  -6   3 16109.2 723.601  14
   0   6  -3 15787.2 732.874  19
   0  -6   2 23102.9 1372.34   4
   0   6  -2 25736.9 1065.81  19
   0  -6   1 14943.5 1020.79   4
   0   6  -1 15187.5 710.847  19
   0   6   0-18.8629 18.0543  19
   0   6   0 109.098 36.5169  17
   0   6   1 20201.5 894.844  19
   0   6   1 19784.1 884.996  17
   0   6   2 3633.03 269.487  19
   0   6   2 3409.07 269.474  17
   0   6   2 3545.65 238.850  20
   0   6   3 8036.89 481.174  17
   0   6   3 8609.38 480.385  26
   0   6   3 8324.07 434.615  20
   0   6   4 3927.79 297.402  26
   0   6   4 3974.80 266.933  20
   0   6   4 4204.87 317.642  17
   0   6   5 1286.88 158.977  26
   0   6   5 1457.21 148.056  20
   0   6   5 1360.33 160.330  12
   0   6   5 1274.57 164.723  17
   0   6   6 3608.50 270.028  26
   0   6   6 3229.10 245.406  12
   0   6   6 3155.31 260.722  17
   0   6   7 839.082 113.375  28
   0   6   7 978.290 120.844  17
   0  -7  11 1223.68 144.422  18
   0  -7  10 5625.69 332.543   9
   0  -7  10 6135.48 405.098  18
   0  -7   9 7678.88 484.767  18
   0  -7   9 6808.73 396.255   9
   0  -7   8 64.2752 38.2959  27
   0  -7   8 135.125 46.4710   9
   0  -7   7 4318.27 297.074  27
   0  -7   6 2882.10 232.401  27
   0   7  -6 2478.71 216.342  19
   0   7  -5 1914.60 191.188  19
   0   7  -4 9341.87 511.293  19
   0   7  -3 257.034 68.4290  19
   0   7  -2 547.200 99.6305  19
   0   7  -1 578.590 98.7676  19
   0   7   0 183.147 56.7684  17
   0   7   0 304.662 76.1249  19
   0   7   1 9.28309 31.4963  19
   0   7   1 14.8416 26.6956  17
   0   7   2 73.0908 42.2435  17
   0   7   2 90.5433 48.2290  19
   0   7   3 3856.76 288.354  26
   0   7   3 4631.83 341.874  17
   0   7   4 6021.86 375.571  26
   0   7   4 6447.44 388.535  12
   0   7   4 6139.82 392.518  17
   0   7   5 505.551 89.0796  26
   0   7   5 599.008 92.2488  12
   0   7   5 405.481 83.7799  17
   0   7   6 2275.81 187.611  17
   0  -8  10 31.3823 37.2059  18
   0  -8   9 203.667 64.5620  18
   0  -8   8 11.9594 18.6203  27
   0  -8   8 55.0655 46.8943  18
   0  -8   7 5174.89 325.230  27
   0  -8   6 724.471 105.796  27
   0   8  -6 697.317 107.012  19
   0  -8   5 7734.03 421.372  27
   0   8  -5 7015.65 428.236  19
   0   8  -4 8410.81 479.289  19
   0   8  -3 260.055 73.1582  19
   0   8  -2 263.192 75.8154  19
   0   8  -1 468.310 97.1740  19
   0   8   0 336.772 77.8094  19
   0   8   1 19153.6 865.051  19
   0   8   2 5251.37 324.801  19
   0   8   3 4750.10 311.116  12
   0   8   4 1603.71 150.542  12
   0  -9   8 150.030 54.1783  18
   0  -9   7 12957.1 648.981  18
   0  -9   6 4479.26 270.552  27
   0   9  -6 3805.38 266.788  19
   0  -9   6 4647.97 316.155  18
   0  -9   5 4499.25 276.096  27
   0   9  -5 4017.41 281.011  19
   0  -9   4 1479.41 142.899  27
   0   9  -4 1527.53 160.277  19
   0   9  -3 3469.03 258.652  19
   0   9  -2 2.05235 26.3008  19
   0   9  -1 1445.33 153.717  19
   0   9   0 3000.33 228.540  19
   0   9   1 1291.53 131.750  19
   0   9   1 1169.04 134.094  12
   0   9   2 1409.26 136.637  12
  -1  10  -2 3682.35 237.095  19
  -1  10  -3 1929.17 161.833  19
  -1  10  -4 534.354 80.5492  19
  -1   9   2 6153.74 347.615  12
  -1   9   1 202.675 53.2762  19
  -1   9   1 151.332 50.4165  12
  -1   9   0 2757.96 220.594  12
  -1   9   0 2967.56 225.110  19
  -1   9  -1 539.782 88.6531  19
  -1   9  -2 1449.08 161.740  19
  -1   9  -3 110.223 32.5578  19
  -1   9  -4 8339.86 460.212  19
  -1   9  -5 128.188 95.5075  19
  -1   9  -6 96.7773 39.4853  19
   1  -9   6 211.285 51.4891  18
   1  -9   7 2521.53 221.850  18
   1  -9   8 83.3478 43.7622  18
  -1   8   4 4476.05 291.938  12
  -1   8   3 220.829 63.8501  12
  -1   8   2 486.546 98.4725  12
  -1   8   1 2851.32 230.235  19
  -1   8   0 67.3780 42.6288  19
  -1   8  -1 2789.65 241.022  19
  -1   8  -2 666.601 119.750  19
  -1   8  -3 428.282 93.9822  19
  -1   8  -4 277.761 74.5245  19
   1  -8   5 786.988 132.506  18
  -1   8  -5 765.105 113.846  19
  -1   8  -6 10355.2 557.318  19
   1  -8   6 11911.9 638.578  18
   1  -8   7 127.669 58.3464  18
   1  -8   8 1313.73 143.681   9
   1  -8   8 1458.97 179.021  18
   1  -8   9 5673.94 373.818  18
   1  -8   9 5249.43 316.609   9
  -1   7   6 66.4317 28.9666  12
  -1   7   5 489.893 90.7817  12
  -1   7   4 97.2764 45.6762  26
  -1   7   4 0.96006 28.7367  12
  -1   7   4 37.4361 28.4073  17
  -1   7   3 96.7725 48.2699  12
  -1   7   3 64.8161 42.3117  17
  -1   7   2 10960.3 590.400  17
  -1   7   2 11737.7 581.284  19
  -1   7   1 2063.31 198.133  17
  -1   7   1 2051.85 195.756  19
  -1   7   0 8921.54 492.361  19
  -1   7  -1 30013.2 1262.47  19
  -1   7  -2 5714.75 367.773  19
  -1   7  -3 17223.7 807.207  19
  -1   7  -4 713.191 115.440  19
  -1   7  -5 3418.08 267.335  19
  -1   7  -6 599.327 101.171  19
   1  -7   6 933.697 155.014  18
   1  -7   7 4060.86 345.822  18
   1  -7   8 6669.72 407.042   9
   1  -7   8 6990.31 479.925  18
   1  -7   9 4781.89 363.533  18
   1  -7   9 4213.89 297.221   9
   1  -7  10 2092.83 214.853  18
   1  -7  10 2036.35 175.785   9
  -1   6   7 9286.82 469.692  20
  -1   6   7 9553.16 498.411  28
  -1   6   7 9398.07 485.992  12
  -1   6   6 1403.42 159.924  17
  -1   6   6 1357.09 159.806  28
  -1   6   6 1436.25 162.506  26
  -1   6   6 1483.70 152.605  20
  -1   6   6 1396.47 158.704  12
  -1   6   5 7120.96 434.948  12
  -1   6   5 7394.21 449.090  17
  -1   6   5 7101.98 431.164  28
  -1   6   5 7358.87 435.820  26
  -1   6   5 7231.32 412.964  20
  -1   6   4 239.534 68.5535  20
  -1   6   4 272.829 72.1872  26
  -1   6   4 227.495 75.7944  17
  -1   6   4 201.554 64.2396  12
  -1   6   3 3213.24 248.405  26
  -1   6   3 2969.20 226.943  20
  -1   6   3 2977.80 251.554  17
  -1   6   2 5250.78 326.782  19
  -1   6   2 5247.26 312.192  20
  -1   6   2 4882.13 332.868  17
  -1   6   1 15849.0 725.806  17
   1  -6  -1 15920.1 1113.55   4
  -1   6   1 15133.1 714.897  19
   1  -6   0 8436.59 743.020   4
  -1   6   0 7814.40 438.662  17
  -1   6   0 9069.63 464.723  19
  -1   6  -1 3002.05 234.241  19
   1  -6   1 3392.29 439.114   4
   1  -6   2 162.201 108.860   4
  -1   6  -2 146.005 45.1978  19
  -1   6  -3 21513.7 936.478  19
   1  -6   3 21736.2 1268.24   4
  -1   6  -4 1414.48 155.523  19
  -1   6  -5 968.168 128.578  19
  -1   6  -6 639.170 97.4058  19
   1  -6   7 12308.9 704.888  18
   1  -6   8 3902.68 302.407   9
   1  -6   8 4358.13 365.477  18
   1  -6   9 1218.63 149.470   9
   1  -6   9 1558.48 201.149  18
   1  -6  10 1900.23 180.137   9
   1  -6  10 2084.31 222.621  18
   1  -6  10 1667.71 182.172  23
   1  -6  11 76.1288 35.2390   9
  -1   5   9 2787.13 196.793  20
  -1   5   9 2922.68 216.990  28
  -1   5   8 826.913 109.024  12
  -1   5   8 827.708 112.833  17
  -1   5   8 909.968 126.936  28
  -1   5   8 829.151 109.575  20
  -1   5   7 479.028 100.553  28
  -1   5   7 254.951 70.9710  26
  -1   5   7 302.917 79.0656  17
  -1   5   7 198.427 70.6288  20
  -1   5   7 289.106 70.2610  12
  -1   5   6 1262.25 162.344  26
  -1   5   6 1437.09 166.108  12
  -1   5   6 1418.98 159.869  20
  -1   5   6 1412.71 167.883  17
  -1   5   5 9098.71 505.846  12
  -1   5   5 9319.86 492.504  20
  -1   5   5 8808.45 512.580  17
  -1   5   5 9312.40 512.966  26
  -1   5   4 156.279 53.8757  17
  -1   5   4 197.474 61.6048  20
  -1   5   4 191.660 62.4482  26
   1  -5  -3 374.421 138.963   4
  -1   5   3 493.870 82.6068  20
  -1   5   3 414.146 87.1844  17
  -1   5   3 457.794 81.0697  26
  -1   5   2 157.775 45.0956  26
  -1   5   2 71.1797 32.1116  19
   1  -5  -2 143.728 96.6555   4
  -1   5   2 154.890 56.3437  17
  -1   5   2 126.610 44.7468  20
   1  -5  -1 16844.6 1089.99   4
   1  -5   0 18444.9 1109.41   4
   1  -5   1 4159.40 444.166   4
   1  -5   2 21034.2 1173.00   4
   1  -5   3 60.9231 52.8611   4
   1  -5   4 42547.4 1934.61   4
   1  -5   4 40669.4 1975.43   6
  -1   5  -5 4027.76 258.885  19
   1  -5   5 3722.85 237.127  27
   1  -5   5 3692.16 466.655   6
   1  -5   6 64.5240 31.9757  27
   1  -5   6-5.59479 112.802   6
   1  -5   7 7673.00 497.858  18
   1  -5   8 1993.43 230.825  18
   1  -5   8 1962.62 195.255   9
   1  -5   9 8758.46 491.063   9
   1  -5   9 8904.41 555.698  18
   1  -5  10 370.075 85.8121   9
   1  -5  10 363.116 93.3365  18
   1  -5  10 299.262 80.9413  23
   1  -5  11 2174.01 188.398   9
   1  -5  11 2091.80 193.145  23
  -1   4  10 154.525 44.4356  20
  -1   4  10 179.109 49.7735  28
  -1   4   9 1593.60 164.400  20
  -1   4   9 1205.53 151.909  28
  -1   4   8 5086.32 334.209  20
  -1   4   8 5175.64 355.448  28
  -1   4   8 5083.79 327.059  12
  -1   4   8 4379.29 311.929  17
  -1   4   7 6613.68 425.369  17
  -1   4   7 7461.05 454.397  26
  -1   4   7 7669.66 441.122  20
  -1   4   7 7525.23 435.642  12
  -1   4   6 10629.3 569.325  26
  -1   4   6 11028.4 558.703  12
  -1   4   6 11657.2 579.655  17
  -1   4   6 9432.80 517.518  22
  -1   4   6 10616.4 547.302  20
  -1   4   5 63.0329 35.9426  20
  -1   4   5 85.4905 40.6430  26
  -1   4   5 1.83690 18.1073  12
  -1   4   5 13.6938 39.6365  22
  -1   4   5 43.7705 35.8625  17
   1  -4  -4 48323.0 2466.61   4
  -1   4   4 52158.0 2016.36  26
  -1   4   4 51346.2 1977.84  20
  -1   4   4 54408.8 2026.63  17
   1  -4  -3 3003.83 402.012   4
   1  -4  -2 44.6527 71.5057   4
   1  -4  -1 15175.4 925.805   4
   1  -4   0 1654.74 248.257   4
   1  -4   0 1572.07 187.462   5
   1  -4   1 27804.8 1245.47   5
   1  -4   1 27177.5 1330.38   4
   1  -4   2 9862.85 637.218   4
   1  -4   2 9872.92 595.481   6
   1  -4   3 26373.5 1330.34   6
   1  -4   3 30508.9 1358.79   4
   1  -4   4 12832.6 838.312   6
   1  -4   4 14148.5 820.679   4
   1  -4   5 5234.77 532.071   6
   1  -4   6 10262.1 482.491  27
   1  -4   6 10416.7 868.092   6
  -1   4  -7 1534.03 361.850   3
   1  -4   7 1875.37 205.477  18
   1  -4   8 4237.44 299.443   9
   1  -4   8 4609.10 350.458  18
   1  -4   9 1816.51 212.820  18
   1  -4   9 1698.42 178.076   9
   1  -4  10 1067.67 152.444  23
   1  -4  10 1230.81 149.343   9
   1  -4  11 2148.83 200.960  23
   1  -4  12 1507.02 133.954  22
  -1   3  10 43.6682 25.1541  20
  -1   3  10-4.48260 29.1101  28
  -1   3   9 3225.85 269.502  28
  -1   3   9 3303.38 261.871  20
  -1   3   8 293.956 77.8195  26
  -1   3   8 345.060 74.4653  20
  -1   3   7 9212.10 537.313  23
  -1   3   7 8932.70 499.474  17
  -1   3   7 9720.67 510.837  20
  -1   3   7 9266.93 498.351  12
  -1   3   7 10050.2 532.756  26
  -1   3   7 9233.49 483.017  22
  -1   3   6 2161.79 202.659  26
  -1   3   6 2297.79 209.450  23
  -1   3   6 2127.07 189.366  12
  -1   3   6 1928.80 176.715  20
   1  -3  -6 1934.65 342.666   4
  -1   3   6 2055.13 191.580  17
  -1   3   6 2231.32 180.494  22
   1  -3  -5 2992.13 407.311   4
  -1   3   5 3285.99 234.205  12
  -1   3   5 3119.25 239.308  26
  -1   3   5 3205.72 221.562  20
  -1   3   5 3579.38 249.640  23
  -1   3   5 3466.86 247.017  17
   1  -3  -4 6245.95 566.263   4
   1  -3  -3 7000.75 575.500   4
   1  -3  -2 17932.6 831.498   3
   1  -3  -2 17397.7 976.919   4
   1  -3  -1 315.106 97.8750   4
   1  -3   0 514.840 123.617   4
   1  -3   0 435.442 77.3348   5
   1  -3   1 278.299 97.8911   4
   1  -3   2 40524.5 1634.20   6
   1  -3   2 38690.6 1652.14   4
   1  -3   3 82.6972 34.8256   2
   1  -3   3 37.1773 40.3860   6
   1  -3   3 87.4114 57.5852   4
   1  -3   4 62235.5 2613.39   6
   1  -3   5 3377.25 400.101   6
  -1   3  -6 7907.16 741.955   3
   1  -3   7 470.317 79.5806   9
   1  -3   7 512.497 95.6914  18
  -1   3  -7 447.053 179.309   3
   1  -3   8 1548.13 179.785  18
   1  -3   8 1498.62 162.770   9
   1  -3   9 139.178 64.2274  23
   1  -3   9 145.569 59.0041   9
   1  -3  10 3113.08 249.621   9
   1  -3  10 2684.88 246.682  23
   1  -3  11 7295.15 407.559  22
   1  -3  11 6669.32 415.560  23
   1  -3  12 7807.29 400.011  22
   1  -3  12 8153.55 424.660  23
  -1   2  11 516.413 86.1832  20
  -1   2  11 487.289 82.4589  28
  -1   2  10 2884.98 236.856  20
  -1   2  10 2956.02 246.546  28
  -1   2   9 841.878 139.313  28
  -1   2   9 870.612 142.185  23
  -1   2   8 3896.65 303.427  23
  -1   2   8 3789.32 287.981  26
  -1   2   8 3750.91 264.126  22
  -1   2   7 264.886 65.7652  12
  -1   2   7 302.241 62.8943  22
  -1   2   7 336.012 80.9001  23
  -1   2   7 339.493 77.2554  26
  -1   2   6 9679.46 481.555  12
  -1   2   6 9716.31 503.253  26
  -1   2   6 10298.5 516.565  23
   1  -2  -6 9521.47 759.257   4
   1  -2  -5 2333.96 308.653   3
   1  -2  -5 2173.06 307.868   4
   1  -2  -4 40091.1 1739.14   3
   1  -2  -4 38723.5 1806.74   4
   1  -2  -3 487.603 123.403   4
   1  -2  -3 451.280 93.6762   3
   1  -2  -2 3359.58 234.149   3
   1  -2  -2 3376.29 306.267   4
   1  -2  -1 11979.9 601.232   4
   1  -2  -1 9595.64 439.718   3
   1  -2   0 47822.8 1664.61   4
   1  -2   0 38068.7 1503.16   5
   1  -2   1 11155.7 567.895   4
   1  -2   1 11412.3 519.294   6
   1  -2   2 14575.5 679.516   6
   1  -2   2 12845.8 665.182   4
   1  -2   3 63232.5 2368.22   2
   1  -2   3 61462.4 2502.19   6
   1  -2   4 49356.8 2140.49   6
  -1   2  -5 5915.27 559.644   3
  -1   2  -6 113.374 60.1399   3
   1  -2   7 31474.4 1265.96   9
  -1   2  -7 30491.1 1830.18   3
   1  -2   8 1390.93 167.788  23
   1  -2   8 1443.71 157.890   9
   1  -2   9 2794.34 247.171  23
   1  -2   9 2598.61 232.734   9
   1  -2  10 561.733 106.546  23
   1  -2  11 24.9388 32.1852  22
   1  -2  11 48.2240 31.9503  23
   1  -2  12 2466.79 181.219  22
   1  -2  12 2387.02 192.660  23
  -1   1  12 6166.16 334.098  20
  -1   1  11 10.1541 30.4746  23
  -1   1  11 4.60810 32.5245  20
  -1   1  10 692.443 110.210  28
  -1   1  10 490.841 105.861  23
  -1   1   9 4737.77 339.138  28
  -1   1   9 4981.25 355.668  23
  -1   1   8 9384.29 463.846  22
  -1   1   8 8347.85 496.445  23
   1  -1  -7 428.848 162.047   3
  -1   1   7 515.948 82.0054  22
  -1   1   7 523.692 86.4278  26
  -1   1   7 559.622 96.4471  23
   1  -1  -6 12665.0 895.584   3
   1  -1  -5 37658.4 1760.36   3
   1  -1  -4 9828.14 607.736   3
  -1   1   4 8679.68 638.540   1
   1  -1  -3 24430.6 1071.76   3
  -1   1   3 23484.8 1147.17   1
  -1   1   2 2770.42 234.069   1
   1  -1  -2 2098.57 206.886   4
   1  -1  -2 2432.55 186.201   3
   1  -1  -1 111532. 4046.20   4
  -1   1   1 111361. 4033.07   1
   1  -1   0 246.917 52.0959   4
  -1   1   0 193.409 27.3692   3
   1  -1   1 12200.9 580.742   4
  -1   1  -1 13628.6 599.027   3
   1  -1   1 12730.4 571.512   6
  -1   1  -2 2693.06 249.048   3
   1  -1   2 2431.39 189.114   2
  -1   1  -3 415.901 109.289   3
  -1   1  -4 7015.73 554.709   3
  -1   1  -5 2561.53 346.526   3
  -1   1  -6 1904.58 334.199   3
   1  -1   7 1704.98 169.674  23
   1  -1   7 1552.39 158.151   9
   1  -1   8 6424.26 411.268  23
   1  -1   8 7087.42 404.254   9
   1  -1   9 3275.48 253.005  22
   1  -1   9 3128.30 268.976  23
   1  -1  10 288.283 73.3057  22
   1  -1  10 255.267 75.3830  23
   1  -1  11 7390.64 397.037  22
   1  -1  11 6699.54 412.422  23
  -1   0  12 46.8524 40.6815  23
  -1   0  11 1607.97 180.015  23
  -1   0  10 19.3873 31.4201  23
  -1   0   9 36200.0 1545.66  23
  -1   0   9 37907.9 1485.50  22
  -1   0   8 978.072 126.204  28
  -1   0   8 1054.96 120.118  22
  -1   0   8 1089.59 141.489  23
   1   0  -8 992.880 254.278   3
   1   0  -7 376.436 153.707   3
  -1   0   7 448.478 84.0693  23
  -1   0   7 397.935 75.5159  11
   1   0  -6 9848.26 761.316   3
  -1   0   5 3588.33 388.000   1
  -1   0   4 50.7062 37.4308   1
  -1   0   4 87.4285 69.9647   6
  -1   0   3 314.842 80.8199   6
   1   0  -2 21414.0 832.199   4
  -1   0   2 22019.9 876.969   6
  -1   0   1 555.782 55.9371   5
   1   0  -1 500.522 48.1327   4
  -1   0   0 14846.2 610.281   3
   1   0   0 13910.4 598.995   2
  -1   0  -1 2734.03 217.222   3
  -1   0  -2 24.0200 41.9012   3
  -1   0  -3 1685.88 238.519   3
  -1   0  -4 12757.2 826.646   3
  -1   0  -5 683.997 184.779   3
   1   0   6 560.718 86.8185   9
   1   0   6 669.815 96.7083  23
  -1   0  -6 645.253 200.873   3
   1   0   7 61733.5 2343.10  23
  -1   0  -7 57242.1 2956.28   3
   1   0   8 35.6130 32.3845  22
   1   0   8-2.81765 22.7392  23
   1   0   9 2110.82 206.614  22
   1   0   9 1952.39 205.189  23
   1   0  10 170.761 59.2100  22
   1   0  10 144.329 61.0351  23
   1   0  11 3613.35 267.644  23
   1   0  11 3525.93 241.072  22
  -1  -1  12 37.6083 21.7611  23
  -1  -1  11 2076.82 211.017  23
  -1  -1  10 4690.79 352.332  23
  -1  -1   9 3615.04 285.798  11
  -1  -1   9 3748.36 301.142  23
  -1  -1   8 1052.26 143.877  23
   1   1  -8 1037.67 273.188   3
  -1  -1   8 1058.94 133.124  11
  -1  -1   7 2410.32 196.559  11
   1   1  -7 2601.08 398.464   3
  -1  -1   6 4923.37 503.822   1
  -1  -1   6 5082.74 497.687   6
  -1  -1   5 1129.99 201.764   1
  -1  -1   5 1106.32 188.369   6
  -1  -1   4 1078.26 169.287   1
  -1  -1   4 1119.16 164.842   6
  -1  -1   3 12515.4 625.321   6
  -1  -1   3 12244.7 625.916   1
  -1  -1   2 720.586 109.083   5
   1   1  -2 796.937 66.2638   2
  -1  -1   0 2062.31 200.769   3
  -1  -1  -1 25450.5 1140.96   3
  -1  -1  -2 14531.3 792.412   3
  -1  -1  -3 63460.3 2642.75   3
  -1  -1  -4 26316.4 1397.70   3
  -1  -1  -5 1353.58 278.252   3
   1   1   6 8875.22 462.903  22
   1   1   6 9204.12 484.892  23
  -1  -1  -6 8692.93 821.370   3
   1   1   7 4559.00 323.729  23
   1   1   7 4931.38 306.953  26
   1   1   7 4100.91 289.854  22
   1   1   8 1871.34 188.603  22
   1   1   8 1681.74 191.516  23
   1   1   9 267.945 68.3899  22
   1   1   9 262.604 82.6636  23
   1   1  10 10200.8 522.399  22
   1   1  11 701.170 91.2773  20
   1   1  11 823.551 99.0573  22
  -1  -2  12 136.478 52.4846  23
  -1  -2  11 1878.34 205.448  23
  -1  -2  10 1233.54 167.394  23
  -1  -2  10 1140.45 152.729  11
  -1  -2   9 16961.4 806.904  11
  -1  -2   8 327.847 66.7959   9
  -1  -2   8 419.092 83.3947  11
  -1  -2   7 3092.00 427.892   6
  -1  -2   7 3618.25 458.969   1
  -1  -2   7 3359.85 236.063  11
  -1  -2   6 35695.5 1731.37   1
  -1  -2   6 35005.2 1727.30   6
  -1  -2   5 51719.6 2171.10   1
  -1  -2   5 49698.8 2183.45   6
  -1  -2   4 9407.98 576.016   6
  -1  -2   4 8475.03 538.961   1
  -1  -2   3 6307.72 434.836   5
  -1  -2   3 5975.57 276.413   4
  -1  -2   2 30633.8 1283.35   5
  -1  -2   2 28347.5 1140.44   4
  -1  -2   0 6468.53 453.892   3
  -1  -2  -1 30.5455 43.5271   3
  -1  -2  -2 59200.1 2481.56   3
  -1  -2  -3 4195.37 430.790   3
  -1  -2  -4 11157.8 839.398   3
   1   2   5 2124.48 174.356  22
  -1  -2  -5 1709.02 339.019   3
   1   2   5 1731.63 170.807  23
   1   2   6 6236.77 363.859  22
  -1  -2  -6 5956.31 697.621   3
   1   2   6 6053.36 386.726  23
   1   2   7 1085.16 155.202  23
   1   2   7 1218.73 146.022  22
   1   2   7 1203.22 146.352  26
   1   2   8 4945.47 335.700  26
   1   2   8 5336.85 348.793  22
   1   2   9 598.136 102.843  22
   1   2   9 566.062 97.8823  20
   1   2  10 2335.40 185.869  20
   1   2  10 2404.36 200.417  28
   1   2  10 2709.17 209.829  22
  -1  -3  12 1657.55 177.014  23
  -1  -3  11 135.505 56.7040  23
  -1  -3  10 413.959 92.2444  11
  -1  -3   9 867.387 117.255   9
  -1  -3   9 749.533 118.216  11
  -1  -3   8 4797.10 605.500   6
  -1  -3   8 5632.68 356.645  11
  -1  -3   8 5487.69 323.304  16
  -1  -3   8 5540.80 328.107   9
  -1  -3   7 1793.19 331.001   6
  -1  -3   7 1467.87 136.521   9
  -1  -3   7 1482.51 139.705  27
  -1  -3   7 1674.42 145.133  16
  -1  -3   6 32000.7 1583.85   1
  -1  -3   6 32793.9 1669.72   6
  -1  -3   5 24.8353 70.1996   6
  -1  -3   5 43.2534 47.3932   1
  -1  -3   4 29124.0 1327.64   1
  -1  -3   3 2791.28 216.292   4
  -1  -3   3 3366.32 336.590   5
  -1  -3   2 2025.59 211.636   4
  -1  -3   2 2263.44 258.533   5
  -1  -3   1 220.637 74.7554   4
  -1  -3   0 22981.1 1178.21   3
  -1  -3  -1 7541.97 576.163   3
  -1  -3  -2 14359.6 912.014   3
  -1  -3  -3 4502.23 493.407   3
   1   3   4 3254.89 225.367  22
  -1  -3  -4 3405.26 463.108   3
  -1  -3  -5 14465.2 1133.54   3
   1   3   5 14546.1 673.155  22
   1   3   6 144.325 60.0513  22
   1   3   6 121.099 44.2809  20
   1   3   7 4151.55 298.441  22
   1   3   7 4104.37 310.993  17
   1   3   7 4284.71 310.594  26
   1   3   7 3816.92 281.092  20
   1   3   8 36.0700 32.9636  22
   1   3   8-16.2343 23.4095  20
   1   3   8 69.1605 46.5356  26
   1   3   8 17.2744 27.7350  17
   1   3   9 1007.86 115.378  20
   1   3   9 952.511 123.045  22
  -1  -4  12 351.455 75.7417  23
  -1  -4  11 1537.73 187.848  23
  -1  -4  11 1311.00 159.683  11
  -1  -4  10 1996.40 208.596  11
  -1  -4  10 2379.80 204.083   9
  -1  -4   9 1213.75 139.385   9
  -1  -4   9 960.622 139.150  11
  -1  -4   8 7950.75 422.755   9
  -1  -4   8 7646.76 428.367  27
  -1  -4   7 2550.95 210.439  21
  -1  -4   7 2859.55 214.190  27
  -1  -4   7 3048.98 452.004   6
  -1  -4   7 2874.71 203.883   9
  -1  -4   6 18862.5 796.767  27
  -1  -4   6 18102.5 1189.79   6
  -1  -4   6 18956.5 825.391  14
  -1  -4   5 20291.4 1178.74   6
  -1  -4   3 25953.6 1352.74   5
  -1  -4   2 232.580 83.6355   4
  -1  -4   2 289.061 110.854   5
  -1  -4   1 13558.1 802.836   4
  -1  -4   1 12762.2 810.403   5
  -1  -4   0-14.9735 57.9555   3
  -1  -4   0 36.0679 66.0283   4
  -1  -4  -1 1833.72 295.721   4
  -1  -4  -1 1550.62 281.880   3
   1   4   2 67130.1 2465.89  22
  -1  -4  -2 62023.7 2933.14   3
  -1  -4  -3 122.792 112.908   3
   1   4   3 203.530 55.6307  22
   1   4   4 15044.7 697.723  22
   1   4   5 7225.89 421.551  22
   1   4   6 10367.2 545.312  22
   1   4   6 9259.17 540.345  26
   1   4   6 10113.4 564.119  17
   1   4   7 2623.78 236.388  26
   1   4   7 2736.78 245.914  17
   1   4   7 3209.85 259.660  22
   1   4   8 236.785 65.2244  26
   1   4   8 226.333 60.4522  17
   1   4   9 2.27976 18.9624  28
  -1  -5  12 236.808 68.8159  23
  -1  -5  11 4013.02 293.003  11
  -1  -5  10 2219.18 217.103  11
  -1  -5  10 2371.66 202.669   9
  -1  -5  10 2476.20 242.165  18
  -1  -5   9 2895.51 232.778   9
  -1  -5   9 3196.06 265.981  11
  -1  -5   8 10.5545 21.2275  27
  -1  -5   7 1393.84 151.090  27
  -1  -5   6 26418.6 1076.79  27
  -1  -5   6 24898.6 1102.19  21
  -1  -5   6 24458.9 1523.19   6
  -1  -5   6 27012.4 1113.26  14
  -1  -5   5 162.371 43.3086  14
  -1  -5   5 229.618 53.6925  21
  -1  -5   5 101.159 110.821   6
  -1  -5   4 15203.7 696.309  21
  -1  -5   4 15272.0 684.905  14
  -1  -5   3 1907.36 315.791   5
  -1  -5   2 20046.0 1179.40   5
  -1  -5   2 19728.8 1096.05   4
  -1  -5   1 22449.1 1252.59   4
   1   5  -1 22008.6 948.268  19
  -1  -5   1 23470.5 1288.49   5
  -1  -5   0 40.7008 63.1066   4
  -1  -5   0 35.7283 60.5457   5
   1   5   0 5.50274 26.0438  19
  -1  -5  -1 244.827 122.910   4
   1   5   1 363.133 73.1063  17
   1   5   1 288.772 65.5741  19
   1   5   2 173.928 64.4461  19
  -1  -5  -2 252.624 136.432   4
   1   5   2 322.092 80.5859  17
   1   5   3 14420.3 718.426  17
   1   5   3 14536.2 702.631  19
   1   5   4 1120.68 155.884  17
   1   5   5 761.817 123.747  26
   1   5   5 851.004 120.766  12
   1   5   5 870.375 145.283  17
   1   5   6 1878.85 201.751  17
   1   5   6 1875.22 196.592  26
   1   5   7 3592.02 262.677  26
   1   5   7 3120.38 251.936  17
   1   5   8 937.578 117.063  28
  -1  -6  12 652.935 103.633  23
  -1  -6  11 402.280 87.1239  18
  -1  -6  10 2117.84 230.489  18
  -1  -6   9 8772.99 499.800  11
  -1  -6   8 331.949 79.1325  27
  -1  -6   7 1089.99 139.866  27
  -1  -6   6 2699.73 227.396  27
   1   6  -5 21527.4 943.656  19
  -1  -6   5 22754.3 975.917  14
  -1  -6   4 187.471 53.7915  14
   1   6  -4 127.273 47.9275  19
  -1  -6   3 4424.23 285.170  14
  -1  -6   3 4416.45 535.563   5
   1   6  -3 4396.86 303.920  19
  -1  -6   2 10841.6 521.573  14
   1   6  -2 10661.7 550.677  19
  -1  -6   2 10454.3 854.441   5
  -1  -6   1 14698.1 1040.33   5
   1   6  -1 14666.4 708.468  19
   1   6   0 8417.65 466.254  17
   1   6   0 9964.62 520.075  19
   1   6   1 3666.47 279.567  19
   1   6   1 2997.34 248.427  17
   1   6   2 454.894 96.1093  17
   1   6   2 454.849 91.6765  19
   1   6   3 7319.40 439.410  19
   1   6   3 7602.39 464.462  17
   1   6   4 884.834 132.417  26
   1   6   4 1023.58 155.490  17
   1   6   5 14226.2 691.584  26
   1   6   5 14604.1 709.541  17
   1   6   5 13062.8 650.032  12
   1   6   6 6695.81 386.710  26
   1   6   6 6302.38 391.033  17
  -1  -7  11 3257.21 255.836  18
  -1  -7  10 5113.79 364.516  18
  -1  -7   8 1311.15 154.354  27
  -1  -7   7 2203.85 203.396  27
  -1  -7   6 562.482 101.987  27
   1   7  -5 11556.1 590.136  19
  -1  -7   4 2494.57 272.443  14
   1   7  -4 21962.7 612.067  19
   1   7  -3 25266.1 1121.97  19
  -1  -7   3 26693.2 1106.48  14
   1   7  -2 7771.35 459.487  19
   1   7  -1 1568.93 181.028  19
   1   7   0 14007.1 703.239  19
   1   7   1 429.942 95.3565  19
   1   7   1 500.531 96.8382  17
   1   7   2 44.0866 34.6773  19
   1   7   2 60.4470 44.2393  17
   1   7   3 859.639 124.400  26
   1   7   3 892.152 131.994  17
   1   7   4 264.834 67.1814  26
   1   7   4 272.058 70.6529  17
   1   7   4 353.444 74.0521  12
   1   7   5 2933.43 215.763  26
   1   7   5 2492.43 190.867  12
   1   7   5 2780.15 219.010  17
  -1  -8  10 856.515 122.797  18
  -1  -8   9 149.435 57.5213  18
  -1  -8   8 7693.01 427.797  27
  -1  -8   7 996.941 128.629  27
   1   8  -6 91.0761 32.9237  19
  -1  -8   6 62.0474 44.0677  27
   1   8  -5 631.070 106.245  19
   1   8  -4 1343.64 156.388  19
   1   8  -3 1269.35 154.313  19
   1   8  -2 59.0877 39.5696  19
   1   8  -1 3487.39 276.281  19
   1   8   0 235.557 72.3148  19
   1   8   1 272.525 68.7907  19
   1   8   2 4995.96 308.198  19
   1   8   2 4686.91 309.782  17
   1   8   3 1389.71 141.489  12
   1   8   3 1216.62 136.902  17
  -1  -9   8 558.647 80.1844  27
  -1  -9   8 555.848 97.0395  18
  -1  -9   7 77.6793 32.8735  27
  -1  -9   6 7550.54 379.946  27
   1   9  -6 5862.37 353.064  19
  -1  -9   5 261.512 57.1714  27
   1   9  -5 162.651 46.0586  19
   1   9  -4 540.870 89.6471  19
   1   9  -3 776.158 109.855  19
   1   9  -2 3525.69 257.670  19
   1   9  -1 74.3728 39.8458  19
   1   9   0 6169.73 352.896  19
   1   9   1 1964.97 166.520  12
  -2  10  -3 1833.41 154.942  19
  -2   9   2 2499.21 201.293  15
  -2   9   2 3585.68 228.225  12
  -2   9   1 1204.99 127.134  19
  -2   9   1 1308.06 132.409  12
  -2   9   1 981.583 120.661  15
  -2   9   0 55.6638 27.0978  19
  -2   9  -1 2766.78 222.550  19
  -2   9  -2 1465.54 159.088  19
  -2   9  -3 5872.74 364.068  19
  -2   9  -4 4425.72 303.399  19
  -2   9  -5 16596.3 758.207  19
  -2   9  -6 308.790 66.9118  19
   2  -9   7 582.776 97.9254  18
  -2   8   5 3816.54 250.501  12
  -2   8   4 4448.20 293.350  12
  -2   8   3 16626.0 768.231  12
  -2   8   2 318.049 73.6173  12
  -2   8   1 44.2187 32.8822  12
  -2   8   1 61.9196 35.3001  19
  -2   8   0 249.643 69.0651  12
  -2   8   0 290.578 70.9838  19
  -2   8  -1 938.415 131.471  19
  -2   8  -2 8538.92 491.938  19
  -2   8  -3 6243.30 400.483  19
  -2   8  -4 448.895 95.1679  19
   2  -8   5 3698.88 304.345  18
  -2   8  -5 3494.88 278.069  19
   2  -8   6 10.3127 40.6093  18
  -2   8  -6 74.0067 35.0914  19
   2  -8   7 253.277 72.2782  18
   2  -8   8 80.7424 47.2728  18
   2  -8   8 16.0737 21.8919   9
   2  -8   9 150.490 44.4068   9
  -2   7   6 3710.66 260.246  12
  -2   7   5 2035.37 196.662  12
  -2   7   4 260.199 77.5337  12
  -2   7   3 323.955 81.7958  12
  -2   7   2 173.637 61.9019  12
  -2   7   1 553.658 98.1304  19
  -2   7   0 1049.18 139.892  19
  -2   7  -1 646.871 108.056  19
  -2   7  -2 9875.78 537.766  19
  -2   7  -3 2077.78 209.226  19
   2  -7   4 3426.22 294.888  18
  -2   7  -4 3429.91 275.616  19
  -2   7  -5 7330.46 445.960  19
   2  -7   5 7561.31 493.056  18
  -2   7  -6 189.371 54.2789  19
   2  -7   6 145.016 72.0367  18
   2  -7   7 9805.45 601.531  18
   2  -7   8 9355.57 590.508  18
   2  -7   8 10320.7 541.053   9
   2  -7   9 2915.12 234.027   9
   2  -7   9 3383.13 285.798  18
   2  -7  10 1012.69 114.801   9
  -2   6   8 2532.37 192.076  12
  -2   6   8 2716.85 204.967  28
  -2   6   8 2615.13 190.050  20
  -2   6   7 1424.15 156.699  28
  -2   6   7 1589.05 156.475  20
  -2   6   7 1741.49 172.427  12
  -2   6   6 1856.05 177.651  20
  -2   6   6 1705.29 187.082  12
  -2   6   6 1902.59 188.454  28
  -2   6   5 5282.36 346.644  28
  -2   6   5 4963.18 353.855  12
  -2   6   5 5611.67 345.643  20
  -2   6   4 2169.75 201.820  26
  -2   6   4 2102.38 195.300  20
  -2   6   4 2087.00 214.321  17
  -2   6   4 1999.98 205.437  12
  -2   6   3 18194.6 798.003  20
  -2   6   3 17932.8 841.426  17
  -2   6   3 17663.7 833.729  12
  -2   6   2 121.713 41.1056  19
  -2   6   1 14247.2 672.915  19
   2  -6   0 23870.9 1489.20   4
  -2   6   0 26452.8 1101.85  19
   2  -6   1 18435.7 1227.24   4
  -2   6  -1 19683.0 872.443  19
   2  -6   2 1268.28 271.831   4
  -2   6  -2 1308.10 150.465  19
   2  -6   3 214.575 109.851   4
  -2   6  -3 310.187 71.1775  19
   2  -6   3 334.183 88.1956  18
   2  -6   4 1344.84 285.070   4
  -2   6  -4 1131.09 141.392  19
   2  -6   4 1192.99 166.881  18
   2  -6   5 11017.8 625.439  18
  -2   6  -5 10450.4 553.251  19
  -2   6  -6 15083.5 733.016  19
   2  -6   6 16414.8 839.156  18
   2  -6   7 6481.54 471.624  18
   2  -6   8 8829.69 506.874   9
   2  -6   8 9620.79 587.444  18
   2  -6   9 2261.19 208.398   9
   2  -6   9 2238.51 249.076  18
   2  -6  10 1063.58 127.680   9
  -2   5   9 5268.31 328.380  28
  -2   5   9 5156.79 307.632  20
  -2   5   9 5537.65 310.145  12
  -2   5   8 7776.45 423.315  20
  -2   5   8 7873.54 434.382  12
  -2   5   8 6956.66 430.728  28
  -2   5   7 11986.2 619.355  28
  -2   5   7 11441.3 589.931  20
  -2   5   7 11592.0 604.553  12
  -2   5   6 2691.53 242.550  28
  -2   5   6 2714.46 242.639  12
  -2   5   6 2682.80 232.029  20
  -2   5   6 2899.83 249.372  17
  -2   5   5 4475.09 323.930  17
  -2   5   5 4113.50 310.311  28
  -2   5   5 4576.25 319.850  26
  -2   5   5 4373.89 296.276  20
  -2   5   5 4414.90 316.962  12
  -2   5   4 273.558 69.0885  28
  -2   5   4 206.018 64.8716  26
  -2   5   4 161.649 55.0167  20
  -2   5   4 102.674 33.8562  12
  -2   5   4 112.134 46.6688  17
  -2   5   3 5014.63 317.749  26
  -2   5   3 5335.02 332.016  12
  -2   5   3 4994.05 301.402  20
  -2   5   3 5521.23 344.385  17
   2  -5  -3 4139.07 518.405   4
  -2   5   2 16270.6 735.133  20
  -2   5   2 17856.1 781.161  17
   2  -5  -2 17274.6 1129.99   4
  -2   5   1 2112.17 168.189  20
   2  -5  -1 2135.06 341.390   4
   2  -5   0 15286.2 1007.51   4
   2  -5   1 919.089 208.394   4
   2  -5   2 547.912 162.726   4
  -2   5  -2 521.366 80.2486  19
   2  -5   3 6464.85 585.976   4
  -2   5  -3 6420.56 361.077  19
   2  -5   3 6357.18 397.157  18
   2  -5   4 420.355 154.921   4
  -2   5  -4 257.246 61.5005  19
   2  -5   4 377.117 78.4982  18
   2  -5   5 7263.25 465.361  18
  -2   5  -5 6894.13 392.765  19
  -2   5  -6 16801.0 757.307  19
   2  -5   6 16767.6 863.700  18
   2  -5   7 13678.5 754.531  18
   2  -5   8 28.6307 28.0613   9
   2  -5   8 63.8213 60.1327  18
   2  -5   9 173.190 53.0769   9
   2  -5  10 121.367 45.3707   9
  -2   4  10 2737.44 213.742  28
  -2   4  10 2530.01 195.140  20
  -2   4   9 262.850 62.3949  12
  -2   4   9 415.671 83.1740  20
  -2   4   9 342.401 76.3049  28
  -2   4   8 1062.35 149.441  28
  -2   4   8 1157.71 149.502  20
  -2   4   8 1035.95 139.537  12
  -2   4   7 41.3092 35.6756  28
  -2   4   7 93.7804 47.1522  12
  -2   4   7 78.0411 47.6960  20
  -2   4   7 96.6309 46.0660  17
  -2   4   6 1193.05 152.384  26
  -2   4   6 953.872 140.614  28
  -2   4   6 1098.67 143.205  20
  -2   4   6 1417.57 162.445  12
  -2   4   6 1187.22 148.554  17
   2  -4  -5 657.672 199.148   4
  -2   4   5 1057.77 128.284  20
  -2   4   5 733.766 113.796  12
  -2   4   5 939.857 131.263  26
  -2   4   5 1151.80 143.860  17
  -2   4   5 992.200 135.894  28
  -2   4   4 250.129 62.1713  28
   2  -4  -4 248.603 98.5033   4
  -2   4   4 215.528 56.4155  20
  -2   4   4 150.674 47.5610  26
  -2   4   4 165.791 54.5446  12
  -2   4   4 146.482 55.8534  17
   2  -4  -3 20507.3 1226.11   4
   2  -4  -2 3555.41 405.789   4
   2  -4  -1 26951.8 1403.63   4
   2  -4   0 5256.57 478.586   4
   2  -4   1 2646.65 317.384   4
   2  -4   2 381.427 119.646   4
   2  -4   3 60957.6 2606.21   4
  -2   4  -5 8263.87 754.841   3
  -2   4  -5 6477.59 368.931  19
   2  -4   5 8222.86 463.721  18
  -2   4  -6 288.425 154.211   3
   2  -4   6 236.446 77.6917  18
   2  -4   7 849.677 128.839   9
   2  -4   7 1413.94 181.328  18
   2  -4   8 13930.4 701.918   9
   2  -4   8 15645.0 790.560  18
   2  -4   9-66.9172 39.4909   9
   2  -4  10 10907.7 559.518   9
   2  -4  11 10600.9 514.269  22
  -2   3  11 1277.13 132.966  28
  -2   3  11 1251.55 125.054  20
  -2   3  10 20.9826 24.1148  28
  -2   3  10 39.9443 45.0073  20
  -2   3   9 2906.40 239.176  20
  -2   3   9 2777.05 251.680  28
  -2   3   9 2926.53 237.851  12
  -2   3   8 1771.71 185.637  20
  -2   3   8 1715.61 182.962  12
  -2   3   8 2109.99 219.310  28
  -2   3   7 82.8902 53.6052  28
  -2   3   7 37.7278 32.6619  12
  -2   3   7-19.3234 31.8056  20
  -2   3   7 0.09691 36.1945  23
  -2   3   6 5485.62 364.096  28
  -2   3   6 5574.61 365.086  26
  -2   3   6 5498.40 344.291  23
  -2   3   6 5426.80 351.680  12
  -2   3   6 5894.19 341.319  20
  -2   3   6 5829.37 353.125  17
  -2   3   5 61277.7 2416.91  26
  -2   3   5 65374.1 2381.11  20
  -2   3   5 64860.1 2412.73  12
   2  -3  -5 57827.6 2777.54   4
  -2   3   5 64696.5 2414.65  17
   2  -3  -4 12890.0 859.384   4
   2  -3  -3 12322.9 794.571   4
   2  -3  -2 1317.16 210.722   4
   2  -3  -1-1.98141 32.6174   4
   2  -3   0 20147.8 1018.75   4
   2  -3   1 2.92659 44.3678   4
  -2   3  -2 92168.4 3464.81   3
   2  -3   2 98553.2 3520.88   4
  -2   3  -3 139313. 5598.10   3
   2  -3   3 147005. 5449.00   2
   2  -3   3 154383. 5608.51   4
  -2   3  -4 29665.1 1564.12   3
  -2   3  -5 3488.23 457.562   3
   2  -3   6 10266.8 561.188  18
  -2   3  -6 9567.14 880.055   3
   2  -3   7 1783.19 171.844   9
   2  -3   7 1678.51 191.187  18
   2  -3   8 2126.14 200.872   9
   2  -3   9 4229.86 301.397   9
   2  -3  11 561.668 87.8617  22
  -2   2  11 659.134 103.669  28
  -2   2  11 701.493 101.528  20
  -2   2  10 111.492 56.0731  23
  -2   2  10 152.473 55.5593  20
  -2   2  10 129.396 44.3611  28
  -2   2   9 4346.07 319.344  20
  -2   2   9 4624.53 339.115  23
  -2   2   9 4747.98 342.045  28
  -2   2   8 2792.89 246.278  28
  -2   2   8 2731.05 239.683  23
  -2   2   8 2453.84 218.599  12
  -2   2   7 975.440 134.724  28
  -2   2   7 845.616 118.612  12
  -2   2   7 946.647 126.895  23
  -2   2   6 47481.4 1866.04  12
  -2   2   6 49546.6 1900.34  28
   2  -2  -5 40256.2 1858.18   4
   2  -2  -4 8972.77 641.321   4
  -2   2   4 12680.9 797.376   1
   2  -2  -3 1116.45 172.789   4
  -2   2   3 1116.73 191.524   1
  -2   2   2 12578.3 677.645   1
   2  -2  -2 11299.7 653.684   4
   2  -2  -1 27521.5 1278.77   4
  -2   2   1 31494.3 1239.88   1
   2  -2   0 4707.13 335.357   4
  -2   2   0 4529.77 248.857   1
  -2   2   0 3826.66 195.602   3
  -2   2  -1 29449.9 1231.19   3
   2  -2   1 29536.3 1302.16   4
  -2   2  -2 5800.12 443.248   3
   2  -2   2 6839.00 462.737   4
   2  -2   2 6279.06 423.242   2
  -2   2  -3 6499.38 528.219   3
   2  -2   3 6769.86 449.082   2
  -2   2  -4 13571.7 905.798   3
  -2   2  -5 1187.32 269.091   3
   2  -2   6 1449.46 146.903   9
  -2   2  -6 1814.07 341.937   3
   2  -2   6 1661.04 174.970  18
   2  -2   7 9088.49 478.075   9
   2  -2   7 8858.14 480.915  23
   2  -2   8 168.634 56.1426   9
   2  -2   8 269.709 65.8551  23
   2  -2   9 1922.33 190.611  23
   2  -2  10 4892.51 331.530  23
   2  -2  10 5341.40 339.048  22
   2  -2  11 237.588 58.8560  22
  -2   1  12 1521.34 141.118  20
  -2   1  11 1409.30 156.305  28
  -2   1  11 1641.78 176.025  23
  -2   1  11 1468.85 154.937  20
  -2   1  10 1146.70 149.062  28
  -2   1  10 920.137 137.511  23
  -2   1   9 253.631 78.4330  28
  -2   1   9 170.738 68.2501  23
  -2   1   8 1345.75 146.098  12
  -2   1   8 1375.24 160.409  23
  -2   1   8 1168.51 150.754  28
  -2   1   7 7857.14 419.996  23
  -2   1   7 7393.73 420.973  28
  -2   1   7 6483.97 383.660  12
  -2   1   6 168.206 109.976   1
   2  -1  -5 256.006 94.9333   3
  -2   1   5 276.736 108.710   1
   2  -1  -4 5794.14 409.672   3
   2  -1  -4 5321.56 390.587   4
  -2   1   4 5202.57 453.352   1
   2  -1  -3 11510.4 606.225   4
  -2   1   3 12654.2 687.751   1
   2  -1  -2 124045. 4397.24   4
  -2   1   2 114499. 4426.69   1
  -2   1   2 119869. 4277.78   6
   2  -1  -1 103486. 3421.68   4
  -2   1   1 89766.1 3261.47   5
   2  -1   0 338.215 71.6360   4
  -2   1   0 384.343 68.8626   3
   2  -1   1 47656.6 1942.69   2
  -2   1  -1 50027.8 1953.07   3
   2  -1   2 71104.7 2745.81   2
  -2   1  -2 70282.5 2830.71   3
  -2   1  -3 2545.39 318.005   3
  -2   1  -4 1485.09 268.160   3
  -2   1  -5 433.414 145.886   3
   2  -1   6 143938. 5164.43  23
  -2   1  -6 141615. 5885.24   3
   2  -1   6 140928. 5146.04   9
   2  -1   7 25449.7 1076.02   9
   2  -1   7 25590.6 1091.56  23
   2  -1   8 747.110 119.023  22
   2  -1   8 556.664 99.2391  23
   2  -1   9 82.7226 49.0285  23
   2  -1   9 194.833 70.7721  22
   2  -1  10 1133.44 142.354  23
   2  -1  10 1299.10 143.425  22
   2  -1  11 1730.17 152.582  22
  -2   0  12 0.62320 26.6368  20
  -2   0  12 41.6194 39.7091  23
  -2   0  11 5102.33 357.459  23
  -2   0  10 27679.9 1214.17  23
  -2   0   9 9002.29 515.091  23
  -2   0   9 8803.83 493.077  28
  -2   0   8 89.6643 36.5838  28
  -2   0   8 119.662 50.1927  23
  -2   0   8 239.638 69.5154  11
   2   0  -7 5421.54 588.042   3
  -2   0   7 6522.44 378.273  23
  -2   0   7 7114.20 698.657   1
  -2   0   7 6147.41 367.092  11
  -2   0   6 5439.19 550.472   1
  -2   0   5 349.496 112.253   1
  -2   0   5 426.928 120.336   6
  -2   0   4 977.471 172.974   1
  -2   0   4 1171.04 163.547   6
   2   0  -3 28564.3 1123.87   4
  -2   0   3 27675.2 1297.32   1
  -2   0   2 999999. 34950.1   5
   2   0  -2 989657. 34908.9   4
  -2   0   1 83209.3 3104.41   3
   2   0   0 2206.18 202.232   2
  -2   0   0 1966.46 200.662   3
   2   0   1 4729.71 346.199   2
  -2   0  -1 4820.40 373.781   3
  -2   0  -2 49923.0 2137.30   3
  -2   0  -3 9486.54 694.132   3
  -2   0  -4 10.5212 66.2414   3
  -2   0  -5 19014.0 1268.78   3
   2   0   6 30086.8 1207.23  22
   2   0   6 27885.4 1177.54   9
   2   0   6 29555.5 1211.67  23
  -2   0  -6 32848.8 1844.33   3
   2   0   7 14178.5 685.600  23
   2   0   7 13799.5 662.422  22
   2   0   8 38.1705 36.8339  23
   2   0   8 173.285 55.9602  22
   2   0   9 754.846 123.312  23
   2   0   9 911.308 129.583  22
   2   0  10 649.960 100.356  22
  -2  -1  12 6.58646 22.2273  23
  -2  -1  11 6738.93 429.523  23
  -2  -1  10 49950.2 2028.87  11
  -2  -1  10 51061.3 2038.68  23
  -2  -1   9 1019.44 144.353  23
  -2  -1   9 988.007 143.867  11
  -2  -1   8 264.886 124.602   1
  -2  -1   8 452.346 89.0452  11
  -2  -1   8 308.878 61.5756  16
   2   1  -8 181.090 88.9704   3
  -2  -1   7 118.537 105.296   1
  -2  -1   7 262.378 124.772   6
  -2  -1   7 113.991 41.5052  11
  -2  -1   6 21007.6 1223.10   1
  -2  -1   6 22477.9 1206.67   6
  -2  -1   5 17943.8 971.400   6
  -2  -1   5 18763.6 1026.55   1
  -2  -1   4 168.875 74.7123   1
  -2  -1   4 111.824 55.7115   6
  -2  -1   3 44886.7 1832.92   5
   2   1  -2 31151.0 1251.74   2
  -2  -1   2 30984.8 1316.47   5
  -2  -1   1 20131.7 1007.66   3
   2   1  -1 20717.4 903.562   2
  -2  -1   0 14855.9 799.196   3
  -2  -1  -1-15.5326 46.4494   3
  -2  -1  -2 8138.97 618.717   3
  -2  -1  -3 10907.3 795.453   3
  -2  -1  -4 9386.82 788.076   3
   2   1   5 2604.90 195.186  22
   2   1   5 2102.85 193.366  23
  -2  -1  -5 2288.11 400.126   3
   2   1   6 6341.00 396.403  23
   2   1   6 6837.50 382.387  22
   2   1   7 1080.25 143.598  22
   2   1   7 1196.70 157.289  23
   2   1   8 4404.81 328.763  23
   2   1   8 4660.04 322.036  22
   2   1   9 3755.52 266.207  22
  -2  -1  -9 3156.86 245.718  10
   2   1  10 11830.8 560.427  22
  -2  -2  13 714.958 110.474  23
  -2  -2  12 41.1960 35.6714  23
  -2  -2  11 1191.52 161.693  23
  -2  -2  10 116.554 56.3631  23
  -2  -2  10 68.1990 40.1284  11
  -2  -2   9 1172.51 151.583  11
  -2  -2   9 1265.54 137.691  16
  -2  -2   8 5006.75 309.731  16
  -2  -2   8 5425.08 634.902   1
  -2  -2   8 5095.13 598.370   6
  -2  -2   8 5396.27 344.648  11
  -2  -2   7 8215.04 406.047  16
  -2  -2   7 7198.77 672.329   6
  -2  -2   7 7626.19 695.350   1
  -2  -2   6 12035.8 828.287   1
  -2  -2   6 12056.1 820.860   6
  -2  -2   5 8065.14 586.368   1
  -2  -2   5 6617.44 529.424   6
  -2  -2   4 8868.93 600.789   1
  -2  -2   3 15245.5 829.078   5
  -2  -2   2 22156.7 1074.99   5
  -2  -2   1 47.9069 67.4835   3
  -2  -2   0 9891.39 668.639   3
  -2  -2  -1 151231. 5805.13   3
  -2  -2  -2 150619. 5861.90   3
  -2  -2  -3 1849.39 321.014   3
   2   2   4 5989.63 336.170  22
  -2  -2  -4 6899.98 695.629   3
   2   2   5 3668.76 253.698  22
  -2  -2  -5 2946.64 486.849   3
   2   2   6 113.730 44.4058  22
  -2  -2  -6 123.184 37.6739  10
   2   2   7 2113.40 202.588  22
  -2  -2  -7 1783.50 188.382  10
   2   2   7 2289.53 206.362  26
   2   2   8 2906.95 240.706  22
   2   2   9 20901.0 909.931  22
  -2  -3  13 978.851 116.935  23
  -2  -3  12 2334.47 216.344  23
  -2  -3  11 360.084 89.5064  23
  -2  -3  11 238.182 78.7586  11
  -2  -3  10 3773.11 305.300  11
  -2  -3   9 377.488 88.9734  11
  -2  -3   9 431.566 84.7325  16
  -2  -3   8 5044.59 629.960   6
  -2  -3   8 6181.26 354.005  16
  -2  -3   7 59978.9 2268.21  27
  -2  -3   7 57164.6 2269.67  14
  -2  -3   7 60272.7 2798.30   6
  -2  -3   7 65159.5 2805.19   1
  -2  -3   7 61333.3 2273.40  16
  -2  -3   7 61691.2 2274.13  21
  -2  -3   6 44606.1 2141.16   6
  -2  -3   6 46370.4 2133.70   1
  -2  -3   5 45.7838 36.5837   1
  -2  -3   4 21100.3 1155.77   5
  -2  -3   3 4349.67 415.345   5
  -2  -3   2 7625.01 577.475   5
  -2  -3   2 8083.14 499.028   4
  -2  -3   1 25487.9 1372.75   3
  -2  -3   0 10697.3 779.485   3
  -2  -3  -1 97051.4 4008.47   3
  -2  -3  -2 3682.65 464.872   3
  -2  -3  -3 160.430 126.799   3
   2   3   3 75.4519 31.5361  22
  -2  -3  -3 143.002 49.3842  10
  -2  -3  -4 1246.31 305.358   3
   2   3   4 1087.75 134.680  22
  -2  -3  -4 1245.80 138.218  10
   2   3   5 11663.8 585.105  22
  -2  -3  -5 11015.9 575.141  10
   2   3   6-1.78294 26.8846  22
  -2  -3  -6 85.3544 51.6395  10
   2   3   7 3513.31 269.232  26
   2   3   7 3104.59 254.954  22
   2   3   8 289.494 71.4437  22
   2   3   8 201.185 51.9780  17
   2   3   8 201.720 56.8244  26
  -2  -4  12 4465.61 316.399  23
  -2  -4  12 4297.35 303.933  11
  -2  -4  11 1775.45 195.027  11
  -2  -4  10 320.142 86.4809  11
  -2  -4   9 4728.09 343.026  11
  -2  -4   8 200.095 57.6262  27
  -2  -4   8 290.096 70.1587  21
  -2  -4   8 220.919 67.0695  16
  -2  -4   7 19277.9 845.836  27
  -2  -4   7 19129.9 853.413  21
  -2  -4   7 18402.9 853.722  14
  -2  -4   7 18562.1 1281.28   6
  -2  -4   7 20721.3 857.923  16
  -2  -4   6 16.0863 21.6057  27
  -2  -4   6 20.4445 26.8208  14
  -2  -4   6 63.9300 40.2442  21
  -2  -4   6 51.7713 59.3674   6
  -2  -4   6 45.0005 36.5282  16
  -2  -4   5 2584.48 345.280   1
  -2  -4   4 245.924 109.730   5
  -2  -4   3 30068.9 1561.07   5
  -2  -4   2 5632.00 531.804   5
  -2  -4   1 27692.1 1391.67   4
  -2  -4   1 27690.4 1479.79   5
  -2  -4   0 36.3023 88.9894   3
  -2  -4  -1 9432.01 801.210   3
  -2  -4  -1 8327.79 426.003  10
   2   4   2 1052.82 132.664  22
  -2  -4  -2 1127.79 291.084   3
  -2  -4  -2 1017.40 121.484  10
   2   4   3 825.279 120.675  22
  -2  -4  -3 723.730 107.180  10
   2   4   4 5732.84 363.989  22
  -2  -4  -4 5867.04 356.994  10
   2   4   5 500.721 94.5354  22
   2   4   6 6470.40 409.660  26
   2   4   6 6076.24 395.471  22
   2   4   6 6774.10 433.264  17
   2   4   7 1485.08 159.066  26
   2   4   7 1319.87 159.418  17
   2   4   8 55.9668 34.1474  26
   2   4   8-4.61696 32.9911  17
  -2  -5  12 553.453 92.8933  11
  -2  -5  12 716.938 114.511  23
  -2  -5  11 4710.39 333.308  11
  -2  -5  10 8387.62 502.030  11
  -2  -5   8 122.889 54.4651  27
  -2  -5   8 190.418 71.7924  21
  -2  -5   7 6477.05 385.539  27
  -2  -5   7 6557.41 402.626  21
  -2  -5   7 6690.21 406.734  14
  -2  -5   6 606.030 94.6582  27
  -2  -5   6 602.000 101.551  14
  -2  -5   6 771.916 113.869  21
  -2  -5   6 797.995 242.768   6
  -2  -5   5 2803.51 221.004  14
  -2  -5   5 2854.25 230.266  21
  -2  -5   4 16784.4 727.192  14
  -2  -5   4 15901.2 740.762  21
   2   5  -4 15220.8 719.014  19
  -2  -5   4 17358.7 1160.73   5
  -2  -5   3 10477.0 532.162  21
   2   5  -3 10397.6 526.809  19
  -2  -5   3 11361.8 881.150   5
  -2  -5   2 13197.2 641.346  21
   2   5  -2 13944.7 662.202  19
   2   5  -1 11422.2 591.749  19
  -2  -5   1 12791.2 936.886   5
  -2  -5   0 320.776 137.546   4
   2   5   0 383.875 87.9422  19
  -2  -5   0 222.033 112.283   5
  -2  -5   0 273.852 65.2035  10
  -2  -5  -1 1660.78 342.350   4
   2   5   1 1640.93 187.243  19
  -2  -5  -1 1442.46 153.156  10
   2   5   2 6289.93 399.199  19
  -2  -5  -2 4769.31 320.095  10
   2   5   3 15805.6 795.196  19
   2   5   4 14768.8 767.710  17
   2   5   5 14339.9 739.901  17
   2   5   6 1305.12 152.621  26
   2   5   6 1546.71 175.171  17
   2   5   7 6138.28 344.993  26
   2   5   7 5781.38 349.150  17
  -2  -6  12 4323.80 291.181  23
  -2  -6  11 6020.60 368.214  11
  -2  -6  11 5790.65 375.186  18
  -2  -6  10 5908.14 387.467  11
  -2  -6   9 8144.96 467.840  27
  -2  -6   8 1672.42 176.744  27
  -2  -6   7 104.826 45.2441  14
  -2  -6   7 183.112 54.8033  27
  -2  -6   6 297.421 84.4633  21
  -2  -6   6 180.830 67.2201  14
   2   6  -5 8927.55 487.543  19
  -2  -6   5 9733.87 538.321  21
  -2  -6   5 9875.17 515.331  14
   2   6  -4 15881.5 758.814  19
  -2  -6   4 15747.7 783.850  21
  -2  -6   4 17374.4 765.243  14
  -2  -6   3 12228.5 596.109  14
   2   6  -3 11969.5 616.343  19
  -2  -6   2 86.6880 37.2117  14
   2   6  -2 17.3717 31.7289  19
   2   6  -1 17820.0 844.740  19
   2   6   0 4226.06 312.224  19
   2   6   0 3052.76 250.551  17
   2   6   1 8536.65 507.978  19
   2   6   1 7690.43 466.370  17
   2   6   2 5575.77 383.845  19
   2   6   2 5195.18 366.435  17
   2   6   3 692.535 117.704  19
   2   6   3 843.973 139.374  17
   2   6   4 2806.02 253.110  17
   2   6   5 1558.08 163.070  26
   2   6   5 1297.27 155.796  17
   2   6   6 306.055 63.7668  26
   2   6   6 144.521 42.7001  17
  -2  -7  11 3310.09 249.800  18
  -2  -7  10 65.0220 38.3272  11
  -2  -7   9 1445.78 155.861  27
  -2  -7   8 1786.89 181.206  27
  -2  -7   7 1553.48 172.380  27
  -2  -7   6 9139.54 492.381  27
  -2  -7   6 8508.26 499.916  14
  -2  -7   5 131.217 59.0578  14
   2   7  -5 14.5765 24.7741  19
  -2  -7   4 227.893 71.2226  14
   2   7  -4 182.077 60.7816  19
  -2  -7   3 948.366 124.529  14
   2   7  -3 583.216 115.016  19
   2   7  -2 165.745 59.7329  19
   2   7  -1 559.569 109.395  19
   2   7   0-6.14925 46.6703  19
   2   7   1 5151.29 357.477  19
   2   7   1 4306.01 309.913  17
   2   7   2 6889.68 420.837  19
   2   7   2 6501.22 404.989  17
   2   7   3 252.509 66.4972  26
   2   7   3 362.568 72.1426  19
   2   7   3 245.148 65.8642  17
   2   7   4 3142.52 229.139  26
   2   7   4 2902.88 228.451  17
  -2  -8  10-14.5806 29.0999  18
  -2  -8   9 4787.38 294.845  27
  -2  -8   8 955.878 121.330  27
  -2  -8   7 6354.35 375.788  27
  -2  -8   6 7500.64 424.117  27
   2   8  -5 24.3840 46.6473  19
   2   8  -4 344.128 77.2604  19
   2   8  -3 609.244 105.925  19
   2   8  -2 390.196 81.6421  19
   2   8  -1 18593.2 861.449  19
   2   8   0 5828.66 369.264  19
   2   8   1 3221.24 246.419  19
   2   8   2 1220.95 130.407  19
  -2  -9   7 2301.19 178.068  27
  -2  -9   6 1187.32 125.015  27
  -2  -9   5 2444.35 189.820  27
   2   9  -5 2107.33 177.334  19
   2   9  -4-15.0636 24.3247  19
   2   9  -3 827.443 110.516  19
   2   9  -2 1901.31 171.310  19
   2   9  -1 511.432 85.0249  19
  -3   9   2 1530.71 142.833  15
  -3   9   1 357.776 69.6610  15
  -3   9   0 2074.30 167.039  15
  -3   9   0 1662.77 159.706  19
  -3   9  -1 23.1084 30.8658  19
  -3   9  -2 7422.70 421.204  19
  -3   9  -3 80.3227 39.9044  19
  -3   9  -4 101.818 47.6001  19
  -3   9  -5 2416.32 199.990  19
  -3   9  -6 12.6549 17.2210  19
  -3   8   5 90.8420 39.1422  15
  -3   8   5 6.63766 18.8361  12
  -3   8   4 1015.85 123.685  12
  -3   8   3 2856.89 225.325  12
  -3   8   2 29.0142 31.6515  12
  -3   8   1 2930.68 239.005  15
  -3   8   1 3137.41 240.259  19
  -3   8   0 84.8588 40.6155  15
  -3   8   0 97.6357 43.5793  19
  -3   8  -1 133.846 59.6041  15
  -3   8  -1 103.775 57.4145  19
  -3   8  -2 407.129 94.9938  19
  -3   8  -3 262.446 73.1959  19
  -3   8  -4 10903.9 584.176  19
  -3   8  -5 284.531 74.9707  19
   3  -8   5 454.769 103.877  18
  -3   8  -6 1540.72 163.434  19
  -3   8  -7 5747.12 337.986  19
   3  -8   8 4988.57 301.784   9
  -3   7   6 36.7747 29.3560  12
  -3   7   5 39.3139 39.0756  12
  -3   7   4 8758.88 494.662  12
  -3   7   3 1855.99 192.008  12
  -3   7   2 6772.30 412.643  12
  -3   7   1 22249.8 977.843  12
  -3   7   1 22282.5 986.637  19
  -3   7   0 5097.22 353.098  15
  -3   7   0 6711.80 398.137  19
  -3   7  -1 13809.0 691.118  15
  -3   7  -1 15845.1 739.732  19
  -3   7  -2 936.464 138.823  19
  -3   7  -3 4314.22 322.840  19
  -3   7  -4 193.161 67.4678  19
   3  -7   4 77.5095 45.6385  18
  -3   7  -5 4757.63 333.705  19
   3  -7   5 4329.12 359.136  18
  -3   7  -6 6239.55 391.303  19
   3  -7   6 6132.73 442.435  18
  -3   7  -7 3255.44 247.958  19
   3  -7   8 1986.30 186.937   9
   3  -7   9 6145.32 349.819   9
  -3   6   8 1173.82 119.546  20
  -3   6   8 1175.14 126.702  28
  -3   6   8 1102.06 124.410  12
  -3   6   7 4693.76 310.490  12
  -3   6   7 4401.57 300.969  28
  -3   6   7 4320.22 285.707  20
  -3   6   6 27.7312 35.3907  28
  -3   6   6 84.8811 42.4922  20
  -3   6   6 32.2353 29.5962  12
  -3   6   5 1777.49 179.606  28
  -3   6   5 1867.57 175.320  20
  -3   6   5 1602.06 183.247  12
  -3   6   4 1630.89 167.641  20
  -3   6   4 1954.91 201.831  12
  -3   6   3 12234.6 630.445  12
  -3   6   2 4218.26 300.687  12
  -3   6   1 1249.41 147.116  19
  -3   6   1 1085.20 133.435  12
  -3   6   0 4.57665 23.7566  19
  -3   6  -1 14498.1 696.363  15
  -3   6  -1 15351.5 723.190  19
  -3   6  -2 477.401 85.3481  15
  -3   6  -2 549.099 102.369  19
  -3   6  -3 210.788 68.3472  19
   3  -6   3 286.784 83.2427  18
  -3   6  -4 880.159 126.238  19
   3  -6   4 689.643 134.061  18
  -3   6  -5 9534.26 520.220  19
   3  -6   5 8846.94 578.643  18
   3  -6   6 3812.03 352.010  18
  -3   6  -6 4579.61 314.805  19
   3  -6   7 2623.65 280.574  18
   3  -6   8 2942.94 243.843   9
   3  -6   9-27.3004 30.0529   9
   3  -6  10 2925.50 205.792   9
  -3   5   9 6.19223 25.2476  20
  -3   5   9 38.5093 25.2040  12
  -3   5   9 24.2980 27.7698  28
  -3   5   8 1094.71 142.419  28
  -3   5   8 1024.72 135.852  12
  -3   5   8 1052.61 127.667  20
  -3   5   7 4370.16 311.803  12
  -3   5   7 3606.89 270.007  20
  -3   5   7 3538.55 290.364  28
  -3   5   6 1021.87 147.033  28
  -3   5   6 991.244 133.922  20
  -3   5   6 930.943 141.120  12
  -3   5   5 385.116 74.2499  20
  -3   5   5 363.957 82.6734  28
  -3   5   5 370.863 90.7938  12
  -3   5   4 34.1378 29.4561  20
  -3   5   4 17.5570 30.6057  12
  -3   5   3 7697.08 445.181  12
  -3   5   3 8548.73 424.212  20
  -3   5   2 9807.25 463.230  20
  -3   5   2 8863.02 477.656  12
   3  -5  -1 3434.35 457.977   4
  -3   5   1 3932.43 267.207  19
   3  -5   0 17507.7 1167.52   4
  -3   5   0 19379.0 840.705  19
  -3   5  -1 50.8056 27.2443  15
   3  -5   1 15.7186 50.8137   4
  -3   5  -1 81.3780 41.0589  19
  -3   5  -2 41374.3 1502.01  15
  -3   5  -2 38170.1 1522.50  19
   3  -5   2 40219.1 1976.98   4
  -3   5  -3 6011.53 356.337  19
   3  -5   3 4927.94 372.835  18
   3  -5   3 6471.71 636.746   4
  -3   5  -4 404.072 84.6096  19
   3  -5   4 407.611 100.280  18
   3  -5   5 8134.37 534.005  18
  -3   5  -5 8665.10 472.513  19
  -3   5  -6 550.962 95.2575  19
   3  -5   6 759.887 142.037  18
   3  -5   7 9226.81 516.543   9
   3  -5   8 162.053 61.2362   9
   3  -5   9 3282.25 249.378   9
   3  -5  10 6971.98 376.691   9
  -3   4  10 1768.06 172.123  28
  -3   4  10 1713.60 151.705  20
  -3   4   9 4697.62 307.205  20
  -3   4   9 4675.86 333.367  28
  -3   4   9 5028.52 327.227  12
  -3   4   8 5949.02 361.499  20
  -3   4   8 5291.20 381.642  28
  -3   4   8 5819.70 380.166  12
  -3   4   7-3.32434 43.7733  28
  -3   4   7 12.8177 36.8007  12
  -3   4   7 28.2355 44.9494  20
  -3   4   6 28054.6 1244.44  28
  -3   4   6 29857.2 1201.13  20
  -3   4   6 28477.8 1243.55  12
  -3   4   5 3654.45 276.225  28
  -3   4   5 3422.73 245.141  20
  -3   4   5 2911.89 250.080  12
  -3   4   4 44.9043 38.6194  28
   3  -4  -4-25.8428 68.9421   4
  -3   4   4 43.8477 30.0558  20
  -3   4   4-0.25822 22.4744  12
   3  -4  -3 8541.76 725.172   4
  -3   4   3 9803.28 450.300  20
  -3   4   3 9136.13 474.255  12
  -3   4   3 8526.98 462.005  28
   3  -4  -2 471.064 151.898   4
   3  -4  -1 13970.2 918.588   4
   3  -4   0 7354.14 608.294   4
   3  -4   1 23369.9 1284.62   4
   3  -4   2 8716.41 692.707   4
  -3   4  -3 4688.58 289.432  19
   3  -4   3 4330.12 322.891  18
  -3   4  -4 11493.6 555.005  19
   3  -4   4 11505.6 628.486  18
  -3   4  -5 901.098 114.598  19
   3  -4   5 1132.50 162.936  18
  -3   4  -6 3658.51 259.246  19
   3  -4   6 4228.87 346.647  18
   3  -4   7 1371.57 159.890   9
   3  -4   8 1981.60 193.000   9
   3  -4   9 1932.25 180.927   9
  -3   4 -10 3518.61 260.461  13
   3  -4  10 3016.98 227.458  22
  -3   3  11 1637.72 155.443  28
  -3   3  11 1600.74 141.027  20
  -3   3  10 358.505 80.9665  28
  -3   3  10 461.518 83.9031  20
  -3   3   9 3295.67 254.033  20
  -3   3   9 3409.80 272.488  12
  -3   3   9 3536.78 292.157  28
  -3   3   8 1075.73 158.506  28
  -3   3   8 1117.06 150.331  12
  -3   3   8 1075.00 138.780  20
  -3   3   7 1970.93 185.033  20
  -3   3   7 2112.14 208.272  12
  -3   3   7 2021.88 212.357  28
  -3   3   6 1740.23 162.481  20
  -3   3   6 2086.97 198.812  12
  -3   3   6 1852.56 193.774  28
  -3   3   5 3201.97 251.974  28
  -3   3   5 3413.56 227.175  20
  -3   3   5 3362.76 252.699  12
   3  -3  -4 6858.55 586.980   4
   3  -3  -3 753.374 184.598   4
  -3   3   3 1212.92 217.822   1
   3  -3  -2 259.444 98.8974   4
   3  -3  -1 432.675 136.391   4
   3  -3   0 26404.8 1307.12   4
   3  -3   1 201.465 90.8186   4
   3  -3   2 68043.5 2786.93   4
   3  -3   2 63145.1 2714.00   2
   3  -3   3 6621.56 523.088   2
  -3   3  -4 5102.21 303.367  19
   3  -3   4 5962.73 377.426  18
  -3   3  -5 76.0353 28.1279  19
   3  -3   6 2171.04 196.763   9
  -3   3  -6 2637.95 202.097  19
   3  -3   7 93.7771 49.2494   9
   3  -3   8 3217.27 253.570   9
   3  -3   9 8106.71 441.695   9
  -3   3 -10 11618.5 572.273  13
   3  -3  10 11140.2 546.738  22
  -3   2  11 411.208 77.0022  20
  -3   2  11 390.809 81.4643  28
  -3   2  10 1269.52 162.127  28
  -3   2  10 1005.43 129.575  20
  -3   2   9 8.12893 40.2116  28
  -3   2   9 20.9060 27.3338  20
  -3   2   8 5869.33 379.811  12
  -3   2   8 5088.59 334.764  20
  -3   2   8 6182.38 404.924  28
  -3   2   7 1034.12 138.908  12
  -3   2   7 1179.52 130.126  20
  -3   2   7 1107.92 148.842  28
  -3   2   6 21671.5 961.012  12
  -3   2   6 20891.1 907.997  20
  -3   2   5 1161.76 259.806   1
   3  -2  -4 1495.36 219.541   4
  -3   2   4 1791.71 275.869   1
  -3   2   3 5944.40 478.144   1
   3  -2  -3 5347.79 421.607   4
  -3   2   2 22478.5 1069.36   1
   3  -2  -2 21213.2 1047.25   4
   3  -2  -1 5781.17 434.599   4
  -3   2   1 6999.48 439.886   1
   3  -2   0 10503.9 638.748   4
   3  -2   2 42028.4 1808.93   2
  -3   2  -2 39133.8 1809.75   3
  -3   2  -3 6012.03 555.745   3
  -3   2  -4 96.4140 92.8759   3
  -3   2  -5 32662.6 1350.75  19
   3  -2   5 35688.3 1354.82   9
  -3   2  -5 35664.6 1970.05   3
   3  -2   6 1383.22 147.157   9
   3  -2   7 2907.55 227.195   9
   3  -2   8 1006.35 127.160   9
   3  -2   9 110.904 51.7138  22
  -3   2  -9 166.361 56.0933  13
   3  -2  10 2316.77 186.286  22
  -3   1  12 85.2805 40.2074  20
  -3   1  11 2796.88 219.680  20
  -3   1  11 2940.45 240.755  28
  -3   1  10 5479.14 371.084  28
  -3   1  10 4607.92 316.142  20
  -3   1   9 201.862 77.2514  28
  -3   1   8 3747.81 295.651  28
  -3   1   7 11967.0 621.151  12
  -3   1   7 12824.7 1061.43   1
  -3   1   7 13883.8 644.237  11
  -3   1   7 12726.8 647.902  28
  -3   1   6 5213.22 578.385   1
  -3   1   6 5041.41 310.996  12
  -3   1   6 4862.75 319.242  28
  -3   1   5 9021.05 709.770   1
  -3   1   4 256.771 110.410   1
   3  -1  -3 55680.9 2320.24   4
  -3   1   3 69130.0 2534.85   1
   3  -1  -2 140.094 57.0922   4
  -3   1   2 159.154 67.0642   1
   3  -1  -1 2263.93 231.885   4
  -3   1   0 22.6027 38.1408   3
   3  -1   0 47.6748 50.2368   2
  -3   1  -1 1632.89 221.529   3
   3  -1   1 1301.53 196.784   2
   3  -1   2 7124.74 527.225   2
  -3   1  -2 7159.71 570.198   3
  -3   1  -3 1708.36 299.583   3
  -3   1  -4 2180.37 361.811   3
  -3   1  -5 238.484 128.218   3
  -3   1  -5 208.741 52.5313  19
   3  -1   6 5900.53 341.144   9
  -3   1  -7 3478.79 270.858  13
   3  -1   7 3614.30 264.262  22
   3  -1   7 3116.69 237.244   9
  -3   1  -8 731.220 116.062  13
   3  -1   8 645.011 103.785  22
   3  -1   9 7787.78 429.190  22
   3  -1  10 1419.00 138.415  22
  -3   0  12 19.2886 27.6929  23
  -3   0  12-70.0459 35.5363  20
  -3   0  11 14929.8 700.114  23
  -3   0  11 13613.3 656.264  20
  -3   0  10 552.804 104.942  23
  -3   0   9 166.170 51.7797  23
  -3   0   9 201.379 65.3586  28
  -3   0   9 290.806 82.4193  11
  -3   0   8 5625.99 369.753  11
  -3   0   8 5379.83 352.484  23
  -3   0   8 5736.82 366.733  28
  -3   0   7 3575.02 495.064   1
  -3   0   7 3639.83 262.576  28
  -3   0   7 3591.47 260.810  11
  -3   0   6-42.0410 55.9585   1
  -3   0   5 215.152 91.5943   1
  -3   0   4 12113.0 760.447   1
  -3   0   4 11032.9 627.079   6
  -3   0   3 2808.93 301.886   1
  -3   0   2 3929.71 283.848   5
  -3   0   1 4965.05 379.297   3
   3   0  -1 4258.75 351.075   2
  -3   0   0 495.839 134.314   3
   3   0   0 289.153 90.0719   2
  -3   0  -1 193.204 78.7854   3
  -3   0  -2 6241.61 559.241   3
  -3   0  -3 175.730 110.659   3
  -3   0  -4 685.953 213.839   3
   3   0   4 650.478 86.8736  22
  -3   0  -4 474.754 79.6965  13
  -3   0  -5 56448.3 2247.83  13
   3   0   5 60329.6 2231.27  22
  -3   0  -5 63832.6 3017.88   3
   3   0   6 24.1171 31.9931  22
  -3   0  -6 35.3140 28.8731  13
   3   0   7 1458.74 158.976  22
   3   0   8 344.357 74.0456  22
   3   0   9 7608.60 405.148  22
  -3   0  -9 6193.05 387.578  10
   3   0  10 1019.55 109.015  22
  -3  -1  12 2300.20 198.988  23
  -3  -1  11 2745.63 239.643  23
  -3  -1  10 580.874 98.2184  16
  -3  -1  10 410.367 88.3468  23
  -3  -1  10 610.168 120.892  11
  -3  -1   9 1903.12 196.854  23
  -3  -1   9 1919.09 203.173  11
  -3  -1   9 1769.94 179.627  16
  -3  -1   8 3334.22 263.079  11
  -3  -1   7 2030.32 353.321   1
  -3  -1   7 1664.75 166.734  11
  -3  -1   6 49.3936 31.9164   6
  -3  -1   6 75.4125 63.1074   1
  -3  -1   5 7155.44 578.688   1
  -3  -1   5 5277.33 453.210   6
  -3  -1   4 718.825 163.307   1
  -3  -1   3 73965.2 2910.93   5
   3   1  -3 73604.2 2849.44   2
   3   1  -2 37.0366 24.6266   2
  -3  -1   2 92.3640 57.3714   5
  -3  -1   1 10873.9 704.337   3
  -3  -1   0 24016.9 1253.68   3
  -3  -1  -1 68466.1 2938.59   3
  -3  -1  -2 21364.5 1280.44   3
  -3  -1  -3 1112.71 273.105   3
  -3  -1  -4 6089.97 352.652  13
   3   1   4 5563.85 323.107  22
  -3  -1  -4 6367.67 727.209   3
  -3  -1  -5 2891.71 231.893  13
   3   1   5 3040.29 228.893  22
   3   1   6 3679.69 269.478  22
   3   1   7 601.163 99.8923  22
  -3  -1  -7 507.174 106.234  10
   3   1   8 9896.47 511.912  22
  -3  -1  -8 9719.80 522.260  10
   3   1   9 707.658 100.359  22
  -3  -1  -9 649.639 99.1487  10
  -3  -2  12 512.798 91.6267  23
  -3  -2  11 6559.70 426.315  23
  -3  -2  11 6819.37 439.292  11
  -3  -2  11 7368.35 403.807  16
  -3  -2  10 289.416 79.0693  23
  -3  -2  10 263.419 72.5234  16
  -3  -2  10 206.750 76.1486  11
  -3  -2   9 1280.39 146.256  16
  -3  -2   9 1452.66 172.901  11
  -3  -2   8 21132.8 896.961  16
  -3  -2   8 18406.0 1297.90   6
  -3  -2   8 20343.1 929.678  11
  -3  -2   7 29254.6 1626.47   6
  -3  -2   7 30036.3 1702.95   1
  -3  -2   7 30555.5 1223.84  16
  -3  -2   6 4050.16 475.336   1
  -3  -2   6 3997.19 438.087   6
  -3  -2   5 1347.24 247.812   1
  -3  -2   4 7820.27 592.154   5
  -3  -2   3 3469.61 359.452   5
  -3  -2   2 6345.15 508.540   5
  -3  -2   1 108.022 60.0817   3
  -3  -2   0 30830.8 1642.92   3
  -3  -2  -1 2620.18 389.605   3
  -3  -2  -2 8384.84 781.199   3
  -3  -2  -3 3293.05 261.232  13
  -3  -2  -3 3872.40 572.574   3
   3   2   3 3825.64 244.436  22
  -3  -2  -3 4193.59 278.188  10
   3   2   4 6555.51 378.035  22
  -3  -2  -4 6989.61 406.636  10
   3   2   5 1035.03 127.896  22
  -3  -2  -5 1182.30 147.283  10
   3   2   6 5331.53 341.515  22
  -3  -2  -6 4746.67 339.289  10
  -3  -2  -7 383.931 85.2846  10
   3   2   7 401.624 83.1082  22
   3   2   8 4226.71 282.750  22
  -3  -2  -8 4341.98 286.209  10
   3   2   9 2470.77 183.815  22
  -3  -3  12 160.692 55.1133  11
  -3  -3  12 171.319 60.4378  23
  -3  -3  11 568.786 109.945  23
  -3  -3  11 457.838 101.739  11
  -3  -3  10 3171.07 278.686  11
  -3  -3  10 3111.28 247.534  16
  -3  -3   9 482.559 103.585  11
  -3  -3   9 488.468 89.8719  16
  -3  -3   8 9216.74 488.719  21
  -3  -3   8 9264.66 492.305  16
  -3  -3   7 299.188 65.7918  27
  -3  -3   7 371.033 75.8239  21
  -3  -3   7 216.558 56.4207  16
  -3  -3   7 292.712 164.099   1
  -3  -3   7 214.877 104.661   6
  -3  -3   7 321.512 71.5673  14
  -3  -3   6 12215.8 543.808  27
  -3  -3   6 12500.9 916.677   1
  -3  -3   6 11028.3 551.744  14
  -3  -3   6 12144.5 563.119  21
  -3  -3   6 11369.2 552.808  16
  -3  -3   6 11309.7 856.112   6
  -3  -3   5 6998.21 647.135   1
  -3  -3   4 2642.17 350.985   5
  -3  -3   3 1095.11 218.800   5
  -3  -3   2 15242.6 973.142   5
  -3  -3   1 2914.00 415.852   3
  -3  -3   0 21063.9 1344.93   3
  -3  -3  -1 7006.19 717.382   3
  -3  -3  -1 6352.60 359.386  10
   3   3   2 2607.36 200.169  22
  -3  -3  -2 2725.14 480.466   3
  -3  -3  -2 2930.56 223.186  10
   3   3   3 17139.2 747.160  22
  -3  -3  -3 15583.4 758.867  10
   3   3   4 103.003 43.0500  22
  -3  -3  -4 73.5179 28.4271  10
   3   3   5 3896.40 285.178  22
  -3  -3  -5 3849.96 299.316  10
   3   3   6 110.435 49.1460  22
  -3  -3  -6 72.3183 40.2217  10
   3   3   7 494.707 87.3244  26
   3   3   7 418.183 84.3718  22
  -3  -3  -7 489.225 79.7448  10
   3   3   8 13220.6 615.157  17
  -3  -4  12 924.883 126.667  23
  -3  -4  12 686.739 110.155  11
  -3  -4  11 657.493 115.626  11
  -3  -4  10 3698.37 304.034  11
  -3  -4   9 891.387 129.205  21
  -3  -4   9 1008.03 136.018  16
  -3  -4   8 14991.5 725.734  14
  -3  -4   8 14644.2 704.143  27
  -3  -4   8 15010.1 726.270  21
  -3  -4   8 16084.4 730.687  16
  -3  -4   7 9153.65 486.260  27
  -3  -4   7 9369.77 506.830  14
  -3  -4   7 10069.7 518.479  21
  -3  -4   7 9703.87 506.219  16
  -3  -4   6 4133.83 265.227  27
  -3  -4   6 4393.48 287.354  14
  -3  -4   6 4001.12 292.168   7
  -3  -4   6 4181.40 511.189   1
  -3  -4   6 3991.78 283.131  21
  -3  -4   6 4135.59 518.842   6
  -3  -4   6 3946.17 273.761  16
  -3  -4   5 13640.5 659.956   7
  -3  -4   5 13025.6 637.845  21
  -3  -4   5 14225.9 1024.69   5
  -3  -4   5 12806.6 618.819  16
  -3  -4   4 793.051 106.016  21
  -3  -4   4 602.992 103.040   7
  -3  -4   4 825.080 227.015   5
  -3  -4   4 666.799 91.3538  16
  -3  -4   3 6572.75 373.678  21
  -3  -4   3 6339.95 394.693   7
  -3  -4   3 6730.20 403.666  13
  -3  -4   3 6467.39 626.868   5
  -3  -4   2 33.3194 23.1775  13
  -3  -4   2 57.5953 35.9200  21
  -3  -4   2 34.0980 31.5343   7
  -3  -4   2-35.8780 73.8967   5
  -3  -4   2 38.9206 25.5300  10
  -3  -4   1 209.720 62.0735  13
  -3  -4   1 285.914 74.5007   7
  -3  -4   1 272.478 149.694   5
  -3  -4   1 308.492 65.7873  10
  -3  -4   0 45180.7 1951.30   7
  -3  -4   0 49540.9 2586.47   3
  -3  -4   0 52942.2 1919.31  10
  -3  -4  -1 185.896 116.510   3
  -3  -4  -1 424.718 79.1539  10
  -3  -4  -2 14512.3 693.806  10
  -3  -4  -3 4649.52 321.441  10
  -3  -4  -4 11024.4 583.422  10
  -3  -4  -5 3559.56 269.635  10
   3   4   6 398.280 84.1583  26
   3   4   6 325.690 79.0023  17
   3   4   7 61.7443 31.2268  26
   3   4   7-19.9105 23.3260  17
  -3  -5  12 1495.06 161.947  23
  -3  -5  12 1487.53 156.656  11
  -3  -5  11 878.292 131.310  11
  -3  -5  10 43.8745 34.2397  11
  -3  -5   9 450.782 89.7979  27
  -3  -5   9 482.708 98.8852  21
  -3  -5   8 11349.5 573.573  27
  -3  -5   8 10552.2 586.473  21
  -3  -5   8 11608.4 600.635  14
  -3  -5   7 169.212 48.9383  27
  -3  -5   7 276.764 77.7277  14
  -3  -5   7 269.569 72.6196  21
  -3  -5   6 7225.03 409.147  27
  -3  -5   6 7129.77 428.273  14
  -3  -5   6 6806.13 451.245   7
  -3  -5   6 8271.29 458.747  21
  -3  -5   5 675.128 105.443  14
  -3  -5   5 526.792 99.5170  21
  -3  -5   5 508.051 107.420   7
  -3  -5   4 10922.0 624.207   7
  -3  -5   4 11906.6 597.021  21
   3   5  -4 11304.8 573.619  19
  -3  -5   3 14200.2 761.801   7
  -3  -5   3 15633.7 725.645  21
   3   5  -3 14593.1 716.810  19
  -3  -5   3 15705.1 1139.50   5
  -3  -5   2 174.252 62.2929   7
   3   5  -2 325.018 86.0530  19
  -3  -5   2 363.978 76.4354  21
  -3  -5   1 40.7782 31.3134  10
  -3  -5   0 1860.12 188.575  10
  -3  -5  -1 14619.5 709.659  10
  -3  -5  -2 678.905 115.450  10
   3   5   3 1022.31 162.425  19
  -3  -5  -3 1133.07 145.805  10
   3   5   4 3558.14 286.358  19
  -3  -5  -4 4078.38 282.757  10
   3   5   4 3700.41 308.511  17
   3   5   5 2770.94 245.489  17
   3   5   6 2450.66 193.234  26
   3   5   6 2355.80 202.024  17
  -3  -6  11 4105.75 290.416  11
  -3  -6  10 28.6985 26.7752  11
  -3  -6   9 1123.38 138.688  27
  -3  -6   8 2148.70 200.297  27
  -3  -6   8 2316.25 220.851  14
  -3  -6   8 2035.28 215.759  21
  -3  -6   7 14467.5 721.402  27
  -3  -6   7 16355.8 767.879  14
  -3  -6   7 15654.2 777.070  21
  -3  -6   6 85.6220 53.5497  14
  -3  -6   6 59.5217 49.4875  21
  -3  -6   5 4845.35 356.496  21
  -3  -6   5 4798.00 334.900  14
  -3  -6   4 9492.96 513.894  14
  -3  -6   4 9524.61 545.551  21
   3   6  -4 9403.06 519.158  19
  -3  -6   3 7769.82 439.668  14
  -3  -6   3 7653.56 459.439  21
   3   6  -3 6915.15 449.271  19
  -3  -6   2 8673.09 484.348  14
   3   6  -2 8973.31 522.126  19
   3   6  -1 2277.62 241.781  19
   3   6   0 176.265 71.6053  19
   3   6   1 5228.92 380.485  19
   3   6   1 4785.50 341.417  17
   3   6   2 318.151 86.4607  19
   3   6   2 136.103 49.8432  17
   3   6   3 14248.9 696.420  19
   3   6   3 13291.6 690.332  17
   3   6   4 6486.10 395.271  17
  -3  -7  10 1205.87 142.140  11
  -3  -7   9 826.189 112.970  27
  -3  -7   8 308.562 76.2121  27
  -3  -7   7 6341.16 391.229  27
  -3  -7   7 6919.49 420.712  14
  -3  -7   6 597.605 100.927  27
  -3  -7   6 733.909 120.282  14
  -3  -7   5 16786.4 747.432  14
   3   7  -5 13646.4 696.287  19
  -3  -7   4 5386.97 337.369  14
   3   7  -4 3894.59 305.687  19
  -3  -7   3 979.397 131.455  14
   3   7  -3 894.579 135.263  19
   3   7  -2 8504.46 505.064  19
   3   7  -1 657.687 122.847  19
   3   7   0 41.4981 47.2126  19
   3   7   1 1348.73 173.262  19
   3   7   2 308.931 76.8840  19
   3   7   2 335.958 73.2274  17
   3   7   3 1738.82 162.200  26
  -3  -8   9 854.878 102.582  27
  -3  -8   8 10.3932 21.0296  27
  -3  -8   7 806.331 111.361  27
  -3  -8   6 1382.46 147.901  27
  -3  -8   5 199.491 59.3408  14
   3   8  -5 129.648 50.1032  19
  -3  -8   4-19.5564 19.5116  14
   3   8  -4 23.6071 29.8967  19
   3   8  -3 2759.23 231.589  19
   3   8  -2 46.4172 28.4598  19
   3   8  -1 127.787 50.1635  19
   3   8   0 4113.11 279.773  19
  -3  -9   5 623.245 84.0542  27
  -3  -9   4 2775.90 193.091  27
  -4   9   1 1313.22 126.119  15
  -4   9   0 1034.20 112.208  15
  -4   9   0 1091.88 115.554  19
  -4   9  -1 4952.88 303.495  19
  -4   9  -2 3173.17 233.279  19
  -4   9  -3 15060.2 688.569  19
  -4   9  -4 274.871 59.9827  19
  -4   8   4 258.721 60.1423  15
  -4   8   4 301.013 61.2070  12
  -4   8   3 43.2879 35.2195  15
  -4   8   2 181.472 56.0395  15
  -4   8   1 791.082 114.874  15
  -4   8   0 5503.94 345.433  15
  -4   8   0 5509.41 352.351  19
  -4   8  -1 3802.68 277.565  15
  -4   8  -1 4690.02 317.938  19
  -4   8  -2 162.761 60.9268  19
  -4   8  -3 1499.83 171.312  19
  -4   8  -4 92.2548 44.7992  19
  -4   8  -5 108.185 42.8165  19
  -4   8  -6 122.796 43.1964  19
   4  -8   7 20.4701 23.3628   9
  -4   7   6 321.415 64.0954  15
  -4   7   6 394.041 73.8587  12
  -4   7   5 920.527 123.951  15
  -4   7   5 961.526 126.145  12
  -4   7   4 150.340 55.1091  15
  -4   7   4 183.088 55.6757  12
  -4   7   3 156.062 60.7156  15
  -4   7   3 194.761 58.9818  12
  -4   7   2 997.913 143.974  15
  -4   7   1 652.835 110.680  15
  -4   7   1 531.971 100.230  19
  -4   7   0 5575.14 368.603  15
  -4   7   0 5906.02 383.299  19
  -4   7  -1 1510.71 167.120  15
  -4   7  -1 1626.23 188.305  19
  -4   7  -2 3248.53 253.273  15
  -4   7  -2 3141.41 270.137  19
  -4   7  -3 8274.22 494.545  19
  -4   7  -4 206.789 66.2484  19
  -4   7  -5 8345.63 482.680  19
  -4   7  -6 10134.9 533.695  19
  -4   7  -7 4780.01 305.541  13
   4  -7   7 4392.60 303.798   9
  -4   7  -7 4484.25 286.904  19
   4  -7   8 1494.48 143.444   9
  -4   7  -8 1478.01 144.973  13
  -4   6   8 695.105 95.0918  12
  -4   6   7 1957.82 177.510  15
  -4   6   7 2276.96 202.270  12
  -4   6   7 2377.43 201.799  28
  -4   6   6 661.612 108.921  15
  -4   6   6 717.105 110.974  28
  -4   6   6 740.104 114.921  12
  -4   6   5 10380.1 567.429  12
  -4   6   4 77.5352 54.4062  12
  -4   6   3 8594.44 493.676  12
  -4   6   2 14517.1 728.031  15
  -4   6   1 14923.4 750.937  15
  -4   6   1 16257.0 755.733  19
  -4   6   0 1251.07 151.947  15
  -4   6   0 1388.26 161.246  19
  -4   6  -1 960.169 130.578  15
  -4   6  -1 763.674 123.148  19
  -4   6  -2 197.408 55.0586  15
  -4   6  -2 333.384 81.1078  19
  -4   6  -3 7417.63 456.397  19
  -4   6  -4 15776.2 775.529  19
  -4   6  -5 3571.94 281.877  19
  -4   6  -6 7344.28 432.178  19
   4  -6   7 2213.40 201.787   9
  -4   6  -7 2235.25 194.478  19
   4  -6   8 970.556 121.666   9
  -4   6  -8 1204.68 147.004  13
  -4   6  -9 2591.46 207.187  13
  -4   5   9 4443.46 263.427  20
  -4   5   9 4896.92 303.856  28
  -4   5   8 977.350 136.550  28
  -4   5   8 1059.80 133.218  12
  -4   5   8 755.369 102.791  20
  -4   5   7 2905.27 255.705  28
  -4   5   7 2636.81 213.852  20
  -4   5   7 2972.36 256.528  12
  -4   5   6 393.709 81.5481  20
  -4   5   6 444.311 94.6829  12
  -4   5   6 317.320 83.7131  28
  -4   5   5 1566.88 160.470  20
  -4   5   5 1596.85 187.373  12
  -4   5   5 1645.56 189.537  28
  -4   5   4 11251.0 535.833  20
  -4   5   4 10753.9 580.100  12
  -4   5   4 9791.87 555.136  28
  -4   5   3 218.981 61.9835  12
  -4   5   2 6479.28 399.701  15
  -4   5   1 249.370 74.1689  15
  -4   5   1 275.281 66.9530  19
  -4   5   0 66.5256 41.9962  15
   4  -5   0 241.819 145.711   4
  -4   5   0 137.587 45.9457  19
  -4   5  -1 1882.76 184.890  15
  -4   5  -1 2142.66 201.878  19
  -4   5  -2 1421.80 156.704  15
  -4   5  -2 1459.29 162.470  19
  -4   5  -3 4835.95 334.201  19
  -4   5  -4 12390.2 634.510  19
  -4   5  -5 10375.8 557.991  19
  -4   5  -6 471.489 88.4667  19
   4  -5   7 427.069 86.5028   9
  -4   5  -7 271.650 61.5074  19
   4  -5   8 22.3081 23.5292   9
  -4   5  -8 18.2477 24.5242  13
   4  -5   9 6952.25 393.208  22
   4  -5   9 8035.62 410.108   9
  -4   4  10 254.036 59.9047  28
  -4   4  10 144.060 39.7790  20
  -4   4   9 23.6764 31.1724  20
  -4   4   9 49.6674 39.4273  28
  -4   4   8 774.910 130.712  28
  -4   4   8 509.690 89.1592  20
  -4   4   8 574.160 111.205  12
  -4   4   7 83.2259 64.1115  28
  -4   4   7 38.0721 49.2567  12
  -4   4   6 95.8285 58.6048  28
  -4   4   6 246.753 70.6117  20
  -4   4   6 59.6932 53.6520  12
  -4   4   5 9527.43 464.784  20
  -4   4   5 9119.98 515.020  12
  -4   4   4 1332.61 157.009  28
  -4   4   4 1190.70 131.500  20
  -4   4   4 1400.33 163.860  12
  -4   4   3 11183.1 571.193  28
  -4   4   3 12022.4 535.614  20
  -4   4   3 11118.0 565.618  12
  -4   4   2 7060.21 398.358  15
   4  -4  -2 6033.34 607.483   4
  -4   4   1 1347.12 141.034  15
  -4   4   1 1175.51 132.712  19
   4  -4  -1 1341.51 268.684   4
  -4   4   0 756.899 104.028  15
   4  -4   0 724.491 206.077   4
  -4   4   0 788.167 105.581  19
  -4   4  -1 48623.6 1912.49  15
  -4   4  -1 49739.1 1925.55  19
   4  -4   1 52843.3 2420.69   4
  -4   4  -2 2504.46 205.107  15
  -4   4  -2 2514.96 209.477  19
   4  -4   2 2631.06 372.922   2
   4  -4   3 3694.30 263.500  25
  -4   4  -3 4125.01 283.669  19
  -4   4  -4 77.8031 46.1875  19
  -4   4  -5-5.83942 28.5605  19
   4  -4   6 12533.9 622.973   9
  -4   4  -6 12325.0 615.337  19
   4  -4   7 34.0276 33.9130   9
   4  -4   8 9914.53 515.346   9
  -4   4  -8 10985.9 586.552  13
  -4   4  -9 12113.1 574.179  13
   4  -4   9 10799.3 501.761   9
  -4   3  10 1232.57 142.863  24
  -4   3  10 1096.80 120.599  20
  -4   3  10 1097.98 143.261  28
  -4   3   9-14.3544 40.6037  28
  -4   3   9 43.9549 47.0542  20
  -4   3   8 3090.39 292.396  28
  -4   3   8 3469.48 286.356  12
  -4   3   8 2980.05 236.113  20
  -4   3   7 32863.5 1436.77  28
  -4   3   7 34822.0 1423.76  12
  -4   3   7 32295.2 1341.56  20
  -4   3   6 7465.12 409.159  20
  -4   3   6 8127.06 471.998  12
  -4   3   6 7553.63 473.489  28
  -4   3   5 4307.83 316.885  28
  -4   3   5 4043.40 261.259  20
  -4   3   5 4034.88 297.749  12
  -4   3   4 16.2072 24.5383  28
  -4   3   4 122.537 37.6140  20
  -4   3   4 102.577 38.7653  12
  -4   3   3 1763.81 159.828  15
   4  -3  -3 1378.00 251.942   4
  -4   3   3 1498.47 156.235  28
   4  -3  -2 6810.32 576.406   4
   4  -3  -1 46.6616 54.3288   4
   4  -3   0 44890.5 2091.09   4
   4  -3   1 87798.5 3640.55   2
   4  -3   2 28240.2 1146.37  25
  -4   3  -2 27328.9 1144.55  19
   4  -3   2 30343.8 1509.49   2
   4  -3   3 2481.73 196.894  25
  -4   3  -3 2310.53 197.954  19
  -4   3  -4 5689.16 347.961  19
  -4   3  -5 1546.07 158.965  19
   4  -3   6 640.666 93.7364   9
  -4   3  -6 546.708 90.8478  19
   4  -3   7 4559.25 300.806   9
  -4   3  -7 4857.01 355.305  13
   4  -3   8 391.977 80.9488  22
  -4   3  -8 509.859 105.189  13
   4  -3   9 163.361 46.8565  22
  -4   3  -9 216.560 64.9419  13
  -4   2  11 2523.95 215.376  28
  -4   2  10 1055.72 146.817  28
  -4   2  10 878.183 109.231  20
  -4   2   9 419.763 100.969  28
  -4   2   9 495.796 85.8712  20
  -4   2   9 567.250 110.039  24
  -4   2   8 17659.2 793.678  20
  -4   2   8 18559.7 896.767  28
  -4   2   7 15954.0 777.098  12
  -4   2   7 15930.2 800.885  28
  -4   2   6 6238.32 400.366  12
  -4   2   6 7156.50 436.841  28
  -4   2   5 1432.95 161.829  28
  -4   2   5 1290.87 146.448  12
  -4   2   5 1459.29 293.973   1
  -4   2   4 3140.06 399.824   1
  -4   2   4 3035.08 237.233  28
  -4   2   3 5851.64 521.206   1
  -4   2   2 957.266 185.802   1
   4  -2  -2 777.748 159.375   4
   4  -2  -1 18484.7 1015.75   4
   4  -2   0 1980.98 296.051   2
   4  -2   1 410.436 138.578   2
  -4   2  -2 5830.40 329.554  19
   4  -2   2 6002.69 540.604   2
   4  -2   3 509.528 83.2961  25
  -4   2  -3 611.086 100.356  13
  -4   2  -3 584.360 90.4519  19
   4  -2   4 4728.63 299.724  25
  -4   2  -4 4867.26 333.408  13
  -4   2  -4 4701.69 310.935  19
  -4   2  -5 12544.5 658.075  13
  -4   2  -5 12802.4 618.481  19
  -4   2  -6 81.8143 42.4446  13
  -4   2  -6 111.157 43.4573  19
  -4   2  -7 2116.91 217.153  13
   4  -2   7 2137.84 192.092  22
  -4   2  -8 5047.89 340.135  13
   4  -2   8 4601.03 301.033  22
   4  -2   9 540.561 82.1488  22
  -4   2  -9 626.362 95.0003  13
  -4   1  11 10.5692 31.2250  28
  -4   1  10 298.323 86.1814  28
  -4   1  10 262.040 65.5355  16
  -4   1   9 4490.40 321.078  24
  -4   1   9 4087.39 331.212  28
  -4   1   8 294.653 77.6904  24
  -4   1   8 291.552 94.1027  28
  -4   1   7 535.557 108.186  28
  -4   1   6 1393.90 163.133  28
  -4   1   6 1216.52 282.328   1
  -4   1   5 3771.62 275.277  28
  -4   1   5 4043.25 485.519   1
  -4   1   4 65178.1 2837.61   1
  -4   1   3 56844.0 2477.90   1
  -4   1   2 316.356 108.235   1
   4  -1  -1 15913.5 930.592   2
   4  -1   0 16080.1 947.357   2
   4  -1   1 1234.30 221.328   2
  -4   1  -2 2092.27 186.302  13
  -4   1  -2 2186.96 184.381  19
  -4   1  -2 2277.45 353.103   3
   4  -1   3 2.22335 19.0146  25
  -4   1  -3 59.7466 86.2784   3
  -4   1  -3 47.5714 35.2965  13
  -4   1  -3 83.3215 35.4586  19
   4  -1   4 129365. 4624.88  25
  -4   1  -4 126558. 4682.31  13
  -4   1  -4 125899. 4650.95  19
  -4   1  -4 121351. 5377.45   3
  -4   1  -5 27810.2 1194.43  13
   4  -1   5 27183.5 1126.83  22
   4  -1   6 1596.49 157.222  22
  -4   1  -6 1558.02 182.916  13
   4  -1   7 40.1938 34.9156  22
  -4   1  -7 43.1738 33.1325  13
  -4   1  -8 2695.98 223.580  13
   4  -1   8 2299.84 198.162  22
   4  -1   9 1827.71 155.230  22
  -4   1  -9 1803.72 167.502  10
  -4   0  10 58.3681 37.2356  16
  -4   0  10 43.0991 38.0015  28
  -4   0   9 2507.22 240.022  28
  -4   0   9 2175.34 221.168  11
  -4   0   8 605.558 116.255  28
  -4   0   8 552.643 103.438  24
  -4   0   8 519.027 102.564  11
  -4   0   7 0.67603 28.9253  28
  -4   0   7 58.1896 36.3466  24
  -4   0   7 24.2160 28.5602  11
  -4   0   6 631.196 96.2837  24
  -4   0   6 688.073 106.487  28
  -4   0   6 426.743 154.904   1
  -4   0   5 11474.3 860.801   1
  -4   0   4 301914. 11175.4   1
   4   0  -3 37017.8 1685.25   2
   4   0  -2 1198.09 202.754   2
  -4   0   1 2900.41 328.624   3
   4   0  -1 2394.48 297.561   2
  -4   0   0 23217.9 1251.08   3
   4   0   0 22123.3 1194.59   2
  -4   0  -1 7037.90 635.484   3
   4   0   2 158.787 45.0164  25
  -4   0  -2 190.786 118.071   3
  -4   0  -2 25.5732 28.4879  13
   4   0   3 13992.3 664.173  25
  -4   0  -3 14056.1 686.844  13
  -4   0  -3 16101.6 1177.14   3
  -4   0  -4 14947.9 726.345  13
  -4   0  -5 12722.1 657.958  13
   4   0   5 13066.6 613.364  22
   4   0   6 427.663 84.5186  22
  -4   0  -6 353.417 84.2443  13
   4   0   7 798.195 111.669  22
  -4   0  -7 686.756 109.313  13
  -4   0  -7 628.173 113.291  10
   4   0   8 87.2370 39.3160  22
  -4   0  -8 196.293 61.4642  10
  -4   0  -9 2238.40 179.446  10
  -4  -1  11 809.556 114.060  16
  -4  -1  10 53.7153 32.3403  16
  -4  -1  10 121.419 64.3978  11
  -4  -1   9-25.5496 39.9849  16
  -4  -1   9 53.6754 47.1415  11
  -4  -1   8 8809.02 492.644  28
  -4  -1   8 8930.98 498.641  11
  -4  -1   7 6071.62 364.612  24
  -4  -1   7 5469.54 356.968  28
  -4  -1   7 6283.16 372.541  11
  -4  -1   6 556.117 91.1681  24
  -4  -1   6 347.095 150.556   1
  -4  -1   6 347.148 73.7272  28
  -4  -1   5 11828.1 882.715   1
  -4  -1   4 4232.66 469.770   1
   4   1  -3 8069.81 563.442   2
  -4  -1   3 8877.14 599.992   5
  -4  -1   2 5645.26 468.189   5
  -4  -1   1 447.535 132.990   3
  -4  -1   0 10507.7 820.691   3
   4   1   1 6953.49 383.453  25
  -4  -1  -1 7138.40 394.487  13
  -4  -1  -1 7227.07 699.188   3
  -4  -1  -1 6749.51 376.864  10
  -4  -1  -2 8150.55 456.191  13
  -4  -1  -2 8861.11 854.210   3
  -4  -1  -2 8142.90 446.006  10
  -4  -1  -3 2258.62 444.968   3
  -4  -1  -3 2092.12 208.173  13
  -4  -1  -3 2393.46 210.726  10
  -4  -1  -4 6814.02 414.695  13
   4   1   4 6582.13 372.814  22
  -4  -1  -4 6721.43 429.139  10
   4   1   5 245.730 62.9932  22
  -4  -1  -5 322.730 74.8054  13
  -4  -1  -5 439.498 106.555  10
   4   1   6 3347.86 252.216  22
  -4  -1  -6 3417.84 284.360  10
   4   1   7 5236.69 322.270  22
  -4  -1  -7 4860.18 336.358  10
   4   1   8 14653.2 633.619  22
  -4  -1  -8 13194.4 644.038  10
  -4  -2  12 380.850 73.9501  16
  -4  -2  11 399.814 91.4108  11
  -4  -2  11 477.742 86.8420  16
  -4  -2  10 1868.32 189.070  16
  -4  -2  10 1737.86 197.169  11
  -4  -2   9 4652.84 347.593  11
  -4  -2   9 5707.20 357.409  16
  -4  -2   8 7545.09 443.625  11
  -4  -2   8 7025.54 417.443  16
  -4  -2   7 2393.58 205.294  16
  -4  -2   6 7493.79 405.261  24
  -4  -2   6 7067.69 700.836   1
  -4  -2   5 4380.96 308.520  13
  -4  -2   5 3998.31 261.235   8
  -4  -2   5 4582.29 282.198  24
  -4  -2   5 4989.96 543.015   1
  -4  -2   4 7495.83 620.401   5
  -4  -2   3 34.8867 36.9804   5
  -4  -2   2 6314.27 562.664   5
  -4  -2   1 67931.8 2623.17  13
  -4  -2   1 76400.6 3193.82   3
  -4  -2   0 84342.4 3261.38  13
  -4  -2   0 89319.2 3876.69   3
  -4  -2   0 89898.8 3237.02  10
  -4  -2  -1 1552.63 371.132   3
  -4  -2  -1 1827.90 180.499  13
  -4  -2  -1 1687.35 175.432  10
  -4  -2  -2 4769.56 335.051  13
  -4  -2  -2 4916.37 649.845   3
  -4  -2  -2 4566.47 317.233  10
  -4  -2  -3 1142.98 150.086  13
   4   2   3 1071.60 124.958  22
  -4  -2  -3 1202.73 150.087  10
   4   2   4 269.491 63.0133  22
  -4  -2  -4 373.550 81.8595  13
  -4  -2  -4 306.872 82.9711  10
   4   2   5 1856.23 178.134  22
  -4  -2  -5 1969.96 207.531  10
   4   2   6 1863.40 176.822  22
  -4  -2  -6 1703.93 187.432  10
   4   2   7 17289.2 773.788  22
  -4  -2  -7 18385.5 805.487  10
  -4  -3  12 1318.72 148.985  11
  -4  -3  11 95.4740 52.1471  11
  -4  -3  11 133.352 51.5555  16
  -4  -3  10 1246.66 162.088  11
  -4  -3  10 1337.32 154.197  16
  -4  -3   9 26066.3 1120.19  21
  -4  -3   9 26603.2 1163.26  11
  -4  -3   9 25768.6 1125.64  16
  -4  -3   8 21515.6 924.682  21
  -4  -3   8 19223.7 903.873  16
  -4  -3   7 139.998 47.6017  27
  -4  -3   7 67.6167 34.0813  14
  -4  -3   7 139.926 54.3555  21
  -4  -3   7 73.0378 37.4319  16
  -4  -3   6 10085.3 492.251  24
  -4  -3   6 9627.01 865.242   1
  -4  -3   6 9506.62 507.495   7
  -4  -3   6 8426.28 756.709   6
  -4  -3   6 8915.59 483.062  16
  -4  -3   5 3091.94 229.320  24
  -4  -3   5 2826.38 433.775   1
  -4  -3   5 2800.16 232.175   7
  -4  -3   5 2580.84 207.362  16
  -4  -3   4 4012.37 292.947  13
  -4  -3   4 3634.11 258.016  24
  -4  -3   4 3520.32 269.189   7
  -4  -3   4 3960.92 474.508   5
  -4  -3   4 3406.36 232.940  16
  -4  -3   3 14009.2 674.992  13
  -4  -3   3 14398.7 672.118   7
  -4  -3   3 12453.2 618.670  10
  -4  -3   3 13115.3 948.100   5
  -4  -3   2 3922.17 287.656  13
  -4  -3   2 4292.41 295.959   7
  -4  -3   2 3678.30 261.660  10
  -4  -3   2 3885.80 488.187   5
  -4  -3   1 42706.6 1663.60  13
  -4  -3   1 40281.4 1658.11   7
  -4  -3   1 40779.0 1624.31  10
  -4  -3   0 1505.98 357.357   3
  -4  -3   0 1601.58 178.012   7
  -4  -3   0 1701.23 184.359  13
  -4  -3   0 1830.81 176.047  10
  -4  -3  -1 4.42374 21.0038  13
  -4  -3  -1 35.3520 23.7172  10
  -4  -3  -2 278.629 82.2513  13
  -4  -3  -2 428.823 91.5135  10
   4   3   3 10015.8 517.940  22
  -4  -3  -3 10215.5 553.504  10
   4   3   4 14.6070 32.3599  22
  -4  -3  -4-6.46982 34.1027  10
   4   3   5 2779.33 224.908  22
  -4  -3  -5 3048.69 251.665  10
  -4  -3  -6 283.562 65.4488  10
   4   3   7 643.233 94.6960  17
  -4  -4  12 140.948 52.5135  11
  -4  -4  11 2301.19 217.992  11
  -4  -4  10 289.537 86.9256  11
  -4  -4  10 316.105 77.1412  16
  -4  -4   9 5470.38 369.989  21
  -4  -4   9 5772.52 371.369  16
  -4  -4   8 8.25900 31.5249  27
  -4  -4   8 36.0068 49.0493  14
  -4  -4   8-28.2796 30.8092  21
  -4  -4   8 57.1798 52.5307  16
  -4  -4   7 975.578 119.805  27
  -4  -4   7 1203.37 144.863  14
  -4  -4   7 1181.41 150.072  21
  -4  -4   7 1004.43 144.252   7
  -4  -4   7 898.878 129.646  16
  -4  -4   6 45.4542 20.0429  27
  -4  -4   6 62.0270 31.0106  21
  -4  -4   6 66.7445 54.0801   7
  -4  -4   6 24.3702 21.5895  16
  -4  -4   5 12786.5 645.795   7
  -4  -4   5 12343.4 614.517  21
  -4  -4   5 10978.2 568.161  16
  -4  -4   4 3553.53 300.926  13
  -4  -4   4 3542.91 301.247   7
  -4  -4   4 3524.93 268.308  21
  -4  -4   3 13200.5 696.699  13
  -4  -4   3 11548.0 639.450  21
  -4  -4   3 11896.1 997.869   5
  -4  -4   2 87.9396 49.7646  13
  -4  -4   2 53.8246 43.1043  21
  -4  -4   2 110.719 56.2837   7
  -4  -4   2 222.277 58.1849  10
  -4  -4   1 7610.36 481.492  13
  -4  -4   1 8439.53 512.197   7
  -4  -4   1 8836.04 473.495  10
  -4  -4   0 331.095 91.0217  13
  -4  -4   0 222.397 79.5459   7
  -4  -4   0 509.302 101.046  10
  -4  -4  -1 1254.44 156.772  10
  -4  -4  -2 5826.12 379.572  10
  -4  -4  -3 991.467 139.214  10
  -4  -4  -4 5059.04 346.194  10
  -4  -4  -5 1622.82 163.348  10
   4   4   6 68.8595 33.0566  17
  -4  -5  12 3196.84 230.890  11
  -4  -5  11 2708.17 231.209  11
  -4  -5  10 267.189 67.3895  21
  -4  -5  10 168.724 60.1358  11
  -4  -5   9 3361.44 267.575  14
  -4  -5   9 3214.39 271.293  21
  -4  -5   8 369.671 73.7446  27
  -4  -5   8 372.418 86.8791  14
  -4  -5   8 427.291 95.8272  21
  -4  -5   7 1814.81 175.659  27
  -4  -5   7 1752.93 189.048  14
  -4  -5   7 1632.16 200.627   7
  -4  -5   7 1763.73 196.077  21
  -4  -5   6 9836.92 533.663  14
  -4  -5   6 9592.28 500.295  27
  -4  -5   6 9018.04 566.431   7
  -4  -5   6 10061.6 552.852  21
  -4  -5   5 8846.85 554.007   7
  -4  -5   5 8956.62 520.379  21
  -4  -5   4 7125.24 488.732   7
  -4  -5   4 7653.47 453.477  21
   4   5  -4 6835.43 423.763  19
  -4  -5   3 8870.93 562.153   7
  -4  -5   3 9288.30 506.579  21
   4   5  -3 7710.61 491.108  19
  -4  -5   2 479.936 102.157  13
  -4  -5   2 449.201 112.090   7
  -4  -5   1 258.680 77.3718  13
  -4  -5   1 351.307 84.5769  10
  -4  -5   0 3727.33 293.308  10
  -4  -5  -1 9336.76 526.060  10
  -4  -5  -2 12248.2 627.426  10
   4   5   3 11333.0 632.525  19
  -4  -5  -3 12558.6 612.694  10
   4   5   4 1455.17 164.894  19
  -4  -5  -4 1668.82 163.647  10
   4   5   4 1415.98 164.535  17
  -4  -6  11 4452.96 291.470  11
  -4  -6  10 1033.12 139.764  11
  -4  -6   9 380.285 75.6418  27
  -4  -6   9 342.112 79.6182  21
  -4  -6   8 49.6955 35.3498  27
  -4  -6   8 71.3226 47.6105  14
  -4  -6   8 27.0289 39.4410  21
  -4  -6   7 3797.12 273.591  27
  -4  -6   7 3612.17 300.713  21
  -4  -6   7 3908.85 294.693  14
  -4  -6   6 8215.09 452.484  27
  -4  -6   6 7813.41 490.906  21
  -4  -6   6 8176.80 476.073  14
  -4  -6   5 6440.57 399.269  14
  -4  -6   5 5895.94 412.558  21
  -4  -6   4 100.252 61.0013  14
  -4  -6   4 37.6697 38.5073  21
   4   6  -4 29.7567 36.4989  19
  -4  -6   3 10076.4 525.930  14
  -4  -6   3 9901.23 539.254  21
   4   6  -2 2650.83 255.802  19
   4   6  -1 5961.18 415.800  19
   4   6   0 3932.54 326.168  19
   4   6   1 496.558 106.272  19
   4   6   2 1476.68 170.937  19
   4   6   2 1159.86 142.227  17
   4   6   3 1469.74 153.052  19
   4   6   3 1161.30 133.115  17
  -4  -7  10 754.707 101.710  11
  -4  -7   9 602.131 87.5160  27
  -4  -7   8 4573.71 290.833  27
  -4  -7   7 57.1624 31.1947  27
  -4  -7   7 82.9972 46.3576  14
  -4  -7   6 72.9225 33.3765  27
  -4  -7   6 89.4733 39.5864  14
  -4  -7   5 563.461 91.8151  14
  -4  -7   4-28.1402 30.8586  14
   4   7  -4 56.1910 34.7747  19
   4   7  -3 1021.81 144.234  19
  -4  -7   3 1144.12 138.709  14
   4   7  -2 66.3562 44.6648  19
   4   7  -1 3866.07 294.675  19
   4   7   0 5677.84 372.601  19
   4   7   1-11.2816 21.7629  19
  -4  -8   7 18.0899 23.3738  27
  -4  -8   6 233.176 55.4663  27
  -4  -8   6 354.405 69.9595  14
  -4  -8   5 589.672 86.7582  27
  -4  -8   5 603.198 89.4571  14
  -4  -8   4 176.410 54.0947  14
   4   8  -4 89.7022 37.5495  19
   4   8  -3 9182.77 466.507  19
   4   8  -2 4226.82 274.748  19
  -5   8   3 2343.43 188.268  15
  -5   8   2 5.20221 22.1834  15
  -5   8   1-8.43881 30.8393  15
  -5   8   0 286.182 66.0599  15
  -5   8   0 335.890 70.5536  19
  -5   8  -1 21.6422 21.4366  19
  -5   8  -2 6499.26 387.056  19
  -5   8  -3 370.685 72.2621  19
  -5   8  -4 1717.40 166.581  19
  -5   8  -5 4843.15 293.508  19
  -5   7   5 1270.27 135.831  15
  -5   7   5 1135.75 138.698  24
  -5   7   5 1278.91 134.642  12
  -5   7   4 3695.96 270.480  15
  -5   7   3 10954.5 573.793  15
  -5   7   2 4479.18 319.596  15
  -5   7   1 8334.62 483.290  15
  -5   7   0 560.660 99.9339  15
  -5   7   0 638.430 106.759  19
  -5   7  -1 2454.27 225.082  15
  -5   7  -1 2882.59 247.453  19
  -5   7  -2 115.520 52.2018  19
  -5   7  -3 3819.91 288.978  19
   5  -7   3 3093.16 249.959  25
  -5   7  -4 4052.51 298.385  19
  -5   7  -5 1841.52 178.567  19
   5  -7   6 1122.65 128.547   9
  -5   7  -6 1017.53 119.175  19
  -5   6   7 704.525 106.009  24
  -5   6   7 597.677 95.9305  28
  -5   6   6 304.732 74.4542  15
  -5   6   6 1549.03 153.809  12
  -5   6   5 5923.36 378.729  15
  -5   6   5 6027.16 381.023  12
  -5   6   4 1897.55 197.882  15
  -5   6   4 1641.45 178.554  12
  -5   6   3 320.726 86.5450  15
  -5   6   2 122.507 75.4773  15
  -5   6   1 7212.15 453.928  15
  -5   6   1 7696.08 449.402  19
  -5   6   0-19.8773 38.8378  15
  -5   6   0 77.2380 46.3766  19
  -5   6  -1 4.83766 28.8381  15
  -5   6  -1 35.5652 23.9363  19
  -5   6  -2 585.609 112.744  19
   5  -6   3 5269.94 353.426  25
  -5   6  -3 5885.71 390.483  19
  -5   6  -4 3528.28 280.333  19
  -5   6  -5 2280.83 211.762  19
   5  -6   6 3320.31 247.407   9
  -5   6  -6 3586.87 269.775  13
  -5   6  -6 3424.47 254.835  19
  -5   6  -7 36.9351 34.6658  13
  -5   6  -7 31.3055 23.3506  19
  -5   5   8 1061.20 135.712  24
  -5   5   8 923.176 123.736  28
  -5   5   7 417.756 88.9750  28
  -5   5   6 28.6235 23.2930  28
  -5   5   6 16.0649 36.0693  12
  -5   5   5 2294.84 228.725  15
  -5   5   5 2982.41 257.994  28
  -5   5   5 2625.09 243.991  12
  -5   5   4 3798.70 299.647  15
  -5   5   4 3390.72 282.567  12
  -5   5   3 3389.17 283.695  15
  -5   5   2 9922.56 554.594  15
  -5   5   1 30.1240 33.0484  15
  -5   5   1 91.7888 47.4067  19
  -5   5   0 22317.3 1038.91  15
  -5   5   0 24592.1 1052.91  19
  -5   5  -1 4685.98 337.923  15
  -5   5  -1 5500.85 365.441  19
  -5   5  -2 526.451 103.469  19
   5  -5   2 407.572 89.0200  25
   5  -5   3 7013.97 422.965  25
  -5   5  -3 7407.23 450.708  19
  -5   5  -4 199.718 70.1013  13
  -5   5  -4 271.666 72.4649  19
  -5   5  -5 6264.93 411.959  13
  -5   5  -5 6098.88 388.807  19
  -5   5  -6 111.558 53.2431  13
  -5   5  -6 115.839 42.6600  19
  -5   5  -7 3525.84 274.473  13
  -5   5  -7 3171.60 230.385  19
  -5   5  -8 5602.32 345.614  13
  -5   4   9 6.04371 24.4714  24
  -5   4   9 123.061 57.6157  28
  -5   4   8 11321.8 615.753  24
  -5   4   8 11038.7 609.433  28
  -5   4   7 2097.23 223.367  28
  -5   4   6 23.1303 29.2902  15
  -5   4   6-12.6200 35.1976  12
  -5   4   6 19.3854 38.0924  28
  -5   4   5 5074.28 343.011  15
  -5   4   5 4429.54 337.640  12
  -5   4   5 4305.11 344.083  28
  -5   4   4 338.528 85.8056  15
  -5   4   4 280.409 74.6307  12
  -5   4   4 224.874 74.7129  28
  -5   4   3 6647.35 414.878  15
  -5   4   3 6649.97 411.796  28
  -5   4   2 4127.85 297.505  15
  -5   4   2 3511.31 271.226  24
  -5   4   1 12116.4 597.439  15
  -5   4   1 10854.5 570.874  19
  -5   4   0 2457.95 220.786  15
  -5   4   0 2520.63 219.937  19
  -5   4  -1 2665.37 230.993  19
   5  -4   2 8582.07 488.281  25
  -5   4  -2 9399.55 510.745  19
   5  -4   3 275.334 68.0063  25
  -5   4  -3 381.120 83.8462  13
  -5   4  -3 297.888 72.5466  19
   5  -4   4 2174.83 196.213  25
  -5   4  -4 2338.93 230.121  13
  -5   4  -4 2008.05 202.142  19
  -5   4  -5 226.125 73.5437  13
  -5   4  -5 201.457 56.9154  19
  -5   4  -6 2398.20 238.804  13
  -5   4  -6 2287.63 205.494  19
  -5   4  -7 1075.15 151.323  13
  -5   4  -8 4990.84 331.617  13
  -5   3  10 433.576 81.0918  24
  -5   3  10 460.062 86.7678  28
  -5   3   9 716.136 119.945  24
  -5   3   9 751.067 130.752  28
  -5   3   8 205.850 73.1740  24
  -5   3   8 388.357 100.873  28
  -5   3   7 1115.27 168.279  24
  -5   3   7 1203.39 175.299  28
  -5   3   6 3231.29 294.897  28
  -5   3   5 569.933 100.055  15
  -5   3   5 519.390 102.411  12
  -5   3   5 623.439 122.750  28
  -5   3   4 87.9961 42.7783  15
  -5   3   4 94.7442 64.6858  24
  -5   3   4 55.2430 27.4571  12
  -5   3   4-2.01961 25.6342  28
  -5   3   3 19.4808 28.6386  15
  -5   3   3 13.1180 33.0549  24
  -5   3   2 10970.6 539.005  15
  -5   3   2 9703.04 523.668  24
  -5   3   1 329.007 74.9959  15
  -5   3   1 238.249 57.1950  19
   5  -3   0 30617.2 1265.64  25
  -5   3   0 29968.7 1254.19  19
   5  -3   0 32263.8 1722.62   2
   5  -3   1 4730.38 312.626  25
  -5   3  -1 4331.37 305.697  13
  -5   3  -1 4823.81 315.724  19
   5  -3   1 5285.81 563.353   2
   5  -3   2 3056.38 239.605  25
  -5   3  -2 2555.10 234.769  13
  -5   3  -2 2982.21 243.931  19
   5  -3   3 67.1284 32.6634  25
  -5   3  -3 28.4801 40.4646  13
  -5   3  -3 48.4120 29.1076  19
   5  -3   4 2629.66 231.419  25
  -5   3  -4 2906.18 266.538  13
  -5   3  -4 2846.88 239.011  19
  -5   3  -5 171.047 66.2337  13
  -5   3  -5 150.080 62.0200  19
  -5   3  -6 2657.30 253.646  13
  -5   3  -6 2624.38 225.518  19
  -5   3  -7 6765.22 429.165  13
  -5   3  -8 10890.8 560.998  13
  -5   2  11 32.8569 32.1373  28
  -5   2  10 2084.32 195.596  24
  -5   2  10 2234.61 218.569  28
  -5   2   9 351.201 81.9061  24
  -5   2   9 526.457 114.407  28
  -5   2   8 10576.4 591.758  24
  -5   2   8 9844.45 602.427  28
  -5   2   7 1169.59 165.266  24
  -5   2   7 1308.47 183.585  28
  -5   2   6 582.367 108.031  24
  -5   2   6 677.212 117.474  28
  -5   2   5 2885.99 251.219  24
  -5   2   5 2731.60 256.166  28
  -5   2   4 9398.32 475.190  15
  -5   2   4 8524.32 497.747  24
  -5   2   4 9682.80 523.392  28
  -5   2   3 1697.00 160.122  15
  -5   2   3 1656.63 169.235  24
  -5   2   2 3600.49 252.590  15
   5  -2  -2 3895.84 263.965  25
  -5   2   2 3562.67 254.580  24
  -5   2   1 20231.7 897.518  24
  -5   2   1 21145.5 905.472  19
   5  -2  -1 20627.6 1281.99   2
   5  -2  -1 23422.8 933.875  25
   5  -2   0 20659.9 854.607  25
  -5   2   0 18339.3 846.345  13
  -5   2   0 18966.5 841.278  19
   5  -2   0 18926.3 1181.13   2
  -5   2  -1 5617.51 364.144  13
   5  -2   1 6128.80 356.958  25
  -5   2  -1 5681.74 353.816  19
   5  -2   1 5427.94 578.690   2
   5  -2   2 57.7241 39.0005  25
  -5   2  -2-12.4579 33.7639  13
  -5   2  -2 9.61428 21.9772  19
   5  -2   3 31366.0 1249.72  25
  -5   2  -3 28563.5 1289.69  13
  -5   2  -3 29544.7 1247.81  19
  -5   2  -4 1582.18 190.790  13
   5  -2   4 1598.48 161.941  25
  -5   2  -4 1394.40 179.086  19
  -5   2  -5 2817.50 261.541  13
  -5   2  -5 2388.07 226.466  19
  -5   2  -6 1761.94 201.344  13
  -5   2  -7 719.043 117.786  13
  -5   2  -8 1309.07 145.337  13
  -5   2  -8 1562.33 156.911  10
  -5   1  11 10.7450 27.3207  16
  -5   1  10 1147.71 157.495  28
  -5   1   9 3824.07 299.228  24
  -5   1   9 3740.98 318.857  28
  -5   1   8 1527.97 183.131  24
  -5   1   8 1189.32 174.636  28
  -5   1   7 3853.70 307.736  24
  -5   1   7 3923.26 325.538  28
  -5   1   6 45.3171 44.6305  24
  -5   1   6 27.3668 38.0248  28
  -5   1   5 23781.3 1040.31  24
  -5   1   5 23166.3 1458.60   1
  -5   1   5 23477.7 1054.91  28
  -5   1   4 396.536 84.1822  24
  -5   1   4 575.934 196.548   1
  -5   1   3 390.237 152.835   1
   5  -1  -3 203.130 124.605   2
   5  -1  -3 263.166 59.8938  25
  -5   1   3 390.222 75.2770  24
   5  -1  -2 1062.23 227.564   2
  -5   1   2 1019.41 122.575  24
   5  -1  -2 1046.75 119.912  25
  -5   1   2 1050.59 232.220   1
  -5   1   1 2951.09 222.481  24
  -5   1   1 3281.72 243.420  13
  -5   1   1 3482.82 234.438  19
   5  -1  -1 3097.07 396.952   2
   5  -1  -1 3527.55 239.110  25
   5  -1   0 3564.60 245.014  25
  -5   1   0 3498.26 258.141  13
  -5   1   0 3398.08 244.453  19
   5  -1   0 2966.55 395.040   2
   5  -1   1 1233.06 137.166  25
  -5   1  -1 1364.26 157.267  13
  -5   1  -1 1236.94 144.249  19
   5  -1   2 1746.39 175.014  25
  -5   1  -2 1844.18 191.461  13
  -5   1  -2 1528.04 165.786  19
  -5   1  -2 1644.57 167.066  10
   5  -1   3 200.588 64.3551  25
  -5   1  -3 94.2459 53.3238  13
  -5   1  -3 132.749 51.4542  19
   5  -1   4 5052.66 325.174  25
  -5   1  -4 4483.19 349.509  13
  -5   1  -5 2690.54 253.904  13
  -5   1  -6 614.452 106.632  13
  -5   1  -6 652.838 122.541  10
  -5   1  -7 5654.26 361.864  13
  -5   1  -7 5524.95 359.494  10
  -5   1  -8 702.537 99.8813  10
  -5   0  11 91.7807 51.0428  16
  -5   0  10 2204.83 205.878  16
  -5   0   9 1316.86 158.872  24
  -5   0   8 6.97486 25.0193  24
  -5   0   8 58.3270 35.8543  28
  -5   0   7 178.152 58.9210  24
  -5   0   6 4295.17 310.471  24
  -5   0   6 4304.14 275.856   8
  -5   0   5 3062.61 222.786   8
  -5   0   5 3341.93 254.678  24
  -5   0   5 2780.39 431.076   1
  -5   0   4 1042.41 244.886   1
  -5   0   4 998.113 128.523  24
  -5   0   4 1074.56 121.192   8
   5   0  -3 2878.55 204.002  25
  -5   0   3 3186.61 415.778   1
  -5   0   3 2838.04 215.739  24
  -5   0   3 2421.03 214.634  13
   5   0  -3 2361.95 325.718   2
   5   0  -2 1150.57 224.529   2
   5   0  -2 1290.91 130.962  25
  -5   0   2 1193.76 130.399  24
  -5   0   2 1233.44 128.824   8
  -5   0   2 1116.44 137.073  13
   5   0  -1 124.493 41.7671  25
  -5   0   1 145.083 47.8437  24
  -5   0   1 33.0906 18.1188   8
  -5   0   1 132.967 49.0704  13
   5   0   0 1066.64 124.009  25
  -5   0   0 813.593 107.247  24
  -5   0   0 1120.25 118.697   8
  -5   0   0 1101.16 135.865  13
   5   0   1 111.233 46.1589  25
  -5   0  -1 45.2001 33.8664  13
   5   0   2 803.713 118.897  25
  -5   0  -2 798.600 128.041  13
  -5   0  -2 696.482 108.428  10
  -5   0  -3 50557.9 2012.30  13
  -5   0  -3 49056.8 1986.53  10
  -5   0  -4 79.0079 58.8717  13
  -5   0  -4 124.305 60.8300  10
  -5   0  -5 698.019 126.329  13
  -5   0  -5 701.990 131.513  10
  -5   0  -6 590.042 108.698  13
  -5   0  -6 594.652 105.678  10
  -5   0  -7 8768.64 466.582  13
  -5   0  -7 8910.88 478.422  10
  -5  -1  12 225.194 54.5994  16
  -5  -1  11 740.317 106.833  16
  -5  -1  10 1461.32 167.092  11
  -5  -1  10 1420.14 163.405  16
  -5  -1   9 1550.15 176.024  11
  -5  -1   9 1702.70 188.672  16
  -5  -1   8 47.4297 31.5171  24
  -5  -1   7 2903.57 245.872  24
  -5  -1   6 505.472 100.393  24
  -5  -1   6 420.234 79.6400   8
  -5  -1   5 30242.2 1200.40  24
  -5  -1   5 28753.4 1161.26   8
  -5  -1   5 25773.2 1200.24  13
  -5  -1   5 28059.3 1664.16   1
  -5  -1   4 212.665 57.5498  24
  -5  -1   4 308.946 65.2088   8
  -5  -1   4 289.005 71.1540  13
  -5  -1   4 317.792 144.433   1
   5   1  -3 2422.24 185.290  25
  -5  -1   3 2322.92 199.323  24
  -5  -1   3 2578.21 225.322  13
  -5  -1   3 2633.08 201.667   8
   5   1  -2 14403.2 651.006  25
  -5  -1   2 14466.4 665.319  24
  -5  -1   2 13876.8 652.304   8
  -5  -1   2 14445.1 701.840  13
   5   1  -1 34380.9 1379.78  25
  -5  -1   1 34318.0 1372.83   8
  -5  -1   1 37036.5 1440.80  13
  -5  -1   1 32916.7 1366.44  10
   5   1   0 6521.56 390.935  25
  -5  -1   0 6926.49 383.154   8
  -5  -1   0 7101.16 428.233  13
  -5  -1   0 6886.02 724.909   3
  -5  -1   0 6857.78 391.515  10
   5   1   1 163.206 58.0664  25
  -5  -1  -1 218.409 159.601   3
  -5  -1  -1 303.183 77.3744  13
  -5  -1  -1 230.583 65.2856  10
  -5  -1  -2 2344.39 230.966  13
  -5  -1  -2 2213.74 212.387  10
  -5  -1  -3 960.598 146.688  13
  -5  -1  -3 1042.21 146.050  10
  -5  -1  -4 3345.28 288.607  13
  -5  -1  -4 3907.19 304.347  10
  -5  -1  -5 637.951 110.485  13
  -5  -1  -5 691.320 118.703  10
  -5  -1  -6 7476.22 438.797  10
  -5  -1  -7 340.937 70.1691  10
  -5  -2  12 211.280 48.9424  16
  -5  -2  11 444.607 85.8957  11
  -5  -2  11 452.280 84.4482  16
  -5  -2  10 7215.13 443.093  11
  -5  -2  10 7856.14 445.798  16
  -5  -2   9 11319.2 593.696  21
  -5  -2   9 11759.9 604.428  11
  -5  -2   9 10969.5 593.318  16
  -5  -2   8 1097.78 139.194  24
  -5  -2   8 1203.00 148.264  11
  -5  -2   8 1031.57 139.746  16
  -5  -2   7 119.031 44.2728  16
  -5  -2   7 163.890 61.3664  24
  -5  -2   6 2162.26 195.272  24
  -5  -2   6 1545.85 171.789  16
  -5  -2   5 411.421 78.4052  16
  -5  -2   5 514.630 93.2383  24
  -5  -2   5 627.750 101.755   8
  -5  -2   5 640.744 114.511  13
  -5  -2   4 4347.25 306.025  24
  -5  -2   4 4441.11 298.482   8
  -5  -2   4 4601.19 336.328  13
  -5  -2   3 123.522 55.3782  24
  -5  -2   3 50.9366 46.6494   8
  -5  -2   3 133.999 66.5355  13
  -5  -2   3 48.5310 25.5033  10
  -5  -2   2 9732.47 514.553   8
  -5  -2   2 10714.6 567.260  13
  -5  -2   2 9518.34 501.752  10
  -5  -2   1 852.527 134.317  13
  -5  -2   1 713.283 108.367  10
  -5  -2   0 3194.47 286.037  13
  -5  -2   0 3408.11 273.487   7
  -5  -2   0 3418.90 263.402  10
  -5  -2  -1 4517.96 342.057  13
  -5  -2  -1 4695.78 326.290  10
  -5  -2  -2 5308.26 375.576  13
  -5  -2  -2 5134.62 353.141  10
  -5  -2  -3 462.483 101.211  13
  -5  -2  -3 398.920 91.7036  10
  -5  -2  -4 4182.57 314.049  13
  -5  -2  -4 4276.71 319.917  10
  -5  -2  -5 116.919 49.0263  10
  -5  -2  -6 6137.34 360.894  10
  -5  -3  12 998.365 117.189  11
  -5  -3  11 134.958 50.0405  11
  -5  -3  11 74.0483 42.2175  16
  -5  -3  10 2014.03 205.360  11
  -5  -3  10 2481.34 215.636  16
  -5  -3   9 270.441 72.9318  21
  -5  -3   9 305.507 76.7810  11
  -5  -3   9 252.693 71.4962  16
  -5  -3   8 3396.95 277.637  21
  -5  -3   8 3088.28 256.018  16
  -5  -3   7 3854.14 281.588  14
  -5  -3   7 4465.34 312.304  24
  -5  -3   7 3873.07 301.318   7
  -5  -3   7 4178.76 310.446  21
  -5  -3   7 3555.83 282.271  16
  -5  -3   6 1260.43 146.452  24
  -5  -3   6 1039.59 145.932   7
  -5  -3   6 1009.40 130.811  16
  -5  -3   5 598.018 116.804  13
  -5  -3   5 626.759 111.924   7
  -5  -3   4 7157.86 460.463  13
  -5  -3   4 6824.72 442.652   7
  -5  -3   3 246.298 79.7915  13
  -5  -3   3 275.448 76.4389   7
  -5  -3   2 16628.2 837.477  13
  -5  -3   2 17921.1 841.713   7
  -5  -3   2 16287.1 783.818  10
  -5  -3   1 4507.06 353.637  13
  -5  -3   1 4729.20 355.432   7
  -5  -3   1 5015.22 336.026  10
  -5  -3   0 1431.14 175.512   7
  -5  -3   0 914.120 151.648  13
  -5  -3   0 1154.79 145.949  10
  -5  -3  -1 11626.3 672.397  13
  -5  -3  -1 13606.4 664.885  10
  -5  -3  -2 444.808 99.5354  13
  -5  -3  -2 502.616 108.274  10
  -5  -3  -3 2785.06 245.573  10
  -5  -3  -4 124.910 53.1913  10
  -5  -3  -5 142.697 45.7781  10
  -5  -4  11 218.093 59.0125  11
  -5  -4  10 7900.98 447.731  21
  -5  -4  10 8016.86 463.737  11
  -5  -4   9 3608.33 283.218  21
  -5  -4   9 3660.31 273.817  16
  -5  -4   8 1544.16 166.071  14
  -5  -4   8 1557.62 183.173  21
  -5  -4   8 1540.28 169.325  16
  -5  -4   7 5220.28 353.022  14
  -5  -4   7 5230.25 379.552   7
  -5  -4   7 5778.42 384.789  21
  -5  -4   7 5317.83 347.876  16
  -5  -4   6 1373.71 180.368   7
  -5  -4   6 1198.91 163.627  21
  -5  -4   6 1319.42 149.192  16
  -5  -4   5 2166.49 233.882   7
  -5  -4   5 1942.25 210.808  21
  -5  -4   4-33.0338 37.4846  13
  -5  -4   4-42.7184 45.4043  21
  -5  -4   4 75.3763 60.2237   7
  -5  -4   3-10.5555 44.7170  13
  -5  -4   3 22.8732 30.6354  21
  -5  -4   3 31.2727 29.3251   7
  -5  -4   2 25166.7 1118.80  13
  -5  -4   2 22722.7 1115.94   7
  -5  -4   1 376.034 91.5927  13
  -5  -4   1 374.538 97.8497   7
  -5  -4   1 454.554 98.3152  10
  -5  -4   0 6909.25 464.919  13
  -5  -4   0 7828.22 497.477   7
  -5  -4   0 8100.46 472.944  10
  -5  -4  -1 1952.41 206.722  13
  -5  -4  -1 2105.77 212.837  10
  -5  -4  -2 7997.10 466.455  10
  -5  -4  -3 3117.69 249.208  10
   5   4   4 260.372 67.7539  19
  -5  -4  -4 304.987 69.1661  10
  -5  -5  11-8.26730 16.7797  11
  -5  -5  10 2606.56 218.913  21
  -5  -5  10 3033.13 239.225  11
  -5  -5   9 193.289 52.9514  14
  -5  -5   9 303.296 78.5473  21
  -5  -5   8 2157.24 206.574  14
  -5  -5   8 2376.83 223.919  21
  -5  -5   7 124.854 53.7209  14
  -5  -5   7 118.192 38.8898  21
  -5  -5   7 58.9840 45.9648   7
  -5  -5   6 5082.26 342.529  14
  -5  -5   6 4323.20 367.522   7
  -5  -5   6 4818.43 352.103  21
  -5  -5   5 6554.23 475.962   7
  -5  -5   5 7173.00 446.173  21
  -5  -5   4 594.708 109.433  21
  -5  -5   4 742.993 152.546   7
  -5  -5   3-66.4324 63.4415   7
   5   5  -3-12.5961 39.5936  19
  -5  -5   2 1776.40 227.873   7
  -5  -5   1 9109.86 543.544  13
  -5  -5  -1 984.240 139.635  10
   5   5   2 4172.86 326.061  19
  -5  -5  -2 4412.41 303.944  10
   5   5   3 1029.17 127.415  19
   5   5   3 1114.93 127.718  17
  -5  -6  10 1462.67 148.931  11
  -5  -6   9 6163.82 374.380  21
  -5  -6   8-6.73264 22.9509  14
  -5  -6   8 18.1061 24.9787  21
  -5  -6   7 3105.01 250.426  14
  -5  -6   7 3069.90 263.244  21
  -5  -6   6 6375.68 385.824  14
  -5  -6   6 5699.78 392.682  21
  -5  -6   5 3210.58 257.127  14
  -5  -6   5 2897.19 258.337  21
  -5  -6   4 5689.35 367.780  14
  -5  -6   4 6149.23 382.657  21
   5   6  -4 5215.64 355.178  19
  -5  -6   3 1170.04 147.367  14
   5   6  -3 836.354 130.533  19
   5   6  -2 89.6575 46.1842  19
  -5  -6   1 1825.44 172.253  14
   5   6  -1 1836.42 206.265  19
   5   6   0 61.1437 40.6082  19
   5   6   1 8173.42 455.419  19
  -5  -7   8 87.6140 35.4045  14
  -5  -7   7 7737.36 419.057  14
  -5  -7   6 2639.65 211.449  14
  -5  -7   5 568.700 92.9978  14
  -5  -7   4 3825.34 253.743  14
   5   7  -4 2970.12 227.175  19
  -5  -7   3 509.198 81.9321  14
   5   7  -3 541.422 92.6173  19
   5   7  -2 55.6541 37.6994  19
   5   7  -1 990.492 118.732  19
   6  -8  -1 1221.89 130.205  25
   6  -8   0 45.2974 28.8334  25
   6  -8   1 205.473 48.1209  25
  -6   7   4 878.749 112.672  15
  -6   7   3 758.590 107.110  15
  -6   7   2 1955.41 187.647  15
   6  -7   0 1269.24 156.152  25
  -6   7   0 1487.62 154.034  19
   6  -7   1 4933.63 341.911  25
  -6   7  -1 6493.68 371.187  19
   6  -7   2 562.033 94.4588  25
  -6   7  -2 567.346 94.9127  19
   6  -7   3 3623.35 259.864  25
  -6   7  -3 5313.59 314.931  19
  -6   7  -4 6987.87 389.696  19
  -6   6   6 123.314 40.8299  15
  -6   6   6 75.7543 41.2515  24
  -6   6   5 3073.61 241.190  15
  -6   6   5 3368.71 254.350  24
  -6   6   4 7424.95 439.122  15
  -6   6   4 7584.98 436.506  24
  -6   6   3 7951.51 471.539  15
  -6   6   2 763.407 123.069  15
  -6   6   1 567.103 103.708  15
   6  -6   0-8.69456 36.5884  25
  -6   6   0 79.6794 42.1252  19
   6  -6   1 2350.45 229.925  25
  -6   6  -1 2988.69 248.551  19
   6  -6   2 9044.20 519.224  25
  -6   6  -2 10355.9 547.853  19
   6  -6   3 922.221 125.202  25
  -6   6  -3 997.538 136.546  19
  -6   6  -4 3443.52 261.230  19
  -6   6  -5 1307.63 139.863  19
  -6   5   8 348.769 75.8049  24
  -6   5   7 439.890 88.3178  24
  -6   5   6 4725.91 315.946  15
  -6   5   6 5163.61 356.189  24
  -6   5   5 173.567 55.1720  15
  -6   5   5 95.1765 52.7753  24
  -6   5   4 1926.18 203.124  15
  -6   5   4 1770.92 196.267  24
  -6   5   3-12.9669 30.0302  15
  -6   5   2 0.11241 31.4552  15
  -6   5   1 352.971 79.0604  19
   6  -5   0 1173.31 166.251  25
  -6   5   0 1154.36 147.315  19
   6  -5   1 1577.94 189.676  25
  -6   5  -1 1962.47 204.487  19
   6  -5   2 5269.49 372.249  25
  -6   5  -2 6777.78 414.238  19
   6  -5   3 5238.52 345.795  25
  -6   5  -3 5780.05 379.623  19
  -6   5  -4 1475.36 164.467  13
  -6   5  -4 1226.58 153.388  19
  -6   5  -5 486.308 90.7155  13
  -6   5  -5 549.572 92.1615  19
  -6   5  -6 25.1143 23.9860  13
  -6   5  -6 51.0036 24.6826  19
  -6   4   9 48.5754 31.7594  24
  -6   4   8 47.4865 43.0203  24
  -6   4   7 3486.00 293.311  24
  -6   4   6 699.315 129.188  24
  -6   4   5 3824.14 291.778  15
  -6   4   5 3382.04 300.080  24
  -6   4   4 3964.10 305.208  15
  -6   4   4 3574.75 303.405  24
  -6   4   3 414.299 94.3040  15
  -6   4   3 353.505 86.3071  24
  -6   4   2 567.033 109.308  15
   6  -4  -2 525.257 113.908  25
   6  -4  -1 25260.8 1148.35  25
  -6   4   1 26729.3 1131.36  19
   6  -4   0 3249.14 277.194  25
  -6   4   0 3530.93 280.144  19
   6  -4   1 1567.49 182.337  25
  -6   4  -1 1765.88 192.556  19
   6  -4   2 2.89086 30.4209  25
  -6   4  -2 86.7677 45.0879  19
   6  -4   3 223.722 65.7089  25
  -6   4  -3 301.011 82.5000  13
  -6   4  -3 320.859 81.4168  19
   6  -4   4 7259.77 413.960  25
  -6   4  -4 7127.04 453.166  13
  -6   4  -4 7131.71 435.651  19
  -6   4  -5 86.2695 54.0461  13
  -6   4  -5 86.3993 43.2436  19
  -6   4  -6 7921.82 461.922  13
  -6   3   9 13801.1 675.500  24
  -6   3   8 4193.83 323.098  24
  -6   3   7 923.657 147.699  24
  -6   3   6 44.1255 38.9153  24
  -6   3   5 1570.89 193.768  24
  -6   3   4 2132.63 204.812  15
   6  -3  -4 1520.30 175.088  25
  -6   3   4 1805.88 202.047  24
   6  -3  -3 162.131 60.6532  25
  -6   3   3 128.478 58.7831  24
   6  -3  -2 13031.1 657.735  25
  -6   3   2 12483.0 635.031  24
   6  -3  -1 29200.4 1250.75  25
  -6   3   1 29346.0 1235.40  19
   6  -3   0 16845.7 793.550  25
  -6   3   0 16207.3 785.475  19
   6  -3   1 1328.49 167.322  25
  -6   3  -1 1449.42 173.571  13
  -6   3  -1 1495.57 173.738  19
   6  -3   2 2586.03 236.769  25
  -6   3  -2 3131.39 269.694  13
  -6   3  -2 2618.01 243.701  19
   6  -3   3 1259.13 155.108  25
  -6   3  -3 1254.41 172.050  13
  -6   3  -3 1234.19 157.228  19
   6  -3   4-22.6013 34.0004  25
  -6   3  -4 17.2833 49.9280  13
  -6   3  -4-23.4769 23.7396  19
  -6   3  -5 3432.05 293.328  13
  -6   3  -6 167.114 49.7359  13
  -6   3  -7 30.2674 31.6203  13
  -6   2  10 4614.40 297.574  24
  -6   2   9 4421.42 321.893  24
  -6   2   8 2475.35 242.631  24
  -6   2   7 632.037 128.256  24
  -6   2   6 705.354 132.350  24
  -6   2   5 1189.00 166.835  24
   6  -2  -4 70.1090 34.1964  25
  -6   2   4 52.3843 38.4425  24
   6  -2  -3 7162.36 427.009  25
  -6   2   3 7329.79 442.451  24
   6  -2  -2 312.945 71.1308  25
  -6   2   2 157.648 55.7414  24
   6  -2  -1 137.504 58.7673  25
  -6   2   1 97.5528 39.9860  19
   6  -2   0 1475.22 163.365  25
  -6   2   0 1347.05 166.070  13
  -6   2   0 1261.89 151.377  19
   6  -2   1 80.3782 39.6559  25
  -6   2  -1 68.3130 49.8063  13
  -6   2  -1 169.507 66.3109  19
   6  -2   2 6224.22 387.130  25
  -6   2  -2 5931.65 416.002  13
  -6   2  -2 5953.14 390.221  19
   6  -2   3 12608.9 632.239  25
  -6   2  -3 13284.2 699.287  13
  -6   2  -3 12174.4 648.227  19
   6  -2   4 6.02774 29.0289  25
  -6   2  -4 63.3014 56.7716  13
  -6   2  -5 1426.12 179.583  13
  -6   2  -5 1372.19 160.644  10
  -6   2  -6 2569.27 227.816  13
  -6   2  -6 2196.89 196.271  10
  -6   1  10 203.958 57.6505  16
  -6   1  10 231.351 60.1714  24
  -6   1   9 225.125 73.2245  24
  -6   1   8 155.134 69.8399  24
  -6   1   7 863.174 144.238  24
  -6   1   6 28858.8 1244.42  24
  -6   1   6 27522.6 1179.31   8
  -6   1   5 20202.2 965.417  24
  -6   1   5 21870.4 940.427   8
  -6   1   4 200.222 63.5146  24
   6  -1  -3 5054.08 322.785  25
  -6   1   3 4748.86 329.264  24
   6  -1  -2 3940.63 280.961  25
  -6   1   2 3753.75 279.230  24
  -6   1   2 4416.17 315.184  13
   6  -1  -1 836.786 116.514  25
  -6   1   1 633.394 103.009  24
  -6   1   1 725.381 111.572   8
  -6   1   1 615.436 113.066  13
  -6   1   1 732.893 106.815  19
   6  -1   0 1313.04 151.383  25
  -6   1   0 956.224 124.476   8
  -6   1   0 1431.14 173.476  13
  -6   1   0 1324.47 156.748  19
   6  -1   1 35.2002 33.6049  25
  -6   1  -1 44.3796 41.8849  13
   6  -1   2 82966.7 3162.06  25
  -6   1  -2 85502.6 3244.47  13
   6  -1   3 22749.7 995.566  25
  -6   1  -3 24059.7 1082.49  13
  -6   1  -3 21398.0 1009.63  10
  -6   1  -4 1787.23 209.993  13
  -6   1  -4 1671.98 185.332  10
  -6   1  -5 100.256 40.8417  13
  -6   1  -5 86.1819 37.4336  10
  -6   1  -6 3037.57 244.020  13
  -6   1  -6 2766.76 225.337  10
  -6   0  11 534.370 84.5982  16
  -6   0  10 14.9430 24.1819  16
  -6   0  10 39.7949 34.1701  24
  -6   0   9 53.1880 46.2727  24
  -6   0   8 83.8777 53.1639  24
  -6   0   7 3025.49 235.132   8
  -6   0   7 2642.17 251.164  24
  -6   0   6 89157.7 3358.40  24
  -6   0   6 87938.5 3305.84   8
  -6   0   5 13137.1 679.275  24
  -6   0   5 13877.7 661.040   8
  -6   0   4 557.620 101.513  24
  -6   0   4 673.678 107.918   8
  -6   0   4 404.323 92.0262  13
   6   0  -3 984.851 123.271  25
  -6   0   3 826.847 120.067  24
  -6   0   3 812.894 116.616   8
  -6   0   3 723.599 123.066  13
   6   0  -2 9161.67 483.781  25
  -6   0   2 9196.77 489.258  24
  -6   0   2 8322.79 474.047   8
  -6   0   2 9537.84 534.520  13
   6   0  -1 2816.63 232.180  25
  -6   0   1 2847.22 231.422  24
  -6   0   1 2709.99 223.115   8
  -6   0   1 2974.02 265.829  13
   6   0   0 61.5508 46.8962  25
  -6   0   0 83.0398 34.7596   8
  -6   0   0 107.824 48.6497  13
   6   0   1 7640.18 455.966  25
  -6   0  -1 8523.11 518.585  13
  -6   0  -1 7917.43 453.988  10
  -6   0  -2 5471.26 390.887  13
  -6   0  -2 4812.53 342.454  10
  -6   0  -3 8783.11 530.785  13
  -6   0  -3 8332.82 497.187  10
  -6   0  -4 508.306 106.130  13
  -6   0  -4 677.307 115.448  10
  -6   0  -5 440.183 91.0642  13
  -6   0  -5 339.066 71.7931  10
  -6   0  -6 14.5381 23.6233  13
  -6   0  -6 73.8742 38.5823  10
  -6  -1  11 68.9146 32.6792  16
  -6  -1  10 2410.18 213.814  16
  -6  -1   9 1427.00 157.814  24
  -6  -1   9 1095.23 145.698  16
  -6  -1   8 246.248 71.9196  16
  -6  -1   8 486.916 96.1806  24
  -6  -1   7 2111.38 202.778   8
  -6  -1   7 2475.33 228.522  24
  -6  -1   6-27.1160 27.8735  24
  -6  -1   6 12.9425 33.9355   8
  -6  -1   5 1758.45 189.097  24
  -6  -1   5 1889.26 191.618   8
  -6  -1   5 1760.18 202.931  13
  -6  -1   4 1952.38 198.418  24
  -6  -1   4 1812.79 189.048   8
  -6  -1   4 2015.95 215.416  13
   6   1  -3 500.970 87.9477  25
  -6  -1   3 536.237 100.043  24
  -6  -1   3 475.974 95.5605   8
  -6  -1   3 371.574 94.6424  13
   6   1  -2 6809.61 399.195  25
  -6  -1   2 7013.65 410.523   8
  -6  -1   2 6500.89 442.191  13
   6   1  -1 2763.97 237.548  25
  -6  -1   1 2955.03 238.123   8
  -6  -1   1 3364.44 292.848  13
  -6  -1   0 6034.40 415.972  13
  -6  -1   0 5358.83 355.144  10
  -6  -1  -1 1261.59 179.322  13
  -6  -1  -1 1394.45 163.387  10
  -6  -1  -2 4849.99 378.359  13
  -6  -1  -2 4869.86 345.441  10
  -6  -1  -3-4.88373 29.1973  13
  -6  -1  -3-1.88050 40.0372  10
  -6  -1  -4 1419.26 179.888  13
  -6  -1  -4 1860.64 186.085  10
  -6  -1  -5 4541.68 316.959  13
  -6  -1  -5 5577.93 332.843  10
  -6  -2  11 2547.92 199.603  16
  -6  -2  10 3540.58 262.800  16
  -6  -2   9 816.670 122.819  21
  -6  -2   9 963.816 131.414  16
  -6  -2   8 2765.94 238.034  24
  -6  -2   8 2787.00 236.695  16
  -6  -2   7 1131.71 145.561  24
  -6  -2   7 1162.04 163.179   7
  -6  -2   7 969.236 136.069  16
  -6  -2   6 2629.24 243.564  24
  -6  -2   6 2181.65 198.028  16
  -6  -2   5 43.9979 42.2066  24
  -6  -2   5 149.538 69.5706  13
  -6  -2   4 1546.82 198.235  13
  -6  -2   3 29459.9 1316.08  13
  -6  -2   2 37578.1 1537.29  13
  -6  -2   2 33485.3 1435.01  10
  -6  -2   1 992.533 160.272  13
  -6  -2   1 814.867 131.347   7
  -6  -2   1 805.084 122.301  10
  -6  -2   0 2502.06 265.544  13
  -6  -2   0 2511.09 238.720   7
  -6  -2   0 2808.97 244.347  10
  -6  -2  -1 135.488 61.0442  13
  -6  -2  -1 141.498 60.4669  10
  -6  -2  -2 290.359 81.5047  13
  -6  -2  -2 348.050 82.7238  10
  -6  -2  -3 1149.09 157.669  13
  -6  -2  -3 1368.21 161.370  10
  -6  -2  -4 934.177 135.312  13
  -6  -2  -4 1043.17 131.530  10
  -6  -3  10 6421.45 379.867  21
  -6  -3  10 6722.34 380.210  16
  -6  -3   9 53.4213 39.1390  21
  -6  -3   9 132.443 57.5574  16
  -6  -3   8 2805.52 247.723  21
  -6  -3   8 2448.03 215.770  16
  -6  -3   7 1677.43 172.635  14
  -6  -3   7 1710.06 195.646   7
  -6  -3   7 1622.96 192.027  21
  -6  -3   7 1567.04 166.226  16
  -6  -3   6 1774.68 208.876   7
  -6  -3   5 5572.67 400.732   7
  -6  -3   4 1101.26 172.195  13
  -6  -3   4 1275.83 180.865   7
  -6  -3   3 12613.6 708.608  13
  -6  -3   3 12341.9 684.790   7
  -6  -3   3 12501.7 636.573  21
  -6  -3   2 135.377 66.1534  13
  -6  -3   2 259.437 69.0020   7
  -6  -3   1 8.77910 34.5028  13
  -6  -3   1 46.0809 30.5349   7
  -6  -3   1 35.8966 38.9425  10
  -6  -3   0 7.33153 44.4006  13
  -6  -3   0 12.8027 34.6482  10
  -6  -3  -1 6591.72 438.148  13
  -6  -3  -1 6377.85 410.385  10
  -6  -3  -2 59.5122 43.2435  13
  -6  -3  -2 46.6871 25.7757  10
  -6  -3  -3 2254.88 200.881  10
  -6  -3  -4 369.066 68.5456  10
  -6  -4  10 86.9249 37.3798  21
  -6  -4  10 31.5351 19.9581  11
  -6  -4   9 419.411 86.9109  21
  -6  -4   9 372.195 76.7694  11
  -6  -4   8 356.430 79.0254  14
  -6  -4   8 317.120 75.3117  21
  -6  -4   8 215.467 69.9853   7
  -6  -4   7 3234.55 254.355  14
  -6  -4   7 3273.36 288.835   7
  -6  -4   7 3505.55 279.218  21
  -6  -4   6 1754.46 206.224   7
  -6  -4   6 1724.31 192.263  21
  -6  -4   5 4152.55 348.347   7
  -6  -4   5 4697.83 334.080  21
  -6  -4   4 112.583 42.5860  21
  -6  -4   4 199.110 77.0743   7
  -6  -4   3 4981.63 391.262  13
  -6  -4   3 4791.91 385.646   7
  -6  -4   2 43.5016 34.0474  13
  -6  -4   2 91.4657 47.3057   7
  -6  -4   1 876.111 144.795  13
  -6  -4   1 903.857 150.996   7
  -6  -4   0 3028.02 269.591  13
  -6  -4   0 3124.85 262.698  10
  -6  -4  -1 1284.12 158.585  13
  -6  -4  -1 1296.29 157.152  10
  -6  -4  -2 2672.18 219.312  10
  -6  -5   9 721.428 103.698  21
  -6  -5   9 810.216 106.493  11
  -6  -5   8 3537.29 252.310  14
  -6  -5   8 3589.33 270.941  21
  -6  -5   7 4534.56 303.925  14
  -6  -5   7 4222.02 331.843   7
  -6  -5   7 4572.40 319.482  21
  -6  -5   6 2234.91 205.393  14
  -6  -5   6 2372.90 248.547   7
  -6  -5   6 2292.08 215.445  21
  -6  -5   5 4786.22 372.755   7
  -6  -5   5 4463.88 318.356  21
  -6  -5   4 256.215 82.9933   7
  -6  -5   3 12.6865 29.1230   7
   6   5  -3-18.0431 28.5410  19
   6   5  -2 1608.05 181.751  19
   6   5  -1 3525.37 281.017  19
   6   5   0 6068.52 378.138  19
   6   5   1 4884.26 314.683  19
  -6  -6   8 2701.64 210.499  21
  -6  -6   7 1931.98 168.494  14
  -6  -6   7 1626.78 166.233  21
  -6  -6   6-6.19888 23.7470  14
  -6  -6   6 9.01962 20.1313  21
  -6  -6   5 3312.22 241.363  14
  -6  -6   4 1560.23 158.367  14
  -6  -6   3 2289.03 186.247  14
   6   6  -3 2058.38 185.822  19
   6   6  -2 1921.30 174.248  19
   7  -6  -4 107.408 41.3601  25
   7  -6  -3 1256.91 142.063  25
   7  -6  -2 13.8039 23.2587  25
   7  -6  -1 32.6683 27.9451  25
   7  -6   0 87.6929 35.6233  25
  -7   6   0 27.0885 27.3002  19
   7  -6   1 1431.60 159.012  25
  -7   6  -1 2096.98 180.756  19
   7  -6   2 1152.52 128.955  25
  -7   6  -2 1472.56 147.673  19
  -7   6  -3 1543.32 148.330  19
  -7   5   6 820.043 110.643  24
  -7   5   5 1384.94 149.949  24
   7  -5  -4 2521.64 217.021  25
   7  -5  -3 4.74983 28.0026  25
   7  -5  -2 7116.27 436.222  25
   7  -5  -1 2271.16 216.851  25
   7  -5   0 128.753 53.9363  25
  -7   5   0 192.952 65.6642  19
   7  -5   1 3189.87 259.908  25
  -7   5  -1 3959.43 281.396  19
   7  -5   2 6.97590 20.1484  25
  -7   5  -2-1.83473 24.7616  19
   7  -5   3 2140.07 184.198  25
  -7   5  -3 2940.99 225.262  19
  -7   5  -4 74.5552 34.1240  19
  -7   4   7 1515.56 163.433  24
  -7   4   6 140.859 53.9251  24
  -7   4   6 140.701 54.5822   8
  -7   4   5 1842.32 192.457  24
   7  -4  -4 893.704 127.847  25
  -7   4   4 1174.54 147.740  24
   7  -4  -3 3204.69 266.350  25
   7  -4  -2 301.863 82.8537  25
   7  -4  -1 924.433 135.879  25
   7  -4   0 3782.10 301.028  25
  -7   4   0 4303.80 305.850  19
   7  -4   1 125.706 55.6671  25
  -7   4  -1 117.093 50.1931  19
   7  -4   2 798.235 121.059  25
  -7   4  -2 976.249 134.218  19
   7  -4   3 73.3412 32.3426  25
  -7   4  -3 47.0823 40.9957  13
  -7   4  -3 53.6133 41.0743  19
  -7   4  -4 2031.47 191.030  13
  -7   3   8 835.376 118.750  24
  -7   3   7 206.458 61.6939  24
  -7   3   6 32.3216 29.8014  24
  -7   3   6-15.1623 19.2548   8
  -7   3   5-3.04726 32.5377  24
   7  -3  -4 2687.99 230.311  25
  -7   3   4 2563.48 241.255  24
   7  -3  -3 266.015 75.6629  25
  -7   3   3 148.914 56.5676  24
   7  -3  -2 11483.4 611.908  25
   7  -3  -1 2608.80 241.752  25
  -7   3   1 2425.81 219.563  19
   7  -3   0 809.235 136.029  25
  -7   3   0 841.253 126.370  19
   7  -3   1 208.324 64.3983  25
  -7   3  -1 252.917 73.5942  13
  -7   3  -1 331.598 81.2636  19
   7  -3   2 1951.87 193.917  25
  -7   3  -2 1817.90 201.490  13
  -7   3  -2 2300.48 215.416  19
   7  -3   3 133.469 48.2125  25
  -7   3  -3 119.786 51.9737  13
  -7   3  -4 1222.87 154.934  13
  -7   3  -5 3039.47 240.125  13
  -7   2   9 479.831 84.1691  24
  -7   2   8 67.4942 29.7801  24
  -7   2   7 1067.45 151.959  24
  -7   2   6 3461.14 287.814  24
  -7   2   6 3121.49 253.607   8
  -7   2   5 479.317 103.643  24
  -7   2   5 660.261 111.276   8
   7  -2  -4 823.615 120.243  25
  -7   2   4 783.960 133.926  24
  -7   2   4 1054.60 147.352   8
   7  -2  -3 4585.88 317.274  25
  -7   2   3 3945.95 306.021  24
  -7   2   3 4341.32 317.447   8
   7  -2  -2 5808.17 369.601  25
  -7   2   2 5369.39 351.004  24
  -7   2   2 5033.01 351.691   8
   7  -2  -1 2877.42 241.552  25
  -7   2   1 2088.07 201.532   8
   7  -2   0 10.2342 22.7346  25
  -7   2   0 14.1316 23.7232   8
  -7   2   0 2.83837 49.6936  13
   7  -2   1 13669.7 681.676  25
  -7   2  -1 13748.6 727.821  13
   7  -2   2 938.102 128.020  25
  -7   2  -2 1002.58 153.321  13
  -7   2  -3 1333.07 176.026  13
  -7   2  -4 1367.73 171.147  13
  -7   2  -5 953.938 127.148  13
  -7   1  10 165.655 48.9415  16
  -7   1   9 946.847 127.429  24
  -7   1   9 982.711 132.201  16
  -7   1   8 15.6225 33.3386  24
  -7   1   7 5752.21 404.018  24
  -7   1   7 6663.11 377.943   8
  -7   1   6 163.273 69.0951  24
  -7   1   6 243.732 69.1897   8
  -7   1   5 126.298 64.3953  24
  -7   1   5 1.73505 31.6530   8
  -7   1   4 569.782 103.887  24
  -7   1   4 724.858 114.332   8
   7  -1  -3 1470.51 163.055  25
  -7   1   3 1671.18 184.488  24
  -7   1   3 1437.51 167.104   8
   7  -1  -2 885.702 123.890  25
  -7   1   2 829.645 118.142  24
  -7   1   2 911.108 126.173   8
  -7   1   2 817.029 135.646  13
   7  -1  -1 344.923 77.7700  25
  -7   1   1 231.092 63.2811   8
  -7   1   1 222.537 71.2247  13
   7  -1   0 934.177 130.739  25
  -7   1   0 846.176 113.130   8
  -7   1   0 1119.53 158.793  13
   7  -1   1 995.005 135.209  25
  -7   1  -1 1008.99 156.359  13
  -7   1  -2 2378.96 248.806  13
  -7   1  -3 1253.57 172.949  13
  -7   1  -4 280.324 74.0100  13
  -7   0  10 93.2789 39.4339  16
  -7   0   9 65.3994 38.3029  16
  -7   0   9 37.4057 25.0574  24
  -7   0   8 1448.20 167.353  24
  -7   0   8 1412.54 165.351  16
  -7   0   7 1599.21 165.918   8
  -7   0   7 1624.66 184.730  24
  -7   0   6 175.702 63.6876  24
  -7   0   6 93.7091 51.0611   8
  -7   0   5 1063.21 144.214   8
  -7   0   5 1023.40 144.028  24
  -7   0   4 589.953 107.934  24
  -7   0   4 485.560 96.5915   8
   7   0  -3 432.358 84.2360  25
  -7   0   3 314.970 77.3692  24
  -7   0   3 337.264 77.4800   8
  -7   0   3 388.602 97.9554  13
   7   0  -2 120.864 58.6650  25
  -7   0   2 99.3852 45.5972   8
  -7   0   2 138.443 54.0565  13
   7   0  -1 134.228 51.7472  25
  -7   0   1 86.4171 41.2639   8
  -7   0   1-25.9825 44.4133  13
  -7   0   0 290.925 87.0728  13
  -7   0  -1 25336.8 1167.78  13
  -7   0  -2 166.254 64.6854  13
  -7   0  -3 133.731 59.5641  13
  -7   0  -3 126.984 48.2794  10
  -7   0  -4 373.169 80.5749  13
  -7  -1  10 40.8845 32.5701  16
  -7  -1   9 1029.74 127.776  24
  -7  -1   9 923.052 127.630  21
  -7  -1   9 1171.00 131.483  16
  -7  -1   8 117.487 44.8125  16
  -7  -1   8 127.856 54.5449  24
  -7  -1   7 6895.62 420.510  24
  -7  -1   7 6420.97 388.518  16
  -7  -1   6 324.755 81.0798  24
  -7  -1   5 495.878 110.500  24
  -7  -1   5 388.570 94.2409   8
  -7  -1   5 340.980 90.0153  13
  -7  -1   4 5024.80 349.708   8
  -7  -1   4 4695.92 369.098  13
  -7  -1   3 13253.1 726.824  13
  -7  -1   2 1958.69 230.563  13
  -7  -1   1 95.2956 59.8202  13
  -7  -1   0 509.544 114.699  13
  -7  -1  -1 110.263 53.6370  13
  -7  -1  -1 677.286 108.294  10
  -7  -1  -2 2593.97 255.156  13
  -7  -1  -2 2535.88 216.782  10
  -7  -1  -3 440.012 95.1365  13
  -7  -1  -3 599.136 94.7677  10
  -7  -2  10 298.351 61.7620  16
  -7  -2   9 19.0142 29.4534  21
  -7  -2   9 70.3160 35.7277  16
  -7  -2   8 389.744 87.3238  21
  -7  -2   8 291.062 74.0005   7
  -7  -2   8 374.997 75.1107  16
  -7  -2   7 209.684 72.2341   7
  -7  -2   6 1828.55 209.247   7
  -7  -2   5 23.7796 25.7759   7
  -7  -2   4 2130.79 238.645  13
  -7  -2   4 2277.98 230.141   7
  -7  -2   3 156.352 72.0685  13
  -7  -2   3 181.013 58.6203   7
  -7  -2   2 942.885 156.505  13
  -7  -2   2 790.291 128.738   7
  -7  -2   1 2328.78 256.093  13
  -7  -2   1 2420.06 227.116   7
  -7  -2   1 2649.28 228.547  10
  -7  -2   0 1892.02 222.348  13
  -7  -2   0 1920.24 195.765  10
  -7  -2  -1 123.535 66.0187  13
  -7  -2  -1 142.397 54.1576  10
  -7  -2  -2 2256.65 222.143  13
  -7  -2  -2 2452.69 203.718  10
  -7  -3   9 1344.38 146.487  21
  -7  -3   8 276.921 69.8076  21
  -7  -3   8 245.487 74.8984   7
  -7  -3   7 88.4949 45.1631  21
  -7  -3   7 159.866 61.3533   7
  -7  -3   6 1907.17 213.477   7
  -7  -3   6 2075.31 205.990  21
  -7  -3   5 56.9402 41.5007  21
  -7  -3   5 30.0529 46.7736   7
  -7  -3   4 7738.50 507.229  13
  -7  -3   4 7963.13 488.817   7
  -7  -3   4 7371.97 437.703  21
  -7  -3   3 2387.44 256.749  13
  -7  -3   3 2915.22 267.367   7
  -7  -3   2 411.736 104.069  13
  -7  -3   2 409.730 91.7267   7
  -7  -3   1 4471.05 356.548  13
  -7  -3   1 4943.84 338.263   7
  -7  -3   0 514.459 100.250  13
  -7  -3  -1 1073.84 141.194  13
  -7  -4   8 827.916 112.656  21
  -7  -4   8 582.895 101.445   7
  -7  -4   7 504.376 81.7140  14
  -7  -4   7 557.128 91.1184  21
  -7  -4   7 424.614 94.7776   7
  -7  -4   6-9.79717 18.3967  14
  -7  -4   6-15.1748 33.6663  21
  -7  -4   6 32.7376 31.6859   7
  -7  -4   5 21.0620 21.4509  21
  -7  -4   5-28.1211 41.3760   7
  -7  -4   4 6359.48 422.994   7
  -7  -4   3 444.555 95.0129   7
  -7  -4   2 2823.45 244.840   7
  -7  -4   1 437.332 92.4962  13
  -7  -5   6 324.576 63.2455  14
  -7  -5   5-6.72549 23.2607  14
  -7  -5   4 1395.23 140.514  14
  -8   5   3 22.2339 29.0992   8
   8  -5  -2 315.238 66.3493  25
  -8   5   2 507.090 84.0747   8
   8  -5  -1 361.909 72.1917  25
  -8   5   1 540.111 81.8374   8
   8  -5   0 1232.57 130.811  25
  -8   4   5 156.840 41.3477   8
  -8   4   4 208.701 54.1730   8
   8  -4  -3 6178.57 388.391  25
  -8   4   3 9213.36 443.252   8
   8  -4  -2 1586.13 165.445  25
  -8   4   2 2319.46 190.785   8
   8  -4  -1 234.982 64.9331  25
  -8   4   1 401.659 78.3884   8
   8  -4   0-3.30010 28.2040  25
  -8   4   0 58.0747 32.4742   8
   8  -4   1 227.204 56.7423  25
  -8   3   6 325.584 72.6394  24
  -8   3   6 247.412 54.4860   8
  -8   3   5 137.100 50.8292  24
  -8   3   5 139.545 51.2895   8
  -8   3   4 3250.11 247.062  24
  -8   3   4 4029.84 275.503   8
   8  -3  -3 5856.31 373.638  25
  -8   3   3 7914.97 418.949   8
   8  -3  -2 4270.99 311.492  25
  -8   3   2 5602.48 335.673   8
   8  -3  -1 472.097 90.9991  25
  -8   3   1 582.635 91.1351   8
   8  -3   0 610.957 96.4280  25
  -8   3   0 786.679 100.799   8
   8  -3   1 376.358 75.5383  25
  -8   2   7 208.495 58.7535  24
  -8   2   6-37.2632 38.6624  24
  -8   2   6 8.61466 20.2865   8
  -8   2   5 2163.78 209.380  24
  -8   2   5 2875.87 224.617   8
  -8   2   4 24.4667 24.8666  24
  -8   2   4 9.59037 28.4022   8
   8  -2  -3 168.947 51.9757  25
  -8   2   3 186.495 57.4635  24
  -8   2   3 128.489 51.6960   8
   8  -2  -2 172.589 58.7917  25
  -8   2   2 173.090 54.0111   8
   8  -2  -1 69.3901 40.7436  25
  -8   2   1-13.6511 22.5548   8
   8  -2   0 3666.30 263.136  25
  -8   2  -1 7289.35 436.868  13
  -8   2  -2 46.6675 33.7051  13
  -8   1   8 8502.06 445.665  24
  -8   1   7 6417.38 371.445  24
  -8   1   7 5471.07 333.043  16
  -8   1   6 172.922 58.7830  24
  -8   1   6 236.525 65.6250   8
  -8   1   5 895.338 126.370  24
  -8   1   5 931.552 126.585   8
  -8   1   4 602.145 102.757  24
  -8   1   4 823.181 121.073   8
   8  -1  -3 174.064 56.6819  25
  -8   1   3 313.004 69.7046   8
   8  -1  -2 385.359 78.6172  25
  -8   1   2 298.091 73.5149   8
   8  -1  -1 60.0114 38.5641  25
  -8   1   1 28.2460 28.8219   8
  -8   1   1-30.8546 21.7379  13
  -8   1   0 33897.0 1431.99  13
  -8   1  -1 12336.5 641.996  13
  -8   1  -2 1317.01 157.431  13
  -8   0   8 16807.2 753.549  24
  -8   0   7 3913.59 279.555  24
  -8   0   6 67.8739 48.4078  24
  -8   0   3 541.860 106.271  13
  -8   0   2 109.420 51.2169  13
  -8   0   1 2876.60 261.662  13
  -8   0   1 2567.80 222.664   7
  -8   0   0 783.082 128.432  13
  -8   0  -1 3348.37 272.418  13
  -8  -1   8 77.9654 42.5572  21
  -8  -1   7 186.014 61.2292   7
  -8  -1   6 723.752 116.028   7
  -8  -1   5 338.409 88.3005   7
  -8  -1   4 3422.72 292.705  13
  -8  -1   4 4754.40 330.500   7
  -8  -1   3 694.683 127.178  13
  -8  -1   3 1091.77 144.540   7
  -8  -1   2 2359.74 239.663  13
  -8  -1   2 2659.67 227.182   7
  -8  -1   1 696.494 122.947  13
  -8  -1   0 2340.17 228.083  13
  -8  -2   7-5.32352 21.2370  21
  -8  -2   7 78.4618 37.2290   7
  -8  -2   6 283.661 64.2168  21
  -8  -2   6 310.749 73.5492   7
  -8  -2   5 9472.43 507.754   7
  -8  -2   5 8342.73 458.675  21
  -8  -2   4 11464.1 559.620   7
  -8  -2   4 8714.13 476.125  21
  -8  -2   3 298.979 77.6862  13
  -8  -2   3 433.337 93.7154   7
  -8  -2   2 812.775 129.744  13
  -8  -2   2 768.416 110.058   7
  -8  -2   1 4.79982 22.5643  13
  -8  -3   5 2665.30 227.734   7
  -8  -3   4 24.5894 32.3667   7
   0   0   0    0.00    0.00   0
TITL 1817jb21 in P-1
REM P-1 (#2 in standard setting)
CELL 1.54184   7.658451   8.758227  11.378196 104.3258 104.6055  96.5665
ZERR    2.00   0.000693   0.000914   0.000861   0.0079   0.0073   0.0080
LATT  1
SFAC C H N S Ni
UNIT 20.00 48.00 8.00 8.00 2.00
TREF
HKLF 4
END
;
loop_
_symmetry_equiv_pos_as_xyz
'x, y, z'
'-x, -y, -z'
loop_
_atom_site_label
_atom_site_type_symbol
_atom_site_fract_x
_atom_site_fract_y
_atom_site_fract_z
_atom_site_U_iso_or_equiv
_atom_site_adp_type
_atom_site_occupancy
_atom_site_site_symmetry_order
_atom_site_calc_flag
_atom_site_refinement_flags_posn
_atom_site_refinement_flags_adp
_atom_site_refinement_flags_occupancy
_atom_site_disorder_assembly
_atom_site_disorder_group
C1 C 0.4085(4) 0.9026(4) 0.6689(3) 0.0306(7) Uani 1 1 d . . . . .
C2 C 0.3259(4) 1.2222(4) 0.5635(3) 0.0312(7) Uani 1 1 d . . . . .
C3 C 0.2232(5) 1.2741(4) 0.4552(3) 0.0336(7) Uani 1 1 d . . . . .
H3A H 0.147652 1.348169 0.489241 0.04 Uiso 1 1 calc R U . . .
H3B H 0.316153 1.339719 0.432176 0.04 Uiso 1 1 calc R U . . .
C4 C 0.1000(4) 1.1626(4) 0.3339(3) 0.0320(7) Uani 1 1 d . . . . .
C5 C -0.0814(4) 0.7724(4) 0.1748(3) 0.0291(7) Uani 1 1 d . . . . .
C6 C 0.6513(5) 1.0314(4) 0.9085(3) 0.0416(8) Uani 1 1 d . . . . .
H6A H 0.731429 1.0862 0.870739 0.062 Uiso 1 1 calc R U . . .
H6B H 0.725787 1.012998 0.985709 0.062 Uiso 1 1 calc R U . . .
H6C H 0.562991 1.098079 0.929843 0.062 Uiso 1 1 calc R U . . .
C7 C 0.4411(5) 1.3566(4) 0.6766(3) 0.0368(8) Uani 1 1 d . . . . .
H7A H 0.399329 1.352895 0.750618 0.055 Uiso 1 1 calc R U . . .
H7B H 0.428893 1.459615 0.659104 0.055 Uiso 1 1 calc R U . . .
H7C H 0.570108 1.345027 0.69369 0.055 Uiso 1 1 calc R U . . .
C8 C 0.0146(5) 1.2414(5) 0.2374(3) 0.0411(8) Uani 1 1 d . . . . .
H8A H 0.05137 1.202809 0.160442 0.062 Uiso 1 1 calc R U . . .
H8B H 0.055692 1.357914 0.271417 0.062 Uiso 1 1 calc R U . . .
H8C H -0.119508 1.215155 0.216981 0.062 Uiso 1 1 calc R U . . .
C9 C -0.2412(5) 0.4571(4) 0.0267(3) 0.0416(8) Uani 1 1 d . . . . .
H9A H -0.11581 0.43581 0.044187 0.062 Uiso 1 1 calc R U . . .
H9B H -0.315719 0.386613 -0.056447 0.062 Uiso 1 1 calc R U . . .
H9C H -0.294979 0.43673 0.092249 0.062 Uiso 1 1 calc R U . . .
N1 N 0.4235(4) 1.0504(3) 0.6734(2) 0.0317(6) Uani 1 1 d . . . . .
N2 N 0.3143(3) 1.0736(3) 0.5602(2) 0.0293(6) Uani 1 1 d . . . . .
N3 N 0.0688(3) 1.0091(3) 0.3144(2) 0.0285(6) Uani 1 1 d . . . . .
N4 N -0.0562(4) 0.9249(4) 0.1944(3) 0.0338(6) Uani 1 1 d . . . . .
S1 S 0.27577(11) 0.74310(10) 0.54079(7) 0.0328(3) Uani 1 1 d . . . . .
S2 S 0.02538(11) 0.67660(10) 0.28081(7) 0.0339(2) Uani 1 1 d . . . . .
S3 S 0.52939(11) 0.84192(10) 0.79716(7) 0.0353(3) Uani 1 1 d . . . . .
S4 S -0.23617(11) 0.66368(10) 0.02721(7) 0.0386(3) Uani 1 1 d . . . . .
Ni1 Ni 0.17329(6) 0.89252(6) 0.42515(4) 0.0271(2) Uani 1 1 d . . . . .
loop_
_atom_site_aniso_label
_atom_site_aniso_U_11
_atom_site_aniso_U_22
_atom_site_aniso_U_33
_atom_site_aniso_U_23
_atom_site_aniso_U_13
_atom_site_aniso_U_12
C1 0.0249(15) 0.0392(19) 0.0277(16) 0.0091(13) 0.0083(13) 0.0064(14)
C2 0.0261(15) 0.0336(19) 0.0331(17) 0.0059(14) 0.0101(13) 0.0068(13)
C3 0.0354(18) 0.0279(17) 0.0387(18) 0.0107(14) 0.0118(14) 0.0059(14)
C4 0.0295(16) 0.0341(18) 0.0363(17) 0.0132(14) 0.0116(13) 0.0099(14)
C5 0.0237(15) 0.0360(18) 0.0261(15) 0.0083(13) 0.0058(13) 0.0045(13)
C6 0.0421(19) 0.040(2) 0.0334(18) 0.0045(15) 0.0044(15) -0.0001(16)
C7 0.0360(18) 0.0324(18) 0.0347(18) 0.0038(14) 0.0053(14) 0.0013(15)
C8 0.0422(19) 0.0378(19) 0.0415(19) 0.0159(15) 0.0060(15) 0.0051(16)
C9 0.0397(19) 0.037(2) 0.0365(18) 0.0036(15) 0.0024(15) -0.0034(16)
N1 0.0288(13) 0.0362(16) 0.0279(13) 0.0094(11) 0.0050(11) 0.0045(12)
N2 0.0260(13) 0.0325(15) 0.0274(13) 0.0075(11) 0.0064(11) 0.0037(11)
N3 0.0244(13) 0.0320(15) 0.0280(13) 0.0090(11) 0.0057(11) 0.0045(11)
N4 0.0296(13) 0.0391(17) 0.0289(13) 0.0097(11) 0.0037(11) 0.0029(12)
S1 0.0341(5) 0.0304(5) 0.0298(4) 0.0091(3) 0.0023(3) 0.0049(3)
S2 0.0336(4) 0.0291(4) 0.0314(4) 0.0072(3) -0.0009(3) 0.0037(3)
S3 0.0343(5) 0.0385(5) 0.0287(4) 0.0103(3) 0.0019(3) 0.0054(4)
S4 0.0367(5) 0.0386(5) 0.0310(5) 0.0085(4) -0.0028(3) 0.0016(4)
Ni1 0.0239(3) 0.0280(4) 0.0268(3) 0.0073(2) 0.0039(2) 0.0035(2)
loop_
_atom_type_symbol
_atom_type_description
_atom_type_scat_dispersion_real
_atom_type_scat_dispersion_imag
_atom_type_scat_source
C C 0.0181 0.0091 'International Tables Vol C Tables 4.2.6.8 and 6.1.1.4'
H H 0 0 'International Tables Vol C Tables 4.2.6.8 and 6.1.1.4'
N N 0.0311 0.018 'International Tables Vol C Tables 4.2.6.8 and 6.1.1.4'
S S 0.3331 0.5567 'International Tables Vol C Tables 4.2.6.8 and 6.1.1.4'
Ni Ni -3.0029 0.5091 'International Tables Vol C Tables 4.2.6.8 and 6.1.1.4'
loop_
_geom_angle_atom_site_label_1
_geom_angle_atom_site_label_2
_geom_angle_atom_site_label_3
_geom_angle
_geom_angle_site_symmetry_1
_geom_angle_site_symmetry_3
_geom_angle_publ_flag
N1 C1 S1 125.6(3) . . ?
N1 C1 S3 121.0(2) . . ?
S1 C1 S3 113.4(2) . . ?
N2 C2 C3 122.1(3) . . ?
N2 C2 C7 123.0(3) . . ?
C3 C2 C7 114.8(3) . . ?
C4 C3 C2 124.3(3) . . ?
N3 C4 C3 122.3(3) . . ?
N3 C4 C8 122.7(3) . . ?
C3 C4 C8 115.1(3) . . ?
N4 C5 S2 124.6(2) . . ?
N4 C5 S4 114.1(2) . . ?
S2 C5 S4 121.3(2) . . ?
C1 N1 N2 112.1(3) . . ?
C2 N2 N1 113.0(3) . . ?
C2 N2 Ni1 127.5(2) . . ?
N1 N2 Ni1 119.5(2) . . ?
C4 N3 N4 113.4(3) . . ?
C4 N3 Ni1 127.3(2) . . ?
N4 N3 Ni1 119.3(2) . . ?
C5 N4 N3 112.7(3) . . ?
C1 S1 Ni1 94.68(12) . . ?
C5 S2 Ni1 95.34(11) . . ?
C1 S3 C6 101.69(17) . . ?
C5 S4 C9 103.86(17) . . ?
N3 Ni1 N2 96.42(12) . . ?
N3 Ni1 S2 88.07(8) . . ?
N2 Ni1 S2 175.46(9) . . ?
N3 Ni1 S1 175.32(9) . . ?
N2 Ni1 S1 88.14(9) . . ?
S2 Ni1 S1 87.38(4) . . ?
loop_
_geom_bond_atom_site_label_1
_geom_bond_atom_site_label_2
_geom_bond_distance
_geom_bond_site_symmetry_2
_geom_bond_publ_flag
C1 N1 1.273(4) . ?
C1 S1 1.741(3) . ?
C1 S3 1.756(3) . ?
C2 N2 1.285(4) . ?
C2 C3 1.488(5) . ?
C2 C7 1.504(5) . ?
C3 C4 1.488(5) . ?
C4 N3 1.290(4) . ?
C4 C8 1.492(5) . ?
C5 N4 1.281(5) . ?
C5 S2 1.729(3) . ?
C5 S4 1.755(3) . ?
C6 S3 1.800(4) . ?
C9 S4 1.804(4) . ?
N1 N2 1.422(4) . ?
N2 Ni1 1.899(3) . ?
N3 N4 1.416(4) . ?
N3 Ni1 1.894(3) . ?
S1 Ni1 2.1508(9) . ?
S2 Ni1 2.1427(9) . ?
