#------------------------------------------------------------------------------
#$Date: 2021-04-05 17:53:56 +0300 (Mon, 05 Apr 2021) $
#$Revision: 263775 $
#$URL: file:///home/coder/svn-repositories/cod/cif/7/70/66/7706630.cif $
#------------------------------------------------------------------------------
#
# This file is available in the Crystallography Open Database (COD),
# http://www.crystallography.net/
#
# All data on this site have been placed in the public domain by the
# contributors.
#
data_7706630
loop_
_publ_author_name
'Kordestani, Nazanin'
'Amiri Rudbari, Hadi'
'Fernandes, Alexandra R.'
'Raposo, Lu\'is R'
'Luz, Andr\'e'
'Baptista, Pedro V.'
'Bruno, Giuseppe'
'Scopelliti, Rosario'
'Fateminia, Zohreh'
'Micale, Nicola'
'Tumanov, Nikolay'
'Wouters, Johan'
'Abbasi Kajani, Abolghasem'
'Bordbar, Abdol-Khalegh'
_publ_section_title
;
 Copper(ii) complexes with tridentate halogen-substituted Schiff base
 ligands: synthesis, crystal structures and investigating the effect of
 halogenation, leaving groups and ligand flexibility on antiproliferative
 activities.
;
_journal_issue                   11
_journal_name_full
'Dalton transactions (Cambridge, England : 2003)'
_journal_page_first              3990
_journal_page_last               4007
_journal_paper_doi               10.1039/d0dt03962d
_journal_volume                  50
_journal_year                    2021
_chemical_formula_moiety         'C14 H11 Cl Cu I2 N2 O'
_chemical_formula_sum            'C14 H11 Cl Cu I2 N2 O'
_chemical_formula_weight         576.04
_space_group_crystal_system      triclinic
_space_group_IT_number           2
_space_group_name_Hall           '-P 1'
_space_group_name_H-M_alt        'P -1'
_atom_sites_solution_hydrogens   geom
_atom_sites_solution_primary     dual
_atom_sites_solution_secondary   difmap
_audit_creation_method           SHELXL-2018/3
_audit_update_record
;
2018-10-08 deposited with the CCDC.	2021-02-15 downloaded from the CCDC.
;
_cell_angle_alpha                74.533(6)
_cell_angle_beta                 88.995(5)
_cell_angle_gamma                79.331(5)
_cell_formula_units_Z            2
_cell_length_a                   7.6342(4)
_cell_length_b                   8.3051(6)
_cell_length_c                   13.3598(10)
_cell_measurement_reflns_used    3187
_cell_measurement_temperature    100.01(10)
_cell_measurement_theta_max      29.1910
_cell_measurement_theta_min      3.9620
_cell_volume                     801.81(10)
_computing_cell_refinement       'CrysAlisPro 1.171.39.46 (Rigaku OD, 2018)'
_computing_data_collection       'CrysAlisPro 1.171.39.46 (Rigaku OD, 2018)'
_computing_data_reduction        'CrysAlisPro 1.171.39.46 (Rigaku OD, 2018)'
_computing_molecular_graphics    'Mercury 3.10.3 (CCDC, 2018)'
_computing_publication_material  'CIFTab (Sheldrick, 2015)'
_computing_structure_refinement  'SHELXL-2018/3 (Sheldrick, 2018)'
_computing_structure_solution    'SHELXT (Sheldrick, 2015)'
_diffrn_ambient_environment      N~2~
_diffrn_ambient_temperature      100.01(10)
_diffrn_detector                 'CCD plate'
_diffrn_detector_area_resol_mean 10.2665
_diffrn_detector_type            Atlas
_diffrn_measured_fraction_theta_full 0.991
_diffrn_measured_fraction_theta_max 0.839
_diffrn_measurement_details
;
List of Runs (angles in degrees, time in seconds):

  # Type    Start    End  Width  t~exp~   \w     \q     \k     \f   Frames
#--------------------------------------------------------------------------
  1  \w    -20.00   5.00   1.00    1.00    --   -9.84 -99.00 120.00   25
  2  \w    -76.00  18.00   1.00    1.00    --   -9.84 -57.00 120.00   94
  3  \w    -71.00  17.00   1.00    1.00    --   -9.84 -77.00   0.00   88
  4  \w    -32.00  63.00   1.00    1.00    --   -9.84  57.00 -90.00   95
;
_diffrn_measurement_device       'four-circle diffractometer'
_diffrn_measurement_device_type  'SuperNova, Dual, Cu at home/near, Atlas'
_diffrn_measurement_method       '\w scans'
_diffrn_radiation_monochromator  mirror
_diffrn_radiation_probe          x-ray
_diffrn_radiation_type           'Mo K\a'
_diffrn_radiation_wavelength     0.71073
_diffrn_reflns_av_unetI/netI     0.0594
_diffrn_reflns_Laue_measured_fraction_full 0.991
_diffrn_reflns_Laue_measured_fraction_max 0.839
_diffrn_reflns_limit_h_max       10
_diffrn_reflns_limit_h_min       -10
_diffrn_reflns_limit_k_max       10
_diffrn_reflns_limit_k_min       -10
_diffrn_reflns_limit_l_max       18
_diffrn_reflns_limit_l_min       -8
_diffrn_reflns_number            3771
_diffrn_reflns_point_group_measured_fraction_full 0.991
_diffrn_reflns_point_group_measured_fraction_max 0.839
_diffrn_reflns_theta_full        25.242
_diffrn_reflns_theta_max         29.597
_diffrn_reflns_theta_min         3.379
_diffrn_source                   'micro-focus sealed X-ray tube'
_diffrn_source_type              'SuperNova (Mo) X-ray Source'
_exptl_absorpt_coefficient_mu    5.377
_exptl_absorpt_correction_T_max  1.000
_exptl_absorpt_correction_T_min  0.448
_exptl_absorpt_correction_type   gaussian
_exptl_absorpt_process_details
;
CrysAlisPro 1.171.39.46 (Rigaku Oxford Diffraction, 2018)
Numerical absorption correction based on gaussian integration over
a multifaceted crystal model.
Empirical absorption correction using spherical harmonics,
 implemented in SCALE3 ABSPACK scaling algorithm.
;
_exptl_crystal_colour            'metallic dark violet'
_exptl_crystal_density_diffrn    2.386
_exptl_crystal_description       plate
_exptl_crystal_F_000             538
_exptl_crystal_size_max          0.328
_exptl_crystal_size_mid          0.175
_exptl_crystal_size_min          0.083
_refine_diff_density_max         1.595
_refine_diff_density_min         -0.949
_refine_diff_density_rms         0.206
_refine_ls_extinction_method     none
_refine_ls_goodness_of_fit_ref   1.142
_refine_ls_hydrogen_treatment    constr
_refine_ls_matrix_type           full
_refine_ls_number_parameters     191
_refine_ls_number_reflns         3771
_refine_ls_number_restraints     0
_refine_ls_restrained_S_all      1.142
_refine_ls_R_factor_all          0.0568
_refine_ls_R_factor_gt           0.0418
_refine_ls_shift/su_max          0.000
_refine_ls_shift/su_mean         0.000
_refine_ls_structure_factor_coef Fsqd
_refine_ls_weighting_details
'w=1/[\s^2^(Fo^2^)+(0.0125P)^2^+3.5769P] where P=(Fo^2^+2Fc^2^)/3'
_refine_ls_weighting_scheme      calc
_refine_ls_wR_factor_gt          0.0751
_refine_ls_wR_factor_ref         0.0816
_reflns_Friedel_coverage         0.000
_reflns_number_gt                3102
_reflns_number_total             3771
_reflns_threshold_expression     'I > 2\s(I)'
_cod_data_source_file            d0dt03962d2.cif
_cod_data_source_block           Cu(I2-L1)NO3
_cod_depositor_comments
'Adding full bibliography for 7706630--7706633.cif.'
_cod_original_cell_volume        801.80(9)
_cod_database_code               7706630
_shelx_shelxl_version_number     2018/3
_shelx_space_group_comment
;
The symmetry employed for this shelxl refinement is uniquely defined
by the following loop, which should always be used as a source of
symmetry information in preference to the above space-group names.
They are only intended as comments.
;
_shelx_estimated_absorpt_t_min   0.271
_shelx_estimated_absorpt_t_max   0.664
_shelx_res_file
;
TITL GBA1B in P-1
    Cu(I2-L1)NO3.res
    created by SHELXL-2018/3 at 15:32:58 on 02-Oct-2018
CELL 0.71073 7.634178   8.305071  13.359833  74.5325  88.9953  79.3305
ZERR       2 0.000394   0.000576   0.000970   0.0064   0.0051   0.0050
LATT 1
SFAC C H Cl Cu I N O
UNIT 28 22 2 2 4 4 2
L.S.  10
PLAN  10
TEMP -173
BOND  $H
LIST  4
WPDB -2
CONF
SIZE  0.328 0.175 0.083
FMAP  2
ACTA
MERG  0
OMIT  3  -2   6

WGHT    0.012500    3.576900
BASF   0.12794
FVAR      10.60427
I2    5    0.509452    0.154072    0.084614    11.00000    0.02284    0.01355 =
         0.01605   -0.00751    0.00414    0.00016
I1    5    0.070458    0.818225    0.118318    11.00000    0.02476    0.01079 =
         0.01172   -0.00134    0.00101    0.00333
CU1   4    0.209129    0.610378    0.490932    11.00000    0.01202    0.00730 =
         0.01110   -0.00226    0.00020   -0.00051
O1    7    0.146479    0.623574    0.351343    11.00000    0.02012    0.00734 =
         0.01179   -0.00389    0.00099    0.00097
N1    6    0.269061    0.359941    0.525065    11.00000    0.01116    0.00745 =
         0.00966   -0.00059    0.00066   -0.00001
N2    6    0.177229    0.621214    0.637104    11.00000    0.01435    0.01029 =
         0.00872   -0.00370    0.00099   -0.00389
C3    1    0.296263    0.472638    0.128985    11.00000    0.01567    0.01127 =
         0.01305   -0.00370    0.00261   -0.00304
AFIX  43
H3    2    0.291201    0.513670    0.055372    11.00000   -1.20000
AFIX   0
C2    1    0.214885    0.575172    0.188026    11.00000    0.01348    0.00558 =
         0.01472    0.00153   -0.00219   -0.00134
C8    1    0.278168    0.258493    0.634129    11.00000    0.01706    0.00901 =
         0.01077   -0.00061    0.00396   -0.00146
AFIX  23
H8A   2    0.347572    0.143036    0.639877    11.00000   -1.20000
H8B   2    0.156245    0.247209    0.657633    11.00000   -1.20000
AFIX   0
C4    1    0.386190    0.308828    0.176373    11.00000    0.01561    0.00962 =
         0.01391   -0.00759    0.00622    0.00013
C1    1    0.221528    0.521441    0.298557    11.00000    0.00722    0.01410 =
         0.01018   -0.00508    0.00410   -0.00133
C9    1    0.365851    0.341989    0.703751    11.00000    0.00839    0.00932 =
         0.01115    0.00070   -0.00230   -0.00112
AFIX  23
H9A   2    0.397550    0.258490    0.772048    11.00000   -1.20000
H9B   2    0.477894    0.371808    0.672272    11.00000   -1.20000
AFIX   0
C7    1    0.318999    0.280759    0.455796    11.00000    0.00843    0.00754 =
         0.02196   -0.00329   -0.00397   -0.00044
AFIX  43
H7    2    0.362178    0.161784    0.480128    11.00000   -1.20000
AFIX   0
C12   1    0.113528    0.662428    0.834062    11.00000    0.01932    0.02077 =
         0.01961   -0.00884   -0.00035   -0.00543
AFIX  43
H12   2    0.090638    0.675187    0.901922    11.00000   -1.20000
AFIX   0
C6    1    0.316158    0.353955    0.345197    11.00000    0.01036    0.01052 =
         0.01359   -0.00328   -0.00188   -0.00296
C14   1    0.073497    0.761935    0.651748    11.00000    0.01645    0.00771 =
         0.02103   -0.00429    0.00361   -0.00626
AFIX  43
H14   2    0.021206    0.847791    0.592283    11.00000   -1.20000
AFIX   0
C5    1    0.396017    0.249126    0.282768    11.00000    0.01385    0.00989 =
         0.01468   -0.00260    0.00344   -0.00700
AFIX  43
H5    2    0.456836    0.136726    0.314596    11.00000   -1.20000
AFIX   0
C13   1    0.038910    0.788553    0.747590    11.00000    0.01718    0.01446 =
         0.01946   -0.00814    0.00205   -0.00327
AFIX  43
H13   2   -0.034150    0.890596    0.754473    11.00000   -1.20000
AFIX   0
C11   1    0.221685    0.517830    0.820301    11.00000    0.01930    0.01855 =
         0.01892   -0.01000   -0.00504   -0.00536
AFIX  43
H11   2    0.276011    0.431352    0.878937    11.00000   -1.20000
AFIX   0
C10   1    0.251537    0.498196    0.720529    11.00000    0.01155    0.01624 =
         0.01880   -0.00562   -0.00414   -0.00639
CL1   3    0.269477    0.874104    0.438419    11.00000    0.01788    0.00948 =
         0.01970   -0.00255    0.00305   -0.00302
HKLF 5




REM  GBA1B in P-1
REM wR2 = 0.0816, GooF = S = 1.142, Restrained GooF = 1.142 for all data
REM R1 = 0.0418 for 3102 Fo > 4sig(Fo) and 0.0568 for all 3771 data
REM 191 parameters refined using 0 restraints

END

WGHT      0.0125      3.5767

REM Highest difference peak  1.595,  deepest hole -0.949,  1-sigma level  0.206
Q1    1   0.3822  0.0364  0.0782  11.00000  0.05    1.60
Q2    1  -0.0263  0.6944  0.1185  11.00000  0.05    1.46
Q3    1   0.0243  0.8384  0.0579  11.00000  0.05    1.05
Q4    1   0.6171  0.2772  0.0802  11.00000  0.05    1.05
Q5    1   0.0983  0.3222  0.8849  11.00000  0.05    0.92
Q6    1   0.5899  0.1452  0.1361  11.00000  0.05    0.89
Q7    1   0.2582  0.8424  0.0640  11.00000  0.05    0.87
Q8    1   0.5089  0.3742  0.0793  11.00000  0.05    0.83
Q9    1   0.2704  0.4246  0.7940  11.00000  0.05    0.77
Q10   1   0.4985  0.2403  0.0633  11.00000  0.05    0.76
;
_shelx_res_checksum              40309
_shelx_hkl_file
;
   2   0   0    9043    1576   1
   3   0   0  453706    9703   1
   4   0   0  768094   15489   1
   5   0   0  393695   11701   1
   6   0   0   11124    2932   1
   7   0   0  797441   32712   1
  -8   0   1   -2998    2998  -2
   8   0   0   -2998    2998   1
  -9   0   1  209124   24133  -2
   9   0   0  209124   24133   1
  10   0   0   74960   14592   1
   9  -1  -2   67687   12570  -2
  -9   1   0   67687   12570   1
  -8   1   0  220862   15837   1
  -7   1   0   78113    6452   1
  -6   1   0   28805    3995   1
  -5   1   0 2150324   27835   1
  -4   1   0    1612    1483   1
  -3   1   0  253319    7490   1
  -2   1   0    4121    1153   1
   1  -1  -1 1178964   10732  -2
  -1   1   0 1178964   10732   1
   1   1   0  145438    6300   1
   2   1   0 9068361   56962   1
   3   1   0  403094   11349   1
   4   1   0  135150    6396   1
   5   1   0     779    1616   1
   6   1   0   69276    5899   1
  -7  -1   0    8030    2783  -2
   7   1   0    8030    2783   1
  -8  -1   0   48783    6648  -2
   8   1   0   48783    6648   1
   9   1   0  218986   14821   1
  10   1   0   86579   16869   1
  -9   2   0    7007    4317   1
  -8   2   0    2157    3237   1
  -7   2   0   57357    5154   1
  -6   2   0  169446    8236   1
  -5   2   0    3398    1718   1
  -4   2   0  698768   48081   1
  -3   2   0  699458   13793   1
   2  -2  -2  417990    7816  -2
  -2   2   0  417990    7816   1
  -1   2   0   63748    4554   1
   0   2   0 1179255   22910   1
   1   2   0    2794    1975   1
   2   2   0 2219767   20612   1
   3   2   0  295638   10277   1
   4   2   0 1403931   24999   1
   5   2   0 1292596   22503   1
  -6  -2  -1   90139    5900  -2
   6   2   0   90139    5900   1
  -7  -2  -1  148686    8996  -2
   7   2   0  148686    8996   1
   8   2   0   40326    7277   1
   9   2   0  198979   12608   1
  10   2   0  207044   26140   1
  -8   3   0    2374    5931   1
  -7   3   0  286745   14043   1
  -6   3   0    2740    2317   1
  -5   3   0  789559   18787   1
   3  -3  -3  743451   17795  -2
  -3   3   0  743451   17795   1
  -2   3   0 1297018   22648   1
  -1   3   0  414663   13394   1
   0   3   0 1870943   45827   1
   1   3   0  666584   21128   1
   2   3   0 1505190   24252   1
   3   3   0   82986    5140   1
   4   3   0 2088067   32088   1
  -5  -3  -2  931811   19860  -2
   5   3   0  931811   19860   1
  -6  -3  -2   66986    6213  -2
   6   3   0   66986    6213   1
   7   3   0  307004   12049   1
   8   3   0   30526    5856   1
   9   3   0  171499   11933   1
  -8   4   0  169198   21247   1
  -7   4   0  186474   14681   1
  -6   4   0    6272    2791   1
   5  -4  -4  552812   17285  -2
  -5   4   0  552812   17285   1
   4  -4  -4   60804    4599  -2
  -4   4   0   60804    4599   1
  -3   4   0 1559294   27244   1
  -2   4   0  127084    6399   1
  -1   4   0  951901   21599   1
   0   4   0 1381560   41792   1
   1   4   0  151891   11766   1
   2   4   0  274853   11350   1
   3   4   0   76434    5595   1
  -4  -4  -3 1002183   36599  -2
   4   4   0 1002183   36599   1
  -5  -4  -3  113007    7438  -2
   5   4   0  113007    7438   1
   6   4   0  379323   14664   1
   7   4   0   30749    6252   1
   8   4   0   16498    4777   1
   9   4   0   55409   14751   1
  -7   5   0  139841   19418   1
   6  -5  -5   72576   19909  -2
  -6   5   0   72576   19909   1
   5  -5  -5  156205    9381  -2
  -5   5   0  156205    9381   1
  -4   5   0   13835    3697   1
  -3   5   0    1060    2033   1
  -2   5   0  338249   11991   1
  -1   5   0 1066333   21384   1
   0   5   0  603770   17992   1
   1   5   0   59082    8942   1
   2   5   0    4265    4304   1
  -3  -5  -4  364578   14733  -2
   3   5   0  364578   14733   1
   5   5   0   75419    8210   1
   6   5   0    3178    5485   1
   7   5   0  376335   19829   1
   8   5   0   61296    8509   1
   9   5   0   -4914    4914   1
   7  -6  -6  262861   28671  -2
  -7   6   0  262861   28671   1
   6  -6  -6  127822   19444  -2
  -6   6   0  127822   19444   1
  -5   6   0  410006   20928   1
  -4   6   0   13995    4685   1
  -3   6   0  202517   12528   1
  -2   6   0  108628    8380   1
  -1   6   0  163014    9470   1
   0   6   0  820855   19918   1
   1   6   0   29930    8052   1
  -2  -6  -5 1786774   34419  -2
   2   6   0 1786774   34419   1
  -3  -6  -5   21790    5074  -2
   3   6   0   21790    5074   1
   4   6   0  104675   14124   1
   5   6   0  458639   29440   1
   6   6   0  180089   19238   1
   7   6   0   67819   14372   1
   8   6   0   -3074    6960   1
   9   6   0  282671   26517   1
  -6   7   0   65990   14955   1
  -5   7   0  334055   30736   1
  -4   7   0    3449    7289   1
  -3   7   0  834638   26994   1
  -2   7   0   14056    4288   1
  -1   7   0  182729   13808   1
   0   7   0  101841   18137   1
  -1  -7  -6  547536   21733  -2
   1   7   0  547536   21733   1
  -2  -7  -6  454253   30976  -2
   2   7   0  454253   30976   1
   3   7   0  114420   11461   1
   4   7   0  806967   40874   1
   5   7   0    5356    4483   1
   6   7   0   35226    9913   1
   7   7   0    3507    4055   1
   8   7   0   39997   10469   1
   9   7   0   41316   12205   1
  -5   8   0   10069    7661   1
  -4   8   0  127632   21494   1
  -3   8   0   64233   13973   1
  -2   8   0  378777   32198   1
  -1   8   0  389571   21805   1
   0  -8  -7   20073    6319  -2
   0   8   0   20073    6319   1
  -1  -8  -7  119345   19100  -2
   1   8   0  119345   19100   1
   2   8   0  273084   26491   1
   3   8   0   51375   13399   1
   4   8   0   52241   12721   1
   5   8   0  141718   19372   1
   6   8   0   33216   11331   1
   7   8   0  110469   19174   1
  -8  -8  -6    2857    7651  -2
   8   8   0    2857    7651   1
  -3   9   0  332374   33685   1
  -2   9   0   61671   15059   1
   1  -9  -8    1145    8457  -2
  -1   9   0    1145    8457   1
   0   9   0  458146   36763   1
   1   9   0   20308   12590   1
   2   9   0  120096   19027   1
   3   9   0   27281   10958   1
   4   9   0  339039   31673   1
   5   9   0    3931    5908   1
   6   9   0   65436   10439   1
  -7  -9  -7  168340   24720  -2
   7   9   0  168340   24720   1
   1  10   0  101268   20440   1
   2  10   0  409108   37107   1
   3  10   0   20596    8600   1
  -6  -9   1   31192   10991   1
  -5  -9   1   23380    8840   1
  -4  -9   1  249283   27907   1
  -3  -9   1  196499   24268   1
  -2  -9   1  409693   35280   1
  -1  -9   1    4250    6127   1
   0  -9   1   13242    9163   1
  -1   9   9  197712   26097  -2
   1  -9   1  197712   26097   1
   2  -9   1   41723   12368   1
   3  -9   1   82662   17994   1
  -7  -8   1   19637    8996   1
  -6  -8   1   42553   11395   1
  -5  -8   1    7795    7076   1
  -4  -8   1    2397    5144   1
  -3  -8   1   37464   12582   1
  -2  -8   1   20144    7837   1
   1   8   8  872009   47047  -2
  -1  -8   1  872009   47047   1
   0   8   8  399865   32972  -2
   0  -8   1  399865   32972   1
   1  -8   1  339999   31140   1
   2  -8   1  304686   29473   1
   3  -8   1   36406   12859   1
   4  -8   1   12182   10301   1
   5  -8   1   -6605    7228   1
  -9  -7   1   33745   12757   1
  -8  -7   1   23652   10536   1
  -7  -7   1    7948    7987   1
  -6  -7   1  695670   41206   1
  -5  -7   1   26348    8716   1
  -4  -7   1  289714   25501   1
  -3  -7   1  349306   27362   1
   2   7   7  393460   29141  -2
  -2  -7   1  393460   29141   1
   1   7   7   29953   10889  -2
  -1  -7   1   29953   10889   1
   0  -7   1   56467    8765   1
   1  -7   1 1629144   41724   1
   2  -7   1   72756    9212   1
   3  -7   1  311766   28043   1
   4  -7   1  104803   17544   1
   5  -7   1  168871   22381   1
   6  -7   1   33708   12115   1
  -9  -6   1   40197   12443   1
  -8  -6   1   58813   11796   1
  -7  -6   1  213215   22503   1
  -6  -6   1    -631    4835   1
  -5  -6   1   15522    6288   1
  -4  -6   1 1538106   52437   1
   3   6   6   63953    7169  -2
  -3  -6   1   63953    7169   1
   2   6   6  174418    9307  -2
  -2  -6   1  174418    9307   1
  -1  -6   1    6439    3415   1
   0  -6   1  461128   15408   1
   1  -6   1     500    1852   1
   2  -6   1   -2364    6488   1
   3  -6   1  449535   19474   1
   4  -6   1  249299   12153   1
   5  -6   1  217778   14947   1
  -6   6   7   23885    9182  -2
   6  -6   1   23885    9182   1
  -7   6   7   22511   11105  -2
   7  -6   1   22511   11105   1
  -9  -5   1  132185   13409   1
  -8  -5   1    5479   14970   1
  -7  -5   1   14581    5771   1
  -6  -5   1  132929   16208   1
  -5  -5   1  207638   18892   1
   4   5   5  145178   10624  -2
  -4  -5   1  145178   10624   1
   3   5   5  272247   11053  -2
  -3  -5   1  272247   11053   1
  -2  -5   1  440558   16226   1
  -1  -5   1  734777   29355   1
   0  -5   1   22142    3377   1
   1  -5   1  163007    8809   1
   2  -5   1    8568    2810   1
   3  -5   1  683643   15282   1
   4  -5   1  108847    6565   1
  -5   5   6  116333    6927  -2
   5  -5   1  116333    6927   1
  -6   5   6  436974   21878  -2
   6  -5   1  436974   21878   1
   7  -5   1   22406   11040   1
  -9  -4   1   30325    6719   1
  -8  -4   1  135842   12823   1
  -7  -4   1    8265    4287   1
  -6  -4   1  483320   16994   1
   5   4   4   28074    4188  -2
  -5  -4   1   28074    4188   1
   4   4   4  773109   22529  -2
  -4  -4   1  773109   22529   1
  -3  -4   1   23831    4530   1
  -2  -4   1 2309845   33279   1
  -1  -4   1  834383   28198   1
   0  -4   1  194760    9579   1
   1  -4   1 1423106   27416   1
   2  -4   1  251098    9384   1
   3  -4   1  765563   21633   1
  -4   4   5   40530    3974  -2
   4  -4   1   40530    3974   1
  -5   4   5  799790   18211  -2
   5  -4   1  799790   18211   1
   6  -4   1  278759   16864   1
   7  -4   1   -1166    4041   1
  -9  -3   1  241023   14498   1
  -8  -3   1   -3308    3308   1
  -7  -3   1  423045   15590   1
   6   3   3  255728   12002  -2
  -6  -3   1  255728   12002   1
   5   3   3    1298    1792  -2
  -5  -3   1    1298    1792   1
  -4  -3   1  632237   18868   1
  -3  -3   1  237601   15161   1
  -2  -3   1 1501632   24304   1
  -1  -3   1  616725   21152   1
   0  -3   1 2371229   23641   1
   1  -3   1  905250   13312   1
   2  -3   1   43986    6128   1
  -3   3   4  309709   10187  -2
   3  -3   1  309709   10187   1
  -4   3   4    2434    1448  -2
   4  -3   1    2434    1448   1
   5  -3   1  343016   15829   1
   6  -3   1   47977    5772   1
   7  -3   1  235095   12249   1
   8  -3   1    2981    8432   1
 -10  -2   1   -3087    3129   1
  -9  -2   1    6045    6917   1
  -8  -2   1   12208    3513   1
   7   2   2  457020   16413  -2
  -7  -2   1  457020   16413   1
   6   2   2  677040   16487  -2
  -6  -2   1  677040   16487   1
  -5  -2   1  162145   13409   1
  -4  -2   1   63015    6038   1
  -3  -2   1     243    2140   1
  -2  -2   1   52348    3629   1
  -1  -2   1  353861    9275   1
   0  -2   1  283305    8299   1
   1  -2   1 1518138   29361   1
  -2   2   3  790000   13280  -2
   2  -2   1  790000   13280   1
   4  -2   1  450403   10449   1
   5  -2   1   -1136    2402   1
   6  -2   1   56041    4961   1
   7  -2   1    1006    1404   1
   8  -2   1  459887   31741   1
   9  -2   1   33674   10576   1
 -10  -1   1    4509    7573   1
  -9  -1   1   -8506    9411   1
   8   1   1   27913    5735  -2
  -8  -1   1   27913    5735   1
   7   1   1  198148   10672  -2
  -7  -1   1  198148   10672   1
  -6  -1   1  255969   17407   1
  -5  -1   1  146679    9375   1
  -4  -1   1 1871525   32469   1
  -3  -1   1    2220    1838   1
  -2  -1   1  906174   15870   1
  -1  -1   1  570013   10135   1
   0  -1   1 1141714   18495   1
  -1   1   2  993052    9408  -2
   1  -1   1  993052    9408   1
   2  -1   1  193584   57489   1
   3  -1   1 3390211   23076   1
   4  -1   1   83007    4857   1
   5  -1   1  218799    7620   1
   6  -1   1  428807   13675   1
   7  -1   1  198311    9653   1
   8  -1   1   62591    8024   1
  -9   1   3   13304    7129  -2
   9  -1   1   13304    7129   1
 -10   0   1    8140    9399   1
   9   0   0  354408   19745  -2
  -9   0   1  354408   19745   1
   8   0   0   14038    5031  -2
  -8   0   1   14038    5031   1
  -7   0   1  306457   15939   1
  -6   0   1  100694    7130   1
  -5   0   1  542908   14464   1
  -4   0   1  250538   10966   1
  -3   0   1    2618    1692   1
  -2   0   1 5009403   37984   1
   2   0   1 3140625   36179   1
   3   0   1  411679   10803   1
   4   0   1  105394    5147   1
   5   0   1 1053907   18266   1
   6   0   1    3948    2211   1
   7   0   1  153590    8338   1
  -8   0   2   12038    3794  -2
   8   0   1   12038    3794   1
  -9   0   2   21470   10526  -2
   9   0   1   21470   10526   1
  10   0   1   -9123    9123   1
   9  -1  -1   18160    7253  -2
  -9   1   1   18160    7253   1
  -8   1   1   19548    5855   1
  -7   1   1  584663   17862   1
  -6   1   1    9020    2643   1
  -5   1   1   48947    5127   1
  -4   1   1   71972    4921   1
  -3   1   1  943913   14668   1
  -2   1   1   33968    2515   1
   1  -1   0  899776   18213  -2
  -1   1   1  899776   18213   1
   1   1   1  449403   11554   1
   2   1   1   18725    1760   1
   3   1   1   96549    4967   1
   4   1   1  222451    7202   1
   5   1   1    9178    2058   1
   6   1   1  246782    9732   1
  -7  -1   1  107475    7180  -2
   7   1   1  107475    7180   1
  -8  -1   1  185619   12570  -2
   8   1   1  185619   12570   1
   9   1   1     291    9755   1
  10   1   1   10249    8878   1
  -9   2   1  100924   15993   1
  -8   2   1   11684    4289   1
  -7   2   1   33699    5493   1
  -6   2   1  699948   16451   1
  -5   2   1   38106    4221   1
  -4   2   1  130689    7840   1
  -3   2   1    7515    1744   1
   2  -2  -1 2716231   18421  -2
  -2   2   1 2716231   18421   1
  -1   2   1   10721    1226   1
   0   2   1  211809   10134   1
   1   2   1 1112490   15467   1
   2   2   1    8642    1590   1
   3   2   1 2605061   39147   1
   4   2   1  402708   12515   1
   5   2   1  271468    9994   1
  -6  -2   0   28264    5152  -2
   6   2   1   28264    5152   1
  -7  -2   0  373591   11912  -2
   7   2   1  373591   11912   1
   8   2   1  491498   17420   1
   9   2   1    9424    6107   1
  10   2   1   48178   13580   1
  -8   3   1    5828    3578   1
  -7   3   1  610286   20274   1
  -6   3   1   24488    4329   1
  -5   3   1  355945   12662   1
   4  -3  -2 1066154   19830  -2
  -4   3   1 1066154   19830   1
   3  -3  -2    6342    1591  -2
  -3   3   1    6342    1591   1
  -2   3   1  932173   17301   1
  -1   3   1  333453   10500   1
   0   3   1 2256758   28116   1
   1   3   1  115404    6354   1
   2   3   1  562165   11490   1
   3   3   1 1680656   27501   1
   4   3   1     845    1883   1
  -5  -3  -1  611936   15433  -2
   5   3   1  611936   15433   1
  -6  -3  -1  107141    7287  -2
   6   3   1  107141    7287   1
   7   3   1  359251   12392   1
   8   3   1   25080    4759   1
   9   3   1   41426    6255   1
  -8   4   1     585    9006   1
  -7   4   1  145181   12675   1
  -6   4   1   15812    4514   1
   5  -4  -3  535238   16765  -2
  -5   4   1  535238   16765   1
   4  -4  -3  177373    7381  -2
  -4   4   1  177373    7381   1
  -3   4   1  398740    9901   1
  -2   4   1  833846   18483   1
  -1   4   1  111183    7566   1
   0   4   1   17114    4706   1
   1   4   1   -3015    3225   1
   2   4   1 1199245   43745   1
   3   4   1  684929   15210   1
  -4  -4  -2   21783    4666  -2
   4   4   1   21783    4666   1
  -5  -4  -2  138705    8084  -2
   5   4   1  138705    8084   1
   6   4   1   56498    6576   1
   7   4   1   29669    6795   1
   8   4   1   51017    7349   1
   9   4   1    9872    2860   1
  -8   5   1   36940   12757   1
  -7   5   1   -2408   10026   1
   6  -5  -4   40046    7309  -2
  -6   5   1   40046    7309   1
   5  -5  -4   53619   11540  -2
  -5   5   1   53619   11540   1
  -4   5   1  477769   23442   1
  -3   5   1  402487   12905   1
  -2   5   1  992465   19594   1
  -1   5   1   59922    5294   1
   0   5   1   25919    3882   1
   1   5   1  213352   15874   1
   2   5   1   55973    8240   1
  -3  -5  -3  734006   18489  -2
   3   5   1  734006   18489   1
  -4  -5  -3   26473    3910  -2
   4   5   1   26473    3910   1
   5   5   1 1034565   27402   1
   6   5   1   16163    4124   1
   7   5   1    6385    4545   1
   8   5   1  177248   13909   1
   9   5   1   22299    5633   1
   7  -6  -5  235932   26672  -2
  -7   6   1  235932   26672   1
   6  -6  -5   72326   15893  -2
  -6   6   1   72326   15893   1
  -5   6   1  262732   15267   1
  -4   6   1   31577    5007   1
  -3   6   1  166377   10635   1
  -2   6   1 1103609   50291   1
  -1   6   1   13110    3002   1
   0   6   1 1647444   27295   1
   1   6   1   48022    6422   1
  -2  -6  -4  273720   14500  -2
   2   6   1  273720   14500   1
  -3  -6  -4  331958   11163  -2
   3   6   1  331958   11163   1
   4   6   1  199642   12985   1
   5   6   1  212192   19709   1
   6   6   1   29730    7661   1
   7   6   1  652117   36514   1
   8   6   1   25627    9186   1
   9   6   1   -6063    7642   1
  -6   7   1   12525    6906   1
  -5   7   1  203266   25105   1
  -4   7   1     897    4635   1
  -3   7   1  212569   13759   1
  -2   7   1    6137    3606   1
  -1   7   1  157471   19558   1
   0   7   1  259392   14940   1
  -1  -7  -5  239368   14089  -2
   1   7   1  239368   14089   1
  -2  -7  -5 1029681   44553  -2
   2   7   1 1029681   44553   1
   3   7   1    4967    5483   1
   4   7   1    8755    5485   1
   5   7   1   49730   10805   1
   6   7   1   30185   10081   1
   7   7   1   67094   13669   1
   8   7   1  109003   16742   1
   9   7   1   71525   15980   1
  -5   8   1   52737   12696   1
  -4   8   1  305774   29703   1
  -3   8   1   70424   16039   1
  -2   8   1   23722    9759   1
  -1   8   1    1128    4006   1
   0  -8  -6  571561   24323  -2
   0   8   1  571561   24323   1
  -1  -8  -6    6930    4125  -2
   1   8   1    6930    4125   1
   2   8   1   19696    8160   1
   3   8   1  465313   33769   1
   4   8   1    -151    8255   1
   5   8   1  132795   13230   1
   6   8   1    3473    6932   1
   7   8   1  106194   18821   1
  -8  -8  -5    9813    7378  -2
   8   8   1    9813    7378   1
  -3   9   1   -6038    6038   1
  -2   9   1  493297   39255   1
   1  -9  -7   45079   14136  -2
  -1   9   1   45079   14136   1
   0   9   1  370702   33880   1
   1   9   1   19431    8290   1
   2   9   1  596990   40829   1
   3   9   1   67074   14434   1
   4   9   1   36138   10209   1
   5   9   1  299509   30082   1
   6   9   1   14395    6390   1
  -7  -9  -6  133204   21363  -2
   7   9   1  133204   21363   1
   0  10   1  179099   25725   1
   1  10   1   21077    8218   1
   2  10   1  113181   20662   1
   3  10   1    3571    3971   1
   4  10   1  318690   32819   1
  -5  -9   2  219747   34644   1
  -4  -9   2   23870    8516   1
  -3  -9   2   -8088    8088   1
  -2  -9   2    5234    8745   1
  -1  -9   2   13459    8244   1
   0  -9   2   89224   18908   1
  -1   9  10   50956   13526  -2
   1  -9   2   50956   13526   1
   2  -9   2  190717   25869   1
  -7  -8   2    2938    9238   1
  -6  -8   2   41241   13515   1
  -5  -8   2   38735   11662   1
  -4  -8   2    3047    5261   1
  -3  -8   2  591733   27836   1
  -2  -8   2    5412    4687   1
   1   8   9  354948   31743  -2
  -1  -8   2  354948   31743   1
   0   8   9  192090   22819  -2
   0  -8   2  192090   22819   1
   1  -8   2  161872   22113   1
   2  -8   2   52971   13699   1
   3  -8   2     546   10147   1
   4  -8   2  684131   45162   1
   5  -8   2   -2510    8421   1
  -8  -7   2  196218   24137   1
  -7  -7   2   11437    7183   1
  -6  -7   2  151288   20820   1
  -5  -7   2  111854   16691   1
  -4  -7   2  219830   23160   1
  -3  -7   2   14656    7786   1
   2   7   8   11919    4872  -2
  -2  -7   2   11919    4872   1
   1   7   8 1395396   55527  -2
  -1  -7   2 1395396   55527   1
   0  -7   2     601    5148   1
   1  -7   2  172168   14174   1
   2  -7   2   23125   10135   1
   3  -7   2  231203   24938   1
   4  -7   2   22570    9543   1
   5  -7   2   33593   12819   1
   6  -7   2  309808   30674   1
  -9  -6   2   98093   17096   1
  -8  -6   2   25363    7841   1
  -7  -6   2   27007    7945   1
  -6  -6   2  463807   33025   1
  -5  -6   2   15220    8263   1
  -4  -6   2    7235    6582   1
   3   6   7  116426   14899  -2
  -3  -6   2  116426   14899   1
   2   6   7  395010   17090  -2
  -2  -6   2  395010   17090   1
  -1  -6   2   29631    4875   1
   0  -6   2  317909   13116   1
   1  -6   2  240909   12060   1
   2  -6   2  101833   10406   1
   3  -6   2   81625    9301   1
   4  -6   2   76681   10161   1
   5  -6   2    1265    4757   1
  -6   6   8  127785   18548  -2
   6  -6   2  127785   18548   1
  -9  -5   2   -4393    7350   1
  -8  -5   2  131624   13721   1
  -7  -5   2   89158   13377   1
  -6  -5   2  118857   11779   1
  -5  -5   2  483988   29349   1
   4   5   6   73225    7906  -2
  -4  -5   2   73225    7906   1
   3   5   6  570004   16211  -2
  -3  -5   2  570004   16211   1
  -2  -5   2   15515    3335   1
  -1  -5   2  717661   17614   1
   0  -5   2   -2004    2178   1
   1  -5   2  536403   15920   1
   2  -5   2  704103   18340   1
   3  -5   2   21276    3309   1
   4  -5   2  524300   14465   1
  -5   5   7   43648    5686  -2
   5  -5   2   43648    5686   1
  -6   5   7  278052   31979  -2
   6  -5   2  278052   31979   1
   7  -5   2   -1154    7771   1
 -10  -4   2  147143   20029   1
  -9  -4   2   14099    7417   1
  -8  -4   2  109704   11882   1
  -7  -4   2    5389    3257   1
  -6  -4   2  584149   23108   1
   5   4   5    2807    1838  -2
  -5  -4   2    2807    1838   1
   4   4   5 1039738   22062  -2
  -4  -4   2 1039738   22062   1
  -3  -4   2  616490   19032   1
  -2  -4   2   35801    4769   1
  -1  -4   2 1583996   26388   1
   0  -4   2  287634   12155   1
   1  -4   2 1045191   27673   1
   2  -4   2  263030   10130   1
   3  -4   2  721910   14922   1
  -4   4   6  883636   17302  -2
   4  -4   2  883636   17302   1
  -5   4   6   97941    6554  -2
   5  -4   2   97941    6554   1
   6  -4   2   91048   10116   1
   7  -4   2   -1331    5126   1
  -9  -3   2  123713   12894   1
  -8  -3   2   81849   10318   1
  -7  -3   2   12936    5048   1
   6   3   4  160122   10010  -2
  -6  -3   2  160122   10010   1
   5   3   4   48550    5417  -2
  -5  -3   2   48550    5417   1
  -4  -3   2  618917   21806   1
  -3  -3   2  769885   28508   1
  -2  -3   2  840333   18666   1
  -1  -3   2  423676   12059   1
   0  -3   2  127536    5948   1
   1  -3   2  157440    5981   1
  -3   3   5  761202   16091  -2
   3  -3   2  761202   16091   1
  -4   3   5  752345   17475  -2
   4  -3   2  752345   17475   1
   5  -3   2   47798    4577   1
   6  -3   2   22918    4072   1
   7  -3   2   54402    6314   1
   8  -3   2   13283    5601   1
 -10  -2   2   17379   12687   1
  -9  -2   2   35897    6402   1
  -8  -2   2  343077   19594   1
   7   2   3   24230    4115  -2
  -7  -2   2   24230    4115   1
   6   2   3   33909    4740  -2
  -6  -2   2   33909    4740   1
  -5  -2   2   32262    5176   1
  -4  -2   2  175025   13612   1
  -3  -2   2  568043   23776   1
  -2  -2   2  241138   11413   1
  -1  -2   2 2439357   27960   1
   0  -2   2   13115    1948   1
   1  -2   2  836067  124914   1
  -2   2   4  466740    8968  -2
   2  -2   2  466740    8968   1
   3  -2   2   49610    4175   1
   4  -2   2  357820    9325   1
   5  -2   2   11255    2997   1
   6  -2   2 1467301   24798   1
   7  -2   2    9722    3074   1
   8  -2   2   12716    7104   1
   9  -2   2  145659   19545   1
 -10  -1   2   21427   10991   1
  -9  -1   2  134368   12830   1
   8   1   2  371724   19731  -2
  -8  -1   2  371724   19731   1
   7   1   2   26899    5491  -2
  -7  -1   2   26899    5491   1
  -6  -1   2 1031524   28120   1
  -5  -1   2  104852    8673   1
  -4  -1   2  516931   20872   1
  -3  -1   2  201626    9877   1
  -2  -1   2  299136   14784   1
  -1  -1   2 1924586   20556   1
   0  -1   2  200652    3814   1
  -1   1   3 5190545   26584  -2
   1  -1   2 5190545   26584   1
   2  -1   2   49762    2582   1
   3  -1   2  989644   12177   1
   4  -1   2  476061    9765   1
   5  -1   2  359360    9203   1
   6  -1   2   66633    5153   1
   7  -1   2   68498    5649   1
   8  -1   2  835278   43653   1
  -9   1   4    4893    6899  -2
   9  -1   2    4893    6899   1
 -10   0   2   10238    8143   1
   9   0   1  146614   13330  -2
  -9   0   2  146614   13330   1
   8   0   1     469    2338  -2
  -8   0   2     469    2338   1
  -7   0   2  140417   12091   1
  -6   0   2  359569   13482   1
  -5   0   2    4397    2292   1
  -4   0   2 1951600   66910   1
  -3   0   2   34147    4569   1
  -2   0   2  248284   10547   1
   1   0   2  327599   11756   1
   2   0   2  610174    6368   1
   3   0   2 1484933   19513   1
   4   0   2   18109    2122   1
   5   0   2  234846   11580   1
   6   0   2   75872    5200   1
   7   0   2   33855    4042   1
  -8   0   3    8770    4170  -2
   8   0   2    8770    4170   1
  -9   0   3   78756   15930  -2
   9   0   2   78756   15930   1
  10   0   2  133649   14457   1
   9  -1   0   68484   13214  -2
  -9   1   2   68484   13214   1
  -8   1   2  110110   11263   1
  -7   1   2   34072    5012   1
  -6   1   2  228540   10836   1
  -5   1   2  122087    6574   1
  -4   1   2    4275    2081   1
  -3   1   2 1355026   82045   1
  -2   1   2  939655   17601   1
   1  -1   1  714292   18163  -2
  -1   1   2  714292   18163   1
   0   1   2   75716    2038   1
   1   1   2 2403502   12039   1
   2   1   2  118010    3207   1
   3   1   2   61439    2605   1
   4   1   2 1071602   15693   1
   5   1   2    8115    1901   1
   6   1   2  410301   23870   1
  -7  -1   2    4760    2445  -2
   7   1   2    4760    2445   1
  -8  -1   2  262891   13369  -2
   8   1   2  262891   13369   1
   9   1   2    1041   14239   1
  10   1   2  137920   14911   1
  -8   2   2  268006   16670   1
  -7   2   2   12642    5920   1
  -6   2   2  230507    9901   1
  -5   2   2    -595    1769   1
  -4   2   2 2810708   34918   1
  -3   2   2   50895    7431   1
   2  -2   0  210948    5738  -2
  -2   2   2  210948    5738   1
  -1   2   2 1755212   32476   1
   0   2   2   26529    4075   1
   1   2   2 3032512   20574   1
   2   2   2  232686    6057   1
   3   2   2 1693167   17720   1
   4   2   2  114093    5463   1
   5   2   2  749399   12152   1
  -6  -2   1  871531   15803  -2
   6   2   2  871531   15803   1
  -7  -2   1   71818    6214  -2
   7   2   2   71818    6214   1
   8   2   2   92490    7492   1
   9   2   2   11910    6365   1
  10   2   2  183806   23892   1
  -8   3   2    -661    2928   1
  -7   3   2   15189    4018   1
  -6   3   2  216626   13523   1
  -5   3   2  128167    7897   1
   4  -3  -1  728800   20669  -2
  -4   3   2  728800   20669   1
   3  -3  -1   21068    3287  -2
  -3   3   2   21068    3287   1
  -2   3   2 2989393   23917   1
  -1   3   2   49125    3627   1
   0   3   2  692224   22404   1
   1   3   2 1004794   18230   1
   2   3   2     129    1084   1
   3   3   2  298566    8832   1
   4   3   2  409948   16550   1
  -5  -3   0 1177056   20345  -2
   5   3   2 1177056   20345   1
  -6  -3   0   71819    5766  -2
   6   3   2   71819    5766   1
   7   3   2   66393    5151   1
   8   3   2  109129    8316   1
   9   3   2    2228    5129   1
  -8   4   2   40172    9110   1
  -7   4   2  253854   16506   1
  -6   4   2   99092    9689   1
   5  -4  -2   13303    5097  -2
  -5   4   2   13303    5097   1
   4  -4  -2   12462    2687  -2
  -4   4   2   12462    2687   1
  -3   4   2   52133    3499   1
  -2   4   2   22733    2601   1
  -1   4   2  350658   14437   1
   0   4   2 1730056   41393   1
   1   4   2 1621132   38014   1
   2   4   2   23972    3960   1
   3   4   2   45476   12264   1
  -4  -4  -1    9393    2540  -2
   4   4   2    9393    2540   1
  -5  -4  -1  141891    9215  -2
   5   4   2  141891    9215   1
   6   4   2 1187201   23988   1
   7   4   2  110878    8206   1
   8   4   2  104132    8690   1
   9   4   2   -2593    3703   1
  -8   5   2    2162   12565   1
  -7   5   2   72743   16414   1
   6  -5  -3  398036   18677  -2
  -6   5   2  398036   18677   1
   5  -5  -3  269505   16507  -2
  -5   5   2  269505   16507   1
  -4   5   2  836941   21650   1
  -3   5   2  273715   10002   1
  -2   5   2  319392   10338   1
  -1   5   2   61043    6004   1
   0   5   2  566633   25926   1
   1   5   2 1822546   45588   1
   2   5   2  150754    9434   1
  -3  -5  -2 1519587   22910  -2
   3   5   2 1519587   22910   1
  -4  -5  -2   45821    4784  -2
   4   5   2   45821    4784   1
   5   5   2  227009   34079   1
   6   5   2   22481    4535   1
   7   5   2  246858   19912   1
   8   5   2  384955   26209   1
   9   5   2   -5543    5543   1
   7  -6  -4  160990   23291  -2
  -7   6   2  160990   23291   1
   6  -6  -4    5897    8017  -2
  -6   6   2    5897    8017   1
  -5   6   2  171227   20504   1
  -4   6   2  876738   37024   1
  -3   6   2  115644   24202   1
  -2   6   2  745207   27169   1
  -1   6   2   55982    5394   1
   0   6   2  642423   16556   1
   1   6   2   67929   24654   1
  -2  -6  -3  378868   16569  -2
   2   6   2  378868   16569   1
  -3  -6  -3  499917   15654  -2
   3   6   2  499917   15654   1
   4   6   2   95261    7151   1
   5   6   2  658869   33123   1
   6   6   2    9366    4510   1
   7   6   2   -6435    6435   1
   8   6   2   49015   10921   1
  -6   7   2    6694    4471   1
  -5   7   2  175798   23727   1
  -4   7   2   23113   10089   1
  -3   7   2   32393    5041   1
  -2   7   2  118085    9233   1
  -1   7   2  475346   23938   1
   0   7   2  400983   17798   1
  -1  -7  -4   64885   11936  -2
   1   7   2   64885   11936   1
  -2  -7  -4   99953   15971  -2
   2   7   2   99953   15971   1
   3   7   2  328391   25008   1
   4   7   2   99733   15345   1
   5   7   2   53888    7941   1
   6   7   2  364100   28058   1
   7   7   2   -5097    5655   1
   8   7   2   -7908    7908   1
  -5   8   2   17389   11483   1
  -4   8   2   79184   14915   1
  -3   8   2    4767    4001   1
  -2   8   2  867903   47203   1
  -1   8   2  126677   14919   1
   0  -8  -5    8999    3571  -2
   0   8   2    8999    3571   1
  -1  -8  -5  958429   29602  -2
   1   8   2  958429   29602   1
   2   8   2   26523    8033   1
   3   8   2  227410   22794   1
   4   8   2   -5763    5763   1
   5   8   2  579416   37388   1
   6   8   2    5533    4395   1
   7   8   2    2298    9308   1
  -8  -8  -4  137433   13816  -2
   8   8   2  137433   13816   1
  -3   9   2   53966   14410   1
  -2   9   2  249512   28687   1
   1  -9  -6   16613    8283  -2
  -1   9   2   16613    8283   1
   0   9   2 1001532   52437   1
   1   9   2   25912   10298   1
   2   9   2   17558    8519   1
   3   9   2  228441   25011   1
   4   9   2     215    6196   1
   5   9   2  145767   20778   1
   6   9   2   11844    7916   1
  -7  -9  -5  197299   23666  -2
   7   9   2  197299   23666   1
   0  10   2   84788   19132   1
   1  10   2   47031   14683   1
   2  10   2  259377   29423   1
   3  10   2  116345   20775   1
   4  10   2   -7876    7876   1
   5  10   2   31272    9077   1
  -4  -9   3     -26    7592   1
  -3  -9   3   56175   13786   1
  -2  -9   3  196615   27334   1
  -1  -9   3   13547    9824   1
   0  -9   3  412404   37838   1
  -1   9  11    9500    8562  -2
   1  -9   3    9500    8562   1
   2  -9   3  136716   23422   1
  -6  -8   3     299    5587   1
  -5  -8   3  508647   39367   1
  -4  -8   3   16473    7692   1
  -3  -8   3  340482   31575   1
  -2  -8   3   87487   17380   1
   1   8  10  184949   24322  -2
  -1  -8   3  184949   24322   1
   0   8  10  195587   24578  -2
   0  -8   3  195587   24578   1
   1  -8   3   45176   15166   1
   2  -8   3  882155   50652   1
   3  -8   3   -8454    8454   1
   4  -8   3   83872   18731   1
  -8  -7   3  126663   19489   1
  -7  -7   3   -5068    6964   1
  -6  -7   3   86930   16621   1
  -5  -7   3    5986    3353   1
  -4  -7   3   -6979    7151   1
  -3  -7   3  871643   45157   1
   2   7   9  160548   20545  -2
  -2  -7   3  160548   20545   1
   1   7   9  136450   19452  -2
  -1  -7   3  136450   19452   1
   0  -7   3    -519    7376   1
   1  -7   3  364643   30144   1
   2  -7   3    1230    4859   1
   3  -7   3  147505   21010   1
   4  -7   3  337469   31303   1
   5  -7   3   13550    9294   1
  -9  -6   3   31496   13326   1
  -8  -6   3  143419   20268   1
  -7  -6   3    7716    7022   1
  -6  -6   3   -2802    5522   1
  -5  -6   3  236235   23616   1
  -4  -6   3  152388   18094   1
   3   6   8  116306   10385  -2
  -3  -6   3  116306   10385   1
   2   6   8  395987   17444  -2
  -2  -6   3  395987   17444   1
  -1  -6   3  122254   12778   1
   0  -6   3  382886   19106   1
   1  -6   3   46203    7394   1
   2  -6   3  678097   41821   1
   3  -6   3   15601    8239   1
   4  -6   3   92849   10424   1
   5  -6   3  150714   29544   1
  -6   6   9   60255   16788  -2
   6  -6   3   60255   16788   1
  -9  -5   3   37883    9737   1
  -8  -5   3  147063   14689   1
  -7  -5   3  472804   24128   1
  -6  -5   3    4033    3113   1
  -5  -5   3  145248   17362   1
   4   5   7   27457    7955  -2
  -4  -5   3   27457    7955   1
   3   5   7 1861214   30104  -2
  -3  -5   3 1861214   30104   1
  -2  -5   3   13279    4773   1
  -1  -5   3  494274   12485   1
   0  -5   3  402747   12079   1
   1  -5   3   44419    5016   1
   2  -5   3  926348   21448   1
   3  -5   3    -625    2311   1
   4  -5   3  756997   21176   1
  -5   5   8   60776   12180  -2
   5  -5   3   60776   12180   1
  -6   5   8  353674   36802  -2
   6  -5   3  353674   36802   1
   7  -5   3  145105   20738   1
  -9  -4   3    8937    4325   1
  -8  -4   3  411758   23306   1
  -7  -4   3    3942    4473   1
  -6  -4   3  320119   29765   1
   5   4   6  387205   18521  -2
  -5  -4   3  387205   18521   1
   4   4   6   55912    6074  -2
  -4  -4   3   55912    6074   1
  -3  -4   3  524025   26508   1
  -2  -4   3    4940    2287   1
  -1  -4   3 1322738   18317   1
   0  -4   3  357951   14181   1
   1  -4   3  786792   17711   1
   2  -4   3  283336    9486   1
   3  -4   3    2291    3217   1
  -4   4   7   86074    5604  -2
   4  -4   3   86074    5604   1
  -5   4   7    -731    3706  -2
   5  -4   3    -731    3706   1
   6  -4   3  569118   27896   1
   7  -4   3  182706   14941   1
   8  -4   3   29046   12228   1
 -10  -3   3    9647    8700   1
  -9  -3   3   -6347   14753   1
  -8  -3   3   21759   10337   1
  -7  -3   3   15234    6349   1
   6   3   5  235923   31097  -2
  -6  -3   3  235923   31097   1
   5   3   5  776913   20546  -2
  -5  -3   3  776913   20546   1
  -4  -3   3  265401   11313   1
  -3  -3   3   51194    8592   1
  -2  -3   3   55783    7831   1
  -1  -3   3  124576    5821   1
   0  -3   3  343589   10102   1
   1  -3   3  768643   15709   1
   2  -3   3 1409614   31415   1
  -3   3   6    1476    1407  -2
   3  -3   3    1476    1407   1
  -4   3   6  124891   10404  -2
   4  -3   3  124891   10404   1
   5  -3   3    3723    1353   1
   6  -3   3   81913    6333   1
   7  -3   3  138298   11911   1
   8  -3   3   30818    9361   1
 -10  -2   3  135209   14164   1
  -9  -2   3   -4085    4085   1
  -8  -2   3   15194    4895   1
   7   2   4   79168   12069  -2
  -7  -2   3   79168   12069   1
   6   2   4  436099   16972  -2
  -6  -2   3  436099   16972   1
  -5  -2   3  380245   17514   1
  -4  -2   3  196324   11675   1
  -3  -2   3 2668705   54511   1
  -2  -2   3  123302    7360   1
  -1  -2   3  790162   12745   1
   0  -2   3    9409    1850   1
   1  -2   3  752447   16781   1
  -2   2   5 1581719   22642  -2
   2  -2   3 1581719   22642   1
   3  -2   3   21323    4227   1
   4  -2   3 1460068   18021   1
   5  -2   3    3075    1804   1
   6  -2   3  208269   13439   1
   7  -2   3   64274    7075   1
   8  -2   3  219789   24395   1
   9  -2   3   15635    5764   1
 -10  -1   3  116851   20762   1
  -9  -1   3   62239    9339   1
   8   1   3  398268   29931  -2
  -8  -1   3  398268   29931   1
   7   1   3   98650   14116  -2
  -7  -1   3   98650   14116   1
  -6  -1   3  530126   21599   1
  -5  -1   3    4342    2949   1
  -4  -1   3  570715   16271   1
  -3  -1   3 1014405   34070   1
  -2  -1   3    5411    3599   1
  -1  -1   3 3405380   32952   1
   0  -1   3   35138    4372   1
  -1   1   4 1065671   16004  -2
   1  -1   3 1065671   16004   1
   2  -1   3    3904     894   1
   3  -1   3  729149   13118   1
   4  -1   3  216401    6457   1
   5  -1   3  101523    4991   1
   6  -1   3  777069   15218   1
   7  -1   3    5526    2418   1
   8  -1   3   13075    7559   1
  -9   1   5   28283    9550  -2
   9  -1   3   28283    9550   1
 -10   0   3   30100   12297   1
   9   0   2   78368   10068  -2
  -9   0   3   78368   10068   1
   8   0   2   89733   10502  -2
  -8   0   3   89733   10502   1
  -7   0   3   78684    9291   1
  -6   0   3  346517   24050   1
  -5   0   3   51405    6465   1
  -4   0   3  251348   12810   1
  -3   0   3   80555    6821   1
  -2   0   3  521693   21161   1
   0   0   3 1222811   13841  -2
   0   0   3 1222811   13841   1
   1   0   3 1214017   10030   1
   2   0   3   79350    7817   1
   3   0   3   12924    1264   1
   4   0   3 1143608   18393   1
   5   0   3  101356    4604   1
   6   0   3    6297    1958   1
   7   0   3  308864   10346   1
  -8   0   4   17167    6927  -2
   8   0   3   17167    6927   1
  -9   0   4   39217    7747  -2
   9   0   3   39217    7747   1
  10   0   3   -6804    6804   1
   9  -1   1    8589    8960  -2
  -9   1   3    8589    8960   1
  -8   1   3  223774   16023   1
  -7   1   3    4322    4056   1
  -6   1   3  125951    8327   1
  -5   1   3  953207   22249   1
  -4   1   3   58805   10243   1
  -3   1   3  577094   38481   1
  -2   1   3   40718    6164   1
   1  -1   2 4484849   30430  -2
  -1   1   3 4484849   30430   1
   0   1   3   86007    2887   1
   1   1   3  312193    5796   1
   2   1   3 2289600   36557   1
   3   1   3  113661    3357   1
   4   1   3  470513    7665   1
   5   1   3    3952    1226   1
   6   1   3 1178016   16458   1
  -7  -1   3   23271    4749  -2
   7   1   3   23271    4749   1
  -8  -1   3  137275   12597  -2
   8   1   3  137275   12597   1
   9   1   3  168628   17821   1
  10   1   3   -9925    9925   1
  -9   2   3   28778   11313   1
  -8   2   3   28566    5828   1
  -7   2   3   -2561    4224   1
  -6   2   3 1481765   24634   1
  -5   2   3    2988    2116   1
  -4   2   3  281712    9837   1
  -3   2   3 1242412   19237   1
   2  -2   1  414239    7918  -2
  -2   2   3  414239    7918   1
  -1   2   3 1687038   33820   1
   0   2   3   12297    1517   1
   1   2   3 2502825   19144   1
   2   2   3     -19     787   1
   3   2   3  759066   11060   1
   4   2   3  638925   11605   1
   5   2   3     752    1269   1
  -6  -2   2  102653    5167  -2
   6   2   3  102653    5167   1
  -7  -2   2   36429    3534  -2
   7   2   3   36429    3534   1
   8   2   3  519472   16337   1
   9   2   3   59895    9055   1
  10   2   3    5290    8199   1
  -8   3   3  228460   25545   1
  -7   3   3   95960    8633   1
  -6   3   3   25907    7603   1
  -5   3   3  230467   10156   1
   4  -3   0 1146803   19186  -2
  -4   3   3 1146803   19186   1
   3  -3   0  202132    8494  -2
  -3   3   3  202132    8494   1
  -2   3   3  359693   20905   1
  -1   3   3   62152    7950   1
   0   3   3    7063    2109   1
   1   3   3  203508    8318   1
   2   3   3  147139    7267   1
   3   3   3  721187   13371   1
   4   3   3  640698   15276   1
  -5  -3   1    -754    1653  -2
   5   3   3    -754    1653   1
  -6  -3   1   80630    4699  -2
   6   3   3   80630    4699   1
   7   3   3   20982    4010   1
   8   3   3   63060    6229   1
   9   3   3   29246    7995   1
  10   3   3  119485   18568   1
  -8   4   3  103212   13566   1
  -7   4   3  -10618   10618   1
  -6   4   3   12589    4405   1
   5  -4  -1  116517   15611  -2
  -5   4   3  116517   15611   1
   4  -4  -1  213221    9052  -2
  -4   4   3  213221    9052   1
  -3   4   3  697642   12917   1
  -2   4   3  377207    8552   1
  -1   4   3 1680847   70267   1
   0   4   3  135197   11621   1
   1   4   3   99933    6946   1
   2   4   3   24056    3940   1
   3   4   3  392438   11103   1
  -4  -4   0 1314018   38687  -2
   4   4   3 1314018   38687   1
  -5  -4   0  139248    8961  -2
   5   4   3  139248    8961   1
   6   4   3  386596   13468   1
   7   4   3  123587    7613   1
   8   4   3  124345    9125   1
   9   4   3   43547   26770   1
  -8   5   3  289534   23163   1
  -7   5   3   56003   13449   1
   6  -5  -2  820986   44956  -2
  -6   5   3  820986   44956   1
   5  -5  -2  125701    8595  -2
  -5   5   3  125701    8595   1
  -3   5   3   14977    4674   1
  -2   5   3  784490   13871   1
  -1   5   3 1912846   28838   1
   0   5   3   64843    9324   1
   1   5   3 1175323   26386   1
   2   5   3  170096    9958   1
  -3  -5  -1  745015   17309  -2
   3   5   3  745015   17309   1
  -4  -5  -1   42721    5172  -2
   4   5   3   42721    5172   1
   5   5   3  187152   12781   1
   6   5   3  345571   16072   1
   7   5   3   34553    5550   1
   8   5   3  212992   19357   1
   9   5   3   46425   13018   1
   7  -6  -3  141150   22667  -2
  -7   6   3  141150   22667   1
   6  -6  -3  591250   40213  -2
  -6   6   3  591250   40213   1
  -5   6   3   79145   15136   1
  -4   6   3  469223   32573   1
  -3   6   3    -990    2020   1
  -2   6   3  257285   10473   1
  -1   6   3   43944    4571   1
   0   6   3   80432    6073   1
   1   6   3  463696   34730   1
  -2  -6  -2  134045    9874  -2
   2   6   3  134045    9874   1
  -3  -6  -2  503433   15603  -2
   3   6   3  503433   15603   1
   4   6   3   15432    4082   1
   5   6   3   15199    3880   1
   6   6   3   30324    7686   1
   7   6   3   47122    9475   1
   8   6   3   11072    5261   1
  -6   7   3  181672   24760   1
  -5   7   3   -7304    9525   1
  -4   7   3   36539   10937   1
  -3   7   3  299860   12165   1
  -2   7   3  166830    9757   1
  -1   7   3  292104   16104   1
   0   7   3   19527    4206   1
  -1  -7  -3  877607   40607  -2
   1   7   3  877607   40607   1
  -2  -7  -3   -1367    3895  -2
   2   7   3   -1367    3895   1
   3   7   3   19643    7470   1
   4   7   3  669322   35104   1
   5   7   3    9510    5758   1
   6   7   3   50014   10943   1
   7   7   3   -3980    3980   1
   8   7   3  207087   15068   1
  -5   8   3  -13963   14310   1
  -4   8   3  742796   46917   1
  -3   8   3   -8309   10336   1
  -2   8   3   15004    9057   1
  -1   8   3  824536   27226   1
   0  -8  -4   11621    4998  -2
   0   8   3   11621    4998   1
  -1  -8  -4  443925   31952  -2
   1   8   3  443925   31952   1
   2   8   3   -7370    7370   1
   3   8   3 1210361   51477   1
   4   8   3  101854   14929   1
   5   8   3     951    2399   1
   6   8   3  181338   21192   1
   7   8   3   24543    9855   1
  -3   9   3   12603    9077   1
  -2   9   3  846948   50124   1
   1  -9  -5   -5498    6928  -2
  -1   9   3   -5498    6928   1
   0   9   3  115124   19085   1
   1   9   3   88979   16918   1
   2   9   3    1734    6403   1
   3   9   3  200170   23685   1
   4   9   3   34077    9455   1
   5   9   3  244222   25868   1
   6   9   3   -5474    5474   1
  -7  -9  -4   -6090    6090  -2
   7   9   3   -6090    6090   1
   0  10   3  101147   20124   1
   1  10   3  218066   26537   1
   2  10   3    6421   10003   1
   3  10   3    1379    3172   1
   4  10   3   39484   13294   1
   5  10   3   19619   10014   1
  -6 -10  -5  164136   22780  -2
   6  10   3  164136   22780   1
  -3  -9   4   18514   10857   1
  -2  -9   4  480338   41366   1
  -1  -9   4   24735   11370   1
   0  -9   4  181347   26499   1
  -1   9  12   27812   13331  -2
   1  -9   4   27812   13331   1
  -5  -8   4  107566   19528   1
  -4  -8   4   15081    9469   1
  -3  -8   4  237409   26823   1
  -2  -8   4   65490   15474   1
   1   8  11   11839    6158  -2
  -1  -8   4   11839    6158   1
   0   8  11  629620   43477  -2
   0  -8   4  629620   43477   1
   1  -8   4    4272    5895   1
   2  -8   4  109610   19054   1
   3  -8   4   22468   11723   1
   4  -8   4  251207   28875   1
  -7  -7   4    5159    4351   1
  -6  -7   4   -3176    3176   1
  -5  -7   4  313461   29557   1
  -4  -7   4  104952   16932   1
  -3  -7   4    5941    6919   1
   2   7  10  117151   19287  -2
  -2  -7   4  117151   19287   1
   1   7  10  260240   26528  -2
  -1  -7   4  260240   26528   1
   0  -7   4  109246   18938   1
   1  -7   4  297547   27563   1
   2  -7   4  202451   24620   1
   3  -7   4   12556    7783   1
   4  -7   4    6809    7729   1
   5  -7   4  101515   19097   1
  -8  -6   4   27415   10441   1
  -7  -6   4  165631   22304   1
  -6  -6   4   62596   14043   1
  -5  -6   4  162093   20168   1
  -4  -6   4  316008   27497   1
   3   6   9   18520    8474  -2
  -3  -6   4   18520    8474   1
   2   6   9  238565   13979  -2
  -2  -6   4  238565   13979   1
  -1  -6   4   10268    9531   1
   0  -6   4  987268   44523   1
   1  -6   4   14660    8403   1
   2  -6   4  321830   26505   1
   3  -6   4  397230   30265   1
   4  -6   4    4212    3789   1
   5  -6   4  210813   16535   1
  -6   6  10   17679   11348  -2
   6  -6   4   17679   11348   1
  -9  -5   4  199185   23935   1
  -8  -5   4   -3933    6020   1
  -7  -5   4   39676    8157   1
  -6  -5   4   79819   10420   1
  -5  -5   4 1204885   50386   1
   4   5   8   18071    7736  -2
  -4  -5   4   18071    7736   1
   3   5   8  331134   25046  -2
  -3  -5   4  331134   25046   1
  -2  -5   4  340123   11222   1
  -1  -5   4  177186    8978   1
   0  -5   4  588953   17163   1
   1  -5   4    3346    1975   1
   2  -5   4  595995   17704   1
   3  -5   4   31482    5953   1
   4  -5   4  551586   17577   1
  -5   5   9  248455   16722  -2
   5  -5   4  248455   16722   1
  -6   5   9   37225    8014  -2
   6  -5   4   37225    8014   1
   7  -5   4   77585   15333   1
  -9  -4   4   -1507    6767   1
  -8  -4   4   49771   12360   1
  -7  -4   4   46873    8531   1
  -6  -4   4    5249    5098   1
   5   4   7  109647   10379  -2
  -5  -4   4  109647   10379   1
   4   4   7   40307    5222  -2
  -4  -4   4   40307    5222   1
  -3  -4   4  558770   20481   1
  -2  -4   4  345682   11728   1
  -1  -4   4  335939    9668   1
   0  -4   4   62374    5236   1
   1  -4   4    4418    1478   1
   2  -4   4     440    2354   1
   3  -4   4   73206   15603   1
  -4   4   8  279339   10220  -2
   4  -4   4  279339   10220   1
  -5   4   8  451021   14851  -2
   5  -4   4  451021   14851   1
   6  -4   4   23157    6687   1
   7  -4   4   22243    8048   1
   8  -4   4   12000    7963   1
 -10  -3   4   14458   10462   1
  -9  -3   4   76716   10926   1
  -8  -3   4  100348   12007   1
  -7  -3   4  321244   23642   1
   6   3   6   52161    8333  -2
  -6  -3   4   52161    8333   1
   5   3   6  187269   10900  -2
  -5  -3   4  187269   10900   1
  -4  -3   4  262778   11704   1
  -3  -3   4  158358   14958   1
  -2  -3   4  258179   17332   1
  -1  -3   4  180294    7194   1
   0  -3   4 2075638   30010   1
   1  -3   4   87620    4944   1
  -3   3   7   26051    3510  -2
   3  -3   4   26051    3510   1
  -4   3   7  324705   11630  -2
   4  -3   4  324705   11630   1
   5  -3   4  501191   56775   1
   6  -3   4   12249    4115   1
   7  -3   4  371983   31199   1
   8  -3   4   -3348    4094   1
 -10  -2   4    5866    4119   1
  -9  -2   4   15998   18093   1
  -8  -2   4  299165   33188   1
   7   2   5  259114   23472  -2
  -7  -2   4  259114   23472   1
   6   2   5   64466   12107  -2
  -6  -2   4   64466   12107   1
  -5  -2   4 1664318   45518   1
  -4  -2   4   94458   11489   1
  -3  -2   4  743841   30589   1
  -2  -2   4   74039    6059   1
  -1  -2   4  606456   10826   1
   0  -2   4 1980568   29003   1
   1  -2   4    5910    1953   1
  -2   2   6 1532220   24403  -2
   2  -2   4 1532220   24403   1
   3  -2   4   46371    3220   1
   4  -2   4  448530   10011   1
   5  -2   4   38847    3341   1
   6  -2   4  143136    5885   1
   7  -2   4  128723   18202   1
   8  -2   4    4166    4917   1
   9  -2   4  286457   30635   1
 -10  -1   4  151153   14649   1
  -9  -1   4   64332    9714   1
   8   1   4  109579   16756  -2
  -8  -1   4  109579   16756   1
   7   1   4  121630   16148  -2
  -7  -1   4  121630   16148   1
  -6  -1   4  388593   19448   1
  -5  -1   4  485921   20593   1
  -4  -1   4   56324    5873   1
  -3  -1   4 1148338   38679   1
  -2  -1   4  103405   10681   1
  -1  -1   4 1119622   17187   1
  -1   1   5  172320    5392  -2
   1  -1   4  172320    5392   1
   2  -1   4  311612  115348   1
   3  -1   4  341632    7362   1
   4  -1   4  712333   14477   1
   5  -1   4   21046    1771   1
   6  -1   4    5909    1486   1
   7  -1   4  106803   16202   1
   8  -1   4   40145    9816   1
  -9   1   6   22282    9859  -2
   9  -1   4   22282    9859   1
   9   0   3   79721   10284  -2
  -9   0   4   79721   10284   1
   8   0   3   43150    8109  -2
  -8   0   4   43150    8109   1
  -7   0   4   47865   11087   1
  -6   0   4   31668    5839   1
  -5   0   4  632403   41820   1
  -4   0   4   57397    8733   1
  -3   0   4   73627    9829   1
  -2   0   4  718071   27476   1
  -1   0   4  404354   17133   1
   0   0   4 1232390   15671  -2
   0   0   4 1232390   15671   1
   1   0   4   27224    6041   1
   2   0   4 2186583   14071   1
   3   0   4   19110    5352   1
   4   0   4     760    1641   1
   5   0   4 1221114   13865   1
   6   0   4    1976    1000   1
   7   0   4  110878   29125   1
  -8   0   5    1276    7425  -2
   8   0   4    1276    7425   1
  -9   0   5  283101   19119  -2
   9   0   4  283101   19119   1
   9  -1   2   -1703    3571  -2
  -9   1   4   -1703    3571   1
  -8   1   4   87599   11942   1
  -7   1   4  351631   18825   1
  -6   1   4    2013    4006   1
  -5   1   4  292288   15808   1
  -4   1   4  214102   10402   1
  -3   1   4 3557147   63865   1
  -2   1   4   11480    3978   1
   1  -1   3  570396   10436  -2
  -1   1   4  570396   10436   1
   0   1   4 1990667   17374   1
   1   1   4  334886    5948   1
   2   1   4  891650   14073   1
   3   1   4   61982    5912   1
   4   1   4 2589828   44736   1
   5   1   4   17560    1640   1
   6   1   4   69808    4030   1
  -7  -1   4  375184    8023  -2
   7   1   4  375184    8023   1
  -8  -1   4   18744    6596  -2
   8   1   4   18744    6596   1
   9   1   4   97004   13339   1
  10   1   4   23119   10024   1
  -9   2   4   -4545    4545   1
  -8   2   4  808383   44768   1
  -7   2   4     294    9567   1
  -6   2   4   57034    6507   1
  -5   2   4  488929   17460   1
  -4   2   4   45394    4972   1
  -3   2   4  270697   17708   1
   2  -2   2   80781    9224  -2
  -2   2   4   80781    9224   1
  -1   2   4 3417786   23241   1
   0   2   4    2432     986   1
   1   2   4  391808    6943   1
   2   2   4  226721    5210   1
   3   2   4    6626    1271   1
   4   2   4  157588    4870   1
   5   2   4   73491    3507   1
  -6  -2   3  716376   12713  -2
   6   2   4  716376   12713   1
  -7  -2   3  207388    6745  -2
   7   2   4  207388    6745   1
   8   2   4   11029   13320   1
   9   2   4   85792   11277   1
  10   2   4   -8317    8317   1
  -9   3   4   24961   10877   1
  -8   3   4    2046    9315   1
  -7   3   4  214772   12098   1
  -6   3   4  756244   22872   1
  -5   3   4  115462    7300   1
   4  -3   1     -64    1482  -2
  -4   3   4     -64    1482   1
   3  -3   1   89306    9935  -2
  -3   3   4   89306    9935   1
  -2   3   4  228012   15990   1
  -1   3   4    9378    4216   1
   0   3   4  530295   10421   1
   1   3   4  410403    9309   1
   2   3   4 1071812   15298   1
   3   3   4    2174    1422   1
   4   3   4   11430   12609   1
  -5  -3   2   73935    4515  -2
   5   3   4   73935    4515   1
  -6  -3   2  256419    7431  -2
   6   3   4  256419    7431   1
   7   3   4  323008    9636   1
   8   3   4  201126   15620   1
   9   3   4  263973   26753   1
  10   3   4   41491   10577   1
  -8   4   4  111243   14108   1
  -7   4   4   32072   12824   1
  -6   4   4  155359   10713   1
   5  -4   0  535007   17249  -2
  -5   4   4  535007   17249   1
   4  -4   0  251004    8569  -2
  -4   4   4  251004    8569   1
  -3   4   4 1810319   36884   1
  -2   4   4  161819   14704   1
  -1   4   4  369242   20619   1
   0   4   4  380007   19712   1
   1   4   4  795365   19205   1
   2   4   4 2089235   32815   1
   3   4   4  148972    6862   1
  -4  -4   1  970195   24855  -2
   4   4   4  970195   24855   1
  -5  -4   1  168046    6763  -2
   5   4   4  168046    6763   1
   6   4   4  253493   16856   1
   7   4   4   10671    2238   1
   8   4   4  108723    8075   1
   9   4   4  195800   16870   1
  -8   5   4  224083   20423   1
  -7   5   4    2545    8968   1
   6  -5  -1  248576   26462  -2
  -6   5   4  248576   26462   1
   5  -5  -1   36592    3986  -2
  -5   5   4   36592    3986   1
  -4   5   4  657486   36355   1
  -3   5   4  717632   24920   1
  -2   5   4  417949   18660   1
  -1   5   4 1160848   19211   1
   0   5   4   95534   11374   1
   1   5   4  753154   17118   1
   2   5   4    1602    2264   1
  -3  -5   0  184804    8520  -2
   3   5   4  184804    8520   1
  -4  -5   0  806888   31946  -2
   4   5   4  806888   31946   1
   5   5   4   52937    6147   1
   6   5   4  262124   11965   1
   7   5   4    7030    4518   1
   8   5   4   16631    5187   1
   9   5   4   10915   10209   1
   7  -6  -2  118427   20780  -2
  -7   6   4  118427   20780   1
   6  -6  -2   14537   10023  -2
  -6   6   4   14537   10023   1
  -5   6   4   26004   11388   1
  -4   6   4  379600   29942   1
  -3   6   4   82346   14127   1
  -2   6   4   27783    2691   1
  -1   6   4   47838    5664   1
   0   6   4  381295   14157   1
   1   6   4  218225   14111   1
  -2  -6  -1  440994   17788  -2
   2   6   4  440994   17788   1
  -3  -6  -1   87376    6543  -2
   3   6   4   87376    6543   1
   4   6   4  199205   11936   1
   5   6   4   16017    5202   1
   6   6   4     495    3540   1
   7   6   4  343966   22929   1
   8   6   4    7613    9248   1
  -6   7   4   21527   12172   1
  -5   7   4  253043   26977   1
  -4   7   4    9611    7272   1
  -3   7   4  468427   33542   1
  -2   7   4     984    3452   1
  -1   7   4  516135   18337   1
   0   7   4   37926   18273   1
  -1  -7  -2  178880   18307  -2
   1   7   4  178880   18307   1
  -2  -7  -2  973388   41511  -2
   2   7   4  973388   41511   1
   3   7   4    9178    5006   1
   4   7   4  339641   24770   1
   5   7   4    -975    1387   1
   6   7   4  633986   33248   1
   7   7   4   17456    7834   1
   8   7   4   -8555    8555   1
  -5   8   4    5913    5431   1
  -4   8   4   66459   15608   1
  -3   8   4  537446   38501   1
  -2   8   4   79099   15704   1
  -1   8   4  386186   16914   1
   0  -8  -3   10846    3233  -2
   0   8   4   10846    3233   1
  -1  -8  -3  933681   45196  -2
   1   8   4  933681   45196   1
   2   8   4    9695    6592   1
   3   8   4   24149    9261   1
   4   8   4  155470   18824   1
   5   8   4   64222   12826   1
   6   8   4  203563   21351   1
   7   8   4   37754    9828   1
  -3   9   4    8781    7515   1
  -2   9   4   -6190    7853   1
   1  -9  -4   28860   11173  -2
  -1   9   4   28860   11173   1
   0   9   4   14083    8352   1
   1   9   4  140968   19980   1
   2   9   4  228668   25780   1
   3   9   4   70352   14552   1
   4   9   4   47859   12989   1
   5   9   4   -4535    8119   1
   6   9   4    5335    7587   1
  -7  -9  -3    2165    3262  -2
   7   9   4    2165    3262   1
  -1  10   4  244050   30188   1
   0  10   4   15541    8904   1
   1  10   4   54773   13893   1
   2  10   4   94900   19253   1
   3  10   4   15648    7761   1
   4  10   4  240713   28234   1
   5  10   4   18153    8013   1
  -6 -10  -4  154801   22816  -2
   6  10   4  154801   22816   1
  -5  -8   5  189296   25569   1
  -4  -8   5   42993   14177   1
  -3  -8   5   34368   11438   1
  -2  -8   5  241314   19371   1
   1   8  12   71298   16758  -2
  -1  -8   5   71298   16758   1
   0   8  12  183583   25035  -2
   0  -8   5  183583   25035   1
   1  -8   5   33318   12254   1
   2  -8   5   82083   17689   1
   3  -8   5    9923   11144   1
   4  -8   5   62274   14638   1
  -6  -7   5  142286   21343   1
  -5  -7   5   -8044    8044   1
  -4  -7   5   58610   13633   1
  -3  -7   5  127917   19851   1
   2   7  11  246199   25887  -2
  -2  -7   5  246199   25887   1
   1   7  11  414115   36270  -2
  -1  -7   5  414115   36270   1
   0  -7   5  166129   21676   1
   1  -7   5   65075   14926   1
   2  -7   5   -8844    9231   1
   3  -7   5  580129   40454   1
   4  -7   5   39561   13745   1
  -7  -6   5  103542   19219   1
  -6  -6   5  237661   26389   1
  -5  -6   5   17509    8566   1
  -4  -6   5  332278   29229   1
   3   6  10   33099   10036  -2
  -3  -6   5   33099   10036   1
   2   6  10  900565   27269  -2
  -2  -6   5  900565   27269   1
  -1  -6   5   52803    6494   1
   0  -6   5  260405   11861   1
   1  -6   5  509989   33773   1
   2  -6   5   20633    8923   1
   3  -6   5  185583   21915   1
   4  -6   5   -3285    9803   1
   5  -6   5  541156   33460   1
  -6   6  11   20357    8439  -2
   6  -6   5   20357    8439   1
  -8  -5   5   -3933    3933   1
  -7  -5   5  563909   37975   1
  -6  -5   5   48495   12970   1
  -5  -5   5   81924   13883   1
   4   5   9  340090   27268  -2
  -4  -5   5  340090   27268   1
   3   5   9  244196   22812  -2
  -3  -5   5  244196   22812   1
  -2  -5   5  341628   25497   1
  -1  -5   5   88135    6885   1
   0  -5   5  721646   22526   1
   1  -5   5   85440    8319   1
   2  -5   5  336779   16058   1
   3  -5   5   64652   10896   1
   4  -5   5   25452    4957   1
  -5   5  10   94160   10684  -2
   5  -5   5   94160   10684   1
  -6   5  10   -4923    5637  -2
   6  -5   5   -4923    5637   1
   7  -5   5  168251   23540   1
  -9  -4   5  -12292   12292   1
  -8  -4   5   48668   10097   1
  -7  -4   5   -1096    4516   1
  -6  -4   5  116478   12294   1
   5   4   8  223680   17618  -2
  -5  -4   5  223680   17618   1
   4   4   8  495278   20909  -2
  -4  -4   5  495278   20909   1
  -3  -4   5   63979    7942   1
  -2  -4   5   23135    4205   1
  -1  -4   5   19325    2573   1
   0  -4   5   16459    2578   1
   1  -4   5  362918   17323   1
   2  -4   5  292805   10325   1
   3  -4   5 1057621   21749   1
  -4   4   9   20246    3157  -2
   4  -4   5   20246    3157   1
  -5   4   9   76790   10441  -2
   5  -4   5   76790   10441   1
   6  -4   5   27457    5987   1
   7  -4   5   86315   17382   1
  -9  -3   5   80537   15873   1
  -8  -3   5    9051    6249   1
  -7  -3   5  148170   14683   1
   6   3   7    9638   10256  -2
  -6  -3   5    9638   10256   1
   5   3   7  213670   14431  -2
  -5  -3   5  213670   14431   1
  -4  -3   5  402835   14956   1
  -3  -3   5   14485    3934   1
  -2  -3   5 2718588   33880   1
  -1  -3   5   42286    5225   1
   0  -3   5  309732    9041   1
   1  -3   5   29925    7116   1
   2  -3   5  813434   17892   1
  -3   3   8  973159   19724  -2
   3  -3   5  973159   19724   1
  -4   3   8  291011   24681  -2
   4  -3   5  291011   24681   1
   5  -3   5  766319   29347   1
   6  -3   5   22712    8352   1
   7  -3   5  182278   23781   1
   8  -3   5   23566    8924   1
 -10  -2   5  139655   21931   1
  -9  -2   5  114042   13690   1
  -8  -2   5   24520    8116   1
   7   2   6  562635   36158  -2
  -7  -2   5  562635   36158   1
   6   2   6  173729   19195  -2
  -6  -2   5  173729   19195   1
  -5  -2   5  302244   15917   1
  -4  -2   5   58091    7363   1
  -3  -2   5  593712   28984   1
  -2  -2   5 1236481   50449   1
  -1  -2   5   15685    2525   1
   0  -2   5 1479211   21214   1
   1  -2   5   13171    2769   1
  -2   2   7  825298   13472  -2
   2  -2   5  825298   13472   1
   3  -2   5   22192    2427   1
   4  -2   5  260532    7608   1
   5  -2   5  126652    7002   1
   6  -2   5   78085    6116   1
   7  -2   5  281684   27286   1
   8  -2   5    8708    9878   1
   9  -2   5   11366    8927   1
 -10  -1   5   41914   14268   1
  -9  -1   5   69014   14348   1
   8   1   5  132741   19235  -2
  -8  -1   5  132741   19235   1
   7   1   5  191752   21657  -2
  -7  -1   5  191752   21657   1
  -6  -1   5  172364   19578   1
  -5  -1   5  130308   11553   1
  -4  -1   5    2514    2507   1
  -3  -1   5  412201   24374   1
  -2  -1   5 1009542   34097   1
  -1  -1   5    3578    1819   1
  -1   1   6  282943    7754  -2
   1  -1   5  282943    7754   1
   2  -1   5  337661    7477   1
   3  -1   5  534139    8694   1
   4  -1   5   16409    2504   1
   5  -1   5  426555   13013   1
   6  -1   5  104762   15178   1
   7  -1   5   30549    8824   1
   8  -1   5  288965   27421   1
  -9   1   7   13213    7508  -2
   9  -1   5   13213    7508   1
   9   0   4   56809    9166  -2
  -9   0   5   56809    9166   1
   8   0   4   10280    6608  -2
  -8   0   5   10280    6608   1
  -7   0   5  496294   34781   1
  -6   0   5     776    6466   1
  -5   0   5   67905    8370   1
  -4   0   5  688390   23549   1
  -3   0   5   -2662    3724   1
  -2   0   5  756344   30036   1
  -1   0   5   48338    3902   1
   0   0   5 4159334   61005  -2
   0   0   5 4159334   61005   1
   1   0   5    7390    2036   1
   2   0   5  243060    7845   1
   3   0   5 1286422   20330   1
   4   0   5   56557    6280   1
   5   0   5  322899   12008   1
   6   0   5    4900   10612   1
   7   0   5  779074   26538   1
  -8   0   6    9383    3732  -2
   8   0   5    9383    3732   1
  -9   0   6  114343   17241  -2
   9   0   5  114343   17241   1
   9  -1   3  107678   18803  -2
  -9   1   5  107678   18803   1
  -8   1   5   19965    5669   1
  -7   1   5  267951   16792   1
  -6   1   5   32832    9079   1
  -5   1   5 1454874   36616   1
  -4   1   5   17926    6085   1
  -3   1   5  282554   19201   1
  -2   1   5 1931544   25862   1
   1  -1   4  320588    9021  -2
  -1   1   5  320588    9021   1
   0   1   5  446226    8721   1
   1   1   5   99343    4737   1
   2   1   5 3684730   39278   1
   3   1   5   20496    5430   1
   4   1   5   94310    6926   1
   5   1   5  151839    9971   1
   6   1   5   57471    8660   1
  -7  -1   5  148800   15859  -2
   7   1   5  148800   15859   1
  -8  -1   5   19278    5183  -2
   8   1   5   19278    5183   1
   9   1   5  158300   14771   1
  -9   2   5     463    5664   1
  -8   2   5   12793    4675   1
  -7   2   5   89902   13798   1
  -6   2   5   38895    5373   1
  -5   2   5   79911    5596   1
  -4   2   5  213557   18679   1
  -3   2   5 1378459   42222   1
   2  -2   3  437073   14928  -2
  -2   2   5  437073   14928   1
   0   2   5   45865    2674   1
   1   2   5   21278    1924   1
   2   2   5   44620    2282   1
   3   2   5  725530    8903   1
   4   2   5  447232   12955   1
   5   2   5  267942   21093   1
  -6  -2   4   20331    6610  -2
   6   2   5   20331    6610   1
  -7  -2   4   41629    6721  -2
   7   2   5   41629    6721   1
   8   2   5   37729   18345   1
   9   2   5   42808    8120   1
  10   2   5   34966    9524   1
  -9   3   5  193972   26862   1
  -8   3   5  141500   22300   1
  -7   3   5   44503    5447   1
  -6   3   5   29396    5063   1
  -5   3   5  287574   12311   1
   4  -3   2   71612   13646  -2
  -4   3   5   71612   13646   1
   3  -3   2  115811   12786  -2
  -3   3   5  115811   12786   1
  -2   3   5 1223327   38215   1
  -1   3   5   17230    5029   1
   0   3   5 2135498   21742   1
   1   3   5   21932    2682   1
   2   3   5  168402    6159   1
   3   3   5  160600    5895   1
   4   3   5  454780   13825   1
  -5  -3   3  926418   14693  -2
   5   3   5  926418   14693   1
  -6  -3   3  140701    5154  -2
   6   3   5  140701    5154   1
   7   3   5  367522   11099   1
   8   3   5   89818   16623   1
   9   3   5   60039    9067   1
  10   3   5   -8053    8053   1
  -8   4   5   38354    9138   1
  -7   4   5  514746   28302   1
  -6   4   5    -256    3415   1
   5  -4   1  871165   31393  -2
  -5   4   5  871165   31393   1
   4  -4   1   66887   11146  -2
  -4   4   5   66887   11146   1
  -3   4   5  749695   24294   1
  -2   4   5   88825   11805   1
  -1   4   5  372767   21397   1
   0   4   5 1926127   20705   1
   1   4   5   52462    4132   1
   2   4   5 1511006   20812   1
   3   4   5  222376   10847   1
  -4  -4   2  631765   12665  -2
   4   4   5  631765   12665   1
  -5  -4   2    3626    1866  -2
   5   4   5    3626    1866   1
   6   4   5  147515    9147   1
   7   4   5  445067   13146   1
   8   4   5   10395   11296   1
   9   4   5   56520   16069   1
  -8   5   5  164707   18053   1
  -7   5   5    8253   10583   1
   6  -5   0  105823   17553  -2
  -6   5   5  105823   17553   1
   5  -5   0  448045   32157  -2
  -5   5   5  448045   32157   1
  -4   5   5  128871   16850   1
  -3   5   5  481360   29720   1
  -2   5   5   11534    4299   1
  -1   5   5  592774   20927   1
   0   5   5  351382   15201   1
   1   5   5    1290    6965   1
   2   5   5  819636   48002   1
  -3  -5   1  157106    8267  -2
   3   5   5  157106    8267   1
  -4  -5   1  114379    8645  -2
   4   5   5  114379    8645   1
   5   5   5   60832    5618   1
   6   5   5  115695    7773   1
   7   5   5   62241    5745   1
   8   5   5     409    7303   1
   7  -6  -1  112660   20290  -2
  -7   6   5  112660   20290   1
   6  -6  -1  160754   22756  -2
  -6   6   5  160754   22756   1
  -5   6   5  378581   32054   1
  -4   6   5   90052   15134   1
  -3   6   5   41895   10335   1
  -2   6   5  172498   18817   1
  -1   6   5    3028    1411   1
   0   6   5  688052   27381   1
   1   6   5   37052    5647   1
  -2  -6   0 1078542   27422  -2
   2   6   5 1078542   27422   1
  -3  -6   0   68199    7094  -2
   3   6   5   68199    7094   1
   4   6   5   13338    4263   1
   5   6   5  466155   18064   1
   6   6   5      29    2035   1
   7   6   5   87079    9379   1
   8   6   5    6665    9728   1
  -6   7   5   80026   19633   1
  -5   7   5  532287   39706   1
  -4   7   5   36288   12224   1
  -3   7   5  738146   42058   1
  -2   7   5  312275   26939   1
  -1   7   5  151022    8235   1
   0   7   5  394862   15467   1
  -1  -7  -1   44601   10184  -2
   1   7   5   44601   10184   1
  -2  -7  -1  690685   34967  -2
   2   7   5  690685   34967   1
   3   7   5    9692    3951   1
   4   7   5 1079346   42636   1
   5   7   5   22561    7699   1
   6   7   5   15890    5928   1
   7   7   5  170331   13443   1
   8   7   5   63679   16139   1
  -5   8   5  150317   23558   1
  -4   8   5   16832    9668   1
  -3   8   5  236937   25948   1
  -2   8   5  116990   20255   1
  -1   8   5 1113209   51724   1
   0  -8  -2   62891    8976  -2
   0   8   5   62891    8976   1
  -1  -8  -2  117374   18696  -2
   1   8   5  117374   18696   1
   2   8   5    9070    4285   1
   3   8   5   27977    9565   1
   4   8   5  117110   15767   1
   5   8   5  174832   19840   1
   6   8   5  170476   19128   1
   7   8   5   -5221    5221   1
  -3   9   5    1602    6475   1
  -2   9   5   95075   20163   1
   1  -9  -3   26964    8658  -2
  -1   9   5   26964    8658   1
   0   9   5  850071   47446   1
   1   9   5  160138   21079   1
   2   9   5    2727    4794   1
   3   9   5   13216    7335   1
   4   9   5  186628   21986   1
   5   9   5   65215   14733   1
   6   9   5   18815    9678   1
  -7  -9  -2  120509   18632  -2
   7   9   5  120509   18632   1
  -1  10   5  417115   37405   1
   0  10   5  128736   19783   1
   1  10   5   11343    8372   1
   2  10   5  617375   43528   1
   3  10   5   45949   12649   1
   4  10   5  127371   20004   1
   5  10   5   29765    9760   1
  -6 -10  -3  149882   21483  -2
   6  10   5  149882   21483   1
  -4  -8   6   52203   16031   1
  -3  -8   6    -698   11768   1
  -2  -8   6  106641   19048   1
  -1  -8   6  162049   23661   1
   0   8  13   29058   11741  -2
   0  -8   6   29058   11741   1
   1  -8   6   88882   18631   1
   2  -8   6   70601   15538   1
   3  -8   6   60412   16678   1
  -6  -7   6  224663   28613   1
  -5  -7   6   -2200    6993   1
  -4  -7   6  165218   22865   1
  -3  -7   6  221303   26774   1
   2   7  12   13456    8652  -2
  -2  -7   6   13456    8652   1
   1   7  12  138410   20246  -2
  -1  -7   6  138410   20246   1
   0  -7   6   29386   11570   1
   1  -7   6  805121   47800   1
   2  -7   6   21910   10763   1
   3  -7   6  128695   20870   1
   4  -7   6  141088   21428   1
  -7  -6   6     412    5196   1
  -6  -6   6   58539   15017   1
  -5  -6   6   -1695    8605   1
  -4  -6   6 1010619   52140   1
   3   6  11   21288    9979  -2
  -3  -6   6   21288    9979   1
   2   6  11  255278   25537  -2
  -2  -6   6  255278   25537   1
  -1  -6   6  350629   16696   1
   0  -6   6   45215    5471   1
   1  -6   6   58459   13484   1
   2  -6   6   14969    7722   1
   3  -6   6  743525   41822   1
   4  -6   6   21602    7607   1
   5  -6   6   68681   15802   1
  -8  -5   6    7943    4681   1
  -7  -5   6    2613    9022   1
  -6  -5   6   28686    6915   1
  -5  -5   6  132120   18743   1
   4   5  10   35923   11694  -2
  -4  -5   6   35923   11694   1
   3   5  10  420327   30591  -2
  -3  -5   6  420327   30591   1
  -2  -5   6  866705   41755   1
  -1  -5   6   32835    5051   1
   0  -5   6  115823    7027   1
   1  -5   6    4045    1865   1
   2  -5   6    9818    3453   1
   3  -5   6    -431    4131   1
   4  -5   6   60045   10312   1
  -5   5  11  140185   12972  -2
   5  -5   6  140185   12972   1
  -6   5  11  253759   27096  -2
   6  -5   6  253759   27096   1
  -8  -4   6  189859   17600   1
  -7  -4   6   85263   10371   1
  -6  -4   6  105270   11720   1
   5   4   9   37760    6386  -2
  -5  -4   6   37760    6386   1
   4   4   9  377905   24912  -2
  -4  -4   6  377905   24912   1
  -3  -4   6     931    5884   1
  -2  -4   6  254310   11834   1
  -1  -4   6 1090780   23434   1
   0  -4   6  157863    6772   1
   1  -4   6  881277   15001   1
   2  -4   6    2705    3146   1
   3  -4   6  162954   10904   1
  -4   4  10   70907    5989  -2
   4  -4   6   70907    5989   1
  -5   4  10  265711   32798  -2
   5  -4   6  265711   32798   1
   6  -4   6  187866   23949   1
   7  -4   6   30187    9988   1
  -9  -3   6  196060   25253   1
  -8  -3   6   16669    7151   1
  -7  -3   6   78338   10928   1
   6   3   8  463982   23032  -2
  -6  -3   6  463982   23032   1
   5   3   8   11122    4462  -2
  -5  -3   6   11122    4462   1
  -4  -3   6  832058   26621   1
  -3  -3   6   41123    5101   1
  -2  -3   6  457769   16384   1
  -1  -3   6    2430    2305   1
   0  -3   6 1522838   56429   1
   1  -3   6 1424405   18557   1
   2  -3   6  260309   14075   1
  -3   3   9  645392   18571  -2
   3  -3   6  645392   18571   1
   4  -3   6   67507   12096   1
   5  -3   6  289013   27330   1
   6  -3   6   10928   10455   1
   7  -3   6   25957   11961   1
   8  -3   6   98193   18806   1
  -9  -2   6  137804   20430   1
  -8  -2   6   22394    8344   1
   7   2   7  214728   23563  -2
  -7  -2   6  214728   23563   1
   6   2   7  129962   17203  -2
  -6  -2   6  129962   17203   1
  -5  -2   6  231918   22184   1
  -4  -2   6  758047   82034   1
  -3  -2   6  189741   12612   1
  -2  -2   6  177844    7333   1
  -1  -2   6     902    2232   1
   0  -2   6  597269   14643   1
   1  -2   6  636725   14324   1
  -2   2   8  317099    8669  -2
   2  -2   6  317099    8669   1
   3  -2   6  477015   16495   1
   4  -2   6  221047   15840   1
   5  -2   6  121944    4819   1
   6  -2   6   38764    5277   1
   7  -2   6   22461   10867   1
   8  -2   6  118205   19747   1
  -9  -1   6   60497   15876   1
   8   1   6  131907   20429  -2
  -8  -1   6  131907   20429   1
   7   1   6   21891    9334  -2
  -7  -1   6   21891    9334   1
  -6  -1   6   51820   12798   1
  -5  -1   6  271509   23405   1
  -4  -1   6 1226744   63692   1
  -3  -1   6   21573    4707   1
  -2  -1   6  147782    9316   1
  -1  -1   6  504497   13277   1
   0  -1   6  128116    6480   1
  -1   1   7  873863   20542  -2
   1  -1   6  873863   20542   1
   3  -1   6 1194049   14147   1
   4  -1   6   27185    4812   1
   5  -1   6   80514   11821   1
   6  -1   6  530329   33817   1
   7  -1   6   14001    4473   1
   8  -1   6   27310    6382   1
   9   0   5  466309   35368  -2
  -9   0   6  466309   35368   1
   8   0   5   40595   11717  -2
  -8   0   6   40595   11717   1
  -7   0   6   59375   12406   1
  -6   0   6  220990   22806   1
  -5   0   6  110980   10742   1
  -4   0   6 1104573   31129   1
  -3   0   6   24868    7213   1
  -2   0   6 3074394   60235   1
   0   0   6   60149    3907  -2
   0   0   6   60149    3907   1
   1   0   6 1619249   19929   1
   2   0   6  430069    8538   1
   3   0   6  310409    9429   1
   4   0   6     267    1681   1
   5   0   6 1522975   29351   1
   6   0   6   -2581    2581   1
   7   0   6   18582   10156   1
  -8   0   7  144674   12757  -2
   8   0   6  144674   12757   1
  -9   0   7   26486    9004  -2
   9   0   6   26486    9004   1
   9  -1   4  143943   22701  -2
  -9   1   6  143943   22701   1
  -8   1   6   12677    4847   1
  -7   1   6  713834   43920   1
  -6   1   6    1715    6201   1
  -5   1   6  147441   18089   1
  -4   1   6  304660   16275   1
  -3   1   6  188464   16962   1
  -2   1   6  380332   12904   1
   1  -1   5  451609   10328  -2
  -1   1   6  451609   10328   1
   0   1   6 4002011   35761   1
   1   1   6   70579    3732   1
   2   1   6   40360    2337   1
   3   1   6  171611   15329   1
   4   1   6  156490    8710   1
   5   1   6   40224    5482   1
   6   1   6  173803   11583   1
  -7  -1   6  229357   14448  -2
   7   1   6  229357   14448   1
  -8  -1   6   50103    9282  -2
   8   1   6   50103    9282   1
   9   1   6    7791    4120   1
  -9   2   6   -7361    7361   1
  -8   2   6    5885    8115   1
  -7   2   6   -2950    3490   1
  -6   2   6  350783   16796   1
  -5   2   6  731432   27858   1
  -4   2   6  200285   13447   1
  -3   2   6   19058    3195   1
   2  -2   4  646073   15113  -2
  -2   2   6  646073   15113   1
  -1   2   6   53593    3302   1
   0   2   6    4866    1862   1
   1   2   6 2366428   20256   1
   2   2   6  604545    9268   1
   3   2   6  650829    8134   1
   4   2   6   77974   11655   1
   5   2   6   59509   12468   1
  -6  -2   5   94213    8909  -2
   6   2   6   94213    8909   1
  -7  -2   5  151601   12069  -2
   7   2   6  151601   12069   1
   8   2   6  177911   14111   1
   9   2   6   35154   14477   1
  -9   3   6  105247   21418   1
  -8   3   6   81116   15737   1
  -7   3   6  376624   28840   1
  -6   3   6    1904    2103   1
  -5   3   6   52611    9600   1
   4  -3   3 1574550   20776  -2
  -4   3   6 1574550   20776   1
   3  -3   3    2546     742  -2
  -3   3   6    2546     742   1
  -2   3   6  953626   36376   1
  -1   3   6    7449    1486   1
   0   3   6 1503754   15644   1
   1   3   6  113080    5397   1
   2   3   6  758234   13343   1
   3   3   6 1503340   17736   1
   4   3   6  226121    6928   1
  -5  -3   4  914580    9133  -2
   5   3   6  914580    9133   1
  -6  -3   4  186620    9223  -2
   6   3   6  186620    9223   1
   7   3   6  102827   17085   1
   8   3   6    2522    6413   1
   9   3   6   58910    9964   1
  -8   4   6   11219   11120   1
  -7   4   6  266300   20714   1
  -6   4   6   12468    9278   1
   5  -4   2  634295   46685  -2
  -5   4   6  634295   46685   1
   4  -4   2  145654   17340  -2
  -4   4   6  145654   17340   1
  -3   4   6  312961   16331   1
  -2   4   6 1226645   42254   1
  -1   4   6   40806    5557   1
   0   4   6  541612   11464   1
   1   4   6    2637    1550   1
   2   4   6  793384   18426   1
   3   4   6  128477    8952   1
  -4  -4   3  272710    8254  -2
   4   4   6  272710    8254   1
  -5  -4   3  652841   18340  -2
   5   4   6  652841   18340   1
   6   4   6  174550    7441   1
   7   4   6   79343   15553   1
   8   4   6   -6590    7588   1
  -8   5   6     961   15472   1
  -7   5   6   53720   14983   1
   6  -5   1  170309   22699  -2
  -6   5   6  170309   22699   1
   5  -5   1  182274   22099  -2
  -5   5   6  182274   22099   1
  -4   5   6   40772   10896   1
  -3   5   6  329642   25752   1
  -2   5   6  653688   23253   1
  -1   5   6   -1834    2706   1
   0   5   6  568138   12330   1
   1   5   6  258241    9508   1
   2   5   6  121852    8523   1
  -3  -5   2  438617   11554  -2
   3   5   6  438617   11554   1
  -4  -5   2  220045    8433  -2
   4   5   6  220045    8433   1
   5   5   6  343274   12078   1
   6   5   6    4116    2261   1
   7   5   6    4653    7523   1
   8   5   6  146062   22371   1
   7  -6   0  340376   35166  -2
  -7   6   6  340376   35166   1
   6  -6   0  105964   18992  -2
  -6   6   6  105964   18992   1
  -5   6   6   45881   13042   1
  -4   6   6  220585   23249   1
  -3   6   6  112302   17111   1
  -2   6   6  983907   43480   1
  -1   6   6  114014   14407   1
   0   6   6 1174045   19288   1
   1   6   6  181530   12045   1
  -2  -6   1   39011    5376  -2
   2   6   6   39011    5376   1
  -3  -6   1  417864   13884  -2
   3   6   6  417864   13884   1
   4   6   6  181215   11586   1
   5   6   6  368456   13764   1
   6   6   6    2465    2383   1
   7   6   6  446515   19111   1
   8   6   6    4501    9856   1
  -6   7   6  100835   19355   1
  -5   7   6  472119   38167   1
  -4   7   6  168050   22458   1
  -3   7   6  197306   23032   1
  -2   7   6  106075   16280   1
  -1   7   6   66455   12596   1
   0   7   6  952837   21446   1
  -1  -7   0  100233   13937  -2
   1   7   6  100233   13937   1
  -2  -7   0  960391   40570  -2
   2   7   6  960391   40570   1
   3   7   6    -612    4544   1
   4   7   6   -1777    6622   1
   5   7   6  170630   12826   1
   6   7   6  128347   12029   1
   7   7   6   20506   10143   1
   8   7   6   32235   12711   1
  -4   8   6  160115   21832   1
  -3   8   6  365012   32637   1
  -2   8   6    4921    6260   1
  -1   8   6     337    1358   1
   0  -8  -1  124866   13827  -2
   0   8   6  124866   13827   1
  -1  -8  -1   79125   13283  -2
   1   8   6   79125   13283   1
   2   8   6  135759   17047   1
   3   8   6  495517   32329   1
   4   8   6  125273   16620   1
   5   8   6    7645    5414   1
   6   8   6   46536    8576   1
   7   8   6   45616   13431   1
  -3   9   6    8286    7266   1
  -2   9   6  711695   46625   1
   1  -9  -2   10847    7155  -2
  -1   9   6   10847    7155   1
   1   9   6  111184   18214   1
   2   9   6  570404   37557   1
   3   9   6    5594    5907   1
   4   9   6   23525    7546   1
   5   9   6  392927   31622   1
   6   9   6    9101    4960   1
   0  10   6  427388   36759   1
   1  10   6    7467    8154   1
   2  10   6  221687   24962   1
   3  10   6   52509   12982   1
   4  10   6  199998   24687   1
   5  10   6   17389    7545   1
  -6 -10  -2    4282    4531  -2
   6  10   6    4282    4531   1
  -3  -8   7  451104   41328   1
  -2  -8   7    7946    8315   1
  -1  -8   7   24138   11317   1
   0   8  14  119008   22646  -2
   0  -8   7  119008   22646   1
   1  -8   7   17878    9081   1
   2  -8   7  111464   22373   1
  -5  -7   7   90519   18553   1
  -4  -7   7  112984   19047   1
  -3  -7   7  195081   25748   1
  -2  -7   7    2692    7320   1
   1   7  13 1007677   54492  -2
  -1  -7   7 1007677   54492   1
   0  -7   7   33498   12170   1
   1  -7   7   81007   17093   1
   2  -7   7  252097   29876   1
   3  -7   7    5994    8624   1
  -6  -6   7  440500   38538   1
  -5  -6   7   29165   12522   1
  -4  -6   7   25564   11102   1
   3   6  12  173273   22670  -2
  -3  -6   7  173273   22670   1
   2   6  12  232149   24612  -2
  -2  -6   7  232149   24612   1
  -1  -6   7   40998   13085   1
   0  -6   7   71276   13708   1
   1  -6   7  977963   50044   1
   2  -6   7   86160   15066   1
   3  -6   7     321    4326   1
   4  -6   7   13303    6021   1
   5  -6   7    -198    5721   1
  -7  -5   7   69416   15738   1
  -6  -5   7   22168    5890   1
  -5  -5   7  278393   27756   1
   4   5  11  470991   35579  -2
  -4  -5   7  470991   35579   1
   3   5  11  151323   19414  -2
  -3  -5   7  151323   19414   1
  -2  -5   7   57735   12991   1
  -1  -5   7  194422   21313   1
   0  -5   7   40225    5250   1
   1  -5   7   27122    3119   1
   2  -5   7  288707   15843   1
   3  -5   7  145952   13496   1
   4  -5   7  522172   24540   1
  -5   5  12   -2561    2988  -2
   5  -5   7   -2561    2988   1
  -6   5  12   37129   10510  -2
   6  -5   7   37129   10510   1
  -8  -4   7   83109   11384   1
  -7  -4   7   39312    8134   1
  -6  -4   7  326395   20737   1
   5   4  10   30556    7054  -2
  -5  -4   7   30556    7054   1
   4   4  10  158515   13011  -2
  -4  -4   7  158515   13011   1
  -3  -4   7  817129   41186   1
  -2  -4   7   57244   11979   1
  -1  -4   7  874442   26669   1
   0  -4   7  154870   10950   1
   1  -4   7  528136   23488   1
   2  -4   7    6047    3644   1
   3  -4   7  334042   12923   1
  -4   4  11  321120   17843  -2
   4  -4   7  321120   17843   1
  -5   4  11  133621   14966  -2
   5  -4   7  133621   14966   1
   6  -4   7  488324   39130   1
   7  -4   7   27330   10422   1
  -8  -3   7  223041   23576   1
  -7  -3   7   13541    5905   1
   6   3   9  360094   21069  -2
  -6  -3   7  360094   21069   1
   5   3   9   21620    5574  -2
  -5  -3   7   21620    5574   1
  -4  -3   7  394073   18822   1
  -3  -3   7   30600    4568   1
  -2  -3   7  681439   25095   1
  -1  -3   7  697293   18639   1
   0  -3   7  430599   14364   1
   1  -3   7  534952   16224   1
   2  -3   7  246219   16383   1
  -3   3  10  449158   16066  -2
   3  -3   7  449158   16066   1
   4  -3   7  241634   17288   1
   5  -3   7   74079   15028   1
   6  -3   7  137093   20282   1
   7  -3   7   39697   11109   1
  -9  -2   7   75252   15700   1
  -8  -2   7   79068   11753   1
   7   2   8   52748   12128  -2
  -7  -2   7   52748   12128   1
   6   2   8  133639   18620  -2
  -6  -2   7  133639   18620   1
  -5  -2   7   78452   13838   1
  -4  -2   7   58909   11891   1
  -3  -2   7   19546    3573   1
  -2  -2   7  312259   10041   1
  -1  -2   7 1193657   19859   1
   0  -2   7   53248    6047   1
  -2   2   9  801535   17154  -2
   2  -2   7  801535   17154   1
   3  -2   7   26518    3795   1
   4  -2   7   45585    3654   1
   5  -2   7   61092    6572   1
   6  -2   7  416332   33465   1
   7  -2   7   -8255    8255   1
   8  -2   7    9310    7452   1
  -9  -1   7   10447    9696   1
   8   1   7   94438   18472  -2
  -8  -1   7   94438   18472   1
   7   1   7   43770   11689  -2
  -7  -1   7   43770   11689   1
  -6  -1   7  901695   46376   1
  -5  -1   7   85747   14133   1
  -4  -1   7   10898    3897   1
  -3  -1   7  238388    9603   1
  -2  -1   7  289135   11372   1
  -1  -1   7 1019769   25084   1
   0  -1   7   95319    6141   1
  -1   1   8 2012177   24993  -2
   1  -1   7 2012177   24993   1
   2  -1   7   19876    2554   1
   3  -1   7  264197    6989   1
   4  -1   7  961738   13648   1
   5  -1   7    2356    3769   1
   6  -1   7   79550    7955   1
   7  -1   7   -1843    6777   1
   8  -1   7  543521   41248   1
   9   0   6   29768   10556  -2
  -9   0   7   29768   10556   1
   8   0   6   50820   13631  -2
  -8   0   7   50820   13631   1
  -7   0   7  167909   22375   1
  -6   0   7  522418   35442   1
  -5   0   7   24379    9199   1
  -4   0   7 1249059   83521   1
  -3   0   7  121072    8940   1
  -2   0   7  413240   13056   1
  -1   0   7  460434   19703   1
   0   0   7  327422   10637  -2
   0   0   7  327422   10637   1
   1   0   7  326404    9866   1
   2   0   7  122229    5338   1
   3   0   7 2169683   23031   1
   4   0   7   11743    2640   1
   5   0   7   23891    4641   1
   6   0   7  215022   12421   1
   7   0   7   15819    5707   1
  -8   0   8   60701   13858  -2
   8   0   7   60701   13858   1
   9  -1   5  100195   20685  -2
  -9   1   7  100195   20685   1
  -8   1   7    5285    9611   1
  -7   1   7   50130   11471   1
  -6   1   7   -2974    6584   1
  -5   1   7   47728   11205   1
  -4   1   7  109206   10334   1
  -3   1   7  413990   15391   1
  -2   1   7 1119786   24063   1
   1  -1   6  257782   19433  -2
  -1   1   7  257782   19433   1
   0   1   7   15050    2861   1
   1   1   7    2242    1854   1
   2   1   7   95494    3745   1
   3   1   7    8556    4646   1
   4   1   7 1022492   75200   1
   5   1   7  420820   27864   1
   6   1   7  130737   17715   1
  -7  -1   7    8124    2706  -2
   7   1   7    8124    2706   1
  -8  -1   7   27616    5644  -2
   8   1   7   27616    5644   1
  -9   2   7     804   13542   1
  -8   2   7  166432   23151   1
  -7   2   7   56796    9664   1
  -6   2   7  140681   19196   1
  -5   2   7   83858   13590   1
  -4   2   7  624173   23682   1
  -3   2   7    5750    1937   1
   2  -2   5  211424   15852  -2
  -2   2   7  211424   15852   1
  -1   2   7 2723432   39812   1
   0   2   7   26996    3083   1
   1   2   7  326186    8316   1
   2   2   7   45637    5664   1
   3   2   7  689607   11052   1
   4   2   7   92275   13019   1
   5   2   7  207072   20089   1
  -6  -2   6  567488   34321  -2
   6   2   7  567488   34321   1
  -7  -2   6   64851   11186  -2
   7   2   7   64851   11186   1
   8   2   7  285020   17549   1
   9   2   7    3211    8628   1
  -8   3   7   -5606    6334   1
  -7   3   7   15033    7849   1
  -6   3   7  821389   20619   1
  -5   3   7   34745    6477   1
   4  -3   4  305986    9990  -2
  -4   3   7  305986    9990   1
   3  -3   4   36979    3093  -2
  -3   3   7   36979    3093   1
  -2   3   7 1884891   39446   1
  -1   3   7   76824    3812   1
   0   3   7  115129    5003   1
   1   3   7 1889622   19911   1
   2   3   7    6308    2240   1
   3   3   7  599327   10581   1
   4   3   7   47036   13458   1
  -5  -3   5  307312   10549  -2
   5   3   7  307312   10549   1
  -6  -3   5    -162    5425  -2
   6   3   7    -162    5425   1
   7   3   7  189401   22516   1
   8   3   7  286649   28569   1
  -8   4   7   28815   14183   1
  -7   4   7  416814   26995   1
  -6   4   7   34862   12964   1
   5  -4   3    6812    7650  -2
  -5   4   7    6812    7650   1
   4  -4   3  440353   30157  -2
  -4   4   7  440353   30157   1
  -3   4   7    4030    3877   1
  -2   4   7  172387   20002   1
  -1   4   7   16404    4150   1
   0   4   7  715474   14895   1
   1   4   7  281260    9468   1
   2   4   7    4655    2316   1
   3   4   7  635934   12567   1
  -4  -4   4  233586    7630  -2
   4   4   7  233586    7630   1
  -5  -4   4   17607    4599  -2
   5   4   7   17607    4599   1
   6   4   7   28808    3582   1
   7   4   7  105453   18195   1
   8   4   7  132542   19436   1
  -7   5   7   14288    7227   1
   6  -5   2  219456   26266  -2
  -6   5   7  219456   26266   1
   5  -5   2   79870   15238  -2
  -5   5   7   79870   15238   1
  -4   5   7  507513   34542   1
  -3   5   7   70676   12504   1
  -2   5   7  124927   15714   1
  -1   5   7  483230   19597   1
   0   5   7  331437    9767   1
   1   5   7  586757   14301   1
   2   5   7  358472   14454   1
  -3  -5   3 1197547   21320  -2
   3   5   7 1197547   21320   1
  -4  -5   3  368700   10803  -2
   4   5   7  368700   10803   1
   5   5   7   -2252    3047   1
   6   5   7  154739    7790   1
   7   5   7    9121   10572   1
   8   5   7  177611   23216   1
   6  -6   1  131738   20843  -2
  -6   6   7  131738   20843   1
  -5   6   7  164260   22586   1
  -4   6   7  824600   45744   1
  -3   6   7   67189   13762   1
  -2   6   7 1029923   45699   1
  -1   6   7  399532   27261   1
   0   6   7   25417    3904   1
   1   6   7  327508   12804   1
  -2  -6   2  325452   15332  -2
   2   6   7  325452   15332   1
  -3  -6   2  701697   17985  -2
   3   6   7  701697   17985   1
   4   6   7   75887    6321   1
   5   6   7  605222   17076   1
   6   6   7   77361    7375   1
   7   6   7   17030    9541   1
   8   6   7   75340   16763   1
  -5   7   7   73247   18746   1
  -4   7   7    5381    7727   1
  -3   7   7    3092    8560   1
  -2   7   7  841758   44192   1
  -1   7   7   91840   17115   1
   0   7   7  515870   14781   1
  -1  -7   1   -5570    5570  -2
   1   7   7   -5570    5570   1
  -2  -7   1   45645    6456  -2
   2   7   7   45645    6456   1
   3   7   7   94563    9555   1
   4   7   7   36903    6840   1
   5   7   7   13168    4029   1
   6   7   7  307521   17605   1
   7   7   7  212538   25092   1
  -4   8   7   84997   18315   1
  -3   8   7    4601    8539   1
  -2   8   7  108012   18405   1
  -1   8   7   74572   15528   1
   0  -8   0   41746    4719  -2
   0   8   7   41746    4719   1
  -1  -8   0  843461   42795  -2
   1   8   7  843461   42795   1
   2   8   7   90708    9209   1
   3   8   7   73786    8931   1
   4   8   7   74581   10450   1
   5   8   7  117957   12042   1
   6   8   7     758   10824   1
   7   8   7    9863   10566   1
  -3   9   7   19499    9851   1
  -2   9   7  230223   27697   1
   1  -9  -1   87616   15861  -2
  -1   9   7   87616   15861   1
   0   9   7  737380   44244   1
   1   9   7   60700    7264   1
   2   9   7     717    4134   1
   3   9   7  805289   28487   1
   4   9   7    9476   17941   1
   5   9   7   99538   11772   1
   6   9   7    -696    3504   1
   0  10   7  195120   25086   1
   1  10   7   32157    9572   1
   2  10   7  208854   24847   1
   3  10   7    6482    5781   1
   4  10   7   10123    7140   1
   5  10   7  180707   16147   1
  -6 -10  -1   32981   12696  -2
   6  10   7   32981   12696   1
  -4  -7   8    2354    7165   1
  -3  -7   8  501170   41884   1
  -2  -7   8   25010   13483   1
   1   7  14  161461   24770  -2
  -1  -7   8  161461   24770   1
   0  -7   8  172492   24641   1
   1  -7   8   40046   13731   1
   2  -7   8    1180   10529   1
   3  -7   8   44727   12115   1
  -5  -6   8    5866    9160   1
  -4  -6   8   57411   15818   1
  -3  -6   8   93246   18281   1
   2   6  13  165774   22609  -2
  -2  -6   8  165774   22609   1
  -1  -6   8  525330   39115   1
   0  -6   8  100149   17338   1
   1  -6   8    2023    8625   1
   2  -6   8   -6802    7375   1
   3  -6   8   35074   10839   1
  -7  -5   8  172147   22075   1
  -6  -5   8   69915   14504   1
  -5  -5   8   81202   16224   1
   4   5  12   72767   16568  -2
  -4  -5   8   72767   16568   1
   3   5  12  280110   27718  -2
  -3  -5   8  280110   27718   1
  -2  -5   8   23583   10931   1
  -1  -5   8  142158   18486   1
   0  -5   8  785416   42060   1
   1  -5   8   34429    8521   1
   2  -5   8  375134   29732   1
   3  -5   8    5503    5670   1
   4  -5   8  130770   13326   1
  -5   5  13    9386   10016  -2
   5  -5   8    9386   10016   1
  -7  -4   8     -28    4580   1
  -6  -4   8   43130    8580   1
   5   4  11  760800   29577  -2
  -5  -4   8  760800   29577   1
   4   4  11   23746    7655  -2
  -4  -4   8   23746    7655   1
  -3  -4   8  259142   25129   1
  -2  -4   8    1536    6709   1
  -1  -4   8  496027   31448   1
   0  -4   8    3309    3512   1
   1  -4   8  379104   27733   1
   2  -4   8  496482   16671   1
   3  -4   8   30588    6449   1
  -4   4  12  545148   23414  -2
   4  -4   8  545148   23414   1
  -5   4  12    6908    9143  -2
   5  -4   8    6908    9143   1
   6  -4   8   73312   15786   1
  -8  -3   8   78585   12208   1
  -7  -3   8    2943    4521   1
   6   3  10  305846   19858  -2
  -6  -3   8  305846   19858   1
   5   3  10  131211   16601  -2
  -5  -3   8  131211   16601   1
  -4  -3   8  105912   10788   1
  -3  -3   8  383320   17587   1
  -2  -3   8  158975   11982   1
  -1  -3   8  194251   16110   1
   0  -3   8    9420    3516   1
   1  -3   8  171773    9707   1
   2  -3   8  581527   24787   1
  -3   3  11   95902    6683  -2
   3  -3   8   95902    6683   1
   4  -3   8  326451   29182   1
   5  -3   8   69221   14776   1
   6  -3   8    5976    7864   1
   7  -3   8   43580   12032   1
  -8  -2   8   11841    8877   1
   7   2   9  116517   13085  -2
  -7  -2   8  116517   13085   1
   6   2   9   82851   16505  -2
  -6  -2   8   82851   16505   1
  -5  -2   8  130769   17557   1
  -4  -2   8   94907    9931   1
  -3  -2   8 1225667   33959   1
  -2  -2   8     720    1509   1
  -1  -2   8   61555    5965   1
   0  -2   8  605979   18406   1
   1  -2   8   75058    6164   1
  -2   2  10  512924   13641  -2
   2  -2   8  512924   13641   1
   3  -2   8  118384   16716   1
   4  -2   8 1025850   11220   1
   5  -2   8   10873    5548   1
   6  -2   8    -233    9099   1
   7  -2   8   83396   16896   1
   8   1   8  293931   30897  -2
  -8  -1   8  293931   30897   1
   7   1   8   63465   14705  -2
  -7  -1   8   63465   14705   1
  -6  -1   8   84782   16168   1
  -5  -1   8  235478   23042   1
  -4  -1   8  311394   15927   1
  -3  -1   8 1035300   23544   1
  -2  -1   8  152279    7708   1
  -1  -1   8 1778127   51422   1
  -1   1   9  243802    8585  -2
   1  -1   8  243802    8585   1
   2  -1   8  327399    9164   1
   3  -1   8   13487    9827   1
   4  -1   8  464865   28565   1
   5  -1   8    4927    4257   1
   6  -1   8  829131   22893   1
   7  -1   8   19219   10173   1
   8  -1   8   19478    8004   1
   8   0   7  280874   30931  -2
  -8   0   8  280874   30931   1
  -7   0   8   47787   13298   1
  -6   0   8  342960   30259   1
  -5   0   8   40112   10411   1
  -4   0   8  203005   12678   1
  -3   0   8   31720    4271   1
  -2   0   8  102514    7166   1
  -1   0   8  864407   24405   1
   0   0   8  288757   13544  -2
   0   0   8  288757   13544   1
   1   0   8 1565021   20699   1
   2   0   8  100877    5066   1
   3   0   8   12922    3464   1
   4   0   8    3241    5564   1
   5   0   8    4859    5247   1
   6   0   8   13058    3517   1
   7   0   8   99750   11016   1
  -8   0   9  276150   29782  -2
   8   0   8  276150   29782   1
  -8   1   8    9343    6723   1
  -7   1   8   60068   13568   1
  -6   1   8   69196   15078   1
  -5   1   8  332912   28412   1
  -4   1   8  187593   11508   1
  -3   1   8  392962   13530   1
  -2   1   8   32648    4139   1
   1  -1   7  676622   27026  -2
  -1   1   8  676622   27026   1
   0   1   8   15879    3004   1
   1   1   8   20942    3112   1
   2   1   8 1573703   14654   1
   3   1   8  311436    7346   1
   4   1   8  244653   20873   1
   5   1   8   25753    8697   1
   6   1   8  479886   33433   1
  -7  -1   8   31591   11252  -2
   7   1   8   31591   11252   1
  -8  -1   8   59392   14375  -2
   8   1   8   59392   14375   1
  -8   2   8  200214   25900   1
  -7   2   8   -3168    6262   1
  -6   2   8  420370   34057   1
  -5   2   8   96956   15861   1
  -4   2   8   29313    4472   1
  -3   2   8 1936079   25571   1
   2  -2   6   68482    5411  -2
  -2   2   8   68482    5411   1
  -1   2   8  791262   14574   1
   0   2   8   73558    4720   1
   1   2   8 1847551   24458   1
   2   2   8   86959    4499   1
   3   2   8   74479    3118   1
   4   2   8  841078   26886   1
   5   2   8   14890    7478   1
  -6  -2   7  328580   27113  -2
   6   2   8  328580   27113   1
  -7  -2   7   19077    8891  -2
   7   2   8   19077    8891   1
   8   2   8  215933   26003   1
  -8   3   8  370059   35964   1
  -7   3   8   15406    7520   1
  -6   3   8  204566   17464   1
  -5   3   8   79091   15824   1
   4  -3   5 1448488   24900  -2
  -4   3   8 1448488   24900   1
   3  -3   5  295430   20533  -2
  -3   3   8  295430   20533   1
  -2   3   8   88608    8925   1
  -1   3   8  927841   14389   1
   0   3   8     752    1409   1
   1   3   8  673273   14855   1
   2   3   8   42946    3903   1
   3   3   8  643301    9677   1
  -5  -3   6   45908   10201  -2
   5   3   8   45908   10201   1
  -6  -3   6  202347   22314  -2
   6   3   8  202347   22314   1
   7   3   8  108870   17434   1
   8   3   8    3995    7727   1
  -7   4   8   36200    8283   1
  -6   4   8   47853    9091   1
   5  -4   4   75633   15481  -2
  -5   4   8   75633   15481   1
   4  -4   4  147949   18681  -2
  -4   4   8  147949   18681   1
  -3   4   8  846537   40077   1
  -2   4   8  498439   20857   1
  -1   4   8  261970   13929   1
   0   4   8   26356    3249   1
   1   4   8   64287    4925   1
   2   4   8  460767   14857   1
   3   4   8    4407    1704   1
  -4  -4   5  353646    9273  -2
   4   4   8  353646    9273   1
  -5  -4   5  220287    6954  -2
   5   4   8  220287    6954   1
   6   4   8  333109   12708   1
   7   4   8   90407   15761   1
   8   4   8   -1554    8039   1
  -7   5   8   40164   18252   1
   6  -5   3  421701   36659  -2
  -6   5   8  421701   36659   1
   5  -5   3  109597   18615  -2
  -5   5   8  109597   18615   1
  -4   5   8  131022   19432   1
  -3   5   8  197109   21054   1
  -2   5   8  174321   18758   1
  -1   5   8 1649137   36978   1
   0   5   8  330381   14178   1
   1   5   8 1296204   21879   1
   2   5   8  438783   20038   1
  -3  -5   4  106422    6720  -2
   3   5   8  106422    6720   1
  -4  -5   4  142787    6880  -2
   4   5   8  142787    6880   1
   5   5   8   89467    7689   1
   6   5   8  549856   15786   1
   7   5   8   23793   10630   1
   8   5   8  167642   23576   1
   6  -6   2  463639   40262  -2
  -6   6   8  463639   40262   1
  -5   6   8   78801   16346   1
  -4   6   8  684272   42615   1
  -3   6   8  244246   24008   1
  -2   6   8  189209   20992   1
  -1   6   8   -4906    4906   1
   0   6   8  216462   22669   1
   1   6   8 1505327   24680   1
  -2  -6   3  277388    9845  -2
   2   6   8  277388    9845   1
  -3  -6   3  476843   15691  -2
   3   6   8  476843   15691   1
   4   6   8   26963    4112   1
   5   6   8   85964    6700   1
   6   6   8    4089    2872   1
   7   6   8   -8352    8352   1
   8   6   8   66051   15116   1
  -5   7   8   14406   10357   1
  -4   7   8  326889   31707   1
  -3   7   8  292714   28047   1
  -2   7   8   78703   14491   1
  -1   7   8   17458    8004   1
   0   7   8   62203    5090   1
  -1  -7   2  324033   14117  -2
   1   7   8  324033   14117   1
  -2  -7   2    3440    2339  -2
   2   7   8    3440    2339   1
   3   7   8   39376    6146   1
   4   7   8  397995   18726   1
   5   7   8  126914   10937   1
   6   7   8   26610    5376   1
   7   7   8   32860   10123   1
  -4   8   8  165677   24781   1
  -3   8   8   71690   14870   1
  -2   8   8   12759    7403   1
  -1   8   8  856008   46583   1
   0  -8   1   61163   11743  -2
   0   8   8   61163   11743   1
  -1  -8   1  264008   26078  -2
   1   8   8  264008   26078   1
   2   8   8   36881    5905   1
   3   8   8  617505   24562   1
   4   8   8   24295   10240   1
   5   8   8    -355    7975   1
   6   8   8  378372   32324   1
   7   8   8   -1191    9962   1
  -2   9   8  554076   41808   1
   1  -9   0   24044    9961  -2
  -1   9   8   24044    9961   1
   0   9   8   69523   17267   1
   1   9   8  675674   41845   1
   2   9   8   67408    8796   1
   3   9   8   64850    8350   1
   4   9   8   13094    5102   1
   5   9   8  370042   20851   1
   6   9   8   54593   11911   1
   0  10   8  197508   25962   1
   1  10   8   -5231    5968   1
   2  10   8   17120    8974   1
   3  10   8   60752   14118   1
   4  10   8   12475    5552   1
   5  10   8     766    8988   1
  -6 -10   0   67050   14986  -2
   6  10   8   67050   14986   1
  -3  -7   9   91219   22051   1
  -2  -7   9   20783   12137   1
   1   7  15   10470   10205  -2
  -1  -7   9   10470   10205   1
   0  -7   9   31815   13402   1
   1  -7   9   35267   13692   1
   2  -7   9  409195   38293   1
  -5  -6   9   -9718   11459   1
  -4  -6   9  156482   24032   1
  -3  -6   9  160432   23105   1
   2   6  14  324327   32017  -2
  -2  -6   9  324327   32017   1
  -1  -6   9   20549   11082   1
   0  -6   9   62670   14419   1
   1  -6   9   -4393   10837   1
   2  -6   9   40925   11100   1
   3  -6   9  337875   31234   1
  -7  -5   9  162736   21696   1
  -6  -5   9   10222    8320   1
  -5  -5   9  299477   32227   1
   4   5  13   39389   13230  -2
  -4  -5   9   39389   13230   1
   3   5  13   75583   16108  -2
  -3  -5   9   75583   16108   1
  -2  -5   9  656439   41996   1
  -1  -5   9   10651    6009   1
   0  -5   9  382304   30887   1
   1  -5   9   -1992    3059   1
   2  -5   9  473870   34556   1
   3  -5   9   32570    8521   1
   4  -5   9   98935   18657   1
  -7  -4   9  274510   20849   1
  -6  -4   9   28670    7209   1
   5   4  12  155030   14772  -2
  -5  -4   9  155030   14772   1
   4   4  12   43651   12065  -2
  -4  -4   9   43651   12065   1
  -3  -4   9  823816   45938   1
  -2  -4   9   -2070    6439   1
  -1  -4   9   64069   12788   1
   0  -4   9  121083   16322   1
   1  -4   9   19836    4745   1
   2  -4   9  370597   15391   1
   3  -4   9   42425    7563   1
  -4   4  13  186514   14383  -2
   4  -4   9  186514   14383   1
   5  -4   9   38231   10734   1
  -7  -3   9   71584   11034   1
   6   3  11   11007    5904  -2
  -6  -3   9   11007    5904   1
   5   3  11   70947   10688  -2
  -5  -3   9   70947   10688   1
  -4  -3   9    8407    4177   1
  -3  -3   9   23392    5815   1
  -2  -3   9  247632   22896   1
  -1  -3   9  284999   21940   1
   0  -3   9  560696   28270   1
   1  -3   9   11148    3260   1
   2  -3   9   40281    4936   1
  -3   3  12  197446   14066  -2
   3  -3   9  197446   14066   1
   4  -3   9   37161   13099   1
   5  -3   9  205201   24844   1
   6  -3   9   82911   18961   1
  -8  -2   9    1553    8720   1
   7   2  10  308528   21458  -2
  -7  -2   9  308528   21458   1
   6   2  10    6491    3834  -2
  -6  -2   9    6491    3834   1
  -5  -2   9  766933   28587   1
  -4  -2   9   24626    6223   1
  -3  -2   9   38567    6346   1
  -2  -2   9  218242   37873   1
  -1  -2   9  367013   39009   1
   0  -2   9  739248   19628   1
   1  -2   9  247620   13832   1
  -2   2  11 1116606   27088  -2
   2  -2   9 1116606   27088   1
   3  -2   9  126656    8775   1
   4  -2   9  165124   16005   1
   5  -2   9   66544   14723   1
   6  -2   9   38617   13244   1
   7  -2   9  247040   31166   1
   8   1   9   45085   15415  -2
  -8  -1   9   45085   15415   1
   7   1   9   81742   18046  -2
  -7  -1   9   81742   18046   1
  -6  -1   9  143347   20662   1
  -5  -1   9  673821   40323   1
  -4  -1   9  103150   10077   1
  -3  -1   9 1117976   70364   1
  -2  -1   9  143427    9268   1
  -1  -1   9  299481   12986   1
   0  -1   9   73464    6994   1
  -1   1  10  190805    9765  -2
   1  -1   9  190805    9765   1
   2  -1   9  820701   40888   1
   3  -1   9  119325    8822   1
   4  -1   9  403252   17217   1
   5  -1   9    7741    4627   1
   6  -1   9   72100   14560   1
   7  -1   9  -10998   10998   1
   8   0   8  257535   30337  -2
  -8   0   9  257535   30337   1
  -7   0   9   66166   14862   1
  -6   0   9   62378   14481   1
  -5   0   9  248187   15136   1
  -4   0   9   12159    4112   1
  -3   0   9  346502   13851   1
  -2   0   9  422902   14984   1
  -1   0   9  325230   12545   1
   0   0   9  142425    8338  -2
   0   0   9  142425    8338   1
   1   0   9   80691    5340   1
   2   0   9  154743    6632   1
   3   0   9    3835    1319   1
   4   0   9    8194    8457   1
   5   0   9  462140   33780   1
   6   0   9   39439   12024   1
   7   0   9   57646   15429   1
  -8   1   9    7328   10786   1
  -7   1   9  200692   25504   1
  -6   1   9   35880   10402   1
  -5   1   9  244645   14165   1
  -4   1   9    6387    4567   1
  -3   1   9  946311   22112   1
  -2   1   9   70873    6365   1
   1  -1   8  129046    7720  -2
  -1   1   9  129046    7720   1
   0   1   9 1862836   34314   1
   1   1   9   34884    3967   1
   2   1   9  226278    7714   1
   3   1   9   49928    3512   1
   4   1   9 1050572   44910   1
   5   1   9    2938    9347   1
   6   1   9    9740    8827   1
  -7  -1   9  454439   35802  -2
   7   1   9  454439   35802   1
  -8  -1   9   32894   15451  -2
   8   1   9   32894   15451   1
  -8   2   9  361432   35668   1
  -7   2   9    9583    6752   1
  -6   2   9   91212   16770   1
  -5   2   9  728857   22848   1
  -4   2   9   -1909    4286   1
  -3   2   9  308982   14349   1
   2  -2   7  195975   11960  -2
  -2   2   9  195975   11960   1
  -1   2   9 2163138   23315   1
   0   2   9    5257    2719   1
   1   2   9   46011    4414   1
   2   2   9 1300322   15487   1
   3   2   9   20491    3165   1
   4   2   9  166802   18008   1
   5   2   9    1959    7187   1
  -6  -2   8  437323   32206  -2
   6   2   9  437323   32206   1
  -7  -2   8    9804    8246  -2
   7   2   9    9804    8246   1
   8   2   9   14397    9902   1
  -7   3   9   20771   11494   1
  -6   3   9  758439   47513   1
  -5   3   9   20329    6983   1
  -4   3   9   18739    3350   1
   3  -3   6  342051   12848  -2
  -3   3   9  342051   12848   1
  -2   3   9   21861    3446   1
  -1   3   9   88868    5328   1
   0   3   9  357824   10244   1
   1   3   9  559277   17894   1
   2   3   9   80617    4853   1
   3   3   9     575    1061   1
   4   3   9  141694   19754   1
  -5  -3   7   77862   13593  -2
   5   3   9   77862   13593   1
  -6  -3   7   56281   12248  -2
   6   3   9   56281   12248   1
   7   3   9   63001   14233   1
   8   3   9   60715   12981   1
  -7   4   9   -3643    8478   1
  -6   4   9    6844    3971   1
   5  -4   5  551713   38645  -2
  -5   4   9  551713   38645   1
   4  -4   5  105358   17695  -2
  -4   4   9  105358   17695   1
  -3   4   9  413113   29856   1
  -2   4   9   65061   11637   1
  -1   4   9   56812    4981   1
   0   4   9  382344   14768   1
   1   4   9  105432    8492   1
   2   4   9  687929   15898   1
   3   4   9   47689    3299   1
  -4  -4   6  810867   13880  -2
   4   4   9  810867   13880   1
  -5  -4   6  162780   13173  -2
   5   4   9  162780   13173   1
   6   4   9   17046    9913   1
   7   4   9   35534   10954   1
   8   4   9   86166   16713   1
   6  -5   4  156609   24011  -2
  -6   5   9  156609   24011   1
   5  -5   4  216591   25662  -2
  -5   5   9  216591   25662   1
  -4   5   9  267765   26685   1
  -3   5   9  877063   44254   1
  -2   5   9   37864    9378   1
  -1   5   9  958477   40864   1
   0   5   9  314217   14154   1
   1   5   9  109767   14326   1
   2   5   9  130177    7879   1
  -3  -5   5  233150   11009  -2
   3   5   9  233150   11009   1
  -4  -5   5  858874   16452  -2
   4   5   9  858874   16452   1
   5   5   9   37752    3902   1
   6   5   9  263061   25659   1
   7   5   9   64606   13731   1
   8   5   9   16800   11008   1
   6  -6   3  210243   27676  -2
  -6   6   9  210243   27676   1
  -5   6   9   35063   13575   1
  -4   6   9   73455   16945   1
  -3   6   9   -1938    6123   1
  -2   6   9   68893   13760   1
  -1   6   9  777456   39300   1
   0   6   9  229476   14413   1
   1   6   9   94945    8983   1
  -2  -6   4   44105    4808  -2
   2   6   9   44105    4808   1
  -3  -6   4   82451    6488  -2
   3   6   9   82451    6488   1
   4   6   9    7759    3165   1
   5   6   9    8631    3169   1
   6   6   9   89463   16351   1
   7   6   9   52273   13638   1
  -5   7   9  192169   26446   1
  -4   7   9    3939    8362   1
  -3   7   9  123278   19489   1
  -2   7   9    2722    3608   1
  -1   7   9  173033   21219   1
   0   7   9  120264   10794   1
  -1  -7   3   33997    8199  -2
   1   7   9   33997    8199   1
  -2  -7   3  464953   18547  -2
   2   7   9  464953   18547   1
   3   7   9    6572    4484   1
   4   7   9  140634   11231   1
   5   7   9   31032    5493   1
   6   7   9  152007   20178   1
   7   7   9   16086    9444   1
  -3   8   9  308457   30557   1
  -2   8   9   37047   10124   1
  -1   8   9  494482   36281   1
   0  -8   2   68008   12729  -2
   0   8   9   68008   12729   1
  -1  -8   2  497415   33824  -2
   1   8   9  497415   33824   1
   2   8   9  112407    9793   1
   3   8   9   -5785    5785   1
   4   8   9  538734   23026   1
   5   8   9   10970    8473   1
   6   8   9   55601   13595   1
   7   8   9    1982    4646   1
  -2   9   9   13156    8007   1
   1  -9   1  400856   34219  -2
  -1   9   9  400856   34219   1
   0   9   9   22841    9387   1
   1   9   9   78043   14121   1
   2   9   9   75703    8900   1
   3   9   9  340575   21160   1
   4   9   9   74066   10035   1
   5   9   9   48596    8991   1
   6   9   9   22267   10255   1
   0  10   9   88019   17638   1
   1  10   9   -7338    7338   1
   2  10   9   65073   14748   1
   3  10   9    4521    6241   1
   4  10   9  217392   16708   1
   5  10   9   15681    5312   1
  -6 -10   1    2802    9527  -2
   6  10   9    2802    9527   1
  -2  -7  10   29672   11915   1
   1   7  16  106216   19347  -2
  -1  -7  10  106216   19347   1
   0  -7  10  111658   20483   1
   1  -7  10   43489   16816   1
  -4  -6  10  168834   25567   1
  -3  -6  10   -6014    6014   1
   2   6  15  174330   23812  -2
  -2  -6  10  174330   23812   1
  -1  -6  10  -10965   10965   1
   0  -6  10   69118   15890   1
   1  -6  10  452633   39641   1
   2  -6  10   22894   14222   1
  -5  -5  10  134153   22881   1
  -4  -5  10  386857   35253   1
   3   5  14   20779   11734  -2
  -3  -5  10   20779   11734   1
  -2  -5  10  187772   23771   1
  -1  -5  10    8052    7919   1
   0  -5  10  605804   40276   1
   1  -5  10    1287    7707   1
   2  -5  10    5034    5897   1
   3  -5  10  219521   23914   1
  -7  -4  10   -9974    9974   1
  -6  -4  10   20279    7240   1
   5   4  13  325747   19932  -2
  -5  -4  10  325747   19932   1
   4   4  13   15152    7749  -2
  -4  -4  10   15152    7749   1
  -3  -4  10   32089   10439   1
  -2  -4  10   30364   10565   1
  -1  -4  10     183    6443   1
   0  -4  10   57648   12000   1
   1  -4  10  144843   18191   1
   2  -4  10  167328   15139   1
   3  -4  10  172420   14694   1
  -4   4  14    9162    9091  -2
   4  -4  10    9162    9091   1
   5  -4  10   24703    8731   1
  -7  -3  10     977    7514   1
   6   3  12   17595    5500  -2
  -6  -3  10   17595    5500   1
   5   3  12   40526    8120  -2
  -5  -3  10   40526    8120   1
  -4  -3  10  367071   22309   1
  -3  -3  10   18839    5333   1
  -2  -3  10  361844   28359   1
  -1  -3  10    3458    6645   1
   0  -3  10   26782    4809   1
   1  -3  10  224212   16176   1
   2  -3  10   52991    6074   1
  -3   3  13  329740   18346  -2
   3  -3  10  329740   18346   1
   4  -3  10   97722   17132   1
   5  -3  10  528667   39991   1
   7   2  11  202191   17776  -2
  -7  -2  10  202191   17776   1
   6   2  11   16336    6123  -2
  -6  -2  10   16336    6123   1
  -5  -2  10   70185   13881   1
  -4  -2  10  193410   13974   1
  -3  -2  10  247652   14382   1
  -2  -2  10  574031   33544   1
  -1  -2  10   47424    7007   1
   0  -2  10  927931   27021   1
   1  -2  10  182001   11547   1
  -2   2  12   91688    8476  -2
   2  -2  10   91688    8476   1
   3  -2  10    9948    8547   1
   4  -2  10   79289    8048   1
   5  -2  10  402836   36035   1
   6  -2  10   43475   14570   1
   7   1  10  300634   31169  -2
  -7  -1  10  300634   31169   1
  -6  -1  10  126985   20553   1
  -5  -1  10  259006   26717   1
  -4  -1  10   32840   10365   1
  -3  -1  10   86005   13741   1
  -2  -1  10   -2940    3647   1
  -1  -1  10   38856    3705   1
   0  -1  10  741126   27524   1
  -1   1  11  186576   19471  -2
   1  -1  10  186576   19471   1
   2  -1  10  295630   11302   1
   3  -1  10    8929    6557   1
   4  -1  10   30665    6654   1
   5  -1  10   53124   14299   1
   6  -1  10    2948    7876   1
  -7   0  10  235014   28358   1
  -6   0  10   27813    9012   1
  -5   0  10  227988   15154   1
  -4   0  10  612610   23372   1
  -3   0  10    4607    4273   1
  -2   0  10  323021   17307   1
  -1   0  10   60850    6074   1
   0   0  10  362766   12895  -2
   0   0  10  362766   12895   1
   1   0  10  181231    9772   1
   2   0  10   -1417    2307   1
   3   0  10  619320   12073   1
   4   0  10   77835   15300   1
   5   0  10  105048   16884   1
   6   0  10   21315   11859   1
   7   0  10  283867   31403   1
  -7   1  10  179276   25746   1
  -6   1  10   12446    8004   1
  -5   1  10  667132   24159   1
  -4   1  10    8214    3148   1
  -3   1  10   11389    5002   1
  -2   1  10 1666433   29955   1
   1  -1   9   53356    6403  -2
  -1   1  10   53356    6403   1
   0   1  10  670567   15176   1
   1   1  10   10699    2985   1
   2   1  10 1252219   18944   1
   3   1  10   99354    4916   1
   4   1  10    4378    4666   1
   5   1  10  655914   40330   1
   6   1  10   12266    7679   1
  -7  -1  10   89606   16096  -2
   7   1  10   89606   16096   1
  -7   2  10  269658   29901   1
  -6   2  10    2688    5481   1
  -5   2  10  190965   23132   1
  -4   2  10   52677    7529   1
  -3   2  10 1036924  103397   1
   2  -2   8  183867    9783  -2
  -2   2  10  183867    9783   1
  -1   2  10   10274    3675   1
   0   2  10 1009062   18281   1
   1   2  10    5289    3631   1
   2   2  10  169440    5939   1
   3   2  10  276969    8269   1
   4   2  10  713350   37771   1
   5   2  10   55928   17144   1
  -6  -2   9   28497    9788  -2
   6   2  10   28497    9788   1
  -7  -2   9   96732   18084  -2
   7   2  10   96732   18084   1
  -7   3  10   34149    9811   1
  -6   3  10   94832   17316   1
  -5   3  10   93611   16195   1
  -4   3  10   43804    6763   1
   3  -3   7   89536   11684  -2
  -3   3  10   89536   11684   1
  -2   3  10  536908   17804   1
  -1   3  10  365836   10985   1
   0   3  10  359966   12920   1
   1   3  10  126394    6729   1
   2   3  10    4721    3086   1
   3   3  10  163979    7025   1
   4   3  10    5627    1581   1
  -5  -3   8  479803   32323  -2
   5   3  10  479803   32323   1
  -6  -3   8  147091   20230  -2
   6   3  10  147091   20230   1
   7   3  10  173376   22587   1
  -6   4  10   50814   10244   1
   5  -4   6  362797   23142  -2
  -5   4  10  362797   23142   1
   4  -4   6  286806   27879  -2
  -4   4  10  286806   27879   1
  -3   4  10   98017   15725   1
  -2   4  10  307186   11113   1
  -1   4  10   48884    4808   1
   0   4  10  972586   17160   1
   1   4  10   35464    4452   1
   2   4  10 1116684   21240   1
   3   4  10  267022    8918   1
  -4  -4   7   88316    5107  -2
   4   4  10   88316    5107   1
  -5  -4   7  106897    7398  -2
   5   4  10  106897    7398   1
   6   4  10  128778   18892   1
   7   4  10  489973   36465   1
   6  -5   5   10131    6599  -2
  -6   5  10   10131    6599   1
   5  -5   5  579901   42826  -2
  -5   5  10  579901   42826   1
  -4   5  10   35772   11799   1
  -3   5  10  924399   47033   1
  -2   5  10  123716   16718   1
  -1   5  10   31414    8664   1
   0   5  10   83716    6505   1
   1   5  10  128592   10150   1
   2   5  10  814371   23649   1
  -3  -5   6  302405   14862  -2
   3   5  10  302405   14862   1
  -4  -5   6  265951    9271  -2
   4   5  10  265951    9271   1
   5   5  10   45325    5235   1
   6   5  10   85088   14815   1
   7   5  10   21418    8634   1
  -5   6  10   54883   16764   1
  -4   6  10     603    1278   1
  -3   6  10  316157   29582   1
  -2   6  10  535703   35976   1
  -1   6  10  159937   19430   1
   0   6  10   30406    5193   1
   1   6  10   17910    4764   1
  -2  -6   5  282864   11750  -2
   2   6  10  282864   11750   1
  -3  -6   5   79495    6504  -2
   3   6  10   79495    6504   1
   4   6  10   87243    7025   1
   5   6  10  256198   13551   1
   6   6  10    2487    9953   1
   7   6  10   56720   14133   1
  -4   7  10    3756   10263   1
  -3   7  10  431860   35053   1
  -2   7  10  209523   23852   1
  -1   7  10    -757    7418   1
   0   7  10  692304   17188   1
  -1  -7   4   71503   11749  -2
   1   7  10   71503   11749   1
  -2  -7   4  564091   20462  -2
   2   7  10  564091   20462   1
   3   7  10   31342    5845   1
   4   7  10  279387   15546   1
   5   7  10   50001    7135   1
   6   7  10   17682   10191   1
   7   7  10  314084   30871   1
  -3   8  10  546343   42230   1
  -2   8  10   18706   10953   1
  -1   8  10  445102   34493   1
   0  -8   3   96209   15485  -2
   0   8  10   96209   15485   1
  -1  -8   3   81315   14320  -2
   1   8  10   81315   14320   1
   2   8  10  480128   19705   1
   3   8  10   11357    4666   1
   4   8  10  165821   13139   1
   5   8  10   -2023    9948   1
   6   8  10  254075   26801   1
   1  -9   2   84136   17000  -2
  -1   9  10   84136   17000   1
   0   9  10  213739   24972   1
   1   9  10  218180   24601   1
   2   9  10   11451    5943   1
   3   9  10   16944    5558   1
   4   9  10   -3239    6747   1
   5   9  10   39257   10234   1
   6   9  10   27020    9592   1
   1  10  10   -7093    9075   1
   2  10  10  483244   37220   1
   3  10  10    7432    4356   1
   4  10  10   70194   14927   1
   5  10  10   -6669    6669   1
  -3  -6  11   23953   11047   1
   2   6  16  122738   21298  -2
  -2  -6  11  122738   21298   1
  -1  -6  11  321223   32862   1
   0  -6  11   29025    9220   1
   1  -6  11  134980   23077   1
   2  -6  11   11543    8174   1
  -4  -5  11   88027   19600   1
   3   5  15   23357    9469  -2
  -3  -5  11   23357    9469   1
  -2  -5  11  468958   37719   1
  -1  -5  11   22252    8114   1
   0  -5  11   15889   11837   1
   1  -5  11  114528   18669   1
   2  -5  11    4229    9772   1
  -7  -4  11  192030   23398   1
  -6  -4  11  130284   17713   1
   5   4  14   25915    6309  -2
  -5  -4  11   25915    6309   1
   4   4  14   52562   14026  -2
  -4  -4  11   52562   14026   1
  -3  -4  11   20301   10209   1
  -2  -4  11    9629    7516   1
  -1  -4  11  316973   28687   1
   0  -4  11  169475   21570   1
   1  -4  11  200562   21951   1
   2  -4  11    4290    5041   1
   3  -4  11   16777    5779   1
  -4   4  15   64158   14019  -2
   4  -4  11   64158   14019   1
  -7  -3  11   12733    8076   1
   6   3  13  384521   23246  -2
  -6  -3  11  384521   23246   1
   5   3  13   54486    8498  -2
  -5  -3  11   54486    8498   1
  -4  -3  11  476033   21935   1
  -3  -3  11   33764    6288   1
  -2  -3  11  105734   17188   1
  -1  -3  11  193364   21515   1
   0  -3  11   40323    9327   1
   1  -3  11  419649   28633   1
   2  -3  11   75886    9175   1
  -3   3  14  836856   60209  -2
   3  -3  11  836856   60209   1
   4  -3  11   54868   12630   1
   5  -3  11   -2954    5051   1
   7   2  12   73369   17341  -2
  -7  -2  11   73369   17341   1
   6   2  12   97048   12297  -2
  -6  -2  11   97048   12297   1
  -5  -2  11   97716   11398   1
  -4  -2  11  270159   16552   1
  -3  -2  11  162365   11756   1
  -2  -2  11 1075829   46792   1
  -1  -2  11   12746    7148   1
   0  -2  11   96237    9364   1
   1  -2  11   17795    6746   1
  -2   2  13   80001   21109  -2
   2  -2  11   80001   21109   1
   3  -2  11  351185   84432   1
   4  -2  11  188965   24070   1
   5  -2  11  186226   24291   1
   7   1  11  208409   27754  -2
  -7  -1  11  208409   27754   1
  -6  -1  11    4284    4107   1
  -5  -1  11   19153    9602   1
  -4  -1  11  116558   17395   1
  -3  -1  11   40605   10467   1
  -2  -1  11  111677   15594   1
  -1  -1  11  657704   16844   1
   0  -1  11  208963   11181   1
  -1   1  12  110735    8260  -2
   1  -1  11  110735    8260   1
   2  -1  11  113786   10122   1
   3  -1  11  248522   11418   1
   4  -1  11    5993    9198   1
   5  -1  11   37845   11450   1
   6  -1  11  255394   30167   1
  -7   0  11   11155    7104   1
  -6   0  11  480392   37572   1
  -5   0  11   -1085    7869   1
  -4   0  11  217386   23020   1
  -3   0  11   35706    6331   1
  -2   0  11  743514   25962   1
  -1   0  11  262799   12418   1
   0   0  11  147912    8906  -2
   0   0  11  147912    8906   1
   1   0  11  684771   23042   1
   2   0  11   36479    4501   1
   3   0  11  544883   12543   1
   4   0  11    9458    7581   1
   5   0  11  447383   36291   1
   6   0  11   -5846    5846   1
  -7   1  11  418656   37912   1
  -6   1  11  103636   17425   1
  -5   1  11  103994   16868   1
  -4   1  11  562372   23036   1
  -3   1  11    4273    5615   1
  -2   1  11  437637   19352   1
   1  -1  10   50997    5291  -2
  -1   1  11   50997    5291   1
   0   1  11 1162167   20817   1
   1   1  11   10484    2604   1
   2   1  11  115354    6904   1
   3   1  11  415612   10480   1
   4   1  11    -268    7699   1
   5   1  11  129674   19767   1
   6   1  11   13009    9202   1
  -7  -1  11  286397   31197  -2
   7   1  11  286397   31197   1
  -7   2  11  111830   20848   1
  -6   2  11   51447   13130   1
  -5   2  11  349709   31454   1
  -4   2  11   44018    6965   1
  -3   2  11   45707    6667   1
   2  -2   9  533150   28103  -2
  -2   2  11  533150   28103   1
  -1   2  11   49633    5912   1
   0   2  11    3875    2063   1
   1   2  11  492560   15907   1
   2   2  11  542957   10730   1
   3   2  11   35214    5258   1
   4   2  11    9627    9263   1
   5   2  11    6251    8155   1
  -6  -2  10   18120    8966  -2
   6   2  11   18120    8966   1
  -7  -2  10   51480   16118  -2
   7   2  11   51480   16118   1
  -6   3  11   27442   10897   1
  -5   3  11   23840    9706   1
  -4   3  11  931679   50037   1
   3  -3   8  112513    9011  -2
  -3   3  11  112513    9011   1
  -2   3  11  288837   12408   1
  -1   3  11   21765    3535   1
   0   3  11  133113    7202   1
   1   3  11  291649   12929   1
   2   3  11   42798    5089   1
   3   3  11  828381   14385   1
   4   3  11    3719    1474   1
  -5  -3   9  298757   27169  -2
   5   3  11  298757   27169   1
  -6  -3   9   31268   11602  -2
   6   3  11   31268   11602   1
   7   3  11   54616   14752   1
  -6   4  11  125815   20856   1
   5  -4   7  353938   23580  -2
  -5   4  11  353938   23580   1
   4  -4   7  137289   19717  -2
  -4   4  11  137289   19717   1
  -3   4  11   87307   15946   1
  -2   4  11 1370798   26891   1
  -1   4  11     733    2554   1
   0   4  11  566461   21836   1
   1   4  11     343    2384   1
   2   4  11  181459    8282   1
   3   4  11  213068    8128   1
  -4  -4   8  106967    6994  -2
   4   4  11  106967    6994   1
  -5  -4   8  505338   33857  -2
   5   4  11  505338   33857   1
   6   4  11   25916    9353   1
   7   4  11  117804   20253   1
   5  -5   6  224391   27252  -2
  -5   5  11  224391   27252   1
  -4   5  11   10216    6209   1
  -3   5  11  120451   18403   1
  -2   5  11   19651    7884   1
  -1   5  11   31824    8817   1
   0   5  11  594390   36355   1
   1   5  11  190346    9976   1
   2   5  11   81237    7493   1
  -3  -5   7   49785    4901  -2
   3   5  11   49785    4901   1
  -4  -5   7  119941   10138  -2
   4   5  11  119941   10138   1
   5   5  11   56226   12892   1
   6   5  11   15775    8445   1
   7   5  11   84911   15507   1
  -5   6  11  133857   25785   1
  -4   6  11  405091   35460   1
  -3   6  11    5800    7199   1
  -2   6  11  156109   20346   1
  -1   6  11    7069    6351   1
   0   6  11  539728   20290   1
   1   6  11  121327   16343   1
  -2  -6   6  112406    7835  -2
   2   6  11  112406    7835   1
  -3  -6   6  244117   11382  -2
   3   6  11  244117   11382   1
   4   6  11   73612    8536   1
   5   6  11  270018   25279   1
   6   6  11    4542    6920   1
   7   6  11  116488   19457   1
  -4   7  11  137301   21389   1
  -3   7  11   -4343    4343   1
  -2   7  11  395960   33438   1
  -1   7  11  109564   17032   1
   0   7  11  744075   29100   1
  -1  -7   5   48611   10976  -2
   1   7  11   48611   10976   1
  -2  -7   5  436437   18680  -2
   2   7  11  436437   18680   1
   3   7  11  111867   10137   1
   4   7  11    3177    3705   1
   5   7  11  163315   20469   1
   6   7  11   17345   10749   1
  -3   8  11  241767   29881   1
  -2   8  11   19562    8777   1
  -1   8  11   -1465    4122   1
   0  -8   4  214744   24140  -2
   0   8  11  214744   24140   1
  -1  -8   4    9418    4742  -2
   1   8  11    9418    4742   1
   2   8  11  136830   10806   1
   3   8  11   24929    5490   1
   4   8  11  225226   14830   1
   5   8  11   -8990    8990   1
   6   8  11   35813   12358   1
   1  -9   3   61106   13784  -2
  -1   9  11   61106   13784   1
   0   9  11  105877   19070   1
   1   9  11  124868   18120   1
   2   9  11    9975    4932   1
   3   9  11   21260    7624   1
   4   9  11   -3573    3573   1
   5   9  11  261149   25841   1
   6   9  11   -4191   10186   1
   1  10  11   -7330    7330   1
   2  10  11   62145   14618   1
   3  10  11   74288   13987   1
  -1  -6  12  171211   27593   1
   0  -6  12  -13762   13762   1
   3   5  16   49050   15503  -2
  -3  -5  12   49050   15503   1
  -2  -5  12   26984   13315   1
  -1  -5  12   14964   11117   1
   0  -5  12   -4874   10193   1
   1  -5  12   -9436    9436   1
  -6  -4  12    5905    4787   1
   4   4  15   49146   14593  -2
  -4  -4  12   49146   14593   1
  -3  -4  12  479753   37521   1
  -2  -4  12  129445   19926   1
  -1  -4  12  141568   19998   1
   0  -4  12   31699    9393   1
   1  -4  12  160488   20504   1
   2  -4  12   52690   13987   1
  -7  -3  12   14074   10995   1
   6   3  14  154302   18758  -2
  -6  -3  12  154302   18758   1
   5   3  14   34616    6985  -2
  -5  -3  12   34616    6985   1
  -4  -3  12  221288   18322   1
  -3  -3  12   18896   10441   1
  -2  -3  12   75905   15418   1
  -1  -3  12  560670   36778   1
   0  -3  12   30930    9969   1
   1  -3  12  394731   28701   1
   2  -3  12   32969    9105   1
  -3   3  15   94028   16486  -2
   3  -3  12   94028   16486   1
   4  -3  12    4475    4137   1
   7   2  13   37557   10966  -2
  -7  -2  12   37557   10966   1
   6   2  13  159156   14945  -2
  -6  -2  12  159156   14945   1
  -5  -2  12   38847    7638   1
  -4  -2  12  252643   16438   1
  -3  -2  12    5685    3527   1
  -2  -2  12   31651    9910   1
  -1  -2  12   66626   12726   1
   0  -2  12   57201   11397   1
   1  -2  12  363858   19594   1
  -2   2  14  300107   16874  -2
   2  -2  12  300107   16874   1
   3  -2  12  102396   10338   1
   4  -2  12   -6335    6507   1
  -6  -1  12  142536   22937   1
  -5  -1  12   -1091    5311   1
  -4  -1  12   16325    7440   1
  -3  -1  12  411096   30374   1
  -2  -1  12     569    6065   1
  -1  -1  12  128500    7709   1
   0  -1  12    9974    6293   1
  -1   1  13  709303   20228  -2
   1  -1  12  709303   20228   1
   2  -1  12   44303    6464   1
   3  -1  12   30025    5417   1
   4  -1  12  297136   30129   1
   5  -1  12    1026   10597   1
  -6   0  12  149372   22508   1
  -5   0  12   12562    7051   1
  -4   0  12  681681   41066   1
  -3   0  12  163356   19287   1
  -2   0  12   16541    6936   1
  -1   0  12  417555   27102   1
   0   0  12   24939    2373  -2
   0   0  12   24939    2373   1
   1   0  12  547867   16789   1
   2   0  12    6191    4969   1
   3   0  12  708589   24096   1
   4   0  12    1431    5761   1
   5   0  12    6242    5849   1
   6   0  12  314058   33344   1
  -6   1  12  137421   21217   1
  -5   1  12   31204   14183   1
  -4   1  12  372386   31045   1
  -3   1  12   38954    6808   1
  -2   1  12  493914   21242   1
   1  -1  11   31464    5388  -2
  -1   1  12   31464    5388   1
   0   1  12   17368    5074   1
   1   1  12  167367    5436   1
   2   1  12    4652    3598   1
   3   1  12   42274    4043   1
   4   1  12   42903   12187   1
   5   1  12  406137   35338   1
   6   1  12    7043   10368   1
  -6   2  12   73803   16613   1
  -5   2  12   10898   11538   1
  -4   2  12    8873    8726   1
  -3   2  12   73710    8231   1
   2  -2  10   22764    4803  -2
  -2   2  12   22764    4803   1
  -1   2  12  479104   20428   1
   0   2  12  299223   11195   1
   1   2  12  122610    7082   1
   2   2  12  271958    9330   1
   3   2  12   51862    5357   1
   4   2  12   53188   14228   1
   5   2  12    2621    7378   1
  -6  -2  11  314819   31460  -2
   6   2  12  314819   31460   1
  -6   3  12  601599   45037   1
  -5   3  12   32285   12334   1
  -4   3  12  287611   28595   1
   3  -3   9  181873   21429  -2
  -3   3  12  181873   21429   1
  -2   3  12  385278   17338   1
  -1   3  12  202644   13090   1
   0   3  12    2302    1509   1
   1   3  12  986377   19903   1
   2   3  12    5337    3050   1
   3   3  12  331042    9479   1
   4   3  12  147053   14946   1
  -5  -3  10   86253   15490  -2
   5   3  12   86253   15490   1
  -6  -3  10   89766   18126  -2
   6   3  12   89766   18126   1
   5  -4   8   11045    9637  -2
  -5   4  12   11045    9637   1
   4  -4   8  966347   37856  -2
  -4   4  12  966347   37856   1
  -3   4  12    9713    6080   1
  -2   4  12  231534   24036   1
  -1   4  12     673    3088   1
   0   4  12  538633   14527   1
   1   4  12  162865    8282   1
   2   4  12    2219    1585   1
   3   4  12  352775   20913   1
  -4  -4   9  136389    7788  -2
   4   4  12  136389    7788   1
  -5  -4   9  229723   24189  -2
   5   4  12  229723   24189   1
   6   4  12   16444    8266   1
   5  -5   7  102470   14666  -2
  -5   5  12  102470   14666   1
  -4   5  12   76539   18440   1
  -3   5  12   12638    9436   1
  -2   5  12  156529   20852   1
  -1   5  12  322833   27060   1
   0   5  12   13303    5920   1
   1   5  12  100862    7760   1
   2   5  12  135788    8761   1
  -3  -5   8  166616    7994  -2
   3   5  12  166616    7994   1
  -4  -5   8  155202   18443  -2
   4   5  12  155202   18443   1
   5   5  12   46929   12170   1
   6   5  12  178365   22468   1
  -4   6  12  297950   31380   1
  -3   6  12   -3706    5265   1
  -2   6  12  564408   39157   1
  -1   6  12  258654   25281   1
   0   6  12   10903    3410   1
   1   6  12  478289   19505   1
  -2  -6   7  198760   10701  -2
   2   6  12  198760   10701   1
  -3  -6   7  469942   15974  -2
   3   6  12  469942   15974   1
   4   6  12   91224    8743   1
   5   6  12  179090   20567   1
   6   6  12  241461   26342   1
  -3   7  12   74712   17190   1
  -2   7  12  608569   41781   1
  -1   7  12   56682   15589   1
   0   7  12  312875   27529   1
  -1  -7   6  253754   23665  -2
   1   7  12  253754   23665   1
  -2  -7   6   17526    5700  -2
   2   7  12   17526    5700   1
   3   7  12  120184   11050   1
   4   7  12    5762    5368   1
   5   7  12  156310   19337   1
   6   7  12   78136   16013   1
  -2   8  12    6150    8819   1
  -1   8  12   25132    8160   1
   0  -8   5  112158   17279  -2
   0   8  12  112158   17279   1
  -1  -8   5  281274   26468  -2
   1   8  12  281274   26468   1
   2   8  12   81178   15830   1
   3   8  12    5331    5169   1
   4   8  12   66868   11696   1
   5   8  12   -8859    8859   1
   6   8  12   -7388    7388   1
   1  -9   4  106903   18458  -2
  -1   9  12  106903   18458   1
   0   9  12  122962   19154   1
   1   9  12   82070   16319   1
   2   9  12   -9945    9945   1
   3   9  12  684363   40753   1
   5   9  12   -9785    9785   1
   2  10  12  245597   27369   1
   3  10  12   76059   16115   1
  -2  -5  13    5473    7171   1
  -1  -5  13     646   10385   1
   0  -5  13  287486   29891   1
  -3  -4  13  170757   23940   1
  -2  -4  13   47427   11947   1
  -1  -4  13  154034   22364   1
   0  -4  13   23643    9610   1
   1  -4  13   23081    9114   1
   6   3  15  182417   20831  -2
  -6  -3  13  182417   20831   1
  -4  -3  13     331    8397   1
  -3  -3  13  421911   34573   1
  -2  -3  13   29881   10427   1
  -1  -3  13  255308   25423   1
   0  -3  13    1977    7792   1
   1  -3  13   82445   13775   1
   2  -3  13    1105    2855   1
   6   2  14   55531   13118  -2
  -6  -2  13   55531   13118   1
  -5  -2  13   35500    7564   1
  -4  -2  13   53602    7893   1
  -3  -2  13   77668    9712   1
  -2  -2  13   -8456    8456   1
  -1  -2  13  109959   16500   1
   0  -2  13  358072   27480   1
   1  -2  13   43894    7985   1
  -2   2  15   59692    8526  -2
   2  -2  13   59692    8526   1
   3  -2  13   46424   14829   1
  -5  -1  13  333741   31690   1
  -4  -1  13   19979   10211   1
  -3  -1  13  238834   14571   1
  -2  -1  13   33816    9978   1
  -1  -1  13  719709   37618   1
   0  -1  13  278518   22941   1
  -1   1  14   13800    4993  -2
   1  -1  13   13800    4993   1
   2  -1  13  335282   17656   1
   3  -1  13   13347    8226   1
   4  -1  13  250476   29754   1
  -5   0  13  141194   20901   1
  -4   0  13      81    8553   1
  -3   0  13  177542   20343   1
  -2   0  13   76932   13232   1
  -1   0  13  699471   35884   1
   0   0  13  162201   13064  -2
   0   0  13  162201   13064   1
   1   0  13  594455   27672   1
   2   0  13   56480   13357   1
   3   0  13   -7892    7892   1
   4   0  13  147808   22112   1
   5   0  13   11674   11921   1
  -5   1  13  211962   26181   1
  -4   1  13  230987   25972   1
  -3   1  13   -3313    5324   1
  -2   1  13    1485    6753   1
   1  -1  12  128760   15939  -2
  -1   1  13  128760   15939   1
   0   1  13    9376    3069   1
   1   1  13   98053    7522   1
   2   1  13  495911   20210   1
   3   1  13  261658   14203   1
   4   1  13   46599   13939   1
   5   1  13   54734   13988   1
  -5   2  13   83382   17677   1
  -4   2  13   11748    7813   1
  -3   2  13  821871   44561   1
   2  -2  11  140172   11704  -2
  -2   2  13  140172   11704   1
  -1   2  13  240673   14724   1
   0   2  13  211057   11341   1
   1   2  13  264644   12117   1
   2   2  13   13428    2041   1
   3   2  13    1602    2548   1
   4   2  13 1076886   55241   1
   5   2  13    1187    6223   1
  -6  -2  12  117472   20637  -2
   6   2  13  117472   20637   1
  -5   3  13   75964   17612   1
  -4   3  13  440706   35757   1
   3  -3  10  124951   18620  -2
  -3   3  13  124951   18620   1
  -2   3  13   16519    4834   1
  -1   3  13 1364648   65817   1
   0   3  13    5773    3208   1
   1   3  13  173491   10116   1
   2   3  13   35046    3928   1
   3   3  13  393989   31580   1
   4   3  13   26786   14340   1
  -5  -3  11    4965    8091  -2
   5   3  13    4965    8091   1
  -6  -3  11  476355   38983  -2
   6   3  13  476355   38983   1
  -5   4  13    -749    2594   1
   4  -4   9   67726   14284  -2
  -4   4  13   67726   14284   1
  -3   4  13   68472   15617   1
  -2   4  13  369685   21972   1
  -1   4  13    6762    4287   1
   0   4  13   26478    4378   1
   1   4  13  296433   17269   1
   2   4  13   93518    7416   1
   3   4  13   65854   10057   1
  -4  -4  10   20173    9944  -2
   4   4  13   20173    9944   1
  -5  -4  10   69196   15455  -2
   5   4  13   69196   15455   1
   6   4  13  191554   24508   1
  -4   5  13   43846    8682   1
  -3   5  13  191173   24534   1
  -2   5  13   13798    7859   1
  -1   5  13  379584   31141   1
   0   5  13   19903    5084   1
   1   5  13  470794   20484   1
   2   5  13  228341   12317   1
  -3  -5   9   69668    8594  -2
   3   5  13   69668    8594   1
  -4  -5   9  251410   24722  -2
   4   5  13  251410   24722   1
   5   5  13   53622   14072   1
   6   5  13  146176   21074   1
  -4   6  13  325031   34373   1
  -3   6  13  220683   27850   1
  -2   6  13   10035    6150   1
  -1   6  13  338458   29439   1
   0   6  13  178641   21525   1
   1   6  13  545835   21792   1
  -2  -6   8   75979    8737  -2
   2   6  13   75979    8737   1
   3   6  13  588664   22770   1
   4   6  13  219878   22289   1
   5   6  13    9668    8358   1
   6   6  13   15867    9998   1
  -3   7  13  155895   24012   1
  -2   7  13  139284   21496   1
  -1   7  13  118349   18496   1
   0   7  13   -7093    8663   1
  -1  -7   7  181882   21141  -2
   1   7  13  181882   21141   1
   2   7  13    -534    8586   1
   3   7  13  184006   13828   1
   4   7  13   81355   14240   1
   5   7  13  168472   21281   1
   6   7  13   -5126    6191   1
  -2   8  13   91327   20501   1
  -1   8  13  360297   32641   1
   0  -8   6   11565   10963  -2
   0   8  13   11565   10963   1
   1   8  13   74874   13596   1
   2   8  13   58819   12775   1
   3   8  13   45901    7460   1
   4   8  13   63394   12198   1
   5   8  13    5916    4858   1
   0   9  13   30230   12834   1
   1   9  13  588800   41094   1
   2   9  13   -6639    6639   1
   3   9  13   53882   11727   1
  -2  -4  14   -8525    8525   1
  -1  -4  14   19193   11361   1
   0  -4  14  394774   32721   1
  -3  -3  14   18503   12593   1
  -2  -3  14   22936   10420   1
  -1  -3  14  162502   22720   1
   0  -3  14   46954   11281   1
  -4  -2  14   18369    9643   1
  -3  -2  14   -4318    4318   1
  -2  -2  14  236257   24648   1
  -1  -2  14    1230    7215   1
   0  -2  14  135712   17712   1
   1  -2  14   16632    7888   1
  -2   2  16  472908   38281  -2
   2  -2  14  472908   38281   1
  -6  -1  14    9005    8472   1
  -5  -1  14  263716   23348   1
  -4  -1  14   17105    4539   1
  -3  -1  14  621933   23043   1
  -2  -1  14  113277   17142   1
  -1  -1  14   -4726    4726   1
   0  -1  14  263952   22662   1
  -1   1  15   89534   10753  -2
   1  -1  14   89534   10753   1
   2  -1  14  320479   30543   1
   3  -1  14   25989   12393   1
  -5   0  14    6200    4342   1
  -4   0  14   25000    8863   1
  -3   0  14  386040   31038   1
  -2   0  14  212468   22861   1
  -1   0  14  317299   25530   1
   0   0  14   21493    7510  -2
   0   0  14   21493    7510   1
   1   0  14   30320    9748   1
   2   0  14   14965    5446   1
   3   0  14    5904    8265   1
   4   0  14   87912   18014   1
  -5   1  14     193    9154   1
  -4   1  14    4399    6583   1
  -3   1  14  114562   17888   1
  -2   1  14  101955   16545   1
   1  -1  13   45856   10546  -2
  -1   1  14   45856   10546   1
   0   1  14  567625   23349   1
   1   1  14  105987   10198   1
   2   1  14  129838   10517   1
   3   1  14   59826   13981   1
   4   1  14   62427   15654   1
   5   1  14   19223   11758   1
  -5   2  14  439051   37429   1
  -4   2  14   -9853    9853   1
  -3   2  14  287320   27853   1
   2  -2  12  137111   18375  -2
  -2   2  14  137111   18375   1
  -1   2  14  455388   30621   1
   0   2  14   33508    6667   1
   1   2  14    9341    2788   1
   2   2  14 1043146   28625   1
   3   2  14   12466    9785   1
   4   2  14   66482   16578   1
   5   2  14   43732   12232   1
  -4   3  14   -9810    9810   1
   3  -3  11  775848   45520  -2
  -3   3  14  775848   45520   1
  -2   3  14    6740    5258   1
  -1   3  14   74171   14076   1
   0   3  14     506    3344   1
   1   3  14  501711   21450   1
   2   3  14     980    3519   1
   3   3  14   15391    7758   1
   4   3  14  330634   31799   1
  -5  -3  12   32703   10343  -2
   5   3  14   32703   10343   1
   4  -4  10  169974   24118  -2
  -4   4  14  169974   24118   1
  -3   4  14   21018   11000   1
  -2   4  14  220992   25361   1
  -1   4  14   50447   12578   1
   0   4  14   73302    8642   1
   1   4  14    -411    4034   1
   2   4  14  174428   13271   1
   3   4  14   30985    5770   1
  -4  -4  11  131952   19907  -2
   4   4  14  131952   19907   1
  -5  -4  11   12132    7083  -2
   5   4  14   12132    7083   1
  -4   5  14   19996    8008   1
  -3   5  14  673329   32802   1
  -2   5  14    7750    4897   1
  -1   5  14  259950   27159   1
   0   5  14  305051   16446   1
   1   5  14    1260    4118   1
   2   5  14  342598   27644   1
  -3  -5  10  102261   16369  -2
   3   5  14  102261   16369   1
   4   5  14  283493   28013   1
   5   5  14    9698   12480   1
  -3   6  14  156329   23844   1
  -2   6  14   18237   10073   1
  -1   6  14  551478   39004   1
   0   6  14  123976   18274   1
   1   6  14  301016   16769   1
  -2  -6   9  267837   16361  -2
   2   6  14  267837   16361   1
   3   6  14   21409    9189   1
   4   6  14   18351   10799   1
   5   6  14    1153    9844   1
  -2   7  14    7665    7209   1
  -1   7  14   10681    7499   1
   0   7  14   45160   13532   1
  -1  -7   8  234860   23692  -2
   1   7  14  234860   23692   1
   2   7  14  327152   17814   1
   3   7  14   32313   11033   1
   4   7  14   19663   10711   1
   5   7  14   36475   12774   1
  -1   8  14  138338   20255   1
   0  -8   7   17699    9387  -2
   0   8  14   17699    9387   1
   1   8  14  165335   21939   1
   2   8  14  168194   20419   1
   4   8  14  391876   30072   1
   5   8  14    3533    4177   1
   1   9  14   83018   17669   1
   2   9  14   27785   11440   1
  -2  -3  15   39312   12810   1
  -1  -3  15   52648   13668   1
   0  -3  15   29157   11326   1
  -3  -2  15   -5253    9786   1
  -2  -2  15  240890   26023   1
  -1  -2  15   33143   11612   1
   0  -2  15  476790   33394   1
  -4  -1  15   17944    8762   1
  -3  -1  15    4564    9825   1
  -2  -1  15   92776   16386   1
  -1  -1  15   31927   11496   1
   0  -1  15  359604   27317   1
  -1   1  16  149758   13547  -2
   1  -1  15  149758   13547   1
   2  -1  15  401403   34635   1
  -4   0  15  232013   26358   1
  -3   0  15   39304   10471   1
  -2   0  15    1631    4271   1
  -1   0  15    6706    5295   1
   0   0  15   60906   11984  -2
   0   0  15   60906   11984   1
   1   0  15   31818    6300   1
   2   0  15   92920   17670   1
   3   0  15  292951   30015   1
  -4   1  15   91015   16530   1
  -3   1  15   36063   10394   1
  -2   1  15  538515   35491   1
   1  -1  14   21187    7276  -2
  -1   1  15   21187    7276   1
   0   1  15  216228   20205   1
   1   1  15   24018    5634   1
   2   1  15  158178   20310   1
   3   1  15   40423   13242   1
   4   1  15   17362    9458   1
  -4   2  15    5332    8799   1
  -3   2  15  392077   32549   1
   2  -2  13   73440   15454  -2
  -2   2  15   73440   15454   1
  -1   2  15    3128    7004   1
   0   2  15  673553   25771   1
   1   2  15    6636   11458   1
   2   2  15  107254   10069   1
   3   2  15    9412    9331   1
   4   2  15  257323   29360   1
  -4   3  15   29451   12824   1
   3  -3  12   49817   11727  -2
  -3   3  15   49817   11727   1
  -2   3  15   46695   12274   1
  -1   3  15  341434   29060   1
   0   3  15    1325    8683   1
   1   3  15  130697   11933   1
   2   3  15  171182   12690   1
   3   3  15   14780   10262   1
   4   3  15   22092   10206   1
  -5  -3  13  103907   18851  -2
   5   3  15  103907   18851   1
  -3   4  15     -48    6703   1
  -2   4  15  128526   19442   1
  -1   4  15    9024    9109   1
   0   4  15  627657   48941   1
   1   4  15   20862    5667   1
   2   4  15  129834   11673   1
   3   4  15  178979   23980   1
  -4  -4  12    9683    8676  -2
   4   4  15    9683    8676   1
  -5  -4  12  140224   23629  -2
   5   4  15  140224   23629   1
  -3   5  15  153593   23333   1
  -2   5  15   63642   14734   1
  -1   5  15   64523   13555   1
   0   5  15  234089   14547   1
   1   5  15   18404    5233   1
   2   5  15  529203   23723   1
  -3  -5  11   29371   11161  -2
   3   5  15   29371   11161   1
   4   5  15  232481   25973   1
   5   5  15   82792   16088   1
  -2   6  15   51125   13501   1
  -1   6  15   85073   17070   1
   0   6  15   22902    9845   1
   1   6  15   16617    7493   1
  -2  -6  10   22331    5670  -2
   2   6  15   22331    5670   1
   3   6  15   14360    9417   1
   4   6  15  265123   27015   1
   5   6  15  106469   17803   1
  -1   7  15  138747   20562   1
   0   7  15  297372   29776   1
  -1  -7   9    5903    8071  -2
   1   7  15    5903    8071   1
   2   7  15   61910   12472   1
   3   7  15    7486    7196   1
   4   7  15  105085   17402   1
   5   7  15   84706   17879   1
   0  -8   8  312896   31403  -2
   0   8  15  312896   31403   1
   1   8  15   12002    5619   1
  -2  -2  16  225791   25649   1
  -1  -2  16   39551   13205   1
  -3  -1  16   11650    9955   1
  -2  -1  16  114440   16942   1
  -1  -1  16  178281   21174   1
   0  -1  16  198841   21756   1
  -3   0  16   -1869    9805   1
  -2   0  16  159043   19701   1
  -1   0  16   90064   16462   1
   0   0  16   71774   12963  -2
   0   0  16   71774   12963   1
   1   0  16  369152   32653   1
   2   0  16  -12871   12871   1
  -3   1  16   16909   10316   1
  -2   1  16  194302   22285   1
   1  -1  15   29758   10075  -2
  -1   1  16   29758   10075   1
   0   1  16  272463   23022   1
   1   1  16  161465   13149   1
   2   1  16  -10585   10585   1
   3   1  16  339491   33395   1
  -3   2  16   -2878    4827   1
   2  -2  14  461542   34664  -2
  -2   2  16  461542   34664   1
  -1   2  16   11434    7516   1
   0   2  16   66310   12628   1
   1   2  16    4882    5092   1
   2   2  16  221046   25873   1
   3   2  16   -4567    4567   1
   3  -3  13  111597   19423  -2
  -3   3  16  111597   19423   1
  -2   3  16   32843   11642   1
  -1   3  16  152944   20174   1
   0   3  16   72358    9529   1
   1   3  16   79592    9973   1
   2   3  16    -939    3467   1
   3   3  16  373047   33567   1
   4   3  16   29474   13764   1
  -3   4  16   -3377   11334   1
  -2   4  16  664926   44052   1
  -1   4  16   -3566    5344   1
   0   4  16  175570   14110   1
   1   4  16  181375   14299   1
   2   4  16   22755   11345   1
   3   4  16  174702   22059   1
  -4  -4  13   25087   10277  -2
   4   4  16   25087   10277   1
  -2   5  16   90676   18602   1
  -1   5  16    5527    6351   1
   0   5  16  386072   32390   1
   1   5  16   35323    6574   1
   2   5  16  181619   14700   1
  -3  -5  12   31007    9492  -2
   3   5  16   31007    9492   1
   4   5  16   50122   13260   1
  -2   6  16   16174   10595   1
  -1   6  16   -5560    5560   1
   0   6  16   30907   10824   1
  -2  -6  11   79102   14655  -2
   2   6  16   79102   14655   1
   3   6  16  215598   24186   1
   4   6  16   22754    8583   1
  -1   7  16   27300   14932   1
   0   7  16   83817   17864   1
  -1  -7  10     823    9848  -2
   1   7  16     823    9848   1
  -2  -1  17  175982   22904   1
  -1  -1  17    1941    6666   1
  -2   0  17   14120    7581   1
  -1   0  17  361360   29464   1
  -2   1  17  314569   29465   1
   1  -1  16   70658   12918  -2
  -1   1  17   70658   12918   1
   0   1  17   22616    9716   1
   1   1  17  220003   25717   1
   2  -2  15   78353   15985  -2
  -2   2  17   78353   15985   1
  -1   2  17   20039    7504   1
   0   2  17  126119   16984   1
   1   2  17   38562   11275   1
   2   2  17   43006   13846   1
  -2   3  17    6457    8061   1
  -1   3  17  157424   21136   1
   0   3  17    2241    4757   1
   1   3  17  304696   27040   1
   2   3  17   18213    8484   1
   3   3  17  128259   19961   1
  -2   4  17  105148   18121   1
  -1   4  17   74656   14959   1
   0   4  17  112575   17319   1
   1   4  17  134883   12870   1
   2   4  17   13998    7227   1
   3   4  17  273043   28386   1
  -1   5  17   15939    7601   1
   0   5  17   68355   12680   1
   1   5  17   22033    7863   1
   2   5  17   -3778    5401   1
  -3  -5  13   23345    9311  -2
   3   5  17   23345    9311   1
   0   6  17   35571   11755   1
   1   6  17  214022   24598   1
   1  -1  17   96668   15830  -2
  -1   1  18   96668   15830   1
  -1   2  18   49685   10926   1
   1   2  18    7896    5249   1
  -1   3  18  417193   33730   1
   1   3  18  111375   18681   1
   2   3  18  113059   19686   1
  -1   4  18   32448   13007   1
   0   4  18   21701    8296   1
   2   4  18   26392   10734   1
   0   5  18   30789   11469   1
;
_shelx_hkl_checksum              55913
_publcif_funding_html
;
;
loop_
_space_group_symop_operation_xyz
'x, y, z'
'-x, -y, -z'
loop_
_atom_site_label
_atom_site_type_symbol
_atom_site_fract_x
_atom_site_fract_y
_atom_site_fract_z
_atom_site_U_iso_or_equiv
_atom_site_adp_type
_atom_site_occupancy
_atom_site_site_symmetry_order
_atom_site_calc_flag
_atom_site_refinement_flags_posn
_atom_site_refinement_flags_adp
_atom_site_refinement_flags_occupancy
_atom_site_disorder_assembly
_atom_site_disorder_group
I2 I 0.50945(6) 0.15407(6) 0.08461(3) 0.01731(12) Uani 1 1 d . . . . .
I1 I 0.07046(6) 0.81823(5) 0.11832(3) 0.01697(11) Uani 1 1 d . . . . .
Cu1 Cu 0.20913(10) 0.61038(9) 0.49093(6) 0.01035(17) Uani 1 1 d . . . . .
O1 O 0.1465(6) 0.6236(5) 0.3513(3) 0.0133(9) Uani 1 1 d . . . . .
N1 N 0.2691(6) 0.3599(6) 0.5251(4) 0.0100(11) Uani 1 1 d . . . . .
N2 N 0.1772(7) 0.6212(7) 0.6371(4) 0.0107(11) Uani 1 1 d . . . . .
C3 C 0.2963(8) 0.4726(8) 0.1290(5) 0.0132(13) Uani 1 1 d . . . . .
H3 H 0.291201 0.513670 0.055372 0.016 Uiso 1 1 calc R U . . .
C2 C 0.2149(8) 0.5752(8) 0.1880(5) 0.0121(13) Uani 1 1 d . . . . .
C8 C 0.2782(8) 0.2585(8) 0.6341(5) 0.0129(13) Uani 1 1 d . . . . .
H8A H 0.347572 0.143036 0.639877 0.015 Uiso 1 1 calc R U . . .
H8B H 0.156245 0.247209 0.657633 0.015 Uiso 1 1 calc R U . . .
C4 C 0.3862(8) 0.3088(8) 0.1764(5) 0.0126(13) Uani 1 1 d . . . . .
C1 C 0.2215(8) 0.5214(8) 0.2986(5) 0.0103(12) Uani 1 1 d . . . . .
C9 C 0.3659(8) 0.3420(8) 0.7038(5) 0.0103(12) Uani 1 1 d . . . . .
H9A H 0.397550 0.258490 0.772048 0.012 Uiso 1 1 calc R U . . .
H9B H 0.477894 0.371808 0.672272 0.012 Uiso 1 1 calc R U . . .
C7 C 0.3190(8) 0.2808(8) 0.4558(5) 0.0129(13) Uani 1 1 d . . . . .
H7 H 0.362178 0.161784 0.480128 0.015 Uiso 1 1 calc R U . . .
C12 C 0.1135(9) 0.6624(9) 0.8341(5) 0.0190(15) Uani 1 1 d . . . . .
H12 H 0.090638 0.675187 0.901922 0.023 Uiso 1 1 calc R U . . .
C6 C 0.3162(8) 0.3540(8) 0.3452(5) 0.0113(13) Uani 1 1 d . . . . .
C14 C 0.0735(8) 0.7619(8) 0.6517(5) 0.0145(13) Uani 1 1 d . . . . .
H14 H 0.021206 0.847791 0.592283 0.017 Uiso 1 1 calc R U . . .
C5 C 0.3960(8) 0.2491(8) 0.2828(5) 0.0123(13) Uani 1 1 d . . . . .
H5 H 0.456836 0.136726 0.314596 0.015 Uiso 1 1 calc R U . . .
C13 C 0.0389(9) 0.7886(9) 0.7476(5) 0.0163(14) Uani 1 1 d . . . . .
H13 H -0.034150 0.890596 0.754473 0.020 Uiso 1 1 calc R U . . .
C11 C 0.2217(9) 0.5178(9) 0.8203(5) 0.0176(15) Uani 1 1 d . . . . .
H11 H 0.276011 0.431352 0.878937 0.021 Uiso 1 1 calc R U . . .
C10 C 0.2515(8) 0.4982(8) 0.7205(5) 0.0148(14) Uani 1 1 d . . . . .
Cl1 Cl 0.2695(2) 0.8741(2) 0.43842(12) 0.0159(3) Uani 1 1 d . . . . .
loop_
_atom_site_aniso_label
_atom_site_aniso_U_11
_atom_site_aniso_U_22
_atom_site_aniso_U_33
_atom_site_aniso_U_23
_atom_site_aniso_U_13
_atom_site_aniso_U_12
I2 0.0228(2) 0.0136(2) 0.0161(2) -0.00751(18) 0.00414(18) 0.00016(17)
I1 0.0248(2) 0.0108(2) 0.0117(2) -0.00134(17) 0.00101(18) 0.00333(17)
Cu1 0.0120(4) 0.0073(4) 0.0111(4) -0.0023(3) 0.0002(3) -0.0005(3)
O1 0.020(2) 0.007(2) 0.012(2) -0.0039(18) 0.0010(19) 0.0010(18)
N1 0.011(2) 0.007(3) 0.010(2) -0.001(2) 0.001(2) 0.000(2)
N2 0.014(3) 0.010(3) 0.009(2) -0.004(2) 0.001(2) -0.004(2)
C3 0.016(3) 0.011(3) 0.013(3) -0.004(3) 0.003(3) -0.003(3)
C2 0.013(3) 0.006(3) 0.015(3) 0.002(2) -0.002(3) -0.001(2)
C8 0.017(3) 0.009(3) 0.011(3) -0.001(3) 0.004(3) -0.001(3)
C4 0.016(3) 0.010(3) 0.014(3) -0.008(3) 0.006(3) 0.000(2)
C1 0.007(3) 0.014(3) 0.010(3) -0.005(3) 0.004(2) -0.001(2)
C9 0.008(3) 0.009(3) 0.011(3) 0.001(2) -0.002(2) -0.001(2)
C7 0.008(3) 0.008(3) 0.022(3) -0.003(3) -0.004(3) 0.000(2)
C12 0.019(3) 0.021(4) 0.020(3) -0.009(3) 0.000(3) -0.005(3)
C6 0.010(3) 0.011(3) 0.014(3) -0.003(3) -0.002(3) -0.003(2)
C14 0.016(3) 0.008(3) 0.021(3) -0.004(3) 0.004(3) -0.006(3)
C5 0.014(3) 0.010(3) 0.015(3) -0.003(3) 0.003(3) -0.007(2)
C13 0.017(3) 0.014(4) 0.019(3) -0.008(3) 0.002(3) -0.003(3)
C11 0.019(3) 0.019(4) 0.019(3) -0.010(3) -0.005(3) -0.005(3)
C10 0.012(3) 0.016(4) 0.019(3) -0.006(3) -0.004(3) -0.006(3)
Cl1 0.0179(7) 0.0095(8) 0.0197(8) -0.0025(6) 0.0030(7) -0.0030(6)
loop_
_atom_type_symbol
_atom_type_description
_atom_type_scat_dispersion_real
_atom_type_scat_dispersion_imag
_atom_type_scat_source
C C 0.0033 0.0016 'International Tables Vol C Tables 4.2.6.8 and 6.1.1.4'
H H 0.0000 0.0000 'International Tables Vol C Tables 4.2.6.8 and 6.1.1.4'
Cl Cl 0.1484 0.1585 'International Tables Vol C Tables 4.2.6.8 and 6.1.1.4'
Cu Cu 0.3201 1.2651 'International Tables Vol C Tables 4.2.6.8 and 6.1.1.4'
I I -0.4742 1.8119 'International Tables Vol C Tables 4.2.6.8 and 6.1.1.4'
N N 0.0061 0.0033 'International Tables Vol C Tables 4.2.6.8 and 6.1.1.4'
O O 0.0106 0.0060 'International Tables Vol C Tables 4.2.6.8 and 6.1.1.4'
loop_
_exptl_crystal_face_index_h
_exptl_crystal_face_index_k
_exptl_crystal_face_index_l
_exptl_crystal_face_perp_dist
-10 1 -2 0.1161
-1 -3 16 0.0345
2 3 -16 0.0429
-7 7 3 0.1315
-11 -4 -1 0.0892
0 -12 -4 0.0714
2 12 4 0.0918
3 7 -11 0.0649
10 6 4 0.1736
0 -3 -19 0.0395
-6 -2 -15 0.0664
10 1 4 0.1888
1 3 19 0.0410
3 11 8 0.0824
-8 -4 10 0.0742
-6 4 -10 0.1083
loop_
_geom_angle_atom_site_label_1
_geom_angle_atom_site_label_2
_geom_angle_atom_site_label_3
_geom_angle
_geom_angle_site_symmetry_1
_geom_angle_site_symmetry_3
_geom_angle_publ_flag
O1 Cu1 N1 91.14(19) . . ?
O1 Cu1 N2 158.7(2) . . ?
N1 Cu1 N2 95.3(2) . . ?
O1 Cu1 Cl1 89.67(14) . . ?
N1 Cu1 Cl1 154.61(16) . . ?
N2 Cu1 Cl1 93.00(16) . . ?
C1 O1 Cu1 125.4(4) . . ?
C7 N1 C8 117.5(5) . . ?
C7 N1 Cu1 122.1(4) . . ?
C8 N1 Cu1 120.0(4) . . ?
C14 N2 C10 118.9(5) . . ?
C14 N2 Cu1 116.7(4) . . ?
C10 N2 Cu1 124.4(4) . . ?
C2 C3 C4 120.3(6) . . ?
C2 C3 H3 119.9 . . ?
C4 C3 H3 119.9 . . ?
C3 C2 C1 122.2(6) . . ?
C3 C2 I1 120.9(5) . . ?
C1 C2 I1 116.9(4) . . ?
N1 C8 C9 110.9(5) . . ?
N1 C8 H8A 109.5 . . ?
C9 C8 H8A 109.5 . . ?
N1 C8 H8B 109.5 . . ?
C9 C8 H8B 109.5 . . ?
H8A C8 H8B 108.1 . . ?
C5 C4 C3 120.3(6) . . ?
C5 C4 I2 120.1(5) . . ?
C3 C4 I2 119.7(4) . . ?
O1 C1 C2 120.2(5) . . ?
O1 C1 C6 123.4(5) . . ?
C2 C1 C6 116.4(5) . . ?
C10 C9 C8 113.9(5) . . ?
C10 C9 H9A 108.8 . . ?
C8 C9 H9A 108.8 . . ?
C10 C9 H9B 108.8 . . ?
C8 C9 H9B 108.8 . . ?
H9A C9 H9B 107.7 . . ?
N1 C7 C6 126.6(6) . . ?
N1 C7 H7 116.7 . . ?
C6 C7 H7 116.7 . . ?
C11 C12 C13 119.0(6) . . ?
C11 C12 H12 120.5 . . ?
C13 C12 H12 120.5 . . ?
C5 C6 C1 120.4(6) . . ?
C5 C6 C7 118.0(6) . . ?
C1 C6 C7 121.3(6) . . ?
N2 C14 C13 123.7(6) . . ?
N2 C14 H14 118.2 . . ?
C13 C14 H14 118.2 . . ?
C4 C5 C6 120.4(6) . . ?
C4 C5 H5 119.8 . . ?
C6 C5 H5 119.8 . . ?
C14 C13 C12 118.0(6) . . ?
C14 C13 H13 121.0 . . ?
C12 C13 H13 121.0 . . ?
C12 C11 C10 120.2(6) . . ?
C12 C11 H11 119.9 . . ?
C10 C11 H11 119.9 . . ?
N2 C10 C11 120.2(6) . . ?
N2 C10 C9 118.6(5) . . ?
C11 C10 C9 121.2(6) . . ?
loop_
_geom_bond_atom_site_label_1
_geom_bond_atom_site_label_2
_geom_bond_distance
_geom_bond_site_symmetry_2
_geom_bond_publ_flag
I2 C4 2.096(6) . ?
I1 C2 2.090(6) . ?
Cu1 O1 1.903(4) . ?
Cu1 N1 1.973(5) . ?
Cu1 N2 1.987(5) . ?
Cu1 Cl1 2.2460(17) . ?
O1 C1 1.292(7) . ?
N1 C7 1.286(8) . ?
N1 C8 1.471(8) . ?
N2 C14 1.344(8) . ?
N2 C10 1.345(8) . ?
C3 C2 1.371(9) . ?
C3 C4 1.390(9) . ?
C3 H3 0.9500 . ?
C2 C1 1.423(8) . ?
C8 C9 1.527(8) . ?
C8 H8A 0.9900 . ?
C8 H8B 0.9900 . ?
C4 C5 1.373(9) . ?
C1 C6 1.424(9) . ?
C9 C10 1.491(9) . ?
C9 H9A 0.9900 . ?
C9 H9B 0.9900 . ?
C7 C6 1.439(9) . ?
C7 H7 0.9500 . ?
C12 C11 1.379(9) . ?
C12 C13 1.383(9) . ?
C12 H12 0.9500 . ?
C6 C5 1.414(9) . ?
C14 C13 1.370(9) . ?
C14 H14 0.9500 . ?
C5 H5 0.9500 . ?
C13 H13 0.9500 . ?
C11 C10 1.395(9) . ?
C11 H11 0.9500 . ?
loop_
_geom_torsion_atom_site_label_1
_geom_torsion_atom_site_label_2
_geom_torsion_atom_site_label_3
_geom_torsion_atom_site_label_4
_geom_torsion
_geom_torsion_site_symmetry_1
_geom_torsion_site_symmetry_2
_geom_torsion_site_symmetry_3
_geom_torsion_site_symmetry_4
_geom_torsion_publ_flag
C4 C3 C2 C1 1.4(10) . . . . ?
C4 C3 C2 I1 -177.5(5) . . . . ?
C7 N1 C8 C9 133.0(6) . . . . ?
Cu1 N1 C8 C9 -40.0(6) . . . . ?
C2 C3 C4 C5 -0.8(10) . . . . ?
C2 C3 C4 I2 179.9(5) . . . . ?
Cu1 O1 C1 C2 -156.2(4) . . . . ?
Cu1 O1 C1 C6 22.7(8) . . . . ?
C3 C2 C1 O1 178.4(6) . . . . ?
I1 C2 C1 O1 -2.7(8) . . . . ?
C3 C2 C1 C6 -0.6(9) . . . . ?
I1 C2 C1 C6 178.3(4) . . . . ?
N1 C8 C9 C10 72.6(7) . . . . ?
C8 N1 C7 C6 178.1(6) . . . . ?
Cu1 N1 C7 C6 -9.0(9) . . . . ?
O1 C1 C6 C5 -179.6(6) . . . . ?
C2 C1 C6 C5 -0.7(9) . . . . ?
O1 C1 C6 C7 6.4(9) . . . . ?
C2 C1 C6 C7 -174.7(5) . . . . ?
N1 C7 C6 C5 172.8(6) . . . . ?
N1 C7 C6 C1 -13.1(10) . . . . ?
C10 N2 C14 C13 0.3(9) . . . . ?
Cu1 N2 C14 C13 -179.9(5) . . . . ?
C3 C4 C5 C6 -0.5(9) . . . . ?
I2 C4 C5 C6 178.8(4) . . . . ?
C1 C6 C5 C4 1.3(9) . . . . ?
C7 C6 C5 C4 175.4(6) . . . . ?
N2 C14 C13 C12 -0.8(10) . . . . ?
C11 C12 C13 C14 1.3(10) . . . . ?
C13 C12 C11 C10 -1.4(10) . . . . ?
C14 N2 C10 C11 -0.4(9) . . . . ?
Cu1 N2 C10 C11 179.8(5) . . . . ?
C14 N2 C10 C9 179.7(5) . . . . ?
Cu1 N2 C10 C9 -0.1(8) . . . . ?
C12 C11 C10 N2 1.0(10) . . . . ?
C12 C11 C10 C9 -179.1(6) . . . . ?
C8 C9 C10 N2 -51.4(8) . . . . ?
C8 C9 C10 C11 128.7(6) . . . . ?
