#------------------------------------------------------------------------------
#$Date: 2021-04-05 17:48:45 +0300 (Mon, 05 Apr 2021) $
#$Revision: 263758 $
#$URL: file:///home/coder/svn-repositories/cod/cif/7/70/65/7706597.cif $
#------------------------------------------------------------------------------
#
# This file is available in the Crystallography Open Database (COD),
# http://www.crystallography.net/
#
# All data on this site have been placed in the public domain by the
# contributors.
#
data_7706597
loop_
_publ_author_name
'Hu, Dandan'
'Lu, Bo'
'Song, Chao'
'Zhu, Bifeng'
'Wang, Lina'
'Bernhardt, Eduard'
'Zeng, Xiaoqing'
_publ_section_title
;
 Synthesis and characterization of phosphorous(III) diisocyanate and
 triisocyanate.
;
_journal_issue                   9
_journal_name_full
'Dalton transactions (Cambridge, England : 2003)'
_journal_page_first              3299
_journal_page_last               3307
_journal_paper_doi               10.1039/d1dt00261a
_journal_volume                  50
_journal_year                    2021
_chemical_formula_moiety         'C2 Cl N2 O2 P'
_chemical_formula_sum            'C2 Cl N2 O2 P'
_chemical_formula_weight         150.46
_space_group_crystal_system      orthorhombic
_space_group_IT_number           62
_space_group_name_Hall           '-P 2ac 2n'
_space_group_name_H-M_alt        'P n m a'
_atom_sites_solution_primary     dual
_audit_creation_date             2020-01-07
_audit_creation_method
;
Olex2 1.3
(compiled Nov 21 2019 18:26:39 for OlexSys, GUI svn.r6003)
;
_audit_update_record
;
2021-01-14 deposited with the CCDC.	2021-02-09 downloaded from the CCDC.
;
_cell_angle_alpha                90
_cell_angle_beta                 90
_cell_angle_gamma                90
_cell_formula_units_Z            4
_cell_length_a                   7.2241(17)
_cell_length_b                   12.227(3)
_cell_length_c                   6.3593(10)
_cell_measurement_reflns_used    1660
_cell_measurement_temperature    150(2)
_cell_measurement_theta_max      29.1363
_cell_measurement_theta_min      3.2688
_cell_volume                     561.7(2)
_computing_cell_refinement
;
CrysAlisPro, Agilent Technologies,
Version 1.171.35.21 (release 20-01-2012 CrysAlis171 .NET)
(compiled Jan 23 2012,18:06:46)
;
_computing_data_collection
;
CrysAlisPro, Agilent Technologies,
Version 1.171.35.21 (release 20-01-2012 CrysAlis171 .NET)
(compiled Jan 23 2012,18:06:46)
;
_computing_data_reduction
;
CrysAlisPro, Agilent Technologies,
Version 1.171.35.21 (release 20-01-2012 CrysAlis171 .NET)
(compiled Jan 23 2012,18:06:46)
;
_computing_molecular_graphics    'Olex2 1.3 (Dolomanov et al., 2009)'
_computing_publication_material  'Olex2 1.3 (Dolomanov et al., 2009)'
_computing_structure_refinement  'SHELXL 2018/3 (Sheldrick, 2015)'
_computing_structure_solution    'SHELXT 2018/2 (Sheldrick, 2018)'
_diffrn_ambient_temperature      150(2)
_diffrn_detector_area_resol_mean 16.2705
_diffrn_measured_fraction_theta_full 0.994
_diffrn_measured_fraction_theta_max 0.915
_diffrn_measurement_details
;
#__ type_ start__ end____ width___ exp.time_
  1 omega   -4.00   22.00   0.2500   60.0000
omega____ theta____ kappa____ phi______ frames
    -       17.9787   77.0000 -180.0000 104

#__ type_ start__ end____ width___ exp.time_
  2 omega   -7.00   21.00   0.2500   60.0000
omega____ theta____ kappa____ phi______ frames
    -       17.9787   77.0000   60.0000 112

#__ type_ start__ end____ width___ exp.time_
  3 omega  -11.00   64.00   0.2500   60.0000
omega____ theta____ kappa____ phi______ frames
    -       17.9787   77.0000 -150.0000 300

#__ type_ start__ end____ width___ exp.time_
  4 omega  -41.00   49.00   0.2500   60.0000
omega____ theta____ kappa____ phi______ frames
    -      -19.5412   77.0000   60.0000 360

#__ type_ start__ end____ width___ exp.time_
  5 omega  -25.00   42.00   0.2500   60.0000
omega____ theta____ kappa____ phi______ frames
    -      -19.5412   77.0000 -180.0000 268

#__ type_ start__ end____ width___ exp.time_
  6 omega  -48.00  -27.00   0.2500   60.0000
omega____ theta____ kappa____ phi______ frames
    -      -19.5412   77.0000  -60.0000 84
;
_diffrn_measurement_device_type  'Xcalibur, Eos, Gemini ultra'
_diffrn_measurement_method       '\w scans'
_diffrn_orient_matrix_UB_11      0.0792733000
_diffrn_orient_matrix_UB_12      -0.0335013000
_diffrn_orient_matrix_UB_13      0.0130654000
_diffrn_orient_matrix_UB_21      -0.0580040000
_diffrn_orient_matrix_UB_22      -0.0442050000
_diffrn_orient_matrix_UB_23      0.0294215000
_diffrn_orient_matrix_UB_31      -0.0061975000
_diffrn_orient_matrix_UB_32      -0.0162902000
_diffrn_orient_matrix_UB_33      -0.1069139000
_diffrn_radiation_monochromator  graphite
_diffrn_radiation_type           MoK\a
_diffrn_radiation_wavelength     0.71073
_diffrn_reflns_av_R_equivalents  0.0490
_diffrn_reflns_av_unetI/netI     0.0304
_diffrn_reflns_Laue_measured_fraction_full 0.994
_diffrn_reflns_Laue_measured_fraction_max 0.915
_diffrn_reflns_limit_h_max       9
_diffrn_reflns_limit_h_min       -9
_diffrn_reflns_limit_k_max       14
_diffrn_reflns_limit_k_min       -16
_diffrn_reflns_limit_l_max       8
_diffrn_reflns_limit_l_min       -8
_diffrn_reflns_number            2888
_diffrn_reflns_point_group_measured_fraction_full 0.994
_diffrn_reflns_point_group_measured_fraction_max 0.915
_diffrn_reflns_theta_full        25.242
_diffrn_reflns_theta_max         28.840
_diffrn_reflns_theta_min         3.332
_diffrn_source                   'Enhance (Mo) X-ray Source'
_exptl_absorpt_coefficient_mu    0.865
_exptl_absorpt_correction_T_max  0.825
_exptl_absorpt_correction_T_min  0.737
_exptl_absorpt_correction_type   analytical
_exptl_absorpt_process_details
;
CrysAlisPro, Agilent Technologies,
Version 1.171.35.21 (release 20-01-2012 CrysAlis171 .NET)
(compiled Jan 23 2012,18:06:46)
Analytical numeric absorption correction using a multifaceted crystal
			model based on expressions derived by R.C. Clark & J.S. Reid.
(Clark, R. C. & Reid, J. S. (1995). Acta Cryst. A51, 887-897)
;
_exptl_crystal_density_diffrn    1.779
_exptl_crystal_density_method    'not measured'
_exptl_crystal_description       needle
_exptl_crystal_F_000             296
_exptl_crystal_size_max          0.4715
_exptl_crystal_size_mid          0.3683
_exptl_crystal_size_min          0.3333
_refine_diff_density_max         0.366
_refine_diff_density_min         -0.636
_refine_diff_density_rms         0.074
_refine_ls_extinction_method     none
_refine_ls_goodness_of_fit_ref   1.057
_refine_ls_hydrogen_treatment    undef
_refine_ls_matrix_type           full
_refine_ls_number_parameters     40
_refine_ls_number_reflns         704
_refine_ls_number_restraints     0
_refine_ls_restrained_S_all      1.057
_refine_ls_R_factor_all          0.0412
_refine_ls_R_factor_gt           0.0329
_refine_ls_shift/su_max          0.000
_refine_ls_shift/su_mean         0.000
_refine_ls_structure_factor_coef Fsqd
_refine_ls_weighting_details
'w=1/[\s^2^(Fo^2^)+(0.0549P)^2^] where P=(Fo^2^+2Fc^2^)/3'
_refine_ls_weighting_scheme      calc
_refine_ls_wR_factor_gt          0.0850
_refine_ls_wR_factor_ref         0.0894
_reflns_Friedel_coverage         0.000
_reflns_number_gt                599
_reflns_number_total             704
_reflns_threshold_expression     'I > 2\s(I)'
_cod_data_source_file            d1dt00261a2.cif
_cod_data_source_block           exp_2547
_cod_depositor_comments
'Adding full bibliography for 7706596--7706597.cif.'
_cod_database_code               7706597
_shelx_shelxl_version_number     2018/3
_chemical_oxdiff_formula         'C2 N2 O2 P1 Cl1'
_chemical_oxdiff_usercomment     PCl(NCO)2
_shelx_space_group_comment
;
The symmetry employed for this shelxl refinement is uniquely defined
by the following loop, which should always be used as a source of
symmetry information in preference to the above space-group names.
They are only intended as comments.
;
_reflns_odcompleteness_completeness 99.29
_reflns_odcompleteness_iscentric 1
_reflns_odcompleteness_theta     26.32
_olex2_refinement_description
;
;
_smtbx_masks_void_probe_radius   1.2
_smtbx_masks_void_truncation_radius 1.2
_shelx_res_file
;
TITL exp_2547_a.res in Pnma
    exp_2547.res
    created by SHELXL-2018/3 at 18:49:24 on 07-Jan-2020
REM Old TITL exp_2547 in Pnma
REM SHELXT solution in Pnma: R1 0.112, Rweak 0.469, Alpha 0.016
REM <I/s> 0.631 for 102 systematic absences, Orientation as input
REM Formula found by SHELXT: C2 N4 P Cl
CELL 0.71073 7.2241 12.2272 6.3593 90 90 90
ZERR 4 0.0017 0.0027 0.001 0 0 0
LATT 1
SYMM 0.5-X,-Y,0.5+Z
SYMM -X,0.5+Y,-Z
SYMM 0.5+X,0.5-Y,0.5-Z
SFAC C N O P Cl
UNIT 8 8 8 4 4

L.S. 20
PLAN  5
TEMP -123
CONF
list 4
MORE -1
fmap 2
acta
REM <olex2.extras>
REM <HklSrc "%exp_2547.hkl">
REM </olex2.extras>

WGHT    0.054900
FVAR       0.84220
P001  4    0.339042    0.250000    0.593665    10.50000    0.01957    0.02123 =
         0.02362    0.00000   -0.00127    0.00000
CL02  5    0.550394    0.250000    0.375152    10.50000    0.04536    0.05095 =
         0.03945    0.00000    0.02068    0.00000
O003  3    0.297986    0.515005    0.893577    11.00000    0.05376    0.03242 =
         0.05260   -0.01529    0.00329    0.00550
N004  2    0.418652    0.353261    0.747324    11.00000    0.02752    0.02428 =
         0.03540   -0.00272   -0.00467   -0.00023
C005  1    0.350466    0.434161    0.817852    11.00000    0.03315    0.02602 =
         0.02950   -0.00229   -0.00237   -0.00260
HKLF 4




REM  exp_2547_a.res in Pnma
REM wR2 = 0.0894, GooF = S = 1.057, Restrained GooF = 1.057 for all data
REM R1 = 0.0329 for 599 Fo > 4sig(Fo) and 0.0412 for all 704 data
REM 40 parameters refined using 0 restraints

END

WGHT      0.0549      0.0000

REM Highest difference peak  0.366,  deepest hole -0.636,  1-sigma level  0.074
Q1    1   0.3342  0.3254  0.6120  11.00000  0.05    0.37
Q2    1   0.5548  0.3235  0.3797  11.00000  0.05    0.33
Q3    1   0.2579  0.2500  0.4946  10.50000  0.05    0.30
Q4    1   0.4223  0.2954  0.7275  11.00000  0.05    0.29
Q5    1   0.4153  0.3054  0.4417  11.00000  0.05    0.24
;
_shelx_res_checksum              63563
_shelx_hkl_file
;
   0   0   2  863.75   12.03
   0   0  -2  877.04   13.06
   0   0   2  873.05   12.98
   0   0   2  853.79   11.26
   0   0  -2  834.98   12.38
   0   0  -3   -1.77    1.54
   0   0   3    2.14    1.78
   0   0   3    2.57    1.62
   0   0   3   -0.06    0.86
   0   0  -3    1.60    1.44
   0   0   3    0.49    1.02
   0   0   4 1895.67   23.30
   0   0   4 1812.47   22.82
   0   0   5    0.40    1.57
   0   0  -5   -1.54    2.13
   0   0   5    0.42    1.69
   0   0   6  445.43   14.86
   0   0  -6  454.84   17.13
   0   0   6  431.00   13.26
   0   0   7    8.36    2.82
   0   0   8   54.80    5.28
   0   1  -1 1016.42   10.31
   0  -1  -1  997.80   10.81
   0  -1   2    5.12    1.37
   0   1   2    8.05    2.07
   0  -1   2    3.84    1.44
   0   1   2    3.80    1.81
   0  -1  -2    4.01    1.76
   0   1  -3  258.01    8.17
   0  -1   3  296.50    7.99
   0  -1   3  292.32    7.47
   0   1   3  306.83    9.27
   0  -1   3  311.04    8.31
   0   1  -3  292.94    8.63
   0  -1  -3  271.32    8.17
   0  -1  -4    8.45    2.76
   0   1  -5  469.95   15.64
   0  -1  -5  541.46   15.76
   0   1   5  508.23   14.28
   0   1  -5  568.42   17.07
   0   1   5  551.29   14.74
   0  -1   5  582.74   13.96
   0   1   6   -0.50    1.82
   0   1   6    2.56    1.94
   0   1  -6    0.31    2.35
   0  -1  -6    0.74    2.60
   0  -1   6   -0.37    1.53
   0  -1   7   26.00    3.62
   0   1   7   23.01    3.68
   0   1   7   24.66    4.29
   0   1   8   -1.30    2.10
   0  -1   8   10.16    4.48
   0  -2   0 1259.79   13.72
   0  -2  -1    0.18    0.69
   0   2  -1    2.98    0.92
   0   2  -2   57.97    3.06
   0  -2  -2   63.87    3.30
   0   2  -2   53.23    2.98
   0   2  -2   43.52    2.95
   0   2  -2   63.74    3.18
   0  -2  -2   52.63    3.36
   0  -2   2   64.29    3.38
   0  -2   3   -2.61    1.55
   0   2  -3    0.28    1.77
   0  -2  -3   -3.02    1.86
   0  -2   3   -1.96    1.20
   0   2  -3   -1.85    1.41
   0   2  -3    1.62    2.73
   0  -2  -3   -1.54    1.26
   0  -2  -4  340.92   10.30
   0  -2   4  363.45    9.40
   0   2  -4  377.27   12.03
   0   2  -4  341.13   10.41
   0   2   4  375.54   12.18
   0  -2   5    0.69    1.31
   0   2   5   -1.76    2.06
   0  -2  -5   -1.31    1.93
   0   2  -5    1.82    1.83
   0   2   5   -3.04    2.09
   0   2  -6  260.05   13.44
   0  -2   6  248.86   10.06
   0   2   6  231.51   10.78
   0   2   6  246.48   10.84
   0  -2  -6  299.73   14.06
   0   2   7    2.84    2.99
   0   2   7    4.27    2.53
   0  -2   7    1.70    2.11
   0  -2   8   68.14    6.46
   0   2   8   72.59    9.18
   0   2   8   61.93    5.90
   0  -3   0    2.53    2.07
   0   3  -1 1402.39   13.89
   0  -3  -1 1463.60    8.24
   0  -3  -1 1509.06   17.87
   0  -3  -1 1427.44   17.35
   0  -3  -2   -0.63    0.87
   0  -3  -2   -0.86    1.23
   0   3  -3  535.13   12.36
   0   3  -3  540.27   11.01
   0  -3  -3  564.99   13.65
   0  -3   3  605.11   11.47
   0  -3  -3  560.04   10.63
   0   3  -4    8.25    2.80
   0  -3   4    8.28    2.28
   0   3  -4    4.05    2.06
   0  -3  -5  217.10    9.97
   0  -3   5  201.78    8.34
   0   3   5  213.69   10.77
   0   3  -5  194.45   10.45
   0   3  -5  186.36    9.06
   0   3  -6    0.21    2.59
   0  -3   6    0.50    1.66
   0  -3  -6   -0.88    2.06
   0   3   6    3.51    2.40
   0   3   6    5.06    2.38
   0   3  -6    0.28    1.94
   0  -3   7   50.77    5.23
   0   3   7   51.91    7.23
   0   3   7   54.92    5.86
   0   3   7   55.56    6.32
   0   3   8   -2.80    3.69
   0  -3   8   -3.60    2.94
   0  -4   0 6355.97   43.38
   0   4  -1   -1.34    1.53
   0  -4  -1    0.40    1.31
   0   4  -1   -0.99    0.99
   0  -4  -1    0.36    1.82
   0   4  -2 1799.00   18.85
   0   4  -2 1631.07   18.25
   0  -4  -2 1721.43   22.57
   0  -4  -2 1732.41   13.28
   0  -4  -3   -1.06    1.09
   0   4   3   -1.53    2.00
   0   4  -3   -0.23    1.31
   0  -4  -3   -0.66    1.47
   0   4   4 3345.03   43.93
   0   4  -4 3242.10   32.64
   0   4  -4 3299.15   37.79
   0  -4  -4 3456.77   39.79
   0  -4   4 3415.88   33.76
   0  -4  -4 3479.42   32.00
   0   4  -5    7.49    3.39
   0   4  -5    2.53    2.03
   0  -4   5    0.85    1.76
   0   4  -6  164.31   11.20
   0   4   6  147.11    9.64
   0  -4   6  149.83    8.73
   0   4   6  158.95   11.99
   0   4  -6  142.62    9.11
   0   4   7   -1.28    2.77
   0   4   7   -2.44    3.75
   0   4   7    5.11    3.65
   0  -4   7   -1.90    2.74
   0  -4   8   12.55    3.79
   0   4   8   12.73    4.92
   0  -5   0    0.74    1.79
   0  -5  -1  705.37   15.21
   0   5  -1  776.31   11.15
   0  -5  -2    1.46    1.69
   0   5  -2    0.52    1.35
   0  -5  -2    1.68    0.99
   0  -5   3  231.76   11.31
   0  -5  -3  202.00    6.16
   0   5  -3  191.77    8.20
   0   5   3  156.71    8.94
   0   5  -3  200.68    7.80
   0  -5  -3  172.29    8.40
   0   5  -4   -3.69    2.05
   0  -5   4    0.43    2.28
   0   5  -4   -2.85    1.80
   0   5   4   -1.53    2.16
   0  -5  -4   -0.65    1.60
   0  -5  -4   -1.51    1.50
   0  -5  -5    9.99    2.90
   0  -5   5    9.09    2.84
   0   5   5    7.55    3.22
   0  -5  -5    7.95    2.23
   0   5  -5   14.65    3.65
   0  -5   6    1.44    2.32
   0   5   6   -2.67    2.49
   0   5   6   -0.77    2.87
   0   5  -6   -1.54    2.85
   0   5  -6    3.04    2.16
   0   5   7   41.21    5.47
   0  -5   7   40.91    5.71
   0   5   7   40.09    7.12
   0   5   7   36.70    5.35
   0   5   8   -0.59    3.57
   0  -5   8   -4.46    3.47
   0  -6   0  847.38   19.41
   0  -6  -1    4.24    2.65
   0  -6  -3   -0.63    2.02
   0   6   3   -5.01    3.23
   0  -6   3   -3.52    2.94
   0   6  -3   -3.47    1.97
   0   6  -3   -1.10    1.36
   0   6  -4  984.55   22.13
   0   6  -4  859.42   17.92
   0   6   4  835.57   24.74
   0  -6  -4  860.10   20.90
   0  -6   4  947.65   24.02
   0  -6   5    0.36    2.94
   0   6   5   -1.84    2.90
   0   6  -5   10.58    3.21
   0  -6  -5   -0.35    2.07
   0   6  -5   10.39    4.08
   0   6   6   -0.92    3.06
   0  -6   6    4.57    4.08
   0   6  -6    2.03    2.08
   0   6   7    2.65    2.78
   0  -6   7   -0.53    4.27
   0   6   7   -5.28    4.51
   0  -7   0    0.68    2.17
   0  -7  -1   -2.15    1.98
   0  -7   1   15.88    4.38
   0  -7  -2   -1.53    2.19
   0  -7  -3  319.55   13.37
   0   7  -3  341.29   11.25
   0   7  -3  321.62   10.90
   0   7   3  300.60   15.51
   0  -7  -5   67.45    7.00
   0   7   5   55.81    7.65
   0   7  -5   59.25    5.13
   0  -7   5   57.56    7.70
   0   7  -6   -0.51    1.88
   0   7   6   -0.63    3.91
   0  -7   6    1.48    4.35
   0   7   7   28.77    6.92
   0  -7   7   43.69    8.06
   0   7   7   28.75    5.20
   0  -8   0 2640.20   36.06
   0  -8   1    1.88    2.69
   0  -8  -1    0.96    2.24
   0  -8   2  189.78   12.69
   0  -8  -2  161.53    9.03
   0   8   3    3.56    3.65
   0  -8   3   -4.58    6.12
   0  -8   3   -1.86    3.91
   0  -8  -3   -1.28    2.00
   0   8  -3    0.99    1.58
   0   8  -4  584.21   16.27
   0  -8  -4  607.94   20.00
   0   8   4  557.26   23.39
   0  -8  -5    3.60    4.01
   0   8  -5    0.30    1.55
   0  -8   5   -4.56    5.33
   0   8   5   -2.66    4.01
   0   8   6  386.17   22.36
   0  -8  -6  440.38   18.79
   0  -8   6  384.52   23.23
   0   8   7   -1.99    4.50
   0  -8   7  -13.60    7.28
   0  -9   0   -1.68    2.24
   0  -9   1    2.69    2.64
   0  -9  -1    1.75    2.49
   0  -9   2    0.01    3.15
   0  -9  -2   -1.81    2.40
   0  -9   3   45.76    8.11
   0  -9  -3   34.39    5.11
   0  -9   4   -3.46    6.66
   0  -9   4   -4.08    4.64
   0   9  -4    0.23    1.85
   0   9   4   -2.17    4.17
   0  -9  -4   -2.14    2.40
   0  -9  -5  324.13   15.37
   0   9   5  307.24   20.34
   0   9  -5  320.60   13.41
   0  -9   5  368.62   28.04
   0  -9   5  373.07   22.47
   0  -9  -6    1.38    2.54
   0  -9   6   -2.09    5.58
   0   9   6   -1.36    4.23
   0 -10   0 1746.05   34.48
   0 -10   1   10.03    4.47
   0 -10   2   70.53    8.46
   0 -10  -2   71.36    6.99
   0 -10  -3   -1.13    2.59
   0 -10   3   -0.34    4.04
   0  10  -4   94.17    7.47
   0 -10  -4   93.28    8.65
   0 -10  -5   -0.69    2.48
   0  10  -5    1.06    2.43
   0 -10   5   -0.09    4.50
   0 -10  -6   88.63    9.24
   0  10   6   74.29   11.73
   0 -10   6   56.38   13.86
   0 -11   0   -3.84    3.28
   0 -11   1  377.94   17.21
   0 -11  -1  415.85   17.44
   0 -11  -2   -2.66    2.84
   0 -11   2   -3.89    3.69
   0 -11  -3   40.45    5.99
   0 -11   3   37.24    7.25
   0 -11  -4   -2.57    3.08
   0  11  -4    1.39    2.22
   0 -11   4    1.35    5.23
   0 -11  -5   34.42    6.06
   0 -11   5   29.91    8.40
   0  11  -5   28.70    4.65
   0 -12   0  992.68   28.76
   0 -12   1    0.15    2.72
   0 -12  -1   -3.33    3.37
   0 -12  -2   41.44    6.14
   0 -12   2   39.06    7.20
   0 -12   3    5.38    4.90
   0 -12  -3    1.03    2.65
   0  12  -4  236.62   12.51
   0 -12  -4  272.02   15.96
   0 -12   4  268.70   19.32
   0 -13   0    0.79    3.43
   0 -13   1  111.33   10.47
   0 -13  -1  113.34   10.29
   0 -13  -2    1.76    2.72
   0 -13   2    0.57    3.22
   0 -13  -3   50.29    7.14
   0 -13   3   53.93    8.78
   0 -13   4   -5.23    5.64
   0  13  -4   -1.05    2.32
   0 -13  -4    5.57    3.97
   0 -14   0   42.99    7.09
   0 -14   1   -5.00    4.54
   0 -14  -1    2.29    4.00
   0 -14   2  131.24   12.12
   0 -14  -2  143.24   11.67
   0 -14   3    4.69    5.12
   0 -14  -3   -0.91    3.05
   0  14  -4  179.35   12.14
   0 -14   4  223.21   18.22
   0 -15   0   -3.41    3.89
   0 -15  -1   -2.79    3.53
   0 -15   1    0.10    3.46
   0 -15   2   -1.02    3.62
   0 -15   3  164.64   14.09
  -1   0  -1 1160.91   11.77
   1   0   2   99.06    3.73
  -1   0   2   76.13    2.84
  -1   0  -2   93.21    4.85
   1   0  -2   69.13    3.37
  -1   0   2   83.54    2.75
  -1   0  -3  147.53    7.26
   1   0   3  157.04    5.87
  -1   0   3  133.05    4.69
   1   0   3  158.21    7.05
  -1   0   3  134.39    4.82
  -1   0   3  126.36    4.33
   1   0   3  137.12    6.25
  -1   0   4  385.92   10.09
   1   0   4  370.09   11.53
  -1   0   4  330.84    8.55
   1   0   4  365.41   11.79
  -1   0  -4  330.56   13.58
  -1   0   4  355.80    8.72
  -1   0   5  542.00   13.21
  -1   0   5  588.41   12.86
   1   0  -5  561.59   17.89
   1   0   5  504.70   15.03
   1   0   5  485.73   14.52
  -1   0   6   57.85    5.00
   1   0   6   54.19    5.81
   1   0  -6   41.43    4.98
  -1   0   6   50.71    4.26
   1   0   6   51.53    5.17
  -1   0   7    6.21    2.20
   1   0   7    7.36    2.75
   1   0  -7    7.08    3.34
   1   0  -8   69.59    8.95
   1   0   8   62.04    6.33
   1  -1   0    2.95    0.76
  -1   1   0    1.18    0.43
   1   1  -1  288.31    4.66
  -1  -1  -1  296.49    5.68
  -1   1  -1  331.57    6.46
   1   1   1  328.80    6.94
  -1   1  -1  330.36    6.96
  -1  -1   1  296.70    8.09
  -1  -1  -1  308.24    8.13
  -1   1  -1  305.67    6.32
  -1  -1  -1  306.21    5.72
  -1   1  -2  611.47   12.96
   1   1   2  544.13    9.93
   1   1  -2  562.75    7.48
  -1  -1   2  538.82    7.21
  -1  -1  -2  567.39   13.33
   1   1   2  521.45    8.75
  -1  -1   2  545.43    6.74
  -1  -1  -2  543.95    9.54
  -1   1  -2  587.53   10.50
   1   1  -2  571.30    8.16
  -1   1   2  462.85    8.63
   1  -1   2  604.48    8.11
   1   1   2  547.73    9.56
  -1   1  -2  543.56   10.52
   1  -1   3   20.97    2.51
   1  -1   3   19.03    2.17
  -1   1   3   14.49    2.21
  -1  -1   3   21.87    1.91
   1   1   3   17.83    2.69
   1   1  -3   16.59    2.62
   1   1   3   16.92    2.32
   1   1  -3   16.13    2.11
  -1  -1   3   22.01    2.07
   1   1   3   17.25    2.29
  -1  -1  -3   20.12    2.34
  -1   1  -3   21.43    2.71
  -1   1   3   17.80    2.15
  -1  -1   4  121.79    4.95
   1  -1   4  135.27    6.77
  -1   1   4  123.36    5.52
   1   1   4  161.04    9.16
  -1  -1   4  134.95    5.62
   1   1   4  148.26    8.06
  -1   1  -4  141.76    8.21
   1  -1   4  135.70    7.27
  -1  -1   5  200.95    7.32
   1  -1  -5  220.06   11.05
   1   1  -5  217.17   11.41
   1  -1   5  238.33   10.38
  -1   1   5  206.18    7.81
  -1   1   5  185.25    7.95
   1   1   5  204.29    9.73
   1   1   5  210.93   10.17
   1  -1   5  207.42    9.03
  -1   1  -5  184.73   10.32
  -1   1   6   72.76    4.97
   1   1   6   71.93    6.62
   1   1   6   70.62    6.28
   1   1  -6   61.67    6.11
   1  -1   6   68.79    5.72
  -1  -1   6   76.84    5.37
  -1   1   6   65.70    5.42
   1  -1  -6   64.24    6.08
   1   1   7   42.97    5.18
   1   1   7   45.54    6.26
   1   1  -7   47.26    6.57
   1  -1  -7   40.72    5.90
   1   1   7   44.20    5.71
  -1  -1   7   39.42    4.18
  -1   1   7   44.81    4.42
   1  -1   7   45.02    5.12
   1  -1   8   29.97    4.38
   1   1   8   29.00    4.49
   1  -1  -8   35.21    6.77
  -1   2   0    0.41    0.48
   1  -2   0    0.68    0.68
   1   2  -1 3845.76   26.19
   1  -2   1 3931.67   20.74
  -1   2  -1 4076.44   25.34
   1   2  -2 6194.76   24.54
  -1   2  -2 6423.56   36.19
   1   2   2 5983.29   28.60
   1   2  -2 6398.55   26.82
  -1   2  -2 5787.12   34.04
   1   2  -2 5997.08   23.65
  -1  -2  -2 6132.10   34.50
   1   2   2 6169.30   38.84
   1   2   2 6102.50   37.74
  -1  -2   2 6363.47   33.76
   1  -2  -2 6071.73   39.71
  -1  -2  -3  981.90   16.12
   1   2   3  991.04   18.00
   1   2  -3  880.10   10.79
  -1  -2   3  969.60   12.10
   1   2  -3  931.96   12.52
  -1  -2   3 1032.90   14.07
  -1   2  -3  981.11   16.61
  -1   2  -4  245.32    9.96
  -1  -2   4  237.13    7.36
   1  -2   4  256.74    9.18
  -1   2   4  241.47    8.92
   1   2   4  253.87   11.23
   1   2   4  264.72   10.65
  -1  -2   4  254.22    7.66
   1   2  -4  209.16    7.78
  -1  -2   5  376.45   10.18
   1   2   5  456.18   16.53
  -1   2  -5  421.10   15.63
   1   2   5  425.50   14.60
   1  -2  -5  450.93   15.41
   1   2  -5  425.83   15.79
   1  -2   5  447.81   13.00
  -1   2   5  396.29   11.42
   1   2   5  468.24   16.00
   1  -2  -6  121.20    8.17
   1   2  -6  110.15    8.42
   1   2   6  121.62    8.47
   1   2   6  124.65    8.62
   1  -2   6  115.08    7.22
  -1  -2   6  121.57    6.70
  -1   2   6  134.59    7.11
   1   2   6  137.07    9.76
  -1   2   6  118.83    7.49
  -1   2  -6  108.69    8.77
   1  -2  -7    9.38    3.56
   1  -2   7    4.76    2.99
   1   2   7    4.25    2.48
  -1   2   7    4.50    1.99
  -1  -2   7    1.52    1.86
   1   2   7    0.52    2.35
   1   2   7    2.84    3.20
   1   2  -7    2.86    2.67
   1   2   8  113.62    9.61
   1  -2  -8  100.22    9.73
   1  -2   8  103.24    8.51
   1   2   8  104.92    8.27
  -1   3   0   -2.24    1.17
   1  -3   0   -0.05    0.95
   1   3  -1  305.52    9.49
   1  -3   1  286.62    7.36
  -1   3  -1  323.54    6.40
   1  -3  -1  252.45    7.48
  -1  -3  -1  320.46    9.32
  -1  -3  -1  271.69    7.88
   1   3  -2  152.45    4.71
   1  -3  -2  132.83    6.20
  -1   3  -2  148.94    5.93
  -1  -3  -2  161.09    6.45
  -1  -3   2  148.02    8.09
   1   3   2  137.41    6.81
   1   3   2  134.14    3.92
   1   3   2  128.30    6.44
   1   3  -2  133.96    4.27
  -1  -3  -2  142.13    5.78
  -1  -3  -3   44.24    3.91
   1  -3  -3   40.24    4.27
   1   3  -3   40.88    2.69
   1   3  -3   41.94    2.73
  -1   3  -3   41.02    3.44
  -1  -3   3   44.90    3.84
   1   3   3   41.80    4.12
   1   3   4    4.02    1.89
  -1  -3  -4    8.04    2.51
  -1   3  -4    5.21    1.80
   1  -3   4    7.17    1.97
   1   3  -4    7.59    1.76
   1   3  -4    6.66    2.45
  -1  -3   4    9.94    2.53
   1   3   5    7.36    3.23
   1   3  -5    8.32    2.39
  -1   3   5   11.38    3.13
   1   3  -5    2.94    2.11
   1   3   5   16.63    4.08
   1  -3  -5   14.80    3.55
   1  -3   5   10.97    2.54
  -1  -3   5   11.63    2.64
  -1   3  -5    9.22    2.65
   1   3   6  111.62    8.56
   1   3   6  121.46    9.47
  -1   3   6  108.36    6.78
   1   3  -6  119.25    9.01
  -1  -3   6  123.86    7.21
  -1   3  -6   97.38    7.89
   1  -3  -6  101.03    7.36
   1   3   6  110.81    9.04
  -1   3   6   94.37    6.73
   1  -3   6  117.34    7.69
   1   3   7   56.18    6.48
   1  -3  -7   54.72    6.46
   1   3   7   56.54    7.48
   1   3   7   57.14    6.39
  -1  -3   7   55.43    6.02
  -1   3   7   43.17    4.44
   1  -3   7   60.35    6.16
   1   3  -7   76.62    8.77
  -1   3  -7   45.46    6.62
   1   3   8   14.81    3.74
   1  -3  -8   11.92    3.99
   1  -3   8   13.18    3.62
   1   3   8   12.63    4.05
  -1  -4   0   -3.40    2.75
  -1   4   0   -0.62    1.33
  -1   4  -1  956.79   12.10
   1  -4  -1  836.68   14.40
   1  -4   1  907.15   14.91
   1  -4  -2   80.54    5.37
  -1  -4   2   43.00    7.42
   1   4   2   78.56    3.15
   1  -4   2   73.54    5.24
  -1   4  -2   78.52    4.57
   1  -4  -3  267.26   10.97
   1   4   3  258.78   11.02
   1   4  -3  276.19    7.55
  -1  -4  -3  293.31   10.61
  -1   4  -3  320.34   10.63
  -1  -4   3  271.74   11.24
  -1   4  -4   58.60    5.01
   1   4  -4   53.22    3.74
   1   4   4   55.30    5.67
  -1  -4   4   54.37    5.25
   1  -4   4   59.21    4.43
   1   4  -4   65.43    6.16
  -1  -4  -4   58.72    5.02
   1  -4   5  283.26   10.36
   1   4   5  262.76   13.20
  -1  -4  -5  331.56   12.99
  -1   4   5  283.95   11.24
   1   4  -5  219.07    8.40
  -1   4  -5  263.23   11.17
  -1  -4   5  292.33   11.57
   1   4  -5  274.65   12.69
   1  -4  -5  281.12   11.35
   1   4   6   20.30    4.70
   1  -4   6   19.80    3.87
   1   4  -6   22.46    4.69
  -1   4  -6   24.17    4.72
   1  -4  -6   21.77    3.72
   1   4   6   25.57    4.43
  -1   4   6   17.29    3.15
  -1  -4   6   28.47    4.99
   1   4   6   20.25    5.21
   1  -4  -7    8.74    3.38
   1   4   7    8.76    4.12
  -1   4  -7    8.38    3.27
   1  -4   7    8.99    3.00
   1   4  -7    9.20    3.67
   1   4   7   14.67    4.21
  -1   4   7   13.78    4.98
  -1  -4   7    8.34    3.37
   1   4   7   16.60    4.28
   1   4   8   32.95    5.23
   1   4   8   26.69    5.26
  -1   4   8   29.01    6.43
   1  -4   8   34.10    5.55
   1  -5   1  297.93    6.98
  -1  -5  -1  293.01   10.13
   1  -5  -1  309.16    9.51
  -1  -5   1  315.76   13.57
   1  -5   1  352.51   10.74
  -1  -5  -2  235.04    9.41
   1  -5  -2  245.03    9.75
  -1  -5  -3   25.81    3.71
   1  -5  -3   15.27    3.29
   1   5  -3   18.07    2.30
  -1  -5   3    5.68    3.27
   1   5  -3   15.71    2.79
   1   5   3   22.95    4.66
  -1   5  -3   18.28    2.79
   1  -5  -4  217.24   11.14
   1   5  -4  205.72   10.37
  -1  -5   4  189.37   11.03
   1  -5  -4  200.11    8.03
   1   5  -4  172.25    6.69
  -1  -5  -4  202.35    9.76
  -1   5   4  183.75   11.23
   1  -5   4  215.67    9.36
   1   5   4  245.27   13.84
  -1   5  -4  178.34    8.37
  -1   5   5  310.18   15.92
  -1  -5  -5  361.27   14.16
  -1   5  -5  299.79   11.72
   1   5  -5  286.88   12.44
  -1  -5   5  331.54   14.53
   1   5  -5  285.69    9.74
   1  -5   5  342.67   12.76
   1   5   5  303.31   15.04
   1  -5  -5  316.02   11.19
   1   5   6   24.66    6.03
  -1   5   6   20.64    4.35
  -1  -5   6    7.60    3.20
  -1   5  -6   16.74    3.50
   1  -5   6   11.58    3.20
   1   5  -6   14.40    4.38
   1   5   6   17.57    4.68
  -1   5   6   12.63    5.06
   1   5  -7   19.69    5.03
   1   5   7   19.54    4.57
  -1  -5   7   18.63    4.77
   1  -5  -7   25.23    4.97
   1   5   7   19.65    5.34
   1  -5   7   20.94    4.27
   1   5   7   21.79    5.19
  -1   5   7   23.32    6.12
  -1   5  -7   16.26    3.95
   1   5   8   21.46    4.44
   1   5   8   21.04    4.74
  -1  -6   0    1.25    2.41
   1  -6   0   -0.87    1.42
   1  -6  -1  911.63   17.54
  -1  -6   1 1043.06   26.06
  -1  -6  -1  859.41   19.19
   1  -6  -2 1339.60   24.22
  -1  -6  -2 1332.56   23.96
   1  -6   2 1406.64   25.77
  -1  -6  -3  117.93    7.32
   1  -6  -3  105.37    7.05
   1  -6   3  104.62    7.36
  -1   6   3  101.98    8.01
   1   6   3  105.61    8.97
   1   6  -3  137.71    7.71
   1   6  -3  119.45    5.75
  -1   6  -3  123.26    7.43
  -1  -6   3   93.36   13.20
   1  -6   3  121.19    8.81
  -1  -6  -4  541.72   16.83
   1   6  -4  483.81   12.09
   1  -6  -4  539.17   17.68
  -1   6   4  477.38   18.80
   1   6  -4  508.53   15.56
  -1   6  -4  503.41   14.66
  -1  -6   4  404.00   18.80
   1  -6   4  542.19   16.13
   1  -6  -4  601.93   14.05
   1   6   4  505.39   19.79
  -1  -6  -5  461.16   16.30
   1   6  -5  399.08   11.89
   1   6  -5  412.83   15.45
  -1   6   5  440.77   19.84
  -1   6  -5  445.30   15.14
   1  -6   5  477.47   16.01
   1  -6  -5  415.41   12.24
   1   6   5  452.80   20.19
  -1  -6   5  398.18   19.22
  -1   6   6  122.02   11.51
  -1  -6  -6  156.79   10.61
   1  -6  -6  137.25    8.38
   1   6  -6  124.42    9.85
  -1  -6   6  118.11   10.97
   1  -6   6  124.52    8.98
  -1   6  -6  111.46    8.24
  -1   6   6  116.14    8.17
   1   6   6  142.84   12.43
  -1  -6   7    1.63    3.63
  -1   6   7    7.44    4.68
   1   6  -7    2.41    4.14
   1   6   7   -1.14    4.07
   1  -6   7   -1.24    3.02
   1   6   7   -5.69    4.37
   1   6   8   77.48    9.00
   1   6   8   75.18    8.37
   1   7   0    0.30    0.56
   1  -7   0   -0.15    0.80
   1  -7   0   -0.31    1.59
  -1  -7  -1   17.82    3.69
   1  -7  -1   20.03    3.98
   1  -7  -2   99.78    7.08
   1   7  -2   92.78    5.44
  -1  -7   2  101.75    9.72
  -1  -7  -2   91.64    7.00
   1  -7   2  105.82    7.73
  -1   7   3    4.43    2.65
  -1   7  -3    8.54    2.40
   1  -7  -3   10.07    3.05
   1   7  -3    7.97    2.33
  -1  -7  -4   26.02    4.35
   1  -7   4   36.75    6.96
  -1   7   4   39.04    7.02
   1   7   4   17.66    4.92
   1  -7   4   26.95    5.29
  -1   7  -4   26.92    4.16
   1  -7  -4   31.28    5.05
   1  -7  -4   37.50    3.88
  -1  -7  -5   24.10    4.36
  -1   7  -5   16.12    3.47
   1  -7   5   13.94    4.02
  -1   7   5   14.31    4.61
   1   7  -5   13.16    2.40
   1  -7  -5   14.62    2.68
   1   7  -5   13.45    3.56
  -1  -7   5    9.86    4.80
   1   7   5   19.78    5.99
   1  -7  -5   18.00    4.23
  -1   7   6   50.68    8.08
  -1   7  -6   48.36    5.50
  -1  -7  -6   78.41    8.47
   1   7   6   80.30   10.74
  -1  -7   6   47.13    9.12
   1  -7   6   57.95    7.40
   1   7  -6   54.81    7.36
   1   7   7   44.54    7.02
   1   7  -7   50.98    7.81
   1  -7   7   43.26    7.27
  -1   7   7   36.75    7.51
   1   7   7   59.21   10.36
  -1  -7   7   41.49    8.73
  -1  -8   0   -4.97    3.25
   1  -8   0   -0.98    1.72
   1  -8   0   -2.53    0.83
   1  -8  -1  483.55   14.80
  -1  -8  -1  473.14   16.62
   1   8  -1  453.05    8.85
   1  -8   1  487.21   15.01
   1  -8   1  451.42    9.56
  -1  -8   1  531.05   20.70
   1  -8  -2  314.43   12.73
  -1   8   2  295.75   15.48
   1   8  -2  349.91    9.81
   1  -8   2  304.73   20.48
  -1  -8  -2  324.21   13.41
  -1  -8   2  342.43   17.96
   1  -8   2  323.03   13.85
  -1   8   3  242.78   14.41
  -1  -8  -3  256.36   11.84
   1  -8  -3  258.98   12.29
  -1   8  -3  285.63   11.68
   1  -8   3  203.19   13.76
   1  -8   3  265.70   14.44
   1  -8  -3  235.75    5.81
   1   8  -3  253.61    9.75
  -1  -8  -4   -1.96    2.80
  -1   8   4    4.67    3.84
   1   8  -4    0.92    1.84
  -1   8  -4   -0.33    1.87
   1  -8  -4   -0.76    2.12
   1  -8   4    1.35    4.50
   1   8  -4    6.26    2.94
   1  -8   4   -1.18    3.59
  -1  -8   5   80.10   13.55
  -1   8   5   65.78    9.17
  -1   8  -5   65.51    6.25
  -1  -8  -5   87.53    7.96
   1  -8  -5   79.85    7.91
   1   8  -5   72.83    7.25
   1  -8   5   62.52    8.23
   1   8  -5   61.34    4.90
   1  -8   5   80.34    9.66
   1   8   5   73.09    9.86
   1   8   6    6.39    5.30
  -1   8   6    2.18    3.99
  -1  -8  -6    3.61    2.83
  -1   8  -6    2.92    2.50
   1   8  -6    2.39    3.21
   1  -8   6    5.77    5.66
  -1  -8   6    2.26    9.10
   1   8   7    5.65    5.48
  -1  -8   7   -9.66    9.52
  -1  -9   0   -0.31    2.80
   1  -9   0    0.13    1.98
  -1  -9   1  429.18   19.58
   1  -9   1  395.02   14.80
   1  -9  -1  379.84   14.06
   1   9  -1  445.26    9.79
  -1  -9  -1  385.12   15.93
   1  -9  -2   12.06    5.04
  -1  -9   2    7.28    5.03
   1   9  -2    0.84    1.45
   1  -9   2   -2.55    3.05
  -1  -9  -2   -1.52    2.55
   1  -9   3   82.42    9.04
   1  -9  -3   63.39    6.64
  -1   9  -3   62.88    5.96
  -1  -9   3   82.37   11.51
  -1  -9  -3   61.00    6.32
  -1   9   3   54.74    7.86
   1  -9   3   55.15   11.19
  -1   9   4   10.48    4.43
  -1  -9  -4   20.90    4.75
   1  -9   4   10.05    5.10
   1   9  -4   11.77    3.36
   1   9  -4   14.54    2.79
  -1   9  -4   13.60    3.82
   1  -9   4   10.55    4.43
   1  -9  -4   13.67    3.60
  -1   9   5   84.41   11.12
   1   9  -5  106.58    9.18
  -1  -9  -5  106.09    9.21
   1  -9  -5  128.07   10.89
  -1   9  -5   86.07    7.13
   1  -9   5   80.47   10.93
   1   9  -6   22.64    5.11
   1  -9   6   17.97    7.04
  -1   9   6   15.10    5.70
  -1   9  -6   16.74    3.73
  -1  -9  -6   18.60    4.50
   1  -9  -6   20.80    4.73
  -1  -9   7    0.10    7.81
  -1 -10   0    1.72    3.48
   1 -10   0   -1.91    2.63
   1 -10  -1  311.28   13.54
  -1 -10  -1  322.85   15.44
  -1 -10   1  333.41   18.36
   1 -10   1  317.66   14.26
   1  10  -2  452.20   12.14
   1 -10  -2  400.48   15.87
  -1 -10   2  412.83   21.38
   1 -10   2  423.86   17.79
  -1 -10  -2  421.77   17.30
   1 -10  -3   45.91    6.17
  -1  10  -3   49.08    5.47
   1  10  -3   58.53    5.55
  -1 -10   3   54.44    9.18
   1 -10   3   55.01    7.31
  -1 -10  -4  263.97   14.86
   1 -10   4  201.35   21.64
  -1  10  -4  221.27   12.08
   1 -10   4  253.24   16.37
   1  10  -4  287.79   13.44
  -1 -10   4  305.35   21.82
   1  10  -4  235.63   10.72
  -1  10   4  184.69   15.79
   1 -10  -4  205.02   12.46
   1 -10  -5  174.71   12.37
  -1 -10  -5  195.50   13.24
   1 -10   5  140.31   16.58
  -1 -10   5  160.08   16.40
  -1  10  -5  157.70   10.44
  -1  10   5  149.82   14.93
  -1 -10  -6   46.79    6.80
   1 -10  -6   48.91    7.10
  -1  10   6   38.50    9.05
   1 -10   6   31.62    8.17
  -1  10  -6   39.38    5.49
   1 -11   0    0.92    2.44
  -1 -11   0   -2.34    3.04
  -1 -11  -1   -0.07    2.71
   1 -11   1    0.94    2.59
   1 -11  -1    3.68    3.70
  -1 -11  -2   60.67    7.26
   1 -11  -2   57.31    6.57
  -1 -11   2   57.71    8.91
   1 -11   2   51.94    6.33
  -1 -11  -3   86.28    8.33
  -1  11  -3   56.80    6.30
   1 -11   3   66.78    8.57
   1 -11  -3   67.80    7.77
  -1 -11  -4   69.35    8.25
   1  11  -4   52.41    5.50
  -1  11  -4   64.23    7.31
   1 -11  -4   54.92    7.25
   1 -11   4   60.77    8.42
  -1 -11   4   51.56    9.69
  -1 -11  -5   53.09    7.54
   1 -11  -5   52.09    7.26
  -1 -11   5   43.14    9.73
   1 -11   5   26.89    9.90
  -1  11  -5   43.45    5.95
  -1  11   5   44.64    9.64
   1 -12   0   10.93    4.14
  -1 -12   0   -0.82    3.13
   1 -12  -1  135.80   10.04
  -1 -12   1  157.60   13.84
   1 -12   1  134.37   10.46
  -1 -12  -1  127.60   10.59
  -1 -12  -2  115.24   10.34
   1 -12  -2  135.16   10.47
   1 -12   2  108.93    9.75
  -1 -12   2  112.66   12.26
  -1 -12  -3   26.90    5.21
  -1  12  -3   26.38    4.62
   1 -12  -3   30.11    5.66
  -1 -12   3   28.81    7.51
   1 -12   3   31.19    6.18
  -1 -12  -4   46.48    7.14
   1  12  -4   29.08    4.53
   1 -12  -4   35.37    6.34
   1 -12   4   35.13    6.94
  -1  12  -4   35.83    5.84
  -1 -12   4   48.26   10.28
  -1 -12  -5   93.27    9.88
  -1  12  -5   74.73    7.92
  -1 -12   5  104.61   15.12
   1 -13   0   -1.27    2.94
  -1 -13   0   -1.92    3.35
   1 -13  -1  187.08   12.42
  -1 -13   1  198.72   14.66
   1 -13   1  191.89   12.80
  -1 -13  -1  208.06   14.27
   1 -13   2    4.94    3.51
   1 -13  -2    4.03    3.07
  -1 -13  -2    4.70    3.38
  -1 -13  -3   36.43    6.21
  -1 -13   3   38.12    8.37
   1 -13   3   35.57    6.24
  -1  13  -3   36.59    5.78
   1 -13  -3   44.87    7.10
   1 -13  -4    7.64    3.83
  -1 -13   4   11.04    6.35
  -1 -13  -4    9.67    3.97
  -1  13  -4    6.42    3.25
  -1 -13   5   45.22   10.20
  -1  13  -5   35.32    5.92
   1 -14   0    7.94    4.40
  -1 -14   0   -3.46    3.98
   1 -14  -1  111.91   10.16
  -1 -14   1  109.74   11.37
   1 -14   1  119.75   10.93
  -1 -14  -1  115.45   11.29
  -1 -14  -2  197.79   13.93
   1 -14  -2  199.71   13.87
   1 -14   2  211.52   14.72
  -1 -14   2  228.22   18.53
  -1 -14  -3   37.42    6.48
   1 -14  -3   35.67    6.72
   1 -14   3   35.05    6.88
  -1 -14   3   34.17    7.77
  -1  14  -3   34.87    5.80
  -1 -14   4   15.16    6.60
  -1  14  -4   15.82    4.36
  -1 -15   0   -4.17    4.13
   1 -15   0   -0.01    2.91
   1 -15   1    7.60    4.05
   1 -15  -1    6.31    3.52
  -1 -15   1    9.27    5.01
  -1 -15  -1    6.58    4.49
  -1 -15   2   -4.42    4.62
   1 -15   2    4.88    4.07
  -1 -15   3    8.36    5.73
   1 -16   1   31.45    6.74
   1 -16   2   28.36    6.39
  -2   0   0   24.39    2.05
  -2   0   0   27.33    2.36
  -2   0   1 9836.88   24.00
  -2   0   1 9999.00   24.55
  -2   0  -2  546.42    6.92
   2   0  -2  469.91    6.60
  -2   0   2  544.42    8.13
   2   0   2  503.69    8.59
   2   0   3  650.00   10.94
  -2   0   3  651.61    8.39
  -2   0   3  676.76    8.45
  -2   0   3  619.83    8.01
   2   0   3  660.40   10.83
   2   0   4   77.13    4.63
   2   0   4   98.99    7.39
   2   0   4   78.39    4.87
  -2   0   4   81.69    3.71
   2   0   4   80.83    6.12
  -2   0   4   84.23    3.82
  -2   0  -4   65.84    6.28
  -2   0   4   73.58    3.41
  -2   0   5    1.04    1.15
   2   0   5   -2.49    2.50
  -2   0   5    2.88    1.36
  -2   0  -5   -2.84    3.16
   2   0   5    4.68    2.40
   2   0   5    0.35    2.24
   2   0   6   29.35    4.80
   2   0   6   29.24    4.56
   2   0   6   30.69    4.43
   2   0  -6   23.46    4.39
  -2   0   6   23.82    2.62
   2   0   7  225.74   11.68
   2   0  -7  208.46   12.69
   2   0   8   43.97    5.84
   2  -1   0 1787.71   12.77
   2   1   0 1785.55   15.36
  -2   1   0 1767.56   15.59
  -2  -1   0 1803.39   16.81
  -2   1  -1  425.54    8.86
  -2   1  -1  414.41    9.01
  -2  -1  -1  415.80   10.06
  -2  -1  -1  411.61    9.38
  -2  -1  -2  258.28    5.96
  -2   1  -2  258.39    8.39
  -2  -1  -2  264.58    9.68
   2   1   2  242.31    7.44
  -2   1   2  210.23    2.80
   2   1  -2  227.51    4.05
   2  -1   3 1132.72   11.90
   2   1   3 1038.37   16.50
   2   1  -3  992.28   13.76
  -2  -1  -3 1071.92   14.69
  -2  -1   3  990.13    8.64
  -2  -1  -3 1103.39   23.50
  -2   1   3  978.83   14.61
  -2  -1   3 1030.19   13.50
   2   1   3 1027.48   15.74
  -2   1   3 1029.44    9.94
   2  -1   4   68.14    3.92
   2  -1   4   77.96    5.80
   2   1   4   68.65    6.13
  -2  -1   4   81.23    3.75
  -2   1  -4   65.88    6.39
  -2   1   4   55.85    3.66
  -2  -1  -4   54.19    6.39
   2  -1   4   72.80    5.96
  -2  -1   4   68.56    3.98
   2   1   4   68.48    5.59
   2   1   4   57.36    4.48
  -2   1   4   60.31    3.09
   2  -1   5  196.15    9.81
   2   1   5  202.03   10.96
   2   1   5  216.83   10.08
   2   1   5  179.75   10.13
  -2   1  -5  160.48   10.18
  -2   1   5  156.20    6.41
  -2  -1   5  176.60    6.95
  -2   1   5  160.15    5.75
   2  -1   6  159.18    8.93
   2   1   6  190.90   11.09
   2   1   6  202.23   10.89
   2   1   6  189.30   11.12
   2  -1  -6  145.65    9.75
  -2  -1   6  150.12    7.08
  -2   1   6  156.53    6.37
  -2   1  -6  155.99   11.55
   2   1  -6  177.06   12.08
   2   1   7   29.91    4.62
   2  -1  -7   25.56    4.86
   2   1   7   33.25    5.65
   2  -1   7   37.75    5.24
   2   1  -7   24.54    4.85
   2  -1   8   10.29    3.50
   2   1   8    9.51    3.34
  -2   2   0 3487.24   23.73
  -2   2  -1  187.92    6.37
  -2  -2  -1  189.77    7.42
  -2   2   1  168.09    2.61
  -2  -2  -2   64.92    3.74
  -2   2  -2   53.89    4.12
   2   2   2   81.76    5.72
  -2  -2  -2   63.37    3.71
   2   2  -2   53.94    2.60
  -2  -2  -3  551.78   11.58
   2  -2   3  554.34    8.22
  -2   2   3  472.72    8.05
   2   2   3  490.77   13.24
  -2   2  -3  515.53   13.45
  -2  -2   3  499.35   12.67
   2   2   3  482.02   12.06
   2   2  -3  510.91    8.98
   2  -2   4  348.23   11.17
  -2   2  -4  294.08   11.41
   2   2   4  313.48   11.20
  -2   2   4  302.84    7.36
   2  -2   4  335.89    8.23
  -2  -2  -4  356.23   11.04
   2   2   4  346.63   12.86
  -2  -2   4  312.48    9.50
   2   2   5   15.09    3.81
   2   2   5    8.52    2.76
  -2   2   5   10.87    1.82
   2  -2   5   18.16    3.28
   2   2   5   11.88    3.03
  -2   2  -5   18.59    4.38
   2   2   6   17.64    3.82
   2   2   6   21.00    4.30
   2  -2   6   21.36    3.71
   2  -2  -6   15.55    3.61
   2   2  -6   17.83    4.57
  -2  -2   6   24.41    3.70
  -2   2  -6   17.18    4.12
   2   2   6   15.62    3.72
  -2   2   6   16.83    2.84
  -2   2   6   17.64    2.44
   2  -2  -7  205.24   12.05
   2   2   7  254.36   13.56
   2  -2   7  238.56   11.86
   2   2   7  260.89   14.25
  -2   2  -7  215.48   14.43
   2   2  -7  212.40   12.91
   2   2   8   30.10    5.30
   2   2   8   31.21    6.23
   2  -2  -8   23.96    4.99
   2  -2   8   25.40    4.54
  -2   3   0  238.48    6.36
  -2   3   0  231.23    6.72
  -2   3   0  260.59    5.19
   2  -3   0  267.58    6.78
   2  -3   0  279.06    6.66
   2  -3   1 1097.29   10.50
  -2   3  -1 1176.15   14.32
   2  -3  -1 1200.91   17.49
  -2   3  -1 1190.85   17.11
  -2   3   1 1125.57   10.63
  -2   3  -1 1106.54   13.21
  -2  -3  -1 1161.06   19.97
  -2  -3  -2  766.36   14.20
   2   3   2  731.03   17.40
  -2   3  -2  733.66   15.12
   2   3  -2  683.66   10.72
  -2  -3  -2  736.37   13.89
  -2  -3  -3  631.94   13.44
  -2   3  -3  604.67   14.65
  -2  -3   3  520.59   16.78
   2   3   4   48.31    5.18
  -2   3  -4   47.75    4.76
  -2  -3  -4   45.53    4.03
   2  -3   4   51.13    3.38
  -2  -3   4   37.19    4.58
   2  -3   4   51.48    4.39
   2   3  -4   39.32    2.94
   2   3   5   36.33    5.03
  -2   3   5   44.30    3.66
  -2  -3  -5   37.94    4.34
   2   3   5   42.18    5.58
   2   3   5   37.86    5.07
  -2   3  -5   45.87    5.75
  -2  -3   5   30.49    4.28
   2  -3   5   57.88    5.23
  -2   3   6  151.03    6.60
   2   3   6  178.19   12.15
   2  -3  -6  156.70   10.12
   2   3  -6  183.32   12.17
  -2  -3   6  169.31   10.15
   2   3   6  161.60   10.96
   2   3   6  166.42   10.81
   2   3  -7   95.03    8.57
   2   3   7  131.00   10.18
   2  -3  -7  105.28    8.56
   2   3   7  118.08    9.70
  -2   3  -7  105.85    9.99
   2  -3   7  122.60    8.81
   2   3   8    0.42    3.28
   2  -3  -8    4.67    3.33
   2   3   8    0.46    2.70
   2  -4   0  562.15   11.10
  -2   4   0  543.46   11.48
   2  -4   0  502.16   12.20
  -2  -4   0  623.98   18.51
  -2   4   0  579.50    8.57
  -2   4   0  551.60   11.40
   2  -4  -1  267.28    8.67
   2  -4   1  278.58    6.76
  -2   4  -1  262.31    8.48
  -2   4   1  322.84    8.34
   2  -4   1  243.98    6.06
  -2   4  -1  243.08    7.98
  -2  -4  -1  250.97   10.28
  -2  -4  -2    0.37    2.36
   2  -4  -2   -1.64    1.62
  -2   4  -2    4.87    2.35
  -2  -4  -3 2749.22   30.24
   2  -4   3 2802.13   27.24
  -2   4  -3 2783.60   31.52
   2   4  -3 2679.45   19.48
  -2  -4  -4   24.90    3.61
   2   4  -4   17.47    1.83
  -2   4  -4   24.30    3.80
  -2  -4   4    9.83    3.71
   2   4  -4   17.66    1.96
   2  -4   4   26.96    3.52
   2   4   4   26.57    4.38
  -2  -4  -5   67.86    6.12
  -2   4   5   61.71    5.05
  -2   4  -5   53.98    5.58
  -2  -4   5   60.71    8.03
   2  -4   5   67.18    5.80
   2   4   5   57.80    6.78
   2   4   6  150.24   11.38
   2   4   6  155.53   10.85
   2   4   6  154.14   11.53
   2  -4  -6  161.53   10.26
  -2  -4   6  125.85    9.80
   2   4  -6  153.22   11.27
  -2   4  -6  144.02   10.13
   2  -4   6  191.08   10.74
   2   4   7  125.16   10.46
   2  -4  -7  103.77    8.17
   2   4  -7  108.15    9.50
   2  -4   7  124.45    8.92
  -2   4  -7  107.61    9.73
  -2  -4   7  111.34   10.07
   2   4   7  127.11   10.42
   2  -4  -8    4.71    3.49
   2   4   8    4.86    3.15
   2   4   8    1.52    2.86
   2  -5   0   15.54    2.09
   2  -5   0   10.48    3.30
  -2  -5   0   13.85    3.86
  -2   5   0   15.60    2.56
  -2   5   0   16.76    2.71
   2  -5  -1  992.46   17.91
   2  -5   1 1077.43   15.16
  -2   5   1 1062.30   17.50
  -2   5  -1 1004.96   20.08
  -2  -5  -1 1031.91   22.27
   2  -5   1 1030.03   15.03
   2  -5  -2  281.57   11.11
  -2   5  -2  272.99   10.27
   2  -5   2  220.20    6.97
   2  -5   2  257.42    8.03
  -2  -5  -2  225.10    9.67
  -2  -5  -3   58.78    4.91
   2  -5  -3   67.06    6.41
   2   5  -3   54.76    3.14
  -2   5  -3   50.78    4.72
   2  -5   3   61.53    4.72
  -2   5  -4   86.12    6.32
   2   5  -4   73.38    3.84
  -2  -5   4   69.98   12.19
   2  -5   4  106.04    7.28
   2  -5   4   95.89    6.23
   2   5  -5    3.86    2.47
   2  -5   5    3.88    2.16
  -2  -5   5    1.73    3.20
  -2  -5  -5    6.42    2.59
   2   5   5    6.14    3.82
  -2   5  -5    6.11    2.39
  -2   5   5    6.80    2.32
   2   5  -6   -2.96    3.32
   2  -5  -6    0.11    2.70
  -2  -5   6    2.71    4.38
   2  -5   6    0.05    2.07
   2   5   6   -0.84    3.38
  -2   5  -6    1.77    2.56
   2   5   7   65.60    8.47
   2   5   7   69.54    9.62
  -2   5   7   59.83    9.63
   2  -5   7   48.67    6.11
  -2  -5   7   31.52    6.74
   2   5  -7   41.16    6.29
   2   5   7   47.83    8.05
  -2   5  -7   47.35    6.98
   2  -6   0  172.44    7.13
   2  -6  -1  184.94    8.46
   2  -6   1  190.02    7.36
  -2  -6   1  193.06   12.95
  -2   6  -1  156.66    9.05
  -2  -6  -1  195.93   11.33
   2  -6   1  190.35    7.38
   2  -6  -2   38.82    4.39
  -2   6   2   34.55    4.40
  -2   6  -2   56.04    5.13
   2  -6   2   44.11    3.72
  -2  -6  -2   45.15    5.14
   2  -6   2   51.94    4.32
  -2  -6  -3  690.59   17.51
   2  -6  -3  710.65   19.35
   2   6   3  666.40   11.49
  -2   6   3  638.88   20.90
  -2   6  -3  723.56   18.02
   2  -6   3  720.17   17.12
   2  -6   3  748.23   16.86
   2   6  -3  693.65   12.19
  -2  -6  -4  272.59   12.26
   2  -6  -4  239.03   11.87
  -2   6   4  237.99   14.11
   2   6  -4  223.31    7.36
  -2   6  -4  210.45   10.02
   2  -6   4  248.07   10.86
   2  -6   4  264.21   11.75
   2   6  -5   63.11    7.27
  -2   6   5   76.77    9.24
  -2   6  -5   63.30    6.30
  -2  -6   5   51.42   10.47
   2  -6   5   72.30    6.91
   2  -6  -6   21.42    3.98
   2  -6   6   21.86    4.41
  -2  -6  -6   19.02    4.25
  -2   6  -6   15.92    3.89
   2   6  -6   12.25    3.64
   2   6   6   14.50    4.77
  -2   6   6    8.37    4.02
  -2  -6   6   11.04    7.09
   2   6   7   12.85    4.31
   2   6  -7   14.15    4.30
  -2  -6   7   11.18    6.31
   2  -6   7   12.28    3.76
  -2   6  -7   11.67    3.72
   2   6   7   12.06    4.63
  -2   6   7   13.39    5.52
   2   6   7   16.50    6.01
   2  -7   0   97.88    5.90
  -2  -7   0  116.24    9.95
   2  -7  -1  634.27   16.89
  -2   7   1  553.33   17.98
   2  -7   1  596.35   25.52
  -2  -7   1  593.03   23.12
  -2  -7  -1  589.24   19.85
   2  -7   1  607.54   14.36
  -2   7   2  113.37    8.70
   2  -7  -2  120.33    7.98
   2   7   2  107.00    3.52
  -2   7  -2  128.39    7.61
   2  -7   2  118.78    9.09
   2  -7   2  117.08    6.58
  -2  -7  -2  119.36    8.27
  -2  -7  -3  428.88   14.86
   2  -7  -3  408.21   14.88
  -2   7  -3  474.06   15.67
   2  -7   3  455.68   16.09
   2  -7   3  449.47   13.95
  -2  -7  -4   55.82    5.90
   2  -7  -4   58.92    6.88
  -2   7   4   45.97    7.09
   2   7  -4   49.86    5.67
   2   7  -4   54.28    3.98
  -2   7  -4   53.33    5.76
   2  -7   4   50.45    5.90
   2  -7   4   58.57    6.15
  -2  -7  -5   47.69    6.13
   2  -7  -5   36.53    4.20
   2   7  -5   37.61    5.48
  -2   7   5   38.05    6.91
  -2   7  -5   40.84    5.07
   2  -7   5   55.20    6.14
  -2   7  -6   70.43    7.10
  -2  -7  -6   95.62    8.81
  -2   7   6   73.19    9.77
   2   7  -6   69.64    7.62
   2  -7   6   80.22    8.03
  -2  -7   6   58.41   12.35
  -2  -7   7   46.65   11.37
  -2   7  -7   52.35    6.80
  -2  -8   0   -1.22    3.05
   2  -8   0   10.25    2.97
   2  -8  -1  287.48   11.58
  -2  -8   1  333.11   18.85
  -2  -8  -1  274.79   13.91
  -2   8   1  283.20   14.35
   2  -8   1  297.69   11.04
   2  -8  -2  116.29    7.93
   2   8   2  105.21    3.22
   2  -8   2   87.34    9.62
  -2  -8   2  130.00   12.52
   2  -8   2  121.42    7.47
  -2  -8  -2  125.64    8.94
  -2  -8  -3  720.57   20.33
  -2   8  -3  713.20   20.38
  -2   8   3  562.53   21.83
   2  -8  -3  599.68   18.58
   2  -8   3  667.11   23.33
   2  -8   3  715.23   19.45
   2  -8  -4    2.37    2.77
   2  -8   4   12.54    6.08
   2  -8   4   -5.33    3.73
  -2  -8  -4   -0.18    2.23
  -2   8  -4    5.51    3.04
  -2   8   4   -3.02    3.37
   2   8  -4    8.94    2.46
   2   8  -4   12.33    4.97
  -2  -8  -5   32.30    5.19
   2   8  -5   24.74    4.59
   2  -8   5   31.20    5.99
  -2   8   5   22.75    5.87
  -2   8  -5   23.28    4.20
  -2   8   6   44.58    8.79
  -2  -8  -6   52.60    6.58
   2   8  -6   46.76    6.48
  -2   8  -6   45.29    6.03
   2  -8   6   60.18    8.07
  -2   8  -7  183.44   12.68
   2  -9   0   54.55    5.37
  -2  -9   0   46.73    6.86
  -2  -9  -1    1.50    2.55
   2  -9   1    0.05    1.90
   2  -9  -1    1.49    2.17
  -2  -9   1    3.69    4.72
  -2   9   2   -4.90    3.91
  -2  -9   2   -2.61    4.16
   2  -9   2   -0.70    5.70
  -2  -9  -2    2.76    2.63
   2  -9  -2    0.98    3.02
   2  -9   2   -1.20    2.18
  -2  -9  -3  176.66   10.69
   2   9  -3  188.40    9.83
  -2   9   3  162.52   12.79
   2  -9  -3  164.13   10.25
  -2   9  -3  179.21   10.29
  -2  -9   3  179.53   15.69
   2  -9   3  133.36   12.29
   2  -9   3  177.99    9.79
  -2  -9  -4   37.94    5.43
   2  -9  -4   37.23    5.92
   2   9  -4   32.34    4.84
   2  -9   4   26.77    7.00
  -2   9  -4   33.14    4.80
  -2   9   4   30.64    6.43
   2   9  -4   29.41    3.40
   2  -9   4   36.07    5.44
   2  -9   5   17.43    5.54
   2  -9  -5   22.64    4.93
  -2   9   5   11.65    4.86
  -2   9  -5   20.33    4.00
  -2  -9  -5   23.21    4.56
   2   9  -5   21.11    4.35
  -2   9   6  123.47   13.68
  -2  -9  -6  149.23   11.11
   2   9  -6  144.73   11.60
  -2   9  -6  120.39    9.91
   2  -9   6  146.45   13.80
   2 -10   0  138.93    8.74
  -2 -10   0  168.69   13.24
   2 -10  -1  598.93   18.67
   2  10  -1  563.32   11.69
  -2 -10   1  684.22   28.18
  -2 -10  -1  521.43   19.88
   2 -10   1  642.32   18.70
   2 -10  -2   18.07    3.91
  -2 -10   2   27.78    7.33
   2  10  -2   20.51    2.96
  -2 -10  -2   24.19    4.68
   2 -10   2   25.72    4.51
  -2 -10  -3   64.12    6.90
   2 -10  -3   62.35    6.91
   2 -10   3   53.28   12.01
   2  10  -3   64.45    5.46
  -2  10  -3   67.33    6.85
  -2 -10   3   66.20   10.49
   2 -10   3   71.32    6.74
  -2  10   3   60.62    8.75
  -2 -10   4   -4.89    5.89
   2  10  -4   13.02    4.07
   2 -10   4   -2.04    5.03
  -2  10   4    3.06    4.63
   2 -10  -4    4.01    3.17
  -2  10  -4    1.22    2.21
  -2 -10  -4   -1.36    2.63
  -2 -10  -5    5.18    2.94
   2 -10   5    8.53    6.91
   2  10  -5    4.99    2.81
  -2  10   5    8.67    5.32
   2 -10  -5   10.78    5.07
  -2  10  -5    5.26    2.79
   2  10  -6    1.04    3.26
  -2  10  -6   -1.06    2.74
  -2 -10  -6   -0.70    2.59
   2 -11   0  620.64   19.33
  -2 -11   0  690.67   27.15
   2 -11   1  183.38   10.88
   2 -11  -1  173.46   10.68
  -2 -11   1  210.04   16.28
  -2 -11  -1  163.98   12.19
  -2 -11   2   11.01    5.84
   2  11  -2   10.14    2.38
   2 -11   2    6.39    2.93
  -2 -11  -2   16.44    5.03
   2 -11  -2    9.31    3.52
  -2 -11  -3  269.98   14.50
   2 -11  -3  283.62   15.05
   2  11  -3  279.85   11.24
  -2  11  -3  286.78   14.57
  -2 -11   3  299.27   22.21
  -2  11   3  233.55   18.10
   2 -11   3  291.91   14.14
  -2  11   4    8.58    5.35
  -2 -11   4    9.57    6.51
   2  11  -4    9.07    3.17
  -2 -11  -4   10.03    3.78
  -2  11  -4   11.65    3.71
   2 -11  -4    7.97    3.53
   2 -11   4    6.01    8.72
  -2 -11  -5   59.10    7.77
   2 -11  -5   52.22    7.56
  -2 -11   5   47.41   10.96
  -2  11   5   37.52    8.49
   2  11  -5   45.97    6.50
   2 -11   5   58.86   12.46
  -2  11  -5   44.63    6.38
  -2 -11   6   38.84   10.77
   2  11  -6   39.56    6.78
  -2  11  -6   32.76    5.44
  -2 -12   0    8.09    4.83
   2 -12   0    6.11    3.07
   2 -12   1  198.75   12.19
   2 -12  -1  181.19   11.69
  -2 -12   1  187.15   15.53
  -2 -12  -1  173.17   13.25
  -2 -12   2   18.69    7.07
   2 -12   2   16.58    4.28
   2 -12  -2   24.08    5.11
  -2 -12  -2   10.82    3.89
  -2 -12  -3  233.41   14.33
   2 -12  -3  255.63   15.21
  -2  12  -3  238.42   13.75
  -2 -12   3  278.51   22.01
   2 -12   3  263.80   14.39
  -2 -12   4    5.30    6.76
   2  12  -4   -0.90    2.94
  -2 -12  -4    3.29    3.84
   2 -12  -4   -1.21    2.81
  -2  12  -4    0.23    2.56
   2  12  -5   -2.29    4.40
  -2  12  -5   18.28    5.31
   2 -13   0   16.25    4.40
  -2 -13   0   18.12    5.43
  -2 -13   1   31.02    7.71
   2 -13   1   21.03    4.62
   2 -13  -1   23.34    5.09
  -2 -13  -1   23.04    5.89
   2 -13  -2  100.98    9.87
   2 -13   2   86.03    8.64
  -2 -13  -2   80.42    9.19
  -2 -13   3   10.57    5.97
  -2 -13  -3   14.30    4.61
   2 -13  -3    9.03    3.95
  -2  13  -3    8.71    3.72
  -2  13  -4    5.82    3.30
   2 -14   0    1.52    2.91
  -2 -14   0   -4.94    4.27
  -2 -14   1   -8.72    5.76
   2 -14   1    1.25    2.87
   2 -14  -1    2.51    3.19
  -2 -14  -1    1.53    3.48
  -2 -14   2   -0.39    4.70
  -2 -14  -2    1.13    3.44
   2 -14  -2    1.09    3.10
   2 -14   2    5.73    4.04
  -2  14  -3  213.83   14.32
  -2 -14   3  244.90   20.92
   2 -15   0   23.06    5.36
   2 -15   1  116.45   10.66
   2 -15  -1  119.83   11.26
   2 -16   0   11.46    4.01
   2 -16   1   39.82    6.90
  -3   0   0   -1.68    1.10
  -3   0   0   -1.34    1.04
  -3   0  -2 1233.99   10.91
  -3   0  -2 1237.40   11.01
  -3   0  -2 1336.79   21.91
   3   0   3  584.10   11.63
   3   0   4   97.22    7.30
   3   0   4   98.51    7.25
  -3   0   4   66.72    2.27
  -3   0  -4   88.39    7.45
  -3   0   4   92.24    4.80
   3   0   4   83.94    4.78
   3   0   5  205.69   11.09
   3   0   5  211.19   11.44
  -3   0  -5  185.26   12.37
  -3   0   5  186.61    6.89
   3   0   5  193.04    8.66
   3   0   6  182.98   10.83
   3   0   6  196.27   12.20
   3   0   7   92.84    8.23
   3   0  -7   81.12    8.42
   3   1   0   -0.66    0.85
   3  -1   0    0.41    0.79
  -3   1   0    0.28    0.88
   3   1   0   -0.42    0.83
  -3  -1   0   -0.49    1.11
   3  -1   0   -0.70    0.97
  -3   1   0   -0.38    1.02
   3  -1   1  334.77    9.15
   3   1  -1  330.77    5.71
  -3   1   1  417.73    7.78
  -3   1  -1  369.69   10.31
  -3  -1   1  348.07    7.11
  -3  -1  -1  351.50   10.72
  -3  -1  -1  348.83   10.50
   3  -1  -1  338.69    3.65
  -3  -1  -2 1500.55   15.81
  -3   1  -2 1538.34   22.83
  -3  -1  -2 1512.12   25.61
   3   1  -2 1411.97   10.38
  -3  -1  -2 1453.40   15.88
  -3  -1  -3  173.98    5.64
   3   1  -3  145.09    4.41
  -3   1  -3  159.72    8.50
  -3  -1  -3  153.29    9.65
   3   1   3  180.25    7.90
   3  -1   4  291.71   11.91
   3   1   4  296.36   14.08
  -3   1   4  200.61    5.58
   3   1   4  251.88   11.60
  -3   1  -4  284.75   13.43
  -3  -1   4  194.60    9.29
  -3  -1  -4  259.07   13.67
  -3   1   4  241.97    5.68
   3   1   4  251.97    9.60
   3  -1   4  213.29    6.22
   3  -1   5   80.44    6.73
   3   1   5   73.67    7.09
  -3   1  -5   71.05    7.35
   3   1   5   68.48    6.73
  -3   1   5   74.89    3.82
   3   1   6  228.90   12.94
   3   1   6  229.67   13.52
   3  -1   7   34.10    5.45
   3  -1  -7   19.53    4.51
   3   1  -7   16.85    4.60
   3   1   7   18.74    4.54
   3   1   7   23.25    5.35
  -3   2   0    0.17    0.99
   3  -2   0    0.73    0.71
  -3   2   0   -0.87    1.25
   3   2   0   -1.10    1.04
   3  -2   1 1189.59   15.10
  -3   2  -1 1075.29   10.27
   3   2  -1 1111.20   10.79
  -3   2   1 1112.21   14.04
  -3   2  -1 1130.91   17.64
   3   2  -1 1081.83   10.96
   3  -2  -1 1031.81    9.94
  -3  -2  -2  199.08    7.25
  -3   2  -2  182.79    8.31
   3   2  -2  173.85    5.17
  -3  -2  -2  177.80    6.65
  -3   2  -3   39.12    4.52
   3   2  -3   36.46    2.30
   3   2   4    1.23    2.12
  -3  -2  -4    1.01    1.23
   3  -2   4    1.11    0.65
   3  -2   4    1.43    2.22
  -3   2  -4    5.12    2.75
  -3   2   4    1.10    1.41
  -3   2   4    4.59    0.96
   3  -2   5  221.34   10.36
   3   2   5  246.75   13.54
   3   2   5  225.81   11.80
  -3   2  -5  227.76   12.95
  -3  -2   5  159.32    9.30
  -3   2   5  185.22    4.98
   3   2   6   40.47    6.02
   3   2   6   32.28    5.32
  -3   2  -6   32.83    5.71
   3  -2   6   38.03    5.00
   3   2   7  135.47   10.72
   3   2   7  143.51   11.36
   3  -2  -7  111.32    9.64
   3   2  -7  119.26   10.77
  -3   2  -7  146.35   12.74
   3  -2   7  144.29    9.91
  -3   3   0   -1.44    1.21
  -3   3   0    0.52    1.39
   3   3   0   -0.96    1.21
  -3   3   0   -1.03    1.24
  -3   3   1   76.77    2.93
  -3   3  -1   97.32    3.61
  -3   3  -1  109.44    5.94
   3   3  -1   97.42    4.15
  -3  -3  -1  120.70    8.01
   3  -3   1  109.06    4.46
  -3   3  -1   97.99    3.55
  -3   3  -2 1814.72   25.20
   3   3  -2 1706.88   20.21
  -3  -3  -2 1812.08   23.40
  -3  -3  -3   36.05    3.25
  -3   3  -3   38.32    4.48
   3  -3   3   36.64    3.80
   3   3   4    2.28    2.11
  -3  -3  -4    3.39    1.84
   3  -3   4    3.48    1.81
  -3   3   4    3.42    0.86
  -3   3  -4    1.34    1.84
   3   3   5   98.11    9.33
  -3  -3  -5  111.06    7.97
   3   3   5   90.27    9.38
  -3  -3   5   46.38    7.84
  -3   3  -5   51.59    5.91
   3  -3   5   65.82    5.82
   3   3   6   55.74    7.55
  -3   3  -6   51.72    6.98
   3   3   6   51.80    6.84
   3  -3   6   63.61    6.21
   3   3  -7   10.38    4.08
   3   3   7   15.64    4.74
   3  -3  -7    9.98    3.52
   3  -3   7   11.49    3.49
  -3   3  -7   13.31    4.27
   3   3   7   15.90    4.78
  -3   4   0    0.64    1.52
   3  -4   0   -0.27    1.23
  -3   4   0    0.90    1.25
   3  -4   0   -1.23    1.32
  -3   4   0    2.31    1.77
  -3   4  -1   -0.19    1.28
   3  -4   1   -1.53    1.19
   3  -4   1   -0.38    1.00
  -3   4   1   -0.98    0.92
  -3   4  -1   -2.06    2.01
  -3   4  -1    1.64    1.34
  -3   4   2  840.02    8.11
  -3  -4  -2  887.22   17.77
  -3  -4  -3   86.40    5.84
  -3   4  -3   54.66    5.02
   3  -4   3   56.08    4.17
  -3  -4  -4   52.38    4.91
  -3   4  -4   43.60    5.07
   3  -4   4   40.29    4.04
  -3  -4  -5   51.87    5.13
  -3   4  -5   41.64    6.63
   3   4   5   43.16    5.79
   3  -4   5   33.78    4.06
   3   4   6  116.16    9.91
   3   4   6  119.65   10.66
  -3   4  -6  105.95    9.29
   3  -4   6  123.56    8.71
   3   4   7  104.85   10.56
   3   4  -7  100.56   10.68
   3  -4  -7   91.54    8.85
  -3   4  -7   80.63    8.75
   3   4   7   93.85    9.26
   3  -4   7  111.95    9.30
  -3  -5   0   -3.73    3.67
   3  -5   0   -2.21    1.93
   3  -5   0   -1.49    1.42
   3  -5   1  246.40    7.29
   3  -5  -1  278.22   10.09
  -3   5  -1  310.03   10.98
  -3   5   1  286.38    6.37
  -3  -5  -1  318.51   14.10
  -3   5  -1  254.95    8.90
   3  -5   2 1018.99   12.15
   3  -5  -2 1059.90   21.27
  -3   5  -2 1083.78   21.48
  -3   5   2 1093.38   13.21
   3  -5   2 1036.38   17.75
  -3  -5  -2  986.44   20.32
  -3  -5  -3  220.32    9.90
   3   5  -3  167.57    4.44
  -3   5  -3  201.90    9.95
  -3   5   3  164.39    8.58
   3  -5   3  202.79    8.24
  -3  -5  -4  342.67   12.74
  -3   5  -4  305.81   13.20
   3  -5   4  334.39   12.34
  -3  -5  -5   34.67    4.27
  -3   5  -5   30.71    4.61
   3  -5   5   34.06    4.51
   3   5   6  194.03   13.01
   3   5   6  179.81   13.25
  -3   5  -6  167.96   11.31
   3  -5   6  183.95   10.53
   3   5   7   10.45    4.05
   3   5  -7   11.32    4.64
   3  -5   7   10.50    3.38
   3  -5  -7   11.81    3.98
  -3   5  -7    9.90    4.57
   3   5   7   15.37    5.43
  -3  -6   0   -0.54    3.42
   3  -6   0    0.65    1.91
   3  -6   1  277.92    8.80
   3  -6  -1  255.88    9.84
  -3   6  -1  307.79   11.27
  -3   6  -1  250.72   10.75
  -3  -6  -1  321.29   15.35
   3  -6   2   41.36    3.00
   3  -6  -2   86.06    6.93
  -3   6   2   63.56    6.57
  -3   6  -2   57.94    5.87
  -3   6   2   74.54    4.69
   3  -6   2   45.42    4.43
  -3  -6  -2   41.69    5.28
   3  -6   3   82.65    4.75
  -3  -6  -3   94.50    7.26
  -3  -6  -4    8.01    2.65
  -3   6  -4    9.17    2.93
   3  -6   4   14.30    3.93
  -3   6  -5  324.13   14.70
   3  -6   5  288.57   13.09
  -3  -6  -6   36.93    5.25
   3   6  -6   33.17    5.98
   3   6   6   32.46    5.63
  -3   6  -6   36.03    5.61
   3  -6   6   38.92    5.47
   3   6   7   93.75   10.01
   3   6   7   96.34   11.32
  -3   6  -7   77.49    8.80
  -3  -7   0    4.24    4.03
   3  -7   0    8.11    2.95
   3  -7   1   24.11    3.61
   3  -7  -1   17.37    2.99
  -3  -7   1   19.55    6.02
  -3  -7  -1   19.72    4.67
  -3   7   1   17.34    3.73
   3  -7   1   27.49    6.05
   3  -7   2  487.11   11.21
   3  -7  -2  544.54   16.85
  -3   7   2  483.87   17.65
  -3   7  -2  555.91   16.77
   3  -7   2  562.47   17.67
  -3  -7  -2  553.05   18.35
   3  -7  -3   19.33    4.36
  -3  -7  -3   16.56    3.40
   3  -7   3   16.68    3.67
  -3   7  -3   19.53    3.79
  -3   7   3   18.53    4.94
   3  -7   3   18.89    2.42
  -3  -7  -4   45.21    5.23
  -3   7   4   41.21    7.05
  -3   7  -4   41.00    5.17
   3  -7   4   37.51    4.89
   3  -7   5   13.92    3.61
  -3  -7  -5   17.46    3.83
  -3   7  -5   14.36    3.82
  -3   7   5   14.66    4.95
   3   7  -6   29.65    5.97
  -3  -7  -6   32.81    5.12
  -3   7  -6   24.73    4.66
   3  -7   6   29.00    5.22
  -3   7   6   27.18    6.84
  -3   7  -7    5.52    3.44
  -3  -8   0    3.11    4.44
   3  -8   0   -2.63    2.22
   3  -8   1   69.23    5.15
   3  -8  -1   73.12    6.26
   3  -8   1   59.24   10.02
  -3  -8   1   85.22   10.85
  -3  -8  -1   61.92    7.65
   3  -8   2  423.72   11.67
  -3   8   2  376.01   16.79
   3  -8  -2  391.05   14.64
  -3   8  -2  446.91   15.82
   3  -8   2  382.89   17.64
  -3  -8  -2  402.50   16.36
  -3  -8  -3    6.98    2.72
   3  -8  -3    8.51    3.55
   3  -8   3    8.87    4.77
  -3   8  -3    8.36    2.95
  -3   8   3    5.18    3.23
   3  -8   3   11.72    3.16
  -3  -8  -4    2.70    2.27
  -3   8  -4    6.44    2.87
  -3   8   4    2.64    3.30
   3  -8   4    9.41    3.60
   3   8  -5    8.84    3.49
   3  -8   5   13.11    4.94
  -3  -8  -5    8.87    3.41
  -3   8  -5   11.59    3.77
  -3   8   5   11.40    5.39
  -3  -8  -6   28.95    5.19
   3   8  -6   29.44    5.88
   3  -8   6   24.54    5.43
  -3   8  -6   20.69    4.51
  -3   8   6   18.78    6.22
  -3  -9   0   -2.81    4.01
   3  -9   0    0.89    2.09
   3  -9   1   73.45    5.85
   3  -9  -1   73.00    6.65
  -3  -9  -1   75.56    8.82
  -3   9   1   93.77    9.56
   3  -9   2  991.99   19.56
  -3   9   2  912.72   28.24
   3  -9  -2  982.61   23.89
  -3   9  -2 1032.45   25.22
   3  -9   2  848.88   29.23
  -3  -9   2 1052.20   38.16
  -3  -9  -2  976.58   27.27
   3  -9  -3   33.77    5.27
   3  -9   3   32.02    6.86
  -3   9  -3   32.40    5.14
  -3   9   3   27.86    5.89
  -3  -9  -3   48.52    6.59
  -3  -9  -4   48.56    5.95
   3  -9  -4   46.98    6.43
  -3   9  -4   37.56    5.33
  -3   9   4   33.60    6.56
   3  -9   4   39.96    7.12
  -3  -9  -5   54.29    7.02
   3   9  -5   48.16    7.05
   3  -9   5   38.45    7.55
  -3   9  -5   40.67    5.95
  -3   9   5   35.83    7.36
   3   9  -6   66.80    7.99
  -3  -9  -6   63.41    7.58
  -3   9  -6   54.94    7.17
  -3 -10   0   -1.02    3.58
   3 -10   0   -0.42    2.30
   3 -10   1  128.63    8.12
   3 -10  -1  119.27    8.61
  -3 -10   1  127.81   13.54
  -3 -10  -1  117.51   11.00
   3 -10   2   40.04    4.50
   3 -10  -2   35.47    5.05
  -3 -10   2   43.63    8.98
  -3  10  -2   36.91    5.30
   3 -10   2   27.89    8.28
  -3  10   2   36.73    6.92
  -3 -10  -2   38.28    6.03
  -3 -10  -3   31.71    5.58
   3 -10   3   16.80    6.39
  -3  10  -3   27.43    5.33
  -3  10   3   16.37    5.22
   3 -10  -3   22.77    4.73
   3  10  -4    1.97    2.97
  -3 -10  -4    0.02    2.33
   3 -10  -4    0.60    2.66
  -3  10   4    1.12    3.82
  -3  10  -4    0.63    2.56
   3 -10   4   -1.45    4.95
  -3 -10  -5  203.94   13.67
  -3  10   5  156.00   15.16
   3  10  -5  161.71   11.32
  -3  10  -5  151.18   10.91
   3 -10   5  155.16   15.23
   3  10  -6   14.01    4.36
  -3 -10  -6    9.54    3.76
  -3 -11   0    0.78    3.56
   3 -11   0   -0.46    2.40
  -3 -11   1    9.31    6.02
  -3 -11  -1    7.30    3.87
   3 -11  -1    9.76    3.91
   3 -11   1    6.92    2.88
   3 -11   2   84.34    6.84
   3 -11  -2   74.00    7.41
  -3  11  -2   70.55    7.44
  -3 -11   3   10.48    6.52
   3 -11   3    7.12    7.80
   3  11  -3   13.80    3.68
  -3  11   3   11.58    5.35
   3 -11  -3   12.01    3.84
  -3 -11  -3   15.11    4.30
  -3  11  -3   13.89    4.27
  -3  11   4   93.06   11.91
  -3 -11  -4  133.56   10.69
   3 -11  -4  122.09   10.88
   3  11  -4  114.72    8.75
  -3  11  -4  111.30    9.76
   3 -11   4  102.41   14.60
  -3 -11   4  115.86   15.74
   3  11  -5    0.54    2.61
  -3 -11  -5   -4.21    4.20
  -3  11  -5   -0.48    2.33
  -3 -11   5   -1.76    6.80
   3 -12   0   11.08    4.30
  -3 -12   0    0.49    3.83
   3 -12   1   41.72    5.49
   3 -12  -1   48.71    6.95
  -3 -12  -1   33.68    6.35
  -3 -12   1   44.83    9.32
   3 -12   2   65.12    6.60
   3 -12  -2   70.26    7.90
  -3  12  -2   61.64    7.50
  -3 -12   2   61.61   11.20
  -3 -12  -2   68.05    8.54
  -3 -12   3    6.57    6.80
  -3 -12  -3    4.41    3.63
  -3  12  -3    6.37    3.48
   3 -12  -3    7.82    3.51
   3 -12  -4   28.38    7.19
  -3 -12   4   14.05    6.96
   3 -12   4    4.94    8.02
  -3 -12  -4   16.12    4.68
  -3  12  -4   14.37    4.20
   3  12  -5   34.19    5.78
   3 -13   0   -4.42    3.46
  -3 -13   0   -3.46    4.61
   3 -13  -1   27.54    5.55
  -3 -13   1   23.51    6.80
  -3 -13  -1   20.44    5.48
   3 -13   1   18.63    4.25
   3 -13  -2  449.89   19.85
  -3  13  -2  409.38   19.15
  -3 -13   2  499.41   29.44
  -3 -13  -2  438.50   21.56
  -3 -13   3   14.47    7.45
  -3 -13  -3   15.26    4.96
   3 -13  -3   10.72    3.92
  -3  13  -3   11.37    4.07
  -3 -14   0    1.32    3.57
   3 -14   0    4.25    3.99
   3 -14   1   91.18    8.88
   3 -14  -1   87.43    9.15
  -3 -14   1   96.93   12.85
  -3 -14  -1   85.62   10.91
  -3 -14   2   25.68    7.98
   3 -14  -2   25.48    5.59
  -3  14  -2   13.54    4.25
   3 -15   0   -0.70    3.39
   3 -15  -1   -0.88    3.09
   3 -16   0    0.39    3.59
  -4   0   0  518.97   12.42
  -4   0   1    8.08    1.65
  -4   0   1    5.52    1.56
   4   0   1    8.59    2.43
   4   0   2   65.93    5.34
  -4   0   2   36.21    1.93
  -4   0  -2   64.47    5.70
  -4   0  -2   53.06    2.94
  -4   0  -2   64.68    3.42
   4   0   3  607.70   16.97
   4   0   3  694.57   20.24
  -4   0  -3  663.00   20.79
  -4   0  -4   12.19    3.77
   4   0   4   11.34    3.47
   4   0   4   13.34    3.67
   4   0   5   -1.51    2.80
   4   0   5    0.18    2.46
  -4   0  -5    0.48    2.89
   4   0   6   98.13    8.68
   4   0   7    4.80    3.22
   4   1   0 1056.55   15.61
   4  -1   0 1066.91   14.80
  -4   1   0 1093.99   17.85
  -4  -1   0 1040.91   17.96
   4  -1  -1  653.69    7.15
   4  -1   1  759.29   15.05
  -4   1   1  740.52   11.78
   4   1  -1  673.10   10.06
  -4   1   1  696.60   11.68
  -4   1  -1  729.69   15.74
  -4  -1  -1  823.75   18.27
  -4  -1   1  706.00   12.29
  -4   1   2  324.91    6.66
  -4   1   2  310.78    6.82
   4   1   2  322.85   11.31
  -4   1  -2  330.64   12.20
  -4  -1  -2  311.80   12.72
   4   1  -2  354.20    6.89
  -4  -1  -2  316.37    9.08
  -4  -1  -3   82.51    3.82
   4  -1   3   83.19    6.47
   4   1   3   96.40    7.88
   4   1   3   86.54    6.72
  -4   1  -3   79.18    6.76
  -4  -1  -3   92.15    8.13
   4  -1   4 1160.40   25.11
  -4  -1  -4 1194.63   15.08
   4   1   4 1223.15   29.32
   4   1   4 1146.77   25.95
  -4   1  -4 1224.15   30.64
  -4  -1  -4 1133.36   30.60
   4   1   5    3.93    2.82
   4  -1   5    6.55    2.98
  -4   1  -5    6.34    3.66
   4   1   5    3.96    3.12
   4  -1   6   31.50    4.98
   4   1   6   24.68    4.92
  -4   1  -6   25.56    5.66
   4   1   6   29.08    5.51
   4  -1   7   15.87    4.16
   4   1   7   16.20    4.32
   4   1   7   18.57    5.42
   4  -2   0  114.23    4.24
  -4   2   0  116.60    5.82
  -4   2   0  104.58    5.72
   4   2   0   91.36    4.59
   4  -2   1  599.17   11.80
  -4   2  -1  576.28    9.09
   4   2  -1  555.32    8.94
   4   2  -1  550.34    9.03
  -4   2  -1  582.44   14.12
  -4   2   1  574.23   11.58
  -4  -2  -1  624.03   17.36
   4  -2  -1  534.81    6.18
  -4  -2  -1  637.46   17.84
  -4   2   2  124.82    4.97
  -4   2  -2  162.65    8.58
  -4  -2  -2  146.51    9.92
   4   2  -2  126.77    5.63
   4   2   2  172.90    9.07
  -4  -2  -2  143.40    7.13
  -4  -2  -3   16.53    2.36
  -4  -2  -3   15.64    2.47
   4  -2   3    9.34    2.63
  -4   2  -3   10.42    2.70
   4   2  -3    9.11    1.17
  -4  -2  -4   22.66    2.62
  -4   2  -4   24.07    4.43
   4  -2   4   20.65    3.82
   4  -2   5   98.49    7.54
   4   2   5  117.52   10.66
   4   2   5  108.69    9.26
  -4   2  -5  113.75   10.34
   4  -2   6  250.23   12.89
   4   2   6  254.09   14.94
   4   2   6  239.84   14.36
  -4   2  -6  215.66   14.47
   4  -2   7    1.75    2.86
   4   2   7   -0.68    3.17
  -4   2  -7   -0.79    3.69
   4   2   7   -0.04    3.12
  -4   3   0 2053.97   24.49
  -4   3   0 2049.97   25.49
   4  -3   0 2102.49   17.95
   4   3  -1   -0.13    1.22
  -4   3  -1    3.43    1.95
   4   3   2   53.03    5.00
  -4  -3  -2   63.08    5.66
   4  -3   3  318.70   11.07
   4   3   3  318.18   13.08
  -4   3  -3  291.13   12.41
  -4  -3  -3  337.49   11.01
  -4  -3  -4  612.54   14.60
  -4   3  -4  535.70   18.49
   4   3   4  592.17   19.54
   4  -3   4  587.29   16.47
   4  -3   5    0.08    2.10
  -4   3  -5    2.87    2.52
   4   3   5   -0.03    2.48
   4   3   5   -2.59    3.85
   4   3   6  236.47   15.82
   4   3   6  214.01   13.61
  -4   3  -6  213.69   14.83
   4  -3   6  223.97   12.07
   4   3   7   41.74    7.20
   4   3   7   40.71    7.13
  -4   3  -7   25.35    5.97
  -4   4   0   33.60    3.76
   4  -4   0   27.03    2.44
  -4   4  -1  329.83    8.25
  -4   4   1  281.00    8.05
  -4   4   1  295.35    9.58
   4   4  -1  288.76    8.82
  -4  -4  -1  321.21   15.16
  -4   4  -1  305.15    8.06
  -4   4  -2  199.91    9.86
   4   4  -2  132.69    4.13
  -4  -4  -2  171.61    9.65
   4  -4   2  162.23    6.95
  -4  -4  -3   13.25    2.71
  -4   4  -3   17.57    4.05
   4  -4   3   14.39    2.78
  -4  -4  -4   21.82    3.47
   4   4   4   23.35    4.67
   4  -4   4   16.73    3.14
   4   4   5  203.52   12.89
  -4   4  -5  195.73   12.53
   4  -4   5  194.30    9.97
   4   4   6   67.06    9.34
  -4   4  -6   60.62    7.97
   4   4   6   64.77    8.04
   4  -4   6   57.53    6.19
  -4   4  -7   32.61    6.51
  -4   5   0 2327.26   29.09
  -4   5   0 2622.79   32.72
   4  -5   0 2369.66   27.62
  -4  -5   0 2558.64   47.31
  -4   5   1  185.42    5.84
  -4   5  -1  225.02   10.24
  -4  -5  -1  257.79   14.55
  -4   5  -1  146.17    6.76
  -4   5  -1  209.35    8.18
  -4   5   2   46.65    2.32
  -4   5  -2   71.22    6.26
   4   5  -2   59.46    3.59
   4  -5   2   63.08    4.38
  -4  -5  -2   76.48    7.23
   4  -5   3  310.83   11.69
  -4  -5  -3  291.89   11.82
  -4  -5  -4  154.16    8.46
  -4   5  -4  138.18    9.76
   4  -5   4  160.30    9.15
   4   5   5   68.74    7.80
  -4   5  -5   62.56    6.96
   4  -5   5   73.21    6.88
   4   5   6  112.45   11.72
  -4   5  -6   94.85    9.31
   4  -5   6  130.90    9.77
   4   5   6  136.82   11.71
   4  -6   0  228.67    8.81
  -4   6   0  226.36    9.90
  -4  -6   0  215.66   15.02
   4  -6   1   14.82    2.46
  -4  -6  -1   17.50    4.54
  -4   6  -1   11.46    2.95
  -4   6  -1   20.45    3.53
   4  -6   1   15.50    2.82
  -4   6   1   13.35    3.17
  -4   6  -2   57.44    5.92
   4  -6   2   50.16    4.31
  -4  -6  -2   72.02    7.40
  -4   6   2   46.60    2.64
  -4   6  -3   82.35    7.06
   4  -6   3   94.01    6.51
  -4  -6  -3  100.99    7.63
  -4  -6  -4   81.64    6.55
  -4   6  -4   65.42    6.69
   4  -6   4   70.54    6.04
  -4  -6  -5  109.80    7.96
  -4   6  -5   88.19    8.16
   4  -6   5   94.37    7.51
   4   6   6   42.04    6.93
  -4   6  -6   33.42    6.06
   4  -6   6   34.81    5.38
   4  -7   0 1360.43   23.46
  -4  -7   0 1535.34   41.09
  -4   7   1   33.33    4.85
   4  -7   1   39.94    3.84
   4  -7  -1   59.49    5.77
  -4   7  -1   44.64    5.06
   4  -7   1   33.87    4.85
  -4  -7  -1   54.38    7.69
   4  -7   2   37.60    3.24
  -4   7   2   30.06    5.15
  -4   7  -2   40.16    5.44
   4  -7   2   35.55    4.91
  -4  -7  -2   33.63    5.53
  -4   7   3  115.01   10.14
  -4   7  -3  122.46    9.10
   4  -7   3  122.98    7.97
  -4  -7  -3  128.86    9.05
  -4  -7  -4  452.30   16.18
  -4   7   4  382.32   19.49
  -4   7  -4  392.78   16.51
   4  -7   4  402.11   14.92
  -4  -7  -5    1.58    2.41
   4  -7   5    1.58    2.44
  -4   7  -5    1.98    2.63
  -4   7   5    4.71    4.14
  -4   7   6   83.40   10.79
   4   7   6  103.83   10.35
  -4   7  -6  103.99    9.96
   4  -7   6  112.45    9.92
  -4  -8   0    4.56    5.03
  -4   8   0   -1.27    2.65
   4  -8   1   23.15    3.32
   4  -8  -1   32.45    5.17
  -4  -8   1   17.13    5.95
  -4  -8  -1   30.75    6.19
   4  -8   1   23.45    5.92
  -4   8  -1   31.43    4.90
   4  -8   2   53.02    4.10
  -4   8   2   51.17    6.77
   4  -8  -2   50.06    5.85
  -4   8  -2   62.79    7.22
   4  -8   2   47.46    6.49
  -4  -8  -2   56.39    7.25
  -4   8  -3  193.90   12.11
   4  -8   3  167.94   10.79
  -4  -8  -3  185.82   11.48
  -4  -8  -4    0.04    2.19
   4  -8   4   -3.90    3.05
  -4   8  -4    0.73    2.71
  -4   8   4   -0.07    3.57
  -4  -8  -5   38.45    5.94
  -4   8   5   41.60    8.05
   4  -8   5   26.62    5.15
  -4   8  -5   31.55    5.58
   4   8  -6   88.95    9.58
  -4   8  -6  103.20    9.98
   4  -9   0   68.54    5.87
  -4  -9   0   73.36   10.34
   4  -9   1   97.32    6.81
   4  -9  -1   99.79    7.97
  -4   9  -1  101.24    8.20
   4  -9   1   82.49   11.51
  -4  -9   1  107.39   13.19
  -4  -9  -1  104.88   10.49
  -4   9   1  104.40    9.63
  -4   9   2  133.82   11.19
   4  -9  -2  147.17   10.14
  -4   9  -2  156.82   10.72
   4  -9   2  125.11   11.79
  -4  -9   2  156.27   16.29
  -4  -9  -2  141.61   10.83
  -4   9   3   59.85    8.32
  -4   9  -3   68.36    7.58
   4  -9   3   70.30    8.79
  -4  -9  -3   79.16    8.15
  -4  -9  -4  255.07   13.46
  -4   9   4  201.21   15.39
  -4   9  -4  240.47   13.94
   4  -9   4  228.13   15.21
   4  -9   5    3.86    3.91
  -4  -9  -5    2.21    2.69
  -4   9  -5    2.50    2.57
  -4   9   5   -2.97    4.68
   4 -10   0  212.58   10.73
  -4 -10   0  255.72   18.27
   4 -10   1   48.68    5.45
   4 -10  -1   36.75    5.06
  -4 -10   1   47.34    9.99
  -4  10  -1   45.90    5.85
  -4 -10  -1   37.58    7.16
  -4  10   1   40.93    7.20
  -4 -10   2    2.91    6.09
   4 -10   2   -0.70    6.08
  -4 -10  -2   15.51    5.92
  -4  10   2    0.47    3.54
   4 -10  -2   -0.22    2.39
  -4  10  -2   -0.22    3.19
   4 -10  -3   47.04    6.87
  -4 -10   3   46.36   10.76
   4 -10   3   27.51    6.74
  -4  10  -3   40.74    6.10
  -4  10   3   30.95    6.93
  -4 -10  -3   41.50    6.34
   4 -10   4    6.33    5.16
  -4 -10  -4    4.52    3.00
  -4  10   4   -0.58    3.84
  -4  10  -4    5.65    3.67
   4  10  -5   -0.26    2.92
  -4 -10  -5    0.66    2.76
  -4  10  -5   -2.68    3.05
   4 -11   0  538.50   17.86
  -4 -11   0  582.58   27.79
   4 -11   1  149.24    9.34
   4 -11  -1  135.78    9.55
  -4  11  -1  146.41   10.75
  -4 -11   1  134.17   15.15
  -4 -11  -1  168.23   14.38
   4 -11  -2   44.62    6.37
  -4 -11   2   52.46   11.09
  -4  11  -2   39.85    6.07
  -4  11   2   39.58    7.84
  -4 -11  -2   46.47    7.43
  -4 -11   3   18.00    8.17
   4 -11   3   21.97   10.03
  -4 -11  -3   14.71    4.54
  -4  11   3   14.21    6.07
   4 -11  -3   16.00    4.94
  -4  11  -3   22.03    5.28
  -4 -11  -4  353.31   17.57
  -4  11   4  283.17   20.29
  -4  11  -4  341.07   17.78
  -4 -11   4  336.47   27.45
   4  11  -5   -1.72    3.31
  -4 -11  -5    4.19    3.78
   4 -12   0   32.46    5.27
  -4 -12   0   32.27    7.61
  -4 -12   1   -5.83    6.18
  -4 -12  -1    8.71    5.13
   4 -12  -1    4.80    3.15
  -4 -12   2    1.34    6.26
  -4 -12  -2    4.01    3.61
   4 -12  -2    2.18    2.77
  -4  12  -2    4.77    3.60
   4 -12  -3   41.55    6.88
  -4 -12   3   43.69   11.11
  -4  12  -3   41.38    6.92
  -4  12   3   32.22    8.26
  -4 -12  -3   54.21    8.22
  -4 -12  -4    5.56    3.37
   4 -13   0  119.43    9.98
  -4 -13   0  126.76   14.82
  -4 -13   1   -3.43    5.95
   4 -13  -1   -2.98    3.30
  -4 -13  -1    2.92    3.67
  -4 -13   2    4.58    6.36
  -4 -13  -2    3.60    3.79
   4 -13  -2    4.58    3.24
  -4  13  -2    2.06    3.33
   4 -13  -3   90.65    9.75
   4 -14   0    2.37    2.92
   4 -14  -1   12.19    4.29
   4 -14  -2   57.92    7.86
   4 -15  -1    3.32    3.44
  -5   0   0   -0.88    1.39
   5   0   0   -1.82    1.75
  -5   0   1   48.69    4.06
  -5   0  -1   36.00    4.43
   5   0   2   47.59    5.44
  -5   0   2   37.63    2.71
  -5   0  -2   29.89    3.53
  -5   0  -3    0.71    2.81
   5   0   3   11.13    4.21
   5   0   4  424.53   17.18
  -5   0  -4  342.83   16.63
   5   0   5   11.40    3.97
  -5   0  -5   19.33    5.73
   5   0   6   -2.26    3.17
  -5   1   0    0.00    1.53
   5  -1   0    0.19    1.32
  -5  -1   0    0.30    1.93
   5   1   1  845.30   17.77
   5  -1  -1  730.12    8.87
   5   1  -1  762.38   12.42
  -5   1   1  754.13   14.23
  -5   1  -1  801.69   18.60
  -5  -1  -1  783.58   19.61
  -5  -1   1  795.88   15.89
   5  -1   2   61.11    5.26
   5   1   2   61.03    5.59
  -5   1   2   56.37    3.36
  -5   1  -2   56.23    5.53
  -5  -1  -2   51.98    5.83
  -5   1   2   53.13    3.30
  -5  -1  -2   46.02    4.46
   5  -1   3  120.01    8.15
   5   1   3  135.65    9.15
   5   1   3  134.39    9.96
  -5   1  -3  113.45    8.67
  -5  -1  -3  111.66    9.58
   5  -1   4  109.86    8.90
   5   1   4   72.19    7.24
   5   1   4   84.93    8.60
  -5   1  -4  108.49   10.15
  -5  -1  -4   72.75    8.79
   5   1   5  650.77   23.22
   5  -1   5  599.34   20.00
   5   1   6    5.31    3.95
   5  -1   6    4.58    3.02
   5   1   6    8.26    4.13
  -5   1  -6    7.25    4.21
   5  -2   0   -0.81    1.29
  -5   2  -1  226.17    6.88
   5   2   1  235.37    9.54
   5   2  -1  252.70    7.40
  -5   2   1  200.24    7.70
  -5   2  -1  261.60   10.96
   5  -2  -1  190.59    4.05
  -5   2   2   24.63    2.59
   5  -2   2   24.05    3.26
  -5   2   2   29.05    2.78
   5   2   2   36.26    5.03
  -5   2  -2   21.10    3.59
   5  -2   3   54.67    5.18
  -5   2   3   50.04    2.96
   5   2   3   54.59    5.73
  -5   2  -3   61.24    6.64
  -5  -2  -3   52.79    4.13
   5   2   4   45.67    6.65
   5   2   4   46.31    5.95
  -5   2  -4   39.96    5.56
   5  -2   5   31.54    4.81
   5   2   5   47.57    7.80
   5   2   5   41.25    6.59
  -5   2  -5   35.81    6.42
   5  -2   6   45.79    6.13
   5   2   6   40.93    6.71
   5   2   6   41.53    7.05
  -5   2  -6   39.54    6.91
   5  -3   0   -0.09    0.91
  -5   3   0    1.75    1.50
  -5   3  -1 1076.45   15.21
   5   3  -1  993.77   14.29
  -5   3   1 1077.53   19.19
   5   3  -1  976.39   14.42
  -5   3  -1 1051.63   21.34
   5  -3  -1  986.41   12.13
  -5  -3  -1 1176.00   28.46
   5   3   1 1063.77   20.19
   5   3   2   12.96    3.10
  -5  -3  -2   11.78    3.18
  -5   3   2   16.47    2.60
  -5   3  -2   21.79    4.94
   5  -3   3  506.48   14.91
  -5   3   3  480.04   10.60
  -5   3  -3  497.83   17.58
   5   3   3  479.33   16.69
  -5  -3  -3  467.48   12.96
   5  -3   4   66.77    6.24
  -5   3  -4   49.87    6.37
   5   3   4   51.74    6.55
   5   3   5  286.42   17.22
   5   3   5  238.56   14.04
  -5   3  -5  218.11   14.14
   5  -3   5  243.27   12.44
   5   3   6    3.90    3.65
   5  -3   6    0.73    2.47
  -5   3  -6    0.91    3.31
   5   3   6    7.09    4.96
  -5   4   0    9.62    3.45
   5  -4   0    2.99    1.59
   5   4  -1   12.26    1.87
  -5   4  -1   22.21    2.64
  -5  -4  -1   19.60    5.20
   5  -4  -1   13.32    3.19
   5   4   1    8.80    2.23
  -5   4   1   14.60    2.81
   5   4   2   15.95    3.66
  -5  -4  -2   17.61    4.19
  -5   4   2   20.32    3.56
   5  -4   2   11.15    2.13
  -5   4  -2   15.02    3.33
   5   4  -2    6.94    1.12
  -5   4   3    3.59    1.80
  -5   4  -3    1.13    2.82
  -5   4  -4   72.65    7.39
   5   4   4   78.90    7.84
   5  -4   4   73.14    6.12
   5  -4   5    3.87    2.36
   5   4   5    5.08    3.32
  -5   4  -5    6.59    3.13
   5   4   5    3.66    3.89
   5   4   6   19.98    5.50
   5  -4   6   16.57    3.89
  -5   4  -6   20.44    5.65
   5   4   6   16.49    5.78
  -5   5   0   -0.46    1.63
  -5   5  -1  502.39   11.95
  -5   5   1  536.19   14.93
  -5   5  -1  519.03   16.38
   5  -5   1  537.14   12.76
  -5  -5  -1  610.66   24.54
  -5   5   2   92.21    6.10
  -5   5  -2   98.62    7.57
   5  -5   2  115.22    6.49
  -5  -5  -2  121.49    9.70
  -5   5  -3   48.64    6.00
   5   5   3   48.16    5.95
   5  -5   3   43.47    4.86
  -5  -5  -3   52.75    5.51
   5   5   4   57.78    7.18
  -5   5  -4   49.24    6.33
   5  -5   4   61.18    6.01
  -5   5  -5  412.97   19.19
   5  -5   5  487.11   17.84
   5   5   5  465.27   20.29
   5  -5   6    6.40    3.40
   5   5   6   11.96    4.69
  -5   5  -6    6.73    3.59
   5   5   6   16.80    6.12
  -5   6   0    2.88    2.53
  -5  -6   0    8.95    7.95
  -5   6   1  113.28    7.42
  -5   6   1  141.57    9.74
  -5   6  -1  119.63    8.30
   5  -6   1  112.46    6.74
  -5   6  -1  100.11    6.40
  -5  -6  -2    4.88    3.05
   5  -6   2   19.24    3.85
  -5   6  -3   32.45    5.32
   5  -6   3   27.58    3.90
  -5  -6  -3   29.78    4.54
  -5  -6  -4  188.99   10.02
  -5   6  -4  174.47   12.10
   5   6   4  162.53   11.18
   5  -6   4  178.93    9.90
   5   6   5   22.26    5.31
   5  -6   5   21.74    4.15
  -5   6  -5   17.05    4.25
  -5  -7   0   -4.33    4.91
   5  -7   0   -1.22    4.13
  -5   7   0   -1.94    2.22
  -5   7   0    0.25    1.90
  -5   7   1  509.36   17.63
  -5   7   1  525.75   16.48
  -5   7  -1  541.60   18.58
   5  -7   1  514.48   17.00
  -5  -7  -1  574.56   24.72
  -5  -7  -2   -2.49    3.57
   5  -7   2    1.19    2.22
  -5   7  -2    7.57    3.50
  -5   7   2   -0.24    2.61
  -5   7  -3  122.11    9.29
   5  -7   3  123.85    8.26
  -5  -7  -3  144.88   10.43
  -5  -7  -4   33.26    5.14
   5  -7   4   25.56    4.43
  -5   7  -4   18.03    4.21
   5   7   5  214.45   14.40
  -5   7  -5  188.61   12.89
   5  -7   5  209.37   12.61
  -5   8   0    1.63    2.60
  -5   8   0   -0.23    2.33
  -5  -8   1    4.06    5.23
   5  -8   1    4.63    3.99
  -5   8   1   -1.24    2.85
  -5   8  -1   -0.27    2.47
  -5   8   2   64.40    7.74
  -5   8  -2   70.04    7.32
   5  -8   2   64.12    7.22
  -5  -8  -2   87.12    9.32
  -5  -8  -3    0.79    2.65
   5  -8   3    1.60    2.61
  -5   8  -3    3.24    2.91
  -5   8   3   -1.79    4.00
  -5  -8  -4   18.36    4.06
   5  -8   4   11.24    3.71
  -5   8  -4   14.87    4.11
  -5   8   4   13.29    5.11
   5  -8   5    0.71    2.73
  -5   8  -5    4.19    3.46
  -5   8   5    2.23    4.31
  -5   9   0   -0.87    2.23
  -5   9   1  357.32   17.61
  -5   9  -1  420.92   17.60
   5  -9   1  383.83   23.05
  -5  -9   1  381.04   24.36
  -5  -9  -1  377.04   20.79
  -5   9   2   70.22    8.64
  -5   9  -2   89.85    8.93
   5  -9   2   68.36    9.37
  -5  -9   2   82.86   12.83
  -5  -9  -2   57.77    7.31
  -5   9   3   84.12    9.95
  -5   9  -3   87.23    8.90
   5  -9   3  110.46   10.41
  -5  -9  -3  101.31    9.40
  -5  -9  -4   35.11    5.57
   5  -9   4   28.94    5.87
  -5   9  -4   34.32    6.08
  -5   9   4   31.58    7.22
  -5 -10   0    1.09    4.38
   5 -10   0   -1.17    2.36
  -5  10   0    0.74    2.38
  -5 -10   1   34.65    9.52
  -5  10  -1   35.51    5.78
  -5  10   1   34.93    6.77
  -5 -10  -1   36.12    7.88
  -5 -10   2   -3.21    6.50
   5 -10   2    0.12    5.25
  -5  10   2    3.47    3.89
  -5  10  -2   -2.78    3.03
   5 -10   3   10.91    6.41
  -5 -10  -3    3.99    3.17
  -5  10   3    7.12    4.61
  -5  10  -3   11.36    4.75
  -5 -10   3    4.22    6.00
  -5 -10  -4   97.77    9.22
  -5  10   4   77.84   10.69
  -5  10  -4   79.95    8.71
   5 -10   4   81.51   10.37
  -5 -11   0   -2.67    5.37
   5 -11   0   -6.37    3.59
  -5  11   0    0.43    2.39
   5 -11  -1  149.36   10.66
  -5  11  -1  148.33   11.32
  -5 -11   1  149.90   17.37
  -5 -11  -1  163.80   15.53
  -5 -11  -2    0.38    3.28
  -5  11   2    2.23    3.95
  -5  11  -2    7.00    3.83
  -5 -11   3    8.27    8.17
   5 -11   3    4.81    6.49
  -5 -11  -3    1.88    3.14
  -5  11   3    0.93    4.04
  -5  11  -3    4.43    3.44
  -5 -11  -4    5.64    3.28
  -5 -12   0   -2.77    4.96
  -5  12   0    1.24    3.23
  -5 -12   1   -2.05    5.89
  -5 -12  -1    5.00    4.80
   5 -12  -1    0.82    3.02
  -5  12  -1    1.48    3.00
  -5 -12   2   13.15    7.73
  -5 -12  -2   13.65    5.08
   5 -12  -2   10.48    3.94
  -5  12  -2   13.80    5.08
  -5 -12  -3    4.67    3.72
  -5  12   3    3.00    5.08
   5 -12   3    2.46    7.52
  -5  13   0    2.42    3.02
   5 -13  -1  171.76   12.96
   5 -13  -2   39.06    6.56
  -6   0   0  162.53    9.72
   6   0  -1  109.67    4.94
  -6   0   1  119.58    7.03
   6   0   2  116.80    8.51
  -6   0  -2  106.86    9.15
  -6   0   2  100.71    5.47
   6   0   3  114.32    9.06
  -6   0  -3  100.86    9.20
   6   0   4  315.45   15.83
  -6   0  -4  253.90   16.09
   6   0   5   46.85    6.80
  -6   0  -5   49.31    8.37
   6   0   6    1.58    3.15
  -6   1   0  415.07   13.85
  -6  -1   0  378.26   14.15
   6  -1   1   43.15    4.42
   6   1   1   39.18    5.10
  -6   1   1   41.74    4.17
  -6   1  -1   35.93    4.67
  -6  -1  -1   37.96    5.24
   6  -1  -1   40.28    2.40
   6  -1   2    1.67    2.29
  -6   1   2   -1.53    1.35
  -6   1  -2    0.61    2.32
  -6  -1  -2   -1.56    2.63
   6   1   2    0.81    2.63
   6  -1   3  765.37   21.18
   6   1   3  814.15   25.18
  -6   1  -3  837.86   27.49
  -6  -1  -3  739.96   25.82
   6   1   3  784.22   22.98
   6  -1   4  183.75   11.11
   6   1   4  201.93   13.30
  -6   1  -4  165.33   12.54
  -6  -1  -4  177.05   13.83
   6   1   4  202.17   12.88
   6  -1   5    4.48    3.00
  -6   1  -5   -0.31    3.19
   6   1   5    1.69    3.16
  -6   2   0   27.50    5.01
   6  -2   1   29.73    3.28
   6   2   1   30.27    4.00
  -6   2   1   33.84    3.78
  -6   2  -1   27.69    4.03
  -6  -2  -1   27.28    5.43
   6  -2   2   65.96    5.29
   6   2   2   62.78    6.09
  -6   2   2   74.20    4.89
  -6   2  -2   69.44    7.07
  -6  -2  -2   56.25    5.94
   6  -2   3    9.35    2.96
  -6   2  -3    6.59    3.00
   6   2   3    5.88    3.31
   6   2   3    6.36    2.96
   6   2   4   49.97    6.63
   6   2   4   59.24    8.19
   6  -2   5   65.03    6.93
   6   2   5   68.04    8.48
   6   2   5   65.53    8.83
  -6   2  -5   67.85    8.86
   6   3   0  100.75    6.02
  -6   3   0   98.03    6.70
   6   3   1  108.75    7.19
  -6   3  -1  107.61    8.02
  -6  -3  -1  103.08    9.97
   6  -3   1  113.84    5.86
   6   3   2   11.28    3.31
  -6  -3  -2    5.43    2.73
   6  -3   2    4.65    1.90
  -6   3  -2    8.66    3.04
   6   3   3  376.72   15.87
  -6   3  -3  357.49   16.47
   6  -3   3  381.11   13.61
   6   3   4   86.05    9.61
   6   3   4   95.72    9.09
  -6   3  -4   90.96    8.97
   6  -3   4   94.62    7.58
   6   3   5   46.45    8.57
   6   3   5   50.26    7.94
  -6   3  -5   45.45    7.45
   6  -3   5   45.20    5.92
  -6   4   0  464.51   14.75
   6   4   0  460.37   12.81
  -6   4   1  110.70    7.14
  -6   4  -1  110.69    7.85
   6   4   1  134.07    8.42
  -6  -4  -1  105.52   10.47
   6  -4   1  132.67    6.68
  -6  -4  -2    7.96    3.48
   6  -4   2    6.34    2.04
  -6   4   2    1.89    1.66
  -6   4  -2    5.46    2.57
   6   4   2    6.13    2.75
  -6   4  -3   61.12    7.04
   6   4   3   70.06    7.15
   6  -4   3   73.70    6.05
   6   4   4   -2.79    3.35
   6  -4   4    0.64    2.19
  -6   4  -4    4.03    3.07
   6   4   5   52.09    8.66
   6   4   5   61.52    8.00
  -6   4  -5   57.17    7.59
   6  -4   5   55.67    6.13
  -6   5   0  487.76   16.49
   6   5   0  511.58   14.16
   6   5   1  568.38   17.38
  -6   5   1  529.10   16.13
  -6   5  -1  503.38   16.89
   6  -5   1  535.32   13.44
  -6  -5  -1  567.29   25.56
   6  -5   2    2.10    1.69
   6   5   2    3.59    3.18
  -6   5   2    2.07    1.92
  -6   5  -2    2.65    2.36
  -6   5  -3   86.31    8.27
   6  -5   3  100.55    7.40
   6   5   3   89.67    8.33
  -6   5  -4  127.78   10.44
   6   5   4  140.36   11.12
  -6   5  -5   35.71    6.49
   6   5   5   36.72    6.55
   6  -5   5   41.98    6.18
  -6   6   0  452.81   14.98
   6   6   0  418.49   13.52
  -6   6   0  462.42   16.76
  -6  -6   0  492.39   25.98
  -6  -6  -1    3.25    4.09
   6  -6   1    2.87    2.09
   6   6   1    1.98    2.18
  -6   6   1    3.27    2.39
  -6   6  -1    1.45    2.14
   6   6   2   19.32    4.08
  -6  -6  -2   16.93    4.41
  -6   6   2   18.49    3.44
   6   6   3    0.65    2.65
   6  -6   3   -0.91    2.08
  -6   6  -3   -2.07    2.76
   6   6   4    8.22    4.09
   6  -6   4    6.39    3.01
  -6   6  -4    4.87    3.39
   6  -6   5   19.22    3.98
  -6   6  -5   21.97    5.34
   6   6   5   25.59    5.78
  -6   7   0   67.74    6.88
  -6  -7   0   73.80   10.61
  -6   7   1  108.09    9.06
  -6   7   1  109.87    8.42
  -6   7  -1  110.35    9.11
   6  -7   1  112.32    8.62
  -6  -7  -1  120.87   12.31
  -6  -7  -2    1.23    3.28
   6  -7   2    1.36    2.16
  -6   7   2    3.00    2.53
  -6   7  -2   -0.26    2.30
  -6   7   2    4.06    3.44
  -6   7  -3  246.12   14.14
   6   7   3  254.27   14.07
   6  -7   3  267.93   12.26
  -6  -7  -3  267.92   14.52
   6   7   4   42.37    6.86
  -6   7  -4   52.43    8.00
   6  -7   4   38.26    5.67
  -6  -8   0   17.53    6.90
  -6   8   0   14.78    4.22
  -6   8   1   87.89    8.42
  -6   8   1   89.74    7.82
  -6   8  -1   93.88    8.84
   6  -8   1   75.13    8.45
  -6  -8   1   87.12   13.53
  -6  -8  -1  103.39   12.11
  -6   8   2   87.22    9.35
  -6   8   2   78.35    7.22
  -6   8  -2   85.59    8.70
   6  -8   2   74.24    7.94
  -6  -8  -2   95.27   10.59
  -6  -8  -3   11.07    4.33
   6  -8   3   11.09    3.84
  -6   8  -3   10.03    3.41
  -6   8   3   10.00    4.59
  -6   8   4   49.80    8.38
   6   8   4   47.47    7.18
  -6   8  -4   49.87    7.44
   6  -8   4   41.04    6.06
  -6   9   0  112.84    9.91
  -6  -9   0  123.96   15.30
  -6  -9   1   -0.45    4.84
   6  -9   1   -4.73    6.55
  -6   9   1    3.10    3.46
  -6   9   1   -3.23    2.87
  -6   9  -1    1.75    2.91
  -6  -9   2    5.41    6.94
  -6  -9  -2    7.46    4.33
   6  -9   2    3.30    4.20
  -6   9   2    4.33    2.72
  -6   9  -2    1.34    3.03
  -6   9   2    3.84    3.44
  -6   9   3  288.12   18.22
  -6   9  -3  279.12   15.63
   6  -9   3  293.45   16.81
  -6  -9  -3  329.59   17.44
  -6   9   4   71.88   10.24
   6  -9   4   73.11    9.05
  -6 -10   0   31.67    8.83
  -6  10   0   31.71    5.68
  -6 -10   1    1.69    6.17
  -6 -10  -1    3.45    4.02
  -6  10   1    4.34    3.11
  -6  10  -1    5.04    4.54
  -6 -10   2   55.11   12.71
   6 -10   2   24.72    6.94
  -6  10   2   36.81    5.79
  -6  10  -2   43.90    6.87
  -6  10   2   34.27    6.78
  -6 -10  -2   38.17    6.93
   6 -10   3    3.60    4.76
  -6 -10  -3   -1.14    2.96
  -6  10   3    3.15    4.49
  -6  10  -3   -0.28    2.92
  -6 -11   0   42.04    9.72
  -6  11   0   39.11    6.35
  -6 -11   1   49.77   12.01
  -6  11   1   41.23    6.45
  -6  11  -1   51.37    7.70
  -6 -11  -1   45.35    9.31
  -6 -11  -2    4.59    4.27
  -6  11   2   -1.90    4.69
   6 -11   2   -9.93    7.99
  -6  11  -2   -1.49    3.36
  -6  11   3  184.06   16.60
   6 -11   3  150.67   15.49
  -6  12   0   54.34    7.64
  -6  12   1    0.26    2.70
  -7   0   0   17.30    4.45
   7   0   1   36.98    5.00
  -7   0  -1   44.49    6.30
  -7   0   1   22.33    3.79
   7   0   2  256.09   12.80
  -7   0  -2  218.46   13.49
   7   0   3   15.75    4.00
  -7   0  -3   14.23    4.68
   7   0   4   15.26    4.76
  -7   0  -4    8.79    4.36
   7   0   5   58.32    7.62
  -7   0  -5   58.89    9.34
  -7   1   0    0.40    1.96
  -7  -1   0    0.14    2.31
   7   1   0   -0.40    2.15
   7  -1   1   15.85    2.99
  -7   1   1    9.10    2.61
  -7   1  -1   12.48    3.58
  -7  -1  -1   10.48    3.88
   7   1   1   14.56    3.78
   7  -1   2  191.08   10.17
   7   1   2  198.79   12.34
  -7   1  -2  202.94   13.77
  -7  -1  -2  178.55   13.23
   7  -1   3   21.96    4.32
  -7   1  -3   21.54    5.17
  -7  -1  -3   20.12    5.51
   7   1   3   14.24    4.13
   7  -1   4  143.03   10.20
   7   1   4  147.17   11.82
  -7   1  -4  123.18   11.61
   7  -1   5   22.71    5.07
   7   1   5   24.22    5.63
  -7   1  -5   22.51    6.36
  -7   2   0   -1.47    2.10
   7  -2   1    3.31    1.69
  -7   2   1    4.03    2.04
  -7   2  -1    3.11    2.05
   7  -2   2  451.78   14.04
   7   2   2  465.87   19.07
  -7   2  -2  425.97   17.78
   7  -2   3    1.18    2.17
  -7   2  -3    1.50    2.73
   7   2   3    1.59    3.67
   7   2   3    0.98    2.80
   7  -2   4   11.90    3.58
  -7   2  -4   14.83    5.04
   7   2   4   12.79    5.16
   7   2   4   11.94    4.45
   7  -2   5    3.43    3.13
   7   2   5    9.19    5.03
  -7   3   0   -0.84    1.88
   7  -3   1   13.31    2.42
  -7   3   1   12.25    2.96
  -7   3  -1   15.38    3.86
  -7  -3  -1   24.98    7.61
   7   3   1   28.46    5.26
   7   3   2  412.22   16.63
  -7   3  -2  437.49   18.36
   7  -3   2  453.25   13.86
   7   3   3   13.34    4.35
   7   3   3   13.07    5.00
   7  -3   3   27.02    4.93
  -7   3  -4   35.11    6.50
   7   3   4   22.81    5.36
   7   3   4   22.48    6.44
   7  -3   4   34.69    5.31
   7  -3   5   13.02    3.78
   7   3   5    7.59    5.21
  -7   4   0    1.59    2.47
   7   4   0    0.90    1.86
   7   4   1   61.87    6.21
  -7   4   1   61.80    5.82
  -7   4  -1   54.41    6.33
  -7  -4  -1   51.86    8.46
   7  -4   1   54.75    4.34
   7   4   2  207.05   11.82
  -7   4  -2  199.67   12.29
   7  -4   2  209.27    9.31
   7   4   3    1.81    2.69
   7  -4   3    1.02    1.82
  -7   4  -3    3.56    3.06
   7   4   4   13.59    4.82
   7  -4   4   11.74    3.12
  -7   4  -4    2.77    3.22
   7   4   4    8.69    5.08
   7  -4   5    6.75    3.04
  -7  -5   0   -2.73    5.18
  -7   5   0    2.55    2.45
  -7  -5  -1    9.11    5.77
   7   5   1   10.17    2.88
  -7   5   1   11.65    2.89
  -7   5  -1   17.85    4.31
  -7   5  -2   78.48    8.02
   7   5   2   75.19    7.32
   7  -5   2   81.03    5.89
   7   5   3   17.13    4.40
   7  -5   3   19.55    3.82
  -7   5  -3   17.19    4.52
   7   5   4  118.48   10.82
  -7   5  -4  120.44   11.64
   7  -5   4  129.46    9.57
  -7  -6   0   -0.89    4.80
  -7   6   0   -0.59    2.23
  -7   6   1    0.23    2.12
  -7   6  -1   -0.77    2.43
   7   6   1    4.01    2.81
  -7   6  -2  224.39   13.81
   7   6   2  212.56   12.30
   7  -6   2  214.36   10.39
   7  -6   3   14.33    3.53
  -7   6  -3   18.68    4.82
   7   6   3   18.79    5.01
  -7   6  -4   29.58    6.02
   7   6   4   26.60    5.78
   7  -6   4   28.75    4.96
  -7  -7   0    0.30    5.42
  -7  -7  -1   13.79    6.20
   7   7   1    4.27    2.63
  -7   7   1    6.00    2.98
  -7   7  -1    4.01    2.65
  -7  -7   1    2.97    5.69
   7   7   2  206.63   12.96
  -7   7   2  211.44   14.26
  -7   7  -2  189.61   12.51
   7  -7   2  185.87   10.67
  -7   7  -3   28.93    7.63
   7  -7   4   38.24    5.75
  -7  -8   0   -0.96    5.41
  -7   8   0    0.32    2.60
   7   8   1   48.02    6.08
  -7   8   1   59.66    6.94
  -7   8  -1   53.26    7.16
  -7  -8   1   57.72   12.23
  -7  -8  -1   52.79    9.88
   7   8   2  150.09   11.37
  -7   8   2  159.70   12.94
  -7   8  -2  159.75   12.11
  -7  -8  -2  165.81   14.45
   7  -8   3    9.77    4.17
  -7   8  -3   16.22    5.05
   7   8   3   13.66    4.68
  -7   8   3   15.90    6.46
   7  -8   4    1.86    3.21
  -7  -9   0    1.54    5.44
  -7   9   0    0.42    2.87
  -7  -9   1   18.59    8.14
  -7   9   1   29.54    6.24
  -7   9  -1   18.90    4.55
  -7  -9  -1   31.98   10.93
  -7   9   2   77.00    8.48
  -7   9  -2   83.29    8.91
   7   9   2   76.77    8.24
  -7  -9   2   69.71   14.35
  -7  -9  -2   80.98    9.87
   7  -9   3   -4.23    4.42
   7   9   3    6.97    4.75
  -7   9   3   -9.54    5.62
  -7 -10   0   26.09    8.69
  -7  10   0    0.65    2.87
  -7 -10  -1    2.24    4.52
  -7  10   1    0.01    3.10
  -7  10  -1    2.94    3.40
  -7  10   2   69.18    7.81
  -7 -10  -2   84.01   10.19
  -7  10   3    3.81    4.55
  -7  11   0   -2.18    3.53
  -7  11   1    4.07    3.49
  -8   0   0  186.49   11.70
  -8   0  -1   65.18    7.68
   8   0   2   -0.77    2.48
  -8   0  -2   -0.40    3.17
   8   0   3  202.78   12.49
  -8   0  -3  184.44   14.96
   8   0   4   31.12    5.85
  -8   0  -4   35.78    7.57
  -8   1   0   35.80    5.45
   8  -1   2   88.20    7.07
   8   1   2   80.23    8.19
  -8   1  -2   84.42    9.28
   8  -1   3   25.81    4.52
  -8   1  -3   23.14    5.74
   8   1   3   26.69    5.35
   8  -1   4   40.16    6.04
   8   1   4   40.98    6.79
  -8   1  -4   37.05    7.35
  -8   2   0   73.68    7.26
  -8   2  -1   59.05    7.29
  -8   2  -2   -1.85    3.48
   8   2   2   -3.17    3.89
   8  -2   3  264.83   12.82
   8   2   3  258.02   16.37
  -8   2  -3  241.57   16.64
   8  -2   4   21.92    4.57
   8   2   4   22.41    5.96
  -8   3   0   21.87    4.48
  -8   3  -1    0.01    2.48
   8   3   2   55.27    8.31
  -8   3  -2   41.34    6.37
   8  -3   3    1.46    2.17
  -8   3  -3    0.73    3.03
   8   3   3   -0.39    3.93
   8  -3   4    2.39    2.81
   8   3   4    2.83    4.82
  -8   4   0   58.55    6.47
  -8   4  -1  133.96   10.22
  -8   4  -2   22.56    5.23
   8   4   2   30.03    5.76
   8   4   3   38.56    6.54
   8   4   3   39.64    7.59
  -8   4  -3   31.30    6.08
   8  -4   3   40.81    5.11
   8  -4   4   87.53    7.97
  -8   5   0  268.83   14.01
  -8  -5   0  268.18   21.11
  -8   5  -1   55.73    7.12
  -8   5  -2    3.29    4.16
   8   5   2   -2.79    3.20
  -8   5  -3    1.38    3.37
   8   5   3   -2.65    3.67
   8  -5   4    2.18    2.67
  -8  -6   0    2.16    6.06
  -8   6   0   -0.03    2.61
  -8   6  -1  223.38   14.02
   8   6   2    4.31    2.86
  -8   6  -2   11.86    4.07
   8   6   3   65.85    8.26
  -8  -7   0   31.82    9.24
  -8   7   0   29.34    5.22
  -8  -7   1   -2.36    6.44
  -8   7  -1    0.41    2.70
   8   7   2   18.79    4.47
  -8   7  -2   34.27    8.28
   8   7   3    0.91    3.15
  -8   8   0   80.95    8.45
  -8  -8   0   85.85   13.80
  -8  -8   1    2.03    5.63
  -8   8  -1    5.15    3.44
  -8   9   0    2.15    2.94
  -9   0  -2   12.48    5.15
  -9   1  -2   14.86    5.43
  -9   2  -1  127.40   11.27
  -9   2  -2    6.29    3.59
  -9   3  -1   12.24    4.31
  -9   3  -2   19.28    5.80
   9   3   3   -1.98    4.11
  -9   4  -1  109.36   10.10
  -9   4  -2   29.45    6.11
  -9   5  -1    1.75    3.15
  -9   6  -1   56.57    7.55
   0   0   0    0.00    0.00

_computing_structure_solution     'SHELXT 2018/2 (Sheldrick, 2018)'
;
_shelx_hkl_checksum              6993
_olex2_submission_special_instructions 'No special instructions were received'
loop_
_space_group_symop_operation_xyz
'x, y, z'
'-x+1/2, -y, z+1/2'
'-x, y+1/2, -z'
'x+1/2, -y+1/2, -z+1/2'
'-x, -y, -z'
'x-1/2, y, -z-1/2'
'x, -y-1/2, z'
'-x-1/2, y-1/2, z-1/2'
loop_
_atom_site_label
_atom_site_type_symbol
_atom_site_fract_x
_atom_site_fract_y
_atom_site_fract_z
_atom_site_U_iso_or_equiv
_atom_site_adp_type
_atom_site_occupancy
_atom_site_site_symmetry_order
_atom_site_calc_flag
_atom_site_refinement_flags_posn
_atom_site_refinement_flags_adp
_atom_site_refinement_flags_occupancy
_atom_site_disorder_assembly
_atom_site_disorder_group
P001 P 0.33904(8) 0.250000 0.59366(8) 0.0215(2) Uani 1 2 d S T P . .
Cl02 Cl 0.55039(11) 0.250000 0.37515(11) 0.0453(3) Uani 1 2 d S T P . .
O003 O 0.2980(2) 0.51500(13) 0.8936(2) 0.0463(4) Uani 1 1 d . . . . .
N004 N 0.4187(2) 0.35326(13) 0.7473(2) 0.0291(4) Uani 1 1 d . . . . .
C005 C 0.3505(2) 0.43416(15) 0.8179(3) 0.0296(4) Uani 1 1 d . . . . .
loop_
_atom_site_aniso_label
_atom_site_aniso_U_11
_atom_site_aniso_U_22
_atom_site_aniso_U_33
_atom_site_aniso_U_23
_atom_site_aniso_U_13
_atom_site_aniso_U_12
P001 0.0196(3) 0.0212(3) 0.0236(3) 0.000 -0.0013(2) 0.000
Cl02 0.0454(5) 0.0509(5) 0.0394(4) 0.000 0.0207(3) 0.000
O003 0.0538(9) 0.0324(9) 0.0526(8) -0.0153(6) 0.0033(7) 0.0055(7)
N004 0.0275(8) 0.0243(8) 0.0354(7) -0.0027(5) -0.0047(7) -0.0002(6)
C005 0.0331(10) 0.0260(9) 0.0295(8) -0.0023(7) -0.0024(7) -0.0026(7)
loop_
_atom_type_symbol
_atom_type_description
_atom_type_scat_dispersion_real
_atom_type_scat_dispersion_imag
_atom_type_scat_source
C C 0.0033 0.0016 'International Tables Vol C Tables 4.2.6.8 and 6.1.1.4'
N N 0.0061 0.0033 'International Tables Vol C Tables 4.2.6.8 and 6.1.1.4'
O O 0.0106 0.0060 'International Tables Vol C Tables 4.2.6.8 and 6.1.1.4'
P P 0.1023 0.0942 'International Tables Vol C Tables 4.2.6.8 and 6.1.1.4'
Cl Cl 0.1484 0.1585 'International Tables Vol C Tables 4.2.6.8 and 6.1.1.4'
loop_
_exptl_crystal_face_index_h
_exptl_crystal_face_index_k
_exptl_crystal_face_index_l
_exptl_crystal_face_perp_dist
_exptl_oxdiff_crystal_face_indexfrac_h
_exptl_oxdiff_crystal_face_indexfrac_k
_exptl_oxdiff_crystal_face_indexfrac_l
_exptl_oxdiff_crystal_face_x
_exptl_oxdiff_crystal_face_y
_exptl_oxdiff_crystal_face_z
8 -3 5 0.1138 8.0548 -2.9271 5.0324 0.8023 -0.1898 -0.5403
5 14 -3 0.2000 4.9588 14.0673 -2.9965 -0.1173 -0.9976 0.0605
2 4 -8 0.1492 1.9943 4.0231 -8.0157 -0.0814 -0.5294 0.7791
-9 7 0 0.1360 -9.0819 6.9244 -0.0224 -0.9522 0.2200 -0.0541
-7 -9 -4 0.2635 -6.9910 -9.0806 -4.0265 -0.3026 0.6884 0.6217
-4 -13 -5 0.2563 -3.9551 -13.0580 -5.0215 0.0583 0.6589 0.7741
4 -8 -7 0.1729 4.0634 -7.9750 -7.0075 0.4977 -0.0893 0.8539
4 14 3 0.1853 3.9510 14.0591 3.0163 -0.1184 -0.7619 -0.5760
1 -11 7 0.1696 1.0564 -11.0049 7.0210 0.5442 0.6318 -0.5779
1 -16 -4 0.2244 1.0856 -16.0146 -4.0065 0.5702 0.5271 0.6825
-1 -2 -9 0.1884 -0.9916 -2.0144 -9.0251 -0.1290 -0.1190 1.0039
-1 16 3 0.2040 -1.0852 16.0143 3.0040 -0.5833 -0.5566 -0.5753
-1 13 -6 0.2019 -1.0666 13.0080 -6.0186 -0.5990 -0.6902 0.4382
5 2 -8 0.1218 5.0200 2.0488 -8.0083 0.2247 -0.6174 0.7917
8 9 1 0.1467 7.9975 9.0895 1.0213 0.3428 -0.8356 -0.3068
-3 -8 7 0.1869 -2.9795 -8.0387 7.0111 0.1247 0.7344 -0.6002
-10 5 0 0.1442 -10.0773 4.9120 -0.0247 -0.9637 0.3667 -0.0149
1 7 8 0.2316 0.9674 7.0214 8.0222 -0.0537 -0.1305 -0.9781
loop_
_geom_angle_atom_site_label_1
_geom_angle_atom_site_label_2
_geom_angle_atom_site_label_3
_geom_angle
_geom_angle_site_symmetry_1
_geom_angle_site_symmetry_3
_geom_angle_publ_flag
N004 P001 Cl02 97.87(6) 7_565 . ?
N004 P001 Cl02 97.87(6) . . ?
N004 P001 N004 96.15(11) 7_565 . ?
C005 N004 P001 133.92(15) . . ?
O003 C005 N004 174.4(2) . . ?
loop_
_geom_bond_atom_site_label_1
_geom_bond_atom_site_label_2
_geom_bond_distance
_geom_bond_site_symmetry_2
_geom_bond_publ_flag
P001 Cl02 2.0645(9) . ?
P001 N004 1.6969(16) 7_565 ?
P001 N004 1.6970(16) . ?
O003 C005 1.163(2) . ?
N004 C005 1.193(3) . ?
loop_
_geom_torsion_atom_site_label_1
_geom_torsion_atom_site_label_2
_geom_torsion_atom_site_label_3
_geom_torsion_atom_site_label_4
_geom_torsion
_geom_torsion_site_symmetry_1
_geom_torsion_site_symmetry_2
_geom_torsion_site_symmetry_3
_geom_torsion_site_symmetry_4
_geom_torsion_publ_flag
Cl02 P001 N004 C005 130.5(2) . . . . ?
N004 P001 N004 C005 -130.62(17) 7_565 . . . ?
