#------------------------------------------------------------------------------
#$Date: 2020-12-19 05:34:09 +0200 (Sat, 19 Dec 2020) $
#$Revision: 260002 $
#$URL: file:///home/coder/svn-repositories/cod/cif/7/70/61/7706153.cif $
#------------------------------------------------------------------------------
#
# This file is available in the Crystallography Open Database (COD),
# http://www.crystallography.net/
#
# All data on this site have been placed in the public domain by the
# contributors.
#
data_7706153
loop_
_publ_author_name
'Kiriukhina, Galina V.'
'Yakubovich, Olga V.'
'Shvanskaya, Larisa V.'
'Ovchenkov, Yevgeniy A.'
'Volkov, Anatoly S.'
'Dimitrova, Olga V.'
'Simonov, Sergey V.'
'Vasiliev, Alexander N.'
_publ_section_title
;
 Crystal structure and thermodynamic properties of dinickel diphosphate
 dihydrate
 Ni<sub>2</sub>(H<sub>2</sub>O)<sub>2</sub>[P<sub>2</sub>O<sub>7</sub>].
;
_journal_issue                   47
_journal_name_full
'Dalton transactions (Cambridge, England : 2003)'
_journal_page_first              17368
_journal_page_last               17374
_journal_paper_doi               10.1039/d0dt03505j
_journal_volume                  49
_journal_year                    2020
_chemical_formula_moiety         'Ni2 P2 O7,(H2O)2'
_chemical_formula_sum            'H4 Ni2 O9 P2'
_chemical_formula_weight         327.39
_chemical_name_common            'nickel diphosphate hydrate'
_chemical_name_systematic        'dinickel diphosphate dihydrate'
_space_group_crystal_system      monoclinic
_space_group_IT_number           14
_space_group_name_Hall           '-P 2yn'
_space_group_name_H-M_alt        'P 1 21/n 1'
_atom_sites_solution_hydrogens   difmap
_audit_creation_method           SHELXL-2014/7
_cell_angle_alpha                90
_cell_angle_beta                 94.507(2)
_cell_angle_gamma                90
_cell_formula_units_Z            4
_cell_length_a                   6.25170(10)
_cell_length_b                   13.7892(3)
_cell_length_c                   7.2894(2)
_cell_measurement_reflns_used    4732
_cell_measurement_temperature    164(2)
_cell_measurement_theta_max      32.3990
_cell_measurement_theta_min      3.1610
_cell_volume                     626.45(2)
_computing_cell_refinement       'CrysAlisPro 1.171.40.67a (Rigaku OD, 2019)'
_computing_data_collection       'CrysAlisPro 1.171.40.67a (Rigaku OD, 2019)'
_computing_data_reduction        'CrysAlisPro 1.171.40.67a (Rigaku OD, 2019)'
_computing_molecular_graphics    'DIAMOND (Brandenburg, 2006)'
_computing_structure_refinement  'SHELXL-2014/7 (Sheldrick, 2014)'
_computing_structure_solution    'SHELXS (Sheldrick, 2015)'
_diffrn_ambient_temperature      164(2)
_diffrn_detector_area_resol_mean 5.2283
_diffrn_measured_fraction_theta_full 0.999
_diffrn_measured_fraction_theta_max 0.999
_diffrn_measurement_device_type  'Xcalibur, AtlasS2, Gemini'
_diffrn_measurement_method       '\w scans'
_diffrn_radiation_type           MoK\a
_diffrn_radiation_wavelength     0.71073
_diffrn_reflns_av_R_equivalents  0.0177
_diffrn_reflns_av_unetI/netI     0.0185
_diffrn_reflns_Laue_measured_fraction_full 0.999
_diffrn_reflns_Laue_measured_fraction_max 0.999
_diffrn_reflns_limit_h_max       8
_diffrn_reflns_limit_h_min       -8
_diffrn_reflns_limit_k_max       19
_diffrn_reflns_limit_k_min       -19
_diffrn_reflns_limit_l_max       10
_diffrn_reflns_limit_l_min       -10
_diffrn_reflns_number            6852
_diffrn_reflns_point_group_measured_fraction_full 0.999
_diffrn_reflns_point_group_measured_fraction_max 0.999
_diffrn_reflns_theta_full        25.242
_diffrn_reflns_theta_max         29.991
_diffrn_reflns_theta_min         2.954
_diffrn_source                   'Enhance (Mo) X-ray Source'
_exptl_absorpt_coefficient_mu    6.548
_exptl_absorpt_correction_T_max  0.957
_exptl_absorpt_correction_T_min  0.886
_exptl_absorpt_correction_type   analytical
_exptl_absorpt_process_details
;
CrysAlisPro 1.171.40.67a (Rigaku Oxford Diffraction, 2019)
Analytical numeric absorption correction using a multifaceted crystal
model based on expressions derived by R.C. Clark & J.S. Reid.
(Clark, R. C. & Reid, J. S. (1995). Acta Cryst. A51, 887-897)
Empirical absorption correction using spherical harmonics,
 implemented in SCALE3 ABSPACK scaling algorithm.
;
_exptl_crystal_colour            'pale green'
_exptl_crystal_density_diffrn    3.471
_exptl_crystal_density_meas      ?
_exptl_crystal_description       flattened
_exptl_crystal_F_000             648
_exptl_crystal_size_max          0.100
_exptl_crystal_size_mid          0.080
_exptl_crystal_size_min          0.029
_refine_diff_density_max         0.559
_refine_diff_density_min         -0.394
_refine_diff_density_rms         0.091
_refine_ls_extinction_coef       0.0016(3)
_refine_ls_extinction_expression Fc^*^=kFc[1+0.001xFc^2^\l^3^/sin(2\q)]^-1/4^
_refine_ls_extinction_method     'SHELXL-2014/7 (Sheldrick 2014'
_refine_ls_goodness_of_fit_ref   1.125
_refine_ls_hydrogen_treatment    refall
_refine_ls_matrix_type           full
_refine_ls_number_parameters     135
_refine_ls_number_reflns         1822
_refine_ls_number_restraints     0
_refine_ls_restrained_S_all      1.125
_refine_ls_R_factor_all          0.0191
_refine_ls_R_factor_gt           0.0160
_refine_ls_shift/su_max          0.001
_refine_ls_shift/su_mean         0.000
_refine_ls_structure_factor_coef Fsqd
_refine_ls_weighting_details
'w=1/[\s^2^(Fo^2^)+(0.0157P)^2^+0.3800P] where P=(Fo^2^+2Fc^2^)/3'
_refine_ls_weighting_scheme      calc
_refine_ls_wR_factor_gt          0.0383
_refine_ls_wR_factor_ref         0.0389
_reflns_Friedel_coverage         0.000
_reflns_number_gt                1700
_reflns_number_total             1822
_reflns_threshold_expression     'I > 2\s(I)'
_cod_data_source_file            d0dt03505j1.cif
_cod_data_source_block           shelx
_cod_depositor_comments
;
The following automatic conversions were performed:

data item '_exptl_crystal_density_meas' value 'not measured' was
changed to '?' -- the value is perceived as not measured.

Automatic conversion script
Id: cif_fix_values 7556 2019-12-06 15:28:31Z antanas 
;
_cod_original_sg_symbol_H-M      'P 21/n'
_cod_database_code               7706153
_shelx_shelxl_version_number     2014/7
_shelx_space_group_comment
;
The symmetry employed for this shelxl refinement is uniquely defined
by the following loop, which should always be used as a source of
symmetry information in preference to the above space-group names.
They are only intended as comments.
;
_shelx_estimated_absorpt_t_min   0.560
_shelx_estimated_absorpt_t_max   0.833
_shelx_res_file
;

    shelx.res created by SHELXL-2014/7


TITL 2man7_125 in P2(1)/n
CELL  0.71073   6.2517  13.7892   7.2894   90.000   94.507   90.000
ZERR     4.00   0.0001   0.0003   0.0002    0.000    0.002    0.000
LATT   1
SYMM  1/2 - X, 1/2 + Y, 1/2 - Z
SFAC  H  O P NI
UNIT  16 36 8 8
MERG 2
OMIT -3 60
OMIT -1 0 3
FMAP 2
ACTA
L.S. 10
PLAN 30
TEMP 25
BOND $H
EQIV $1 -x+1/2, y-1/2, -z+3/2
HTAB O8 O6_$1
EQIV $2 -x, -y, -z+1
HTAB O8 O4_$2
EQIV $4 x, y, z+1
HTAB O9 O3_$4
EQIV $5 x+1/2, -y+1/2, z+1/2
HTAB O9 O6_$5
SIZE 0.1x0.08x0.029
WGHT    0.015700    0.380000
EXTI    0.001571
FVAR       1.53645
NI1   4    0.267528    0.114350    0.584973    11.00000    0.00336    0.00409 =
         0.00397   -0.00010    0.00028    0.00005
NI2   4    0.047561    0.249961    0.851858    11.00000    0.00333    0.00437 =
         0.00405   -0.00039    0.00031   -0.00011
P2    3    0.260315    0.416744    0.149486    11.00000    0.00290    0.00368 =
         0.00376    0.00017    0.00012   -0.00017
P1    3    0.064213    0.311994    0.430208    11.00000    0.00317    0.00370 =
         0.00356    0.00034    0.00030    0.00004
O1    2    0.166879    0.407806    0.348154    11.00000    0.00453    0.00456 =
         0.00420    0.00023    0.00136   -0.00042
O2    2   -0.140620    0.290780    0.307873    11.00000    0.00362    0.00613 =
         0.00587    0.00078   -0.00083   -0.00118
O3    2    0.228833    0.230729    0.407786    11.00000    0.00409    0.00452 =
         0.00805    0.00150    0.00125    0.00135
O4    2    0.195818    0.022552    0.374921    11.00000    0.00643    0.00448 =
         0.00610   -0.00095   -0.00062    0.00027
O5    2    0.085451    0.372819    0.016412    11.00000    0.00457    0.00548 =
         0.00525   -0.00118   -0.00041   -0.00119
O6    2    0.029286    0.338844    0.625596    11.00000    0.00776    0.00563 =
         0.00382   -0.00011    0.00024    0.00020
O7    2    0.465392    0.356497    0.160578    11.00000    0.00407    0.00490 =
         0.00665    0.00114    0.00096    0.00081
O8    2    0.257587    0.005665    0.776909    11.00000    0.00751    0.00698 =
         0.01069    0.00235    0.00008    0.00067
O9    2    0.063190    0.148827    1.060830    11.00000    0.00834    0.01187 =
         0.00683    0.00197   -0.00007   -0.00012
H1    1    0.342855   -0.040422    0.801625    11.00000    0.03674
H2    1    0.137002   -0.019686    0.772439    11.00000    0.04843
H3    1    0.083747    0.169755    1.165858    11.00000    0.06976
H4    1    0.160157    0.111008    1.039364    11.00000    0.09448

HKLF    4

REM  2man7_125 in P2(1)/n
REM R1 =  0.0160 for    1700 Fo > 4sig(Fo)  and  0.0191 for all    1822 data
REM    135 parameters refined using      0 restraints

END

WGHT      0.0163      0.3634

REM Highest difference peak  0.559,  deepest hole -0.394,  1-sigma level  0.091
Q1    1   0.0349  0.3236  0.5362  11.00000  0.05    0.56
Q2    1   0.2221  0.4074  0.2635  11.00000  0.05    0.48
Q3    1  -0.0448  0.3037  0.3588  11.00000  0.05    0.38
Q4    1   0.2010 -0.0303  0.3964  11.00000  0.05    0.37
Q5    1   0.2091  0.4180  0.3911  11.00000  0.05    0.35
Q6    1   0.1639  0.3937  0.0815  11.00000  0.05    0.35
Q7    1   0.1649  0.1554  1.1369  11.00000  0.05    0.34
Q8    1   0.3697  0.3857  0.1798  11.00000  0.05    0.34
Q9    1   0.1562  0.2540  0.9264  11.00000  0.05    0.33
Q10   1   0.1524  0.1170  0.5396  11.00000  0.05    0.33
Q11   1   0.3859  0.1156  0.6395  11.00000  0.05    0.32
Q12   1  -0.0097  0.2587  0.9392  11.00000  0.05    0.32
Q13   1   0.1783  0.3606  0.3582  11.00000  0.05    0.32
Q14   1   0.2496  0.0535  0.3777  11.00000  0.05    0.29
Q15   1   0.0250  0.3731  0.6372  11.00000  0.05    0.28
Q16   1  -0.0336  0.3631  0.6190  11.00000  0.05    0.28
Q17   1   0.2716  0.0599  0.5622  11.00000  0.05    0.28
Q18   1   0.1232  0.0267  0.3737  11.00000  0.05    0.27
Q19   1  -0.1196  0.2637  0.2672  11.00000  0.05    0.27
Q20   1   0.1352  0.4222  0.2569  11.00000  0.05    0.26
Q21   1   0.2013  0.0087  0.2857  11.00000  0.05    0.26
Q22   1  -0.2231  0.3021  0.4132  11.00000  0.05    0.25
Q23   1  -0.0698  0.2410  0.7906  11.00000  0.05    0.25
Q24   1   0.2234  0.2014  0.4818  11.00000  0.05    0.25
Q25   1   0.1591  0.2525  0.3879  11.00000  0.05    0.25
Q26   1   0.1904  0.3780  0.0078  11.00000  0.05    0.24
Q27   1  -0.1525  0.2667  0.1374  11.00000  0.05    0.24
Q28   1   0.0392  0.0153  0.3025  11.00000  0.05    0.24
Q29   1   0.0191  0.3806  0.7696  11.00000  0.05    0.24
Q30   1   0.0848  0.4228  0.3479  11.00000  0.05    0.24
;
_shelx_res_checksum              45415
_shelx_hkl_file
;
   0   0  -1 21.7271 8.98369   5
   0   0   1 2.56944 8.22123   5
   0   0  -1 49.6043 10.6560   2
   0   0   1 20.0735 7.43043   2
   0   0   2 1159.03 31.0115   4
   0   0  -2 1159.62 49.3337   5
   0   0  -2 1108.77 45.2118   2
   0   0   2 1218.31 47.9798   5
   0   0   2 1121.35 44.9105   2
   0   0  -3-2.38414 16.3152   5
   0   0   3 2.41033 13.7951   5
   0   0  -3 24.4869 17.0255   2
   0   0   3 15.3369 9.03870   4
   0   0   3-7.62843 13.3321   2
   0   0  -4 76103.0 532.817   5
   0   0  -4 76450.5 522.920   2
   0   0   5 4.66688 10.4447   4
   0   0  -5 31.3876 24.7142   2
   0   0  -5 6.68227 21.9525   5
   0   0  -6 17.2465 23.5650   2
   0   0   6 39.7812 13.7533   4
   0   0  -6 2.41241 27.5717   5
   0   0  -7 14.3520 26.4250   2
   0   0  -7-2.75257 11.3221   1
   0   0  -7 0.82708 31.9405   5
   0   0   8 155.951 42.7135   3
   0   0  -8 163.213 41.5685   5
   0   0  -8 129.509 42.3328   2
   0   0   9 29.3759 37.8741   3
   0   0  -9 15.1025 30.8998   5
   0   0  10 3689.21 195.243   3
   0   1  -1 15016.2 119.935   5
   0  -1   1 14977.7 107.736   4
   0   1  -1 14536.1 107.342   4
   0  -1   1 15129.7 119.417   2
   0  -1  -1 14769.4 114.843   2
   0   1   1 14523.6 111.794   2
   0   1   1 14835.9 120.240   5
   0   1  -2 4628.72 75.2358   4
   0  -1   2 4668.19 94.2876   5
   0  -1  -2 4575.94 58.5677   1
   0   1  -2 4567.28 92.1745   5
   0  -1  -2 4635.95 90.7795   2
   0  -1   2 4690.43 74.1304   4
   0  -1  -2 4615.88 93.1771   5
   0  -1   2 4660.92 91.5444   2
   0   1   2 4581.44 93.3667   5
   0   1  -2 4750.30 92.5037   2
   0   1   2 4617.74 45.2706   4
   0   1   2 4535.45 90.0586   2
   0   1   3 524.674 21.6241   4
   0  -1   3 551.465 41.8113   5
   0   1  -3 552.019 40.7868   2
   0   1   3 512.846 39.4950   5
   0  -1   3 555.650 31.4609   4
   0  -1  -3 556.737 40.9568   5
   0   1  -3 580.312 43.6188   5
   0  -1  -3 538.994 24.9177   1
   0   1   3 594.455 42.2271   2
   0  -1  -3 540.639 40.4192   2
   0  -1   3 592.433 41.3209   2
   0  -1  -4 8946.89 110.647   1
   0  -1   4 9214.53 137.321   4
   0   1   4 9187.52 104.489   4
   0   1  -4 9269.51 182.365   2
   0  -1  -4 9035.21 179.275   2
   0   1  -4 9242.00 186.153   5
   0  -1  -4 9231.08 185.087   5
   0   1   5 5037.63 88.1066   4
   0  -1   5 5126.18 112.992   4
   0  -1  -5 5103.09 90.8581   1
   0  -1  -5 4923.58 154.276   5
   0  -1  -5 5142.17 153.568   2
   0   1  -5 5086.02 154.883   2
   0   1  -5 4880.19 153.057   5
   0   1  -6 430.913 56.3968   2
   0  -1  -6 370.935 51.2262   5
   0  -1  -6 441.865 29.0425   1
   0  -1  -6 380.941 48.9158   2
   0   1   6 409.317 28.2959   4
   0  -1   6 465.326 41.4649   4
   0   1  -6 384.117 51.4899   5
   0  -1  -7 702.030 76.5724   5
   0  -1  -7 667.881 33.8678   1
   0   1  -7 631.590 71.6255   5
   0  -1  -7 569.463 64.7469   2
   0  -1   7 676.423 67.9571   3
   0  -1   8 2337.79 135.813   3
   0  -1  -8 2703.14 153.069   2
   0   1  -8 2673.49 151.326   5
   0  -1  -8 2516.75 146.368   5
   0   1   9 1.95364 27.5859   3
   0   1  -9-25.2673 39.1753   5
   0  -1   9 38.2963 32.0970   3
   0  -1  10 25.4692 41.6337   3
   0   1  10 58.4633 39.3906   3
   0   1 -10-3.59583 37.6782   5
   0  -2   0 30228.7 132.976   3
   0  -2  -1 36288.0 181.483   2
   0   2   1 35676.3 136.660   4
   0  -2  -1 35734.6 139.467   4
   0   2  -1 35950.0 206.950   4
   0  -2   1 36009.8 207.840   4
   0  -2   1 35897.3 194.134   3
   0   2  -2 1044.59 42.4918   4
   0   2  -2 1079.74 47.4184   5
   0   2   2 988.486 43.0855   2
   0  -2   2 1107.57 47.5610   2
   0   2   2 1042.06 32.8904   1
   0  -2   2 1044.06 44.4664   3
   0  -2   2 1011.92 41.0950   4
   0   2   2 1148.31 48.8014   5
   0  -2   2 1068.12 46.9593   5
   0  -2  -2 1031.28 44.4025   2
   0  -2   3 19259.2 197.637   4
   0  -2  -3 19048.1 150.451   1
   0   2   3 19104.1 233.433   5
   0  -2  -3 18624.4 225.239   2
   0   2  -3 19228.5 231.045   5
   0  -2  -3 18758.3 229.390   5
   0  -2   3 19369.0 230.943   2
   0   2   3 18524.0 220.914   2
   0  -2   3 19354.0 236.118   5
   0   2  -3 18562.9 198.312   4
   0   2   3 19014.3 92.8613   4
   0  -2   4 8705.08 147.456   4
   0  -2  -4 8917.84 179.735   2
   0   2  -4 8704.74 180.263   2
   0  -2  -4 8596.74 109.800   1
   0   2   4 8626.42 79.3277   4
   0  -2  -4 8513.66 178.517   5
   0   2  -4 8564.18 179.280   5
   0  -2  -5 5.61462 8.52600   1
   0   2  -5 17.9213 24.0831   5
   0  -2  -5 16.4917 23.2022   2
   0  -2   5 56.0435 20.7481   4
   0   2   5 107.401 11.6451   4
   0  -2  -5 11.5899 26.2765   5
   0  -2  -6 1133.62 84.5496   5
   0   2  -6 1102.44 84.9434   5
   0  -2   6 1175.54 81.0397   3
   0  -2  -6 1067.92 79.6193   2
   0   2   6 1133.18 34.3221   4
   0  -2  -7 8.90408 26.7485   2
   0   2  -7 3.02613 26.8170   5
   0  -2   7 3.43350 21.9120   3
   0  -2  -7 4.45064 29.9227   5
   0  -2   8 466.201 64.5556   3
   0  -2  -8 488.530 66.4413   2
   0   2  -8 514.448 71.4094   5
   0   2   9 2129.83 136.226   3
   0   2  -9 1989.32 142.136   5
   0  -2   9 1905.11 134.939   3
   0  -2  -9 2148.43 147.280   2
   0   2 -10 933.447 117.206   5
   0  -2  10 1512.70 131.820   3
   0   2  10 1284.65 116.161   3
   0  -3   0 20.8364 10.7808   4
   0   3   0 9.00356 7.77518   3
   0   3   0 2.55431 11.2980   4
   0  -3   0 7.88262 8.13776   3
   0  -3   1 966.104 40.4363   4
   0   3  -1 1002.58 41.6238   4
   0   3   1 968.200 33.0242   2
   0   3  -1 925.068 35.3006   3
   0   3   1 896.676 29.7639   4
   0  -3   1 1028.27 37.1718   3
   0  -3  -1 909.871 32.2716   2
   0  -3  -1 949.759 31.0742   4
   0  -3   2 117174. 469.834   3
   0   3   2 114970. 266.441   4
   0   3   2 115136. 413.921   1
   0  -3  -2 116955. 460.363   2
   0   3   2 115946. 441.920   2
   0   3  -2 114740. 489.156   4
   0  -3   3 308.780 29.6200   4
   0  -3   3 322.042 32.8167   2
   0   3  -3 342.694 36.3606   5
   0   3   3 330.752 32.2407   2
   0  -3  -3 323.225 33.7494   2
   0  -3   3 336.253 32.9989   3
   0   3   3 359.936 34.3931   5
   0  -3   3 352.552 36.4442   5
   0   3  -3 348.254 33.2027   4
   0  -3  -4 1047.50 63.8758   2
   0   3  -4 1033.41 65.2738   5
   0  -3   4 936.071 58.5229   3
   0   3  -4 1017.02 57.1059   4
   0  -3   4 972.729 53.7626   4
   0  -3   5 585.257 53.1146   3
   0  -3  -5 486.295 52.9355   2
   0   3  -5 529.946 55.7823   5
   0  -3  -6 2820.75 135.022   2
   0  -3   6 2834.19 125.672   3
   0   3  -6 2824.74 132.873   5
   0  -3   7 34.2543 33.0785   3
   0  -3  -7 19.5156 25.6868   2
   0   3  -7 17.6482 25.3537   5
   0   3  -8 708.753 80.6825   5
   0  -3   8 755.450 80.3697   3
   0  -3  -8 858.640 86.1794   2
   0  -3  -9 649.456 84.6993   2
   0  -3   9 802.684 92.7054   3
   0   3  -9 835.654 95.3752   5
   0   3  10 2244.47 149.098   3
   0   3 -10 1834.46 159.849   5
   0  -3  10 2117.39 156.377   3
   0   4   0 3665.91 66.3637   3
   0  -4   0 3813.07 82.4652   4
   0  -4   0 3883.61 68.6484   3
   0   4   0 3864.80 80.8643   4
   0   4  -1 1931.64 63.8085   4
   0   4   1 1983.04 50.4464   3
   0  -4   1 1979.38 56.2362   3
   0   4   1 1960.22 52.2900   4
   0  -4  -1 2027.57 54.2129   4
   0  -4  -1 2025.54 52.1334   2
   0   4  -1 1884.37 54.9308   3
   0  -4   1 2038.63 64.7866   4
   0  -4   2 26757.4 239.682   3
   0  -4  -2 26679.3 167.826   4
   0   4   2 26560.9 216.154   2
   0   4  -2 27273.3 256.464   5
   0  -4  -2 26797.1 226.500   2
   0  -4   2 26803.2 255.502   4
   0   4   2 26395.4 159.627   4
   0   4  -2 26948.3 258.435   4
   0  -4  -3 1666.28 70.1243   2
   0   4  -3 1754.95 73.0581   4
   0   4   3 2043.35 72.2347   2
   0  -4   3 1658.21 70.0126   3
   0   4   3 1975.23 81.1292   5
   0  -4   3 1733.84 71.2600   4
   0   4   3 1638.39 56.4824   1
   0  -4   3 1663.05 74.7821   2
   0   4   3 1651.32 30.6899   4
   0   4  -3 1820.26 77.1792   5
   0   4  -4 122.667 28.8573   5
   0   4  -4 107.200 25.2654   4
   0  -4   4 156.550 29.4433   3
   0  -4  -4 96.0862 24.5050   2
   0  -4   5 3740.53 132.031   3
   0   4  -5 3511.08 134.172   5
   0  -4  -5 3786.93 135.811   2
   0   4  -6 7725.21 218.568   5
   0  -4  -6 7472.06 209.832   2
   0  -4   6 8103.47 215.253   3
   0  -4  -7 273.166 47.7074   2
   0  -4   7 282.849 51.8229   3
   0   4  -7 306.764 53.4616   5
   0  -4   8 2032.88 131.099   3
   0   4  -8 2075.01 136.512   5
   0  -4  -8 2173.00 137.021   2
   0   4  -9 1333.26 119.728   5
   0  -4  -9 1569.59 127.558   2
   0  -4   9 1350.29 118.085   3
   0  -4 -10 1700.89 138.711   2
   0  -4  10 2067.51 155.469   3
   0   4  10 1655.98 128.553   3
   0   4 -10 1487.47 144.524   5
   0   5   0 9.68921 12.6201   4
   0   5   0 14.9185 8.75673   3
   0  -5   0-0.58759 10.1381   3
   0  -5   0 3.96679 11.8321   4
   0   5   1 34993.8 230.516   3
   0  -5  -1 35282.2 259.174   4
   0  -5   1 35548.4 255.204   3
   0   5  -1 35879.0 297.257   4
   0  -5   1 35745.7 297.586   4
   0   5   1 35012.7 249.584   4
   0   5  -1 35216.3 254.161   3
   0  -5  -1 34898.2 235.698   2
   0  -5  -2 73937.7 335.487   4
   0  -5  -2 74497.2 390.906   2
   0   5   2 74444.0 378.411   2
   0   5  -2 76163.4 471.857   4
   0  -5   2 75069.3 421.984   3
   0   5   2 73216.1 319.008   4
   0  -5   3 738.346 49.6115   3
   0   5  -3 694.450 51.7177   5
   0   5   3 722.630 44.0228   2
   0   5   3 735.179 27.1056   4
   0   5  -3 742.571 52.4628   4
   0  -5  -3 739.397 48.7829   2
   0   5   3 736.491 43.5372   1
   0   5  -4 76.3848 29.8804   5
   0  -5  -4 107.112 26.5949   2
   0  -5   4 67.2498 24.3223   3
   0   5   4 100.407 18.8156   1
   0   5  -4 72.0014 23.6550   4
   0   5  -5 2333.36 104.867   4
   0   5  -5 2251.98 110.818   5
   0  -5   5 2506.14 113.103   3
   0  -5  -5 2504.25 111.621   2
   0  -5   6 3717.89 149.262   3
   0   5  -6 3668.76 153.996   5
   0  -5  -6 3598.99 148.338   2
   0  -5  -7 5843.20 204.892   2
   0   5  -7 6008.24 213.789   5
   0  -5   7 6172.49 210.851   3
   0  -5   8 984.076 93.9174   3
   0   5  -8 1000.62 99.3254   5
   0  -5  -8 932.328 93.8120   2
   0  -5  -9 204.764 52.2790   2
   0  -5   9 420.996 73.1468   3
   0   5  -9 314.510 66.9155   5
   0  -5  10 64.4329 41.7675   3
   0   5  10 6.14826 38.4894   3
   0  -5 -10 72.9478 48.6549   2
   0   5 -10-23.6823 43.3044   5
   0   6   0 14658.5 193.819   4
   0   6   0 14663.3 163.004   3
   0  -6   0 14915.5 202.484   4
   0  -6   0 15072.3 167.220   3
   0  -6   1 3749.17 90.6106   3
   0   6  -1 3680.79 104.513   4
   0  -6  -1 3727.33 94.6106   4
   0  -6   1 3736.90 105.662   4
   0   6  -1 3612.59 88.2298   3
   0  -6  -1 3633.24 83.6031   2
   0   6   1 3647.36 81.1811   3
   0   6   1 3554.22 89.4170   4
   0  -6  -2 1407.40 58.2296   2
   0   6   2 1358.84 55.1012   2
   0  -6  -2 1100.08 48.1786   4
   0   6  -2 1307.69 60.1351   3
   0  -6   2 1324.97 60.4668   3
   0   6   2 1412.50 51.1116   4
   0   6  -2 1634.24 75.9253   4
   0   6  -3 11109.1 206.335   5
   0   6  -3 10939.8 206.285   4
   0  -6   3 10922.9 191.169   3
   0  -6  -3 10483.9 122.534   4
   0  -6  -3 11091.0 185.685   2
   0   6   3 10819.2 121.444   4
   0   6   3 10581.0 176.353   1
   0   6   3 10496.7 168.415   2
   0   6   4 20237.6 113.475   4
   0   6   4 20074.4 239.416   1
   0   6  -4 19713.5 296.552   4
   0  -6  -4 19658.6 283.021   2
   0   6  -4 19349.9 298.028   5
   0  -6   4 19932.0 287.802   3
   0   6  -5 78.0652 27.3772   4
   0  -6   5 78.8300 29.6911   3
   0  -6  -5 97.5527 31.9729   2
   0   6  -5 72.4022 31.1005   5
   0  -6  -6 8930.38 234.251   2
   0   6  -6 8612.05 238.328   5
   0  -6   6 8637.88 232.962   3
   0   6  -7 1965.76 126.648   5
   0  -6   7 2044.63 125.448   3
   0  -6  -7 2110.93 126.078   2
   0  -6   8 1445.64 115.096   3
   0   6  -8 1504.87 121.315   5
   0  -6  -8 1412.16 112.418   2
   0   6  -9 167.258 64.1030   5
   0  -6   9 477.611 85.6716   3
   0  -6  -9 182.192 48.4429   2
   0   6 -10 2576.26 179.810   5
   0  -6 -10 2559.47 170.686   2
   0  -7   0 7.27660 11.9831   3
   0   7   0-9.45145 21.1541   4
   0   7   0 2.64029 11.3995   3
   0   7  -1 1124.37 53.8603   3
   0   7   1 1035.01 53.4708   4
   0  -7  -1 1067.10 56.4312   4
   0  -7  -1 1085.21 50.3718   2
   0   7   1 1078.94 48.3342   3
   0  -7   1 1128.91 54.1536   3
   0   7  -1 1110.48 63.6750   4
   0   7   2 340.181 29.2507   3
   0  -7  -2 332.962 30.6919   2
   0  -7   2 356.864 35.9790   3
   0   7   2 352.919 28.7830   4
   0   7  -2 369.982 41.7445   4
   0  -7  -2 392.557 31.9530   4
   0   7  -3 245.939 36.6697   4
   0   7   3 206.251 21.8734   4
   0   7   3 184.843 28.3366   1
   0  -7   3 188.945 30.8537   3
   0  -7  -3 198.383 28.7750   2
   0   7  -3 195.226 33.9064   5
   0  -7  -3 228.785 23.9539   4
   0  -7  -4 24297.5 321.263   2
   0   7  -4 24664.6 349.313   5
   0   7   4 24717.8 168.034   4
   0   7   4 24584.2 290.059   1
   0   7  -4 24546.5 348.197   4
   0  -7   4 24093.6 326.279   3
   0   7  -5 59.8935 31.4746   5
   0  -7   5 31.4417 22.4213   3
   0   7  -5 11.6648 28.1678   4
   0  -7  -5-16.6734 24.6902   2
   0   7  -6 4262.99 172.994   5
   0  -7  -6 4169.62 162.804   2
   0  -7   6 4165.48 166.270   3
   0   7  -7 719.178 83.4237   5
   0  -7  -7 699.496 78.4938   2
   0  -7   7 566.643 69.5420   3
   0   7  -8 10327.1 310.438   5
   0  -7  -8 10290.3 297.752   2
   0  -7   8 10822.8 313.177   3
   0  -7  -9-4.93803 31.4125   2
   0  -7   9 50.7665 43.4530   3
   0   7  -9-19.2710 47.4529   5
   0  -7 -10 2986.62 185.651   2
   0   8   0 46160.3 399.920   4
   0  -8   0 46935.3 347.045   3
   0   8   0 46305.8 334.921   3
   0   8  -1 14428.7 236.620   4
   0  -8  -1 14131.7 190.623   2
   0   8   1 13894.0 207.298   4
   0  -8   1 13794.7 198.638   3
   0   8  -1 13812.7 194.850   3
   0   8   1 13654.9 179.392   3
   0  -8  -1 14042.3 216.842   4
   0   8   2 21.6901 13.2135   3
   0   8  -2 22.8238 22.0106   4
   0  -8  -2 50.3324 17.6265   2
   0   8   2 25.1280 17.1358   4
   0  -8  -2 31.4658 17.6415   4
   0  -8   2 22.6581 18.3244   3
   0   8   3 8243.97 158.388   3
   0  -8  -3 8076.32 168.044   2
   0  -8  -3 8154.56 142.389   4
   0  -8   3 8256.36 180.781   3
   0   8  -3 8279.69 194.400   5
   0   8   3 8265.69 134.742   4
   0   8  -3 8398.36 204.096   4
   0   8   4 6656.37 104.004   4
   0  -8   4 6417.84 175.067   3
   0   8  -4 6756.57 191.043   5
   0   8  -4 6479.57 189.046   4
   0  -8  -4 6520.37 169.959   2
   0  -8   5 1305.45 87.1984   3
   0  -8  -5 1395.02 89.7541   2
   0   8  -5 1293.43 93.3350   5
   0   8  -5 1359.39 93.7816   4
   0  -8  -6 67.3535 33.2884   2
   0   8  -6 70.8952 37.2968   5
   0  -8   6 28.2867 24.9864   3
   0  -8  -7 43.2345 26.0395   2
   0  -8   7 119.374 42.3655   3
   0   8  -7 127.005 48.2865   5
   0  -8  -8 1304.15 110.945   2
   0  -8   8 1055.83 102.067   3
   0   8  -8 1141.83 110.393   5
   0  -8   9 9.22970 39.0563   3
   0   8  -9 68.1934 49.1389   5
   0  -8 -10-317.956 66.8466   2
   0   9   0 22.0880 12.3633   3
   0  -9   0 4.54842 13.9803   3
   0   9   0 33.0559 21.3615   4
   0  -9  -1 21386.0 251.606   2
   0   9   1 21460.5 275.719   4
   0   9  -1 21977.4 309.924   4
   0   9   1 21698.1 241.470   3
   0  -9   1 21402.7 261.227   3
   0  -9  -2 3299.24 103.251   2
   0   9  -2 3158.51 126.081   4
   0   9   2 3361.67 97.9514   3
   0   9   2 3359.27 102.872   4
   0  -9   2 3457.75 114.667   3
   0  -9  -2 3417.74 109.941   4
   0   9   3 828.567 48.7591   4
   0   9  -3 786.694 67.4089   4
   0   9  -3 822.692 67.6968   5
   0  -9  -3 824.425 51.9312   4
   0  -9   3 847.958 62.9674   3
   0  -9  -3 830.434 59.3252   2
   0   9  -4 11578.2 265.287   4
   0   9  -4 11927.0 262.738   5
   0   9   4 12183.5 159.009   4
   0  -9   4 12361.8 250.249   3
   0  -9  -4 11844.0 155.993   4
   0  -9  -4 12252.5 238.090   2
   0  -9  -5 13383.5 277.208   2
   0   9  -5 13542.9 300.705   5
   0   9  -5 13337.1 300.739   4
   0  -9   5 12950.1 282.041   3
   0  -9   6 9627.57 263.797   3
   0  -9  -6 10508.7 264.923   2
   0   9  -6 10569.4 284.458   5
   0  -9   7 2922.53 157.259   3
   0   9  -7 3020.94 165.382   5
   0  -9  -7 3027.67 155.158   2
   0  -9   8 4964.98 220.028   3
   0   9  -8 4992.26 225.289   5
   0  -9  -8 5160.34 215.792   2
   0   9  -9-27.4996 44.6115   5
   0  -9   9 25.4139 31.2201   3
   0  -9  -9 48.6491 38.4229   2
   0  10   0 230.237 37.9304   4
   0 -10   0 212.162 29.0892   3
   0 -10   1 26.0450 17.0288   3
   0 -10  -1 46.5161 20.7594   2
   0  10   1 66.5836 23.8324   4
   0  10  -1 33.2206 25.2366   4
   0  10   1 48.3249 16.2697   3
   0 -10  -2 774.254 54.3147   2
   0 -10   2 802.980 59.7804   3
   0  10  -2 854.046 70.3516   4
   0  10   2 844.123 56.5217   4
   0 -10  -3 56.5881 18.8827   4
   0 -10  -3 31.7883 19.1216   2
   0  10  -3 48.4728 29.2925   5
   0  10   3 32.5742 19.2324   4
   0 -10   3 53.1200 25.7224   3
   0  10  -3 123.398 36.4983   4
   0 -10  -4 1601.93 90.9461   2
   0 -10   4 1456.00 90.3091   3
   0  10  -4 1683.85 109.727   4
   0  10  -4 1492.72 99.6970   5
   0 -10  -4 1568.61 64.6504   4
   0  10   4 1619.35 65.1481   4
   0 -10  -5 1965.96 109.521   2
   0  10  -5 1953.16 120.162   4
   0 -10   5 1969.05 114.861   3
   0  10  -5 2062.17 122.998   5
   0 -10  -6 8847.79 247.238   2
   0  10  -6 8706.78 265.247   5
   0 -10   6 8836.29 259.502   3
   0 -10   7 366.414 64.2562   3
   0 -10  -7 333.219 59.4168   2
   0  10  -7 223.818 56.5916   5
   0 -10   8 2671.85 166.141   3
   0  10  -8 2419.28 169.996   5
   0 -10  -8 2749.79 160.866   2
   0 -10   9 1780.20 150.078   3
   0 -10  -9 1521.38 130.780   2
   0  10  -9 1305.97 135.672   5
   0  11   0 16.5901 26.6991   4
   0 -11   0-9.68556 18.7423   3
   0  11  -1 3112.83 131.795   4
   0 -11  -1 3218.82 110.564   2
   0 -11   1 3217.05 113.947   3
   0  11   1 3329.76 124.648   4
   0  11   2 5602.04 152.318   4
   0  11  -2 5240.11 177.926   4
   0 -11   2 5345.93 154.325   3
   0 -11  -2 5310.51 145.511   2
   0  11   3 333.192 37.7935   4
   0 -11  -3 366.704 44.7099   2
   0 -11   3 345.763 46.7074   3
   0  11  -3 315.007 46.4336   5
   0  11  -3 408.639 55.2615   4
   0  11  -4 1345.98 102.235   4
   0 -11   4 1332.88 91.0144   3
   0  11   4 1341.09 65.0507   4
   0 -11  -4 1417.41 88.1189   2
   0  11  -4 1173.58 94.1778   5
   0 -11  -5 287.475 45.1671   2
   0  11  -5 156.423 47.6747   4
   0 -11   5 213.218 46.2217   3
   0  11  -5 273.221 53.5058   5
   0 -11   6 1046.40 94.5282   3
   0  11  -6 974.453 96.1193   5
   0 -11  -6 1007.00 90.0930   2
   0 -11   7 1703.82 128.124   3
   0  11  -7 1725.85 130.701   5
   0 -11  -7 1729.26 121.995   2
   0 -11  -8 27.4057 35.8528   2
   0  11  -8 109.006 49.6893   5
   0 -11   8 46.2995 42.2417   3
   0 -12   0 5852.64 154.572   3
   0  12   0 6088.03 184.153   4
   0  12  -1 3127.25 139.344   4
   0  12   1 3217.73 128.765   4
   0 -12  -1 3051.14 113.855   2
   0 -12   1 3122.65 118.865   3
   0  12  -2 5985.12 199.579   4
   0 -12  -2 6425.01 167.797   2
   0 -12   2 6435.29 176.725   3
   0  12   2 6374.52 171.999   4
   0  12  -3 11726.3 293.724   4
   0  12   3 12183.1 224.071   4
   0 -12   3 11576.5 253.139   3
   0 -12  -3 11903.5 238.430   2
   0  12  -3 11892.0 280.257   5
   0 -12  -4 7531.48 206.488   2
   0  12  -4 7144.37 228.650   5
   0  12   4 7672.73 162.384   4
   0 -12   4 7237.83 215.473   3
   0  12  -4 7194.90 241.886   4
   0 -12   5 5119.48 193.843   3
   0 -12  -5 5182.17 185.223   2
   0  12  -5 5092.77 213.565   4
   0  12  -5 5209.30 206.233   5
   0 -12   6 9642.19 284.798   3
   0  12  -6 10127.0 303.395   5
   0 -12  -6 9929.51 274.151   2
   0  12  -7 747.226 93.9902   5
   0 -12  -7 795.829 86.9687   2
   0 -12   7 715.473 89.1095   3
   0 -12  -8 3054.20 174.118   2
   0 -12   8 3438.06 195.903   3
   0  12  -8 3371.71 197.568   5
   0 -13   0 5.69127 19.7283   3
   0  13   0-29.6234 27.8777   4
   0  13   1 984.412 77.4300   4
   0  13  -1 907.673 80.8887   4
   0 -13   1 909.609 67.9068   3
   0 -13  -1 842.753 64.2361   2
   0  13   2 7118.17 191.581   4
   0 -13   2 7229.23 195.588   3
   0 -13  -2 7101.38 184.747   2
   0  13  -2 6756.07 223.093   4
   0  13   3 590.335 55.6196   4
   0  13  -3 624.022 73.2844   4
   0  13  -3 625.447 72.1073   5
   0 -13  -3 578.210 57.7429   2
   0 -13   3 611.149 62.4317   3
   0  13   4 323.605 37.9488   4
   0 -13   4 271.421 46.4401   3
   0  13  -4 306.074 57.4406   5
   0 -13  -4 308.000 49.4106   2
   0  13  -4 328.058 57.7223   4
   0 -13  -5 927.771 82.0761   2
   0 -13   5 1002.74 90.2566   3
   0  13  -5 1000.32 100.616   4
   0  13  -5 931.189 95.7798   5
   0 -13   6 811.111 89.4042   3
   0  13  -6 689.368 81.9625   5
   0 -13  -6 709.512 79.0985   2
   0 -13  -7 1361.22 114.188   2
   0  13  -7 1423.96 127.266   5
   0 -13   7 1508.45 126.079   3
   0  13  -8 2552.56 174.047   5
   0  14   0 10678.6 269.044   4
   0 -14   0 10525.0 232.342   2
   0 -14  -1 564.770 56.3915   2
   0  14  -1 620.504 70.8558   4
   0  14   1 512.087 60.3311   4
   0 -14   1 544.989 53.8489   3
   0 -14   2 1648.28 98.4547   3
   0  14  -2 1663.70 118.393   4
   0  14   2 1700.92 101.519   4
   0 -14  -2 1811.42 98.7676   2
   0  14  -3 7868.62 262.850   4
   0  14  -3 7944.56 250.100   5
   0  14   3 8128.05 205.100   4
   0 -14  -3 8073.67 213.256   2
   0 -14   3 7959.32 226.403   3
   0  14  -4 6714.86 237.298   5
   0  14  -4 6622.15 249.965   4
   0 -14   4 6445.03 215.638   3
   0 -14  -4 6932.51 212.401   2
   0 -14  -5 4596.61 184.084   2
   0  14  -5 4695.80 210.210   5
   0 -14   5 4644.42 195.377   3
   0  14  -5 4338.51 209.850   4
   0 -14  -6 1218.60 103.016   2
   0 -14   6 1046.51 103.292   3
   0  14  -6 1048.30 104.537   5
   0  14  -7 1188.42 119.521   5
   0 -14  -7 1054.76 102.735   2
   0 -14   7 1089.48 109.789   3
   0  15   0 56.6557 36.7339   4
   0 -15   0 26.3600 27.5273   2
   0 -15  -1 525.477 57.6670   2
   0  15   1 366.993 54.5435   4
   0  15  -1 425.988 67.3409   4
   0 -15   1 340.724 48.9268   3
   0 -15  -2 3138.11 133.450   2
   0  15  -2 3317.83 170.902   4
   0 -15   2 3325.02 145.130   3
   0  15   2 3189.68 143.072   4
   0 -15   3 62.5122 34.7267   3
   0  15  -3 34.0507 29.5286   5
   0  15   3 21.5133 22.4363   4
   0  15  -3 60.5501 43.3804   4
   0 -15  -3 13.2286 23.9223   2
   0  15  -4 3674.47 184.269   5
   0  15  -4 3444.04 188.813   4
   0 -15  -4 3535.26 156.759   2
   0 -15   4 3233.00 158.448   3
   0  15  -5 484.394 78.4116   4
   0 -15   5 559.628 75.1900   3
   0 -15  -5 536.556 69.8953   2
   0  15  -5 531.807 84.7360   5
   0 -15   6 1101.30 105.624   3
   0 -15  -6 1229.17 108.248   2
   0  15  -6 1277.43 121.699   5
   0  15  -7 2632.52 183.219   5
   0 -15   7 2099.38 156.063   3
   0  16   0 6943.29 236.463   4
   0 -16   0 6690.69 203.444   2
   0  16  -1 369.918 63.1509   4
   0 -16  -1 429.013 54.7650   2
   0  16   1 500.758 66.8752   4
   0 -16   1 435.079 55.4791   3
   0 -16   2 806.906 76.3250   3
   0 -16  -2 753.007 70.7257   2
   0  16  -2 735.539 83.3318   4
   0  16   2 835.047 79.2219   4
   0 -16   3 2107.22 126.796   3
   0 -16  -3 1853.52 112.243   2
   0  16   3 2225.57 120.095   4
   0  16  -3 1920.00 141.865   4
   0  16  -3 2103.60 141.964   5
   0  16  -4 222.670 55.5105   5
   0 -16   4 298.039 54.4387   3
   0 -16  -4 280.326 54.6691   2
   0  16  -4 224.882 61.9466   4
   0 -16   5 2895.94 165.137   3
   0 -16  -5 3197.40 164.052   2
   0  16  -5 3079.50 182.542   5
   0  16  -6 493.502 82.2895   5
   0 -16   6 486.255 76.0249   3
   0 -17   0 33.7697 25.6330   2
   0  17   0-28.8248 31.3385   4
   0  17   1 1669.79 118.295   4
   0 -17   1 1649.79 105.460   3
   0  17  -1 1549.39 124.650   4
   0 -17  -1 1498.52 102.317   2
   0 -17  -2 6994.91 217.737   2
   0  17  -2 7295.81 272.286   4
   0  17   2 7012.39 228.892   4
   0 -17   2 7139.22 225.786   3
   0  17  -3 639.294 85.1283   4
   0  17  -3 698.084 87.5802   5
   0 -17  -3 863.214 84.6019   2
   0 -17   3 709.083 79.2204   3
   0 -17  -4 468.803 65.0140   2
   0  17  -4 397.684 68.2493   5
   0 -17   4 528.463 71.8907   3
   0  17  -4 568.014 87.7579   4
   0  17  -5 1319.63 127.150   5
   0 -17   5 1348.89 117.515   3
   0 -17   6 542.282 78.9949   3
   0 -18   0 3976.08 169.587   2
   0  18   0 3660.80 185.165   4
   0 -18   1 76.6123 40.5905   2
   0  18  -1 79.3455 39.9172   4
   0  18   1 23.0532 32.7052   4
   0 -18  -1-18.5988 32.4282   2
   0  18   2 829.129 83.0408   4
   0 -18  -2 932.240 85.3832   2
   0 -18   2 952.035 88.4443   3
   0  18  -2 815.437 95.8171   4
   0  18  -3 1151.11 113.869   5
   0 -18   3 1310.90 107.544   3
   0  18  -3 1344.39 126.111   4
   0 -18  -3 1214.36 99.5564   2
   0  18  -4 2594.93 171.148   5
   0 -18   4 2581.38 155.162   3
   0 -18   5 1930.20 144.935   3
   0  19   0 34.8461 48.8383   4
   0 -19   0 21.9396 25.7340   2
   0 -19   1 23.2198 34.1471   2
   0  19  -1-49.4136 54.6637   4
   0 -19  -1 42.1251 25.9578   2
   0  19   1-10.4495 38.0206   4
   0  19  -2 5673.85 259.210   4
   0 -19  -2 5748.85 214.146   2
   0  19  -3 1894.00 150.345   5
   0 -19   3 3224.99 196.867   3
   0 -19   4 511.076 77.5966   3
   0 -20   0 899.420 90.7402   2
   0 -20   1 52.1957 35.8699   2
   0 -20   2 1127.94 106.619   2
   1   0 -10 41.4699 45.8751   5
  -1   0  10 20.4895 30.6486   3
  -1   0   9 4627.57 196.728   3
   1   0  -9 4719.01 220.064   5
   1   0  -8 21.4356 34.9874   5
   1   0  -8-11.0758 17.4549   1
  -1   0   8-8.92435 25.2664   3
   1   0  -7 13859.9 315.392   5
  -1   0   7 14077.4 287.905   3
   1   0  -7 14060.5 224.887   1
  -1   0   6 20.6128 19.7043   4
   1   0  -6 9.47807 24.0010   5
  -1   0   6-4.87591 18.6501   3
  -1   0   5 2946.51 104.695   3
  -1   0   5 2806.61 85.0082   4
   1   0  -5 2909.58 120.753   5
   1   0  -4 12.0835 22.5207   5
  -1   0   4 9.06730 11.4055   4
  -1   0   4 10.6833 13.0530   2
  -1   0   4 0.55942 13.1249   3
  -1   0   3 1234.10 51.7767   3
  -1   0   3 1272.30 54.9473   2
   1   0  -3 1337.80 63.2390   5
  -1   0   3 1277.91 61.1575   5
  -1   0   2-4.62728 12.5215   5
   1   0  -2-0.42113 13.0518   5
  -1   0   2 20.3191 11.0957   2
  -1   0   2 2.28365 9.70318   3
  -1   0   1-0.04763 7.40485   3
  -1   0   1 15.6901 7.87449   5
   1   0  -1 3.81626 6.74644   3
   1   0  -1 19.6575 9.81039   5
   1   0   0 5.75968 5.60373   2
  -1   0   0 13.9637 6.99331   2
  -1   0  -1 2155.64 55.7462   2
   1   0   1 2354.11 56.3032   2
  -1   0  -1 2292.28 47.7599   4
  -1   0  -1 2223.99 44.7156   5
   1   0   1 2274.69 39.7926   1
   1   0   1 2207.04 45.1267   5
   1   0   2 15.5429 13.5832   2
   1   0   2 1.54167 8.13921   4
  -1   0  -2 0.84699 9.36644   4
   1   0   2 8.34562 14.5994   5
  -1   0  -2 0.76435 15.8116   2
  -1   0  -2 6.80662 12.4343   5
  -1   0  -3 99.9555 20.8888   5
   1   0   3 48.7370 10.4516   4
  -1   0  -3 57.8362 12.5629   4
   1   0   3 66.6835 18.6637   5
   1   0   3 84.8082 22.5897   2
  -1   0  -3 55.7156 22.4726   2
  -1   0  -4-7.71738 19.2807   2
  -1   0  -4 8.95110 11.3188   4
   1   0   4 8.47656 9.11301   4
  -1   0  -4 7.88982 17.1557   5
   1   0   5 8733.14 127.872   4
  -1   0  -5 8658.92 201.899   5
  -1   0  -5 8822.11 213.042   2
  -1   0  -6 5.06404 26.4466   2
  -1   0  -6-18.0418 26.3755   5
   1   0   6 5.35328 9.90933   4
  -1   0  -7 1028.91 87.6926   5
  -1   0  -7 1117.07 92.3485   2
  -1   0  -8-14.2614 32.6063   5
  -1   0  -8-2.03927 27.8253   2
  -1   0  -9 6377.08 261.147   2
   1   0  10-24.0667 30.1068   3
   1   1 -10 4462.47 224.395   5
  -1  -1  10 4234.05 206.086   3
  -1   1  10 3786.10 191.334   3
   1   1  -9 3817.25 198.208   5
  -1   1   9 4330.38 189.075   3
  -1  -1   9 4264.06 192.409   3
   1  -1  -9 4263.41 209.206   5
  -1   1   8 3577.65 156.745   3
  -1  -1   8 3676.10 164.811   3
   1  -1  -8 3736.70 179.836   5
   1   1  -8 3508.71 175.382   5
   1  -1  -7 9169.13 257.808   5
  -1  -1   7 8924.36 232.176   3
   1   1  -7 8914.72 254.652   5
  -1   1   7 8790.62 223.163   3
   1  -1  -7 9161.45 177.922   1
   1  -1  -6 695.195 48.7425   1
   1  -1  -6 902.454 75.4115   5
  -1  -1   6 721.320 61.2321   3
   1  -1  -6 800.133 67.8266   2
  -1   1   6 738.369 61.6398   3
  -1   1   6 790.418 46.3391   4
   1   1  -6 776.750 71.4562   5
  -1  -1   5 3777.28 104.836   4
  -1  -1   5 3720.68 120.750   3
   1  -1  -5 3844.16 136.892   5
  -1   1   5 4034.26 94.7635   4
   1   1  -5 3691.01 135.713   5
   1  -1  -5 4019.31 128.294   2
   1   1  -4 13716.0 229.002   5
  -1   1   4 13523.8 208.191   2
  -1  -1   4 13587.4 181.037   4
   1  -1  -4 13544.5 226.363   5
   1  -1  -4 13467.6 203.277   2
  -1  -1   4 13925.3 204.281   3
   1   1  -3 5529.41 125.795   5
   1  -1  -3 5319.59 106.638   2
  -1   1   3 5266.78 109.359   2
  -1  -1   3 5453.04 111.978   3
  -1   1   3 5347.26 122.653   5
  -1  -1   3 5437.96 124.637   5
   1  -1  -3 5327.78 123.962   5
  -1  -1   3 5308.98 115.527   2
   1   1  -2 496.902 29.4725   3
  -1  -1   2 464.383 29.0706   3
  -1   1   2 464.526 32.2100   5
   1  -1  -2 429.311 30.0807   5
   1   1  -2 462.030 32.4653   5
   1  -1  -2 432.842 25.0448   2
  -1   1   2 437.986 25.3612   2
  -1   1   2 474.948 24.8409   3
  -1  -1   2 525.974 33.3261   5
   1  -1  -1 182.535 15.9057   5
  -1   1   1 169.647 14.5535   5
   1   1  -1 155.610 15.1117   3
   1  -1  -1 160.162 17.8906   1
  -1  -1   1 226.134 17.3415   5
   1   1  -1 126.974 16.0825   5
  -1  -1   1 169.992 16.1225   3
  -1   1   1 156.265 10.3597   3
   1  -1  -1 161.769 10.8117   3
   1  -1   0 2114.50 50.5636   1
  -1  -1   0 2034.37 40.7856   2
   1  -1   0 2098.89 32.0327   2
  -1   1   0 1971.91 48.8615   1
  -1   1   0 2180.52 50.3692   4
  -1   1   0 2094.49 32.6742   2
   1   1   0 2123.08 46.3022   3
  -1   1  -1 24845.4 159.135   1
   1  -1   1 24814.5 149.269   5
  -1  -1  -1 24732.9 185.678   2
  -1   1  -1 24624.5 183.279   2
  -1   1  -1 25010.2 183.003   4
  -1   1  -1 25198.8 147.649   5
   1  -1   1 25259.5 183.692   2
   1   1   1 24882.7 181.823   2
   1   1   2 1436.50 57.7922   2
  -1   1  -2 1373.07 46.8802   4
  -1   1  -2 1392.55 50.8948   5
   1  -1   2 1371.11 51.0251   5
  -1  -1  -2 1362.85 57.9979   2
  -1  -1  -2 1362.97 33.5475   4
   1   1   2 1412.75 52.9488   5
   1  -1   2 1458.92 57.4163   2
  -1   1  -2 1477.35 58.8385   2
   1  -1   2 1396.72 47.2824   4
   1  -1   3 1066.09 44.4272   4
   1   1   3 1163.97 60.7291   2
  -1  -1  -3 1171.71 32.8804   4
   1   1   3 1077.95 55.6161   5
  -1   1  -3 1061.13 44.6770   4
   1  -1   3 1104.99 56.7262   5
  -1  -1  -3 1095.65 56.6317   5
  -1  -1  -3 1062.36 60.0679   2
  -1   1  -3 1115.33 56.5229   5
   1  -1   3 1111.48 60.6556   2
  -1   1  -3 1083.55 60.0435   2
   1   1   3 1035.73 30.7822   4
   1  -1   4 15264.3 180.236   4
  -1  -1  -4 15054.5 238.488   5
   1   1   4 15000.5 127.008   4
  -1  -1  -4 15553.5 254.851   2
  -1   1  -4 15176.8 238.226   5
  -1   1  -4 15508.5 252.615   2
  -1   1  -4 15016.0 180.483   4
  -1  -1  -4 15643.2 129.920   4
  -1   1  -5 75176.4 622.622   2
  -1   1  -5 74819.7 437.474   4
   1   1   5 74852.4 302.281   4
   1  -1   5 76215.3 429.442   4
  -1   1  -5 75880.6 596.354   5
  -1  -1  -5 74941.7 621.425   2
  -1  -1  -5 75821.9 593.813   5
  -1  -1  -6 26.2012 24.7242   5
   1   1   6 54.8459 11.9012   4
  -1  -1  -6 44.6261 27.8494   2
  -1   1  -6 55.2116 30.3770   5
  -1   1  -6 23.7258 24.2724   2
   1  -1   6 22.7249 17.2574   4
  -1  -1  -7 7754.84 243.300   2
  -1   1  -7 7651.17 244.009   2
  -1  -1  -7 8000.97 236.726   5
  -1   1  -7 8046.15 237.546   5
  -1  -1  -8 3607.17 182.153   2
  -1   1  -8 3903.08 180.763   5
  -1   1  -8 3345.81 175.520   2
  -1  -1  -9 10128.7 324.311   2
  -1   1  -9 10533.1 315.886   5
   1  -1   9 10310.9 312.172   3
   1  -1  10 2243.33 159.196   3
   1   1  10 2098.37 153.202   3
  -1  -2  10 10816.1 333.717   3
  -1   2  10 10422.0 312.609   3
   1   2 -10 11058.4 354.385   5
  -1   2   9 4731.58 194.275   3
  -1  -2   9 4913.90 209.564   3
   1   2  -9 4946.01 223.964   5
   1  -2  -8 2614.41 151.053   5
  -1   2   8 2768.42 136.911   3
  -1  -2   8 2415.91 136.697   3
   1   2  -8 2579.08 150.560   5
  -1  -2   7 5394.78 184.245   3
   1   2  -7 5133.13 194.503   5
  -1   2   7 5288.55 170.397   3
   1  -2  -7 4954.40 179.615   2
   1  -2  -7 5130.59 192.171   5
   1  -2  -7 5119.28 132.201   1
  -1  -2   6 25362.9 357.583   3
  -1   2   6 25057.9 233.823   4
   1  -2  -6 25475.6 284.768   1
   1  -2  -6 25713.2 386.510   5
   1  -2  -6 24593.6 354.871   2
   1   2  -6 26564.7 399.006   5
   1  -2  -5 14556.2 205.522   1
   1  -2  -5 14567.3 264.433   5
  -1  -2   5 14496.9 242.750   3
   1  -2  -5 14655.5 243.722   2
  -1   2   5 14384.1 166.937   4
   1   2  -5 14450.8 266.957   5
  -1  -2   4 301.168 30.3321   4
  -1   2   4 273.499 33.1954   2
   1   2  -4 233.722 34.9862   5
  -1  -2   4 263.468 32.0968   3
   1  -2  -4 280.434 36.2971   5
   1  -2  -4 264.911 27.7781   1
   1  -2  -4 243.106 31.6487   2
  -1  -2   3 11563.3 169.210   3
   1  -2  -3 11053.5 158.691   1
  -1  -2   3 11449.7 162.969   4
   1  -2  -3 11149.1 176.796   5
  -1  -2   3 11559.5 174.186   2
   1   2  -3 11252.4 182.934   5
  -1  -2   3 11748.1 188.202   5
  -1   2   3 11142.8 180.712   5
   1  -2  -3 11378.3 155.044   2
  -1   2   3 11369.6 158.121   2
  -1   2   2 119.871 19.4172   5
   1  -2  -2 108.560 14.2505   2
   1   2  -2 108.777 19.9146   5
  -1  -2   2 124.311 20.8035   5
  -1   2   2 114.046 14.7591   2
   1   2  -2 173.631 20.5497   3
   1  -2  -2 114.981 18.9409   1
   1  -2  -2 114.420 17.1574   5
  -1  -2   2 130.101 20.3282   3
  -1  -2   1 17.1794 12.2855   3
   1   2  -1 10.1335 9.28784   3
  -1   2   1 16.2971 12.6187   1
  -1   2   1 20.9234 11.3216   4
   1  -2  -1 9.51100 13.7106   1
   1  -2   0 2853.66 38.8717   2
  -1  -2   0 2909.83 60.9232   3
  -1   2   0 2854.37 66.4922   4
   1   2   0 2816.38 60.6472   3
  -1   2   0 2865.85 67.7831   1
   1  -2   0 3044.17 68.0419   4
  -1   2  -1 6694.27 96.2875   2
  -1  -2  -1 6622.36 99.6084   2
   1   2   1 6812.26 98.4582   2
  -1   2  -1 6850.52 107.509   4
   1  -2   1 6795.16 96.4230   2
   1  -2   1 6835.19 107.011   4
  -1   2  -1 6727.44 85.2690   5
  -1  -2  -2 16315.1 94.8801   4
   1  -2   2 16893.9 194.434   2
   1  -2   2 16432.0 178.281   5
  -1   2  -2 17042.6 185.394   4
   1  -2   2 17101.4 180.775   4
   1   2   2 16817.2 191.810   2
  -1   2  -2 16207.3 174.870   5
   1   2   2 17180.8 185.488   5
  -1   2  -2 16241.9 192.346   2
  -1  -2  -2 16601.9 194.899   2
  -1   2  -3 11039.8 188.050   2
   1  -2   3 10832.7 175.618   5
  -1   2  -3 10962.0 174.183   5
   1  -2   3 11111.4 185.280   2
   1   2   3 11089.5 179.457   5
  -1   2  -3 11059.2 158.789   4
   1  -2   3 10989.8 157.087   4
  -1  -2  -3 11235.0 190.831   2
   1   2   3 10908.9 184.177   2
  -1   2  -4 374.270 44.3825   2
  -1  -2  -4 353.749 44.2498   2
  -1   2  -4 288.996 30.1735   4
   1  -2   4 313.021 30.7915   4
  -1   2  -4 330.298 41.3834   5
   1  -2   5 11290.1 183.755   4
  -1   2  -5 11164.0 185.070   4
  -1  -2  -5 11441.1 245.278   2
  -1   2  -5 11488.4 245.332   2
  -1   2  -5 10977.0 228.261   5
  -1   2  -6 10327.7 257.165   2
   1  -2   6 10595.3 188.382   4
  -1   2  -6 10294.9 246.563   5
  -1  -2  -6 10560.2 258.105   2
  -1   2  -7 15623.4 331.463   5
  -1   2  -7 15607.5 350.585   2
  -1  -2  -7 15677.2 344.788   2
  -1  -2  -8 1016.12 98.5196   2
  -1   2  -8 1125.14 97.9805   5
   1  -2   9 1162.09 107.188   3
  -1   2  -9 1281.07 113.964   5
  -1  -2  -9 1272.54 119.655   2
   1  -2  10 577.647 88.1561   3
  -1  -2 -10 506.395 78.3735   2
  -1   2 -10 714.174 94.5019   5
   1   3 -10 823.479 106.396   5
  -1  -3  10 910.935 100.887   3
  -1   3  10 940.524 95.5629   3
  -1  -3   9 4833.97 211.733   3
  -1   3   9 4786.36 193.645   3
   1   3  -9 4889.46 224.341   5
  -1  -3   8 1654.77 116.452   3
  -1   3   8 1960.06 114.323   3
   1  -3  -8 1632.56 113.209   2
   1   3  -8 1771.37 128.201   5
  -1  -3   7 1137.07 89.1712   3
   1  -3  -7 1283.35 66.9203   1
   1  -3  -7 1144.03 88.0495   2
  -1   3   7 1362.48 49.6270   4
   1   3  -7 1151.12 94.8344   5
   1   3  -6 918.883 77.8850   5
   1  -3  -6 848.451 54.5511   1
  -1  -3   6 979.008 74.6979   3
  -1   3   6 902.464 41.3421   4
   1  -3  -6 932.171 70.6747   2
  -1  -3   5 20728.5 298.976   3
   1  -3  -5 20925.7 253.085   1
   1   3  -5 21082.0 324.862   5
   1  -3  -5 20628.4 289.256   2
  -1   3   4 6863.28 145.602   2
   1  -3  -4 6960.86 139.328   1
   1  -3  -4 6960.52 146.576   2
  -1  -3   4 7420.65 160.669   3
  -1  -3   4 7287.17 151.924   4
   1   3  -4 7532.72 173.492   5
   1  -3  -3 134.071 23.1127   1
   1   3  -3 161.545 23.4858   3
  -1  -3   3 150.909 25.8968   5
  -1   3   3 165.196 25.6864   5
  -1  -3   3 143.756 24.3572   3
  -1  -3   3 161.529 23.0507   4
   1   3  -3 185.203 30.2399   5
  -1   3   3 156.122 21.3016   2
   1  -3  -3 140.074 21.8786   2
  -1   3   3 160.524 18.8583   4
  -1   3   2 4337.82 97.5679   5
   1   3  -2 4148.91 93.5006   3
  -1  -3   2 4241.72 97.8882   4
   1  -3  -2 4041.03 96.8805   1
  -1   3   2 4150.56 96.8858   1
  -1   3   2 3979.49 81.2315   4
   1  -3  -2 3991.12 72.4544   2
   1   3  -2 4345.27 100.540   5
  -1  -3   2 4127.37 93.6469   3
  -1   3   2 4109.28 68.5388   2
   1  -3  -1 25872.0 115.786   2
  -1   3   1 24834.5 207.382   4
  -1  -3   1 25977.1 208.311   3
  -1  -3   1 25649.6 216.128   4
   1   3  -1 25889.0 206.186   3
   1  -3  -1 25788.4 205.429   4
  -1   3   1 25563.5 230.370   1
   1  -3   0 9031.97 69.6009   3
  -1  -3   0 9203.88 119.359   3
  -1   3   0 8936.45 127.817   4
   1  -3   0 9318.40 131.568   4
   1   3   0 9146.79 118.237   3
   1  -3   1 873.696 43.3144   4
   1   3   1 935.717 39.8960   2
  -1   3  -1 880.797 45.4037   4
   1  -3   1 923.986 37.7891   2
  -1  -3  -1 905.132 40.1907   2
  -1   3  -1 898.588 36.9621   5
  -1   3  -2 20477.0 221.167   2
   1  -3   2 20689.9 219.678   4
  -1  -3  -2 20926.1 222.270   2
   1  -3   2 20200.7 204.864   5
  -1   3  -2 20393.1 220.538   4
  -1   3  -2 20371.6 202.219   5
   1   3   2 19803.9 210.874   2
   1  -3   2 20801.8 219.192   2
  -1  -3  -2 20193.9 116.248   4
   1  -3   3 8200.58 148.253   4
   1   3   3 8077.32 75.3842   1
  -1   3  -3 7829.60 150.724   5
   1   3   3 8274.67 160.666   5
   1  -3   3 8061.98 161.564   2
   1   3   3 7669.99 153.856   2
  -1   3  -3 7923.08 147.975   4
   1  -3   3 7777.47 153.182   5
  -1  -3  -3 8108.37 163.436   2
  -1   3  -3 8243.77 165.037   2
  -1   3  -4 2620.32 100.678   5
   1  -3   4 2759.71 92.3469   4
  -1  -3  -4 2581.63 105.835   2
  -1   3  -4 2570.40 90.6163   4
  -1   3  -4 2747.94 109.861   2
  -1   3  -5 1338.56 82.2261   5
  -1   3  -5 1297.16 70.6155   4
  -1  -3  -5 1321.01 85.6595   2
  -1   3  -5 1307.69 86.2691   2
  -1   3  -6 665.984 70.0035   2
  -1   3  -6 671.769 55.3687   4
  -1  -3  -6 665.023 68.8904   2
  -1   3  -6 731.872 70.8890   5
  -1   3  -7 3434.42 157.835   5
  -1  -3  -7 3153.51 156.797   2
   1  -3   8 2272.44 138.994   3
  -1  -3  -8 2431.58 149.574   2
  -1   3  -8 2374.20 143.936   5
   1  -3   9 2507.29 159.259   3
  -1  -3  -9 2866.67 173.000   2
  -1   3  -9 2948.41 171.280   5
  -1   3 -10 155.181 51.9128   5
  -1  -3 -10 162.148 56.1739   2
   1  -3  10 134.006 52.3820   3
  -1  -4  10 203.619 55.0209   3
  -1   4  10 133.529 48.1924   3
   1   4 -10 111.898 45.7664   5
  -1   4   9 15534.5 343.053   3
   1  -4  -9 15725.1 375.669   2
   1   4  -9 15584.6 398.945   5
  -1  -4   9 15408.2 377.378   3
   1  -4  -8 981.846 88.7899   2
  -1  -4   8 962.827 88.2642   3
   1   4  -8 1041.51 99.4344   5
  -1   4   8 1122.49 87.4363   3
   1  -4  -7 374.468 51.5961   2
  -1  -4   7 365.479 51.0297   3
   1   4  -7 349.573 58.9170   5
  -1   4   6 791.059 35.3212   4
   1  -4  -6 778.663 66.8786   2
  -1  -4   6 865.089 75.0872   3
  -1   4   6 751.892 35.2107   4
   1   4  -6 883.414 78.0380   5
   1   4  -5 5245.48 164.958   5
  -1  -4   5 5157.92 153.895   3
   1  -4  -5 5216.97 130.102   1
   1  -4  -5 5267.76 147.439   2
  -1   4   5 5203.26 96.3053   4
   1  -4  -4 4080.82 114.853   2
  -1   4   4 4144.27 86.5433   4
  -1   4   4 4154.32 110.982   2
   1  -4  -4 4143.41 111.790   1
   1   4  -4 4286.16 135.121   5
  -1  -4   4 4207.84 124.717   3
  -1   4   3 606.388 45.1528   5
   1  -4  -3 549.750 36.5276   2
  -1   4   3 529.303 33.0737   4
   1   4  -3 494.170 42.3620   5
  -1  -4   3 567.189 43.8826   3
  -1   4   3 576.000 34.8718   2
  -1  -4   3 516.281 41.5875   4
  -1   4   3 574.727 43.0990   1
  -1   4   2 11326.2 173.329   1
  -1   4   2 11514.5 115.379   2
  -1  -4   2 11398.1 171.353   4
   1   4  -2 11540.6 164.834   3
   1  -4  -2 11728.9 129.534   2
  -1  -4   2 11657.4 166.402   3
   1   4  -2 11750.2 175.163   5
  -1   4   2 11578.4 148.164   4
  -1  -4   1 38.4978 16.1227   4
   1  -4  -1 47.7354 8.50062   2
  -1  -4   1 28.8819 12.7107   3
   1   4  -1 40.3209 17.0112   3
  -1   4   1 24.6633 5.28718   3
  -1   4   1 24.6687 14.2142   4
   1  -4  -1 47.6445 15.7745   4
  -1   4   1 20.8420 14.3031   1
   1  -4   0 1607.96 61.0079   4
  -1  -4   0 1691.58 56.6356   4
   1  -4   0 1616.89 35.4293   3
  -1   4   0 1622.36 60.8774   4
  -1  -4   0 1571.34 54.8080   3
   1   4   0 1585.89 54.4125   3
   1  -4   1 4358.05 79.3796   3
   1  -4   1 4408.23 105.456   4
   1   4   1 4371.81 90.3641   2
  -1  -4  -1 4473.72 80.4389   4
   1   4   1 4291.85 93.3825   3
  -1   4  -1 4793.33 110.560   4
  -1  -4  -1 4438.34 92.0293   2
  -1   4  -2 139.657 22.0353   5
   1  -4   2 141.058 22.7120   4
  -1  -4  -2 158.975 24.1931   2
  -1  -4  -2 132.943 13.2066   4
   1   4   2 130.031 19.8875   2
  -1   4  -2 142.722 24.6052   4
   1  -4   2 163.819 22.9487   2
  -1   4  -3 96201.8 554.153   4
   1  -4   3 96999.3 550.967   4
  -1   4  -3 96313.3 540.572   5
   1  -4   3 97139.2 552.980   5
  -1  -4  -3 98215.3 567.911   2
  -1   4  -4 599.104 49.7113   4
  -1   4  -4 558.515 49.4132   5
  -1  -4  -4 574.248 52.8405   2
  -1   4  -5 7303.05 191.390   5
  -1  -4  -5 7553.49 201.066   2
  -1   4  -5 7505.38 176.455   4
   1  -4   6 12128.0 266.760   3
  -1  -4  -6 12264.6 281.911   2
  -1   4  -6 11996.7 235.859   4
  -1   4  -6 12227.0 272.816   5
   1  -4   7 28558.3 451.497   3
  -1  -4  -7 28266.8 465.393   2
  -1   4  -7 29025.5 458.370   5
  -1   4  -8 42.6592 40.3621   5
   1  -4   8-12.8806 32.8420   3
  -1  -4  -8 32.4276 32.2334   2
   1  -4   9 2772.43 168.171   3
  -1   4  -9 2741.40 167.747   5
  -1  -4  -9 2959.91 178.329   2
  -1   4 -10 4079.83 215.339   5
  -1  -4 -10 3887.74 215.658   2
   1  -4  10 4153.44 222.233   3
   1   5 -10 872.217 110.725   5
  -1  -5  10 959.876 112.084   3
  -1   5  10 865.253 90.3773   3
  -1  -5   9 131.278 43.4010   3
   1  -5  -9 125.770 39.5719   2
   1   5  -9 239.039 58.7242   5
  -1   5   9 145.067 39.3597   3
  -1  -5   8 14982.0 351.531   3
   1  -5  -8 14913.4 335.473   2
   1   5  -8 14741.2 365.552   5
   1   5  -7 818.729 84.2311   5
   1  -5  -7 932.407 77.3355   2
  -1  -5   7 854.590 80.2716   3
  -1  -5   6 269.061 44.5948   3
  -1   5   6 333.699 20.8926   4
   1   5  -6 355.334 53.1274   5
   1  -5  -6 325.060 46.1441   2
  -1   5   6 344.620 21.2102   4
   1  -5  -5 2469.96 103.416   2
  -1  -5   5 2206.33 105.081   3
  -1   5   5 2249.37 61.5735   4
   1   5  -5 2196.98 109.431   5
   1   5  -4 1969.78 96.0894   5
  -1   5   4 2173.52 63.9028   4
  -1  -5   4 2017.98 90.1562   3
   1  -5  -4 2047.53 83.8112   2
  -1   5   4 2015.24 76.4527   2
  -1   5   3 85.1670 16.7322   4
  -1   5   3 96.4862 15.7239   2
  -1   5   3 98.8240 22.5144   1
   1  -5  -3 83.0927 18.8513   2
  -1  -5   3 88.5123 21.5509   3
   1   5  -3 82.6253 26.6690   5
   1   5  -2 15037.7 199.781   3
  -1   5   2 14779.9 139.280   2
  -1   5   2 14652.7 179.726   4
   1  -5  -2 14847.0 152.243   2
  -1   5   2 14792.2 213.955   1
  -1  -5   2 14593.6 208.340   4
  -1  -5   2 14917.8 201.097   3
   1  -5  -2 15062.9 179.598   4
  -1  -5   1 9731.12 149.540   3
   1   5  -1 9624.95 147.660   3
  -1   5   1 9695.83 151.652   4
  -1  -5   1 9645.66 158.746   4
   1  -5  -1 9942.12 155.884   4
   1  -5  -1 9733.30 101.430   2
  -1   5   1 9715.70 82.2312   3
   1  -5   0 1479.98 39.4265   3
   1   5   0 1364.75 54.4068   3
  -1  -5   0 1499.78 58.5584   4
  -1   5   0 1380.49 61.0486   4
   1  -5   0 1412.44 62.7497   4
  -1   5   0 1353.38 37.3929   3
  -1  -5   0 1348.54 55.5203   3
  -1   5  -1 930.498 54.8721   4
   1  -5   1 984.599 41.1512   3
   1  -5   1 993.301 54.5048   4
  -1  -5  -1 987.835 47.1826   2
   1   5   1 946.886 47.1824   3
  -1  -5  -1 743.962 38.4748   4
   1   5   2 15573.9 197.960   2
  -1   5  -2 16087.2 228.503   4
  -1   5  -2 15910.9 202.174   5
  -1  -5  -2 16054.3 204.629   2
  -1  -5  -2 15757.2 148.898   4
   1  -5   2 16068.7 194.087   3
   1  -5   2 16527.8 213.662   2
   1  -5   2 16028.9 226.641   4
  -1  -5  -3 14185.7 220.935   2
   1  -5   3 13775.4 208.219   3
  -1   5  -3 13701.3 213.095   5
  -1  -5  -3 13355.8 93.6139   4
  -1   5  -3 14021.9 226.897   4
   1   5   4 3830.83 77.1181   1
  -1   5  -4 3765.37 125.440   4
  -1  -5  -4 3701.58 129.380   2
   1  -5   4 3746.53 123.362   3
  -1   5  -4 3761.56 125.044   5
   1  -5   5-4.09286 20.1146   3
  -1   5  -5 31.4553 29.9241   5
  -1   5  -5 56.8981 29.6260   4
  -1  -5  -5 17.5908 21.8062   2
   1  -5   6 933.394 80.4426   3
  -1   5  -6 1007.71 75.6069   4
  -1  -5  -6 1009.79 83.7949   2
  -1   5  -6 1048.00 83.0909   5
  -1  -5  -7 587.393 73.0033   2
   1  -5   7 541.640 66.2862   3
  -1   5  -7 587.437 71.1410   5
  -1  -5  -8 2364.29 147.524   2
  -1   5  -8 2367.42 144.679   5
   1  -5   8 2232.84 142.293   3
   1  -5   9 2058.21 148.678   3
  -1  -5  -9 2650.52 167.258   2
  -1   5  -9 2185.59 149.268   5
  -1   5 -10 107.277 51.2066   5
  -1  -5 -10 116.244 45.3305   2
  -1  -6  10 5.15985 33.0217   3
   1  -6  -9 106.723 44.5879   2
  -1  -6   9 75.2791 42.7533   3
  -1   6   9 13.8342 25.5087   3
   1   6  -9 121.378 51.9113   5
   1  -6  -8 3338.90 160.898   2
   1   6  -8 3335.20 177.688   5
  -1  -6   8 3323.16 171.405   3
   1   6  -7 4978.51 200.377   5
   1  -6  -7 4675.35 173.462   2
  -1  -6   7 4599.13 184.142   3
   1   6  -6 4705.37 178.885   5
   1  -6  -6 4745.69 159.808   2
  -1  -6   6 4634.77 168.875   3
  -1   6   6 4779.10 69.3099   4
  -1  -6   5 5012.75 159.748   3
  -1   6   5 4974.75 91.6764   4
   1   6  -5 5341.00 174.364   5
   1  -6  -5 5206.89 152.137   2
   1  -6  -4 60.0437 20.3971   2
  -1   6   4 3.78578 15.3653   1
   1   6  -4 8.18923 28.1282   5
  -1   6   4 14.0449 11.5560   4
  -1  -6   4-24.3407 21.1158   3
  -1   6   4 8.70397 12.1140   2
  -1   6   3 33248.6 349.533   1
  -1  -6   3 33813.8 346.592   3
   1   6  -3 33716.9 363.440   5
  -1   6   3 33252.1 273.187   4
  -1   6   3 32812.1 259.224   2
   1  -6  -3 33382.3 292.024   2
  -1   6   2 7940.46 168.090   1
  -1   6   2 7845.89 98.7479   3
   1  -6  -2 8052.08 144.116   4
  -1   6   2 8272.36 143.560   4
   1  -6  -2 8114.48 118.667   2
  -1  -6   2 8274.71 159.543   3
  -1  -6   1 20134.8 231.079   3
   1   6  -1 20341.2 229.464   3
  -1   6   1 20952.9 239.293   4
   1  -6  -1 20722.1 244.090   4
   1  -6  -1 20405.5 167.989   2
  -1  -6   1 20325.0 246.422   4
   1   6  -1 20143.8 244.304   4
  -1   6   1 20374.3 141.025   3
   1   6   0 1487.39 60.7202   3
  -1  -6   0 1623.10 66.2562   4
  -1   6   0 1617.31 73.1906   4
   1  -6   0 1535.94 45.1882   3
  -1   6   0 1509.20 44.2620   3
   1  -6   0 1562.67 70.6749   4
  -1  -6   0 1605.33 64.5826   3
   1   6   0 1524.87 62.9719   4
  -1  -6  -1 6730.30 128.389   2
  -1  -6  -1 6576.61 122.683   4
   1  -6   1 6940.73 152.348   4
   1  -6   1 6710.53 112.565   3
  -1   6  -1 6883.85 152.175   4
   1   6   1 6740.10 131.389   3
  -1   6  -2 2830.89 93.3122   5
  -1  -6  -2 2890.30 91.8685   2
  -1  -6  -2 2840.50 72.8658   4
   1  -6   2 2987.27 97.2647   2
  -1   6  -2 3022.95 106.768   4
   1  -6   2 2835.47 86.0779   3
  -1   6  -3 2831.03 103.189   5
  -1  -6  -3 2878.63 58.9818   4
   1  -6   3 2838.64 98.6573   3
  -1   6  -3 2941.48 110.829   4
  -1  -6  -3 3037.30 105.385   2
  -1   6  -4 4935.37 151.456   4
   1  -6   4 4755.75 143.213   3
  -1  -6  -4 4960.20 151.732   2
  -1   6  -4 4929.77 147.945   5
   1   6   4 5010.51 106.068   1
   1  -6   5 123.760 32.1767   3
  -1   6  -5 90.3607 33.5618   5
  -1   6  -5 100.941 34.4120   4
  -1  -6  -5 64.5612 29.6039   2
  -1  -6  -6 12821.3 295.651   2
   1  -6   6 13314.6 292.269   3
  -1   6  -6 13300.2 279.085   4
  -1   6  -6 13282.6 292.129   5
  -1   6  -7 1593.83 101.902   4
  -1   6  -7 1417.68 106.721   5
  -1  -6  -7 1593.00 113.876   2
   1  -6   7 1525.91 110.598   3
   1  -6   8 400.859 67.7873   3
  -1   6  -8 392.877 66.7037   5
  -1  -6  -8 496.487 72.5173   2
  -1   6  -9 4079.00 206.938   5
   1  -6   9 3705.52 200.975   3
  -1  -6  -9 3639.87 196.706   2
  -1  -6 -10 589.728 91.3371   2
   1   7  -9 27.3177 41.1140   5
  -1  -7   9 109.620 45.9449   3
  -1   7   9 17.8466 26.8894   3
   1  -7  -9 33.4506 33.2329   2
   1  -7  -8 1455.59 108.461   2
  -1  -7   8 1390.79 113.257   3
   1   7  -8 1321.94 118.431   5
   1   7  -7 11804.4 312.762   5
  -1  -7   7 12112.1 305.889   3
   1  -7  -7 12069.6 280.336   2
   1   7  -6 420.036 59.9114   5
   1  -7  -6 467.337 54.5965   2
  -1   7   6 491.055 21.4210   4
  -1  -7   6 462.955 58.6552   3
  -1  -7   5 131.010 32.4247   3
  -1   7   5 157.319 20.0919   4
   1   7  -5 124.139 37.8950   5
   1  -7  -5 174.382 32.8107   2
   1   7  -4 4.31928 24.9880   5
  -1   7   4 6.29760 12.5747   2
  -1  -7   4 7.37365 20.9797   3
  -1   7   4 15.0278 13.3526   4
   1  -7  -4 33.7949 24.7788   2
   1   7  -3 473.478 50.7321   5
   1  -7  -3 519.789 40.0173   2
  -1   7   3 531.447 39.3948   4
  -1   7   3 478.219 33.9139   2
   1  -7  -3 478.023 35.8982   4
  -1  -7   3 534.320 49.7302   3
  -1   7   2 2021.06 54.2943   3
   1  -7  -2 1985.42 63.6672   2
   1   7  -2 2222.67 93.2645   4
  -1  -7   2 2167.99 86.1967   3
   1  -7  -2 2028.36 80.1256   4
  -1   7   2 2098.67 79.1869   4
  -1  -7   1 2108.38 80.3407   3
   1   7  -1 2153.62 85.8314   4
  -1   7   1 2214.16 85.8123   4
   1  -7  -1 2073.51 83.9828   4
   1  -7  -1 2120.02 61.1069   2
   1   7  -1 2214.34 81.0950   3
  -1   7   1 2115.76 51.9596   3
  -1   7   0 3344.44 108.048   4
   1  -7   0 3140.35 71.4658   3
   1   7   0 3112.61 97.3918   4
   1  -7   0 3202.13 108.303   4
  -1   7   0 3074.32 70.0175   3
  -1  -7   0 3219.39 100.673   4
   1   7   0 3205.01 94.9988   3
  -1  -7   0 3210.17 96.0890   3
   1   7   1 18970.6 232.301   3
  -1   7  -1 19881.8 273.973   4
   1  -7   1 19019.7 202.040   3
  -1  -7  -1 19787.4 232.494   2
  -1  -7  -1 19816.3 233.448   4
   1   7   1 19139.3 219.664   4
   1  -7   2 5543.92 126.114   3
  -1  -7  -2 5553.29 114.233   4
  -1  -7  -2 5501.23 131.827   2
  -1   7  -2 5878.09 158.673   4
  -1   7  -3 6485.98 174.105   4
  -1  -7  -3 6856.94 161.840   2
  -1  -7  -3 6358.42 104.190   4
  -1   7  -3 6393.90 160.087   5
   1  -7   3 6653.06 155.122   3
   1  -7   4 769.952 60.9682   3
  -1   7  -4 715.681 63.3139   4
  -1  -7  -4 817.457 65.4029   2
  -1   7  -4 832.224 66.5539   5
   1   7   4 727.544 47.1799   1
  -1   7  -5 11712.0 260.275   4
  -1  -7  -5 12188.4 268.967   2
  -1   7  -5 11669.3 257.608   5
   1  -7   5 11938.6 257.602   3
   1   7   5 12479.0 168.988   1
   1  -7   6 188.367 40.3625   3
  -1   7  -6 145.501 37.0133   4
  -1   7  -6 144.370 39.3890   5
  -1  -7  -6 158.527 42.4092   2
  -1   7  -7 4293.43 173.755   4
  -1  -7  -7 4453.19 190.543   2
  -1   7  -7 4468.11 189.842   5
   1  -7   7 4173.52 183.882   3
   1  -7   8 1450.37 121.990   3
  -1   7  -8 1521.70 121.369   5
  -1  -7  -8 1516.83 122.106   2
  -1  -7  -9 1686.79 138.206   2
  -1   7  -9 1528.76 129.687   5
   1  -7   9 1611.04 135.842   3
  -1  -7 -10 168.087 67.7704   2
   1   8  -9 193.690 70.1400   5
  -1  -8   9 113.113 45.1357   3
   1  -8  -9 161.094 48.9874   2
   1  -8  -8 1375.95 106.488   2
  -1  -8   8 1347.70 116.103   3
   1   8  -8 1346.41 118.751   5
  -1  -8   7 2376.60 139.572   3
   1  -8  -7 2412.78 127.736   2
   1   8  -7 2543.88 150.085   5
  -1  -8   6 2917.13 143.579   3
   1   8  -6 2861.42 148.913   5
   1  -8  -6 2922.82 130.662   2
   1   8  -5 1090.06 86.8222   5
  -1   8   5 965.339 44.7648   4
   1  -8  -5 1019.55 71.8030   2
  -1  -8   5 860.729 70.3319   3
  -1   8   4 1735.10 68.3351   4
  -1  -8   4 1739.96 94.4552   3
   1  -8  -4 1808.69 83.8405   2
   1   8  -4 1717.58 99.0144   5
  -1   8   3 20450.3 207.224   3
   1   8  -3 19823.4 309.507   5
   1  -8  -3 20090.1 247.572   4
  -1  -8   3 20612.1 295.494   3
  -1   8   3 19888.7 243.661   4
   1  -8  -3 20460.8 247.841   2
  -1   8   2 642.672 48.4771   4
  -1   8   2 672.691 34.0662   3
   1  -8  -2 694.326 41.2568   2
   1  -8  -2 705.388 51.5273   4
  -1  -8   2 719.818 54.5840   3
   1   8  -2 584.919 52.1879   4
  -1  -8   1 1744.47 78.1259   3
  -1   8   1 1670.19 51.1629   3
   1   8  -1 1674.14 82.1742   4
  -1   8   1 1784.75 81.2067   4
   1  -8  -1 1724.08 60.5469   2
   1   8   0 61.9123 22.7039   4
  -1   8   0 26.7611 21.5917   4
  -1  -8   0-2.33261 17.2492   3
   1  -8   0 11.7862 9.59092   3
  -1   8   0 39.4704 14.6199   3
  -1   8  -1 56646.8 491.786   4
  -1  -8  -1 56384.9 417.380   2
   1  -8   1 56025.3 368.707   3
  -1  -8  -1 56650.2 429.457   4
   1   8   1 56482.0 407.913   4
  -1   8  -2 3031.10 121.350   4
  -1  -8  -2 3038.99 94.4224   4
  -1  -8  -2 2986.91 101.858   2
   1  -8   2 2896.12 95.3642   3
  -1   8  -3 987.704 68.1782   5
   1  -8   3 820.858 59.1326   3
  -1   8  -3 814.314 68.3337   4
  -1  -8  -3 855.517 61.2174   2
  -1  -8  -3 780.177 43.2554   4
  -1  -8  -4 7.58926 22.4646   2
  -1   8  -4 32.5194 24.5574   5
   1  -8   4 28.5706 21.8546   3
  -1   8  -4 33.8384 25.2971   4
  -1  -8  -4 48.5778 9.72841   4
  -1   8  -5 232.604 45.5234   4
  -1   8  -5 236.182 42.1808   5
   1   8   5 253.632 31.8591   1
   1  -8   5 276.099 44.9536   3
  -1  -8  -5 285.988 48.6087   2
   1  -8   6 7391.20 228.366   3
  -1   8  -6 6917.45 221.713   5
  -1   8  -6 7154.72 224.957   4
  -1  -8  -6 7679.95 234.556   2
  -1   8  -7 33.0351 31.5702   5
  -1   8  -7-2.72391 26.5074   4
  -1  -8  -7 45.3407 31.6622   2
   1  -8   7 37.7391 32.7030   3
  -1  -8  -8 949.099 101.761   2
   1  -8   8 763.480 88.6397   3
  -1   8  -8 1018.60 103.570   5
  -1   8  -9 3756.64 205.444   5
   1  -8   9 3711.15 205.219   3
  -1  -8  -9 4137.48 211.718   2
   1   9  -9 117.343 63.0764   5
  -1  -9   9 272.027 70.3387   3
   1  -9  -8 441.817 66.6465   2
   1   9  -8 479.389 74.7003   5
  -1  -9   8 470.908 73.1788   3
   1   9  -7 90.8149 41.3066   5
   1  -9  -7 144.155 40.9239   2
  -1  -9   7 84.3854 31.6919   3
   1   9  -6 1280.41 103.795   5
  -1  -9   6 1376.58 104.948   3
   1  -9  -6 1347.43 91.1401   2
  -1   9   5 3697.46 93.6541   4
  -1  -9   5 3575.74 149.963   3
   1   9  -5 3729.73 161.427   5
   1  -9  -5 3695.19 134.582   2
   1   9  -4 2171.68 115.226   5
  -1   9   4 2154.04 79.4982   4
  -1  -9   4 2220.94 110.373   3
  -1   9   4 2080.10 77.8462   3
   1  -9  -4 1986.18 91.1877   2
  -1   9   3 6859.43 124.451   3
  -1   9   3 7027.69 151.489   4
   1   9  -3 7021.11 195.395   4
   1  -9  -3 7027.79 157.906   4
   1   9  -3 7190.87 195.057   5
  -1  -9   3 6929.06 179.663   3
   1  -9  -3 7019.67 149.332   2
   1   9  -2 3171.52 124.313   4
   1  -9  -2 3321.88 95.6969   2
  -1  -9   2 3235.01 115.485   3
  -1   9   2 3000.17 74.9605   3
  -1   9   2 3087.30 107.206   4
  -1  -9   1 11493.0 209.963   3
   1   9  -1 11617.0 224.552   4
   1  -9  -1 11961.0 169.634   2
  -1   9   1 11940.2 217.850   4
  -1   9   1 11689.4 146.987   3
   1  -9   0 154.893 21.6455   3
  -1   9   0 174.643 34.1389   4
   1   9   0 174.229 32.2643   4
  -1   9   0 174.186 21.5225   3
  -1  -9   0 196.316 29.5858   3
   1  -9   1 16510.9 213.765   3
  -1  -9  -1 16500.7 238.547   2
  -1   9  -1 16601.6 282.635   4
  -1   9  -1 16370.3 207.428   3
   1   9   1 16547.1 238.467   4
  -1   9  -2 3052.51 127.982   4
   1  -9   2 2857.12 98.9424   3
  -1  -9  -2 2840.40 100.458   4
  -1  -9  -2 2870.15 105.073   2
   1  -9   3 298.184 37.0962   3
  -1  -9  -3 290.519 39.6504   2
  -1   9  -3 347.072 48.3932   4
  -1  -9  -3 280.940 29.1985   4
  -1   9  -3 302.009 42.8196   5
  -1  -9  -4 6740.79 190.318   2
  -1   9  -4 6541.05 204.054   4
  -1  -9  -4 6461.46 102.367   4
   1  -9   4 6290.74 179.575   3
  -1   9  -4 6382.17 189.242   5
   1  -9   5 9263.36 238.479   3
  -1   9  -5 9248.29 255.275   4
  -1   9  -5 9041.38 239.721   5
  -1  -9  -5 9305.01 244.626   2
  -1   9  -6 82.0415 37.7381   5
  -1   9  -6 106.834 41.8959   4
  -1  -9  -6 63.1323 31.9205   2
   1  -9   6 100.314 38.3574   3
  -1   9  -7 928.412 90.6665   4
   1  -9   7 992.889 94.9500   3
  -1  -9  -7 1090.08 103.033   2
  -1   9  -7 979.711 93.6510   5
   1  -9   8 1383.03 122.240   3
  -1   9  -8 1358.28 120.873   5
  -1  -9  -8 1289.80 113.878   2
  -1   9  -9 1277.62 124.813   5
   1  -9   9 1233.15 123.512   3
  -1  -9  -9 1227.62 119.985   2
  -1 -10   9 11380.8 361.626   3
   1  10  -9 10958.9 365.571   5
   1  10  -8 284.967 74.7523   5
   1 -10  -8 340.874 58.8710   2
  -1 -10   8 409.122 68.2076   3
   1  10  -7 88.5452 43.2169   5
   1 -10  -7 87.4282 32.3642   2
   1  10  -6 1157.63 100.585   5
   1 -10  -6 1201.09 87.5633   2
  -1 -10   6 1182.67 98.4773   3
   1  10  -5 4400.84 181.335   5
  -1  10   5 4524.33 109.577   4
   1 -10  -5 4614.82 154.798   2
  -1 -10   5 4370.88 172.861   3
   1 -10  -4 2869.29 112.460   2
  -1  10   4 2905.96 98.2238   4
  -1 -10   4 2815.89 128.292   3
   1  10  -4 2952.76 139.411   5
  -1  10   4 3070.30 96.3941   3
  -1  10   3 1872.62 67.7388   3
  -1 -10   3 1945.23 99.4889   3
   1 -10  -3 1952.93 83.4463   2
   1  10  -3 1798.18 105.642   4
  -1  10   3 1855.02 83.8897   4
   1  10  -3 1985.63 109.758   5
  -1 -10   2 1705.38 89.6944   3
   1  10  -2 1732.47 97.9903   4
   1 -10  -2 1767.93 72.4567   2
  -1  10   2 1884.79 89.9144   4
  -1  10   2 1747.10 61.3146   3
  -1 -10   1 7979.99 185.316   3
  -1  10   1 8375.84 193.672   4
   1  10  -1 7992.48 196.396   4
  -1  10   1 7975.50 130.110   3
   1 -10  -1 8154.29 150.702   2
   1 -10   0 31520.3 286.710   3
   1  10   0 31875.8 371.990   4
  -1  10   0 32061.5 394.802   4
  -1 -10   0 30430.7 350.315   3
  -1  10   0 30571.6 274.436   3
   1 -10   1 6424.08 140.414   3
   1  10   1 6339.69 157.369   4
  -1  10  -1 6720.37 188.827   4
  -1 -10  -1 6466.95 159.895   2
  -1 -10  -2 85.3985 28.1744   2
  -1  10  -2 72.4617 27.9873   4
   1 -10   2 77.7930 25.8478   3
  -1 -10  -3 4915.48 127.145   4
   1 -10   3 5154.27 153.763   3
  -1 -10  -3 5356.88 160.268   2
  -1  10  -3 4947.90 162.364   5
  -1  10  -3 5309.51 182.186   4
  -1  10  -4 18977.1 337.422   5
  -1  10  -4 18429.5 358.352   4
  -1 -10  -4 18886.0 203.583   4
  -1 -10  -4 18233.0 322.001   2
   1 -10   4 17952.4 312.945   3
  -1 -10  -5 6211.63 205.116   2
   1 -10   5 5863.81 194.084   3
  -1  10  -5 6167.02 218.216   4
  -1  10  -5 6412.67 209.752   5
   1 -10   6 3362.39 161.394   3
  -1  10  -6 3164.99 160.257   5
  -1 -10  -6 3172.17 159.428   2
  -1  10  -6 3239.32 165.242   4
   1 -10   7 2305.17 144.554   3
  -1  10  -7 2290.74 146.923   5
  -1  10  -7 2375.39 149.259   4
  -1 -10  -7 2307.22 145.620   2
  -1  10  -8 72.8088 40.2663   5
  -1 -10  -8 33.2414 34.8050   2
   1 -10   8 58.3786 36.2782   3
  -1  10  -9 373.971 74.5690   5
  -1 -10  -9 418.346 75.3768   2
   1  11  -8 84.4237 60.1038   5
  -1 -11   8 252.660 64.0867   3
   1  11  -7 19.1353 36.9955   5
  -1 -11   7-12.0597 30.1537   3
   1 -11  -7 1.74567 26.2904   2
  -1 -11   6 1254.49 103.761   3
   1 -11  -6 1286.55 93.1705   2
   1  11  -6 1118.80 102.451   5
  -1 -11   5 26249.4 432.113   3
   1  11  -5 26654.9 458.746   5
   1 -11  -5 26948.3 387.254   2
  -1  11   5 27097.2 284.616   4
   1 -11  -4 3855.49 132.909   2
  -1  11   4 3652.96 116.034   4
  -1 -11   4 3513.64 149.355   3
   1  11  -4 3509.19 158.994   5
   1  11  -3 89.1760 33.0232   4
  -1  11   3 156.585 24.6555   3
  -1 -11   3 122.424 30.3460   3
   1 -11  -3 125.925 26.3378   2
  -1  11   3 165.688 31.4042   4
   1  11  -2 272.538 48.5999   4
   1 -11  -2 282.232 32.8687   2
  -1  11   2 269.202 27.1290   3
  -1  11   2 281.012 41.2832   4
  -1  11   1 49324.9 345.755   3
  -1  11   1 50237.2 503.803   4
   1  11  -1 51038.6 520.061   4
  -1 -11   1 49653.5 479.784   3
   1 -11  -1 50127.3 396.539   2
   1  11   0 3059.26 123.626   4
  -1  11   0 3210.94 131.398   4
   1 -11   0 3102.32 96.5264   3
  -1  11   0 3160.11 93.9275   3
  -1 -11   0 3211.91 119.824   3
  -1 -11  -1 26.5098 22.1155   2
   1  11   1-27.0530 25.5450   4
  -1  11  -1-14.4839 23.7701   4
   1 -11   1 5.01944 14.3106   3
  -1 -11  -2 213.200 36.3433   2
   1 -11   2 169.221 30.1459   3
  -1  11  -2 153.001 38.7957   4
  -1  11  -3 9945.39 240.140   5
   1 -11   3 9567.04 215.559   3
  -1  11  -3 9482.37 255.931   4
  -1 -11  -3 9574.87 221.627   2
   1 -11   4 44.6104 25.4710   3
  -1  11  -4 24.7789 29.0199   5
  -1 -11  -4 44.8275 25.0688   2
  -1  11  -4 58.7967 31.0978   4
  -1  11  -5 134.665 43.0902   4
   1 -11   5 106.760 33.4043   3
  -1 -11  -5 135.158 36.8462   2
  -1  11  -5 70.2585 32.1487   5
  -1  11  -6 233.184 51.9001   5
   1 -11   6 213.254 44.9412   3
  -1 -11  -6 239.032 48.0773   2
  -1  11  -6 302.559 62.1004   4
  -1  11  -7 409.913 67.9798   5
   1 -11   7 461.391 73.6664   3
  -1  11  -7 382.303 64.3327   4
  -1 -11  -7 380.995 65.8390   2
   1 -11   8 1774.75 140.764   3
  -1  11  -8 1979.12 148.415   5
  -1 -11  -8 1690.79 136.477   2
  -1 -11  -9 2892.73 185.643   2
  -1 -12   8 345.511 77.9232   3
   1  12  -8 181.548 73.1909   5
   1  12  -7 327.322 86.6499   5
  -1 -12   7 649.717 84.9771   3
   1 -12  -6 1121.17 88.2529   2
   1  12  -6 1159.14 108.406   5
  -1 -12   6 1062.84 101.297   3
   1  12  -5 55.2372 32.2601   5
  -1 -12   5 142.457 43.0266   3
   1 -12  -5 25.8910 22.9500   2
   1 -12  -4 2475.87 110.393   2
  -1 -12   4 2468.48 129.820   3
  -1  12   4 2464.70 100.696   4
   1  12  -4 2753.51 145.919   5
   1 -12  -3 150.880 29.9660   2
  -1 -12   3 108.243 29.2118   3
  -1  12   3 105.487 26.8689   4
   1 -12  -2 20.7831 17.6543   2
  -1  12   2 21.7660 15.8067   3
   1  12  -2-40.3246 37.8224   4
  -1 -12   2 32.6915 25.0787   3
  -1  12   2 41.2271 24.4899   4
   1  12  -1 5219.03 176.947   4
  -1  12   1 5079.81 169.537   4
   1 -12  -1 5061.95 135.371   2
  -1  12   1 5092.29 118.107   3
  -1 -12   1 5065.08 161.442   3
   1  12   0 1683.64 98.8384   4
  -1  12   0 1637.06 101.321   4
  -1 -12   0 1584.86 88.8755   3
  -1 -12   0 1664.91 91.1610   2
   1 -12   0 1706.56 76.2592   3
   1 -12   1 501.074 45.9090   3
  -1 -12  -1 506.922 53.6607   2
  -1  12  -1 471.768 60.9038   4
   1  12   1 570.458 55.9990   4
  -1  12  -2 303.064 50.6384   4
  -1 -12  -2 260.724 40.1944   2
   1 -12   2 283.864 39.5692   3
  -1  12  -3 17519.6 365.183   4
   1 -12   3 17925.4 304.921   3
  -1 -12  -3 17943.1 314.194   2
  -1  12  -3 18282.7 339.181   5
  -1 -12  -4 71.5168 31.0186   2
   1 -12   4 44.0029 25.8189   3
  -1  12  -4 55.1220 35.8340   5
  -1  12  -4 29.2625 35.0992   4
   1 -12   5 243.311 47.8514   3
  -1 -12  -5 192.443 39.7262   2
  -1  12  -5 197.117 47.2267   5
  -1  12  -5 246.845 57.7130   4
  -1  12  -6 280.273 66.8105   5
   1 -12   6 255.089 56.7135   3
  -1  12  -6 306.734 62.9139   4
  -1 -12  -6 317.623 61.8395   2
   1 -12   7 1661.60 130.547   3
  -1  12  -7 1609.33 129.790   5
  -1 -12  -7 1585.55 124.845   2
  -1  12  -7 1529.61 129.717   4
  -1  12  -8-20.7931 51.4724   5
  -1 -12  -8 3.82355 35.3987   2
   1 -12   8 8.82757 38.7029   3
   1  13  -7 1010.73 129.154   5
  -1 -13   7 1295.10 117.402   3
   1  13  -6 124.673 51.4952   5
   1 -13  -6 228.331 46.7260   2
  -1 -13   6 205.111 51.5413   3
   1  13  -5 2431.08 150.832   5
  -1 -13   5 2347.17 140.029   3
   1 -13  -5 2494.14 125.259   2
  -1  13   4 3004.84 116.868   4
   1 -13  -4 2832.12 122.858   2
   1  13  -4 2802.08 152.157   5
  -1 -13   4 2676.98 139.543   3
  -1  13   3 42.6416 24.6937   4
  -1 -13   3 8.69991 25.0929   3
   1 -13  -3 6.01726 16.3857   2
   1 -13  -2 6289.21 160.660   2
   1  13  -2 6531.25 218.593   4
  -1  13   2 6650.31 193.076   4
  -1 -13   2 6560.77 199.293   3
   1  13  -1 1704.28 108.793   4
   1 -13  -1 1676.14 82.3550   2
  -1  13   1 1796.61 105.384   4
  -1 -13   1 1685.85 97.6229   3
  -1  13   0 3428.36 151.210   4
   1  13   0 3797.97 152.454   4
  -1 -13   0 3395.31 134.202   2
   1 -13   0 3757.28 118.486   3
   1 -13   1 4425.21 136.798   3
  -1 -13  -1 3875.56 143.052   2
  -1  13  -1 4160.65 171.912   4
   1 -13   2 22613.5 327.370   3
  -1 -13  -2 22116.1 348.401   2
  -1  13  -2 22481.3 414.980   4
   1 -13   3 1090.58 81.5912   3
  -1  13  -3 1061.61 97.6707   4
  -1  13  -3 1083.49 90.6569   5
  -1 -13  -3 1170.18 85.2075   2
   1 -13   4 2595.46 132.203   3
  -1  13  -4 2516.71 152.178   4
  -1  13  -4 2647.37 143.285   5
  -1 -13  -4 2683.35 136.566   2
  -1 -13  -5 3483.54 165.659   2
  -1  13  -5 3076.21 175.541   4
   1 -13   5 3664.34 167.759   3
  -1  13  -5 3440.08 170.462   5
  -1  13  -6 1277.19 117.506   4
  -1  13  -6 1582.14 124.776   5
   1 -13   6 1480.21 117.845   3
  -1 -13  -6 1491.13 117.435   2
  -1  13  -7 75.6022 54.3197   5
   1 -13   7 32.0797 28.9269   3
  -1  13  -7 31.6753 33.5111   4
  -1 -13  -7-2.93396 39.1621   2
  -1 -13  -8 5885.91 254.727   2
  -1  13  -8 6205.40 265.686   5
   1  14  -7 6257.13 284.128   5
  -1 -14   7 6462.79 265.708   3
   1  14  -6 113.841 65.9899   5
  -1 -14   6 240.258 50.4100   3
  -1 -14   5 950.498 93.8173   3
   1  14  -5 888.927 97.8174   5
   1 -14  -5 903.515 80.6424   2
  -1 -14   4 3199.71 156.891   3
   1 -14  -4 3291.04 137.665   2
  -1  14   4 3433.30 131.982   4
   1  14  -4 3108.10 166.947   5
  -1 -14   3 24067.2 408.241   3
  -1  14   3 24858.7 371.567   4
   1 -14  -3 25277.8 351.955   2
  -1 -14   2 887.137 78.9898   3
  -1  14   2 904.941 77.0061   4
   1 -14  -2 900.416 66.1566   2
  -1 -14   1 270.023 43.7476   3
  -1  14   1 262.220 49.0775   4
   1 -14  -1 216.401 34.8314   2
   1  14  -1 173.812 41.3061   4
  -1 -14   0 2148.89 111.987   2
  -1  14   0 2039.32 122.964   4
   1 -14   0 2220.17 95.9156   3
   1 -14   1 3899.68 134.098   3
  -1  14  -1 3896.43 174.264   4
  -1 -14  -1 3860.96 148.900   2
  -1 -14  -2 97.5128 30.3766   2
   1 -14   2 147.631 33.2495   3
  -1  14  -2 223.822 49.4691   4
  -1 -14  -3 250.432 43.6384   2
  -1  14  -3 303.089 59.8186   4
   1 -14   3 275.340 44.2904   3
  -1  14  -3 223.482 51.5990   5
  -1 -14  -4 863.929 82.2338   2
  -1  14  -4 867.265 87.9427   5
   1 -14   4 624.751 66.4634   3
  -1  14  -4 846.731 93.7576   4
  -1 -14  -5 28.7192 37.9190   2
  -1  14  -5 18.8873 36.5599   5
   1 -14   5 27.3633 25.8059   3
  -1  14  -5-14.7966 38.9521   4
   1 -14   6 60.4523 36.6992   3
  -1  14  -6 75.4382 45.6088   5
  -1  14  -6 176.779 58.4487   4
  -1 -14  -6 45.9351 29.5190   2
  -1  14  -7 2910.48 179.474   5
   1 -14   7 2740.09 172.108   3
  -1 -14  -7 2649.38 167.970   2
  -1 -15   6 9.31731 33.2069   3
   1  15  -6 15495.8 550.273   5
   1  15  -5 694.001 92.6453   5
  -1 -15   5 527.095 73.7984   3
   1 -15  -4 57.6346 28.5498   2
   1  15  -4-37.7063 39.3454   5
  -1 -15   4-28.0488 26.9004   3
   1 -15  -3-10.2195 22.2310   2
  -1  15   3-7.01350 25.1595   4
  -1 -15   3 52.8604 32.7960   3
   1 -15  -2 468.876 50.5988   2
  -1  15   2 497.090 60.8040   4
  -1 -15   2 459.886 60.0357   3
   1 -15  -1 944.046 69.8262   2
  -1  15   1 971.005 85.4691   4
  -1 -15   1 1107.04 88.6966   3
  -1 -15   0 11.5703 21.2278   2
   1 -15   0 47.1942 23.0876   2
  -1  15   0 92.7520 41.8391   4
  -1 -15  -1 11290.8 267.252   2
  -1  15  -1 10761.9 301.579   4
   1 -15   1 10936.4 233.611   3
  -1  15  -2 129.793 44.5616   4
   1 -15   2 115.430 28.9545   3
  -1 -15  -2 139.786 42.9109   2
  -1  15  -3 549.959 69.6650   5
  -1 -15  -3 524.260 63.7108   2
   1 -15   3 489.145 57.2516   3
  -1  15  -3 522.500 72.9564   4
  -1  15  -4 905.305 97.2036   4
  -1  15  -4 1040.33 99.1928   5
  -1 -15  -4 981.092 91.2731   2
   1 -15   4 1080.24 90.5297   3
  -1 -15  -5 10839.0 304.539   2
  -1  15  -5 11029.9 323.218   5
  -1  15  -5 10870.7 350.650   4
   1 -15   5 10653.4 299.671   3
  -1  15  -6 437.969 78.2610   4
  -1  15  -6 671.126 89.7624   5
   1 -15   6 576.632 82.6654   3
  -1 -15  -6 584.112 81.0484   2
  -1  15  -7 1785.56 147.956   5
   1 -15   7 1737.21 140.007   3
  -1 -15  -7 1703.32 137.217   2
   1  16  -6 548.568 104.022   5
  -1 -16   6 980.151 107.497   3
   1  16  -5 1874.74 161.976   5
  -1 -16   5 2329.35 151.099   3
  -1 -16   4 2953.49 161.986   3
   1  16  -4 2917.68 174.220   5
  -1 -16   3 11669.1 306.452   3
   1 -16  -3 11512.4 257.693   2
  -1  16   3 11831.4 282.189   4
  -1  16   2 3266.16 155.526   4
  -1 -16   2 3120.10 154.064   3
   1 -16  -2 3225.65 133.306   2
   1 -16  -1 690.173 63.1204   2
  -1  16   1 894.720 87.9704   4
  -1 -16   1 861.085 80.1496   3
   1 -16   0 5910.26 180.667   2
  -1  16   0 6311.27 231.155   4
  -1 -16   0 6227.40 206.002   2
  -1 -16  -1 7603.74 226.538   2
  -1  16  -1 7616.56 263.409   4
   1 -16   1 7200.14 195.486   3
   1 -16   2 44.8877 29.4136   3
  -1  16  -2-25.8861 37.3773   4
  -1 -16  -2 14.9311 26.8584   2
   1 -16   3 1791.99 111.178   3
  -1 -16  -3 1771.10 117.379   2
  -1  16  -3 1606.75 134.807   4
  -1  16  -3 1513.79 118.087   5
   1 -16   4 2314.48 136.739   3
  -1  16  -4 2331.16 150.159   5
  -1  16  -4 2462.07 170.687   4
  -1 -16  -4 2295.69 139.059   2
  -1 -16  -5 355.539 63.7376   2
  -1  16  -5 297.721 60.0119   5
  -1  16  -5 266.739 62.6138   4
   1 -16   5 310.645 58.5638   3
   1 -16   6 701.676 86.9857   3
  -1  16  -6 816.193 108.617   4
  -1  16  -6 958.646 109.709   5
  -1 -16  -6 918.970 105.403   2
  -1 -17   5 5061.90 227.789   3
   1  17  -5 4538.61 244.097   5
   1  17  -4 660.179 108.455   5
  -1 -17   4 858.617 93.2410   3
   1  17  -3 1499.64 148.270   5
  -1  17   3 2151.91 127.223   4
  -1 -17   3 2019.47 134.217   3
   1 -17  -2 2505.70 123.077   2
  -1  17   2 2683.71 146.874   4
  -1 -17   2 2616.78 145.750   3
   1 -17  -1 4550.57 163.120   2
  -1  17   1 4298.60 192.061   4
  -1 -17   1 4484.42 184.035   2
  -1 -17   0 885.242 85.1449   2
   1 -17   0 888.867 74.5579   2
  -1  17   0 934.731 97.8826   4
  -1 -17  -1-2.98917 23.4530   2
  -1  17  -1-43.8742 35.3177   4
  -1  17  -2 7881.39 287.878   4
  -1 -17  -2 7771.01 244.614   2
   1 -17   2 7703.05 223.177   3
  -1 -17  -3 433.896 65.4930   2
   1 -17   3 481.065 64.5119   3
  -1  17  -3 290.213 59.5514   5
  -1  17  -3 383.997 74.2677   4
  -1  17  -4 342.473 64.7013   5
   1 -17   4 349.821 61.7224   3
  -1 -17  -4 444.320 68.4514   2
  -1  17  -4 403.849 86.3514   4
  -1 -17  -5 3584.59 187.802   2
   1 -17   5 3470.34 178.336   3
  -1  17  -5 3606.55 200.444   5
  -1  17  -5 3646.35 218.183   4
   1 -17   6 743.847 92.6924   3
  -1 -18   5 298.053 62.9045   3
  -1 -18   4 1726.12 135.603   3
   1  18  -4 1196.68 133.703   5
   1  18  -3 4833.94 287.197   5
  -1 -18   3 359.167 63.9316   3
  -1  18   2-27.3169 26.3977   4
  -1 -18   2 12.2479 31.3143   3
   1 -18  -1 4639.89 172.555   2
  -1  18   1 4757.44 209.162   4
  -1 -18   1 4368.94 187.775   2
   1 -18   0 528.699 62.0184   2
  -1  18   0 605.640 83.9448   4
  -1 -18   0 759.481 79.8843   2
  -1 -18  -1 2424.48 140.675   2
  -1  18  -1 2401.72 162.108   4
  -1 -18  -2 22.2001 35.2574   2
  -1  18  -2 60.2184 48.4123   4
  -1  18  -3 9458.16 308.627   5
  -1 -18  -3 9615.15 287.803   2
  -1  18  -3 9526.38 339.875   4
  -1 -18  -4 130.985 54.7146   2
  -1  18  -4 83.6502 54.0536   5
   1 -18   4 100.760 38.0373   3
  -1  18  -4 155.648 71.0100   4
  -1 -18  -5 69.7505 43.6172   2
   1 -18   5 36.4066 37.0462   3
  -1 -19   4 796.895 97.4380   3
  -1 -19   3 466.834 73.0210   3
  -1  19   2 4815.44 210.418   4
  -1 -19   2 4867.83 210.691   3
  -1  19   1 9384.93 306.862   4
  -1 -19   1 9585.70 289.863   2
  -1 -19   0 142.564 48.3598   2
  -1  19   0 104.954 50.9969   4
  -1 -19  -1 318.202 61.7165   2
   1 -19   1 402.506 63.7769   2
  -1  19  -1 386.539 75.9614   4
  -1 -19  -2 285.787 54.6714   2
  -1  19  -2 349.676 71.3511   4
  -1 -19  -3 997.753 99.3310   2
  -1  19  -3 1084.59 114.185   5
  -1 -19  -4 33.1528 45.3841   2
  -1 -20   2 2031.39 142.590   2
  -1 -20   1 40.9512 37.1657   2
  -1  20   1 129.394 45.7366   4
  -1 -20   0 8906.62 284.786   2
  -1  20   0 8548.83 311.424   4
  -1  20  -1 2565.40 180.075   4
  -1 -20  -1 2446.03 151.554   2
  -1 -20  -2 740.971 91.4475   2
   2   0 -10 1811.35 148.373   5
  -2   0  10 1856.78 135.348   3
   2   0  -9 77.8906 51.2944   5
  -2   0   9-7.21380 24.7978   3
   2   0  -8 120.782 48.2239   5
  -2   0   8 131.267 41.5851   3
   2   0  -8 186.126 38.3838   1
   2   0  -7-14.3471 28.6789   5
  -2   0   7 29.0183 25.4505   3
   2   0  -6 30492.9 429.827   5
  -2   0   6 30427.4 374.700   3
   2   0  -5-6.72869 22.7028   5
  -2   0   5-9.05018 18.6836   3
   2   0  -4 158.567 27.8199   5
  -2   0   4 281.751 31.8598   2
  -2   0   4 237.657 29.7111   3
   2   0  -3 30.0840 13.4238   3
  -2   0   3 5.58584 11.6173   3
  -2   0   3 13.7862 15.5919   5
  -2   0   3 6.43459 10.8792   2
   2   0  -3 23.6662 20.4226   5
  -2   0   2 23041.7 196.132   3
   2   0  -2 23780.5 197.747   3
  -2   0   2 23650.0 210.139   5
   2   0  -2 22623.0 211.201   5
  -2   0   1 9.91374 9.11539   5
  -2   0   1-10.5125 11.3441   3
   2   0  -1 3.77245 9.00576   3
   2   0  -1-1.15856 9.14828   5
  -2   0   0 3736.32 66.8338   2
   2   0   0 3706.28 64.6902   2
  -2   0  -1 4.47935 15.2997   2
   2   0   1-0.68750 6.47531   5
   2   0   1 7.74127 11.8608   2
   2   0   1 11.0827 12.1171   1
  -2   0  -1 2.20436 12.6147   4
  -2   0  -2 21338.4 205.333   4
   2   0   2 21754.7 243.477   2
   2   0   2 21222.4 172.937   1
  -2   0  -2 20970.8 243.150   2
  -2   0  -3-2.84754 13.8477   5
  -2   0  -3 12.2066 10.7658   4
   2   0   3 12.2059 12.4031   5
  -2   0  -3 12.4351 19.3729   2
  -2   0  -4 356.900 30.1465   4
  -2   0  -4 420.652 43.2881   5
   2   0   4 343.495 27.7176   4
  -2   0  -4 350.988 46.9236   2
  -2   0  -5 7.87492 23.8377   2
  -2   0  -5-5.40324 12.8734   4
   2   0   5 20.0900 12.4366   4
  -2   0  -5 13.0995 18.9948   5
  -2   0  -6 1551.76 95.5002   5
  -2   0  -6 1518.32 61.3168   4
  -2   0  -6 1672.49 109.218   2
  -2   0  -7 9.80327 24.9262   5
  -2   0  -7 24.5963 32.3199   2
  -2   0  -8 1086.95 103.168   2
  -2   0  -9 40.8959 49.1210   2
  -2   0 -10 7385.71 305.897   2
  -2   1  10 7238.69 256.306   3
   2   1 -10 7493.21 293.181   5
  -2  -1  10 6970.83 259.381   3
  -2  -1   9 467.384 66.5890   3
  -2   1   9 436.802 64.5003   3
   2  -1  -9 505.125 75.6311   5
   2   1  -9 659.380 88.4800   5
   2  -1  -8 729.409 83.5799   5
   2  -1  -8 703.346 63.0587   1
   2   1  -8 708.611 80.8812   5
  -2   1   8 722.826 70.6604   3
  -2  -1   8 739.491 76.1601   3
  -2  -1   7 1345.96 90.2234   3
   2  -1  -7 1261.15 98.1608   5
   2   1  -7 1208.94 97.4518   5
  -2   1   7 1259.53 84.1765   3
   2  -1  -7 1241.35 80.6247   1
   2  -1  -6 508.502 51.1296   1
   2  -1  -6 585.139 65.0037   5
  -2   1   6 576.580 52.7661   3
  -2  -1   6 604.589 56.4426   3
   2   1  -6 584.834 64.1347   5
   2  -1  -5 16273.9 282.863   5
   2   1  -5 16548.7 286.838   5
  -2  -1   5 16814.0 255.457   3
  -2   1   5 16324.1 239.106   3
   2  -1  -4 1459.34 77.4715   5
  -2  -1   4 1440.00 70.6825   2
  -2   1   4 1351.63 62.9827   2
  -2  -1   4 1345.57 65.5433   3
  -2   1   4 1316.66 60.5227   3
   2   1  -4 1282.70 72.6258   5
  -2  -1   3 114.600 20.2234   5
  -2   1   3 134.588 23.9973   5
   2   1  -3 115.883 26.2412   5
   2  -1  -3 139.528 25.9320   5
  -2  -1   3 149.807 22.5509   3
  -2   1   3 121.331 18.5588   3
   2   1  -3 153.822 21.8660   3
  -2   1   3 149.298 19.6847   2
   2   1  -2 34592.6 267.805   5
   2  -1  -2 34782.0 216.675   3
  -2   1   2 35436.0 255.854   5
   2  -1  -2 34513.6 255.488   5
  -2  -1   2 34812.6 261.250   3
  -2   1   2 34660.7 217.936   3
  -2   1   2 35194.2 203.513   2
   2   1  -2 35583.3 259.832   3
  -2  -1   2 35241.8 264.015   5
  -2  -1   1 34308.0 241.509   3
   2   1  -1 34548.9 210.950   5
   2  -1  -1 34684.9 176.855   5
  -2   1   1 34783.7 145.774   2
  -2   1   1 34696.8 176.470   5
   2  -1  -1 34160.5 190.632   3
   2   1  -1 35877.1 242.523   3
  -2   1   1 34336.3 193.114   3
  -2   1   0 21251.4 151.176   2
   2  -1   0 21105.3 140.535   2
  -2  -1   0 21578.5 172.646   2
   2   1   0 21580.5 169.949   2
   2  -1   0 21608.2 212.006   1
   2   1   0 21797.1 195.701   3
   2  -1   1 12704.9 155.054   1
   2   1   1 13041.5 156.212   2
  -2   1  -1 12380.9 98.9800   5
   2  -1   1 12736.0 102.509   5
  -2  -1  -1 12659.0 158.681   2
  -2   1  -1 13239.6 168.499   4
  -2   1  -1 12595.3 156.156   2
  -2  -1  -2 4684.97 115.900   2
   2  -1   2 4983.34 116.269   2
  -2   1  -2 5044.20 119.742   2
   2   1   2 4941.94 116.564   2
  -2   1  -2 5034.80 108.687   4
   2   1   2 4976.74 98.6567   5
  -2   1  -2 5129.28 95.1885   5
   2  -1   2 4796.36 93.6046   5
   2   1   2 4976.53 76.8970   1
   2  -1   2 4979.64 105.955   4
  -2   1  -2 4895.88 89.6369   1
  -2  -1  -2 4920.96 91.8583   4
   2  -1   3 2820.85 88.4467   5
   2   1   3 2858.70 90.2271   5
  -2   1  -3 2959.89 89.6480   5
  -2   1  -3 2742.38 84.0032   4
  -2   1  -3 2765.00 62.5657   1
   2  -1   3 2776.88 82.4499   4
  -2  -1  -3 2678.41 70.4254   4
  -2   1  -3 2846.50 104.830   2
  -2  -1  -3 2871.03 104.845   2
  -2  -1  -4 4591.69 92.6376   4
  -2   1  -4 4724.53 131.339   5
  -2   1  -4 4500.36 111.320   4
   2  -1   4 4661.75 110.434   4
  -2   1  -4 4753.19 150.041   2
  -2  -1  -4 4749.87 150.580   2
  -2  -1  -5 10567.0 135.948   4
  -2   1  -5 10439.1 221.156   5
  -2   1  -5 10420.3 173.808   4
   2  -1   5 10460.9 170.687   4
  -2   1  -5 10497.2 245.250   2
  -2  -1  -5 10856.0 250.659   2
  -2   1  -6 2484.91 88.7533   4
   2  -1   6 2523.23 86.3474   4
  -2   1  -6 2517.90 132.648   2
  -2   1  -6 2628.63 123.786   5
  -2  -1  -6 2375.73 128.574   2
  -2   1  -7 60.5924 38.9920   2
  -2  -1  -7 33.3800 33.7361   2
  -2   1  -7 48.7610 34.9647   5
  -2   1  -8-7.06358 30.2878   5
  -2   1  -8 45.0097 31.2866   2
  -2  -1  -8 75.9263 37.8937   2
  -2   1  -9 65.6018 40.4648   2
  -2  -1  -9 42.1838 40.5899   2
  -2  -1 -10 22.5736 43.5674   2
   2   2 -10 3602.58 205.644   5
  -2   2  10 3139.88 167.434   3
  -2  -2  10 3271.50 182.737   3
   2   2  -9 102.597 42.2676   5
  -2  -2   9 94.6856 44.5759   3
  -2   2   9 159.427 49.5561   3
   2  -2  -8 11.3186 18.7541   1
  -2   2   8-10.0437 24.1638   3
   2  -2  -8 47.2210 34.8321   5
   2   2  -8 14.9979 37.5579   5
  -2  -2   8 40.4491 28.6411   3
   2  -2  -7 233.078 39.2560   1
  -2   2   7 268.413 41.1871   3
   2   2  -7 256.662 50.8801   5
   2  -2  -7 191.063 43.4685   5
  -2  -2   7 225.263 43.7357   3
  -2  -2   6 4680.94 154.528   3
   2  -2  -6 4632.14 168.921   5
   2  -2  -6 4447.54 143.988   1
  -2   2   6 4644.15 139.985   3
   2   2  -6 4431.12 166.608   5
  -2  -2   5 2271.89 99.2352   3
   2  -2  -5 2026.78 100.408   5
   2   2  -5 2046.59 103.072   5
   2  -2  -5 2060.92 94.2312   1
  -2   2   5 2237.68 86.3243   3
   2   2  -4 15180.2 247.640   5
  -2   2   4 15019.1 192.463   3
   2  -2  -4 14921.9 239.698   5
  -2  -2   4 15534.5 228.143   3
   2  -2  -4 15094.7 237.467   1
  -2   2   4 14933.0 204.052   2
  -2  -2   3 27590.9 272.309   3
  -2  -2   3 27459.7 287.990   5
   2   2  -3 27269.0 269.303   3
   2   2  -3 27013.0 290.654   5
  -2   2   3 27615.5 282.069   5
   2  -2  -3 26852.0 298.863   1
  -2   2   3 27078.5 220.909   2
  -2   2   3 27213.0 212.968   3
   2  -2  -3 26872.5 274.539   5
   2   2  -2 8819.96 139.865   3
   2  -2  -2 8707.64 126.483   5
  -2   2   2 8674.61 129.523   5
   2  -2  -2 8653.33 160.010   1
  -2   2   2 8885.92 96.7271   3
   2   2  -2 8606.40 141.325   5
  -2   2   2 8532.39 87.7318   2
  -2  -2   2 8623.89 139.190   3
   2  -2  -2 8808.87 95.0483   3
  -2  -2   1 1359.98 53.3740   3
   2  -2  -1 1357.23 61.4232   1
   2  -2  -1 1380.89 32.0048   3
  -2   2   1 1465.62 59.5056   4
  -2   2   1 1396.29 38.8980   5
   2   2  -1 1346.15 51.8462   3
   2  -2   0 66407.4 240.793   2
   2  -2   0 67333.8 401.109   1
  -2  -2   0 67915.1 333.915   2
  -2   2   0 67194.4 258.242   2
  -2   2   0 66918.6 394.635   4
   2  -2   1 33623.7 250.397   2
  -2   2  -1 33136.7 285.925   4
  -2  -2  -1 32756.9 261.384   2
   2   2   1 33072.0 257.033   2
   2  -2   1 32360.9 282.544   4
  -2   2  -1 32649.5 266.522   1
   2  -2   1 32622.3 271.715   1
  -2   2  -1 32201.5 247.273   2
  -2   2  -1 32622.5 169.612   5
   2   2   2 222.765 28.2156   2
  -2  -2  -2 160.636 27.3035   2
  -2   2  -2 180.327 26.4051   2
  -2   2  -2 151.927 20.4182   1
   2  -2   2 149.012 20.1363   5
   2   2   2 126.366 18.1183   5
  -2   2  -2 178.229 25.4479   4
   2  -2   2 164.518 23.0116   4
   2  -2   2 185.457 25.9718   2
  -2   2  -2 166.202 19.5669   5
  -2  -2  -3 6666.04 159.688   2
   2   2   3 6655.30 62.9642   1
   2   2   3 6831.66 142.687   5
  -2   2  -3 6696.35 139.918   4
  -2  -2  -3 6553.08 99.6001   4
  -2   2  -3 6508.33 112.145   1
   2  -2   3 6691.13 136.748   5
  -2   2  -3 6394.49 154.531   2
   2  -2   3 6357.99 134.911   4
  -2   2  -3 6617.14 134.529   5
  -2   2  -4 9179.18 170.032   4
  -2  -2  -4 9081.31 112.242   4
   2  -2   4 9325.45 168.395   4
  -2   2  -4 9041.78 183.105   5
  -2   2  -4 9187.97 208.161   2
  -2  -2  -4 8924.85 205.151   2
  -2   2  -4 8885.64 125.485   1
  -2  -2  -5 4244.15 66.1153   4
  -2   2  -5 4347.17 123.221   4
  -2   2  -5 4233.80 140.648   5
  -2   2  -5 4306.67 81.0738   1
   2  -2   5 4163.70 117.756   4
  -2   2  -5 4335.75 159.451   2
  -2  -2  -5 4522.32 161.709   2
  -2   2  -6 918.483 74.8753   5
  -2   2  -6 859.133 57.1700   4
  -2   2  -6 956.989 29.4015   1
  -2   2  -6 1037.12 87.9076   2
  -2  -2  -6 975.273 84.1556   2
  -2   2  -7 4101.46 169.000   5
  -2   2  -7 4155.62 128.238   4
  -2   2  -7 4017.11 183.906   2
  -2  -2  -7 3928.91 182.378   2
  -2   2  -8 2071.32 130.202   5
  -2   2  -8 2009.32 141.924   2
  -2  -2  -8 2016.25 142.297   2
  -2   2  -9 2952.37 168.877   5
  -2  -2  -9 2517.46 168.871   2
  -2   3  10 102.357 39.5559   3
  -2  -3  10 116.716 48.7117   3
   2   3 -10 163.591 50.4160   5
  -2  -3   9 15.9243 29.2157   3
   2   3  -9 43.6774 45.9076   5
  -2   3   9 23.1987 24.4820   3
  -2  -3   8 7225.78 233.628   3
   2   3  -8 7091.21 252.387   5
  -2   3   8 7095.93 208.425   3
   2  -3  -8 7362.43 195.089   1
  -2   3   7 6794.24 183.603   3
  -2  -3   7 6692.02 207.613   3
   2   3  -7 7080.01 233.817   5
   2  -3  -7 6950.13 185.935   1
   2   3  -6 432.531 55.8970   5
  -2  -3   6 469.433 54.4858   3
   2  -3  -6 423.444 47.6499   1
  -2   3   6 452.328 45.6064   3
  -2   3   5 8991.85 164.934   3
   2  -3  -5 8753.45 194.155   1
   2  -3  -5 8796.49 207.922   5
  -2  -3   5 8744.89 196.000   3
   2   3  -5 9229.40 219.270   5
   2  -3  -4 28410.6 262.869   2
  -2   3   4 28575.1 252.837   3
   2   3  -4 28690.9 346.558   5
   2  -3  -4 28198.7 328.618   1
  -2  -3   4 28653.7 321.636   3
  -2   3   4 27840.9 272.427   2
  -2   3   3 44.8415 14.7785   2
   2  -3  -3 22.4999 18.3945   1
   2   3  -3 48.4278 23.3207   5
  -2   3   3 11.2206 13.6853   5
  -2  -3   3 24.6882 15.3456   3
  -2   3   3 10.1794 9.27894   3
   2   3  -2 210.315 26.4251   5
  -2   3   2 221.187 13.8455   3
  -2   3   2 235.126 24.5530   5
  -2  -3   2 246.838 28.6326   3
  -2   3   2 238.086 28.0525   4
   2   3  -2 265.410 27.1632   3
  -2   3   2 224.511 12.3487   2
   2  -3  -2 268.109 34.0682   1
   2  -3  -1 17537.3 227.227   1
  -2   3   1 18164.4 152.807   5
   2   3  -1 17965.7 201.846   3
  -2  -3   1 17944.4 204.234   3
  -2   3   1 18029.3 215.690   4
  -2   3   1 17771.4 228.173   1
   2   3   0 2079.62 69.5756   3
  -2  -3   0 2109.93 65.0026   2
   2  -3   0 1911.76 73.9588   1
  -2   3   0 2122.41 76.7847   1
  -2   3   0 1971.87 42.2069   2
  -2   3   0 2012.13 75.1185   4
   2  -3   0 2100.17 75.1573   4
   2  -3   0 2060.89 44.9930   2
  -2  -3  -1 7491.23 130.180   2
  -2   3  -1 7543.89 140.057   1
   2   3   1 7293.11 126.904   2
   2  -3   1 7751.20 148.389   4
  -2   3  -1 7585.71 147.218   4
  -2   3  -1 7478.66 117.619   2
  -2   3  -1 7340.59 91.9220   5
   2  -3   1 7456.16 118.203   2
  -2  -3  -2 222.997 30.8066   2
   2  -3   2 288.480 26.1435   5
  -2   3  -2 262.488 27.4591   1
  -2   3  -2 241.561 24.0762   5
   2   3   2 227.315 28.3647   2
  -2   3  -2 262.531 30.9714   4
   2  -3   2 373.567 36.5286   4
  -2   3  -2 253.820 31.0932   2
   2  -3   2 268.874 31.1013   2
  -2  -3  -3 973.568 62.4270   2
   2  -3   3 933.925 53.3598   5
  -2   3  -3 938.243 52.2641   5
  -2   3  -3 921.933 59.0104   4
   2  -3   3 996.154 57.8877   4
  -2  -3  -3 927.174 35.0626   4
  -2   3  -3 930.538 62.5257   2
  -2   3  -3 940.783 48.6817   1
  -2   3  -4 834.953 58.4072   5
  -2  -3  -4 953.479 69.3960   2
  -2   3  -4 760.102 55.1247   4
  -2  -3  -4 849.130 28.6791   4
  -2   3  -4 905.391 68.3060   2
  -2   3  -4 855.719 46.4348   1
  -2   3  -5 2723.08 104.771   4
  -2   3  -5 2987.49 132.895   2
  -2   3  -5 2836.69 80.8640   1
  -2  -3  -5 2923.17 132.775   2
  -2   3  -5 2865.80 117.352   5
  -2   3  -6 51.6773 26.7182   5
  -2   3  -6 61.6004 15.7117   1
  -2   3  -6 16.7205 26.6680   2
  -2  -3  -6 12.7766 26.2431   2
  -2   3  -6 59.5683 24.1088   4
  -2   3  -7 7011.47 245.909   2
  -2  -3  -7 7016.87 240.373   2
  -2   3  -7 6921.21 179.374   4
  -2   3  -7 6848.93 218.454   5
  -2   3  -8 6081.77 223.678   5
  -2  -3  -8 6235.18 244.492   2
   2  -3   9 46.7110 33.4686   3
  -2  -3  -9 140.377 49.0744   2
  -2   3  -9 85.9212 39.2277   5
  -2   3 -10 3770.99 201.886   5
  -2  -4  10 2777.06 175.222   3
   2   4 -10 2964.72 188.760   5
  -2  -4   9 568.233 79.5514   3
  -2   4   9 522.723 65.2132   3
   2   4  -9 480.559 79.7608   5
   2   4  -8 2704.26 161.970   5
  -2   4   8 2312.53 118.971   3
  -2  -4   8 2383.78 138.667   3
   2  -4  -7 343.891 46.5137   1
   2   4  -7 336.194 56.8069   5
  -2  -4   7 367.861 55.9717   3
  -2   4   7 448.243 49.5025   3
  -2   4   7 459.043 40.0865   4
  -2  -4   6 664.075 63.8321   3
  -2   4   6 719.233 53.7403   3
   2  -4  -6 680.482 55.4589   2
  -2   4   6 678.367 46.8516   4
   2   4  -6 662.213 68.8617   5
   2  -4  -6 757.777 63.7787   1
   2  -4  -5 1587.12 86.3729   1
  -2   4   5 1616.34 76.9981   2
   2   4  -5 1753.35 99.0103   5
  -2  -4   5 1621.99 88.3367   3
   2  -4  -5 1610.67 74.4641   2
  -2   4   5 1673.92 72.6728   4
  -2   4   5 1657.93 69.9009   3
   2  -4  -4 16961.8 264.072   1
  -2   4   4 16590.9 201.182   2
   2   4  -4 16686.9 271.758   5
  -2  -4   4 16558.1 254.251   3
  -2   4   4 16479.9 184.209   3
   2  -4  -4 17004.8 199.818   2
  -2   4   4 16406.4 222.313   4
   2   4  -3 10570.9 195.481   5
  -2   4   3 10656.2 188.491   5
   2  -4  -3 10651.7 123.236   2
  -2  -4   3 10851.1 190.048   3
  -2   4   3 10582.9 120.604   2
  -2   4   3 10238.7 173.942   4
  -2   4   3 10411.2 113.651   3
   2  -4  -3 10652.3 200.824   1
  -2  -4   2 975.229 54.2921   3
  -2   4   2 973.741 49.9761   5
   2  -4  -2 979.885 22.8111   2
  -2   4   2 1077.61 57.0388   4
   2   4  -2 937.224 53.8369   5
  -2   4   2 1050.00 61.8513   1
   2  -4  -2 1003.00 61.6269   1
   2   4  -2 1001.00 54.6274   3
  -2  -4   1 10856.7 169.944   3
  -2   4   1 10922.7 188.817   1
  -2   4   1 10762.5 176.888   4
   2   4  -1 10809.4 166.431   3
   2  -4  -1 10821.2 189.720   1
   2   4   0 11432.8 171.956   3
  -2   4   0 11421.9 189.811   1
  -2  -4   0 11714.4 160.934   2
  -2   4   0 11640.9 187.740   4
   2  -4   0 11838.2 190.082   4
   2  -4   0 11819.9 111.895   2
  -2  -4  -1 1666.66 65.6147   2
  -2   4  -1 1669.07 51.0934   5
   2   4   1 1651.51 64.4784   2
   2   4   1 1667.79 69.6938   3
  -2   4  -1 1784.35 76.8910   4
   2  -4   1 1740.78 75.4693   4
   2  -4   1 1696.68 57.5245   2
  -2   4  -1 1848.39 75.6613   1
  -2   4  -2 4726.48 101.373   5
  -2  -4  -2 4597.34 120.936   2
  -2   4  -2 4777.60 117.620   2
   2  -4   2 4821.88 128.852   4
  -2   4  -2 4764.68 129.099   4
  -2   4  -2 4931.26 120.450   1
   2  -4   2 4932.54 118.419   2
  -2  -4  -3 739.071 56.4245   2
  -2   4  -3 793.951 49.1430   5
  -2   4  -3 804.197 58.0943   2
  -2   4  -3 770.139 57.7126   4
  -2   4  -4 15337.5 272.298   2
  -2   4  -4 15155.2 242.448   5
  -2   4  -4 15078.6 248.775   4
  -2  -4  -4 15141.9 275.037   2
  -2   4  -5 1053.68 73.8286   5
  -2   4  -5 1031.67 68.5969   4
  -2   4  -5 1001.44 81.8246   2
  -2  -4  -5 987.035 80.6673   2
  -2  -4  -6 576.803 67.5744   2
  -2   4  -6 604.406 62.0984   5
  -2   4  -6 570.568 69.2951   2
  -2   4  -6 624.757 57.1173   4
  -2   4  -7 984.217 75.4959   4
  -2  -4  -7 991.150 92.2557   2
  -2   4  -7 953.528 84.4837   5
   2  -4   8 900.260 94.0156   3
  -2   4  -8 1056.30 96.1868   5
  -2  -4  -8 1164.34 109.109   2
  -2   4  -9 42.1836 55.8567   5
   2  -4   9 43.5025 45.7279   3
  -2  -4  -9 29.0341 39.6910   2
  -2   4 -10-14.4742 37.0610   5
   2   5 -10 51.5632 42.6554   5
  -2  -5  10 49.6902 32.8628   3
  -2   5   9 523.090 64.4781   3
   2   5  -9 403.550 73.7733   5
  -2  -5   9 533.344 77.8810   3
  -2   5   8 18739.7 327.173   3
   2   5  -8 18879.1 419.468   5
  -2  -5   8 18555.4 389.988   3
  -2  -5   7 1403.59 102.312   3
   2  -5  -7 1516.69 93.4456   2
   2   5  -7 1411.87 109.251   5
  -2   5   7 1492.01 84.5991   3
   2  -5  -6 344.615 43.3785   1
  -2  -5   6 305.882 47.4193   3
  -2   5   6 311.012 35.0793   3
   2  -5  -6 304.894 37.5955   2
  -2   5   6 313.278 33.9658   4
   2   5  -6 292.153 48.5982   5
   2   5  -5 432.860 54.0567   5
  -2   5   5 284.565 32.3148   2
  -2   5   5 327.149 32.2601   3
  -2  -5   5 431.311 50.4040   3
  -2   5   5 343.812 33.8219   4
   2  -5  -5 409.928 40.1738   2
   2  -5  -5 470.249 50.4101   1
   2  -5  -4 35244.8 289.436   2
  -2   5   4 34043.2 270.935   2
   2   5  -4 34772.2 404.204   5
  -2   5   4 34737.4 256.154   3
  -2   5   4 35018.4 330.702   4
  -2  -5   4 35015.2 386.383   3
   2  -5  -4 35073.9 392.944   1
   2  -5  -3 32.7824 25.0806   1
   2   5  -3 54.4886 23.4274   5
  -2  -5   3 24.3996 19.0270   3
  -2   5   3 22.1774 8.74922   3
  -2   5   3 38.2593 10.3711   2
   2  -5  -3 39.8311 10.3657   2
  -2   5   3 20.9289 16.1457   4
  -2  -5   2 1302.45 66.4500   3
  -2   5   2 1313.80 65.7700   4
   2  -5  -2 1301.75 31.6814   2
  -2  -5   1 213.507 28.4737   3
   2  -5  -1 191.530 10.3929   2
   2   5  -1 152.069 24.7471   3
  -2  -5   1 140.453 22.5579   4
  -2   5   1 139.330 26.9275   1
  -2   5   1 219.929 30.0291   4
   2  -5  -1 206.137 27.3434   4
   2   5   0 1605.50 67.4948   3
  -2  -5   0 1565.27 63.5438   2
  -2  -5   0 1669.94 70.9270   3
  -2   5   0 1719.61 79.0182   4
   2  -5   0 1728.43 39.5801   3
   2  -5   0 1732.68 78.4676   4
   2  -5   0 1679.41 46.5698   2
  -2   5   0 1679.05 77.5487   1
  -2   5  -1 5267.58 138.297   4
  -2  -5  -1 5101.32 119.531   2
   2  -5   1 5111.45 103.712   2
  -2   5  -1 5216.09 133.918   1
   2   5   1 5195.25 126.752   3
  -2  -5  -2 18569.3 245.631   2
  -2  -5  -2 18558.4 193.750   4
  -2   5  -2 18362.9 268.229   4
  -2   5  -2 18287.1 211.739   5
   2  -5   2 18767.6 235.716   2
  -2   5  -3 7429.82 152.744   5
  -2  -5  -3 7418.49 105.735   4
  -2  -5  -3 7294.77 173.421   2
  -2   5  -3 7499.91 178.632   4
  -2  -5  -4 1690.45 94.1961   2
  -2   5  -4 1491.78 79.1724   5
  -2   5  -4 1497.59 84.3434   4
  -2   5  -5 4757.77 155.329   4
  -2   5  -5 4987.16 158.724   5
  -2  -5  -5 5062.24 175.941   2
  -2   5  -6 7349.37 212.528   5
  -2  -5  -6 7268.33 231.466   2
  -2   5  -6 7436.03 202.623   4
  -2  -5  -7 107.534 38.1229   2
  -2   5  -7 101.322 38.2489   5
  -2   5  -7 65.8486 24.9903   4
   2  -5   7 47.6177 29.7636   3
  -2  -5  -8 7685.19 274.722   2
  -2   5  -8 7208.32 248.409   5
   2  -5   8 7051.54 258.466   3
   2  -5   9 890.547 103.160   3
  -2  -5  -9 840.818 99.4903   2
  -2   5  -9 1068.38 109.025   5
  -2   5 -10 2817.32 179.621   5
  -2  -6   9 4332.37 209.451   3
   2   6  -9 3925.02 208.024   5
  -2   6   8 71.3916 36.1020   3
   2   6  -8-17.6017 31.4781   5
  -2  -6   8-15.3150 32.1765   3
  -2   6   7 2968.37 117.356   3
   2  -6  -7 2690.05 122.425   2
  -2  -6   7 2845.60 148.198   3
   2   6  -7 2806.91 153.254   5
  -2  -6   6 9318.93 243.140   3
  -2   6   6 9658.19 172.242   4
   2  -6  -6 9916.80 208.636   2
   2   6  -6 9398.45 257.836   5
  -2   6   6 9878.81 186.608   3
   2   6  -5 4103.69 156.664   5
  -2  -6   5 4115.87 149.265   3
  -2   6   5 4072.72 111.373   2
  -2   6   5 4171.56 104.068   3
  -2   6   5 4240.68 117.115   4
   2  -6  -5 4197.39 119.544   2
  -2  -6   4 6585.35 174.955   3
  -2   6   4 6398.87 106.158   3
  -2   6   4 6437.43 115.978   2
  -2   6   4 6527.92 147.258   4
   2  -6  -4 6635.91 128.542   2
   2   6  -4 6490.48 181.064   5
  -2   6   3 46619.6 246.492   2
  -2   6   3 46626.5 202.420   3
  -2   6   3 46624.4 397.049   4
   2   6  -3 47405.8 445.500   5
   2  -6  -3 46675.1 282.355   2
  -2  -6   3 47359.6 433.171   3
  -2  -6   2 26413.5 303.211   3
  -2   6   2 26003.3 300.367   4
   2  -6  -2 25675.2 166.380   2
  -2  -6   1 2988.87 100.454   3
  -2   6   1 3008.37 105.285   4
   2  -6  -1 3021.69 50.3935   2
   2  -6  -1 3144.50 107.149   4
   2  -6   0 6073.51 79.3494   3
   2  -6   0 6105.23 98.0632   2
  -2  -6   0 6096.29 138.890   4
  -2   6   0 6069.81 152.264   4
  -2  -6   0 6247.67 133.496   2
  -2  -6   0 5975.96 139.803   3
   2  -6   1 7312.80 130.160   2
  -2   6  -1 7177.63 170.369   4
  -2  -6  -1 7386.79 150.480   2
  -2  -6  -1 7318.00 142.862   4
   2  -6   1 7114.02 114.618   3
  -2  -6  -2 25.5904 17.0957   2
  -2   6  -2 28.3588 19.4484   5
  -2  -6  -2-3.97227 15.4413   4
   2  -6   2 17.8652 14.9895   2
  -2   6  -2 38.7703 27.1096   4
   2  -6   2 41.8879 19.6562   3
  -2   6  -3 8081.95 166.388   5
   2  -6   3 8046.25 169.556   3
  -2  -6  -3 7941.87 118.551   4
  -2   6  -3 8312.26 197.319   4
  -2  -6  -3 8070.25 185.841   2
  -2  -6  -4 119.920 41.6183   2
  -2   6  -4 83.6672 27.9706   5
  -2   6  -4 79.5944 29.4660   4
  -2   6  -5 2117.81 106.950   5
   2  -6   5 2161.91 110.358   3
  -2   6  -5 2294.88 115.029   4
  -2  -6  -5 1934.09 111.293   2
  -2   6  -6 309.670 51.8624   5
  -2   6  -6 252.273 43.8419   4
   2  -6   6 287.302 46.2669   3
  -2  -6  -6 289.146 53.8206   2
  -2   6  -7 2943.74 139.622   4
  -2  -6  -7 2881.54 160.840   2
  -2   6  -7 2882.77 148.922   5
   2  -6   7 2811.84 151.364   3
  -2   6  -8 5841.33 226.967   5
   2  -6   8 5706.85 232.545   3
  -2   6  -8 5748.20 199.566   4
  -2  -6  -8 5665.69 237.586   2
   2  -6   9 3346.47 193.013   3
  -2   6  -9 3235.40 181.702   5
  -2  -6  -9 3465.14 199.332   2
   2   7  -9 324.730 69.6169   5
  -2  -7   9 174.394 50.5475   3
   2   7  -8 2746.10 171.347   5
   2  -7  -8 2556.04 132.762   2
  -2  -7   8 2471.52 150.236   3
  -2   7   8 2511.81 117.336   3
  -2  -7   7 1660.56 116.274   3
   2   7  -7 1620.65 122.194   5
   2  -7  -7 1621.84 95.8445   2
  -2   7   7 1581.07 84.9769   3
   2   7  -6-2.52043 30.5333   5
  -2  -7   6 23.6633 29.4365   3
  -2   7   6 24.8995 14.4376   3
   2  -7  -6 72.5099 28.9969   2
  -2   7   6 13.9515 13.3121   4
   2   7  -5 953.647 80.2998   5
  -2   7   5 842.982 55.0149   4
  -2  -7   5 945.942 78.3976   3
   2  -7  -5 928.937 58.1383   2
  -2   7   5 938.476 53.6812   2
  -2   7   4 956.124 45.5911   2
  -2  -7   4 855.426 67.6330   3
  -2   7   4 914.197 57.7367   4
   2  -7  -4 870.241 49.7214   2
   2   7  -4 1014.39 78.3418   5
  -2  -7   3 6563.98 170.010   3
   2   7  -3 6842.74 179.468   5
  -2   7   3 6719.60 157.348   4
   2  -7  -3 6723.35 114.068   2
  -2   7   3 6855.92 75.7574   3
   2  -7  -2 19803.9 163.685   2
  -2  -7   2 19101.1 272.528   3
  -2   7   2 19624.7 274.770   4
   2  -7  -1 52.9615 10.5568   2
  -2  -7   1 60.9992 24.6647   3
  -2   7   1 41.9775 22.1291   4
  -2  -7   0 473.251 42.1116   2
  -2  -7   0 432.373 42.2369   3
   2  -7   0 411.729 23.3494   3
  -2   7   0 484.614 49.8004   4
   2  -7   1 696.479 38.4161   3
  -2   7  -1 677.376 58.0117   4
  -2  -7  -1 702.874 50.7268   2
  -2  -7  -1 721.177 48.5085   4
   2  -7   1 747.625 44.1779   2
  -2   7  -2 50126.2 395.065   5
  -2  -7  -2 51063.8 439.314   2
  -2  -7  -2 50526.2 370.145   4
  -2   7  -2 49817.2 494.546   4
   2  -7   2 49673.7 374.960   3
  -2  -7  -3 23.2068 12.9772   4
  -2   7  -3-8.59062 18.3867   5
  -2  -7  -3 2.99610 21.7853   2
   2  -7   3 17.9865 20.1196   3
  -2   7  -3-5.98394 25.2013   4
  -2   7  -4 42.8694 28.1507   4
  -2  -7  -4 33.2971 26.2101   2
   2  -7   4 9.96481 20.1421   3
  -2   7  -4 30.0810 21.6177   5
  -2  -7  -4 24.1945 8.13310   4
   2  -7   5 1422.14 93.1531   3
  -2   7  -5 1547.98 93.7132   5
  -2   7  -5 1364.80 93.7219   4
  -2  -7  -5 1634.26 107.507   2
  -2   7  -6 22704.9 390.758   4
  -2   7  -6 23110.3 388.373   5
  -2  -7  -6 23291.7 421.649   2
   2  -7   6 22265.2 394.564   3
  -2   7  -7 267.152 54.5527   5
   2  -7   7 267.761 54.8234   3
  -2   7  -7 261.422 47.7231   4
  -2  -7  -7 304.494 54.8690   2
  -2  -7  -8 338.961 67.7649   2
  -2   7  -8 339.049 61.7240   5
  -2   7  -8 404.210 62.7378   4
   2  -7   8 355.559 68.9941   3
  -2   7  -9 280.382 63.4160   5
   2  -7   9 144.389 42.3199   3
  -2  -7  -9 159.664 56.8532   2
   2   8  -9-8.22008 47.3164   5
  -2  -8   9-12.3363 38.0248   3
   2   8  -8 1445.86 123.385   5
  -2  -8   8 1440.14 119.978   3
   2  -8  -8 1457.62 99.8782   2
   2  -8  -7 134.579 32.3259   2
   2   8  -7 121.424 42.5775   5
  -2   8   7 135.686 27.0217   3
  -2  -8   7 137.522 37.5537   3
  -2  -8   6 44648.8 564.273   3
  -2   8   6 46246.5 373.772   4
   2  -8  -6 46262.7 457.982   2
  -2   8   6 46789.8 388.781   3
   2   8  -6 46652.4 598.490   5
   2   8  -5 782.098 76.7771   5
   2  -8  -5 633.440 50.3402   2
  -2   8   5 761.541 51.7920   4
  -2  -8   5 722.294 68.7322   3
  -2  -8   4 982.459 74.4955   3
   2   8  -4 1068.11 81.3631   5
   2  -8  -4 987.111 54.3371   2
  -2   8   4 1052.10 64.8193   4
  -2   8   3 1910.29 37.5567   3
  -2  -8   3 1942.71 96.7242   3
  -2   8   3 1820.27 86.3205   4
   2   8  -3 1930.71 101.503   5
   2  -8  -3 1861.23 65.0117   2
  -2  -8   2 17398.9 271.867   3
   2  -8  -2 17063.1 165.660   2
  -2   8   2 17470.3 268.564   4
  -2   8   1 3749.01 128.988   4
   2  -8  -1 3626.16 74.5045   2
  -2  -8   1 3585.98 121.429   3
   2  -8   0 753.777 34.0525   3
  -2   8   0 764.865 61.6737   4
  -2  -8   0 751.861 53.3749   2
  -2  -8   0 831.805 58.8068   3
   2  -8   1 4449.36 99.3365   3
  -2  -8  -1 4358.40 127.962   2
  -2   8  -1 4497.18 153.811   4
   2  -8   1 4466.64 115.205   2
  -2  -8  -2 394.153 43.8845   2
   2  -8   2 420.537 38.8932   3
  -2   8  -2 436.557 42.2798   5
  -2   8  -2 457.170 54.6700   4
  -2  -8  -2 453.592 39.9295   4
   2  -8   3 1130.58 69.2242   3
  -2  -8  -3 1291.62 81.0489   2
  -2   8  -3 1208.99 85.4793   4
  -2  -8  -3 1146.54 55.6153   4
  -2   8  -3 1220.07 73.6619   5
  -2  -8  -4 7589.04 208.276   2
   2  -8   4 7465.73 193.467   3
  -2   8  -4 7607.90 217.333   4
  -2   8  -4 7415.04 192.145   5
  -2  -8  -4 7343.37 97.9189   4
   2  -8   5 3178.46 139.172   3
  -2   8  -5 3100.34 135.143   5
  -2   8  -5 3218.74 149.655   4
  -2  -8  -5 3417.89 154.119   2
  -2   8  -6 12888.0 296.609   5
  -2   8  -6 12838.7 307.485   4
   2  -8   6 12744.2 302.064   3
  -2  -8  -6 12668.3 317.489   2
  -2   8  -7 635.823 77.1647   5
   2  -8   7 518.178 70.5808   3
  -2   8  -7 528.400 67.1739   4
  -2  -8  -7 647.877 83.5139   2
   2  -8   8 5580.48 236.753   3
  -2   8  -8 5202.82 219.452   5
  -2   8  -8 5188.11 208.882   4
  -2  -8  -8 5837.55 247.506   2
  -2   8  -9 19.5512 32.8480   5
   2  -8   9 36.0029 39.6181   3
  -2  -8  -9 45.9521 47.6611   2
  -2  -9   9 657.336 90.9770   3
   2   9  -9 726.119 102.125   5
   2   9  -8 2129.46 154.901   5
  -2  -9   8 1970.69 144.052   3
   2   9  -7 2782.96 162.632   5
   2  -9  -7 2747.13 125.715   2
  -2  -9   7 2644.97 153.598   3
   2   9  -6 1071.45 97.3528   5
  -2  -9   6 836.119 84.4118   3
   2  -9  -6 883.698 66.5678   2
  -2  -9   5 3796.88 159.494   3
   2   9  -5 3884.58 169.707   5
  -2   9   5 3767.00 118.171   4
   2  -9  -5 3678.40 120.375   2
   2   9  -4 3974.73 157.810   5
  -2   9   4 3921.54 126.002   4
  -2  -9   4 4037.36 153.116   3
   2  -9  -4 3930.91 111.579   2
  -2   9   4 4048.29 79.8189   3
   2  -9  -3 308.354 30.8720   2
   2   9  -3 310.141 45.2002   5
  -2  -9   3 352.490 46.1657   3
  -2   9   3 363.107 16.9875   3
  -2   9   3 313.915 40.8466   4
  -2  -9   2 1248.35 77.4925   3
   2  -9  -2 1292.97 50.3661   2
  -2   9   2 1331.38 80.4832   4
   2  -9  -1 5882.37 104.740   2
  -2   9   1 6031.77 171.513   4
  -2  -9   1 6182.31 166.455   3
  -2   9   0 3347.26 134.543   4
  -2  -9   0 3269.13 114.720   2
   2  -9   0 3124.72 73.1759   3
  -2  -9   0 2981.25 114.661   3
   2  -9   1 1686.52 65.3590   3
  -2  -9  -1 1700.06 85.0498   2
   2  -9   1 1782.20 78.6766   2
  -2   9  -1 1675.81 97.3411   4
   2  -9   2 68.3527 22.6126   3
  -2  -9  -2 44.7457 22.0020   2
  -2   9  -2 64.2805 24.6500   5
  -2  -9  -2 49.8017 19.0717   4
  -2   9  -2 53.0812 31.9790   4
  -2  -9  -3 273.158 42.9074   2
  -2   9  -3 247.761 39.5666   5
   2  -9   3 144.556 29.2794   3
  -2   9  -3 181.589 39.7506   4
  -2  -9  -3 151.387 21.9143   4
  -2   9  -4 62.0427 28.1205   5
   2  -9   4 65.4139 21.4239   3
  -2  -9  -4 124.912 32.7802   2
  -2   9  -4 109.627 35.5766   4
  -2  -9  -4 117.335 16.7466   4
  -2  -9  -5 7594.93 234.134   2
  -2   9  -5 7979.86 222.209   5
  -2   9  -5 7788.36 241.015   4
   2  -9   5 7786.45 223.075   3
  -2   9  -6 5128.49 192.289   5
  -2   9  -6 4968.47 200.625   4
   2  -9   6 5151.26 197.736   3
  -2  -9  -6 5151.68 207.516   2
  -2   9  -7 1103.91 100.421   4
  -2   9  -7 1018.70 96.4188   5
  -2  -9  -7 1027.78 101.477   2
   2  -9   7 967.890 96.3613   3
   2  -9   8 428.785 71.4441   3
  -2   9  -8 528.741 79.6081   5
  -2   9  -8 396.261 69.0228   4
  -2  -9  -8 403.849 71.5277   2
  -2   9  -9 992.227 109.883   5
  -2  -9  -9 1057.04 114.676   2
   2  10  -8 86.8729 42.1748   5
  -2 -10   8 38.0137 38.5574   3
  -2 -10   7 209.214 48.3106   3
   2  10  -7 266.112 72.6216   5
  -2 -10   6 3618.43 171.840   3
   2  10  -6 3464.31 174.427   5
   2 -10  -6 3761.36 135.853   2
  -2 -10   5 8751.40 248.337   3
  -2  10   5 9326.59 195.233   4
   2 -10  -5 9241.06 193.941   2
   2  10  -5 9073.11 265.328   5
  -2 -10   4 949.781 79.2003   3
  -2  10   4 974.582 67.7508   4
   2  10  -4 984.945 85.9644   5
   2 -10  -4 1038.17 60.2080   2
   2 -10  -3 948.420 51.8156   2
  -2 -10   3 985.881 76.3979   3
  -2  10   3 899.177 26.4121   3
  -2  10   3 935.735 70.1482   4
   2  10  -3 838.904 77.1687   5
  -2 -10   2 1750.10 95.8963   3
   2 -10  -2 1767.28 64.6893   2
  -2  10   2 1800.36 97.5462   4
  -2 -10   1 991.324 72.0419   3
   2 -10  -1 832.576 43.6845   2
  -2  10   1 714.523 66.3475   4
   2 -10   0 37977.2 278.369   3
  -2 -10   0 38457.9 407.925   2
  -2  10   0 38855.7 465.586   4
   2 -10   1 3212.94 94.9830   3
  -2 -10  -1 3250.89 121.702   2
  -2  10  -1 3211.18 139.390   4
  -2 -10  -2 747.122 63.1987   2
   2 -10   2 757.166 53.0801   3
  -2  10  -2 626.480 66.5313   4
  -2  10  -3 1966.11 117.665   4
  -2 -10  -3 1924.04 83.7477   4
  -2 -10  -3 1703.25 98.6066   2
   2 -10   3 1870.69 92.4717   3
  -2  10  -3 1893.56 98.1671   5
   2 -10   4 27214.1 384.096   3
  -2  10  -4 27248.6 449.204   4
  -2  10  -4 27849.2 398.811   5
  -2 -10  -4 28336.5 429.019   2
  -2 -10  -5 6187.93 215.459   2
   2 -10   5 6050.03 200.422   3
  -2  10  -5 6365.32 227.540   4
  -2  10  -5 6513.93 207.038   5
   2 -10   6 388.562 61.1586   3
  -2  10  -6 336.708 62.2162   4
  -2  10  -6 172.300 42.0457   5
  -2 -10  -6 289.354 59.7233   2
   2 -10   7 879.013 92.6696   3
  -2  10  -7 889.183 95.6348   4
  -2 -10  -7 762.490 88.1554   2
  -2  10  -7 679.589 80.1918   5
  -2  10  -8 2824.14 169.859   5
   2 -10   8 2799.21 172.348   3
  -2  10  -8 2923.72 170.978   4
  -2 -10  -8 3049.26 184.547   2
  -2  10  -9 4807.00 236.915   5
  -2 -11   8 9470.35 320.171   3
   2  11  -8 9704.63 332.287   5
   2  11  -7 471.488 74.4796   5
  -2 -11   7 599.714 76.3035   3
  -2 -11   6 658.139 82.2236   3
   2  11  -6 486.377 74.9159   5
   2 -11  -5 82.3893 27.5727   2
  -2 -11   5 82.7400 32.3181   3
   2  11  -5 116.015 52.6723   5
  -2  11   5 106.611 30.0648   4
  -2 -11   4 26395.9 418.924   3
   2  11  -4 27388.4 447.076   5
  -2  11   4 27190.4 356.393   4
   2 -11  -4 27431.3 318.036   2
  -2 -11   3 2700.57 130.142   3
   2 -11  -3 3048.12 96.6875   2
  -2  11   3 2843.41 121.818   4
  -2 -11   2 993.199 75.9524   3
  -2  11   2 899.840 73.1097   4
   2 -11  -2 834.840 48.2640   2
   2 -11  -1 7.50280 11.3333   2
  -2 -11   1-3.71621 20.3816   3
  -2  11   1 5.91838 25.3662   4
  -2  11   0 3603.17 149.505   4
  -2 -11   0 3608.16 132.917   2
   2 -11   0 3759.20 93.6589   3
   2 -11   1 3933.21 109.169   3
  -2  11  -1 4008.19 163.433   4
  -2 -11  -1 3939.60 141.770   2
   2 -11   2 305.858 36.6847   3
  -2 -11  -2 394.681 51.9020   2
  -2  11  -2 309.905 53.2805   4
  -2 -11  -3 102.923 30.9108   2
  -2  11  -3 76.3492 23.5628   5
   2 -11   3 111.969 28.9208   3
  -2  11  -3 173.394 45.7798   4
   2 -11   4 6786.09 197.497   3
  -2 -11  -4 6894.28 218.165   2
  -2  11  -4 7372.02 214.901   5
  -2  11  -4 7239.94 242.855   4
  -2 -11  -5 89.1394 34.5781   2
  -2  11  -5 116.084 35.8111   5
   2 -11   5 160.647 43.5924   3
  -2  11  -5 61.7517 33.1679   4
  -2  11  -6 2494.06 144.340   5
   2 -11   6 2429.65 141.781   3
  -2  11  -6 2336.29 149.599   4
  -2 -11  -6 2711.28 158.881   2
  -2  11  -7 1035.17 100.296   5
  -2  11  -7 956.373 98.9305   4
   2 -11   7 977.945 101.604   3
  -2 -11  -7 982.373 105.054   2
   2 -11   8 9119.25 313.550   3
  -2  11  -8 9575.46 319.786   4
  -2 -11  -8 9835.43 333.456   2
  -2  11  -8 9381.71 310.967   5
   2  12  -8 2612.39 182.040   5
  -2 -12   8 2386.90 165.767   3
   2  12  -7-15.2527 38.7473   5
  -2 -12   7 124.696 56.1687   3
  -2 -12   6 287.617 59.5883   3
   2  12  -6 376.759 73.9211   5
   2  12  -5 243.010 58.1199   5
  -2 -12   5 218.459 49.9910   3
  -2  12   5 169.608 31.7108   4
   2 -12  -5 155.170 30.7164   2
  -2 -12   4 264.614 51.6733   3
  -2  12   4 296.953 45.9320   4
   2  12  -4 222.130 52.9105   5
   2 -12  -4 273.444 35.7521   2
   2 -12  -3 76.9430 21.9507   2
  -2 -12   3 134.742 35.6347   3
  -2  12   3 150.761 32.8677   4
   2 -12  -2 483.732 39.6240   2
  -2  12   2 480.920 55.1665   4
  -2 -12   2 522.138 60.8914   3
  -2 -12   1 18.1862 21.4134   3
   2 -12  -1-7.18892 15.6505   2
  -2  12   1-6.71691 22.8712   4
  -2 -12   0 4835.17 162.252   2
  -2  12   0 4848.54 180.433   4
   2 -12   0 5159.73 115.313   3
   2 -12   1 3320.78 104.940   3
  -2 -12  -1 3241.66 134.731   2
  -2  12  -1 3476.23 159.555   4
  -2 -12  -2 5143.90 173.636   2
  -2  12  -2 5538.58 207.811   4
   2 -12   2 5097.68 145.150   3
   2 -12   3 886.119 67.5821   3
  -2 -12  -3 842.579 74.6441   2
  -2  12  -3 740.030 67.8966   5
  -2  12  -3 809.489 85.6807   4
   2 -12   4 11270.0 260.606   3
  -2  12  -4 11464.7 278.099   5
  -2  12  -4 11182.9 314.124   4
  -2 -12  -4 11332.1 285.904   2
  -2 -12  -5 417.707 66.1567   2
  -2  12  -5 369.892 57.8328   5
   2 -12   5 350.829 55.5795   3
  -2  12  -5 308.393 54.9296   4
  -2  12  -6 1739.58 124.111   5
   2 -12   6 1693.59 122.142   3
  -2  12  -6 1629.45 133.816   4
  -2 -12  -6 1503.02 123.422   2
  -2 -12  -7 1994.98 146.624   2
  -2  12  -7 1957.29 139.758   5
   2 -12   7 2145.96 146.773   3
  -2  12  -7 2007.87 149.781   4
  -2  12  -8 1383.78 124.668   5
   2 -12   8 1572.00 134.217   3
  -2  12  -8 1573.76 139.267   4
  -2 -12  -8 1652.68 141.525   2
  -2 -13   7 8068.46 291.877   3
   2  13  -7 8389.78 308.167   5
   2  13  -6 38.5694 42.5399   5
  -2 -13   6 6.22453 34.9795   3
  -2 -13   5 3923.83 182.021   3
   2  13  -5 4031.24 194.748   5
  -2 -13   4 5888.08 213.730   3
   2  13  -4 6371.78 232.777   5
  -2  13   4 6388.03 187.054   4
   2 -13  -4 6365.10 166.201   2
  -2 -13   3 2.81441 23.4138   3
  -2  13   3-6.91370 21.4452   4
   2 -13  -3 15.5624 14.4498   2
   2 -13  -2 2295.33 88.8236   2
  -2  13   2 2386.99 123.974   4
  -2 -13   2 2245.19 124.456   3
  -2  13   1 1375.47 99.4044   4
   2 -13  -1 1327.79 68.5740   2
  -2 -13   1 1541.63 100.543   3
  -2 -13   0 5217.08 175.446   2
  -2  13   0 5457.74 199.316   4
   2 -13   0 5210.64 122.282   3
   2 -13   1 3324.75 109.474   3
  -2 -13  -1 3350.53 142.802   2
  -2  13  -1 3517.09 166.538   4
  -2 -13  -2 10789.7 259.305   2
  -2  13  -2 10630.6 296.778   4
   2 -13   2 11256.3 223.248   3
  -2 -13  -3 1831.10 113.010   2
   2 -13   3 1880.75 101.632   3
  -2  13  -3 1791.13 126.729   4
  -2  13  -3 1643.01 105.363   5
  -2  13  -4 887.856 84.0491   5
   2 -13   4 848.442 74.5008   3
  -2 -13  -4 887.052 86.9158   2
  -2  13  -4 876.559 94.0421   4
  -2 -13  -5 634.256 74.7936   2
  -2  13  -5 667.130 77.0691   5
   2 -13   5 728.675 76.9084   3
  -2  13  -5 846.809 98.3886   4
   2 -13   6 2436.25 147.706   3
  -2  13  -6 2311.28 159.906   4
  -2  13  -6 2301.68 145.485   5
  -2 -13  -6 2469.10 157.505   2
   2 -13   7 4496.06 214.865   3
  -2  13  -7 4688.99 234.832   4
  -2  13  -7 4662.85 217.512   5
  -2 -13  -7 4346.81 219.402   2
  -2  13  -8 2335.39 163.958   5
   2  14  -7 50.8854 61.2305   5
  -2 -14   7 7.70445 36.2226   3
  -2 -14   6 4765.67 218.395   3
   2  14  -6 4919.22 232.477   5
  -2 -14   5 3637.41 181.863   3
   2  14  -5 3732.90 195.427   5
  -2  14   4 546.176 61.1879   4
  -2 -14   4 459.711 66.8437   3
   2  14  -4 444.306 66.3317   5
  -2  14   3 178.245 43.2068   4
  -2 -14   3 167.256 44.9800   3
   2 -14  -3 70.6759 24.4785   2
  -2  14   2 14547.9 318.144   4
   2 -14  -2 13888.4 228.106   2
  -2 -14   2 13296.1 309.103   3
  -2 -14   1 545.554 64.1419   3
   2 -14  -1 532.171 45.6072   2
  -2  14   1 581.054 70.4738   4
  -2  14   0 944.887 89.6042   4
  -2 -14   0 767.507 70.1220   2
  -2  14  -1 113.393 37.4615   4
   2 -14   1 151.271 27.7441   3
  -2 -14  -1 164.625 37.8957   2
  -2 -14  -2 449.341 58.4977   2
   2 -14   2 500.419 51.3614   3
  -2  14  -2 451.188 70.3805   4
   2 -14   3 719.645 65.6793   3
  -2 -14  -3 596.291 68.6283   2
  -2  14  -3 774.945 79.3837   5
  -2  14  -3 756.229 87.2204   4
  -2 -14  -4 200.303 46.5019   2
  -2  14  -4 100.087 41.4317   5
   2 -14   4 132.421 37.3144   3
  -2  14  -4 157.870 54.0791   4
  -2  14  -5-19.6792 34.0892   5
  -2 -14  -5 61.0209 41.5426   2
   2 -14   5-4.33054 25.4384   3
  -2  14  -5-14.9935 32.4998   4
   2 -14   6 3839.26 186.840   3
  -2  14  -6 3948.24 196.037   5
  -2  14  -6 3871.79 212.815   4
  -2 -14  -6 3810.38 200.057   2
   2 -14   7 3753.81 201.713   3
  -2  14  -7 3705.99 200.022   5
  -2  14  -7 3838.33 220.632   4
  -2 -14  -7 3949.16 211.696   2
  -2 -15   6 335.550 62.6947   3
   2  15  -6 316.843 71.4144   5
  -2 -15   5 41.5627 32.1974   3
   2  15  -5 46.9365 47.0047   5
  -2 -15   4 1569.67 120.178   3
   2  15  -4 1629.39 127.981   5
  -2  15   4 1692.54 106.219   4
  -2 -15   3 62.1384 37.7382   3
  -2  15   3 44.3682 27.2178   4
   2 -15  -2 12817.4 230.891   2
  -2  15   2 12282.0 301.620   4
  -2 -15   2 12076.1 305.732   3
  -2 -15   1 711.489 74.8162   3
   2 -15  -1 707.790 58.4946   2
  -2 -15   1 609.034 68.1220   2
  -2  15   1 711.141 79.9424   4
  -2  15   0 2236.20 139.872   4
  -2 -15   0 2008.24 120.398   2
   2 -15   0 2055.97 96.2761   2
  -2 -15  -1 658.139 69.2198   2
  -2  15  -1 721.393 82.9508   4
   2 -15   1 803.547 59.7734   3
   2 -15   2 16833.8 290.668   3
  -2 -15  -2 17003.2 351.274   2
  -2  15  -2 15938.8 392.617   4
  -2  15  -3 1662.67 132.387   4
   2 -15   3 1681.56 101.841   3
  -2 -15  -3 1581.11 113.946   2
  -2  15  -3 1580.86 113.071   5
  -2  15  -4 4062.19 186.020   5
  -2  15  -4 4090.59 213.510   4
  -2 -15  -4 3971.32 185.061   2
   2 -15   4 4188.31 172.847   3
  -2 -15  -5 607.402 80.3392   2
  -2  15  -5 778.935 92.5013   5
   2 -15   5 762.331 82.6395   3
  -2  15  -5 450.598 74.4334   4
   2 -15   6 1710.57 130.590   3
  -2  15  -6 1693.84 132.925   5
  -2  15  -6 1762.24 148.050   4
  -2 -15  -6 1731.12 139.153   2
  -2  15  -7 49.3689 49.1469   5
  -2 -16   6 3189.27 193.252   3
   2  16  -5 757.335 97.8326   5
  -2 -16   5 768.134 93.9252   3
  -2 -16   4 2968.26 168.462   3
   2  16  -4 2830.37 174.322   5
  -2  16   3 2029.70 125.463   4
  -2 -16   3 2056.45 136.025   3
  -2  16   2 3138.86 158.825   4
  -2 -16   2 3334.09 167.244   3
   2 -16  -1-2.59279 17.5389   2
  -2 -16   1 17.7709 30.3645   2
  -2  16   1 40.3209 40.1920   4
   2 -16   0 3253.71 126.967   2
  -2  16   0 3225.17 173.573   4
  -2 -16   0 3359.77 159.398   2
  -2 -16  -1 193.134 45.3241   2
  -2  16  -1 170.577 49.7262   4
  -2 -16  -2 1331.75 103.825   2
  -2  16  -2 1403.99 124.012   4
   2 -16   3 1621.39 103.654   3
  -2 -16  -3 1624.91 117.893   2
  -2  16  -3 1472.78 116.021   5
  -2  16  -3 1579.66 133.483   4
   2 -16   4 1055.76 92.0678   3
  -2  16  -4 1060.35 104.361   5
  -2 -16  -4 1014.95 99.4786   2
  -2  16  -4 965.894 111.554   4
  -2 -16  -5 581.062 83.5910   2
  -2  16  -5 524.533 84.9188   4
   2 -16   5 461.134 67.6314   3
  -2  16  -5 486.342 76.0949   5
   2 -16   6 3175.84 181.111   3
  -2  16  -6 3092.45 183.700   5
  -2 -16  -6 3107.04 189.565   2
  -2 -17   5 2906.77 179.108   3
  -2 -17   4 1892.38 142.145   3
   2  17  -4 1747.73 145.721   5
   2  17  -3 179.684 52.5492   5
  -2 -17   3 153.983 46.0049   3
  -2  17   3 141.237 35.4351   4
  -2  17   2 5360.79 214.864   4
  -2 -17   2 5438.77 220.679   3
  -2  17   1 1055.65 101.885   4
  -2 -17   1 896.879 88.7793   2
  -2 -17   0 3530.11 170.397   2
  -2  17   0 3543.54 189.987   4
  -2  17  -1 1966.38 143.983   4
  -2 -17  -1 2306.64 139.554   2
  -2 -17  -2 2336.99 142.405   2
  -2  17  -2 2458.26 168.473   4
  -2 -17  -3 144.282 44.9031   2
  -2  17  -3 135.684 46.4670   5
  -2  17  -3 148.550 53.3515   4
  -2  17  -4 71.5735 47.4328   5
  -2 -17  -4 20.1581 34.9733   2
  -2  17  -4-18.0527 39.9421   4
  -2 -17  -5 2140.90 152.696   2
  -2  17  -5 1974.44 147.400   5
  -2 -18   4 77.8291 44.8923   3
   2  18  -3 137.894 59.1073   5
  -2 -18   3 235.697 58.4416   3
  -2 -18   2 523.429 75.5384   2
  -2  18   2 527.329 77.0891   4
  -2 -18   2 512.611 72.3890   3
  -2 -18   1 32.5115 36.9011   2
  -2  18   1 7.15218 38.1760   4
  -2 -18   0 8069.46 264.427   2
  -2  18   0 7374.53 278.768   4
  -2 -18  -1 37.2492 33.3108   2
  -2  18  -1 114.223 54.0518   4
  -2 -18  -2 4866.97 212.051   2
  -2  18  -2 4811.74 240.836   4
  -2 -18  -3 294.383 59.0071   2
  -2  18  -3 196.883 55.6908   5
  -2  18  -3 363.745 80.2295   4
  -2 -18  -4 2374.78 159.466   2
  -2  18  -4 2030.27 148.708   5
  -2 -19   3 1462.99 126.546   3
  -2 -19   2 423.684 72.9233   2
  -2  19   2 340.191 67.8504   4
  -2 -19   1 54.4438 40.3260   2
  -2  19   1 42.3086 40.3610   4
  -2 -19   0 1982.16 137.176   2
  -2  19   0 2080.61 155.306   4
  -2 -19  -1 587.588 80.1333   2
  -2  19  -1 713.543 100.711   4
  -2 -19  -2 262.213 56.8187   2
  -2  19  -2 341.104 73.3275   5
  -2  19  -2 400.943 76.9684   4
  -2 -19  -3 66.1302 52.2510   2
  -2  19  -3 96.8700 53.1907   5
  -2  20   1 1714.58 143.215   4
   3   0 -10 15.3642 41.1578   5
  -3   0  10-44.5843 32.8713   3
   3   0  -9 20768.0 459.961   5
  -3   0   9 21025.2 405.509   3
   3   0  -8 45.8584 31.7943   1
  -3   0   8 26.3313 27.7929   3
   3   0  -8 64.2859 42.7946   5
  -3   0   7 1675.19 98.2169   3
   3   0  -7 1523.32 109.383   5
  -3   0   6-3.93851 19.7786   3
   3   0  -6-20.1706 27.7697   5
  -3   0   5 66114.5 501.571   3
   3   0  -5 65577.9 580.472   5
   3   0  -4-11.6248 19.8788   5
  -3   0   4 3.45990 17.3377   3
  -3   0   4-0.33307 12.7391   2
  -3   0   3 490.973 36.6559   3
  -3   0   3 492.101 39.3622   5
   3   0  -3 493.332 40.5513   5
   3   0  -3 548.530 38.4055   3
  -3   0   2-9.26468 11.2751   3
  -3   0   2-0.33178 10.9739   5
   3   0  -2 7.12992 11.9561   3
   3   0  -2-2.11375 13.3023   5
   3   0  -1 11.5988 9.28064   5
   3   0  -1 19.6797 11.9223   3
  -3   0   1 6.68216 9.67449   2
   3   0   0 11.5013 5.35123   5
   3   0   0 98.9312 23.4584   3
  -3   0   0 10.2241 12.0101   2
   3   0   0 6.41380 10.6252   2
  -3   0  -1 4255.58 105.212   2
   3   0   1 4345.33 107.650   1
  -3   0  -1 4339.70 111.256   4
   3   0   1 4242.06 99.1231   2
   3   0   1 4360.83 64.8576   5
   3   0   2 26.3460 19.2262   2
   3   0   2 8.83250 8.99323   5
   3   0   2 9.68273 14.6162   1
  -3   0  -2-13.8694 15.1765   4
  -3   0  -2 16.7614 18.4273   2
  -3   0  -3 32902.5 314.899   4
   3   0   3 32041.5 298.395   5
  -3   0  -3 33482.0 378.996   2
  -3   0  -4-7.91473 17.5038   4
  -3   0  -4 15.0193 22.2529   2
  -3   0  -5 31198.4 317.263   4
  -3   0  -5 30806.4 443.223   2
  -3   0  -6-11.6756 28.2289   2
  -3   0  -6 9.04200 14.6649   4
  -3   0  -7 10022.9 297.045   2
  -3   0  -8-11.5674 42.6218   2
  -3   0  -9 10574.4 348.548   2
   3   1 -10 656.284 96.4553   5
  -3  -1  10 611.764 80.4814   3
  -3   1  10 833.292 92.3959   3
   3   1  -9 709.383 92.6884   5
  -3  -1   9 761.934 81.7239   3
   3  -1  -9 1012.86 107.547   5
  -3   1   9 960.177 89.2876   3
   3   1  -8 665.809 82.0544   5
   3  -1  -8 599.030 74.9244   5
  -3  -1   8 615.776 68.8438   3
  -3   1   8 567.750 60.5483   3
   3  -1  -8 679.490 72.6325   1
  -3  -1   7 775.379 69.7528   3
  -3   1   7 769.854 68.8971   3
   3   1  -7 689.409 79.2288   5
   3  -1  -7 637.156 73.5676   5
   3  -1  -7 687.944 68.7328   1
   3  -1  -6 32.6677 22.9019   5
   3   1  -6 25.3888 25.3023   5
  -3  -1   6 155.400 41.2281   3
  -3   1   6 96.6061 27.2071   3
   3  -1  -6 97.0833 31.1759   1
  -3  -1   5 13530.6 236.474   3
  -3   1   5 13940.4 221.690   3
   3   1  -5 13519.7 266.229   5
   3  -1  -5 13534.9 261.734   5
  -3   1   4 3713.00 102.894   3
  -3  -1   4 3582.85 111.551   3
   3   1  -4 3673.02 124.522   5
  -3   1   4 3706.85 101.702   2
   3  -1  -4 3675.42 121.128   5
  -3   1   3 501.222 35.0655   3
  -3  -1   3 566.257 42.7380   3
  -3   1   3 607.646 43.3558   5
   3  -1  -3 519.569 41.5895   5
  -3  -1   3 594.206 44.3637   5
   3  -1  -3 531.413 35.1123   3
   3   1  -3 473.264 41.0624   5
  -3   1   3 556.165 34.7348   2
   3   1  -3 561.462 40.9007   3
  -3   1   2 98.1516 16.2682   5
   3   1  -2 77.5099 18.7033   5
  -3   1   2 88.5269 16.8096   3
   3  -1  -2 83.0943 15.0042   5
  -3  -1   2 67.0852 17.4873   3
   3   1  -2 80.8376 16.8434   3
   3  -1  -2 76.9518 15.2176   3
   3  -1  -1 72782.4 357.389   3
   3   1  -1 72511.9 412.785   3
   3   1  -1 72106.2 330.211   5
   3  -1  -1 72872.4 244.339   5
  -3   1   1 72320.2 289.408   2
  -3  -1   1 72094.2 357.960   2
   3  -1  -1 72773.9 498.931   1
  -3   1   0 963.709 42.0378   2
  -3  -1   0 1020.31 47.0415   2
   3  -1   0 1012.53 39.4084   2
   3  -1   0 878.571 54.4596   1
   3   1   0 964.632 50.8725   3
  -3  -1  -1 25.2149 14.7631   2
   3  -1   1 44.2509 19.7281   1
   3  -1   1 31.1661 13.7634   2
   3  -1   1 30.1254 6.79520   5
   3   1   1 37.2106 15.8326   2
  -3   1  -1 1.68224 14.1528   4
  -3   1  -1 38.1540 16.3142   2
  -3  -1  -2 31.1525 19.1647   2
   3  -1   2 36.3468 15.6377   2
   3  -1   2 10.5667 14.0561   1
   3  -1   2 7.55197 9.55451   5
   3   1   2 40.3921 12.3959   5
   3   1   2 24.4369 14.9095   1
  -3   1  -2 40.7574 19.4833   4
  -3   1  -2 44.0368 22.6832   2
  -3  -1  -2 45.7106 17.1889   4
   3  -1   3 11171.9 175.547   5
  -3   1  -3 11149.6 169.340   5
  -3   1  -3 11522.1 197.582   4
  -3  -1  -3 11558.3 177.997   4
  -3   1  -3 11413.5 221.406   2
   3   1   3 11871.9 147.478   1
  -3  -1  -3 11702.6 226.931   2
   3   1   3 11215.4 181.630   5
  -3   1  -4 4533.85 126.848   5
  -3   1  -4 4337.95 123.838   4
  -3   1  -4 4288.66 151.929   2
  -3  -1  -4 4462.52 156.182   2
  -3  -1  -4 4534.03 112.936   4
  -3   1  -5 3467.85 126.709   5
  -3   1  -5 3557.26 114.120   4
  -3  -1  -5 3531.50 100.132   4
  -3   1  -5 3346.21 147.358   2
  -3  -1  -5 4045.26 162.220   2
  -3   1  -6 15.5563 26.4348   5
  -3   1  -6 26.0069 31.9643   2
  -3  -1  -6-3.00218 10.6986   4
  -3   1  -6 27.9281 21.1603   4
  -3  -1  -6 27.4838 29.6441   2
  -3  -1  -7 364.723 65.7012   2
  -3   1  -7 418.305 62.5659   2
  -3   1  -8 3911.54 201.043   2
  -3  -1  -8 3876.87 199.002   2
  -3   1  -9 531.480 89.6248   2
  -3  -1  -9 564.407 86.4878   2
   3   2 -10 643.246 96.3097   5
  -3  -2  10 547.856 78.5199   3
  -3  -2   9 1557.17 116.988   3
   3   2  -9 1446.36 126.662   5
  -3   2   9 1459.68 104.800   3
  -3   2   8 3908.80 155.556   3
   3  -2  -8 3913.33 164.372   1
   3  -2  -8 3822.63 183.813   5
  -3  -2   8 3720.03 165.829   3
   3   2  -8 3856.01 188.378   5
  -3  -2   7 979.170 82.4825   3
  -3   2   7 953.368 70.8983   3
   3   2  -7 1242.54 105.152   5
   3  -2  -7 817.031 80.7504   5
   3  -2  -7 879.623 78.8314   1
  -3   2   6 7428.96 175.445   3
   3   2  -6 7407.65 220.722   5
   3  -2  -6 7007.02 208.210   5
   3  -2  -6 7178.07 208.330   1
  -3  -2   6 7513.88 199.672   3
   3  -2  -5 5137.11 159.890   5
  -3  -2   5 5183.03 152.500   3
   3  -2  -5 5004.27 166.497   1
   3   2  -5 4776.09 162.216   5
  -3   2   5 5128.27 129.611   3
  -3   2   5 4755.46 130.011   2
  -3  -2   4 1009.34 62.7909   3
   3  -2  -4 1062.72 66.0081   5
   3  -2  -4 995.948 74.0067   1
  -3   2   4 947.567 50.5745   2
  -3   2   4 941.849 50.6626   3
   3   2  -4 912.649 66.2128   5
  -3   2   3 1216.28 59.9117   5
  -3   2   3 1210.53 48.6439   3
  -3  -2   3 1283.42 64.9414   3
   3   2  -3 1164.86 63.9662   5
   3  -2  -3 1194.34 58.8293   5
  -3   2   3 1078.05 42.3802   2
   3  -2  -3 1231.04 75.4686   1
   3  -2  -2 13422.5 232.068   1
  -3  -2   2 13235.8 193.764   3
   3   2  -2 12877.9 181.270   5
   3   2  -2 13369.3 192.813   3
   3  -2  -2 13225.3 139.328   3
  -3   2   2 13395.5 155.862   5
  -3   2   2 13041.2 142.274   3
   3  -2  -1 4336.46 79.4138   3
   3   2  -1 4511.37 109.206   3
  -3   2   1 4597.31 64.3809   2
  -3   2   1 4457.46 59.5506   5
   3  -2  -1 4483.02 128.893   1
  -3  -2   1 4369.29 95.7808   2
   3   2  -1 4346.68 90.3527   5
  -3  -2   1 4509.19 111.282   3
   3  -2   0 21884.7 269.956   1
  -3   2   0 21935.8 269.795   4
   3  -2   0 21311.6 167.740   2
  -3  -2   0 21759.9 222.768   2
  -3   2   0 21702.5 187.139   2
   3   2   0 21747.9 247.723   3
   3   2   1 11224.1 172.426   2
  -3  -2  -1 11283.2 176.746   2
   3  -2   1 11169.2 158.642   2
  -3   2  -1 11230.9 194.678   4
  -3   2  -1 10921.0 164.475   2
   3  -2   1 10876.8 184.485   1
  -3  -2  -2 6034.69 147.336   2
   3  -2   2 6220.74 142.096   2
   3  -2   2 6036.84 102.433   5
  -3   2  -2 6197.53 100.086   5
   3   2   2 6410.01 120.950   5
  -3   2  -2 6035.32 146.219   4
  -3   2  -2 6391.72 146.842   2
   3  -2   3 2968.15 91.8079   5
   3   2   3 3032.72 98.7415   5
  -3   2  -3 3011.23 88.5712   5
   3   2   3 3069.44 72.3637   1
  -3   2  -3 3083.36 107.877   4
  -3  -2  -3 2968.20 87.0358   4
  -3   2  -3 3025.71 116.727   2
  -3  -2  -3 3149.37 120.143   2
  -3   2  -4 6755.63 155.992   5
  -3   2  -4 6881.10 165.678   4
  -3  -2  -4 6985.66 130.815   4
  -3   2  -4 6910.70 192.142   2
  -3  -2  -4 6986.34 194.525   2
  -3   2  -5 1406.97 81.3750   5
  -3   2  -5 1414.80 77.8251   4
  -3  -2  -5 1443.80 58.1797   4
  -3   2  -5 1477.04 99.2588   2
  -3  -2  -5 1320.74 95.8477   2
  -3   2  -6 13445.0 273.581   5
  -3   2  -6 13521.7 239.396   4
  -3   2  -6 13186.7 317.479   2
  -3  -2  -6 13038.3 146.126   4
  -3  -2  -6 13229.7 319.293   2
  -3   2  -7 184.212 41.4790   5
  -3   2  -7 253.943 54.3271   2
  -3   2  -7 250.166 36.5499   4
  -3  -2  -7 316.018 59.5520   2
  -3   2  -8-12.1270 32.1146   2
  -3  -2  -8-3.91170 33.2961   2
  -3   2  -9 19.4592 34.3613   2
  -3  -2  -9 131.490 53.2810   2
   3   3 -10 357.250 72.3267   5
  -3  -3  10 333.663 63.8880   3
  -3  -3   9 15.2574 27.9441   3
   3   3  -9 31.8971 49.6057   5
  -3   3   9-11.7009 25.6694   3
  -3  -3   8 67.7595 36.5159   3
   3  -3  -8 64.4451 27.7737   1
  -3   3   8 139.041 34.7379   3
   3   3  -8 128.439 54.0890   5
  -3   3   7 24650.4 341.118   3
   3  -3  -7 23786.2 391.365   1
   3   3  -7 24135.3 437.346   5
  -3  -3   7 24062.1 396.251   3
  -3  -3   6 1175.10 83.3215   3
   3   3  -6 1071.38 87.7642   5
   3  -3  -6 1271.38 90.1176   1
  -3   3   6 1159.47 67.5696   3
   3   3  -5 24.6922 31.6045   5
   3  -3  -5 1.92687 23.1117   1
  -3  -3   5 14.1907 21.1572   3
  -3   3   5 16.6970 17.2106   3
  -3   3   5-7.92565 15.6546   2
  -3  -3   4 502.965 54.0585   3
  -3   3   4 516.063 35.0362   3
   3  -3  -4 467.528 51.7056   1
  -3   3   4 498.522 35.8656   2
   3   3  -4 557.433 55.0656   5
  -3   3   3 28083.5 208.808   3
  -3  -3   3 28638.5 315.066   3
   3   3  -3 28091.4 318.066   5
   3  -3  -3 28254.8 361.767   1
  -3   3   3 27584.7 183.447   2
  -3   3   3 28638.0 290.534   5
  -3  -3   2 4217.94 116.093   3
  -3   3   2 4174.10 91.1800   5
   3  -3  -2 4216.88 67.9697   3
   3  -3  -2 4172.68 133.950   1
  -3   3   2 4446.67 127.297   4
   3   3  -2 4048.59 107.479   5
  -3  -3   1 169.109 27.5674   3
   3  -3  -1 143.332 14.9338   3
   3   3  -1 116.800 20.9807   3
  -3   3   1 151.324 15.1655   5
   3  -3  -1 79.8959 27.3246   1
  -3   3   1 143.961 26.3959   4
   3  -3   0 2139.57 51.8153   2
  -3  -3   0 2251.49 76.1070   2
  -3   3   0 2275.65 92.2164   4
  -3   3   0 2065.25 55.0339   2
   3  -3   0 2302.25 93.4495   1
   3   3   0 2117.32 82.0357   3
  -3   3  -1 2833.88 48.1273   5
  -3  -3  -1 2995.52 95.5210   2
   3  -3   1 2845.62 81.9490   2
  -3   3  -1 3184.37 109.707   4
   3  -3   1 2896.10 101.916   1
  -3   3  -1 2873.91 83.0681   2
  -3   3  -1 3040.60 102.751   1
   3  -3   2 1425.30 68.9982   2
  -3  -3  -2 1451.16 76.3331   2
  -3   3  -2 1279.19 47.6328   5
  -3   3  -2 1277.34 71.7209   4
  -3   3  -2 1272.46 64.7214   1
  -3   3  -2 1232.84 66.1687   2
  -3  -3  -3 15524.3 266.504   2
  -3   3  -3 15788.7 204.358   5
  -3   3  -3 15756.7 253.524   4
  -3   3  -3 15237.1 215.434   1
  -3  -3  -3 15486.0 189.174   4
  -3   3  -3 14911.4 254.560   2
   3  -3   3 15116.6 206.989   5
  -3   3  -4 2292.16 80.7772   1
  -3   3  -4 2316.14 102.361   4
  -3  -3  -4 2280.62 70.4794   4
  -3   3  -4 2193.36 109.713   2
  -3   3  -4 2341.97 93.1650   5
  -3  -3  -4 2263.79 114.437   2
  -3   3  -5 10839.1 223.103   4
  -3  -3  -5 10915.6 138.427   4
  -3   3  -5 10770.9 223.063   5
  -3   3  -5 10354.3 260.692   2
  -3   3  -5 10610.6 161.278   1
  -3  -3  -5 10763.5 265.516   2
  -3   3  -6 101.236 31.7068   5
  -3   3  -6 127.336 42.1137   2
  -3   3  -6 81.6303 24.3878   4
  -3  -3  -6 75.4509 35.4823   2
  -3   3  -7 10629.9 268.970   5
  -3   3  -7 11159.1 236.332   4
  -3   3  -7 10771.8 311.719   2
  -3  -3  -7 10347.5 303.806   2
  -3   3  -8 372.017 61.1261   5
  -3   3  -8 450.629 72.0505   2
  -3  -3  -8 444.642 72.4189   2
  -3  -3  -9 3627.96 206.891   2
  -3  -4  10 2607.85 168.094   3
   3   4  -9 531.728 85.8213   5
  -3  -4   9 568.030 78.8826   3
   3  -4  -8 115.171 39.5912   1
   3   4  -8 206.505 54.3082   5
  -3  -4   8 122.532 35.6276   3
  -3   4   8 187.977 40.9107   3
   3  -4  -7 1704.65 107.832   1
  -3  -4   7 1730.25 110.481   3
   3   4  -7 1675.82 119.165   5
  -3   4   7 1736.06 92.9860   4
  -3   4   7 1704.53 90.1631   3
   3   4  -6 378.896 55.8215   5
  -3  -4   6 397.882 52.8071   3
  -3   4   6 374.177 40.4145   3
   3  -4  -6 435.448 57.9536   1
  -3   4   6 403.393 45.6893   4
  -3   4   5 516.275 40.9011   2
  -3   4   5 512.522 38.3763   3
   3   4  -5 546.348 60.5343   5
  -3  -4   5 599.720 56.9990   3
  -3   4   5 531.956 50.5934   4
   3  -4  -5 523.830 60.0103   1
  -3   4   4 783.691 38.8221   2
  -3   4   4 807.484 40.3588   3
   3  -4  -4 844.772 68.5001   1
   3   4  -4 834.256 65.4383   5
  -3   4   4 767.423 58.3719   4
  -3  -4   4 871.754 64.5153   3
  -3   4   3 68061.3 280.753   3
  -3  -4   3 68276.2 508.560   3
   3   4  -3 67054.3 514.180   5
   3  -4  -3 68129.2 578.917   1
  -3   4   3 68635.0 463.246   5
  -3   4   3 67156.5 193.671   2
  -3   4   3 69523.3 528.139   4
  -3  -4   2 307.180 37.6184   3
   3   4  -2 284.059 35.1594   5
  -3   4   2 279.069 27.5888   5
   3  -4  -2 296.867 43.9678   1
  -3   4   2 271.886 35.0954   4
   3  -4  -1 524.148 20.3981   3
  -3   4   1 526.719 28.0878   5
   3  -4  -1 497.379 50.4484   1
  -3  -4   1 517.680 42.7993   3
  -3   4   1 593.322 51.8473   4
   3  -4   0 3708.86 68.0281   2
  -3  -4   0 3732.12 103.544   2
  -3   4   0 3699.48 69.1728   2
  -3   4   0 3725.30 122.379   4
   3  -4   0 3783.91 124.313   1
   3  -4   1 48782.3 339.184   2
  -3   4  -1 49368.4 237.999   5
  -3  -4  -1 50611.3 399.399   2
  -3   4  -1 49811.8 448.093   4
  -3   4  -1 48803.7 336.238   2
   3  -4   2 1.81976 14.9416   2
  -3  -4  -2 18.3020 19.7543   2
  -3   4  -2 8.32600 10.6553   5
  -3   4  -2 26.8845 20.5429   1
  -3   4  -2 9.78623 16.6151   2
  -3   4  -2-10.7652 19.5167   4
  -3  -4  -3 6292.95 171.485   2
  -3   4  -3 6144.75 147.100   1
  -3   4  -3 6140.63 167.167   4
  -3   4  -3 6086.31 129.861   5
  -3   4  -3 6213.51 165.590   2
  -3   4  -4 2352.06 95.0078   5
  -3   4  -4 2268.54 87.4481   1
   3   4   4 2481.55 49.4011   1
  -3   4  -4 2539.40 114.318   4
  -3  -4  -4 2502.05 69.9764   4
  -3   4  -4 2218.70 111.129   2
  -3  -4  -4 2415.43 119.925   2
  -3   4  -5 1461.49 84.5323   5
  -3   4  -5 1529.09 70.5548   1
  -3   4  -5 1471.78 88.0349   4
  -3  -4  -5 1549.54 42.8507   4
  -3   4  -5 1547.67 102.992   2
  -3  -4  -5 1504.68 102.450   2
  -3   4  -6 95.9074 33.3160   5
  -3   4  -6 130.347 39.4312   2
  -3   4  -6 124.453 35.9543   4
  -3  -4  -6 102.218 34.3567   2
  -3   4  -7 169.447 42.5203   5
  -3   4  -7 198.182 55.6204   2
  -3   4  -7 109.333 35.5049   4
  -3  -4  -7 140.903 46.0467   2
  -3   4  -8 249.548 48.9558   5
  -3  -4  -8 338.562 62.7818   2
  -3   4  -9 611.934 79.8415   5
   3  -4   9 793.597 99.2075   3
  -3  -4  -9 808.629 104.306   2
  -3  -5  10 1677.35 137.590   3
   3   5  -9 390.586 78.0513   5
  -3  -5   9 304.898 61.2012   3
   3   5  -8 7743.98 274.007   5
  -3   5   8 8306.14 209.561   3
  -3  -5   8 7889.63 256.753   3
   3  -5  -8 7949.45 236.365   1
   3   5  -7 3587.62 175.123   5
  -3   5   7 3503.07 121.893   3
  -3   5   7 3537.75 128.052   4
   3  -5  -7 3612.91 157.462   1
  -3  -5   7 3603.71 162.650   3
   3   5  -6 4927.48 188.206   5
  -3  -5   6 4906.16 177.219   3
  -3   5   6 5040.02 129.124   3
  -3   5   6 5149.37 155.651   4
   3  -5  -6 5135.97 183.447   1
   3   5  -5 1958.49 110.982   5
  -3   5   5 1731.46 89.9751   4
  -3  -5   5 1930.38 103.952   3
  -3   5   5 1778.99 65.8219   3
   3  -5  -5 1707.24 104.047   1
  -3   5   5 1839.90 67.9704   2
  -3  -5   4 33416.4 394.734   3
  -3   5   4 33490.6 226.540   3
   3   5  -4 32984.0 407.029   5
  -3   5   4 33186.9 209.916   2
  -3   5   4 33043.5 383.190   4
   3  -5  -4 33188.8 430.335   1
  -3  -5   3 2757.80 107.748   3
   3   5  -3 2929.52 112.657   5
  -3   5   3 2733.42 97.8473   5
  -3   5   3 2819.98 110.938   4
   3  -5  -3 2896.14 124.909   1
  -3   5   3 2859.93 42.0413   3
  -3  -5   2 3184.64 112.182   3
  -3   5   2 3422.28 93.8144   5
  -3   5   2 3135.96 115.726   4
   3  -5  -2 3200.83 126.799   1
   3   5  -2 3222.09 107.866   5
  -3   5   1 1782.53 88.2949   4
   3  -5  -1 1820.05 93.7252   1
  -3  -5   1 1629.20 79.3124   3
   3  -5   0 5682.19 88.1805   2
  -3  -5   0 5916.54 136.528   2
  -3   5   0 5850.50 160.255   4
  -3   5  -1 2208.13 59.5851   5
  -3  -5  -1 2164.39 87.3080   2
  -3   5  -1 2131.10 98.0686   4
   3  -5   1 2195.11 73.6821   2
  -3   5  -2 16616.7 189.484   5
  -3  -5  -2 16601.1 257.412   2
  -3   5  -2 16770.3 278.963   4
  -3   5  -2 16162.8 235.162   2
   3  -5   2 16578.3 236.475   2
  -3  -5  -3 6959.56 184.205   2
  -3   5  -3 6899.93 142.970   5
  -3   5  -3 7008.42 187.057   4
  -3   5  -3 6610.51 171.926   2
  -3  -5  -4 6717.70 198.831   2
  -3   5  -4 7116.62 166.335   5
  -3   5  -4 6757.83 193.553   4
  -3   5  -4 6984.48 197.797   2
  -3  -5  -4 7096.85 112.890   4
  -3   5  -5 545.523 54.7176   5
  -3   5  -5 693.924 70.7098   2
  -3   5  -5 566.977 58.9706   4
  -3  -5  -5 565.815 67.7904   2
  -3   5  -6-0.58813 21.7962   5
  -3   5  -6 23.8691 31.8372   2
  -3   5  -6-9.81512 24.3434   4
  -3  -5  -6-5.99958 31.8284   2
  -3   5  -7 874.838 81.2319   5
  -3   5  -7 965.494 79.5286   4
  -3  -5  -7 1056.93 104.874   2
  -3   5  -8 7041.33 240.842   5
  -3  -5  -8 7249.66 275.939   2
   3  -5   9 1086.91 114.605   3
  -3   5  -9 934.192 98.3291   5
  -3  -5  -9 950.658 111.044   2
  -3  -6   9 7561.58 276.200   3
   3   6  -9 7318.78 288.461   5
   3   6  -8 118.303 56.6074   5
  -3  -6   8 40.1479 31.1736   3
  -3   6   7 538.679 49.3773   3
   3   6  -7 581.465 76.1575   5
   3  -6  -6 68.5737 26.6514   1
   3   6  -6 30.3190 26.8176   5
  -3  -6   6 100.974 33.4413   3
  -3   6   6 50.3969 17.5064   3
  -3   6   6 61.1243 21.8614   4
  -3  -6   5 4817.73 168.556   3
   3   6  -5 5063.73 179.085   5
  -3   6   5 4919.29 101.921   2
  -3   6   5 4922.77 151.508   4
   3  -6  -5 4941.08 176.870   1
  -3   6   5 4774.37 99.4581   3
   3   6  -4 518.855 58.4401   5
  -3   6   4 605.185 26.1384   3
   3  -6  -4 614.098 63.2492   1
  -3  -6   4 503.035 52.0503   3
  -3   6   4 617.530 26.9836   2
  -3   6   4 513.296 51.3904   4
  -3  -6   3 16791.2 276.623   3
   3   6  -3 16561.0 274.309   5
  -3   6   3 16236.5 272.219   4
   3  -6  -3 16559.0 302.381   1
  -3  -6   2 1435.19 79.8135   3
  -3   6   2 1464.21 65.3320   5
  -3   6   2 1453.02 83.7746   4
  -3   6   1 4087.43 137.979   4
  -3  -6   1 4001.60 128.598   3
   3  -6   0 4548.16 73.1503   3
  -3  -6   0 4544.21 126.332   2
  -3   6   0 4538.19 146.867   4
   3  -6   0 4550.93 84.0504   2
  -3   6  -1 38098.7 275.040   5
  -3  -6  -1 38184.5 376.081   2
  -3   6  -1 37262.9 425.847   4
   3  -6   1 37975.1 308.538   2
  -3   6  -2 44.5795 16.4030   5
  -3  -6  -2 76.9902 26.2049   2
  -3   6  -2 57.6457 30.9887   4
  -3   6  -3 3294.99 103.833   5
  -3   6  -3 3445.26 138.283   4
  -3  -6  -3 3488.56 134.266   2
  -3  -6  -4 157.500 38.7656   2
  -3   6  -4 194.834 32.8247   5
  -3  -6  -4 128.050 18.9864   4
  -3   6  -4 209.548 41.0153   4
  -3  -6  -4 156.128 18.9815   4
  -3   6  -5 5051.08 160.655   5
  -3   6  -5 5195.31 181.953   4
  -3  -6  -5 4842.02 187.847   2
  -3   6  -6 787.005 72.7311   5
  -3   6  -6 757.449 73.6882   4
  -3  -6  -6 658.143 80.0963   2
  -3   6  -7 9646.10 265.529   5
   3  -6   7 9496.72 282.055   3
  -3   6  -7 9825.33 261.965   4
  -3  -6  -7 10005.0 307.179   2
  -3   6  -8 142.736 42.1842   5
   3  -6   8 247.799 56.6534   3
  -3  -6  -8 147.324 50.2200   2
   3  -6   9 444.764 75.8528   3
  -3  -6  -9 555.067 88.8701   2
  -3   6  -9 645.200 87.0455   5
   3   7  -9 334.533 72.8173   5
  -3  -7   9 277.788 63.2230   3
  -3  -7   8 1204.65 110.477   3
   3   7  -8 1155.64 112.797   5
   3   7  -7 1331.30 110.117   5
  -3  -7   7 1307.51 104.110   3
   3   7  -6 301.087 55.9717   5
  -3  -7   6 318.130 53.4041   3
  -3   7   6 318.214 31.8522   3
  -3   7   6 331.057 41.4652   4
  -3  -7   5 10471.3 254.374   3
   3   7  -5 10410.2 263.341   5
  -3   7   5 10694.3 226.341   4
  -3   7   5 10689.0 133.666   3
   3   7  -4 459.220 55.2812   5
  -3  -7   4 505.890 55.8940   3
  -3   7   4 522.795 53.2040   4
   3   7  -3 641.205 62.1570   5
  -3  -7   3 611.490 56.7609   3
  -3   7   3 655.410 59.1987   4
  -3  -7   2 3607.33 130.162   3
  -3   7   2 3407.94 130.867   4
  -3   7   1 53403.3 515.044   4
  -3  -7   1 54127.4 488.979   3
   3  -7   0 30.3609 8.69362   3
  -3  -7   0 40.1616 20.5595   2
   3  -7   0 35.2512 11.6815   2
  -3   7   0 52.3744 26.3177   4
   3  -7   1 10628.8 151.269   3
  -3  -7  -1 11037.5 211.583   2
  -3   7  -1 10696.3 239.375   4
   3  -7   1 10698.1 170.144   2
  -3  -7  -2 10167.5 215.533   2
   3  -7   2 10097.9 175.853   3
  -3  -7  -2 9959.23 187.945   4
  -3   7  -2 9975.81 236.487   4
  -3   7  -2 10079.5 170.338   5
  -3   7  -3 7891.20 166.398   5
  -3  -7  -3 7358.79 149.434   4
  -3   7  -3 7721.12 217.474   4
  -3  -7  -3 7771.02 203.489   2
  -3  -7  -4 577.208 63.8579   2
  -3  -7  -4 607.914 37.5784   4
  -3   7  -4 582.760 65.7115   4
  -3   7  -4 607.529 53.7289   5
  -3   7  -5 3917.74 145.799   5
  -3   7  -5 3743.27 160.232   4
  -3  -7  -5 3563.58 164.772   2
  -3   7  -6 2419.69 124.929   5
   3  -7   6 2272.28 128.430   3
  -3   7  -6 2298.65 129.925   4
  -3  -7  -6 2157.80 136.811   2
   3  -7   7 2164.94 138.239   3
  -3   7  -7 2477.24 139.415   4
  -3   7  -7 2302.97 133.792   5
  -3  -7  -7 2564.39 158.829   2
   3  -7   8 20.9276 34.4099   3
  -3   7  -8 64.5138 41.5448   5
  -3   7  -8 40.7493 34.4921   4
  -3  -7  -8 11.7484 38.0421   2
  -3   7  -9 181.083 48.8852   5
   3   8  -9 2772.07 183.033   5
  -3  -8   9 2839.33 178.728   3
  -3  -8   8 4214.96 202.513   3
   3   8  -8 4353.47 215.036   5
   3   8  -7 199.396 54.4423   5
  -3  -8   7 227.737 52.7339   3
   3   8  -6 6656.08 232.183   5
  -3   8   6 6770.37 178.491   4
  -3  -8   6 6612.60 223.140   3
  -3  -8   5 2060.39 118.221   3
   3   8  -5 1916.99 119.435   5
  -3   8   5 2065.31 103.649   4
  -3  -8   4 2902.24 131.514   3
  -3   8   4 3173.93 127.790   4
   3   8  -4 2897.68 135.363   5
  -3  -8   3 1101.23 78.2735   3
   3   8  -3 1058.87 80.2684   5
  -3   8   3 1169.86 80.9646   4
  -3  -8   2 1322.97 82.8740   3
  -3   8   2 1254.72 82.6254   4
   3  -8  -1 1040.64 29.3626   2
  -3   8   1 1027.67 76.8164   4
   3  -8  -1 1112.44 33.6983   2
  -3  -8   1 1008.38 72.0272   3
   3  -8   0 38.1112 9.29983   3
  -3  -8   0 18.7832 20.8861   2
   3  -8   0 49.4761 14.7946   2
  -3   8   0 32.4029 23.8497   4
   3  -8   1 686.004 40.0008   3
  -3  -8  -1 693.300 57.4052   2
   3  -8   1 722.666 47.7009   2
  -3   8  -1 664.622 65.8345   4
  -3  -8  -2 7671.02 194.694   2
   3  -8   2 7296.53 152.766   3
  -3   8  -2 7321.73 213.286   4
  -3   8  -2 7387.99 155.494   5
  -3   8  -3 1393.09 75.3708   5
  -3  -8  -3 1458.29 91.9331   2
  -3   8  -3 1461.38 100.754   4
  -3  -8  -3 1375.14 68.4657   4
   3  -8   3 1371.18 77.0662   3
  -3  -8  -4 715.976 72.6608   2
  -3   8  -4 711.426 60.4347   5
   3  -8   4 704.689 62.6929   3
  -3   8  -4 797.546 77.0327   4
  -3  -8  -5 2776.22 147.684   2
  -3   8  -5 2701.57 123.484   5
   3  -8   5 2569.53 129.658   3
  -3   8  -5 3018.36 150.310   4
  -3   8  -6 5572.04 191.596   5
   3  -8   6 5571.73 205.974   3
  -3   8  -6 5474.52 206.271   4
  -3  -8  -6 5443.87 220.347   2
  -3   8  -7 3032.14 154.081   5
   3  -8   7 2955.21 162.047   3
  -3   8  -7 3031.29 160.080   4
  -3  -8  -7 2912.97 173.389   2
  -3   8  -8 54.3520 30.3087   5
   3  -8   8 54.6516 39.8352   3
  -3   8  -8 32.8715 25.4700   4
  -3  -8  -8 125.924 49.6652   2
  -3   8  -9 461.803 78.2710   5
   3   9  -8 689.201 92.3936   5
  -3  -9   8 704.800 89.9974   3
  -3  -9   7 1857.84 131.538   3
   3   9  -7 1817.77 134.169   5
   3   9  -6 814.760 87.9033   5
  -3  -9   6 773.968 81.6019   3
  -3   9   6 784.600 62.0960   4
  -3  -9   5 7905.13 235.942   3
   3   9  -5 8083.58 246.726   5
  -3   9   5 8034.95 203.956   4
  -3  -9   4 9753.91 249.167   3
   3   9  -4 10120.7 260.736   5
  -3   9   4 10022.8 230.727   4
   3  -9  -4 10027.9 111.655   2
  -3  -9   3 1096.62 82.2887   3
  -3   9   3 963.623 74.0153   4
   3   9  -3 1127.91 86.1150   5
  -3  -9   2 3850.62 144.809   3
  -3   9   2 4145.36 154.207   4
   3  -9  -2 3916.16 48.8749   2
   3  -9  -2 3930.16 51.3726   2
   3  -9  -1 47835.6 235.809   2
  -3   9   1 47872.5 523.466   4
   3  -9  -1 47995.1 259.411   2
  -3  -9   1 47517.1 498.522   3
   3  -9   0 2834.19 60.5887   3
  -3  -9   0 2831.87 114.893   2
  -3   9   0 2663.98 127.103   4
   3  -9   0 2758.30 80.0744   2
   3  -9   1 7717.39 135.433   3
  -3  -9  -1 7827.97 194.061   2
  -3   9  -1 7487.39 218.487   4
   3  -9   1 7784.00 158.040   2
  -3   9  -2 4306.23 171.993   4
   3  -9   2 4697.49 126.343   3
  -3  -9  -2 4625.77 157.299   2
  -3   9  -2 4580.79 131.519   5
  -3   9  -3 16711.7 267.026   5
   3  -9   3 16440.4 269.993   3
  -3   9  -3 16700.6 342.453   4
  -3  -9  -3 16648.3 314.723   2
  -3  -9  -4 3344.01 153.256   2
  -3   9  -4 3487.01 132.172   5
   3  -9   4 3454.38 137.361   3
  -3   9  -4 3273.50 158.119   4
  -3  -9  -5 89.3619 36.3201   2
  -3   9  -5 76.1628 33.4606   5
   3  -9   5 89.5434 31.3501   3
  -3   9  -5 55.1572 33.9550   4
  -3   9  -6 19.9196 30.8877   5
   3  -9   6 25.1866 23.2728   3
  -3   9  -6-28.3015 26.2351   4
  -3  -9  -6-17.3606 35.6875   2
   3  -9   7 2103.02 138.737   3
  -3   9  -7 2486.35 151.743   4
  -3   9  -7 2253.62 137.318   5
  -3  -9  -7 2543.09 164.256   2
  -3   9  -8 1563.49 124.377   5
   3  -9   8 1374.41 123.712   3
  -3   9  -8 1485.86 117.895   4
  -3  -9  -8 1549.65 136.688   2
  -3   9  -9 6080.35 252.907   5
   3  10  -8 283.672 65.3096   5
  -3 -10   8 239.760 54.4854   3
   3  10  -7 855.741 100.004   5
  -3 -10   7 642.415 81.7450   3
  -3 -10   6 1479.08 114.190   3
   3  10  -6 1430.39 119.135   5
  -3 -10   5 983.842 87.9845   3
   3  10  -5 1048.08 96.1652   5
  -3  10   5 1086.65 76.7871   4
  -3 -10   4 1784.06 112.944   3
   3  10  -4 1885.33 118.832   5
  -3  10   4 1736.39 100.415   4
  -3 -10   3 6038.23 196.162   3
   3  10  -3 5640.02 192.411   5
  -3  10   3 5698.62 183.081   4
   3 -10  -3 5780.58 76.5290   2
   3 -10  -2 4277.91 71.8025   2
  -3  10   2 4390.35 164.306   4
   3 -10  -2 4474.34 72.0307   2
  -3 -10   2 4499.10 164.095   3
   3 -10  -1 1708.87 51.3823   2
  -3  10   1 1836.55 108.749   4
   3 -10  -1 1524.51 53.8751   2
  -3 -10   1 1842.34 104.508   3
   3 -10   0 12175.5 131.348   3
  -3 -10   0 12173.0 248.059   2
  -3  10   0 12192.7 284.035   4
   3 -10   0 12208.4 178.948   2
   3 -10   1 12435.8 176.457   3
  -3 -10  -1 12374.7 254.046   2
  -3  10  -1 12320.7 294.869   4
  -3  10  -2 1093.20 70.2579   5
   3 -10   2 1014.51 60.2165   3
  -3 -10  -2 823.742 70.0637   2
  -3  10  -2 1043.85 88.1107   4
  -3  10  -3 5404.10 160.947   5
  -3 -10  -3 5279.56 183.006   2
  -3  10  -3 4962.59 194.864   4
   3 -10   3 5207.72 155.538   3
  -3 -10  -4 2676.60 142.214   2
  -3  10  -4 2943.73 128.003   5
   3 -10   4 2956.18 129.778   3
  -3  10  -4 2907.54 155.641   4
  -3 -10  -5 492.960 66.1149   2
   3 -10   5 490.717 60.7704   3
  -3  10  -5 595.601 75.0657   4
  -3  10  -5 397.687 55.0325   5
  -3  10  -6 797.773 79.1227   5
   3 -10   6 719.640 79.9321   3
  -3  10  -6 754.047 86.5519   4
  -3 -10  -6 785.337 92.8084   2
  -3  10  -7 1017.49 95.3456   5
   3 -10   7 1123.94 107.293   3
  -3  10  -7 1043.36 105.875   4
  -3 -10  -7 1067.73 112.071   2
  -3  10  -8 290.748 60.4004   5
   3 -10   8 329.281 67.3837   3
  -3  10  -8 255.257 54.7318   4
  -3 -10  -8 300.125 71.3935   2
  -3 -11   8 1117.19 116.915   3
   3  11  -8 1020.02 111.607   5
  -3 -11   7 3278.60 180.880   3
   3  11  -7 3254.93 188.629   5
   3  11  -6 117.684 46.3470   5
  -3 -11   6 90.1855 36.6823   3
   3  11  -5 35.0902 38.6874   5
  -3 -11   5 62.4311 30.0084   3
  -3  11   5 100.831 32.2782   4
   3  11  -4 125.164 50.5752   5
  -3 -11   4 23.5307 27.9218   3
  -3  11   4 76.0455 32.8856   4
  -3 -11   3 899.691 81.5192   3
   3  11  -3 793.278 81.1068   5
  -3  11   3 805.369 74.4644   4
   3 -11  -3 834.542 35.7277   2
  -3  11   2 2826.41 136.736   4
   3 -11  -2 2699.84 66.6665   2
  -3 -11   2 2638.69 131.595   3
  -3 -11   1 205.864 39.3021   3
   3 -11  -1 212.329 22.1532   2
   3 -11  -1 227.875 24.0757   2
  -3 -11   1 172.032 36.2217   2
  -3  11   1 265.877 48.5468   4
   3 -11   0 414.351 26.5563   3
  -3 -11   0 404.622 50.3451   2
  -3  11   0 395.954 61.2835   4
   3 -11   1 2439.83 81.3164   3
  -3 -11  -1 2363.90 118.575   2
  -3  11  -1 2561.35 139.747   4
  -3  11  -2 4275.46 142.911   5
  -3  11  -2 4219.36 181.619   4
  -3 -11  -2 4096.20 159.308   2
   3 -11   2 3952.93 121.247   3
  -3  11  -3 773.408 66.7006   5
   3 -11   3 736.924 60.3909   3
  -3 -11  -3 659.884 69.6738   2
  -3  11  -3 750.952 83.6888   4
  -3 -11  -4 141.418 41.4402   2
  -3  11  -4 40.6767 24.2857   5
   3 -11   4 88.4455 31.2332   3
  -3  11  -4 147.085 46.0486   4
  -3 -11  -5 7086.40 247.925   2
  -3  11  -5 7216.62 220.084   5
   3 -11   5 6972.88 222.880   3
  -3  11  -5 6450.75 245.748   4
  -3  11  -6 107.273 42.7988   5
   3 -11   6 45.0425 35.7391   3
  -3  11  -6 34.8112 31.4281   4
  -3 -11  -6 64.2926 47.3995   2
  -3  11  -7 770.374 87.0187   5
   3 -11   7 836.274 94.1238   3
  -3  11  -7 1002.97 105.955   4
  -3 -11  -7 822.783 100.342   2
  -3  11  -8 92.4585 50.7352   5
   3 -11   8-1.32704 32.3170   3
  -3  11  -8-6.21104 38.6212   4
   3  12  -7 1215.98 118.898   5
  -3 -12   7 895.542 102.573   3
  -3 -12   6 5292.92 222.775   3
   3  12  -6 5612.69 237.510   5
  -3 -12   5 2300.43 140.838   3
   3  12  -5 2444.17 152.691   5
  -3  12   5 2626.10 126.813   4
   3  12  -4 105.958 50.1221   5
  -3 -12   4 83.6325 32.5110   3
  -3  12   4 102.555 34.1944   4
  -3 -12   3 19325.9 377.414   3
   3  12  -3 19420.1 388.289   5
  -3  12   3 19826.8 367.140   4
   3 -12  -2 4038.75 91.5723   2
  -3  12   2 4179.38 176.606   4
  -3 -12   2 3898.18 166.284   3
   3 -12  -1 2403.75 73.3470   2
  -3  12   1 2277.41 131.977   4
  -3 -12   1 2231.96 117.876   2
  -3 -12   1 2402.70 128.685   3
  -3 -12   0 7099.94 208.604   2
  -3  12   0 7558.49 241.708   4
   3 -12   0 7542.45 114.102   3
   3 -12   1 18697.9 229.897   3
  -3 -12  -1 17892.4 334.642   2
  -3  12  -1 18454.9 383.197   4
  -3  12  -2 812.924 68.2857   5
   3 -12   2 728.054 55.9237   3
  -3 -12  -2 721.200 74.2428   2
  -3  12  -2 775.843 85.4355   4
  -3  12  -3 2776.88 128.351   5
   3 -12   3 2589.47 114.348   3
  -3 -12  -3 2664.29 140.519   2
  -3  12  -3 2739.17 158.679   4
  -3 -12  -4 2503.44 144.547   2
  -3  12  -4 2354.91 123.458   5
   3 -12   4 2385.38 120.789   3
  -3  12  -4 2534.62 156.428   4
  -3 -12  -5 6045.86 234.710   2
   3 -12   5 5924.98 206.912   3
  -3  12  -5 6592.82 256.524   4
  -3  12  -5 6120.90 210.164   5
  -3  12  -6 3765.11 174.997   5
   3 -12   6 3888.02 183.498   3
  -3  12  -6 3952.19 205.215   4
  -3 -12  -6 3865.20 199.664   2
   3 -12   7 1048.61 106.835   3
  -3  12  -7 943.549 97.3133   5
  -3  12  -7 1059.05 112.805   4
  -3 -12  -7 1031.22 114.984   2
  -3  12  -8 388.200 78.3412   5
  -3  12  -8 244.394 58.2465   4
   3  13  -7 586.729 89.0956   5
  -3 -13   7 531.557 83.8956   3
   3  13  -6-37.9601 46.4822   5
  -3 -13   6-36.2792 35.6139   3
  -3 -13   5 3821.14 186.950   3
   3  13  -5 3946.58 200.191   5
  -3  13   5 4153.56 161.538   4
  -3 -13   4 1309.02 110.781   3
   3  13  -4 1058.54 102.785   5
  -3  13   4 1311.35 95.6637   4
   3  13  -3 110.396 40.4689   5
  -3 -13   3 67.7005 34.9720   3
  -3  13   3 61.5285 31.9623   4
  -3  13   2 4827.10 192.338   4
  -3 -13   2 4696.24 189.096   3
   3 -13  -1 1480.09 62.3351   2
  -3  13   1 1430.66 109.354   4
  -3 -13   1 1349.97 97.0917   2
  -3 -13   0 170.826 44.7648   2
  -3  13   0 153.579 44.9946   4
   3 -13   1 1340.02 64.2226   3
  -3 -13  -1 1446.56 100.706   2
  -3  13  -1 1451.79 115.172   4
  -3  13  -2 5645.28 180.955   5
   3 -13   2 5907.78 156.361   3
  -3 -13  -2 5518.42 198.279   2
  -3  13  -2 5762.45 230.136   4
  -3  13  -3 3732.37 153.624   5
   3 -13   3 3675.67 139.974   3
  -3 -13  -3 3703.83 169.118   2
  -3  13  -3 3782.31 192.267   4
  -3 -13  -4 16.2394 32.4583   2
  -3  13  -4 99.0117 50.2626   4
  -3 -13  -5 852.309 94.1167   2
  -3  13  -5 708.859 78.4075   5
   3 -13   5 655.778 73.5470   3
  -3  13  -5 617.524 85.8729   4
  -3 -13  -6 529.123 83.9405   2
  -3  13  -6 538.052 73.2456   5
  -3  13  -6 450.008 78.3026   4
  -3  13  -7 1493.34 126.004   5
  -3  13  -7 1572.29 139.623   4
   3 -13   7 1558.99 131.720   3
  -3 -13  -7 1431.90 137.083   2
   3  14  -6 617.048 92.5150   5
  -3 -14   6 408.479 72.1468   3
  -3 -14   5 4744.45 214.994   3
   3  14  -5 4548.69 221.874   5
   3  14  -4 227.373 53.0514   5
  -3 -14   4 239.432 54.6299   3
  -3  14   4 147.585 33.8045   4
   3  14  -3 144.429 47.7637   5
  -3 -14   3 172.181 40.4233   3
  -3  14   3 124.748 36.1073   4
  -3  14   2 4116.85 179.596   4
  -3 -14   2 4217.71 185.375   3
  -3 -14   1 46.3502 29.2488   2
  -3  14   1 25.3363 26.5490   4
  -3 -14   0 6549.62 216.219   2
  -3  14   0 6196.48 234.611   4
  -3 -14  -1 93.2809 31.5182   2
  -3  14  -1 101.507 42.4792   4
  -3  14  -2 115.163 33.2790   5
  -3 -14  -2 206.215 48.8279   2
   3 -14   2 127.010 26.3635   3
  -3  14  -2 143.971 45.0178   4
  -3  14  -3 8905.09 245.602   5
  -3 -14  -3 8716.08 266.923   2
  -3  14  -3 8146.01 289.889   4
   3 -14   3 8898.58 219.579   3
  -3  14  -4 883.045 85.9120   5
  -3 -14  -4 870.622 92.3968   2
   3 -14   4 899.249 79.5635   3
  -3  14  -4 863.534 98.4570   4
  -3 -14  -5 2095.22 148.463   2
  -3  14  -5 2174.19 136.183   5
   3 -14   5 1986.60 127.120   3
  -3  14  -5 1744.37 144.205   4
  -3 -14  -6 65.5778 45.8730   2
  -3  14  -6 105.690 42.5381   5
   3 -14   6 93.1283 42.1848   3
  -3  14  -6 124.922 62.1841   4
  -3  14  -7 6698.63 260.697   5
   3 -14   7 6629.13 266.049   3
   3  15  -6 128.606 58.3373   5
  -3 -15   6 169.427 52.9716   3
  -3 -15   5 1685.37 132.983   3
   3  15  -5 1823.80 143.806   5
   3  15  -4 76.6393 50.9741   5
  -3 -15   4 53.1301 39.2068   3
  -3  15   4 55.5891 36.0053   4
   3  15  -3 2785.96 167.609   5
  -3  15   3 2900.71 153.780   4
  -3 -15   3 2548.43 152.532   3
  -3 -15   2 45.6207 30.5930   3
  -3  15   2-14.5972 37.2006   4
  -3 -15   1 6438.70 222.462   2
  -3  15   1 6328.97 238.323   4
  -3 -15   0 140.954 35.9223   2
  -3  15   0 188.711 47.2318   4
  -3 -15  -1 2444.66 140.318   2
  -3  15  -1 2446.62 159.771   4
  -3  15  -2 355.372 56.0258   5
  -3 -15  -2 334.472 56.9568   2
  -3  15  -2 307.430 61.4013   4
  -3  15  -3 7591.12 237.861   5
  -3 -15  -3 7430.10 255.067   2
  -3  15  -3 7627.22 289.418   4
  -3 -15  -4 435.123 73.1424   2
  -3  15  -4 221.503 46.9665   5
  -3  15  -4 425.140 76.8406   4
  -3 -15  -5-7.37838 34.3066   2
   3 -15   5 61.4933 29.1376   3
  -3  15  -5 118.271 44.8676   5
  -3  15  -5 71.0498 48.2290   4
  -3 -15  -6-15.1386 37.6308   2
  -3  15  -6 32.0868 40.0112   5
   3 -15   6 7.43373 32.2353   3
  -3 -16   5 4083.70 214.112   3
   3  16  -5 4281.05 227.208   5
   3  16  -4 1659.48 137.953   5
  -3 -16   4 1642.11 134.770   3
   3  16  -3 367.523 74.8269   5
  -3 -16   3 322.274 62.4493   3
  -3  16   3 239.872 50.0616   4
  -3  16   2 1113.39 107.047   4
  -3 -16   2 1189.73 103.581   2
  -3 -16   2 1241.33 110.966   3
  -3 -16   1 66.3695 29.2550   2
  -3  16   1 97.3774 45.3085   4
  -3 -16   0 6231.33 226.325   2
  -3  16   0 5974.58 249.700   4
  -3 -16  -1 570.543 74.9299   2
  -3  16  -1 503.537 78.9176   4
  -3  16  -2 203.046 48.4139   5
  -3 -16  -2 119.633 38.5058   2
  -3  16  -2 156.707 49.1152   4
  -3  16  -3 3957.73 179.576   5
  -3 -16  -3 3991.77 193.932   2
  -3  16  -3 3948.17 217.865   4
  -3 -16  -4 2798.95 174.036   2
  -3  16  -4 2758.56 156.861   5
  -3  16  -4 2983.80 192.901   4
  -3 -16  -5 2254.07 162.370   2
  -3  16  -5 2191.77 147.885   5
   3  17  -4 1334.28 124.931   5
  -3 -17   4 1308.72 121.041   3
   3  17  -3 1145.78 122.381   5
  -3  17   3 1171.01 107.051   4
  -3 -17   3 1219.87 116.070   3
  -3  17   2 1496.64 125.387   4
  -3 -17   2 1636.02 124.081   2
  -3 -17   1 35.1935 40.4327   2
  -3  17   1 21.6363 36.5442   4
  -3 -17   0 19.6533 36.8496   2
  -3  17   0 39.4080 39.7060   4
  -3 -17  -1 794.308 85.5005   2
  -3  17  -1 647.274 90.8970   4
  -3  17  -2 3977.60 182.456   5
  -3  17  -2 3648.01 211.753   4
  -3 -17  -2 4041.01 198.131   2
  -3 -17  -3 423.453 76.5511   2
  -3  17  -3 266.237 57.1960   5
  -3  17  -3 431.729 80.9732   4
  -3 -17  -4 637.136 92.3325   2
  -3  17  -4 537.195 79.3196   5
  -3  18   3 5891.88 239.138   4
  -3 -18   3 6150.51 259.030   3
  -3  18   2 2977.34 177.257   4
  -3 -18   2 3085.36 176.218   2
  -3 -18   1 947.618 97.4770   2
  -3  18   1 944.546 104.238   4
  -3 -18   0 3849.35 192.411   2
  -3  18   0 3189.03 195.966   4
  -3 -18  -1 11138.8 327.806   2
  -3  18  -1 10263.6 351.660   4
  -3  18  -2 42.7438 38.0690   5
  -3 -18  -2-37.6754 31.2363   2
  -3  18  -2-15.6814 46.7393   4
  -3 -18  -3 70.9546 45.6432   2
  -3  18  -3 91.5801 43.3892   5
  -3  19   2 3957.42 208.332   4
  -3  19   1 143.874 65.2255   4
  -3  19   0 798.351 102.919   4
  -3  19  -2 4783.03 217.569   5
   4   0 -10 25.2521 43.2577   5
   4   0  -9 50.9063 43.5628   5
  -4   0   9-47.0368 37.8475   3
   4   0  -9 17.6657 35.7091   1
  -4   0   8 1661.06 107.775   3
   4   0  -8 1538.15 122.296   5
   4   0  -8 1622.45 121.244   1
   4   0  -7 1.28071 26.4924   1
   4   0  -7 7.59085 27.5899   5
  -4   0   7 94.9276 33.1692   3
  -4   0   6 1708.15 93.4646   3
   4   0  -6 1581.14 103.263   5
   4   0  -5-15.6660 21.5885   5
  -4   0   5 1.74616 16.9395   3
  -4   0   4 4267.59 123.182   3
   4   0  -4 4386.10 136.792   5
  -4   0   4 4168.96 116.022   2
  -4   0   3-0.99999 17.3705   5
   4   0  -3-8.15991 15.6692   5
  -4   0   3 1.93336 13.9074   3
  -4   0   2 174.130 26.2896   3
   4   0  -2 191.232 22.2818   5
   4   0  -2 150.128 23.8813   3
  -4   0   2 172.301 21.0222   2
   4   0  -1 5.08869 7.00744   5
  -4   0   1 13.5621 12.4736   2
   4   0  -1-6.48228 12.3186   3
  -4   0   0 45762.2 343.913   2
   4   0   0 45581.5 381.390   3
   4   0   0 46193.0 430.988   1
  -4   0  -1 23.4278 16.8118   2
   4   0   1-0.02448 5.62114   5
   4   0   1-1.66334 17.6095   1
  -4   0  -1 9.89192 16.8010   4
   4   0   2 1077.12 44.8765   5
   4   0   2 1066.69 62.5396   1
  -4   0  -2 920.305 62.1692   4
  -4   0  -2 981.416 67.8506   2
   4   0   3-8.30242 15.3451   1
  -4   0  -3-0.51801 15.1353   4
  -4   0  -3 8.16049 28.3608   2
   4   0   3 0.46944 12.5155   5
  -4   0  -4 34187.2 372.936   4
  -4   0  -4 34734.1 458.219   2
  -4   0  -5 6.23566 25.2596   2
  -4   0  -5 12.6644 17.6037   4
  -4   0  -6 1540.77 78.9434   4
  -4   0  -6 1413.61 108.977   2
  -4   0  -7 1.88695 32.6367   2
  -4   0  -8 3046.00 183.465   2
  -4  -1  10 295.722 60.6370   3
  -4  -1   9 2311.51 140.417   3
  -4   1   9 2186.64 129.786   3
   4   1  -9 2300.19 162.318   5
   4  -1  -9 1994.02 148.872   5
   4  -1  -9 2242.48 142.811   1
   4   1  -9 2175.88 146.578   1
   4   1  -8 333.804 64.5219   5
   4  -1  -8 205.592 47.9943   5
  -4  -1   8 203.713 41.7132   3
  -4   1   8 286.229 51.6451   3
   4  -1  -8 340.773 61.5717   1
   4   1  -7 427.353 65.7194   5
   4  -1  -7 499.150 66.2831   5
  -4  -1   7 471.093 54.6189   3
  -4   1   7 459.345 53.7885   3
   4  -1  -7 448.185 66.1253   1
   4   1  -6-6.86514 22.9752   5
   4  -1  -6 8.61722 21.8036   5
  -4  -1   6-4.68853 22.0714   3
  -4   1   6 6.22955 18.3288   3
   4  -1  -6 1.32579 27.2036   1
  -4  -1   5 1213.77 76.8675   3
  -4   1   5 1187.58 68.9843   3
   4   1  -5 1227.33 85.6334   5
   4  -1  -5 1192.13 81.1650   5
   4  -1  -5 1244.70 95.7873   1
  -4   1   4 8410.66 163.774   3
  -4  -1   4 8147.28 178.744   3
   4   1  -4 8139.45 189.859   5
   4  -1  -4 8396.85 183.218   5
  -4   1   4 8440.87 153.541   2
  -4   1   3 87.0017 23.2175   5
   4  -1  -3 57.2903 16.8702   5
  -4  -1   3 87.6731 23.8100   3
   4  -1  -3 63.5974 16.0292   3
  -4   1   3 76.2403 18.7257   3
   4   1  -3 114.468 25.9024   5
   4  -1  -2 760.513 44.3762   3
   4   1  -2 741.929 44.2425   5
   4  -1  -2 814.573 38.6148   5
  -4   1   2 721.234 34.3266   2
  -4  -1   2 760.874 43.7709   2
  -4  -1   2 623.720 45.9238   3
   4  -1  -2 753.818 66.8713   1
   4  -1  -1 13107.4 182.096   3
   4   1  -1 13026.3 145.042   5
  -4   1   1 13323.2 154.764   2
  -4  -1   1 13192.5 176.941   2
   4  -1  -1 13491.3 249.590   1
  -4   1   0 38416.2 304.024   2
  -4  -1   0 38466.7 326.711   2
   4  -1   0 38320.3 282.135   2
   4  -1   0 39057.3 404.703   1
  -4   1   0 38842.6 403.093   4
   4  -1   0 38948.5 338.891   3
  -4  -1  -1 3920.25 117.776   2
   4   1   1 3888.97 71.7908   5
   4  -1   1 3934.71 124.247   1
   4  -1   1 3962.71 105.794   2
  -4   1  -1 3963.90 128.653   4
  -4   1  -1 3784.90 112.126   2
  -4  -1  -2 9010.99 196.626   2
   4  -1   2 8880.74 117.526   5
   4   1   2 9025.33 136.933   5
   4   1   2 9042.73 173.385   1
  -4   1  -2 9358.19 198.234   4
  -4  -1  -2 9153.11 186.700   4
  -4   1  -2 9010.81 191.939   2
   4  -1   2 9146.61 183.817   1
   4   1   3 9654.91 167.392   1
   4   1   3 9521.71 169.014   5
   4  -1   3 9773.84 161.558   5
  -4   1  -3 9503.24 202.109   4
  -4  -1  -3 9189.08 187.844   4
  -4   1  -3 9321.01 217.181   2
  -4  -1  -3 9672.70 224.624   2
  -4   1  -4 3053.83 117.736   4
  -4  -1  -4 3101.38 109.471   4
  -4   1  -4 3055.54 137.322   2
  -4  -1  -4 2860.22 134.092   2
  -4   1  -5 6213.59 169.772   4
  -4  -1  -5 6139.58 151.372   4
  -4   1  -5 5958.12 206.883   2
  -4  -1  -5 5795.85 205.279   2
  -4   1  -6 56.5828 35.8715   2
  -4   1  -6 27.9620 18.6810   4
  -4  -1  -6 21.4625 16.5166   4
  -4  -1  -6 29.6110 39.8633   2
  -4   1  -7 239.208 57.2445   2
  -4  -1  -7 333.554 59.7855   2
  -4   1  -8 1499.61 130.499   2
  -4  -1  -8 1678.95 138.187   2
  -4  -2  10 18.6143 37.0156   3
  -4  -2   9 2834.48 157.796   3
   4  -2  -9 2834.16 160.511   1
   4   2  -9 2865.65 179.284   5
   4   2  -9 2585.25 159.570   1
  -4  -2   8 1600.49 111.777   3
   4   2  -8 1502.44 120.493   5
   4  -2  -8 1647.17 120.131   1
  -4   2   8 1591.36 100.504   3
  -4  -2   7 1936.97 113.948   3
  -4   2   7 2202.03 106.269   3
   4   2  -7 1945.91 128.722   5
   4  -2  -7 2150.96 127.363   5
   4  -2  -7 2007.12 128.135   1
  -4  -2   6 3165.21 134.380   3
  -4   2   6 3323.49 119.228   3
   4   2  -6 3040.61 146.548   5
   4  -2  -6 2880.51 134.181   5
   4  -2  -6 3115.89 154.668   1
   4   2  -5-14.4535 25.7699   5
   4  -2  -5 47.5614 25.0781   5
   4  -2  -5 62.1501 32.6834   1
  -4   2   5 36.5494 17.9247   3
  -4  -2   5 41.6343 22.9563   3
  -4   2   5 81.7341 22.6844   2
   4   2  -4-5.41750 21.5462   5
   4  -2  -4 9.26598 17.3254   5
  -4   2   4-3.47003 16.1650   3
  -4  -2   4 5.13338 20.1002   3
   4  -2  -4 29.5304 30.8720   1
  -4   2   4 14.3245 11.6641   2
  -4  -2   3 6567.58 160.886   3
   4   2  -3 6348.27 152.556   5
   4  -2  -3 6726.31 134.137   5
   4  -2  -3 6571.54 122.980   3
  -4   2   3 6522.94 102.622   2
  -4   2   3 6528.51 134.733   5
   4  -2  -3 6655.15 194.627   1
  -4   2   3 6565.85 126.577   3
  -4   2   2 14033.1 148.668   5
   4   2  -2 13923.2 196.468   5
   4  -2  -2 14356.4 173.102   3
  -4   2   2 14637.0 128.018   2
   4  -2  -2 14718.5 277.366   1
  -4  -2   2 14690.3 230.175   3
   4  -2  -1 4256.87 97.4392   3
  -4   2   1 4494.19 83.3827   2
   4   2  -1 4317.12 95.5624   5
  -4  -2   1 4334.88 108.704   2
   4  -2  -1 4524.87 148.085   1
  -4   2   1 4385.51 140.434   4
   4  -2   0 116.477 30.7237   1
  -4  -2   0 115.493 23.2395   2
   4  -2   0 70.9862 16.7070   3
   4  -2   0 86.9428 15.5772   2
  -4   2   0 85.4534 21.4995   4
  -4   2   0 121.524 21.0257   2
   4  -2   1 3587.29 122.556   1
  -4  -2  -1 3935.17 119.830   2
   4  -2   1 3710.53 100.342   2
  -4   2  -1 3766.25 130.747   4
  -4   2  -1 3665.10 107.358   2
  -4  -2  -2 25341.2 333.271   2
   4   2   2 25375.5 245.699   5
  -4   2  -2 24973.8 334.200   4
  -4  -2  -2 25713.8 304.625   4
   4  -2   2 25370.1 318.138   1
  -4   2  -2 25279.1 319.573   2
   4  -2   3 6814.57 133.588   5
   4   2   3 6708.66 148.023   5
   4   2   3 6832.18 137.662   1
  -4   2  -3 6726.05 177.670   4
  -4  -2  -3 6761.36 156.021   4
  -4   2  -3 6835.85 186.117   2
  -4  -2  -3 6952.17 193.412   2
  -4   2  -4 3804.25 136.520   4
  -4  -2  -4 3618.96 112.598   4
  -4   2  -4 3744.34 151.493   2
  -4  -2  -4 3713.76 154.402   2
  -4   2  -5-16.7638 26.8021   2
  -4   2  -5 29.3058 21.3854   4
  -4  -2  -5 33.6861 16.3497   4
  -4  -2  -5 62.9795 37.3080   2
  -4   2  -6 1070.99 74.3168   4
  -4   2  -6 1128.50 101.335   2
  -4  -2  -6 932.147 93.9740   2
  -4   2  -7 47.8737 40.6301   2
  -4  -2  -7 2.58336 36.2210   2
  -4   2  -8 3999.75 210.539   2
  -4  -2  -8 4146.27 213.262   2
  -4  -3  10 9130.31 306.405   3
  -4  -3   9 2005.96 137.113   3
   4   3  -9 2294.36 161.900   5
   4   3  -8 647.987 85.0642   5
  -4  -3   8 641.202 73.1211   3
   4  -3  -8 613.662 77.3527   1
  -4  -3   7 2434.50 131.137   3
  -4   3   7 2273.45 104.765   3
   4   3  -7 2115.02 134.561   5
   4  -3  -7 2371.86 141.189   1
   4  -3  -6 217.017 50.2968   1
   4   3  -6 255.480 48.8313   5
  -4  -3   6 234.161 42.5688   3
  -4   3   6 212.984 32.6127   3
  -4   3   5 1624.56 70.6522   3
  -4  -3   5 1577.20 92.4136   3
   4   3  -5 1487.07 95.2196   5
   4  -3  -5 1536.09 106.292   1
  -4   3   5 1492.73 66.6702   2
  -4   3   4 1925.30 69.1679   3
  -4  -3   4 1972.97 97.7065   3
   4   3  -4 1933.35 98.3952   5
   4  -3  -4 2022.80 114.732   1
  -4   3   4 1822.12 57.9013   2
  -4   3   3 42.5750 17.5903   5
   4   3  -3 30.8046 20.2756   5
  -4   3   3 62.5567 15.5335   3
  -4  -3   3 83.9653 24.9977   3
  -4   3   3 73.2452 8.68825   2
   4  -3  -3 75.4353 34.6523   1
   4  -3  -3 54.8066 14.1969   3
  -4   3   3 56.0656 10.1910   2
   4   3  -2 10618.2 183.327   5
   4  -3  -2 10328.2 132.817   3
   4  -3  -2 10574.3 239.196   1
  -4   3   2 10489.4 132.598   5
  -4   3   2 10882.6 228.562   4
  -4  -3   2 10559.3 203.976   3
   4  -3  -1 1293.35 50.1260   3
   4   3  -1 1375.79 60.8272   5
   4  -3  -1 1337.20 84.1205   1
  -4  -3   1 1287.30 63.9412   2
  -4   3   1 1349.33 81.1691   4
  -4   3   1 1305.37 39.2340   2
   4  -3   0 5793.07 165.552   1
  -4  -3   0 5975.11 140.318   2
   4  -3   0 5843.49 98.0441   2
  -4   3   0 6143.68 170.130   4
  -4   3   0 5691.10 108.469   2
  -4  -3  -1 3000.28 108.012   2
   4  -3   1 2898.38 88.6033   2
  -4   3  -1 2931.05 118.333   4
  -4   3  -1 2896.76 94.4015   2
   4  -3   1 2944.84 116.305   1
  -4  -3  -2 46941.4 461.742   2
   4   3   2 45909.7 353.151   5
  -4   3  -2 45504.2 467.660   4
  -4   3  -2 45782.1 424.016   2
  -4  -3  -3 3540.28 140.280   2
  -4   3  -3 3457.05 90.0413   5
  -4   3  -3 3351.58 129.725   4
  -4  -3  -3 3401.88 108.745   4
  -4   3  -3 3457.17 131.849   2
   4   3   3 3447.39 97.9581   1
  -4   3  -4 7471.73 158.319   5
  -4   3  -4 7521.93 199.136   4
  -4  -3  -4 7259.19 155.103   4
  -4   3  -4 7212.70 208.912   2
   4   3   4 7995.66 126.349   1
  -4  -3  -4 7317.44 218.447   2
  -4   3  -5 4445.37 139.887   5
  -4   3  -5 4756.77 164.986   4
  -4  -3  -5 4695.06 118.103   4
  -4   3  -5 4963.21 188.320   2
  -4  -3  -5 4781.61 191.249   2
  -4   3  -6 16072.1 295.641   5
  -4   3  -6 16104.1 300.001   4
  -4   3  -6 15759.4 363.728   2
  -4  -3  -6 15776.1 368.679   2
  -4   3  -7 1957.61 140.403   2
  -4  -3  -7 2136.58 147.921   2
  -4   3  -8 205.145 61.5050   2
  -4  -3  -8 34.4537 38.5371   2
  -4  -4  10 367.583 73.1210   3
   4   4  -9 651.601 87.0457   5
  -4  -4   9 930.716 98.1438   3
   4   4  -8 73.1041 39.5006   5
   4  -4  -8 79.0341 33.6117   1
  -4  -4   8 131.022 43.8869   3
   4  -4  -7 822.959 87.6331   1
  -4  -4   7 786.815 79.7491   3
  -4   4   7 724.222 58.3954   3
   4   4  -7 860.566 89.6448   5
  -4   4   7 732.341 70.1131   4
  -4   4   6 6572.31 149.769   3
   4  -4  -6 6568.54 225.296   1
   4   4  -6 6666.08 221.114   5
  -4   4   6 6638.18 201.543   4
  -4  -4   6 6650.89 205.920   3
   4   4  -5 73.8724 32.9104   5
  -4   4   5 176.445 24.4607   3
  -4  -4   5 157.806 36.0564   3
   4  -4  -5 147.269 41.0896   1
  -4   4   5 176.653 39.7654   4
  -4  -4   4 2923.71 121.453   3
  -4   4   4 2829.29 48.2321   2
   4   4  -4 2710.97 120.656   5
   4  -4  -4 2971.79 142.401   1
  -4   4   4 2947.00 128.004   4
  -4   4   4 3025.39 77.6250   3
  -4  -4   3 3142.77 121.768   3
   4   4  -3 3167.91 116.645   5
  -4   4   3 3129.22 96.5658   5
   4  -4  -3 3206.54 141.069   1
  -4   4   3 3122.14 128.660   4
   4   4  -2 26916.3 306.800   5
   4  -4  -2 26701.6 388.866   1
   4  -4  -2 26760.5 178.431   3
  -4   4   2 27167.7 225.080   5
  -4   4   2 28175.2 376.932   4
  -4  -4   2 27462.8 343.035   3
   4  -4  -1 531.165 28.9187   3
  -4   4   1 475.208 19.5649   5
   4  -4  -1 564.029 59.2551   1
  -4  -4   1 545.129 46.0466   2
  -4   4   1 507.649 56.7497   4
  -4  -4   0 2489.86 94.4993   2
   4  -4   0 2361.13 59.8572   2
  -4   4   0 2443.33 110.946   4
  -4   4   0 2325.12 64.9885   2
   4  -4   0 2353.92 111.353   1
   4  -4   1 21680.5 237.794   2
  -4  -4  -1 22778.4 300.778   2
  -4   4  -1 22632.9 337.422   4
  -4   4  -1 21920.9 249.460   2
  -4  -4  -2 8402.71 198.570   2
  -4   4  -2 8503.59 110.843   5
  -4   4  -2 8376.61 208.445   4
  -4   4  -2 8314.41 179.494   2
  -4  -4  -3 322.702 47.4786   2
  -4   4  -3 406.170 32.5573   5
  -4   4  -3 417.254 48.0409   2
  -4   4  -3 414.405 51.6363   4
  -4  -4  -3 355.039 37.0212   4
  -4   4  -4 1333.37 68.9403   5
   4   4   4 1299.86 51.7155   1
  -4   4  -4 1335.58 88.7461   4
  -4  -4  -4 1283.75 64.3332   4
  -4   4  -4 1380.60 93.7568   2
  -4  -4  -4 1252.51 93.3765   2
  -4   4  -5 2379.08 104.139   5
  -4   4  -5 2345.59 120.365   4
  -4  -4  -5 2327.59 79.2462   4
  -4   4  -5 2328.04 131.373   2
  -4  -4  -5 2209.44 133.349   2
  -4   4  -6 672.777 64.5679   5
  -4   4  -6 608.402 74.2367   2
  -4   4  -6 702.820 67.5028   4
  -4  -4  -6 728.773 82.2614   2
  -4   4  -7 1108.32 89.3483   5
  -4   4  -7 1157.74 86.2157   4
  -4   4  -7 931.526 98.6449   2
  -4  -4  -7 1126.68 111.417   2
  -4   4  -8 4470.50 227.879   2
  -4  -4  -8 5156.41 242.693   2
   4   5  -9 37.2757 60.5500   5
  -4  -5   9 29.1400 39.8293   3
   4  -5  -8 37.6803 36.5532   1
   4   5  -8 185.053 61.9187   5
  -4  -5   8 130.210 47.7774   3
   4  -5  -7 535.864 71.8607   1
   4   5  -7 490.494 70.9661   5
  -4  -5   7 430.260 62.5712   3
  -4   5   7 497.526 62.9232   4
  -4  -5   6 4372.68 171.993   3
  -4   5   6 4513.72 115.025   3
   4   5  -6 4511.57 185.160   5
  -4   5   6 4556.31 169.081   4
   4  -5  -6 4507.81 190.759   1
  -4   5   5 3850.12 90.6440   3
   4  -5  -5 3885.64 171.214   1
  -4  -5   5 3796.20 151.241   3
   4   5  -5 3746.78 156.371   5
  -4   5   5 3998.75 154.784   4
  -4  -5   4 661.862 62.8044   3
   4   5  -4 732.632 65.8817   5
   4  -5  -4 650.065 73.4078   1
  -4   5   4 586.833 60.3486   4
  -4   5   4 713.450 32.2432   3
   4  -5  -3 3337.59 148.232   1
  -4  -5   3 3144.65 126.128   3
   4   5  -3 3117.85 121.896   5
  -4   5   3 2965.21 98.7653   5
  -4   5   3 3179.73 133.533   4
   4   5  -2 20.2785 24.6570   5
   4  -5  -2 2.95250 29.0207   1
  -4   5   2 32.8724 15.5846   5
  -4  -5   2 37.7062 20.6139   3
  -4   5   2 17.5655 23.9081   4
   4  -5  -1 3018.15 57.6250   3
  -4   5   1 3090.14 63.2875   5
  -4  -5   1 3188.24 109.360   2
  -4   5   1 3291.19 133.784   4
   4  -5  -1 3253.12 137.492   1
  -4   5   0 193.673 11.1792   5
  -4   5   0 182.319 11.4533   5
   4  -5   0 198.296 18.2605   2
  -4  -5   0 127.075 24.3840   2
  -4   5   0 195.522 36.1164   4
   4  -5   1 10937.1 170.778   2
  -4   5  -1 10847.3 97.5510   5
  -4  -5  -1 11188.5 219.869   2
  -4   5  -1 10840.3 243.207   4
  -4   5  -1 10848.5 172.734   2
  -4  -5  -2 23055.9 336.164   2
  -4   5  -2 22719.7 197.116   5
  -4   5  -2 22865.2 355.755   4
  -4   5  -2 22279.6 292.934   2
  -4  -5  -3 1364.73 93.6232   2
  -4   5  -3 1346.03 60.3923   5
  -4   5  -3 1234.78 86.1337   4
  -4   5  -3 1194.32 78.5761   2
  -4  -5  -4 4785.26 182.402   2
  -4   5  -4 4917.40 134.549   5
  -4   5  -4 5171.23 179.613   4
  -4   5  -4 5022.73 174.968   2
  -4  -5  -4 5053.95 122.915   4
   4   5   4 5190.44 106.826   1
  -4   5  -5 2285.83 103.391   5
  -4   5  -5 2376.43 124.596   4
  -4  -5  -5 2228.32 72.9591   4
  -4   5  -5 2229.28 129.349   2
  -4  -5  -5 2370.33 138.149   2
  -4   5  -6 11255.8 252.934   5
  -4   5  -6 11770.7 279.609   4
  -4   5  -6 11637.9 317.474   2
  -4  -5  -6 11520.8 321.193   2
  -4   5  -7-9.67327 23.0446   5
  -4   5  -7-18.0972 22.5542   4
  -4  -5  -7 66.8377 42.5452   2
  -4   5  -8 2054.26 127.100   5
  -4  -5  -8 2080.97 158.205   2
  -4  -6   9 3831.11 201.534   3
   4   6  -9 4084.67 220.611   5
   4   6  -8 2833.30 172.099   5
  -4  -6   8 2596.16 156.120   3
   4  -6  -7 76.4016 40.6694   1
   4   6  -7 21.1591 33.6503   5
  -4  -6   7 47.7825 31.2443   3
  -4   6   7 81.2818 31.8432   4
  -4  -6   6 3270.25 153.043   3
   4   6  -6 3259.27 161.099   5
  -4   6   6 3419.48 148.633   4
   4  -6  -6 3278.16 166.372   1
  -4  -6   5 3305.97 145.489   3
   4   6  -5 3331.22 151.247   5
  -4   6   5 3516.77 148.915   4
   4  -6  -5 3174.86 158.410   1
   4  -6  -4 111.060 33.8426   1
   4   6  -4 150.546 35.3225   5
  -4  -6   4 207.713 38.7568   3
  -4   6   4 266.669 48.9543   4
  -4  -6   3 4961.95 164.308   3
   4   6  -3 4793.46 155.732   5
  -4   6   3 4861.35 168.987   4
   4  -6  -3 4699.59 179.307   1
   4  -6  -2 367.367 58.4798   1
   4   6  -2 353.995 44.8922   5
  -4  -6   2 315.627 41.9947   3
  -4   6   2 326.288 31.2524   5
  -4   6   2 380.668 50.9247   4
  -4   6   1 374.149 27.7094   5
  -4  -6   1 314.976 39.6958   2
  -4   6   1 332.718 48.0290   4
   4  -6   0 6064.47 92.2379   2
  -4  -6   0 6285.44 162.016   2
  -4   6   0 6434.13 192.447   4
   4  -6   1 18367.2 225.227   2
  -4   6  -1 19054.1 163.700   5
  -4  -6  -1 19357.6 296.610   2
  -4   6  -1 19527.6 337.138   4
  -4   6  -2 3040.16 79.5080   5
  -4  -6  -2 2950.29 124.407   2
  -4   6  -2 3020.54 135.400   4
  -4  -6  -3 6209.30 195.152   2
  -4   6  -3 6914.40 140.542   5
  -4   6  -3 6426.36 201.389   4
  -4  -6  -4 13362.6 306.520   2
  -4   6  -4 13620.2 226.611   5
  -4   6  -4 13656.4 305.672   4
  -4   6  -4 13221.4 288.551   2
  -4  -6  -4 13526.3 197.415   4
  -4   6  -5 219.026 35.0121   5
  -4   6  -5 342.709 54.1175   4
  -4  -6  -5 244.415 49.9718   2
  -4   6  -6 1252.44 87.9444   5
  -4   6  -6 1140.65 93.0225   4
  -4  -6  -6 1188.86 106.470   2
  -4   6  -7 2980.87 145.429   5
  -4   6  -7 2996.77 150.610   4
  -4  -6  -7 2980.39 177.727   2
  -4   6  -8 1998.38 129.613   5
   4  -6   8 2027.68 147.131   3
  -4  -6  -8 1977.16 155.275   2
   4   7  -9 43.4324 39.1539   5
  -4  -7   9 108.955 54.8677   3
  -4  -7   8 8083.94 278.363   3
   4   7  -8 8152.37 294.015   5
  -4  -7   7 1335.39 107.830   3
   4   7  -7 1515.20 122.823   5
  -4  -7   6 2739.51 146.163   3
   4   7  -6 2740.34 150.771   5
  -4   7   6 2865.04 136.248   4
  -4  -7   5 777.284 77.0006   3
   4   7  -5 783.359 79.1502   5
  -4   7   5 903.861 78.0212   4
  -4  -7   4 13138.3 285.155   3
   4   7  -4 13552.8 290.154   5
  -4   7   4 13186.8 287.629   4
   4   7  -3 549.975 56.6823   5
  -4  -7   3 584.993 62.8013   3
  -4   7   3 523.143 61.1262   4
  -4   7   2 4549.68 117.840   5
  -4   7   2 5003.51 175.053   4
  -4  -7   2 4803.55 162.632   3
  -4   7   1 2384.49 74.2594   5
  -4  -7   1 2483.30 105.957   2
  -4   7   1 2361.43 121.418   4
   4  -7   0 5996.69 93.0342   3
  -4  -7   0 6201.98 168.330   2
  -4   7   0 5830.19 190.786   4
   4  -7   0 5808.23 93.5035   2
   4  -7   1 3.52186 13.7073   2
  -4   7  -1 11.5455 13.0069   5
  -4  -7  -1 60.7280 29.3970   2
  -4   7  -1 24.3096 25.8603   4
  -4  -7  -2 340.305 43.7127   2
  -4   7  -2 340.088 30.5241   5
  -4   7  -2 345.653 51.4082   4
  -4  -7  -3 3962.87 160.057   2
  -4   7  -3 3883.57 111.740   5
  -4   7  -3 4399.72 173.876   4
  -4  -7  -4 149.454 39.6140   2
  -4   7  -4 217.001 34.8815   5
  -4   7  -4 240.129 52.8487   4
  -4  -7  -4 207.384 26.2788   4
  -4  -7  -5 629.522 78.4138   2
  -4   7  -5 548.266 57.3311   5
  -4   7  -5 588.829 68.6729   4
  -4   7  -6 2992.14 135.139   5
  -4   7  -6 3341.84 163.583   4
  -4  -7  -6 3170.05 174.244   2
  -4   7  -7 218.674 47.3032   5
   4  -7   7 272.953 57.6817   3
  -4   7  -7 179.337 50.0824   4
  -4  -7  -7 268.089 60.6167   2
   4  -7   8 55.6163 45.5818   3
  -4  -7  -8 114.641 48.2765   2
  -4  -8   8 9917.72 314.665   3
   4   8  -8 10127.2 333.233   5
  -4  -8   7 1130.20 104.963   3
   4   8  -7 1252.84 113.692   5
   4   8  -6 54.5293 32.9172   5
  -4  -8   6 96.8962 34.7741   3
  -4   8   6 54.4868 28.4279   4
   4   8  -5 129.388 42.3840   5
  -4  -8   5 156.767 47.3145   3
  -4   8   5 225.735 59.0392   4
  -4  -8   4 5723.38 197.159   3
   4   8  -4 5982.72 200.095   5
  -4   8   4 5719.49 193.956   4
  -4  -8   3 8156.32 225.880   3
   4   8  -3 7535.98 211.047   5
  -4   8   3 8244.00 232.833   4
  -4  -8   2 105.810 32.9583   3
  -4   8   2 39.6511 25.3797   4
  -4  -8   1 903.993 69.8291   2
  -4   8   1 966.022 83.4366   4
   4  -8   0 10751.2 133.550   2
   4  -8   0 11168.0 117.570   3
  -4  -8   0 11001.8 234.417   2
  -4   8   0 11230.2 274.504   4
  -4   8  -1 5845.58 119.627   5
   4  -8   1 5807.31 120.613   3
  -4  -8  -1 5914.51 176.170   2
  -4   8  -1 5944.75 200.758   4
   4  -8   1 5735.55 131.936   2
  -4  -8  -2 386.981 51.4784   2
  -4   8  -2 317.620 33.2179   5
   4  -8   2 354.651 37.1398   3
  -4   8  -2 342.262 53.6141   4
  -4  -8  -3 391.098 54.8847   2
  -4   8  -3 350.826 40.6465   5
  -4   8  -3 272.344 48.7030   4
  -4  -8  -4 22714.6 414.848   2
  -4   8  -4 23355.0 317.836   5
  -4   8  -4 23521.2 428.721   4
  -4   8  -5 1188.37 80.3871   5
   4  -8   5 1273.87 95.3821   3
  -4   8  -5 1360.78 107.109   4
  -4  -8  -5 1436.05 113.959   2
  -4   8  -6 11976.5 275.136   5
   4  -8   6 11706.8 305.174   3
  -4   8  -6 12220.2 322.320   4
  -4  -8  -6 11832.3 341.793   2
  -4   8  -7-24.4932 34.2773   5
   4  -8   7 59.7052 37.0019   3
  -4   8  -7 114.435 38.2811   4
  -4  -8  -7-20.2224 34.5168   2
   4  -8   8 2219.59 157.349   3
  -4  -9   8 6867.74 267.422   3
   4   9  -8 6515.85 271.033   5
  -4  -9   7 3250.90 176.781   3
   4   9  -7 3228.35 183.182   5
  -4  -9   6 1352.72 109.055   3
   4   9  -6 1181.69 106.611   5
  -4   9   6 1235.78 93.9914   4
  -4  -9   5 4060.94 178.836   3
   4   9  -5 3929.36 179.361   5
  -4   9   5 4010.50 166.604   4
  -4  -9   4 5423.57 197.492   3
   4   9  -4 5444.22 197.620   5
  -4   9   4 5318.69 190.643   4
   4   9  -3 319.041 51.6754   5
  -4  -9   3 446.121 61.1712   3
  -4   9   3 423.182 58.2041   4
  -4   9   2 2019.84 120.814   4
  -4  -9   2 2054.66 115.879   3
  -4  -9   1 11417.2 245.461   2
  -4   9   1 11173.8 278.846   4
   4  -9   0 1498.49 39.7796   3
  -4  -9   0 1597.66 93.9104   2
  -4   9   0 1602.75 109.539   4
   4  -9   0 1612.81 56.1394   2
  -4   9  -1 2078.25 79.4191   5
   4  -9   1 1877.10 68.7500   3
  -4  -9  -1 2016.97 109.090   2
  -4   9  -1 1966.02 122.765   4
  -4   9  -2 7374.81 156.576   5
  -4  -9  -2 7279.70 212.916   2
   4  -9   2 7298.82 161.282   3
  -4   9  -2 7341.27 238.228   4
  -4  -9  -3 2768.06 140.408   2
  -4   9  -3 2676.68 103.555   5
   4  -9   3 2714.55 112.434   3
  -4   9  -3 2704.63 150.974   4
  -4  -9  -4 304.833 53.2152   2
  -4   9  -4 285.619 40.1732   5
   4  -9   4 317.075 47.3983   3
  -4   9  -4 343.140 60.4412   4
  -4  -9  -5 5016.13 213.683   2
  -4   9  -5 5102.82 168.809   5
   4  -9   5 4849.44 185.303   3
  -4   9  -5 5156.10 211.266   4
  -4   9  -6 5994.48 198.626   5
   4  -9   6 5692.81 216.378   3
  -4   9  -6 6275.17 240.491   4
  -4  -9  -6 6054.32 249.506   2
   4  -9   7 265.356 53.3185   3
  -4   9  -7 526.576 74.2621   4
  -4  -9  -7 320.384 67.5663   2
   4  -9   8 56.1469 42.3691   3
  -4 -10   8 1519.90 130.652   3
   4  10  -8 2019.71 160.846   5
   4  10  -7 152.233 53.2810   5
  -4 -10   7 106.430 38.2182   3
  -4 -10   6 13215.5 345.119   3
   4  10  -6 13745.6 359.024   5
  -4  10   6 14073.8 306.572   4
  -4 -10   5 3854.38 180.042   3
   4  10  -5 3686.87 178.704   5
  -4  10   5 3958.32 167.768   4
  -4 -10   4 3106.50 156.523   3
   4  10  -4 3480.32 165.711   5
  -4  10   4 3343.68 154.637   4
   4  10  -3 0.95442 29.1047   5
  -4 -10   3 40.9337 29.0338   3
  -4  10   3 74.1816 27.0766   4
  -4  10   2 8547.77 251.048   4
  -4 -10   2 8551.62 242.969   3
  -4 -10   1 1262.87 88.2387   2
  -4  10   1 1161.76 95.7664   4
   4 -10   0 144.865 11.6400   3
  -4 -10   0 176.299 37.4059   2
  -4  10   0 106.756 37.2900   4
  -4  10  -1 1322.89 68.9612   5
   4 -10   1 1390.84 58.2959   3
  -4 -10  -1 1200.98 88.1603   2
  -4  10  -1 1196.56 101.132   4
  -4  10  -2 1963.55 87.3749   5
   4 -10   2 1838.39 82.8232   3
  -4 -10  -2 1849.43 113.359   2
  -4  10  -2 1795.97 124.910   4
  -4  10  -3 5129.73 148.830   5
  -4 -10  -3 5268.81 197.797   2
   4 -10   3 4883.67 153.848   3
  -4  10  -3 4917.61 209.575   4
  -4 -10  -4 5360.66 214.017   2
  -4  10  -4 5686.55 169.168   5
   4 -10   4 5620.96 182.049   3
  -4  10  -4 5771.85 227.050   4
  -4 -10  -5 392.933 69.2222   2
  -4  10  -5 415.209 53.2269   5
   4 -10   5 515.326 64.9847   3
  -4  10  -5 381.754 65.1167   4
  -4  10  -6 142.723 42.2545   5
   4 -10   6 142.990 41.3754   3
  -4  10  -6 156.647 47.1244   4
  -4 -10  -6 155.519 48.1030   2
   4 -10   7 4320.95 206.290   3
  -4  10  -7 3852.47 199.648   4
  -4 -10  -7 4413.23 228.404   2
  -4 -11   7 2299.42 155.427   3
   4  11  -7 2247.70 160.430   5
  -4 -11   6 5086.69 221.488   3
   4  11  -6 5054.74 223.924   5
   4  11  -5 719.526 87.1959   5
  -4 -11   5 610.717 79.0566   3
  -4  11   5 581.666 66.9485   4
   4  11  -4 125.674 42.6722   5
  -4 -11   4 234.364 50.8684   3
  -4  11   4 247.027 52.7607   4
   4  11  -3 290.284 56.5582   5
  -4 -11   3 202.333 46.3733   3
  -4  11   3 272.153 52.5682   4
  -4 -11   2 342.969 60.7751   3
  -4  11   2 424.967 61.4970   4
  -4 -11   1 634.750 68.4718   2
  -4  11   1 649.160 75.6956   4
  -4 -11   0 1445.42 96.9175   2
  -4  11   0 1403.63 111.048   4
  -4  11  -1 47.3019 19.4294   5
  -4 -11  -1-2.19737 27.2600   2
   4 -11   1 41.1625 14.4676   3
  -4  11  -1 97.0745 39.2998   4
  -4  11  -2 9109.47 198.449   5
   4 -11   2 9226.20 184.079   3
  -4 -11  -2 8948.34 251.829   2
  -4  11  -2 9168.22 287.893   4
  -4  11  -3 1412.22 82.6788   5
  -4 -11  -3 1509.77 111.228   2
   4 -11   3 1370.54 82.9096   3
  -4  11  -3 1499.20 121.029   4
  -4 -11  -4 9497.97 288.909   2
  -4  11  -4 9564.54 228.037   5
   4 -11   4 9803.93 242.616   3
  -4  11  -4 9285.44 297.987   4
  -4 -11  -5 370.380 69.1700   2
  -4  11  -5 387.451 55.3330   5
   4 -11   5 366.114 57.0993   3
  -4  11  -5 368.808 67.7710   4
   4 -11   6 4453.29 200.244   3
  -4  11  -6 3708.48 197.723   4
  -4 -11  -6 3639.82 202.786   2
   4 -11   7 944.251 103.881   3
  -4  11  -7 769.913 94.3442   4
  -4 -11  -7 984.860 116.578   2
  -4 -12   7 1511.81 131.002   3
   4  12  -7 1678.21 142.117   5
  -4 -12   6 8369.58 289.233   3
   4  12  -6 8869.46 305.953   5
   4  12  -5 748.428 92.3097   5
  -4 -12   5 885.603 94.1140   3
  -4  12   5 878.844 84.3346   4
   4  12  -4 182.593 56.4440   5
  -4 -12   4 27.8484 27.1768   3
  -4  12   4 126.158 39.0522   4
   4  12  -3 3670.37 174.055   5
  -4  12   3 3546.17 168.870   4
  -4 -12   3 4034.49 183.826   3
  -4  12   2 9896.00 287.232   4
  -4 -12   2 10109.7 263.701   2
  -4 -12   2 10145.4 283.629   3
  -4 -12   1 582.227 66.4742   2
  -4  12   1 674.790 81.7253   4
  -4 -12   0 2101.28 121.999   2
  -4  12   0 2323.09 145.422   4
  -4  12  -1 624.016 56.6585   5
  -4 -12  -1 749.027 76.4564   2
  -4  12  -1 605.494 78.0798   4
  -4  12  -2 3.67105 23.2401   5
  -4 -12  -2 55.5131 35.8354   2
   4 -12   2 69.9933 22.5224   3
  -4  12  -2 65.6620 30.6156   4
  -4  12  -3 897.684 73.5882   5
   4 -12   3 911.781 69.4540   3
  -4 -12  -3 888.478 87.5591   2
  -4  12  -3 763.894 91.6477   4
  -4 -12  -4 331.417 61.2924   2
  -4  12  -4 277.187 48.9510   5
   4 -12   4 356.144 51.4437   3
  -4  12  -4 361.905 65.6231   4
  -4 -12  -5 831.024 97.4327   2
   4 -12   5 795.679 79.6831   3
  -4  12  -5 768.349 95.3600   4
   4 -12   6 2325.31 143.219   3
  -4  12  -6 2317.50 164.483   4
  -4 -12  -6 2373.07 169.070   2
   4 -12   7 338.392 61.6616   3
  -4  12  -7 265.165 62.3599   4
   4  13  -6 961.879 113.383   5
  -4 -13   6 952.404 106.516   3
   4  13  -5 61.5028 53.9443   5
  -4 -13   5 49.0301 42.9166   3
  -4  13   5 25.3997 29.5759   4
   4  13  -4 5130.96 220.333   5
  -4  13   4 5353.31 210.708   4
  -4 -13   4 5334.42 224.605   3
   4  13  -3 7459.66 259.774   5
  -4  13   3 7184.39 249.383   4
  -4 -13   3 7543.06 258.486   3
  -4 -13   2 124.462 49.1369   3
  -4 -13   2 185.922 50.1989   2
  -4  13   2 80.2972 34.8189   4
  -4 -13   1 3848.86 168.965   2
  -4  13   1 3995.68 193.483   4
  -4 -13   0 3059.73 151.405   2
  -4  13   0 3193.11 176.869   4
  -4  13  -1 104.180 30.9839   5
  -4 -13  -1 17.8153 30.2071   2
  -4  13  -1 126.794 45.6378   4
  -4  13  -2 575.657 59.8101   5
  -4 -13  -2 597.957 72.7740   2
  -4  13  -2 557.584 79.1195   4
  -4  13  -3 2064.80 112.060   5
  -4 -13  -3 2441.25 148.458   2
  -4  13  -3 1727.16 135.471   4
  -4 -13  -4 715.161 89.4127   2
   4 -13   4 706.271 72.7814   3
  -4  13  -4 830.319 104.101   4
  -4 -13  -5 4712.33 226.160   2
   4 -13   5 4644.99 192.621   3
  -4  13  -5 4995.23 239.250   4
  -4 -13  -6 250.668 64.1441   2
   4 -13   6 274.335 61.3279   3
  -4  13  -6 218.540 58.4937   4
   4  14  -6 323.292 68.1918   5
  -4 -14   6 196.694 54.6894   3
  -4 -14   5 1368.99 123.275   3
   4  14  -5 1333.10 125.105   5
   4  14  -4 433.856 78.6399   5
  -4 -14   4 364.312 66.4120   3
  -4  14   4 360.660 63.2034   4
   4  14  -3 1097.47 106.005   5
  -4  14   3 1305.14 115.765   4
  -4 -14   3 1057.96 103.578   3
  -4 -14   2 438.672 67.6104   2
  -4  14   2 465.128 74.7446   4
  -4 -14   1 79.6635 39.8904   2
  -4  14   1 124.607 54.5345   4
  -4 -14   0 2220.79 135.239   2
  -4  14   0 2094.28 147.929   4
  -4  14  -1 97.1817 28.4035   5
  -4  14  -1 174.624 46.7502   4
  -4  14  -2 4802.88 169.727   5
  -4 -14  -2 5239.62 214.363   2
  -4  14  -2 5017.09 233.014   4
  -4 -14  -3 2119.94 142.137   2
  -4  14  -3 2155.26 160.168   4
  -4 -14  -4 1297.37 119.666   2
  -4  14  -4 1097.66 115.303   4
  -4 -14  -5 131.945 48.5718   2
  -4  14  -5 237.661 67.3130   4
   4  15  -5 346.327 77.5897   5
  -4 -15   5 250.111 61.7844   3
   4  15  -4 20012.8 464.709   5
  -4  15   4 19628.1 419.088   4
  -4 -15   4 19678.3 453.683   3
   4  15  -3 38.5826 37.7515   5
  -4 -15   3-8.13912 38.2752   3
  -4  15   3 18.1324 32.6051   4
  -4 -15   2 719.613 83.6411   2
  -4  15   2 828.358 97.3875   4
  -4 -15   1 148.685 50.6455   2
  -4  15   1 61.4746 37.4968   4
  -4 -15   0 11980.3 318.125   2
  -4  15   0 12004.2 354.916   4
  -4  15  -1 489.129 63.0595   5
  -4 -15  -1 499.324 71.5694   2
  -4  15  -1 579.762 84.5697   4
  -4 -15  -2 33.5737 33.1269   2
  -4  15  -2 19.7719 32.9357   4
  -4 -15  -3 99.5287 46.5001   2
  -4  15  -3 117.697 45.6146   4
  -4 -15  -4 211.790 59.7192   2
  -4  15  -4 191.676 66.6506   4
   4  16  -4-8.86929 49.4749   5
  -4 -16   4 13.8565 36.2925   3
  -4  16   4 26.2492 35.5036   4
   4  16  -3 1066.72 115.107   5
  -4 -16   3 930.211 102.838   3
  -4 -16   3 1087.17 107.887   2
  -4  16   3 1064.40 106.311   4
  -4  16   2 8109.31 289.790   4
  -4 -16   2 8468.50 279.052   2
  -4 -16   1 616.486 82.9673   2
  -4  16   1 959.772 107.240   4
  -4 -16   0 883.952 92.8726   2
  -4  16   0 963.743 113.167   4
  -4 -16  -1 238.763 52.6818   2
  -4  16  -1 246.693 58.7883   4
  -4 -16  -2 5735.65 239.751   2
  -4  16  -2 5585.11 262.158   4
  -4 -16  -3 537.670 77.6412   2
  -4  16  -3 579.393 91.2949   4
   4  17  -3 5447.06 256.929   5
  -4  17   3 5046.49 231.505   4
  -4 -17   3 5383.81 248.100   3
  -4 -17   2 803.650 91.8920   2
  -4  17   2 812.252 98.4208   4
  -4 -17   1 1693.50 132.180   2
  -4  17   1 1489.02 137.650   4
  -4 -17   0 4885.65 219.547   2
  -4  17   0 4367.18 231.301   4
  -4 -17  -1 9.63207 35.0272   2
  -4  17  -1-62.4369 57.1054   4
  -4 -17  -2 721.563 96.5599   2
  -4  17  -2 456.941 90.8241   4
  -4  18   3 62.7018 55.8664   4
  -4  18   2 9923.26 342.132   4
  -4  18   1 359.281 76.5759   4
  -4  18   0 245.340 67.8244   4
   5   0  -9 1059.69 113.715   5
   5   0  -9 844.828 102.133   1
   5   0  -8 8.28001 34.0364   5
  -5   0   8 31.6744 31.1718   3
   5   0  -8 77.8042 50.1514   1
   5   0  -7 540.621 76.3832   5
  -5   0   7 494.425 63.1414   3
   5   0  -7 456.757 75.5185   1
   5   0  -6 14.4639 23.4212   5
  -5   0   6 37.4134 22.5302   3
   5   0  -6 89.2786 41.4491   1
   5   0  -5 447.813 53.9384   5
  -5   0   5 331.801 44.2286   3
  -5   0   4 15.4703 22.4270   3
   5   0  -4 60.8449 26.9818   5
  -5   0   3 135.067 27.2015   3
   5   0  -3 123.268 25.9551   5
  -5   0   3 119.069 20.4942   2
   5   0  -2 3.91739 8.97730   5
  -5   0   2 13.1138 11.9695   2
  -5   0   1 3824.21 103.908   2
   5   0  -1 4000.90 153.119   1
   5   0   0 13.6311 22.4741   1
  -5   0   0 28.3567 19.6268   2
  -5   0  -1 3234.10 117.010   2
   5   0   1 3409.10 131.172   1
  -5   0  -1 3139.60 128.195   4
   5   0   2 1.36745 9.43203   5
   5   0   2-0.81548 18.2295   1
  -5   0  -2 1.54716 24.8216   4
  -5   0  -2 41.3422 25.6278   2
  -5   0  -3 3127.05 128.861   4
   5   0   3 3387.26 121.496   1
  -5   0  -3 3183.48 139.207   2
  -5   0  -4 3.50428 25.4279   2
  -5   0  -4-15.1693 23.4131   4
  -5   0  -5 6211.65 178.824   4
  -5   0  -5 6603.12 231.931   2
  -5   0  -6 31.6264 34.1857   2
  -5   0  -7 11668.4 348.760   2
  -5   0  -8 78.3100 47.9129   2
   5  -1  -9 120.695 47.4309   1
   5   1  -9 212.418 65.3098   1
   5   1  -9 206.355 63.7170   5
  -5  -1   8 2303.76 131.467   3
   5   1  -8 2510.89 158.262   5
   5  -1  -8 2611.81 156.533   5
   5  -1  -8 2637.09 170.415   1
   5   1  -8 2422.13 162.477   1
  -5   1   7 28985.4 401.005   3
  -5  -1   7 28634.1 427.570   3
   5   1  -7 27654.1 478.374   5
   5  -1  -7 28878.6 472.070   5
   5  -1  -7 28698.0 529.312   1
  -5   1   6 4555.85 151.311   3
  -5  -1   6 4070.06 153.061   3
   5   1  -6 3897.48 166.078   5
   5  -1  -6 4225.74 164.235   5
   5  -1  -6 4126.92 195.155   1
  -5   1   5 2220.86 98.3723   3
  -5  -1   5 2484.88 114.312   3
   5   1  -5 2421.68 119.764   5
   5  -1  -5 2278.72 108.866   5
   5  -1  -5 2346.57 141.963   1
   5   1  -4 10716.6 220.304   5
   5  -1  -4 10432.2 200.763   5
   5  -1  -4 10497.1 284.996   1
  -5   1   4 10745.5 200.707   3
  -5  -1   4 10590.1 219.751   3
   5   1  -3 10969.8 193.625   5
   5  -1  -3 11229.7 172.280   5
  -5   1   3 11404.9 150.020   2
  -5  -1   3 11294.2 180.069   2
   5  -1  -3 10935.4 277.316   1
  -5  -1   3 11101.3 218.526   3
  -5   1   2 21.8799 12.9144   2
   5   1  -2 18.0811 14.5510   5
   5  -1  -2 4.57323 29.5077   1
  -5  -1   2 26.8793 17.1576   2
  -5   1   1 14.6637 13.6928   2
  -5  -1   1 64.1440 19.2095   2
   5   1  -1 20.1353 10.4321   5
   5  -1  -1 16.2587 26.5381   1
  -5   1   0 13.4432 15.5652   2
  -5  -1   0 9.15164 17.3061   2
   5   1   0 19.1847 7.94293   5
   5  -1   0 14.6395 22.7152   1
  -5   1   0-14.1940 23.2023   4
   5  -1   1 341.683 46.2404   1
  -5  -1  -1 333.958 42.1769   2
   5   1   1 377.366 21.5186   5
   5   1   1 309.821 42.7504   1
  -5   1  -1 303.111 44.3545   4
  -5  -1  -1 310.736 43.0630   4
  -5   1  -1 318.616 40.1745   2
  -5  -1  -2 106.753 29.8163   2
   5   1   2 128.180 19.7010   5
   5  -1   2 128.045 31.2067   1
   5   1   2 109.771 29.7627   1
  -5   1  -2 128.346 29.9548   4
  -5   1  -2 90.3724 28.4675   2
  -5  -1  -2 112.558 29.8766   4
   5   1   3 7239.17 171.577   1
  -5   1  -3 6449.78 187.689   4
  -5  -1  -3 6848.40 185.300   4
  -5   1  -3 7112.52 205.889   2
  -5  -1  -3 7027.12 208.375   2
  -5   1  -4 7224.61 200.414   4
  -5  -1  -4 7724.91 195.554   4
  -5   1  -4 7986.83 235.123   2
  -5  -1  -4 7843.63 236.154   2
  -5   1  -5 4129.95 152.331   4
  -5  -1  -5 4048.42 139.021   4
  -5   1  -5 4111.84 181.925   2
  -5  -1  -5 4120.90 184.398   2
  -5   1  -6 78.6950 41.1989   2
  -5  -1  -6 130.459 49.8806   2
  -5   1  -6 88.6242 31.4730   4
  -5   1  -7 11211.3 341.706   2
  -5  -1  -7 11325.0 344.958   2
  -5   1  -8 5903.86 264.667   2
  -5  -1  -8 5224.39 248.472   2
  -5  -2   9 8021.48 266.131   3
   5  -2  -9 8287.46 300.103   1
   5   2  -9 8555.28 311.564   5
   5   2  -9 8388.75 311.592   1
  -5  -2   8 4798.40 194.080   3
   5   2  -8 5420.47 233.920   5
   5  -2  -8 5395.20 238.139   1
   5   2  -7 90.7103 43.3661   5
  -5  -2   7 57.5510 26.2373   3
   5  -2  -7 290.651 63.6293   1
  -5   2   6 5882.92 160.416   3
  -5  -2   6 6101.78 192.668   3
   5   2  -6 5638.26 202.451   5
   5  -2  -6 5739.62 230.944   1
  -5   2   5 15914.2 245.953   3
  -5  -2   5 15629.2 292.771   3
   5   2  -5 15215.5 302.802   5
   5  -2  -5 15351.9 362.001   1
   5   2  -4 3537.23 131.446   5
  -5   2   4 3579.94 77.0393   2
   5  -2  -4 3735.43 172.604   1
  -5   2   4 3538.09 109.686   3
  -5  -2   4 3454.96 133.301   3
   5  -2  -3 729.532 76.8821   1
   5   2  -3 599.103 49.6798   5
   5  -2  -3 573.306 42.2438   3
  -5   2   3 577.189 30.5860   2
  -5  -2   3 645.798 48.5032   2
  -5   2   3 603.689 33.0572   2
  -5  -2   3 538.777 53.5837   3
  -5   2   2 6974.78 108.309   2
   5   2  -2 6733.18 140.203   5
  -5  -2   2 6823.08 148.557   2
   5  -2  -2 6690.07 138.578   3
   5  -2  -2 6866.54 212.707   1
  -5   2   1 287.128 28.5964   2
   5   2  -1 278.993 26.6743   5
  -5  -2   1 329.569 36.0804   2
   5  -2  -1 254.724 31.0950   3
   5  -2  -1 293.801 45.0102   1
  -5   2   1 250.237 42.8253   4
   5  -2   0 67.1302 34.2422   1
  -5  -2   0 20.1484 18.6876   2
   5   2   0 37.1445 12.9230   5
  -5   2   0 39.3293 27.2988   4
  -5   2   0 66.7163 22.0267   2
   5  -2   1 2210.51 109.890   1
  -5  -2  -1 2293.29 105.096   2
   5   2   1 2315.86 63.5831   5
  -5   2  -1 2163.33 111.911   4
  -5   2  -1 2172.37 92.0943   2
  -5  -2  -2 30.1599 23.2474   2
   5  -2   2 25.5075 27.1249   1
   5   2   2 73.5929 16.1696   5
  -5   2  -2 46.1656 26.4874   2
  -5   2  -2 17.9339 26.9048   4
   5   2   2 29.3152 18.4631   1
  -5  -2  -2 15.0054 19.8231   4
   5   2   3 296.929 37.7603   1
  -5   2  -3 397.396 51.1510   2
  -5   2  -3 367.995 50.1391   4
  -5  -2  -3 333.666 44.7527   4
  -5  -2  -3 264.254 45.0804   2
  -5   2  -4 3668.03 147.076   4
  -5  -2  -4 3736.95 131.685   4
   5   2   4 4000.09 114.482   1
  -5   2  -4 3959.60 164.564   2
  -5  -2  -4 3779.17 167.107   2
  -5   2  -5 12339.3 271.010   4
  -5  -2  -5 12666.1 238.777   4
  -5   2  -5 12474.9 313.447   2
  -5  -2  -5 12045.2 316.769   2
  -5   2  -6 5706.62 186.254   4
  -5   2  -6 5511.43 224.692   2
  -5  -2  -6 5597.42 231.646   2
  -5   2  -7 574.219 85.5212   2
  -5  -2  -7 581.354 87.2326   2
  -5   2  -8 889.055 106.522   2
  -5  -2  -8 922.781 111.435   2
   5   3  -9 510.026 85.6097   5
  -5  -3   9 418.680 67.8464   3
   5  -3  -9 408.138 76.6373   1
  -5  -3   8 3911.60 182.046   3
   5  -3  -8 3731.22 197.887   1
   5   3  -8 4146.36 209.606   5
  -5   3   8 3415.56 174.446   4
   5  -3  -7 176.026 48.4926   1
   5   3  -7 194.389 52.0605   5
  -5  -3   7 183.420 42.9855   3
  -5   3   7 142.385 45.0409   4
  -5   3   6 3712.10 121.070   3
  -5  -3   6 3927.31 161.032   3
   5   3  -6 3803.51 171.234   5
   5  -3  -6 3982.60 193.930   1
  -5  -3   5 1251.64 91.4506   3
   5   3  -5 1319.53 94.6768   5
   5  -3  -5 1252.30 108.976   1
  -5   3   5 1244.67 66.1305   3
   5   3  -4 9781.47 225.315   5
  -5   3   4 9883.78 92.1777   2
   5  -3  -4 9739.89 277.978   1
  -5  -3   4 10007.9 232.691   3
  -5   3   3 105.537 21.5241   5
   5   3  -3 71.2863 24.7059   5
  -5  -3   3 123.442 35.8629   3
   5  -3  -3 114.555 38.4584   1
   5  -3  -3 104.266 19.2169   3
  -5   3   3 64.8474 25.8427   4
   5   3  -2 2459.34 91.9175   5
   5  -3  -2 2384.46 75.6767   3
   5  -3  -2 2686.17 135.978   1
  -5  -3   2 2428.52 94.1718   2
  -5   3   2 2506.05 124.611   4
  -5   3   2 2318.10 45.8252   2
   5  -3  -1 3272.45 94.1989   3
   5   3  -1 3347.33 96.7173   5
   5  -3  -1 3483.72 149.770   1
  -5  -3   1 3499.08 115.568   2
  -5   3   1 3515.21 146.385   4
  -5   3   1 3218.67 76.6625   2
  -5  -3   0 120.226 28.3572   2
   5  -3   0 96.5415 30.0640   1
  -5   3   0 166.008 25.2365   2
  -5   3   0 176.032 42.7132   4
  -5  -3  -1 294.948 42.5860   2
   5  -3   1 194.406 36.7314   1
  -5   3  -1 235.323 34.1955   2
  -5   3  -1 286.979 52.4664   4
  -5  -3  -2 2803.79 126.097   2
   5   3   2 2610.94 86.7781   5
  -5   3  -2 2661.29 127.563   4
  -5   3  -2 2789.60 114.409   2
   5   3   3 3022.27 109.316   1
  -5   3  -3 3005.17 137.178   4
  -5  -3  -3 2901.82 116.571   4
  -5   3  -3 2856.96 128.162   2
  -5  -3  -3 2933.79 139.940   2
  -5  -3  -4 726.278 58.7553   4
  -5   3  -4 698.141 73.8278   2
  -5   3  -4 595.029 65.4466   4
   5   3   4 788.920 51.1361   1
  -5  -3  -4 705.959 78.2794   2
  -5   3  -5 3218.19 143.711   4
  -5  -3  -5 3209.81 116.176   4
  -5   3  -5 3207.03 158.439   2
  -5  -3  -5 3356.65 170.216   2
  -5   3  -6 687.590 83.3864   2
  -5   3  -6 752.144 71.4883   4
  -5  -3  -6 588.318 77.5438   2
  -5   3  -7 326.905 63.7926   2
  -5  -3  -7 551.916 87.1814   2
  -5   3  -8 1159.06 120.556   2
  -5  -3  -8 1152.54 122.477   2
  -5  -4   9 13275.8 359.568   3
   5   4  -9 14006.0 407.190   5
   5  -4  -9 13633.8 385.094   1
   5  -4  -8 1856.15 142.109   1
  -5  -4   8 1849.41 129.567   3
   5   4  -8 1923.83 145.301   5
   5   4  -7 92.1403 42.1689   5
  -5  -4   7 79.2944 26.4144   3
   5  -4  -7 132.788 47.8111   1
  -5   4   7 44.6402 29.9900   4
  -5  -4   6 2038.09 120.511   3
   5  -4  -6 1935.29 138.308   1
   5   4  -6 2008.49 127.933   5
  -5   4   6 2197.44 130.906   4
  -5  -4   5 22479.5 378.128   3
   5   4  -5 22029.9 380.922   5
   5  -4  -5 21998.8 439.520   1
  -5   4   5 22090.1 401.978   4
  -5   4   5 22404.0 246.398   3
   5   4  -4 17.0979 25.4005   5
  -5  -4   4 21.5211 21.8494   3
   5  -4  -4-39.4998 38.4263   1
  -5   4   4 28.5294 27.0621   4
   5   4  -3 1680.90 90.2962   5
   5  -4  -3 1740.37 117.259   1
   5  -4  -3 1864.85 58.2088   3
  -5   4   3 1956.23 117.341   4
  -5  -4   3 1718.61 98.0477   3
   5   4  -2 8.42681 19.4770   5
   5  -4  -2 54.7055 14.5440   3
  -5  -4   2 29.1148 19.2938   2
   5  -4  -2 34.4137 33.0583   1
  -5   4   2 87.4113 40.0964   4
   5  -4  -1 5080.69 183.365   1
   5  -4  -1 4691.02 103.619   3
   5   4  -1 4781.55 126.092   5
  -5  -4   1 4895.89 142.601   2
  -5   4   1 4759.83 69.1930   2
  -5   4   1 5023.42 179.725   4
  -5  -4   0 2582.89 108.266   2
   5  -4   0 2500.21 69.3799   2
  -5   4   0 2633.05 129.481   4
  -5   4   0 2489.83 77.5378   2
   5  -4   0 2399.68 124.693   1
   5  -4   0 2468.11 88.8451   3
  -5  -4  -1 1334.75 84.4045   2
   5  -4   1 1185.97 60.3511   2
  -5   4  -1 1222.50 90.0757   4
   5  -4   1 1192.48 87.2126   1
  -5   4  -1 1295.12 68.4006   2
  -5  -4  -2 1991.06 109.288   2
  -5   4  -2 1967.58 113.971   4
  -5   4  -2 1792.21 91.7388   2
  -5  -4  -3 1946.76 115.807   2
  -5   4  -3 1981.19 115.084   4
  -5  -4  -3 1993.98 96.7498   4
  -5   4  -3 1969.95 104.910   2
   5   4   3 2003.85 89.1251   1
  -5   4  -4 12.5405 22.4104   2
  -5   4  -4 13.2427 20.4756   4
   5   4   4 8.14325 15.7034   1
  -5  -4  -4 1.83011 17.2306   4
  -5  -4  -4 32.9346 36.0704   2
  -5   4  -5 1890.56 116.732   4
  -5   4  -5 1890.07 124.964   2
  -5  -4  -5 1885.20 132.628   2
  -5   4  -6 1451.13 101.248   4
  -5   4  -6 1356.41 112.388   2
  -5  -4  -6 1285.45 116.350   2
  -5   4  -7 8572.33 299.539   2
  -5  -4  -7 8851.27 313.254   2
  -5   4  -8 584.959 86.5826   2
  -5  -5   9 1315.17 117.993   3
   5   5  -9 1127.61 121.927   5
  -5  -5   8 1965.76 136.656   3
   5   5  -8 2239.18 158.148   5
   5  -5  -8 2101.18 155.051   1
  -5  -5   7 2824.38 154.598   3
   5   5  -7 2837.15 165.859   5
  -5   5   7 2680.24 149.196   4
   5  -5  -7 2548.40 163.368   1
   5  -5  -6 2631.43 161.526   1
  -5  -5   6 2785.29 144.642   3
   5   5  -6 2670.72 148.936   5
  -5   5   6 2741.63 148.073   4
  -5  -5   5 1626.39 105.787   3
   5  -5  -5 1652.55 125.656   1
   5   5  -5 1513.38 105.013   5
  -5   5   5 1606.98 112.418   4
  -5  -5   4 7642.12 219.008   3
   5  -5  -4 7640.18 255.841   1
   5   5  -4 7671.87 212.527   5
  -5   5   4 7781.09 237.404   4
   5  -5  -3 11020.2 295.251   1
   5   5  -3 12011.2 244.579   5
  -5   5   3 11424.1 282.698   4
  -5  -5   3 11441.8 260.920   3
   5   5  -2 1580.89 83.9241   5
  -5   5   2 1596.18 47.3309   5
   5  -5  -2 1550.22 43.6339   3
  -5  -5   2 1639.81 86.3364   2
  -5   5   2 1482.97 102.685   4
   5  -5  -2 1677.91 113.626   1
   5  -5  -1 5192.25 98.0770   3
  -5  -5   1 5191.36 152.062   2
  -5   5   1 5386.45 189.841   4
   5  -5  -1 5008.33 187.614   1
  -5  -5   0 3259.30 125.583   2
   5  -5   0 3315.02 74.0159   2
  -5   5   0 3274.09 147.853   4
   5  -5   0 3394.70 150.984   1
   5  -5   0 3370.42 97.1935   3
  -5  -5  -1 7747.39 200.513   2
   5  -5   1 7429.10 147.110   2
  -5   5  -1 7827.33 227.425   4
  -5   5  -1 7586.94 157.553   2
  -5  -5  -2 184.220 35.7759   2
  -5   5  -2 121.552 28.6347   2
  -5   5  -2 197.734 42.7675   4
  -5  -5  -3 6500.86 210.798   2
  -5   5  -3 6475.15 211.696   4
  -5   5  -3 6766.28 193.501   2
  -5  -5  -3 6667.44 172.140   4
  -5  -5  -4 223.424 43.9556   2
  -5   5  -4 191.039 41.5803   2
  -5   5  -4 284.242 55.2733   4
  -5  -5  -4 293.775 37.8016   4
  -5   5  -5 1112.10 94.2770   4
  -5   5  -5 1107.77 96.9390   2
  -5  -5  -5 1127.22 103.772   2
  -5   5  -6 2507.61 138.630   4
  -5   5  -6 2335.95 148.168   2
  -5  -5  -6 2565.47 162.929   2
  -5   5  -7 2772.64 173.566   2
  -5  -5  -7 3141.65 189.052   2
   5   6  -9 332.513 79.9228   5
  -5  -6   9 328.445 71.3036   3
  -5  -6   8 5449.80 229.897   3
   5   6  -8 5834.81 255.690   5
   5  -6  -8 5589.16 246.820   1
   5  -6  -7 324.557 60.2360   1
   5   6  -7 275.340 57.1776   5
  -5  -6   7 408.702 66.8312   3
  -5   6   7 363.446 59.4032   4
  -5  -6   6 5184.29 202.284   3
   5   6  -6 5078.28 206.432   5
  -5   6   6 4957.96 200.636   4
   5  -6  -6 4536.76 213.251   1
   5  -6  -5 176.757 57.4940   1
   5   6  -5 47.0035 30.2505   5
  -5  -6   5 84.9926 40.7592   3
  -5   6   5 137.673 38.9025   4
   5  -6  -4 129.454 49.2626   1
   5   6  -4 98.9358 33.3451   5
  -5  -6   4 123.773 38.0865   3
  -5   6   4 166.216 48.6921   4
   5   6  -3 5879.97 179.396   5
  -5   6   3 6176.51 213.504   4
   5  -6  -3 5683.79 217.287   1
  -5  -6   3 5853.48 192.613   3
   5   6  -2 1700.13 93.4459   5
  -5  -6   2 1873.93 96.2169   2
  -5   6   2 1767.75 114.488   4
   5  -6  -2 1833.18 121.189   1
   5  -6  -1 1829.41 48.4406   3
  -5  -6   1 1829.05 94.4773   2
  -5   6   1 1956.09 118.644   4
   5  -6  -1 1911.99 121.686   1
  -5  -6   0 8053.92 202.656   2
   5  -6   0 7814.35 103.953   2
  -5   6   0 8168.14 238.259   4
   5  -6   0 7654.37 136.884   3
  -5  -6  -1 3918.37 148.686   2
   5  -6   1 3972.95 108.295   2
  -5   6  -1 4104.64 171.056   4
  -5  -6  -2 1397.39 96.6514   2
  -5   6  -2 1287.91 99.1216   4
  -5   6  -2 1277.77 75.8190   2
  -5  -6  -3 4181.08 174.476   2
  -5   6  -3 4049.51 174.755   4
  -5   6  -3 4215.74 155.154   2
  -5  -6  -4 2302.20 139.896   2
  -5   6  -4 2631.04 141.334   4
  -5   6  -4 2409.90 129.020   2
  -5  -6  -4 2562.00 102.649   4
  -5   6  -5 414.068 62.3179   2
  -5   6  -5 448.938 65.9518   4
  -5  -6  -5 598.779 80.4006   2
  -5   6  -6 3726.26 174.687   4
  -5  -6  -6 3513.49 192.751   2
  -5  -6  -7 258.282 62.3383   2
   5   7  -8 745.718 98.8015   5
  -5  -7   8 741.158 93.4851   3
  -5  -7   7 13217.1 347.264   3
   5   7  -7 13485.4 365.712   5
  -5   7   7 14691.8 349.741   4
   5  -7  -6 65.4956 44.1268   1
   5   7  -6 50.1487 36.1676   5
  -5  -7   6 38.1671 31.8654   3
  -5   7   6 40.6822 33.9120   4
   5  -7  -5-10.4354 31.2978   1
   5   7  -5 42.0623 32.7668   5
  -5  -7   5 34.8916 32.4176   3
  -5   7   5 28.6761 33.3274   4
   5   7  -4 1371.14 98.9450   5
  -5   7   4 1304.29 104.895   4
   5  -7  -4 1299.11 114.217   1
  -5  -7   4 1243.03 98.1267   3
   5   7  -3 18408.7 330.333   5
  -5   7   3 18374.5 374.180   4
   5  -7  -3 18278.1 396.931   1
  -5  -7   3 18733.8 354.955   3
   5   7  -2 896.408 72.9254   5
  -5  -7   2 819.465 69.1637   2
  -5   7   2 778.054 82.1256   4
  -5  -7   1 354.350 46.9901   2
  -5   7   1 260.667 52.5352   4
  -5  -7   0 628.108 60.9393   2
  -5   7   0 709.415 76.1613   4
  -5  -7  -1 3085.70 135.895   2
  -5   7  -1 3273.11 158.984   4
  -5  -7  -2 980.950 83.9089   2
  -5   7  -2 1066.69 93.0353   4
  -5  -7  -3 1175.75 99.5034   2
  -5   7  -3 1180.39 97.6402   4
  -5  -7  -4 8.15146 34.4370   2
  -5   7  -4 46.0689 33.9604   4
  -5  -7  -4 56.0572 17.2765   4
  -5   7  -5 4030.58 185.689   4
  -5  -7  -5 4204.57 200.822   2
  -5   7  -6 3014.31 162.445   4
  -5  -7  -6 3065.62 182.191   2
  -5   7  -7 5564.67 222.448   4
  -5  -7  -7 5252.26 250.410   2
   5   8  -8 447.561 78.9747   5
  -5  -8   8 452.756 74.8729   3
   5   8  -7-21.1650 45.6202   5
  -5  -8   7 60.4341 39.5383   3
   5   8  -6 265.351 55.1221   5
  -5  -8   6 253.065 50.7407   3
  -5   8   6 291.521 55.1314   4
   5   8  -5 11.8143 36.8372   5
  -5  -8   5 3.56865 30.6749   3
  -5   8   5 52.2106 40.5175   4
  -5  -8   4 24.8632 30.1228   3
  -5   8   4-10.7249 29.3800   4
   5   8  -3 12366.4 281.340   5
  -5   8   3 12061.2 312.097   4
  -5  -8   3 11893.5 292.824   3
   5   8  -2 359.144 47.8855   5
  -5  -8   2 431.003 53.7586   2
  -5   8   2 355.947 61.4373   4
  -5  -8   1 15136.5 292.372   2
  -5   8   1 15374.9 347.802   4
  -5  -8   0 294.629 47.5128   2
   5  -8   0 233.333 20.2270   3
  -5   8   0 202.027 47.1324   4
  -5  -8  -1 14875.4 306.803   2
  -5   8  -1 14845.2 344.055   4
  -5  -8  -2 990.764 86.2367   2
  -5   8  -2 964.103 90.9315   4
  -5  -8  -3 4994.33 198.586   2
  -5   8  -3 4776.44 198.634   4
  -5  -8  -4 1637.83 122.198   2
  -5   8  -4 1646.07 124.236   4
  -5   8  -5 2538.16 150.609   4
  -5  -8  -5 2645.07 164.197   2
   5  -8   6 2496.92 146.986   3
  -5   8  -6 2766.85 161.880   4
  -5  -8  -6 2626.64 172.021   2
   5  -8   7 66.0754 30.0513   3
  -5   8  -7 146.556 43.8811   4
  -5  -8  -7 140.543 55.8586   2
   5   9  -8 20.9044 49.0696   5
   5   9  -7 241.496 66.4242   5
  -5  -9   7 241.124 56.1709   3
   5   9  -6 156.300 48.6527   5
  -5  -9   6 238.500 56.9146   3
  -5   9   6 156.604 43.8339   4
   5   9  -5-18.1239 32.9332   5
  -5  -9   5 13.4291 36.7786   3
  -5   9   5 47.0726 30.8635   4
   5   9  -4 1137.77 97.4901   5
  -5   9   4 1245.67 106.356   4
  -5  -9   4 1249.06 103.543   3
   5   9  -3 2098.35 123.668   5
  -5   9   3 2461.89 145.610   4
  -5  -9   3 2317.90 137.089   3
   5   9  -2 1145.92 88.6887   5
  -5  -9   2 1014.15 80.8777   2
  -5   9   2 1054.45 97.0513   4
  -5  -9   1 1384.76 95.0179   2
  -5   9   1 1480.47 113.492   4
  -5  -9   0 506.433 59.3319   2
  -5   9   0 532.514 70.3098   4
  -5  -9  -1 4306.82 171.124   2
   5  -9   1 4256.79 107.493   3
  -5   9  -1 3817.97 179.561   4
  -5  -9  -2 2244.31 129.431   2
   5  -9   2 2409.38 97.9220   3
  -5   9  -2 2295.75 145.422   4
  -5  -9  -3 48.8442 33.9132   2
   5  -9   3 97.4820 29.3296   3
  -5   9  -3 58.8812 31.6751   4
  -5  -9  -4 72.8534 30.7356   2
  -5   9  -4 59.5591 34.5761   4
  -5  -9  -5 136.612 47.5396   2
   5  -9   5 68.0143 31.0225   3
  -5   9  -5 62.6946 40.3427   4
   5  -9   6 2993.15 182.059   3
  -5   9  -6 1932.99 140.451   4
  -5  -9  -6 1893.86 151.815   2
   5  -9   7 307.542 60.4107   3
  -5   9  -7 184.978 56.0226   4
   5  10  -7 41.7098 42.3202   5
  -5 -10   7-9.10910 40.5766   3
  -5 -10   6 5606.01 236.371   3
   5  10  -6 5574.01 236.628   5
  -5  10   6 5900.75 225.381   4
  -5 -10   5 10399.5 309.605   3
   5  10  -5 10215.1 304.972   5
  -5  10   5 10759.2 304.622   4
   5  10  -4 2376.60 144.532   5
  -5  10   4 2290.15 142.525   4
  -5 -10   4 2235.15 141.282   3
   5  10  -3 333.959 56.5083   5
  -5 -10   3 438.529 67.6855   3
  -5  10   3 428.730 66.4758   4
  -5 -10   2 4741.00 177.190   2
  -5  10   2 4573.58 201.360   4
  -5 -10   1 5550.05 191.771   2
  -5  10   1 5744.56 226.193   4
  -5 -10   0 9622.43 254.811   2
  -5  10   0 9509.98 289.804   4
  -5 -10  -1 98.8107 38.6483   2
  -5  10  -1 133.116 39.8602   4
  -5 -10  -2 107.751 41.2334   2
   5 -10   2 28.3950 15.8664   3
  -5  10  -2 72.9934 41.1784   4
  -5 -10  -3 21.7841 38.2714   2
   5 -10   3 26.0379 18.7752   3
  -5  10  -3 25.8708 30.6071   4
  -5 -10  -4 3400.58 180.973   2
   5 -10   4 3530.50 148.814   3
  -5  10  -4 3366.43 183.403   4
  -5 -10  -5 2122.87 155.654   2
   5 -10   5 2337.40 134.075   3
  -5  10  -5 2345.33 156.783   4
   5 -10   6 766.585 85.8676   3
  -5  10  -6 776.373 89.8593   4
  -5 -10  -6 765.652 106.500   2
   5 -10   7 3022.87 176.815   3
  -5  10  -7 3260.30 191.044   4
   5  11  -7 285.536 67.4169   5
  -5 -11   7 255.930 62.5003   3
   5  11  -6 38.1596 42.8070   5
  -5 -11   6 31.4853 33.0030   3
   5  11  -5 3009.07 171.174   5
  -5  11   5 3197.23 171.325   4
  -5 -11   5 2887.20 169.608   3
   5  11  -4 1751.52 127.911   5
  -5  11   4 1834.12 130.279   4
  -5 -11   4 1835.70 132.485   3
   5  11  -3 1139.95 98.9782   5
  -5  11   3 1008.58 97.9508   4
  -5 -11   3 1099.55 100.311   3
  -5 -11   2-7.40003 24.8732   2
  -5  11   2 69.7958 39.3498   4
  -5 -11   1 20961.7 383.399   2
  -5  11   1 21190.8 443.372   4
  -5 -11   0-10.1170 26.0178   2
  -5  11   0-11.0463 33.2498   4
  -5 -11  -1 4950.97 194.144   2
  -5  11  -1 5320.60 227.575   4
  -5 -11  -2 254.666 51.3502   2
  -5  11  -2 149.318 43.0922   4
  -5 -11  -3 13132.7 342.725   2
  -5  11  -3 12941.4 363.758   4
  -5 -11  -4 2893.98 173.510   2
   5 -11   4 2627.80 131.480   3
  -5  11  -4 2708.58 169.459   4
  -5 -11  -5 898.145 106.904   2
   5 -11   5 927.946 86.6201   3
  -5  11  -5 953.534 104.995   4
   5 -11   6 998.846 99.4436   3
  -5  11  -6 872.978 106.351   4
   5  12  -6 59.0946 49.6526   5
  -5 -12   6 137.566 46.9435   3
   5  12  -5 5764.80 244.152   5
  -5  12   5 5726.31 230.367   4
  -5 -12   5 5515.16 240.404   3
   5  12  -4 7.55156 34.6731   5
  -5 -12   4 17.9848 30.4504   3
  -5  12   4 67.8559 43.2934   4
   5  12  -3 2792.88 159.184   5
  -5  12   3 2811.61 165.145   4
  -5 -12   3 2636.07 144.831   2
  -5 -12   3 2855.61 165.782   3
  -5 -12   2 153.817 41.9973   2
  -5  12   2 200.280 54.9925   4
  -5 -12   1 3332.26 160.130   2
  -5  12   1 3342.57 182.570   4
  -5 -12   0 205.628 45.4482   2
  -5  12   0 182.885 48.4119   4
  -5 -12  -1 212.230 52.5110   2
  -5  12  -1 135.304 46.4880   4
  -5 -12  -2 2461.00 148.296   2
  -5  12  -2 2315.85 161.273   4
  -5 -12  -3 50.3673 31.8867   2
  -5  12  -3 76.0098 34.9258   4
  -5 -12  -4 1723.23 138.057   2
  -5  12  -4 1461.28 130.558   4
  -5 -12  -5 576.419 88.6570   2
  -5  12  -5 727.522 98.0305   4
  -5  12  -6 191.270 56.7599   4
   5  13  -6-11.7068 38.2795   5
   5  13  -5 185.708 58.6924   5
  -5 -13   5 145.605 48.5597   3
  -5  13   5 156.198 51.2909   4
   5  13  -4 3258.54 183.629   5
  -5  13   4 3632.51 190.980   4
  -5 -13   4 3329.32 185.129   3
   5  13  -3 7202.92 263.435   5
  -5  13   3 6847.53 261.406   4
  -5 -13   3 7323.88 247.558   2
  -5 -13   3 7175.72 265.925   3
  -5 -13   2 12243.1 315.773   2
  -5  13   2 12486.0 357.407   4
  -5 -13   1 455.095 68.4566   2
  -5  13   1 524.276 75.5722   4
  -5 -13   0 379.612 65.3205   2
  -5  13   0 369.223 68.8119   4
  -5 -13  -1 1396.66 112.961   2
  -5  13  -1 1312.40 126.552   4
  -5 -13  -2 11474.5 322.626   2
  -5  13  -2 12040.3 367.049   4
  -5 -13  -3 6385.58 253.367   2
  -5  13  -3 6468.18 271.608   4
  -5 -13  -4 146.614 59.8346   2
  -5  13  -4 288.392 68.8368   4
  -5  13  -5 226.560 62.6813   4
   5  14  -5 2292.86 165.479   5
   5  14  -4 689.703 89.3503   5
  -5 -14   4 780.077 100.356   3
  -5  14   4 725.918 92.7012   4
   5  14  -3 3284.45 184.679   5
  -5  14   3 3312.31 189.638   4
  -5 -14   3 3387.25 175.464   2
  -5 -14   2 82.5590 38.5059   2
  -5  14   2 35.5401 32.1261   4
  -5 -14   1 1935.89 131.177   2
  -5  14   1 1858.75 146.264   4
  -5 -14   0 156.721 57.3233   2
  -5  14   0 253.516 67.3157   4
  -5 -14  -1 14016.0 358.322   2
  -5  14  -1 14176.9 404.403   4
  -5 -14  -2 502.955 74.2981   2
  -5  14  -2 471.108 83.8907   4
  -5 -14  -3 2396.59 158.916   2
  -5  14  -3 2718.59 184.057   4
  -5 -14  -4 1316.04 127.637   2
  -5  14  -4 1602.07 145.784   4
   5  15  -4 4.23804 50.3660   5
  -5 -15   4 14.1310 33.1465   2
  -5  15   4 45.2691 41.7951   4
   5  15  -3 1504.26 131.953   5
  -5 -15   3 1456.25 120.448   2
  -5  15   3 1254.44 122.676   4
  -5 -15   2 557.913 78.6803   2
  -5  15   2 500.972 87.1792   4
  -5 -15   1 3410.38 180.854   2
  -5  15   1 4071.40 220.458   4
  -5 -15   0 355.943 72.0596   2
  -5  15   0 341.933 75.6408   4
  -5 -15  -1 1541.61 124.386   2
  -5  15  -1 1469.79 136.797   4
  -5 -15  -2 47.2530 38.4541   2
  -5  15  -2-4.10236 47.5770   4
  -5 -15  -3 95.9850 46.8048   2
  -5  15  -3 114.435 56.3146   4
  -5  16   4 723.847 89.6659   4
   5  16  -3 1044.69 115.631   5
  -5  16   3 1126.71 119.209   4
  -5 -16   2 1648.26 131.012   2
  -5  16   2 1628.56 142.176   4
  -5 -16   1 657.311 87.3553   2
  -5  16   1 487.305 78.8942   4
  -5 -16   0 5234.51 230.146   2
  -5  16   0 5110.67 254.864   4
  -5 -16  -1 7984.73 290.487   2
  -5  16  -1 7691.24 314.667   4
  -5  17   3 2465.22 172.130   4
  -5  17   2 3579.75 211.763   4
   6   0  -9-27.9674 48.2193   1
   6   0  -8 54.5244 46.3402   1
   6   0  -8-13.4759 33.8117   5
   6   0  -7 2.10940 26.2349   5
   6   0  -7 16.8218 43.8115   1
   6   0  -6 10108.6 257.073   5
   6   0  -6 10023.2 333.418   1
  -6   0   6 9992.99 240.842   3
  -6   0   5 27.3620 25.9757   3
   6   0  -5 5.69814 18.2200   5
   6   0  -5 19.9138 36.6139   1
   6   0  -4 2068.67 90.7151   5
  -6   0   4 2051.81 77.7978   2
   6   0  -4 1928.89 136.548   1
  -6   0   3 23.1344 16.4114   2
   6   0  -3-5.68919 10.3134   5
   6   0  -3-21.0547 32.9202   1
  -6   0   2 51354.0 399.713   2
   6   0  -2 51513.7 633.768   1
  -6   0   1-2.14669 17.7364   2
   6   0  -1 48.7488 28.2340   1
  -6   0   0 24400.8 321.901   2
   6   0   0 23921.3 403.513   1
  -6   0   0 24485.5 404.570   4
   6   0   1 2.54325 23.5800   1
  -6   0  -1 30.1280 29.1570   4
  -6   0  -1 38.8612 26.2998   2
   6   0   2 11845.3 262.857   1
  -6   0  -2 11754.0 279.801   4
  -6   0  -2 11869.8 265.643   2
   6   0   3 14.4860 20.4235   1
  -6   0  -3 4.32633 22.1200   4
  -6   0  -3 20.7810 30.4587   2
  -6   0  -4 1286.81 92.5868   4
  -6   0  -4 1318.21 105.934   2
  -6   0  -5 11.9588 28.6430   2
  -6   0  -5 11.8132 28.6620   4
  -6   0  -6 197.446 52.4564   2
  -6   0  -7 3.64796 39.2081   2
   6   1  -9 107.271 58.4383   1
   6  -1  -9 132.625 60.6130   1
   6   1  -9 63.6836 48.5397   5
   6   1  -8 109.436 50.0464   5
   6  -1  -8 89.7201 45.7076   1
   6   1  -8-38.5125 46.5843   1
   6   1  -7-0.47010 34.2924   1
  -6  -1   7 73.0311 31.9069   3
   6   1  -7 104.519 38.5342   5
   6  -1  -7 92.3341 53.6636   1
   6   1  -6 1287.36 98.4797   5
   6  -1  -6 1416.89 96.7222   5
   6  -1  -6 1628.43 137.801   1
  -6  -1   6 1384.12 93.7228   3
   6   1  -5 1725.38 101.572   5
   6  -1  -5 1674.83 90.7486   5
   6  -1  -5 1398.78 121.766   1
  -6   1   5 1567.38 88.1842   3
  -6  -1   5 1759.00 103.060   3
   6   1  -4 2462.72 104.995   5
  -6  -1   4 2608.94 95.0418   2
   6  -1  -4 2650.42 159.391   1
  -6   1   3 254.922 26.9888   2
   6   1  -3 192.555 26.2574   5
  -6  -1   3 227.368 31.2874   2
   6  -1  -3 235.876 52.6315   1
   6  -1  -2 62.7414 42.0510   1
  -6   1   2 28.7167 16.4204   2
  -6  -1   2 89.2844 27.3904   2
   6   1  -2 76.6363 15.4689   5
  -6   1   1 10936.5 189.145   2
  -6  -1   1 11085.7 209.063   2
   6  -1  -1 10869.3 284.016   1
  -6   1   1 10903.1 277.254   4
   6   1  -1 10717.5 277.668   1
  -6  -1   0 8332.99 196.403   2
   6  -1   0 7883.85 234.287   1
  -6   1   0 8195.60 240.593   4
   6   1   0 8268.20 236.424   1
  -6   1   0 8226.36 183.180   2
  -6  -1  -1 50.5785 23.0480   2
   6   1   1 28.2420 24.0263   1
   6  -1   1 53.0046 26.7611   1
  -6   1  -1 66.7814 31.0667   4
  -6   1  -1 99.6287 38.5463   2
  -6  -1  -1 85.2779 31.8945   4
   6   1   2 980.522 76.6604   1
  -6   1  -2 1053.49 86.6505   4
  -6  -1  -2 1346.10 95.1429   4
  -6   1  -2 1001.37 77.2067   2
   6  -1   2 1129.66 85.9430   1
  -6  -1  -2 1023.16 83.1263   2
  -6   1  -3 5199.08 187.986   4
  -6  -1  -3 5023.91 179.690   4
  -6   1  -3 5124.96 185.219   2
  -6  -1  -3 5173.51 190.929   2
   6   1   3 5271.89 166.894   1
  -6   1  -4 2072.54 120.331   4
  -6  -1  -4 2181.18 117.788   4
  -6   1  -4 2138.32 130.081   2
  -6  -1  -4 2177.24 135.039   2
  -6   1  -5 122.149 38.1143   2
  -6  -1  -5 192.281 55.5609   2
  -6   1  -5 160.978 37.0839   4
  -6  -1  -5 200.569 41.1771   4
  -6   1  -6 1092.42 111.720   2
  -6  -1  -6 947.517 103.406   2
  -6   1  -7 1500.90 135.532   2
  -6  -1  -7 1477.42 136.004   2
   6   2  -9 72.0849 50.4333   5
   6  -2  -9 47.8408 53.6306   1
   6  -2  -8 792.859 106.820   1
   6   2  -8 759.748 94.3900   5
   6   2  -8 720.165 100.483   1
  -6   2   8 818.089 98.9118   4
   6  -2  -7 47.4231 47.5750   1
   6   2  -7 35.4501 28.7716   5
  -6  -2   7 92.1837 38.5743   3
   6   2  -6 594.702 73.0187   5
  -6  -2   6 575.683 65.4234   3
   6  -2  -6 764.893 94.8754   1
   6   2  -5 3672.41 150.960   5
   6  -2  -5 3601.53 193.909   1
  -6  -2   5 3600.77 149.855   3
   6   2  -4 2379.45 109.579   5
   6  -2  -4 2432.23 154.422   1
  -6  -2   4 2379.07 97.9938   2
  -6  -2   4 2360.79 120.196   3
   6   2  -3 11911.4 209.495   5
  -6  -2   3 11892.5 212.153   2
   6  -2  -3 11421.2 316.146   1
   6   2  -2 11292.3 173.685   5
  -6  -2   2 11100.9 207.975   2
   6  -2  -2 10741.9 295.255   1
  -6   2   2 10924.7 285.940   4
  -6   2   2 10870.0 154.212   2
   6   2  -1 1147.25 44.9511   5
  -6  -2   1 1146.27 70.8650   2
   6  -2  -1 1132.09 95.4005   1
  -6   2   1 1188.24 94.0574   4
  -6   2   1 1105.14 58.1085   2
  -6  -2   0 237.344 39.4400   2
   6   2   0 199.870 16.9757   5
   6  -2   0 211.715 44.7309   1
  -6   2   0 149.807 38.3365   4
  -6   2   0 194.358 31.4770   2
   6  -2   1 18592.1 353.804   1
  -6  -2  -1 19203.8 325.848   2
   6   2   1 18246.9 156.312   5
  -6   2  -1 18034.3 359.575   4
   6   2   1 18241.1 335.151   1
  -6   2  -1 18489.6 290.942   2
   6   2   2 1872.89 109.978   1
  -6   2  -2 1800.59 114.513   4
  -6  -2  -2 1876.28 111.274   4
   6  -2   2 1804.76 108.245   1
  -6   2  -2 2135.35 116.910   2
  -6  -2  -2 1823.87 111.070   2
   6   2   3 3210.99 128.609   1
  -6   2  -3 3014.26 146.860   4
  -6  -2  -3 3082.82 139.620   4
  -6   2  -3 3186.95 144.559   2
  -6  -2  -3 3343.52 159.266   2
  -6   2  -4 181.218 43.9740   2
  -6   2  -4 186.772 47.4526   4
  -6  -2  -4 207.866 41.0111   4
  -6  -2  -4 81.4521 38.6745   2
  -6   2  -5 442.766 63.8189   2
  -6   2  -5 515.146 64.2540   4
  -6  -2  -5 468.607 71.8727   2
  -6   2  -6 43.3869 36.9097   2
  -6  -2  -6 23.6687 37.2841   2
  -6   2  -7 2104.98 157.302   2
  -6  -2  -7 2261.81 166.090   2
   6   3  -9 1134.96 126.243   5
   6  -3  -9 1200.06 136.998   1
   6   3  -8 185.898 57.2308   5
  -6  -3   8 188.843 49.6458   3
   6  -3  -8 189.946 60.0217   1
  -6   3   8 162.129 58.0609   4
   6   3  -7 17.0058 38.3608   5
  -6  -3   7 24.6955 25.0501   3
   6  -3  -7 66.6797 42.4220   1
  -6   3   7 69.8256 41.3542   4
   6   3  -6 2668.57 145.942   5
   6  -3  -6 2610.02 173.747   1
  -6   3   6 2541.37 156.472   4
  -6  -3   6 2786.12 143.911   3
   6  -3  -5 180.137 49.3228   1
   6   3  -5 83.8550 31.1745   5
  -6  -3   5 184.199 43.2690   3
  -6   3   5 253.629 58.1252   4
   6   3  -4 14677.3 281.174   5
   6  -3  -4 14730.3 377.588   1
  -6  -3   4 15070.7 256.645   2
  -6   3   4 14900.8 350.008   4
  -6  -3   4 15097.9 307.293   3
   6  -3  -3 21.4563 42.6099   1
   6   3  -3-16.7937 17.5409   5
  -6  -3   3 12.2650 17.7282   2
  -6   3   3 16.1853 25.8553   4
   6   3  -2 16637.8 237.630   5
   6  -3  -2 16240.0 367.769   1
  -6  -3   2 16936.1 271.235   2
  -6   3   2 16571.4 357.677   4
   6   3  -1 702.289 43.9311   5
  -6  -3   1 713.367 60.1570   2
   6  -3  -1 744.699 78.1456   1
  -6   3   1 760.368 42.6246   2
  -6   3   1 701.590 73.3619   4
   6  -3   0 23040.8 412.368   1
   6   3   0 23833.1 234.026   5
  -6  -3   0 24421.6 354.744   2
  -6   3   0 23521.2 419.303   4
  -6   3   0 23519.2 278.471   2
  -6  -3  -1 140.984 36.6640   2
   6  -3   1 167.186 40.7308   1
  -6   3  -1 98.2895 25.1552   2
  -6   3  -1 203.465 50.9346   4
  -6  -3  -2 12612.6 289.165   2
  -6   3  -2 12251.6 300.681   4
  -6  -3  -2 12296.6 276.149   4
   6   3   2 12518.3 266.294   1
  -6   3  -2 12635.7 258.309   2
   6   3   3 1423.14 86.1076   1
  -6   3  -3 1369.28 111.781   4
  -6  -3  -3 1272.38 89.4220   4
  -6   3  -3 1397.61 95.7271   2
  -6  -3  -3 1177.74 97.2223   2
  -6   3  -4 2954.34 150.423   4
  -6  -3  -4 3000.24 131.878   4
  -6   3  -4 2928.49 150.155   2
  -6  -3  -4 2803.99 156.685   2
  -6   3  -5 58.7707 35.4158   2
  -6   3  -5 44.0966 23.8478   4
  -6  -3  -5 79.2159 38.1872   2
  -6   3  -6 180.948 52.2537   2
  -6  -3  -6 179.660 55.8803   2
  -6   3  -7 261.236 60.9685   2
  -6  -3  -7 242.305 60.4062   2
  -6  -4   8 5779.03 232.520   3
   6   4  -8 5822.54 253.589   5
   6  -4  -8 5828.92 271.459   1
   6   4  -7 155.722 50.4484   5
  -6  -4   7 258.813 53.2848   3
   6  -4  -7 221.043 62.9740   1
  -6   4   7 321.372 65.5367   4
   6   4  -6-12.6784 34.3342   5
  -6  -4   6 10.8810 26.3613   3
   6  -4  -6 36.6085 42.0115   1
  -6   4   6 37.4963 38.9465   4
   6   4  -5 821.818 79.1593   5
   6  -4  -5 848.100 96.2039   1
  -6   4   5 836.894 91.3257   4
  -6  -4   5 1005.42 90.1428   3
   6  -4  -4 1418.75 123.403   1
   6   4  -4 1384.80 93.1237   5
  -6  -4   4 1354.47 82.3371   2
  -6   4   4 1280.68 108.202   4
  -6  -4   4 1528.54 103.712   3
   6   4  -3 34.4938 23.7307   5
  -6  -4   3 18.2149 21.2940   2
   6  -4  -3 147.043 48.4865   1
  -6   4   3 34.2526 35.0326   4
   6   4  -2 205.760 34.0011   5
  -6  -4   2 31.8140 23.7916   2
   6  -4  -2 76.1117 34.6962   1
  -6   4   2 115.395 42.3031   4
   6   4  -1 2215.26 88.3193   5
  -6  -4   1 2535.93 112.604   2
  -6   4   1 2382.46 138.260   4
   6  -4  -1 2266.80 137.708   1
   6   4   0 2656.43 90.8114   5
  -6  -4   0 2785.89 123.579   2
  -6   4   0 2563.19 142.799   4
  -6   4   0 2572.32 86.3039   2
   6  -4   0 2579.49 142.136   1
   6  -4   1 53.3384 33.5785   1
  -6  -4  -1 18.9322 22.7214   2
  -6   4  -1-3.36462 16.7252   2
  -6   4  -1 106.874 39.7003   4
  -6  -4  -2 8509.14 242.111   2
  -6   4  -2 8878.34 262.015   4
  -6   4  -2 8470.25 208.402   2
  -6  -4  -3-22.0094 28.6854   2
  -6   4  -3 3.28035 21.4866   2
  -6   4  -3 68.5454 31.8255   4
  -6  -4  -3-2.68886 19.2631   4
   6   4   3 20.9486 20.2817   1
  -6   4  -4 3823.63 173.865   4
  -6  -4  -4 3930.85 148.821   4
  -6   4  -4 4150.54 176.441   2
  -6  -4  -4 3850.66 187.310   2
  -6   4  -5 945.217 89.6323   4
  -6   4  -5 712.627 81.7330   2
  -6  -4  -5 702.384 88.9089   2
  -6   4  -6 4417.67 190.320   4
  -6   4  -6 4631.28 213.940   2
  -6  -4  -6 4906.42 232.787   2
  -6   4  -7 209.149 52.9192   2
  -6  -4  -7 180.988 60.5430   2
  -6  -5   8 1339.09 119.668   3
   6   5  -8 1429.28 130.637   5
   6  -5  -8 1216.31 129.978   1
   6  -5  -7 251.088 67.3394   1
   6   5  -7 242.771 57.3069   5
  -6  -5   7 269.701 59.0281   3
  -6   5   7 226.509 57.0825   4
   6   5  -6 771.113 83.5583   5
   6  -5  -6 892.037 107.087   1
  -6   5   6 865.745 96.7211   4
  -6  -5   6 897.701 90.0928   3
   6   5  -5 438.939 60.8488   5
  -6  -5   5 452.153 64.3581   3
   6  -5  -5 594.622 90.3998   1
  -6   5   5 467.175 72.0705   4
   6  -5  -4 9171.56 306.112   1
   6   5  -4 9133.08 239.618   5
  -6  -5   4 9220.12 222.139   2
  -6   5   4 9441.75 288.811   4
  -6  -5   4 8560.83 248.330   3
   6   5  -3 556.688 59.2842   5
   6  -5  -3 523.374 73.5106   1
  -6  -5   3 578.293 55.9044   2
  -6   5   3 625.599 77.3666   4
   6   5  -2 1295.22 79.9016   5
  -6  -5   2 1258.51 82.2316   2
  -6   5   2 1576.96 116.805   4
   6  -5  -2 1146.74 102.914   1
   6   5  -1 17937.8 269.014   5
  -6  -5   1 18530.4 313.810   2
  -6   5   1 18272.3 384.652   4
   6  -5  -1 18675.1 397.518   1
  -6  -5   0 7476.16 207.322   2
  -6   5   0 7611.33 249.164   4
   6  -5   0 7442.27 244.852   1
  -6  -5  -1 3826.00 156.816   2
  -6   5  -1 3739.67 174.805   4
  -6   5  -1 3676.18 118.728   2
  -6  -5  -2 150.049 41.9369   2
  -6   5  -2 175.312 33.9818   2
  -6   5  -2 124.082 41.3192   4
  -6  -5  -3 5472.67 211.126   2
  -6   5  -3 4974.23 201.292   4
  -6   5  -3 5410.01 182.926   2
  -6  -5  -3 5291.90 176.009   4
   6   5   3 5269.04 163.647   1
  -6   5  -4 1002.22 92.7137   4
  -6   5  -4 974.781 84.8980   2
  -6  -5  -4 1025.02 77.4496   4
  -6  -5  -4 1113.23 104.369   2
  -6   5  -5 3670.34 176.397   4
  -6   5  -5 3904.21 184.594   2
  -6  -5  -5 3756.50 196.851   2
  -6   5  -6 2144.63 136.794   4
  -6   5  -6 2295.04 152.841   2
  -6  -5  -6 2027.02 155.248   2
  -6   5  -7 407.464 71.6317   2
  -6  -6   8 3640.26 195.961   3
   6   6  -8 3485.83 202.173   5
   6  -6  -8 3438.63 214.153   1
   6  -6  -7 234.416 67.2250   1
   6   6  -7 350.678 72.8064   5
  -6  -6   7 275.804 59.1720   3
  -6   6   7 296.167 63.0352   4
   6  -6  -6 637.311 92.9057   1
   6   6  -6 751.010 88.3056   5
  -6  -6   6 597.468 76.2946   3
  -6   6   6 709.136 93.1062   4
   6   6  -5 2731.52 146.688   5
  -6   6   5 2368.55 151.245   4
   6  -6  -5 2689.88 174.348   1
  -6  -6   5 2494.26 143.283   3
   6   6  -4 8244.66 236.752   5
  -6  -6   4 8103.21 217.224   2
  -6   6   4 8187.12 273.649   4
   6  -6  -4 8131.45 294.087   1
  -6  -6   4 8039.84 248.950   3
   6   6  -3 1786.90 103.496   5
  -6  -6   3 1736.54 100.795   2
  -6   6   3 1774.71 128.885   4
   6  -6  -3 1773.28 134.814   1
   6   6  -2 6754.21 187.868   5
  -6  -6   2 6628.85 191.691   2
  -6   6   2 6554.61 238.551   4
   6  -6  -2 6699.79 249.298   1
   6  -6  -1 420.206 64.9345   1
   6   6  -1 372.831 45.7459   5
  -6  -6   1 433.998 52.2043   2
  -6   6   1 402.194 63.6317   4
  -6  -6   0 1720.09 105.100   2
  -6   6   0 1639.89 119.906   4
  -6  -6  -1 2766.09 138.272   2
  -6   6  -1 2761.15 155.303   4
  -6  -6  -2 8987.26 261.812   2
  -6   6  -2 8356.05 265.985   4
  -6   6  -2 8334.45 204.073   2
  -6  -6  -3 387.327 60.5718   2
  -6   6  -3 342.368 47.5223   2
  -6   6  -3 343.339 57.8780   4
  -6  -6  -3 401.962 51.5733   4
  -6  -6  -4 707.588 88.0265   2
  -6   6  -4 623.651 75.4108   2
  -6   6  -4 572.021 73.1920   4
  -6   6  -5 621.275 75.3536   2
  -6   6  -5 701.772 88.1152   4
  -6  -6  -5 518.240 77.6144   2
  -6   6  -6 4439.50 200.125   4
  -6  -6  -6 4462.84 227.907   2
   6   7  -8 144.486 56.3754   5
  -6  -7   8 88.4969 43.2429   3
   6   7  -7 539.742 85.6865   5
  -6  -7   7 476.156 76.5633   3
  -6   7   7 481.395 75.6805   4
   6   7  -6 7975.21 273.296   5
  -6   7   6 8226.39 288.818   4
   6  -7  -6 8355.92 319.603   1
  -6  -7   6 8045.72 273.849   3
   6  -7  -5 116.549 44.8592   1
   6   7  -5 25.7173 28.9778   5
  -6  -7   5 45.5271 30.9316   3
  -6   7   5 76.2141 41.1759   4
   6   7  -4 1600.70 108.619   5
  -6  -7   4 1516.84 98.1156   2
  -6   7   4 1535.21 126.499   4
   6  -7  -4 1581.95 135.327   1
  -6  -7   4 1652.86 117.961   3
   6   7  -3 5436.63 187.297   5
  -6  -7   3 5710.78 185.621   2
  -6   7   3 5697.89 229.353   4
   6  -7  -3 5588.12 239.097   1
   6   7  -2 308.618 45.8564   5
  -6  -7   2 340.872 51.0345   2
  -6   7   2 427.676 68.6877   4
   6   7  -1 671.133 64.8558   5
  -6  -7   1 669.169 69.4697   2
  -6   7   1 620.485 80.7306   4
  -6  -7   0 177.662 39.8264   2
  -6   7   0 285.473 59.0056   4
  -6  -7  -1 1308.28 99.0400   2
  -6   7  -1 1211.59 104.922   4
  -6  -7  -2 13009.1 318.050   2
  -6   7  -2 12889.6 339.652   4
  -6  -7  -3 955.421 95.0747   2
  -6   7  -3 1041.81 100.696   4
  -6  -7  -4 3768.98 193.847   2
  -6   7  -4 3975.16 194.011   4
  -6   7  -5 690.093 85.8577   4
  -6  -7  -5 677.665 91.2656   2
  -6   7  -6 4403.51 205.961   4
  -6  -7  -6 4773.63 243.459   2
   6   8  -8 944.872 113.867   5
   6   8  -7 138.090 62.6815   5
  -6  -8   7 26.6070 36.6729   3
   6   8  -6 5498.99 233.556   5
  -6   8   6 5954.01 249.698   4
  -6  -8   6 5378.58 230.218   3
   6   8  -5 82.9565 34.9016   5
  -6  -8   5 177.168 51.7968   3
  -6   8   5 30.3702 32.5424   4
   6   8  -4 562.881 72.7366   5
  -6  -8   4 554.578 72.4539   3
  -6  -8   4 545.744 63.7403   2
  -6   8   4 575.003 77.5436   4
   6   8  -3 1728.85 113.682   5
  -6  -8   3 1687.34 106.280   2
  -6   8   3 1693.19 127.600   4
   6   8  -2 7740.63 222.241   5
  -6  -8   2 7828.50 224.240   2
  -6   8   2 7942.41 273.275   4
  -6  -8   1 10.0298 24.7382   2
  -6   8   1-3.12790 31.2758   4
  -6  -8   0 2225.98 125.896   2
  -6   8   0 2292.87 148.715   4
  -6  -8  -1 722.344 76.5501   2
  -6   8  -1 762.389 86.8129   4
  -6  -8  -2 4570.67 193.773   2
  -6   8  -2 4644.57 208.787   4
  -6  -8  -3 278.034 59.7082   2
  -6   8  -3 286.553 56.5666   4
  -6  -8  -4 369.942 69.8580   2
  -6   8  -4 395.074 71.4475   4
  -6   8  -5-22.1644 37.1610   4
  -6  -8  -5-11.9539 33.4178   2
  -6   8  -6 1030.36 104.765   4
  -6  -9   7 3551.94 199.893   3
   6   9  -7 3643.27 206.841   5
   6   9  -6 8167.13 288.328   5
  -6   9   6 7835.06 287.496   4
  -6  -9   6 8733.08 301.349   3
   6   9  -5 245.237 60.4882   5
  -6  -9   5 207.503 49.4378   3
  -6   9   5 189.059 56.7918   4
   6   9  -4 223.787 48.3603   5
  -6  -9   4 204.618 49.4977   3
  -6  -9   4 136.857 41.8819   2
  -6   9   4 171.136 54.5425   4
   6   9  -3 2715.56 145.018   5
  -6  -9   3 2813.65 141.612   2
  -6   9   3 2425.42 156.372   4
   6   9  -2 2664.51 139.154   5
  -6  -9   2 2541.46 132.718   2
  -6   9   2 2783.27 167.320   4
  -6  -9   1 6468.42 213.729   2
  -6   9   1 6647.33 255.849   4
  -6  -9   0 2693.41 141.092   2
  -6   9   0 2733.58 165.444   4
  -6  -9  -1 2428.48 138.088   2
  -6   9  -1 2411.65 156.721   4
  -6  -9  -2-2.18422 30.9022   2
  -6   9  -2-20.2895 29.0552   4
  -6  -9  -3 1213.05 111.641   2
  -6   9  -3 1247.06 114.039   4
  -6  -9  -4 15541.8 400.813   2
   6  -9   4 14963.3 318.425   3
  -6   9  -4 15391.6 403.464   4
   6  -9   5 4351.94 186.901   3
  -6   9  -5 4396.43 216.728   4
  -6  -9  -5 4676.91 234.460   2
   6  -9   6 220.723 53.9600   3
  -6   9  -6 191.452 53.8627   4
   6  10  -7 43.2980 43.3839   5
   6  10  -6 97.2273 56.7565   5
  -6 -10   6 200.274 63.4056   3
  -6  10   6-8.49179 40.9513   4
   6  10  -5 481.020 70.8187   5
  -6 -10   5 505.505 76.9727   3
  -6  10   5 612.069 88.8392   4
   6  10  -4 2763.49 159.175   5
  -6 -10   4 3075.90 158.707   2
  -6  10   4 3116.54 183.861   4
  -6 -10   4 3064.39 174.097   3
   6  10  -3 13.6784 34.3643   5
  -6 -10   3-17.0395 28.4503   2
  -6  10   3-21.1981 33.6345   4
   6  10  -2 27.0125 32.1766   5
  -6 -10   2-21.8719 34.3144   2
  -6  10   2 0.91171 36.9255   4
  -6 -10   1 54.1326 30.3366   2
  -6  10   1 23.6265 33.4299   4
  -6 -10   0 1466.16 111.153   2
  -6  10   0 1496.81 125.886   4
  -6 -10  -1 212.868 53.1604   2
  -6  10  -1 257.356 62.4402   4
  -6 -10  -2 844.070 91.4810   2
  -6  10  -2 723.462 92.5936   4
  -6 -10  -3 506.346 80.2524   2
  -6  10  -3 332.585 67.6116   4
  -6 -10  -4 4533.05 221.898   2
  -6  10  -4 5060.67 238.058   4
  -6 -10  -5 925.053 110.628   2
  -6  10  -5 893.672 103.331   4
  -6  10  -6 5351.62 246.876   4
   6  11  -6 158.363 55.6643   5
   6  11  -5 260.773 64.7730   5
  -6 -11   5 223.694 60.8313   3
  -6  11   5 136.220 44.4392   4
   6  11  -4 6217.60 243.956   5
  -6 -11   4 6455.23 231.960   2
  -6  11   4 5935.72 255.046   4
  -6 -11   4 6151.25 250.217   3
   6  11  -3 4613.77 202.361   5
  -6 -11   3 5311.58 206.402   2
  -6  11   3 4681.32 226.056   4
   6  11  -2 1339.84 107.611   5
  -6 -11   2 1246.70 102.587   2
  -6  11   2 1267.37 119.454   4
  -6 -11   1 281.227 54.5065   2
  -6  11   1 379.360 69.3201   4
  -6 -11   0 5570.71 215.373   2
  -6  11   0 5438.84 243.573   4
  -6 -11  -1-5.26396 32.0957   2
  -6  11  -1-21.9681 36.2000   4
  -6 -11  -2 2556.88 157.662   2
  -6  11  -2 2494.71 168.312   4
  -6 -11  -3 138.963 54.1800   2
  -6  11  -3 171.798 57.2040   4
  -6 -11  -4 915.317 105.004   2
  -6  11  -4 838.779 100.116   4
  -6  11  -5 632.786 94.9984   4
   6  12  -6 29.4555 49.4282   5
   6  12  -5 4995.53 234.698   5
  -6  12   5 4704.13 230.333   4
  -6 -12   5 4791.98 234.567   3
   6  12  -4 3073.29 179.303   5
  -6 -12   4 3017.88 166.100   2
  -6  12   4 3115.83 189.844   4
  -6 -12   4 3125.50 186.300   3
   6  12  -3 1682.14 128.021   5
  -6 -12   3 1987.68 134.588   2
  -6  12   3 1746.45 142.923   4
   6  12  -2 378.048 66.1377   5
  -6 -12   2 398.713 64.1022   2
  -6  12   2 329.091 72.3144   4
  -6 -12   1 36.8334 31.3174   2
  -6  12   1 205.720 58.7980   4
  -6 -12   0 7.03199 29.5209   2
  -6  12   0 70.4433 45.8565   4
  -6 -12  -1 3689.67 185.518   2
  -6  12  -1 3692.11 208.197   4
  -6 -12  -2 4659.38 217.471   2
  -6  12  -2 4540.66 236.369   4
  -6 -12  -3 5815.88 251.824   2
  -6  12  -3 5598.36 260.709   4
  -6  12  -4 1037.47 115.515   4
   6  13  -5 55.8393 45.1646   5
  -6  13   5-61.2789 49.7636   4
   6  13  -4 4016.84 212.971   5
  -6 -13   4 4200.96 201.905   2
  -6  13   4 3928.74 214.592   4
   6  13  -3 586.704 84.8138   5
  -6 -13   3 541.891 76.0264   2
  -6  13   3 651.602 93.7961   4
   6  13  -2 24.9360 38.0557   5
  -6 -13   2-12.3007 35.4988   2
  -6  13   2 72.5263 44.1126   4
  -6 -13   1 99.5087 41.7672   2
  -6  13   1 141.223 59.7694   4
  -6 -13   0 3764.11 188.721   2
  -6  13   0 3668.23 212.991   4
  -6 -13  -1 543.027 79.2358   2
  -6  13  -1 389.147 70.9318   4
  -6 -13  -2 107.517 42.3590   2
  -6  13  -2 160.634 64.1929   4
  -6 -13  -3 586.300 90.0292   2
  -6  13  -3 441.774 83.3925   4
   6  14  -4 95.6677 49.0332   5
  -6  14   4 2.74723 49.4371   4
   6  14  -3 1212.81 116.540   5
  -6 -14   3 1425.36 121.548   2
  -6  14   3 1203.36 123.869   4
   6  14  -2 8313.10 297.784   5
  -6 -14   2 8323.24 283.757   2
  -6  14   2 8543.55 328.338   4
  -6 -14   1 576.576 77.3432   2
  -6  14   1 767.373 111.096   4
  -6 -14   0 1072.94 107.001   2
  -6  14   0 1347.90 140.873   4
  -6 -14  -1 664.914 88.6522   2
  -6  14  -1 940.424 118.484   4
   6  15  -3 241.278 62.0526   5
  -6  15   3 146.673 62.9778   4
   6  15  -2 2139.98 159.594   5
  -6  15   2 2221.63 175.432   4
  -6  15   1 909.470 109.810   4
   7   0  -7 1527.68 145.452   1
   7   0  -6 128.994 67.7681   1
   7   0  -5 8234.52 316.564   1
   7   0  -4-16.5660 43.1507   1
   7   0  -3 1545.98 128.531   1
   7   0  -2 50.2182 40.6319   1
  -7   0   1 3077.18 117.885   2
   7   0  -1 3104.37 167.248   1
  -7   0   1 2907.39 158.849   4
  -7   0   0-20.8632 26.2470   2
   7   0   0-21.6127 34.4778   1
  -7   0   0 84.6909 41.8399   4
   7   0   1 188.336 41.6130   1
  -7   0  -1 187.530 43.7811   4
  -7   0  -1 280.299 44.4466   2
   7   0   2-30.8653 28.5786   1
  -7   0  -2-9.34452 29.8552   4
  -7   0  -2 4.91648 23.4338   2
   7   0   3 12.9439 26.4924   1
  -7   0  -3 31.5760 34.9432   2
  -7   0  -3 49.5226 36.3176   4
  -7   0  -4 46.4634 40.0952   2
  -7   0  -4-28.2021 27.3765   4
  -7   0  -5 8518.40 295.235   2
  -7   0  -6 1.23271 38.5362   2
   7  -1  -7 372.898 79.4079   1
   7   1  -7 284.261 72.2141   1
   7  -1  -6 1305.95 134.395   1
   7   1  -6 1408.65 144.605   1
   7  -1  -5 3638.95 210.142   1
   7   1  -5 3698.57 212.161   1
   7   1  -4 966.205 106.504   1
   7  -1  -4 951.182 105.772   1
   7  -1  -3 732.799 91.9734   1
   7   1  -3 825.761 96.9182   1
  -7  -1   2 623.452 54.2486   2
   7   1  -2 628.782 81.2600   1
   7  -1  -2 502.579 73.2615   1
  -7   1   2 547.686 75.3342   4
  -7  -1   1 1376.12 84.5564   2
   7  -1  -1 1417.72 116.021   1
  -7   1   1 1455.48 117.592   4
   7   1  -1 1295.49 108.633   1
  -7  -1   0 486.471 58.5649   2
  -7   1   0 447.782 65.4949   4
  -7   1   0 474.226 51.1353   2
  -7  -1   0 436.019 67.2003   4
   7  -1   0 451.816 65.2955   1
   7   1   0 527.149 69.0473   1
   7  -1   1 2087.13 130.553   1
   7   1   1 1987.22 124.489   1
  -7   1  -1 1919.21 130.573   4
  -7  -1  -1 2224.47 135.557   4
  -7   1  -1 2276.60 114.967   2
  -7  -1  -1 2088.10 118.610   2
   7   1   2 1593.58 108.448   1
  -7   1  -2 1289.37 107.706   4
  -7  -1  -2 1611.54 120.001   4
  -7   1  -2 1439.46 99.4114   2
   7  -1   2 1376.86 103.921   1
  -7  -1  -2 1504.18 107.035   2
  -7   1  -3 11122.1 302.452   4
  -7  -1  -3 11122.6 294.058   4
  -7   1  -3 11488.8 295.168   2
   7   1   3 11424.9 275.661   1
  -7  -1  -3 11348.6 304.040   2
  -7   1  -4 2163.25 133.794   4
  -7  -1  -4 2048.49 127.115   4
  -7   1  -4 2311.44 143.463   2
  -7  -1  -4 2297.94 146.704   2
  -7   1  -5 10042.2 283.261   4
  -7   1  -5 10638.0 323.848   2
  -7  -1  -5 10376.0 327.867   2
  -7   1  -6 2370.63 166.333   2
  -7  -1  -6 2296.35 166.913   2
   7  -2  -7 1561.65 151.265   1
  -7   2   7 1601.41 140.947   4
   7   2  -7 1811.67 162.681   1
   7  -2  -6 3119.73 203.395   1
  -7   2   6 2957.43 182.542   4
   7   2  -6 3179.98 203.510   1
   7  -2  -5 278.212 72.4420   1
  -7   2   5 236.923 59.0849   4
   7  -2  -4 326.529 69.1983   1
  -7   2   4 440.802 73.9927   4
  -7  -2   3 1259.58 77.6654   2
   7  -2  -3 1282.64 120.099   1
  -7   2   3 1196.32 109.221   4
   7  -2  -2 997.955 101.430   1
  -7  -2   2 1304.05 81.2008   2
  -7   2   2 983.694 98.1151   4
  -7  -2   1 3272.56 130.789   2
   7  -2  -1 3251.94 173.389   1
  -7   2   1 3218.86 170.897   4
   7   2  -1 3055.78 163.380   1
  -7  -2   0 2252.06 117.488   2
   7  -2   0 2225.52 139.869   1
  -7   2   0 2330.44 146.020   4
   7   2   0 2340.95 140.520   1
  -7  -2  -1 2781.88 136.140   2
   7   2   1 2800.23 147.573   1
  -7   2  -1 2686.83 156.387   4
  -7  -2  -1 2674.62 147.348   4
  -7   2  -1 2850.51 123.589   2
   7  -2   1 2667.09 148.692   1
   7  -2   2 63.8402 41.6850   1
   7   2   2 49.4284 31.7794   1
  -7   2  -2 35.2947 27.8241   2
  -7   2  -2 49.4230 34.9709   4
  -7  -2  -2 27.8931 32.6334   4
  -7  -2  -2 55.1432 37.2003   2
  -7   2  -3 4616.33 198.295   4
  -7  -2  -3 4653.16 188.748   4
  -7   2  -3 4817.42 189.224   2
  -7  -2  -3 4925.17 203.908   2
  -7   2  -4 1269.52 105.232   4
  -7  -2  -4 1380.91 102.576   4
  -7   2  -4 1324.74 108.773   2
  -7  -2  -4 1398.94 118.536   2
  -7   2  -5 4043.82 185.208   4
  -7   2  -5 4257.41 204.829   2
  -7  -2  -5 4270.08 213.906   2
  -7   2  -6 2055.67 151.500   2
  -7  -2  -6 1798.48 145.115   2
   7  -3  -7 11508.2 399.200   1
  -7   3   7 10876.7 362.299   4
  -7  -3   6 780.791 84.6045   3
   7  -3  -6 871.345 112.739   1
  -7   3   6 730.612 98.1305   4
  -7   3   5 885.440 103.193   4
   7  -3  -5 843.834 108.953   1
  -7   3   4 65.1482 34.6684   4
   7  -3  -4 113.042 57.7216   1
   7  -3  -3 11599.5 352.321   1
  -7  -3   3 11730.2 240.210   2
  -7   3   3 11668.5 334.280   4
  -7  -3   2 238.185 38.9251   2
   7  -3  -2 255.361 58.9275   1
  -7   3   2 338.466 62.6623   4
  -7  -3   1 32.8650 30.8040   2
   7  -3  -1 97.4031 45.3287   1
  -7   3   1 3.36432 30.4474   4
  -7  -3   0 1902.89 110.952   2
  -7   3   0 1833.90 131.359   4
   7  -3   0 2029.23 136.660   1
   7   3   0 1736.97 120.689   1
  -7  -3  -1 3520.95 157.442   2
  -7   3  -1 3600.97 181.870   4
  -7  -3  -1 3580.77 169.338   4
   7   3   1 3673.31 167.580   1
   7  -3   1 3471.35 172.215   1
   7   3   2 3760.57 161.868   1
  -7   3  -2 3530.58 178.025   4
  -7  -3  -2 3782.07 172.205   4
  -7   3  -2 3791.21 151.303   2
  -7  -3  -2 3690.61 172.102   2
  -7   3  -3 3263.66 171.891   4
  -7  -3  -3 3175.85 156.364   4
  -7   3  -3 3530.18 159.834   2
  -7  -3  -3 3410.12 174.208   2
  -7   3  -4 538.638 72.2708   2
  -7   3  -4 441.561 62.1043   4
  -7  -3  -4 456.281 63.4347   4
  -7  -3  -4 467.176 77.3325   2
  -7   3  -5 322.350 61.8306   2
  -7   3  -5 278.549 46.2709   4
  -7  -3  -5 386.428 72.7391   2
  -7   3  -6 1393.71 127.310   2
  -7  -3  -6 1482.51 139.342   2
   7  -4  -7 2780.88 199.802   1
  -7   4   7 2560.50 183.212   4
  -7  -4   7 2725.87 162.032   3
  -7  -4   6 123.371 46.5194   3
   7  -4  -6 59.9950 36.8144   1
  -7   4   6 42.1846 37.3734   4
   7  -4  -5 244.755 70.3222   1
  -7   4   5 51.4554 39.6284   4
   7  -4  -4 6756.98 282.967   1
  -7  -4   4 6641.96 189.472   2
  -7   4   4 6832.03 265.966   4
  -7  -4   3 758.592 68.9090   2
   7  -4  -3 660.422 89.5752   1
  -7   4   3 709.221 88.8737   4
   7  -4  -2 1038.94 107.912   1
  -7  -4   2 1051.78 79.7835   2
  -7   4   2 1138.34 108.879   4
  -7  -4   1 145.685 36.8948   2
   7  -4  -1 87.7089 35.5572   1
  -7   4   1 124.708 45.5458   4
  -7  -4   0 1189.63 90.4792   2
  -7   4   0 1295.42 114.577   4
   7  -4   0 1278.07 113.219   1
  -7  -4  -1 9614.35 265.315   2
  -7   4  -1 9184.71 292.922   4
   7   4   1 9417.05 266.069   1
  -7  -4  -2 258.506 51.5262   2
   7   4   2 261.158 50.0235   1
  -7   4  -2 309.669 60.0441   4
  -7  -4  -2 278.272 52.9426   4
  -7   4  -3 9910.53 300.735   4
  -7  -4  -3 10217.5 275.058   4
  -7   4  -3 10504.6 269.823   2
  -7  -4  -3 10454.7 309.934   2
  -7   4  -4 754.126 82.8212   2
  -7   4  -4 668.732 84.1184   4
  -7  -4  -4 1049.21 109.670   2
  -7   4  -5 4410.29 202.290   4
  -7   4  -5 3988.00 194.293   2
  -7  -4  -5 4646.61 231.281   2
  -7   4  -6 927.394 112.269   2
  -7  -5   7 697.620 86.1143   3
  -7   5   7 710.677 99.7305   4
  -7   5   6 2262.78 165.165   4
   7  -5  -6 2265.61 180.427   1
  -7  -5   6 2224.66 145.394   3
   7  -5  -5 101.521 39.9112   1
  -7   5   5 313.101 68.9880   4
  -7  -5   4 3585.94 146.174   2
  -7   5   4 3785.56 202.461   4
   7  -5  -4 3490.90 207.858   1
  -7  -5   3 3920.40 153.699   2
  -7   5   3 4254.04 209.404   4
   7  -5  -3 3901.60 212.352   1
   7  -5  -2 76.0711 46.1809   1
  -7  -5   2 5.69876 27.8776   2
  -7   5   2 43.5480 45.2365   4
  -7  -5   1 1624.83 103.113   2
  -7   5   1 1442.81 122.963   4
   7  -5  -1 1359.26 119.381   1
  -7  -5   0 334.963 53.0361   2
  -7   5   0 325.092 65.3841   4
   7  -5   0 326.469 60.3299   1
  -7  -5  -1 3619.51 168.440   2
  -7   5  -1 3780.75 194.232   4
  -7  -5  -2 297.164 60.2031   2
   7   5   2 288.601 51.2334   1
  -7   5  -2 255.701 56.7816   4
  -7  -5  -2 324.652 57.1440   4
  -7  -5  -3 502.903 73.3946   2
  -7   5  -3 551.707 78.3142   4
  -7  -5  -3 468.945 63.6924   4
  -7   5  -4 1947.73 138.943   4
  -7  -5  -4 2022.56 147.893   2
  -7   5  -5 106.796 53.2680   2
  -7   5  -5 28.9344 39.3621   4
  -7  -5  -5-20.9503 40.5452   2
  -7   5  -6 176.967 53.7156   2
  -7  -6   7 454.178 77.0651   3
  -7   6   7 338.876 78.1882   4
   7  -6  -6 275.674 70.9463   1
  -7  -6   6 46.8827 31.6604   3
  -7   6   6 139.899 52.7879   4
  -7  -6   5 6377.64 207.359   2
  -7   6   5 6557.75 273.531   4
   7  -6  -5 6196.77 285.388   1
   7  -6  -4 410.842 81.7053   1
  -7  -6   4 275.976 49.3447   2
  -7   6   4 300.394 62.8743   4
   7  -6  -3 137.854 58.6777   1
  -7  -6   3 75.3456 31.6706   2
  -7   6   3 74.6508 45.4075   4
  -7  -6   2 1556.74 101.792   2
  -7   6   2 1506.28 130.901   4
   7  -6  -2 1364.46 124.768   1
  -7  -6   1 11538.6 281.060   2
  -7   6   1 11246.9 339.345   4
  -7  -6   0 1455.38 105.121   2
  -7   6   0 1906.64 155.434   4
  -7  -6  -1 1155.64 98.8120   2
  -7   6  -1 1120.55 112.087   4
  -7  -6  -2 998.086 97.7007   2
  -7   6  -2 729.712 88.1669   4
  -7  -6  -3 1114.46 108.349   2
  -7  -6  -3 788.640 76.7180   4
  -7   6  -3 840.288 93.8604   4
  -7   6  -4 7222.16 270.170   4
  -7  -6  -4 7442.47 283.914   2
  -7   6  -5 1689.64 134.901   4
  -7  -6  -5 2062.74 159.120   2
  -7   7   6 2438.41 175.538   4
   7  -7  -6 2938.55 208.035   1
  -7  -7   6 2560.94 165.506   3
   7  -7  -5 214.683 59.3176   1
  -7  -7   5 195.526 54.7948   2
  -7   7   5 139.427 49.3587   4
   7  -7  -4 13.2076 42.4798   1
  -7  -7   4 33.4676 29.7054   2
  -7   7   4 30.0525 46.8763   4
  -7  -7   3 1702.53 110.972   2
  -7   7   3 1699.29 138.667   4
   7  -7  -3 1668.93 143.822   1
  -7  -7   2 5602.76 197.162   2
  -7   7   2 6083.43 256.359   4
  -7  -7   1 2144.73 126.348   2
  -7   7   1 1886.03 144.282   4
  -7  -7   0 913.025 87.0693   2
  -7   7   0 827.936 97.9495   4
  -7  -7  -1 9195.67 277.071   2
  -7   7  -1 9156.12 307.926   4
  -7  -7  -2 2196.52 143.780   2
  -7   7  -2 2263.30 154.630   4
  -7  -7  -3 1388.86 122.441   2
  -7   7  -3 1338.06 119.963   4
  -7  -7  -3 1486.89 106.102   4
  -7   7  -4 225.484 53.4995   4
  -7  -7  -4 149.533 58.9733   2
  -7   7  -5 7066.44 278.770   4
  -7  -7  -5 7147.41 296.317   2
  -7  -8   6 633.757 90.2853   3
  -7  -8   6 603.065 77.7507   2
  -7   8   6 685.082 96.6533   4
  -7  -8   5 5246.46 203.275   2
  -7   8   5 5748.30 262.365   4
  -7  -8   4 683.938 74.4422   2
  -7   8   4 823.309 106.339   4
  -7  -8   3 320.373 55.2761   2
  -7   8   3 268.979 63.9613   4
  -7  -8   2 2507.26 138.283   2
  -7   8   2 2625.93 172.993   4
  -7  -8   1 6898.26 230.095   2
  -7   8   1 7040.67 278.620   4
  -7  -8   0 38.1166 29.9290   2
  -7   8   0 49.8229 39.7028   4
  -7  -8  -1 6508.90 239.697   2
  -7   8  -1 6601.59 267.261   4
  -7  -8  -2 20.4926 31.8250   2
  -7   8  -2-23.2347 39.8590   4
  -7  -8  -3 12.3407 36.0758   2
  -7   8  -3 50.1850 41.3093   4
  -7  -8  -4 321.937 74.0680   2
  -7   8  -4 323.487 64.7316   4
  -7   8  -5 6.47190 37.6321   4
  -7  -9   6 659.230 83.0097   2
  -7   9   6 680.625 99.6134   4
  -7  -9   5 328.139 62.9438   2
  -7   9   5 233.272 70.8774   4
  -7  -9   4 2356.30 140.672   2
  -7   9   4 2131.40 163.753   4
  -7  -9   3 8088.33 252.460   2
  -7   9   3 8294.43 311.036   4
  -7  -9   2 73.2753 36.2826   2
  -7   9   2-4.56876 36.5623   4
  -7  -9   1 3959.01 178.968   2
  -7   9   1 4143.70 219.604   4
  -7  -9   0 657.172 82.7971   2
  -7   9   0 559.573 84.7788   4
  -7  -9  -1 3911.20 190.725   2
  -7   9  -1 3793.94 207.464   4
  -7  -9  -2 1629.43 130.805   2
  -7   9  -2 1546.35 135.585   4
  -7  -9  -3 4291.09 216.501   2
  -7   9  -3 4238.18 221.972   4
  -7  -9  -4 1000.74 114.093   2
  -7   9  -4 917.771 112.814   4
  -7 -10   5 295.232 57.5777   2
  -7  10   5 264.308 69.2844   4
  -7 -10   4 92.6827 40.8724   2
  -7  10   4 179.833 58.5770   4
  -7 -10   3 762.600 82.7992   2
  -7  10   3 927.250 112.068   4
  -7 -10   2 4102.76 187.005   2
  -7  10   2 4659.15 237.680   4
  -7 -10   1 5767.58 222.533   2
  -7  10   1 5961.75 267.426   4
  -7 -10   0 1595.25 122.971   2
  -7  10   0 1643.71 143.183   4
  -7 -10  -1 1043.60 102.494   2
  -7  10  -1 1123.40 118.977   4
  -7 -10  -2 4992.14 229.346   2
  -7  10  -2 4731.65 236.712   4
  -7 -10  -3 2712.28 176.249   2
  -7  10  -3 2792.54 187.107   4
  -7 -11   5 1706.61 131.871   2
  -7  11   5 1592.12 148.143   4
  -7 -11   4 460.557 71.0576   2
  -7  11   4 458.496 82.8416   4
  -7 -11   3 7058.25 253.618   2
  -7  11   3 7786.97 312.292   4
  -7 -11   2 2749.44 158.589   2
  -7  11   2 2579.02 180.523   4
  -7 -11   1 1970.06 137.704   2
  -7  11   1 2021.44 159.824   4
  -7 -11   0 405.964 69.4051   2
  -7  11   0 475.808 84.5436   4
  -7 -11  -1 1799.02 136.748   2
  -7  11  -1 1695.94 146.907   4
  -7 -11  -2 435.057 80.1485   2
  -7  11  -2 422.602 76.4699   4
  -7 -12   3 1691.12 129.324   2
  -7  12   3 1703.00 149.827   4
  -7 -12   2 722.461 88.1244   2
  -7  12   2 753.953 106.543   4
  -7 -12   1 2150.19 144.965   2
  -7  12   1 2305.85 177.223   4
  -7 -12   0 481.305 76.1207   2
  -7  12   0 380.481 72.0304   4
  -7 -12  -1 6904.61 270.435   2
   8   0  -5-6.31335 45.7988   1
   8   0  -4 5299.12 263.178   1
   8   0  -3 14.4293 38.6193   1
  -8   0   3 5.39296 35.4053   4
   8   0  -2 85.2759 49.1621   1
  -8   0   2 53.5160 38.7210   4
   8   0  -1 12.8971 38.5408   1
  -8   0   1 58.8115 50.1722   4
  -8   0   0 229.254 54.6086   4
   8   0   0 280.360 58.6282   1
   8   0   1 32.7634 30.3651   1
  -8   0  -1-31.5399 36.4172   4
  -8   0  -2 1549.30 125.104   4
   8   0   2 1572.30 121.260   1
  -8   0  -3 43.8517 33.4442   2
  -8   0  -3 0.96419 29.3385   4
  -8   0  -4 2875.18 190.189   4
  -8   0  -4 2108.46 147.303   2
  -8   0  -5-0.33060 42.2764   2
   8   1  -5 1249.57 131.743   1
   8  -1  -5 1067.47 123.750   1
  -8   1   5 1105.99 120.828   4
   8  -1  -4 4983.70 255.555   1
   8   1  -4 4628.58 243.121   1
  -8   1   4 4264.95 223.002   4
   8   1  -3 509.250 86.1864   1
   8  -1  -3 379.959 71.4191   1
  -8   1   3 550.567 84.6972   4
   8  -1  -2 7991.53 302.239   1
   8   1  -2 8043.99 299.162   1
  -8   1   2 7890.15 291.890   4
  -8  -1   2 8135.12 288.416   4
   8  -1  -1 5426.06 241.608   1
   8   1  -1 5362.53 237.631   1
  -8   1   1 5568.70 243.026   4
  -8  -1   1 5306.79 232.685   4
   8  -1   0 3064.20 178.695   1
   8   1   0 2844.54 167.920   1
  -8   1   0 2673.12 169.809   4
  -8  -1   0 3300.56 184.335   4
   8  -1   1 335.636 63.9170   1
   8   1   1 459.720 91.2465   1
  -8   1  -1 250.050 62.0080   4
  -8  -1  -1 402.726 69.1613   4
  -8   1  -2 6254.73 252.704   4
  -8  -1  -2 6362.85 251.170   4
   8  -1   2 6470.29 239.831   1
  -8  -1  -2 6264.26 226.880   2
   8   1   2 6096.77 228.732   1
  -8   1  -3 1920.71 140.563   4
  -8  -1  -3 1809.42 133.409   4
  -8  -1  -3 2005.20 143.213   2
  -8   1  -4 1818.76 135.751   4
  -8  -1  -4 1761.56 139.910   2
  -8  -1  -5 1203.34 124.364   2
   8   2  -5 489.566 91.2006   1
  -8   2   5 782.897 101.684   4
   8  -2  -5 459.367 90.8718   1
   8  -2  -4 2788.30 196.756   1
  -8   2   4 2530.71 174.228   4
   8   2  -4 2750.97 189.537   1
   8   2  -3 702.864 99.7668   1
  -8   2   3 639.888 89.8213   4
   8  -2  -3 727.757 101.002   1
  -8   2   2 1149.22 116.068   4
   8  -2  -2 1012.34 115.531   1
   8   2  -2 1018.43 110.547   1
   8   2  -1 85.5799 45.8101   1
   8  -2  -1 77.6462 45.4914   1
  -8   2   1 63.9808 35.9078   4
  -8  -2   1 79.5959 39.9795   4
   8   2   0 5244.22 227.690   1
  -8   2   0 5251.61 238.187   4
  -8  -2   0 5326.14 229.595   4
   8  -2   0 5268.95 234.072   1
   8   2   1 3268.20 176.944   1
  -8   2  -1 2848.17 175.854   4
  -8  -2  -1 2872.85 169.078   4
   8  -2   1 2689.34 164.711   1
  -8  -2  -1 2798.87 150.392   2
   8   2   2 1360.14 110.048   1
  -8   2  -2 1387.47 122.895   4
  -8  -2  -2 1481.40 121.642   4
  -8  -2  -2 1303.73 109.880   2
  -8   2  -3 525.681 78.0708   4
  -8  -2  -3 486.397 70.6046   4
  -8  -2  -3 607.364 81.0582   2
  -8  -2  -4 131.522 44.3645   2
  -8   2  -4 208.195 52.9978   4
  -8  -2  -5 2108.44 161.432   2
   8   3  -5 406.661 73.0601   1
   8  -3  -5 248.886 66.8273   1
  -8   3   5 384.370 72.4723   4
   8  -3  -4 752.046 110.996   1
   8   3  -4 535.469 88.6053   1
  -8   3   4 618.005 90.4691   4
   8   3  -3 513.555 86.3727   1
   8  -3  -3 396.771 83.4011   1
  -8   3   3 511.064 85.0074   4
   8   3  -2 2.82056 37.1792   1
   8  -3  -2 59.1831 47.6794   1
  -8   3   2-22.7353 43.6920   4
  -8   3   1 1639.38 136.647   4
   8   3  -1 1945.24 143.419   1
   8  -3  -1 1976.38 151.431   1
  -8  -3   0 651.878 74.3992   2
   8  -3   0 558.016 81.8450   1
   8   3   0 727.161 90.5038   1
  -8   3   0 535.127 85.5831   4
  -8  -3   0 652.581 85.9577   4
   8   3   1 3584.37 181.309   1
  -8   3  -1 3696.04 201.528   4
  -8  -3  -1 3837.67 193.452   4
   8  -3   1 3692.16 192.805   1
  -8  -3  -1 4011.73 184.422   2
  -8  -3  -2 962.482 99.4181   4
  -8   3  -2 947.164 103.627   4
  -8  -3  -2 858.399 93.6903   2
  -8   3  -3 267.836 65.6626   4
  -8  -3  -3 226.660 56.0084   4
  -8  -3  -3 147.475 52.2435   2
  -8   3  -4 82.0115 45.6780   4
  -8  -3  -4-5.93065 37.6017   2
  -8   4   5 385.520 78.1307   4
   8  -4  -4 3438.02 216.503   1
  -8   4   4 3422.85 205.294   4
  -8   4   3 2762.00 183.161   4
   8  -4  -3 3011.85 199.884   1
  -8   4   2 3742.57 208.552   4
   8  -4  -2 4061.27 222.232   1
  -8  -4   1 271.053 53.0030   2
   8  -4  -1 215.106 60.7602   1
   8   4  -1 156.356 51.8597   1
  -8   4   1 220.616 60.8468   4
  -8  -4   0 4042.60 179.066   2
  -8   4   0 4637.09 228.885   4
   8  -4   0 4394.25 219.274   1
   8   4   0 4212.66 204.017   1
  -8  -4  -1 2410.05 146.931   2
   8   4   1 2623.77 156.900   1
  -8   4  -1 2961.16 183.587   4
  -8  -4  -1 2618.96 159.710   4
  -8   4  -2 3218.10 190.703   4
  -8  -4  -2 4465.32 221.587   4
  -8  -4  -2 3317.33 179.155   2
  -8   4  -3 1190.68 116.071   4
  -8  -4  -3 1515.80 121.179   4
  -8  -4  -3 1353.25 122.177   2
  -8   4  -4 6017.12 253.510   4
  -8  -4  -4 6653.22 274.745   2
  -8   5   5 93.2915 49.8813   4
   8  -5  -4 825.339 115.615   1
  -8   5   4 921.299 110.100   4
   8  -5  -3 105.310 54.7062   1
  -8   5   3 76.6999 43.2318   4
  -8   5   2 3508.84 206.377   4
   8  -5  -2 3303.49 203.766   1
  -8  -5   1 3513.16 164.379   2
  -8   5   1 3113.67 191.772   4
   8  -5  -1 3509.13 207.076   1
  -8  -5   0 855.311 85.7059   2
  -8   5   0 853.131 104.779   4
   8   5   0 596.390 79.7976   1
  -8  -5  -1 149.490 50.0970   2
  -8   5  -1 163.396 55.8480   4
  -8  -5  -1 216.402 54.5261   4
   8   5   1 284.347 62.9057   1
  -8  -5  -2 243.743 60.9120   2
  -8   5  -2 176.158 55.3311   4
  -8  -5  -2 240.461 54.5730   4
  -8   5  -3 6913.42 280.739   4
  -8  -5  -3 6838.59 274.742   2
  -8   5  -4 2724.40 174.842   4
  -8  -5  -4 2846.61 184.546   2
   8  -6  -4 502.615 98.6819   1
  -8   6   4 470.637 88.3722   4
  -8   6   3 2684.43 184.312   4
   8  -6  -3 2962.37 199.868   1
   8  -6  -2 445.950 80.4275   1
  -8  -6   2 570.426 71.6710   2
  -8   6   2 534.039 88.7096   4
  -8  -6   1 35.2168 33.7232   2
  -8   6   1 27.2918 36.2588   4
  -8  -6   0 601.620 79.4290   2
  -8   6   0 728.608 100.328   4
  -8  -6  -1 1300.27 113.473   2
  -8   6  -1 1269.33 126.321   4
   8   6   1 1138.07 109.692   1
  -8  -6  -2 2270.60 152.679   2
  -8   6  -2 2562.45 174.266   4
  -8  -6  -2 2270.60 146.491   4
  -8   6  -3 3262.52 196.010   4
  -8  -6  -3 3345.94 196.835   2
  -8   7   4 694.599 102.192   4
  -8  -7   3 186.893 54.8437   2
  -8   7   3 329.489 74.5530   4
  -8  -7   2 2993.38 159.172   2
  -8   7   2 3263.30 204.397   4
  -8  -7   1 845.720 85.5387   2
  -8   7   1 787.578 103.890   4
  -8  -7   0 6266.39 238.251   2
  -8   7   0 6398.22 279.701   4
  -8  -7  -1 7.00469 34.5091   2
  -8   7  -1 51.7903 48.8114   4
  -8  -7  -2 2365.52 162.091   2
  -8   7  -2 2659.32 178.394   4
  -8  -7  -2 2579.67 154.129   4
  -8  -7  -3 810.360 99.6646   2
  -8  -8   3 860.899 88.6694   2
  -8   8   3 845.443 116.720   4
  -8  -8   2 281.833 59.4478   2
  -8   8   2 386.251 71.1736   4
  -8  -8   1 172.269 48.7466   2
  -8   8   1 166.526 57.5757   4
  -8  -8   0 16.9465 37.9798   2
  -8   8   0 49.4532 40.5105   4
  -8  -8  -1 2231.97 155.735   2
  -8   8  -1 1898.56 158.369   4
  -8  -8  -2 2552.73 171.276   2
  -8  -9   3 2509.03 151.792   2
  -8  -9   2 63.9845 38.7639   2
  -8  -9   1 1989.38 140.751   2
  -8  -9   0 171.745 51.8942   2
  -8  -9  -1 410.357 77.1114   2
  -8 -10   3 1058.23 105.274   2
  -8 -10   2 1278.39 115.971   2
  -8 -10   1 42.1174 46.1954   2
  -8 -10   0 3777.18 202.951   2
   9   0  -2-15.2748 42.4773   1
   9   0  -1 482.854 82.7183   1
  -9   0   1 521.836 86.0757   4
   9   0   0 13.8488 47.2530   1
  -9   0   0-76.2232 50.9384   4
  -9   0  -1 3026.39 192.415   4
   9   0   1 3065.84 187.378   1
  -9   0  -2 53.8315 56.6285   4
   9   1  -2 516.931 88.9156   1
   9  -1  -2 682.007 100.995   1
   9   1  -1 846.676 109.778   1
   9  -1  -1 756.960 99.5237   1
  -9  -1   1 749.593 105.257   4
   9  -1   0 167.764 62.2098   1
   9   1   0 146.389 57.9246   1
  -9   1   0 69.7431 37.2737   4
  -9  -1   0 133.406 53.9830   4
   9   1   1 1832.86 147.368   1
  -9   1  -1 1721.67 151.319   4
  -9  -1  -1 1780.46 149.191   4
   9  -1   1 1698.70 143.208   1
  -9  -1  -2 33.9059 42.9368   4
   9  -2  -2 6617.78 298.527   1
   9   2  -2 7197.98 302.313   1
   9   2  -1 1930.81 157.928   1
  -9  -2   1 1586.81 141.425   4
   9  -2  -1 2027.68 161.810   1
   9   2   0 214.263 66.3068   1
   9  -2   0 151.369 59.5967   1
  -9  -2   0 169.990 60.6522   4
   9  -2   1 70.1726 52.2146   1
   9   2   1 66.4677 43.4416   1
  -9  -2  -1 34.7663 39.5498   4
  -9  -2  -2 518.594 82.2775   4
   9   3  -2 472.301 84.9344   1
   9  -3  -1 44.5002 55.4836   1
   9   3  -1 175.026 69.4897   1
   9  -3   0-12.1998 37.1761   1
   9   3   0-23.2628 43.4932   1
  -9  -3   0 44.6333 40.0188   4
  -9  -3  -1 3979.68 216.882   4
  -9  -3  -2 168.948 58.8862   4
   9   4  -1 7521.92 302.325   1
   9  -4  -1 8213.54 329.697   1
   9   4   0 705.710 99.0200   1
  -9  -4   0 627.468 90.0159   4
  -9  -4  -1 1441.85 140.359   4
  -9  -4  -2 607.919 93.1625   4
   9   5  -1 68.1234 46.8041   1
   9   5   0 1787.31 146.581   1
   9   6   0 129.468 53.1685   1
   0   0   0    0.00    0.00   0

TITL 2man7_125 in P2(1)/n
REM P2(1)/n (#14 in standard setting)
CELL 0.71073   6.251689  13.789196   7.289386  90.0000  94.5067  90.0000
ZERR    3.00   0.000145   0.000334   0.000176   0.0000   0.0022   0.0000
LATT  1
SYMM -x+1/2, y+1/2,-z+1/2
SFAC H O P Ni
UNIT 12.00 27.00 6.00 6.00
TREF
HKLF 4
END
;
_shelx_hkl_checksum              46671
loop_
_space_group_symop_operation_xyz
'x, y, z'
'-x+1/2, y+1/2, -z+1/2'
'-x, -y, -z'
'x-1/2, -y-1/2, z-1/2'
loop_
_atom_site_label
_atom_site_type_symbol
_atom_site_fract_x
_atom_site_fract_y
_atom_site_fract_z
_atom_site_U_iso_or_equiv
_atom_site_adp_type
_atom_site_occupancy
_atom_site_site_symmetry_order
_atom_site_calc_flag
_atom_site_refinement_flags_posn
_atom_site_refinement_flags_adp
_atom_site_refinement_flags_occupancy
_atom_site_disorder_assembly
_atom_site_disorder_group
Ni1 Ni 0.26753(3) 0.11435(2) 0.58497(3) 0.00381(6) Uani 1 1 d . . . . .
Ni2 Ni 0.04756(3) 0.24996(2) 0.85186(3) 0.00391(6) Uani 1 1 d . . . . .
P2 P 0.26032(7) 0.41674(3) 0.14949(6) 0.00345(9) Uani 1 1 d . . . . .
P1 P 0.06421(7) 0.31199(3) 0.43021(6) 0.00348(9) Uani 1 1 d . . . . .
O1 O 0.16688(18) 0.40781(8) 0.34815(15) 0.0044(2) Uani 1 1 d . . . . .
O2 O -0.14062(18) 0.29078(9) 0.30787(16) 0.0053(2) Uani 1 1 d . . . . .
O3 O 0.22883(18) 0.23073(9) 0.40779(16) 0.0055(2) Uani 1 1 d . . . . .
O4 O 0.19582(18) 0.02255(8) 0.37492(16) 0.0057(2) Uani 1 1 d . . . . .
O5 O 0.08545(18) 0.37282(8) 0.01641(16) 0.0051(2) Uani 1 1 d . . . . .
O6 O 0.02929(19) 0.33884(8) 0.62560(15) 0.0057(2) Uani 1 1 d . . . . .
O7 O 0.46539(18) 0.35650(9) 0.16058(16) 0.0052(2) Uani 1 1 d . . . . .
O8 O 0.2576(2) 0.00567(9) 0.77691(17) 0.0084(2) Uani 1 1 d . . . . .
O9 O 0.0632(2) 0.14883(10) 1.06083(18) 0.0090(2) Uani 1 1 d . . . . .
H1 H 0.343(5) -0.040(2) 0.802(4) 0.037(8) Uiso 1 1 d . . . . .
H2 H 0.137(5) -0.020(2) 0.772(4) 0.048(9) Uiso 1 1 d . . . . .
H3 H 0.084(6) 0.170(3) 1.166(5) 0.070(12) Uiso 1 1 d . . . . .
H4 H 0.160(7) 0.111(3) 1.039(6) 0.094(16) Uiso 1 1 d . . . . .
loop_
_atom_site_aniso_label
_atom_site_aniso_U_11
_atom_site_aniso_U_22
_atom_site_aniso_U_33
_atom_site_aniso_U_23
_atom_site_aniso_U_13
_atom_site_aniso_U_12
Ni1 0.00336(10) 0.00409(10) 0.00397(10) -0.00010(7) 0.00028(7) 0.00005(7)
Ni2 0.00333(10) 0.00437(10) 0.00405(10) -0.00039(7) 0.00031(7) -0.00011(8)
P2 0.00290(18) 0.00368(18) 0.00376(18) 0.00017(14) 0.00012(14) -0.00017(14)
P1 0.00317(18) 0.00370(19) 0.00356(18) 0.00034(14) 0.00030(14) 0.00004(14)
O1 0.0045(5) 0.0046(5) 0.0042(5) 0.0002(4) 0.0014(4) -0.0004(4)
O2 0.0036(5) 0.0061(5) 0.0059(5) 0.0008(4) -0.0008(4) -0.0012(4)
O3 0.0041(5) 0.0045(5) 0.0080(6) 0.0015(4) 0.0012(4) 0.0013(4)
O4 0.0064(5) 0.0045(5) 0.0061(5) -0.0009(4) -0.0006(4) 0.0003(4)
O5 0.0046(5) 0.0055(5) 0.0053(5) -0.0012(4) -0.0004(4) -0.0012(4)
O6 0.0078(5) 0.0056(5) 0.0038(5) -0.0001(4) 0.0002(4) 0.0002(4)
O7 0.0041(5) 0.0049(5) 0.0067(5) 0.0011(4) 0.0010(4) 0.0008(4)
O8 0.0075(6) 0.0070(6) 0.0107(6) 0.0023(5) 0.0001(5) 0.0007(5)
O9 0.0083(6) 0.0119(6) 0.0068(6) 0.0020(5) -0.0001(5) -0.0001(5)
loop_
_atom_type_symbol
_atom_type_description
_atom_type_scat_dispersion_real
_atom_type_scat_dispersion_imag
_atom_type_scat_source
H H 0.0000 0.0000 'International Tables Vol C Tables 4.2.6.8 and 6.1.1.4'
O O 0.0106 0.0060 'International Tables Vol C Tables 4.2.6.8 and 6.1.1.4'
P P 0.1023 0.0942 'International Tables Vol C Tables 4.2.6.8 and 6.1.1.4'
Ni Ni 0.3393 1.1124 'International Tables Vol C Tables 4.2.6.8 and 6.1.1.4'
loop_
_geom_angle_atom_site_label_1
_geom_angle_atom_site_label_2
_geom_angle_atom_site_label_3
_geom_angle
_geom_angle_site_symmetry_1
_geom_angle_site_symmetry_3
_geom_angle_publ_flag
O4 Ni1 O7 99.98(5) . 4_566 ?
O4 Ni1 O8 92.44(5) . . ?
O7 Ni1 O8 83.23(5) 4_566 . ?
O4 Ni1 O3 90.28(5) . . ?
O7 Ni1 O3 87.16(5) 4_566 . ?
O8 Ni1 O3 170.33(5) . . ?
O4 Ni1 O5 91.75(5) . 4_666 ?
O7 Ni1 O5 163.71(5) 4_566 4_666 ?
O8 Ni1 O5 107.71(5) . 4_666 ?
O3 Ni1 O5 81.47(4) . 4_666 ?
O4 Ni1 O2 177.19(5) . 4_666 ?
O7 Ni1 O2 82.72(4) 4_566 4_666 ?
O8 Ni1 O2 87.09(5) . 4_666 ?
O3 Ni1 O2 90.64(5) . 4_666 ?
O5 Ni1 O2 85.76(4) 4_666 4_666 ?
O6 Ni2 O7 83.48(5) . 4_566 ?
O6 Ni2 O9 174.14(5) . . ?
O7 Ni2 O9 90.74(5) 4_566 . ?
O6 Ni2 O2 91.78(5) . 4_666 ?
O7 Ni2 O2 83.69(5) 4_566 4_666 ?
O9 Ni2 O2 86.59(5) . 4_666 ?
O6 Ni2 O5 88.49(5) . 1_556 ?
O7 Ni2 O5 169.02(5) 4_566 1_556 ?
O9 Ni2 O5 97.37(5) . 1_556 ?
O2 Ni2 O5 104.10(5) 4_666 1_556 ?
O6 Ni2 O3 95.01(5) . 4_566 ?
O7 Ni2 O3 91.84(5) 4_566 4_566 ?
O9 Ni2 O3 86.12(5) . 4_566 ?
O2 Ni2 O3 171.40(5) 4_666 4_566 ?
O5 Ni2 O3 81.38(5) 1_556 4_566 ?
O4 P2 O7 112.09(7) 2 . ?
O4 P2 O5 116.05(7) 2 . ?
O7 P2 O5 111.98(7) . . ?
O4 P2 O1 105.34(7) 2 . ?
O7 P2 O1 105.90(6) . . ?
O5 P2 O1 104.41(6) . . ?
O6 P1 O2 114.95(7) . . ?
O6 P1 O3 115.33(7) . . ?
O2 P1 O3 109.57(7) . . ?
O6 P1 O1 104.03(6) . . ?
O2 P1 O1 106.33(6) . . ?
O3 P1 O1 105.63(6) . . ?
P1 O1 P2 125.65(7) . . ?
P1 O2 Ni2 135.58(7) . 4_565 ?
P1 O2 Ni1 119.37(7) . 4_565 ?
Ni2 O2 Ni1 94.81(5) 4_565 4_565 ?
P1 O3 Ni1 123.14(7) . . ?
P1 O3 Ni2 125.87(7) . 4_665 ?
Ni1 O3 Ni2 98.93(5) . 4_665 ?
P2 O4 Ni1 132.22(7) 2_545 . ?
P2 O5 Ni2 137.11(7) . 1_554 ?
P2 O5 Ni1 117.38(7) . 4_565 ?
Ni2 O5 Ni1 98.01(5) 1_554 4_565 ?
P1 O6 Ni2 127.69(7) . . ?
P2 O7 Ni1 131.92(7) . 4_665 ?
P2 O7 Ni2 125.99(7) . 4_665 ?
Ni1 O7 Ni2 97.80(5) 4_665 4_665 ?
Ni1 O8 H1 130.2(19) . . ?
Ni1 O8 H2 111(2) . . ?
H1 O8 H2 104(3) . . ?
Ni2 O9 H3 117(3) . . ?
Ni2 O9 H4 106(3) . . ?
H3 O9 H4 110(3) . . ?
loop_
_geom_bond_atom_site_label_1
_geom_bond_atom_site_label_2
_geom_bond_distance
_geom_bond_site_symmetry_2
_geom_bond_publ_flag
Ni1 O4 2.0099(12) . ?
Ni1 O7 2.0486(12) 4_566 ?
Ni1 O8 2.0545(13) . ?
Ni1 O3 2.0623(12) . ?
Ni1 O5 2.0947(12) 4_666 ?
Ni1 O2 2.1294(12) 4_666 ?
Ni2 O6 2.0508(11) . ?
Ni2 O7 2.0616(12) 4_566 ?
Ni2 O9 2.0619(13) . ?
Ni2 O2 2.0777(12) 4_666 ?
Ni2 O5 2.0785(12) 1_556 ?
Ni2 O3 2.0821(12) 4_566 ?
P2 O4 1.4978(12) 2 ?
P2 O7 1.5245(12) . ?
P2 O5 1.5285(12) . ?
P2 O1 1.6083(12) . ?
P1 O6 1.5040(12) . ?
P1 O2 1.5301(12) . ?
P1 O3 1.5388(12) . ?
P1 O1 1.6048(12) . ?
O2 Ni2 2.0777(11) 4_565 ?
O2 Ni1 2.1294(12) 4_565 ?
O3 Ni2 2.0821(12) 4_665 ?
O4 P2 1.4977(12) 2_545 ?
O5 Ni2 2.0785(11) 1_554 ?
O5 Ni1 2.0947(12) 4_565 ?
O7 Ni1 2.0486(12) 4_665 ?
O7 Ni2 2.0616(12) 4_665 ?
O8 H1 0.84(3) . ?
O8 H2 0.83(3) . ?
O9 H3 0.82(4) . ?
O9 H4 0.82(4) . ?
loop_
_geom_hbond_atom_site_label_D
_geom_hbond_atom_site_label_H
_geom_hbond_atom_site_label_A
_geom_hbond_distance_DH
_geom_hbond_distance_HA
_geom_hbond_distance_DA
_geom_hbond_angle_DHA
_geom_hbond_site_symmetry_A
O8 H1 O6 0.84(3) 1.90(3) 2.7245(17) 165(3) 2_546
O8 H2 O4 0.83(3) 2.27(3) 2.9863(17) 145(3) 3_556
O9 H3 O3 0.82(4) 2.09(4) 2.8866(18) 163(3) 1_556
O9 H4 O6 0.82(4) 2.44(4) 2.9200(18) 118(3) 4_666
