#------------------------------------------------------------------------------
#$Date: 2021-03-05 04:04:50 +0200 (Fri, 05 Mar 2021) $
#$Revision: 262642 $
#$URL: file:///home/coder/svn-repositories/cod/cif/7/70/65/7706503.cif $
#------------------------------------------------------------------------------
#
# This file is available in the Crystallography Open Database (COD),
# http://www.crystallography.net/
#
# All data on this site have been placed in the public domain by the
# contributors.
#
data_7706503
loop_
_publ_author_name
'Khalaniya, R. A.'
'Sobolev, A. V.'
'Verchenko, V. Yu'
'Tsirlin, A. A.'
'Senyshyn, A.'
'Damay, F.'
'Presniakov, I. A.'
'Shevelkov, A. V.'
_publ_section_title
;
 Magnetic structures of Fe<sub>32+\d</sub>Ge<sub>33</sub>As<sub>2</sub>
 and Fe<sub>32+\d'</sub>Ge<sub>35-x</sub>P<sub>x</sub> intermetallic
 compounds: a neutron diffraction and <sup>57</sup>Fe M\"ossbauer
 spectroscopy study.
;
_journal_issue                   6
_journal_name_full
'Dalton transactions (Cambridge, England : 2003)'
_journal_page_first              2210
_journal_page_last               2220
_journal_paper_doi               10.1039/d0dt03923c
_journal_volume                  50
_journal_year                    2021
_chemical_formula_moiety         'As2 Fe32.13 Ge33'
_chemical_formula_sum            'As2 Fe32.13 Ge33'
_chemical_formula_weight         4339.7
_space_group_IT_number           191
_space_group_name_Hall           '-P 6 2'
_space_group_name_H-M_alt        'P 6/m m m'
_symmetry_cell_setting           hexagonal
_symmetry_Int_Tables_number      191
_symmetry_space_group_name_Hall  '-P 6 2'
_symmetry_space_group_name_H-M   'P 6/m m m'
_audit_creation_method           'Jana2006 Version : 25/04/2020'
_audit_update_record
;
2020-11-10 deposited with the CCDC.	2021-01-11 downloaded from the CCDC.
;
_cell_angle_alpha                90
_cell_angle_beta                 90
_cell_angle_gamma                120
_cell_formula_units_Z            1
_cell_length_a                   11.92330(6)
_cell_length_b                   11.92330(6)
_cell_length_c                   7.54727(6)
_cell_measurement_temperature    150
_cell_volume                     929.209(10)
_diffrn_ambient_temperature      150
_diffrn_detector_type            '80 position-sensitive 3He tubes'
_diffrn_measurement_device       'high resolution powder diffractometer'
_diffrn_measurement_device_type  'SPODI high resolution powder diffractometer'
_diffrn_radiation_monochromator  'Ge (551) monochromator'
_diffrn_radiation_probe          neutron
_diffrn_radiation_type           neutron
_diffrn_radiation_wavelength     1.5482
_exptl_absorpt_coefficient_mu    0.015
_exptl_crystal_density_diffrn    7.7552
_exptl_crystal_description       powder
_exptl_crystal_F_000             586.89
_pd_instr_location               ' ?'
_pd_meas_2theta_range_inc        0.05
_pd_meas_2theta_range_max        153.900
_pd_meas_2theta_range_min        0.950
_pd_meas_number_of_points        3060
_pd_proc_2theta_range_inc        0.05
_pd_proc_2theta_range_max        153.9
_pd_proc_2theta_range_min        6.05
_pd_proc_ls_background_function  '20 Legendre polynoms'
_pd_proc_ls_pref_orient_corr     none
_pd_proc_ls_profile_function     Gaussian
_pd_proc_ls_prof_R_factor        0.0273
_pd_proc_ls_prof_wR_expected     0.0141
_pd_proc_ls_prof_wR_factor       0.0319
_refine_ls_goodness_of_fit_all   2.26
_refine_ls_number_constraints    0
_refine_ls_number_parameters     71
_refine_ls_number_restraints     0
_refine_ls_R_factor_all          0.0142
_refine_ls_R_factor_gt           0.0140
_refine_ls_shift/su_max          0.0244
_refine_ls_shift/su_mean         0.0020
_refine_ls_weighting_scheme      sigma
_refine_ls_wR_factor_all         0.0202
_refine_ls_wR_factor_gt          0.0201
_cod_data_source_file            d0dt03923c2.cif
_cod_data_source_block           Fe32p1Ge33As2_150K
_cod_depositor_comments
'Adding full bibliography for 7706499--7706504.cif.'
_cod_original_cell_volume        929.209(9)
_cod_original_sg_symbol_Hall     '-P 6;-2'
_cod_database_code               7706503
loop_
_space_group_symop_id
_space_group_symop_operation_xyz
1 x,y,z
2 -y,x-y,z
3 -x+y,-x,z
4 -x,-y,z
5 y,-x+y,z
6 x-y,x,z
7 y,x,-z
8 x-y,-y,-z
9 -x,-x+y,-z
10 -y,-x,-z
11 -x+y,y,-z
12 x,x-y,-z
13 -x,-y,-z
14 y,-x+y,-z
15 x-y,x,-z
16 x,y,-z
17 -y,x-y,-z
18 -x+y,-x,-z
19 -y,-x,z
20 -x+y,y,z
21 x,x-y,z
22 y,x,z
23 x-y,-y,z
24 -x,-x+y,z
loop_
_atom_site_label
_atom_site_type_symbol
_atom_site_fract_x
_atom_site_fract_y
_atom_site_fract_z
_atom_site_adp_type
_atom_site_U_iso_or_equiv
_atom_site_site_symmetry_multiplicity
_atom_site_occupancy
_atom_site_calc_flag
_atom_site_refinement_flags
_atom_site_disorder_assembly
_atom_site_disorder_group
As1 As 0 0 0.1657(4) Uani 0.0003(5) 2 1 d . . .
Ge1 Ge 0 0.22856(12) 0.5 Uani 0.0040(5) 6 1 d . . .
Fe1 Fe 0.21214(6) 0.42429(11) 0.5 Uani 0.0029(4) 6 1 d . . .
Ge2 Ge 0.43193(7) 0.56807(7) 0.5 Uani 0.0051(3) 6 1 d . . .
Ge3 Ge 0.24444(5) 0.48888(10) 0.19666(13) Uani 0.0132(4) 12 1 d . . .
Ge4 Ge 0.27555(11) 0 0 Uani 0.0050(5) 6 1 d . . .
Fe2 Fe 0.333333 0.666667 0 Uani 0.0082(6) 2 1 d . . .
Fe3 Fe 0 0.38565(6) 0.27951(11) Uani 0.0043(3) 12 1 d . . .
Ge5 Ge -0.0507(3) 0.47464(16) 0 Uani 0.0183(15) 6 0.5 d . . .
Fe4 Fe 0.12319(4) 0.24638(8) 0.23341(13) Uani 0.0045(3) 12 1 d . . .
Fe5 Fe 0 0 0.5 Uani 0.021(11) 1 0.130(15) d . . .
loop_
_atom_site_aniso_label
_atom_site_aniso_type_symbol
_atom_site_aniso_U_11
_atom_site_aniso_U_22
_atom_site_aniso_U_33
_atom_site_aniso_U_12
_atom_site_aniso_U_13
_atom_site_aniso_U_23
As1 As 0.000261 0.000261 0.0005(15) 0.000131 0 0
Ge1 Ge 0.0056(7) 0.0047(5) 0.0019(7) 0.0028(3) 0 0
Fe1 Fe 0.0020(4) 0.0017(6) 0.0048(6) 0.0009(3) 0 0
Ge2 Ge 0.0035(3) 0.0035(3) 0.0062(8) 0.0001 0 0
Ge3 Ge 0.0226(5) 0.0046(5) 0.0064(6) 0.0023(2) 0.00043(19) 0.0009(4)
Ge4 Ge 0.0060(5) 0.0060(7) 0.0028(8) 0.0030(3) 0 0
Fe2 Fe 0.0109(7) 0.0109(7) 0.0028(12) 0.0054(4) 0 0
Fe3 Fe 0.0035(4) 0.0044(3) 0.0047(4) 0.0018(2) 0 0.0006(3)
Ge5 Ge 0.042(2) 0.0133(12) 0.0092(18) 0.0210(12) 0 0
Fe4 Fe 0.0029(3) 0.0052(4) 0.0062(4) 0.0026(2) 0.00000(16) 0.0000(3)
Fe5 Fe 0.013(11) 0.013(11) 0.04(2) 0.006(6) 0 0
loop_
_atom_type_symbol
_atom_type_scat_length_neutron
_atom_type_scat_source
As 6.580 International_Tables_Vol_C
Fe 9.450 International_Tables_Vol_C
Ge 8.185 International_Tables_Vol_C
loop_
_exptl_crystal_face_index_h
_exptl_crystal_face_index_k
_exptl_crystal_face_index_l
_exptl_crystal_face_perp_dist
? ? ? ?
loop_
_geom_angle_atom_site_label_1
_geom_angle_atom_site_label_2
_geom_angle_atom_site_label_3
_geom_angle_site_symmetry_1
_geom_angle_site_symmetry_2
_geom_angle_site_symmetry_3
_geom_angle
_geom_angle_publ_flag
As1 As1 Fe4 7_555 . . 101.36(6) ?
As1 As1 Fe4 7_555 . 2_555 101.36(6) ?
As1 As1 Fe4 7_555 . 3_555 101.36(6) ?
As1 As1 Fe4 7_555 . 4_555 101.36(6) ?
As1 As1 Fe4 7_555 . 5_555 101.36(6) ?
As1 As1 Fe4 7_555 . 6_555 101.36(6) ?
As1 As1 Fe5 7_555 . . 180 ?
Fe4 As1 Fe4 . . 2_555 116.22(5) ?
Fe4 As1 Fe4 . . 3_555 116.22(4) ?
Fe4 As1 Fe4 . . 4_555 157.28(12) ?
Fe4 As1 Fe4 . . 5_555 58.71(3) ?
Fe4 As1 Fe4 . . 6_555 58.71(2) ?
Fe4 As1 Fe5 . . . 78.64(6) ?
Fe4 As1 Fe4 2_555 . 3_555 116.22(5) ?
Fe4 As1 Fe4 2_555 . 4_555 58.71(3) ?
Fe4 As1 Fe4 2_555 . 5_555 157.28(12) ?
Fe4 As1 Fe4 2_555 . 6_555 58.71(3) ?
Fe4 As1 Fe5 2_555 . . 78.64(6) ?
Fe4 As1 Fe4 3_555 . 4_555 58.71(2) ?
Fe4 As1 Fe4 3_555 . 5_555 58.71(3) ?
Fe4 As1 Fe4 3_555 . 6_555 157.28(12) ?
Fe4 As1 Fe5 3_555 . . 78.64(6) ?
Fe4 As1 Fe4 4_555 . 5_555 116.22(5) ?
Fe4 As1 Fe4 4_555 . 6_555 116.22(4) ?
Fe4 As1 Fe5 4_555 . . 78.64(6) ?
Fe4 As1 Fe4 5_555 . 6_555 116.22(5) ?
Fe4 As1 Fe5 5_555 . . 78.64(6) ?
Fe4 As1 Fe5 6_555 . . 78.64(6) ?
Ge1 Ge1 Ge1 5_555 . 6_555 120.00(6) ?
Ge1 Ge1 Fe1 5_555 . . 56.01(4) ?
Ge1 Ge1 Fe1 5_555 . 6_555 176.01(6) ?
Ge1 Ge1 Fe3 5_555 . . 111.95(2) ?
Ge1 Ge1 Fe3 5_555 . 9_556 111.95(2) ?
Ge1 Ge1 Fe4 5_555 . . 56.00(2) ?
Ge1 Ge1 Fe4 5_555 . 6_555 110.18(4) ?
Ge1 Ge1 Fe4 5_555 . 9_556 110.18(4) ?
Ge1 Ge1 Fe4 5_555 . 11_556 56.00(3) ?
Ge1 Ge1 Fe5 5_555 . . 60.00(4) ?
Ge1 Ge1 Fe1 6_555 . . 176.01(7) ?
Ge1 Ge1 Fe1 6_555 . 6_555 56.01(3) ?
Ge1 Ge1 Fe3 6_555 . . 111.95(2) ?
Ge1 Ge1 Fe3 6_555 . 9_556 111.95(2) ?
Ge1 Ge1 Fe4 6_555 . . 110.18(4) ?
Ge1 Ge1 Fe4 6_555 . 6_555 56.00(2) ?
Ge1 Ge1 Fe4 6_555 . 9_556 56.00(2) ?
Ge1 Ge1 Fe4 6_555 . 11_556 110.18(4) ?
Ge1 Ge1 Fe5 6_555 . . 60.00(4) ?
Fe1 Ge1 Fe1 . . 6_555 127.97(7) ?
Fe1 Ge1 Fe3 . . . 70.86(4) ?
Fe1 Ge1 Fe3 . . 9_556 70.86(4) ?
Fe1 Ge1 Fe4 . . . 67.97(2) ?
Fe1 Ge1 Fe4 . . 6_555 124.27(2) ?
Fe1 Ge1 Fe4 . . 9_556 124.27(2) ?
Fe1 Ge1 Fe4 . . 11_556 67.97(2) ?
Fe1 Ge1 Fe5 . . . 116.01(4) ?
Fe1 Ge1 Fe3 6_555 . . 70.86(3) ?
Fe1 Ge1 Fe3 6_555 . 9_556 70.86(3) ?
Fe1 Ge1 Fe4 6_555 . . 124.27(2) ?
Fe1 Ge1 Fe4 6_555 . 6_555 67.97(3) ?
Fe1 Ge1 Fe4 6_555 . 9_556 67.97(2) ?
Fe1 Ge1 Fe4 6_555 . 11_556 124.27(3) ?
Fe1 Ge1 Fe5 6_555 . . 116.01(3) ?
Fe3 Ge1 Fe3 . . 9_556 83.24(5) ?
Fe3 Ge1 Fe4 . . . 67.15(3) ?
Fe3 Ge1 Fe4 . . 6_555 67.15(2) ?
Fe3 Ge1 Fe4 . . 9_556 135.11(5) ?
Fe3 Ge1 Fe4 . . 11_556 135.11(5) ?
Fe3 Ge1 Fe5 . . . 138.38(3) ?
Fe3 Ge1 Fe4 9_556 . . 135.11(5) ?
Fe3 Ge1 Fe4 9_556 . 6_555 135.11(5) ?
Fe3 Ge1 Fe4 9_556 . 9_556 67.15(3) ?
Fe3 Ge1 Fe4 9_556 . 11_556 67.15(3) ?
Fe3 Ge1 Fe5 9_556 . . 138.38(3) ?
Fe4 Ge1 Fe4 . . 6_555 62.93(3) ?
Fe4 Ge1 Fe4 . . 9_556 155.27(7) ?
Fe4 Ge1 Fe4 . . 11_556 111.31(4) ?
Fe4 Ge1 Fe5 . . . 77.63(4) ?
Fe4 Ge1 Fe4 6_555 . 9_556 111.31(3) ?
Fe4 Ge1 Fe4 6_555 . 11_556 155.27(7) ?
Fe4 Ge1 Fe5 6_555 . . 77.63(4) ?
Fe4 Ge1 Fe4 9_556 . 11_556 62.93(3) ?
Fe4 Ge1 Fe5 9_556 . . 77.63(4) ?
Fe4 Ge1 Fe5 11_556 . . 77.63(4) ?
Ge1 Fe1 Ge1 . . 5_555 67.97(5) ?
Ge1 Fe1 Ge2 . . . 164.08(8) ?
Ge1 Fe1 Ge2 . . 3_565 96.11(5) ?
Ge1 Fe1 Ge3 . . . 103.41(2) ?
Ge1 Fe1 Ge3 . . 11_556 103.41(3) ?
Ge1 Fe1 Fe3 . . . 55.68(3) ?
Ge1 Fe1 Fe3 . . 5_555 109.45(5) ?
Ge1 Fe1 Fe3 . . 9_556 55.68(3) ?
Ge1 Fe1 Fe3 . . 11_556 109.45(5) ?
Ge1 Fe1 Fe4 . . . 56.01(2) ?
Ge1 Fe1 Fe4 . . 11_556 56.01(3) ?
Ge1 Fe1 Ge2 5_555 . . 96.11(5) ?
Ge1 Fe1 Ge2 5_555 . 3_565 164.08(4) ?
Ge1 Fe1 Ge3 5_555 . . 103.41(4) ?
Ge1 Fe1 Ge3 5_555 . 11_556 103.41(5) ?
Ge1 Fe1 Fe3 5_555 . . 109.45(4) ?
Ge1 Fe1 Fe3 5_555 . 5_555 55.68(3) ?
Ge1 Fe1 Fe3 5_555 . 9_556 109.45(4) ?
Ge1 Fe1 Fe3 5_555 . 11_556 55.68(3) ?
Ge1 Fe1 Fe4 5_555 . . 56.01(3) ?
Ge1 Fe1 Fe4 5_555 . 11_556 56.01(4) ?
Ge2 Fe1 Ge2 . . 3_565 99.81(6) ?
Ge2 Fe1 Ge3 . . . 79.62(2) ?
Ge2 Fe1 Ge3 . . 11_556 79.62(3) ?
Ge2 Fe1 Fe3 . . . 134.69(4) ?
Ge2 Fe1 Fe3 . . 5_555 58.40(3) ?
Ge2 Fe1 Fe3 . . 9_556 134.69(4) ?
Ge2 Fe1 Fe3 . . 11_556 58.40(3) ?
Ge2 Fe1 Fe4 . . . 115.74(3) ?
Ge2 Fe1 Fe4 . . 11_556 115.74(4) ?
Ge2 Fe1 Ge3 3_565 . . 79.62(4) ?
Ge2 Fe1 Ge3 3_565 . 11_556 79.62(5) ?
Ge2 Fe1 Fe3 3_565 . . 58.40(3) ?
Ge2 Fe1 Fe3 3_565 . 5_555 134.69(3) ?
Ge2 Fe1 Fe3 3_565 . 9_556 58.40(3) ?
Ge2 Fe1 Fe3 3_565 . 11_556 134.69(3) ?
Ge2 Fe1 Fe4 3_565 . . 115.74(3) ?
Ge2 Fe1 Fe4 3_565 . 11_556 115.74(4) ?
Ge3 Fe1 Ge3 . . 11_556 147.51(6) ?
Ge3 Fe1 Fe3 . . . 58.77(2) ?
Ge3 Fe1 Fe3 . . 5_555 58.77(3) ?
Ge3 Fe1 Fe3 . . 9_556 126.61(5) ?
Ge3 Fe1 Fe3 . . 11_556 126.61(4) ?
Ge3 Fe1 Fe4 . . . 58.64(3) ?
Ge3 Fe1 Fe4 . . 11_556 153.85(5) ?
Ge3 Fe1 Fe3 11_556 . . 126.61(5) ?
Ge3 Fe1 Fe3 11_556 . 5_555 126.61(5) ?
Ge3 Fe1 Fe3 11_556 . 9_556 58.77(3) ?
Ge3 Fe1 Fe3 11_556 . 11_556 58.77(4) ?
Ge3 Fe1 Fe4 11_556 . . 153.85(5) ?
Ge3 Fe1 Fe4 11_556 . 11_556 58.64(3) ?
Fe3 Fe1 Fe3 . . 5_555 106.68(2) ?
Fe3 Fe1 Fe3 . . 9_556 70.99(3) ?
Fe3 Fe1 Fe3 . . 11_556 164.00(5) ?
Fe3 Fe1 Fe4 . . . 58.49(2) ?
Fe3 Fe1 Fe4 . . 11_556 109.57(3) ?
Fe3 Fe1 Fe3 5_555 . 9_556 164.00(5) ?
Fe3 Fe1 Fe3 5_555 . 11_556 70.99(3) ?
Fe3 Fe1 Fe4 5_555 . . 58.49(2) ?
Fe3 Fe1 Fe4 5_555 . 11_556 109.57(5) ?
Fe3 Fe1 Fe3 9_556 . 11_556 106.68(2) ?
Fe3 Fe1 Fe4 9_556 . . 109.57(3) ?
Fe3 Fe1 Fe4 9_556 . 11_556 58.49(3) ?
Fe3 Fe1 Fe4 11_556 . . 109.57(5) ?
Fe3 Fe1 Fe4 11_556 . 11_556 58.49(3) ?
Fe4 Fe1 Fe4 . . 11_556 95.21(4) ?
Fe1 Ge2 Fe1 . . 2_665 140.19(7) ?
Fe1 Ge2 Ge2 . . 4_665 109.90(5) ?
Fe1 Ge2 Fe3 . . 2_665 133.24(3) ?
Fe1 Ge2 Fe3 . . 5_555 71.78(3) ?
Fe1 Ge2 Fe3 . . 8_666 133.24(3) ?
Fe1 Ge2 Fe3 . . 11_556 71.78(3) ?
Fe1 Ge2 Ge2 2_665 . 4_665 109.90(5) ?
Fe1 Ge2 Fe3 2_665 . 2_665 71.78(4) ?
Fe1 Ge2 Fe3 2_665 . 5_555 133.24(3) ?
Fe1 Ge2 Fe3 2_665 . 8_666 71.78(4) ?
Fe1 Ge2 Fe3 2_665 . 11_556 133.24(3) ?
Ge2 Ge2 Fe3 4_665 . 2_665 56.84(3) ?
Ge2 Ge2 Fe3 4_665 . 5_555 56.84(3) ?
Ge2 Ge2 Fe3 4_665 . 8_666 56.84(3) ?
Ge2 Ge2 Fe3 4_665 . 11_556 56.84(3) ?
Fe3 Ge2 Fe3 2_665 . 5_555 64.08(3) ?
Fe3 Ge2 Fe3 2_665 . 8_666 80.71(4) ?
Fe3 Ge2 Fe3 2_665 . 11_556 113.68(5) ?
Fe3 Ge2 Fe3 5_555 . 8_666 113.68(5) ?
Fe3 Ge2 Fe3 5_555 . 11_556 80.71(4) ?
Fe3 Ge2 Fe3 8_666 . 11_556 64.08(3) ?
Fe1 Ge3 Ge3 . . 11_555 163.76(5) ?
Fe1 Ge3 Fe2 . . . 145.20(5) ?
Fe1 Ge3 Fe3 . . . 69.87(3) ?
Fe1 Ge3 Fe3 . . 5_555 69.87(4) ?
Fe1 Ge3 Ge5 . . 4_565 121.19(5) ?
Fe1 Ge3 Ge5 . . 5_555 121.19(6) ?
Fe1 Ge3 Fe4 . . . 67.44(4) ?
Ge3 Ge3 Fe2 11_555 . . 51.04(3) ?
Ge3 Ge3 Fe3 11_555 . . 103.86(4) ?
Ge3 Ge3 Fe3 11_555 . 5_555 103.86(5) ?
Ge3 Ge3 Ge5 11_555 . 4_565 59.85(5) ?
Ge3 Ge3 Ge5 11_555 . 5_555 59.85(4) ?
Ge3 Ge3 Fe4 11_555 . . 96.32(4) ?
Fe2 Ge3 Fe3 . . . 117.92(4) ?
Fe2 Ge3 Fe3 . . 5_555 117.92(3) ?
Fe2 Ge3 Ge5 . . 4_565 65.49(4) ?
Fe2 Ge3 Ge5 . . 5_555 65.49(8) ?
Fe2 Ge3 Fe4 . . . 147.36(5) ?
Fe3 Ge3 Fe3 . . 5_555 123.48(4) ?
Fe3 Ge3 Ge5 . . 4_565 54.48(4) ?
Fe3 Ge3 Ge5 . . 5_555 157.77(6) ?
Fe3 Ge3 Fe4 . . . 64.39(3) ?
Fe3 Ge3 Ge5 5_555 . 4_565 157.77(6) ?
Fe3 Ge3 Ge5 5_555 . 5_555 54.48(7) ?
Fe3 Ge3 Fe4 5_555 . . 64.39(3) ?
Ge5 Ge3 Ge5 4_565 . 5_555 117.58(7) ?
Ge5 Ge3 Fe4 4_565 . . 100.49(4) ?
Ge5 Ge3 Fe4 5_555 . . 100.49(9) ?
Fe3 Ge4 Fe3 3_555 . 7_555 116.21(6) ?
Fe3 Ge4 Ge5 3_555 . 3_555 58.77(3) ?
Fe3 Ge4 Ge5 3_555 . 6_655 58.77(3) ?
Fe3 Ge4 Fe4 3_555 . 3_555 67.63(3) ?
Fe3 Ge4 Fe4 3_555 . 5_555 67.63(3) ?
Fe3 Ge4 Fe4 3_555 . 7_555 148.396(16) ?
Fe3 Ge4 Fe4 3_555 . 12_555 148.40(3) ?
Fe3 Ge4 Ge5 7_555 . 3_555 58.77(3) ?
Fe3 Ge4 Ge5 7_555 . 6_655 58.77(3) ?
Fe3 Ge4 Fe4 7_555 . 3_555 148.396(18) ?
Fe3 Ge4 Fe4 7_555 . 5_555 148.40(2) ?
Fe3 Ge4 Fe4 7_555 . 7_555 67.63(3) ?
Fe3 Ge4 Fe4 7_555 . 12_555 67.63(2) ?
Ge5 Ge4 Ge5 3_555 . 6_655 22.15(10) ?
Ge5 Ge4 Fe4 3_555 . 3_555 122.56(6) ?
Ge5 Ge4 Fe4 3_555 . 5_555 109.69(6) ?
Ge5 Ge4 Fe4 3_555 . 7_555 109.69(6) ?
Ge5 Ge4 Fe4 3_555 . 12_555 122.56(5) ?
Ge5 Ge4 Fe4 6_655 . 3_555 109.69(5) ?
Ge5 Ge4 Fe4 6_655 . 5_555 122.56(5) ?
Ge5 Ge4 Fe4 6_655 . 7_555 122.56(5) ?
Ge5 Ge4 Fe4 6_655 . 12_555 109.69(5) ?
Fe4 Ge4 Fe4 3_555 . 5_555 63.21(3) ?
Fe4 Ge4 Fe4 3_555 . 7_555 127.05(6) ?
Fe4 Ge4 Fe4 3_555 . 12_555 93.05(4) ?
Fe4 Ge4 Fe4 5_555 . 7_555 93.05(4) ?
Fe4 Ge4 Fe4 5_555 . 12_555 127.05(6) ?
Fe4 Ge4 Fe4 7_555 . 12_555 63.21(3) ?
Ge3 Fe2 Ge3 . . 2_665 84.67(3) ?
Ge3 Fe2 Ge3 . . 3_565 84.67(3) ?
Ge3 Fe2 Ge3 . . 10_665 134.24(3) ?
Ge3 Fe2 Ge3 . . 11_555 77.91(3) ?
Ge3 Fe2 Ge3 . . 12_565 134.24(2) ?
Ge3 Fe2 Ge5 . . 4_565 67.12(4) ?
Ge3 Fe2 Ge5 . . 5_555 67.12(4) ?
Ge3 Fe2 Ge5 . . 6_665 141.04(2) ?
Ge3 Fe2 Ge3 2_665 . 3_565 84.67(4) ?
Ge3 Fe2 Ge3 2_665 . 10_665 77.91(3) ?
Ge3 Fe2 Ge3 2_665 . 11_555 134.24(5) ?
Ge3 Fe2 Ge3 2_665 . 12_565 134.24(4) ?
Ge3 Fe2 Ge5 2_665 . 4_565 141.04(2) ?
Ge3 Fe2 Ge5 2_665 . 5_555 67.12(5) ?
Ge3 Fe2 Ge5 2_665 . 6_665 67.12(7) ?
Ge3 Fe2 Ge3 3_565 . 10_665 134.24(2) ?
Ge3 Fe2 Ge3 3_565 . 11_555 134.24(4) ?
Ge3 Fe2 Ge3 3_565 . 12_565 77.91(4) ?
Ge3 Fe2 Ge5 3_565 . 4_565 67.12(4) ?
Ge3 Fe2 Ge5 3_565 . 5_555 141.04(3) ?
Ge3 Fe2 Ge5 3_565 . 6_665 67.12(7) ?
Ge3 Fe2 Ge3 10_665 . 11_555 84.67(3) ?
Ge3 Fe2 Ge3 10_665 . 12_565 84.67(3) ?
Ge3 Fe2 Ge5 10_665 . 4_565 141.04(2) ?
Ge3 Fe2 Ge5 10_665 . 5_555 67.12(4) ?
Ge3 Fe2 Ge5 10_665 . 6_665 67.12(7) ?
Ge3 Fe2 Ge3 11_555 . 12_565 84.67(4) ?
Ge3 Fe2 Ge5 11_555 . 4_565 67.12(5) ?
Ge3 Fe2 Ge5 11_555 . 5_555 67.12(5) ?
Ge3 Fe2 Ge5 11_555 . 6_665 141.04(2) ?
Ge3 Fe2 Ge5 12_565 . 4_565 67.12(4) ?
Ge3 Fe2 Ge5 12_565 . 5_555 141.04(3) ?
Ge3 Fe2 Ge5 12_565 . 6_665 67.12(7) ?
Ge5 Fe2 Ge5 4_565 . 5_555 120.00(7) ?
Ge5 Fe2 Ge5 4_565 . 6_665 120.00(11) ?
Ge5 Fe2 Ge5 5_555 . 6_665 120.00(10) ?
Ge1 Fe3 Fe1 . . . 53.46(2) ?
Ge1 Fe3 Fe1 . . 6_555 53.46(3) ?
Ge1 Fe3 Ge2 . . 3_565 88.08(3) ?
Ge1 Fe3 Ge2 . . 6_555 88.08(4) ?
Ge1 Fe3 Ge3 . . . 95.41(3) ?
Ge1 Fe3 Ge3 . . 6_555 95.41(3) ?
Ge1 Fe3 Ge4 . . 2_555 99.73(4) ?
Ge1 Fe3 Fe3 . . 4_565 138.38(4) ?
Ge1 Fe3 Ge5 . . . 160.62(5) ?
Ge1 Fe3 Ge5 . . 4_565 160.62(9) ?
Ge1 Fe3 Fe4 . . . 55.23(3) ?
Ge1 Fe3 Fe4 . . 6_555 55.23(3) ?
Fe1 Fe3 Fe1 . . 6_555 99.69(3) ?
Fe1 Fe3 Ge2 . . 3_565 49.82(4) ?
Fe1 Fe3 Ge2 . . 6_555 101.01(4) ?
Fe1 Fe3 Ge3 . . . 51.37(2) ?
Fe1 Fe3 Ge3 . . 6_555 148.63(4) ?
Fe1 Fe3 Ge4 . . 2_555 110.17(3) ?
Fe1 Fe3 Fe3 . . 4_565 106.29(3) ?
Fe1 Fe3 Ge5 . . . 141.49(7) ?
Fe1 Fe3 Ge5 . . 4_565 118.06(8) ?
Fe1 Fe3 Fe4 . . . 58.17(3) ?
Fe1 Fe3 Fe4 . . 6_555 100.59(4) ?
Fe1 Fe3 Ge2 6_555 . 3_565 101.01(3) ?
Fe1 Fe3 Ge2 6_555 . 6_555 49.82(3) ?
Fe1 Fe3 Ge3 6_555 . . 148.63(5) ?
Fe1 Fe3 Ge3 6_555 . 6_555 51.37(3) ?
Fe1 Fe3 Ge4 6_555 . 2_555 110.17(3) ?
Fe1 Fe3 Fe3 6_555 . 4_565 106.29(3) ?
Fe1 Fe3 Ge5 6_555 . . 118.06(8) ?
Fe1 Fe3 Ge5 6_555 . 4_565 141.49(9) ?
Fe1 Fe3 Fe4 6_555 . . 100.59(4) ?
Fe1 Fe3 Fe4 6_555 . 6_555 58.17(3) ?
Ge2 Fe3 Ge2 3_565 . 6_555 66.32(4) ?
Ge2 Fe3 Ge3 3_565 . . 70.86(3) ?
Ge2 Fe3 Ge3 3_565 . 6_555 136.89(4) ?
Ge2 Fe3 Ge4 3_565 . 2_555 146.11(3) ?
Ge2 Fe3 Fe3 3_565 . 4_565 57.96(3) ?
Ge2 Fe3 Ge5 3_565 . . 111.23(5) ?
Ge2 Fe3 Ge5 3_565 . 4_565 97.98(4) ?
Ge2 Fe3 Fe4 3_565 . . 107.02(4) ?
Ge2 Fe3 Fe4 3_565 . 6_555 143.29(4) ?
Ge2 Fe3 Ge3 6_555 . . 136.89(4) ?
Ge2 Fe3 Ge3 6_555 . 6_555 70.86(3) ?
Ge2 Fe3 Ge4 6_555 . 2_555 146.11(2) ?
Ge2 Fe3 Fe3 6_555 . 4_565 57.96(3) ?
Ge2 Fe3 Ge5 6_555 . . 97.98(8) ?
Ge2 Fe3 Ge5 6_555 . 4_565 111.23(8) ?
Ge2 Fe3 Fe4 6_555 . . 143.29(4) ?
Ge2 Fe3 Fe4 6_555 . 6_555 107.02(3) ?
Ge3 Fe3 Ge3 . . 6_555 150.48(5) ?
Ge3 Fe3 Ge4 . . 2_555 75.57(3) ?
Ge3 Fe3 Fe3 . . 4_565 94.98(3) ?
Ge3 Fe3 Ge5 . . . 92.67(8) ?
Ge3 Fe3 Ge5 . . 4_565 69.62(9) ?
Ge3 Fe3 Fe4 . . . 56.19(3) ?
Ge3 Fe3 Fe4 . . 6_555 110.09(4) ?
Ge3 Fe3 Ge4 6_555 . 2_555 75.57(3) ?
Ge3 Fe3 Fe3 6_555 . 4_565 94.98(3) ?
Ge3 Fe3 Ge5 6_555 . . 69.62(6) ?
Ge3 Fe3 Ge5 6_555 . 4_565 92.67(7) ?
Ge3 Fe3 Fe4 6_555 . . 110.09(3) ?
Ge3 Fe3 Fe4 6_555 . 6_555 56.20(3) ?
Ge4 Fe3 Fe3 2_555 . 4_565 121.89(4) ?
Ge4 Fe3 Ge5 2_555 . . 65.34(6) ?
Ge4 Fe3 Ge5 2_555 . 4_565 65.34(6) ?
Ge4 Fe3 Fe4 2_555 . . 55.19(3) ?
Ge4 Fe3 Fe4 2_555 . 6_555 55.19(3) ?
Fe3 Fe3 Ge5 4_565 . . 57.90(5) ?
Fe3 Fe3 Ge5 4_565 . 4_565 57.90(6) ?
Fe3 Fe3 Fe4 4_565 . . 151.161(17) ?
Fe3 Fe3 Fe4 4_565 . 6_555 151.16(3) ?
Ge5 Fe3 Ge5 . . 4_565 23.56(10) ?
Ge5 Fe3 Fe4 . . . 117.12(8) ?
Ge5 Fe3 Fe4 . . 6_555 105.42(5) ?
Ge5 Fe3 Fe4 4_565 . . 105.42(8) ?
Ge5 Fe3 Fe4 4_565 . 6_555 117.12(5) ?
Fe4 Fe3 Fe4 . . 6_555 55.45(3) ?
Ge3 Ge5 Ge3 4_565 . 6_555 65.10(6) ?
Ge3 Ge5 Ge3 4_565 . 8_565 60.30(8) ?
Ge3 Ge5 Ge3 4_565 . 9_555 94.79(10) ?
Ge3 Ge5 Ge4 4_565 . 2_555 131.15(6) ?
Ge3 Ge5 Ge4 4_565 . 5_565 66.55(8) ?
Ge3 Ge5 Fe2 4_565 . 4_565 47.40(6) ?
Ge3 Ge5 Fe3 4_565 . . 90.64(5) ?
Ge3 Ge5 Fe3 4_565 . 4_565 55.90(6) ?
Ge3 Ge5 Fe3 4_565 . 9_555 146.83(11) ?
Ge3 Ge5 Fe3 4_565 . 12_565 105.38(12) ?
Ge3 Ge5 Ge5 4_565 . 4_565 132.60(15) ?
Ge3 Ge5 Ge3 6_555 . 8_565 94.79(10) ?
Ge3 Ge5 Ge3 6_555 . 9_555 60.30(4) ?
Ge3 Ge5 Ge4 6_555 . 2_555 66.55(5) ?
Ge3 Ge5 Ge4 6_555 . 5_565 131.15(12) ?
Ge3 Ge5 Fe2 6_555 . 4_565 47.40(5) ?
Ge3 Ge5 Fe3 6_555 . . 55.90(3) ?
Ge3 Ge5 Fe3 6_555 . 4_565 90.64(4) ?
Ge3 Ge5 Fe3 6_555 . 9_555 105.38(6) ?
Ge3 Ge5 Fe3 6_555 . 12_565 146.83(11) ?
Ge3 Ge5 Ge5 6_555 . 4_565 132.6(2) ?
Ge3 Ge5 Ge3 8_565 . 9_555 65.10(6) ?
Ge3 Ge5 Ge4 8_565 . 2_555 131.15(6) ?
Ge3 Ge5 Ge4 8_565 . 5_565 66.55(8) ?
Ge3 Ge5 Fe2 8_565 . 4_565 47.40(6) ?
Ge3 Ge5 Fe3 8_565 . . 146.83(11) ?
Ge3 Ge5 Fe3 8_565 . 4_565 105.38(12) ?
Ge3 Ge5 Fe3 8_565 . 9_555 90.64(5) ?
Ge3 Ge5 Fe3 8_565 . 12_565 55.90(6) ?
Ge3 Ge5 Ge5 8_565 . 4_565 132.60(15) ?
Ge3 Ge5 Ge4 9_555 . 2_555 66.55(5) ?
Ge3 Ge5 Ge4 9_555 . 5_565 131.15(12) ?
Ge3 Ge5 Fe2 9_555 . 4_565 47.40(4) ?
Ge3 Ge5 Fe3 9_555 . . 105.38(6) ?
Ge3 Ge5 Fe3 9_555 . 4_565 146.83(11) ?
Ge3 Ge5 Fe3 9_555 . 9_555 55.90(3) ?
Ge3 Ge5 Fe3 9_555 . 12_565 90.64(4) ?
Ge3 Ge5 Ge5 9_555 . 4_565 132.6(2) ?
Ge4 Ge5 Ge4 2_555 . 5_565 157.85(14) ?
Ge4 Ge5 Fe2 2_555 . 4_565 101.07(5) ?
Ge4 Ge5 Fe3 2_555 . . 55.90(6) ?
Ge4 Ge5 Fe3 2_555 . 4_565 118.84(9) ?
Ge4 Ge5 Fe3 2_555 . 9_555 55.90(6) ?
Ge4 Ge5 Fe3 2_555 . 12_565 118.84(9) ?
Ge4 Ge5 Ge5 2_555 . 4_565 78.9(2) ?
Ge4 Ge5 Fe2 5_565 . 4_565 101.07(12) ?
Ge4 Ge5 Fe3 5_565 . . 118.84(4) ?
Ge4 Ge5 Fe3 5_565 . 4_565 55.90(4) ?
Ge4 Ge5 Fe3 5_565 . 9_555 118.84(4) ?
Ge4 Ge5 Fe3 5_565 . 12_565 55.90(4) ?
Ge4 Ge5 Ge5 5_565 . 4_565 78.93(18) ?
Fe2 Ge5 Fe3 4_565 . . 101.78(5) ?
Fe2 Ge5 Fe3 4_565 . 4_565 101.78(10) ?
Fe2 Ge5 Fe3 4_565 . 9_555 101.78(5) ?
Fe2 Ge5 Fe3 4_565 . 12_565 101.78(10) ?
Fe2 Ge5 Ge5 4_565 . 4_565 180 ?
Fe3 Ge5 Fe3 . . 4_565 64.20(3) ?
Fe3 Ge5 Fe3 . . 9_555 110.60(13) ?
Fe3 Ge5 Fe3 . . 12_565 156.44(15) ?
Fe3 Ge5 Ge5 . . 4_565 78.22(16) ?
Fe3 Ge5 Fe3 4_565 . 9_555 156.44(15) ?
Fe3 Ge5 Fe3 4_565 . 12_565 110.60(7) ?
Fe3 Ge5 Ge5 4_565 . 4_565 78.22(10) ?
Fe3 Ge5 Fe3 9_555 . 12_565 64.20(3) ?
Fe3 Ge5 Ge5 9_555 . 4_565 78.22(16) ?
Fe3 Ge5 Ge5 12_565 . 4_565 78.22(10) ?
As1 Fe4 Ge1 . . . 95.08(6) ?
As1 Fe4 Ge1 . . 5_555 95.08(6) ?
As1 Fe4 Fe1 . . . 143.76(7) ?
As1 Fe4 Ge3 . . . 162.32(7) ?
As1 Fe4 Ge4 . . 2_555 88.78(5) ?
As1 Fe4 Ge4 . . 6_555 88.78(6) ?
As1 Fe4 Fe3 . . . 122.735(18) ?
As1 Fe4 Fe3 . . 5_555 122.74(4) ?
As1 Fe4 Fe4 . . 5_555 60.65(3) ?
As1 Fe4 Fe4 . . 6_555 60.65(2) ?
Ge1 Fe4 Ge1 . . 5_555 67.99(4) ?
Ge1 Fe4 Fe1 . . . 56.03(3) ?
Ge1 Fe4 Ge3 . . . 99.55(5) ?
Ge1 Fe4 Ge4 . . 2_555 103.31(3) ?
Ge1 Fe4 Ge4 . . 6_555 170.72(4) ?
Ge1 Fe4 Fe3 . . . 57.62(4) ?
Ge1 Fe4 Fe3 . . 5_555 113.88(4) ?
Ge1 Fe4 Fe4 . . 5_555 116.52(5) ?
Ge1 Fe4 Fe4 . . 6_555 58.54(3) ?
Ge1 Fe4 Fe1 5_555 . . 56.03(5) ?
Ge1 Fe4 Ge3 5_555 . . 99.55(4) ?
Ge1 Fe4 Ge4 5_555 . 2_555 170.72(6) ?
Ge1 Fe4 Ge4 5_555 . 6_555 103.31(5) ?
Ge1 Fe4 Fe3 5_555 . . 113.88(5) ?
Ge1 Fe4 Fe3 5_555 . 5_555 57.62(3) ?
Ge1 Fe4 Fe4 5_555 . 5_555 58.54(4) ?
Ge1 Fe4 Fe4 5_555 . 6_555 116.52(4) ?
Fe1 Fe4 Ge3 . . . 53.92(3) ?
Fe1 Fe4 Ge4 . . 2_555 116.89(5) ?
Fe1 Fe4 Ge4 . . 6_555 116.89(3) ?
Fe1 Fe4 Fe3 . . . 63.34(3) ?
Fe1 Fe4 Fe3 . . 5_555 63.34(3) ?
Fe1 Fe4 Fe4 . . 5_555 109.70(4) ?
Fe1 Fe4 Fe4 . . 6_555 109.70(4) ?
Ge3 Fe4 Ge4 . . 2_555 78.28(4) ?
Ge3 Fe4 Ge4 . . 6_555 78.27(4) ?
Ge3 Fe4 Fe3 . . . 59.42(3) ?
Ge3 Fe4 Fe3 . . 5_555 59.42(3) ?
Ge3 Fe4 Fe4 . . 5_555 119.80(3) ?
Ge3 Fe4 Fe4 . . 6_555 119.80(4) ?
Ge4 Fe4 Ge4 2_555 . 6_555 85.18(4) ?
Ge4 Fe4 Fe3 2_555 . . 57.18(3) ?
Ge4 Fe4 Fe3 2_555 . 5_555 126.59(4) ?
Ge4 Fe4 Fe4 2_555 . 5_555 130.40(5) ?
Ge4 Fe4 Fe4 2_555 . 6_555 58.40(3) ?
Ge4 Fe4 Fe3 6_555 . . 126.59(5) ?
Ge4 Fe4 Fe3 6_555 . 5_555 57.18(3) ?
Ge4 Fe4 Fe4 6_555 . 5_555 58.40(4) ?
Ge4 Fe4 Fe4 6_555 . 6_555 130.40(5) ?
Fe3 Fe4 Fe3 . . 5_555 114.47(4) ?
Fe3 Fe4 Fe4 . . 5_555 172.42(5) ?
Fe3 Fe4 Fe4 . . 6_555 62.27(2) ?
Fe3 Fe4 Fe4 5_555 . 5_555 62.27(3) ?
Fe3 Fe4 Fe4 5_555 . 6_555 172.42(5) ?
Fe4 Fe4 Fe4 5_555 . 6_555 120.00(4) ?
As1 Fe5 As1 . . 7_556 180 ?
As1 Fe5 Ge1 . . . 90 ?
As1 Fe5 Ge1 . . 2_555 90 ?
As1 Fe5 Ge1 . . 3_555 90 ?
As1 Fe5 Ge1 . . 4_555 90 ?
As1 Fe5 Ge1 . . 5_555 90 ?
As1 Fe5 Ge1 . . 6_555 90 ?
As1 Fe5 Ge1 7_556 . . 90 ?
As1 Fe5 Ge1 7_556 . 2_555 90 ?
As1 Fe5 Ge1 7_556 . 3_555 90 ?
As1 Fe5 Ge1 7_556 . 4_555 90 ?
As1 Fe5 Ge1 7_556 . 5_555 90 ?
As1 Fe5 Ge1 7_556 . 6_555 90 ?
Ge1 Fe5 Ge1 . . 2_555 120.00(4) ?
Ge1 Fe5 Ge1 . . 3_555 120.0000(3) ?
Ge1 Fe5 Ge1 . . 4_555 180 ?
Ge1 Fe5 Ge1 . . 5_555 60.00(4) ?
Ge1 Fe5 Ge1 . . 6_555 60.0000(3) ?
Ge1 Fe5 Ge1 2_555 . 3_555 120.00(4) ?
Ge1 Fe5 Ge1 2_555 . 4_555 60.00(4) ?
Ge1 Fe5 Ge1 2_555 . 5_555 180 ?
Ge1 Fe5 Ge1 2_555 . 6_555 60.00(4) ?
Ge1 Fe5 Ge1 3_555 . 4_555 60.0000(3) ?
Ge1 Fe5 Ge1 3_555 . 5_555 60.00(4) ?
Ge1 Fe5 Ge1 3_555 . 6_555 180 ?
Ge1 Fe5 Ge1 4_555 . 5_555 120.00(4) ?
Ge1 Fe5 Ge1 4_555 . 6_555 120.0000(3) ?
Ge1 Fe5 Ge1 5_555 . 6_555 120.00(4) ?
loop_
_geom_bond_atom_site_label_1
_geom_bond_atom_site_label_2
_geom_bond_site_symmetry_1
_geom_bond_site_symmetry_2
_geom_bond_distance
_geom_bond_publ_flag
As1 As1 . 7_555 2.501(4) ?
As1 Fe4 . . 2.5949(10) ?
As1 Fe4 . 2_555 2.5949(10) ?
As1 Fe4 . 3_555 2.5949(11) ?
As1 Fe4 . 4_555 2.5949(10) ?
As1 Fe4 . 5_555 2.5949(10) ?
As1 Fe4 . 6_555 2.5949(11) ?
As1 Fe5 . . 2.523(3) ?
Ge1 Ge1 . 5_555 2.7252(17) ?
Ge1 Ge1 . 6_555 2.7252(10) ?
Ge1 Fe1 . . 2.4375(9) ?
Ge1 Fe1 . 6_555 2.4375(16) ?
Ge1 Fe3 . . 2.5055(13) ?
Ge1 Fe3 . 9_556 2.5055(13) ?
Ge1 Fe4 . . 2.4370(9) ?
Ge1 Fe4 . 6_555 2.4370(9) ?
Ge1 Fe4 . 9_556 2.4370(9) ?
Ge1 Fe4 . 11_556 2.4370(10) ?
Ge1 Fe5 . . 2.7252(14) ?
Fe1 Ge2 . . 2.3052(9) ?
Fe1 Ge2 . 3_565 2.3052(19) ?
Fe1 Ge3 . . 2.3846(10) ?
Fe1 Ge3 . 11_556 2.3846(10) ?
Fe1 Fe3 . . 2.8661(8) ?
Fe1 Fe3 . 5_555 2.8661(12) ?
Fe1 Fe3 . 9_556 2.8661(8) ?
Fe1 Fe3 . 11_556 2.8661(12) ?
Fe1 Fe4 . . 2.7245(12) ?
Fe1 Fe4 . 11_556 2.7245(12) ?
Ge2 Ge2 . 4_665 2.8115(15) ?
Ge2 Fe3 . 2_665 2.5699(10) ?
Ge2 Fe3 . 5_555 2.5699(10) ?
Ge2 Fe3 . 8_666 2.5699(10) ?
Ge2 Fe3 . 11_556 2.5699(10) ?
Ge3 Ge3 . 11_555 2.9685(14) ?
Ge3 Fe2 . . 2.3608(10) ?
Ge3 Fe3 . . 2.6102(6) ?
Ge3 Fe3 . 5_555 2.6102(14) ?
Ge3 Ge5 . 4_565 2.955(4) ?
Ge3 Ge5 . 5_555 2.955(2) ?
Ge3 Fe4 . . 2.5194(13) ?
Ge4 Fe3 . 3_555 2.4846(11) ?
Ge4 Fe3 . 7_555 2.4846(11) ?
Ge4 Ge5 . 3_555 2.727(5) ?
Ge4 Ge5 . 6_655 2.727(5) ?
Ge4 Fe4 . 3_555 2.4274(10) ?
Ge4 Fe4 . 5_555 2.4274(12) ?
Ge4 Fe4 . 7_555 2.4274(10) ?
Ge4 Fe4 . 12_555 2.4274(10) ?
Fe2 Ge5 . 4_565 2.918(3) ?
Fe2 Ge5 . 5_555 2.918(4) ?
Fe2 Ge5 . 6_665 2.918(3) ?
Fe3 Fe3 . 4_565 2.7269(11) ?
Fe3 Ge5 . . 2.566(2) ?
Fe3 Ge5 . 4_565 2.5658(13) ?
Fe3 Fe4 . . 2.7341(11) ?
Fe3 Fe4 . 6_555 2.7341(8) ?
Ge5 Ge5 . 4_565 1.047(5) ?
Fe4 Fe4 . 5_555 2.5441(15) ?
Fe4 Fe4 . 6_555 2.5441(10) ?
loop_
_geom_hbond_atom_site_label_D
_geom_hbond_atom_site_label_H
_geom_hbond_atom_site_label_A
_geom_hbond_site_symmetry_D
_geom_hbond_site_symmetry_H
_geom_hbond_site_symmetry_A
_geom_hbond_distance_DH
_geom_hbond_distance_HA
_geom_hbond_distance_DA
_geom_hbond_angle_DHA
_geom_hbond_publ_flag
? ? ? ? ? ? ? ? ? ? ?
loop_
_geom_torsion_atom_site_label_1
_geom_torsion_atom_site_label_2
_geom_torsion_atom_site_label_3
_geom_torsion_atom_site_label_4
_geom_torsion_site_symmetry_1
_geom_torsion_site_symmetry_2
_geom_torsion_site_symmetry_3
_geom_torsion_site_symmetry_4
_geom_torsion
_geom_torsion_publ_flag
? ? ? ? ? ? ? ? ? ?
loop_
_pd_proc_point_id
_pd_proc_2theta_corrected
_pd_proc_d_spacing
_pd_proc_intensity_net
_pd_calc_intensity_net
_pd_proc_ls_weight
1 6.0100 14.766390 4437.00 4185.22 328.00
2 6.0600 14.644668 3958.00 4164.62 309.00
3 6.1100 14.524939 3867.00 4144.43 304.00
4 6.1600 14.407153 4624.00 4124.67 331.00
5 6.2100 14.291265 4389.00 4105.31 321.00
6 6.2600 14.177230 4109.00 4086.34 309.00
7 6.3100 14.065003 4482.00 4067.76 322.00
8 6.3600 13.954541 4028.00 4049.54 304.00
9 6.4100 13.845804 3930.00 4031.68 299.00
10 6.4600 13.738751 4130.00 4014.17 305.00
11 6.5100 13.633343 3949.00 3997.00 297.00
12 6.5600 13.529543 3842.00 3980.15 292.00
13 6.6100 13.427312 3947.00 3963.63 295.00
14 6.6600 13.326619 3910.00 3947.41 292.00
15 6.7100 13.227427 4122.00 3931.49 299.00
16 6.7600 13.129704 4021.00 3915.87 294.00
17 6.8100 13.033417 4055.00 3900.53 294.00
18 6.8600 12.938532 3861.00 3885.46 286.00
19 6.9100 12.845023 3889.00 3870.66 286.00
20 6.9600 12.752857 3812.00 3856.12 282.00
21 7.0100 12.662007 3562.00 3841.83 271.00
22 7.0600 12.572447 3830.00 3827.79 280.00
23 7.1100 12.484144 3666.00 3813.98 273.00
24 7.1600 12.397078 3650.00 3800.41 271.00
25 7.2100 12.311218 3647.00 3787.05 270.00
26 7.2600 12.226542 3467.00 3773.92 262.00
27 7.3100 12.143026 3447.00 3761.00 261.00
28 7.3600 12.060645 3466.00 3748.28 260.00
29 7.4100 11.979376 3712.00 3735.77 268.00
30 7.4600 11.899199 3711.00 3723.45 267.00
31 7.5100 11.820087 3613.00 3711.32 263.00
32 7.5600 11.742024 3716.00 3699.37 266.00
33 7.6100 11.664989 3862.00 3687.60 270.00
34 7.6600 11.588959 3832.00 3676.01 268.00
35 7.7100 11.513915 4032.00 3664.58 274.00
36 7.7600 11.439840 3651.00 3653.32 259.00
37 7.8100 11.366714 3312.00 3642.22 246.00
38 7.8600 11.294519 3396.00 3631.28 248.00
39 7.9100 11.223238 3516.00 3620.50 252.00
40 7.9600 11.152852 3234.00 3609.89 240.00
41 8.0100 11.083345 3596.00 3599.52 253.00
42 8.0600 11.014703 3684.00 3589.64 255.00
43 8.1100 10.946908 3704.00 3580.92 255.00
44 8.1600 10.879944 3567.00 3574.99 249.00
45 8.2100 10.813796 3435.00 3575.18 243.00
46 8.2600 10.748448 3694.00 3587.10 252.00
47 8.3100 10.683888 3810.00 3618.14 255.00
48 8.3600 10.620104 3934.00 3674.82 258.00
49 8.4100 10.557076 3884.00 3757.89 255.00
50 8.4600 10.494794 4074.00 3857.24 260.00
51 8.5100 10.433245 4349.00 3950.93 268.00
52 8.5600 10.372416 4445.00 4011.23 270.00
53 8.6100 10.312293 4288.00 4016.53 264.00
54 8.6600 10.252867 4436.00 3962.12 268.00
55 8.7100 10.194121 3990.00 3862.66 253.00
56 8.7600 10.136048 3652.00 3744.64 241.00
57 8.8100 10.078634 3499.00 3633.90 235.00
58 8.8600 10.021871 3439.00 3546.37 233.00
59 8.9100 9.965743 3524.00 3485.86 235.00
60 8.9600 9.910244 3498.00 3447.86 233.00
61 9.0100 9.855360 3530.00 3424.89 233.00
62 9.0600 9.801083 3647.00 3410.33 236.00
63 9.1100 9.747402 3375.00 3399.82 227.00
64 9.1600 9.694308 3188.00 3391.02 219.00
65 9.2100 9.641792 3256.00 3382.88 221.00
66 9.2600 9.589843 3190.00 3375.01 218.00
67 9.3100 9.538451 3132.00 3367.27 215.00
68 9.3600 9.487612 3128.00 3359.62 214.00
69 9.4100 9.437312 3173.00 3352.05 215.00
70 9.4600 9.387544 3484.00 3344.56 225.00
71 9.5100 9.338300 3292.00 3337.14 218.00
72 9.5600 9.289572 3264.00 3329.80 216.00
73 9.6100 9.241352 3339.00 3322.53 218.00
74 9.6600 9.193631 3312.00 3315.34 216.00
75 9.7100 9.146402 3427.00 3308.21 219.00
76 9.7600 9.099658 3089.00 3301.16 208.00
77 9.8100 9.053391 3386.00 3294.17 217.00
78 9.8600 9.007594 3540.00 3287.26 221.00
79 9.9100 8.962259 3284.00 3280.41 212.00
80 9.9600 8.917381 3114.00 3273.62 206.00
81 10.0100 8.872951 3275.00 3266.90 210.00
82 10.0600 8.828963 3277.00 3260.25 210.00
83 10.1100 8.785412 3252.00 3253.66 208.00
84 10.1600 8.742289 2971.00 3247.13 198.00
85 10.2100 8.699589 3140.00 3240.66 203.00
86 10.2600 8.657306 3588.00 3234.26 217.00
87 10.3100 8.615433 3394.00 3227.91 210.00
88 10.3600 8.573966 3344.00 3221.63 208.00
89 10.4100 8.532897 3393.00 3215.40 209.00
90 10.4600 8.492221 3263.00 3209.24 204.00
91 10.5100 8.451933 3278.00 3203.13 204.00
92 10.5600 8.412026 3023.00 3197.08 195.00
93 10.6100 8.372498 3255.00 3191.08 202.00
94 10.6600 8.333340 3245.00 3185.15 201.00
95 10.7100 8.294547 3177.00 3179.26 198.00
96 10.7600 8.256116 3140.00 3173.44 196.00
97 10.8100 8.218041 3197.00 3167.66 198.00
98 10.8600 8.180318 3318.00 3161.95 201.00
99 10.9100 8.142941 3048.00 3156.28 192.00
100 10.9600 8.105905 3101.00 3150.67 193.00
101 11.0100 8.069205 3117.00 3145.11 193.00
102 11.0600 8.032839 3067.00 3139.62 191.00
103 11.1100 7.996800 3039.00 3134.22 189.00
104 11.1600 7.961085 3080.00 3129.08 190.00
105 11.2100 7.925688 3273.00 3124.74 195.00
106 11.2600 7.890607 3135.00 3122.85 190.00
107 11.3100 7.855836 3133.00 3127.81 190.00
108 11.3600 7.821373 2985.00 3149.51 185.00
109 11.4100 7.787210 3275.00 3206.61 193.00
110 11.4600 7.753347 3369.00 3327.57 195.00
111 11.5100 7.719779 3754.00 3544.71 205.00
112 11.5600 7.686502 4116.00 3877.69 214.00
113 11.6100 7.653512 4591.00 4309.89 226.00
114 11.6600 7.620805 4964.00 4772.31 234.00
115 11.7100 7.588378 5352.00 5152.88 242.00
116 11.7600 7.556227 5421.00 5337.66 243.00
117 11.8100 7.524348 5049.00 5264.80 234.00
118 11.8600 7.492740 4430.00 4956.90 218.00
119 11.9100 7.461397 4287.00 4509.03 214.00
120 11.9600 7.430316 3846.00 4040.78 202.00
121 12.0100 7.399495 3458.00 3645.22 191.00
122 12.0600 7.368929 3204.00 3363.41 184.00
123 12.1100 7.338617 3029.00 3190.24 178.00
124 12.1600 7.308555 2896.00 3096.79 174.00
125 12.2100 7.278739 2997.00 3051.39 176.00
126 12.2600 7.249166 2930.00 3030.46 174.00
127 12.3100 7.219835 2988.00 3020.25 175.00
128 12.3600 7.190742 3096.00 3014.12 177.00
129 12.4100 7.161882 3095.00 3009.37 177.00
130 12.4600 7.133255 3009.00 3005.05 174.00
131 12.5100 7.104858 3097.00 3000.86 176.00
132 12.5600 7.076686 3045.00 2996.74 174.00
133 12.6100 7.048740 3204.00 2992.66 178.00
134 12.6600 7.021014 2997.00 2988.63 172.00
135 12.7100 6.993506 3200.00 2984.63 177.00
136 12.7600 6.966215 3043.00 2980.68 172.00
137 12.8100 6.939137 3087.00 2976.76 173.00
138 12.8600 6.912271 3091.00 2972.89 172.00
139 12.9100 6.885612 2960.00 2969.05 168.00
140 12.9600 6.859160 3177.00 2965.25 174.00
141 13.0100 6.832911 2945.00 2961.49 167.00
142 13.0600 6.806864 2797.00 2957.77 162.00
143 13.1100 6.781017 3032.00 2954.09 168.00
144 13.1600 6.755366 3029.00 2950.44 168.00
145 13.2100 6.729909 2892.00 2946.83 164.00
146 13.2600 6.704645 3030.00 2943.26 167.00
147 13.3100 6.679572 3024.00 2939.72 166.00
148 13.3600 6.654686 2854.00 2936.22 161.00
149 13.4100 6.629986 2911.00 2932.76 162.00
150 13.4600 6.605471 3082.00 2929.33 167.00
151 13.5100 6.581137 2889.00 2925.94 161.00
152 13.5600 6.556983 2901.00 2922.58 161.00
153 13.6100 6.533007 3057.00 2919.26 165.00
154 13.6600 6.509207 2991.00 2915.97 162.00
155 13.7100 6.485580 2838.00 2912.71 158.00
156 13.7600 6.462126 2808.00 2909.49 156.00
157 13.8100 6.438842 2815.00 2906.30 156.00
158 13.8600 6.415727 3000.00 2903.14 161.00
159 13.9100 6.392778 2905.00 2900.02 158.00
160 13.9600 6.369994 2986.00 2896.93 160.00
161 14.0100 6.347373 3015.00 2893.90 160.00
162 14.0600 6.324914 2642.00 2890.98 149.00
163 14.1100 6.302614 2757.00 2888.35 152.00
164 14.1600 6.280471 2815.00 2886.40 153.00
165 14.2100 6.258485 2713.00 2886.03 150.00
166 14.2600 6.236654 2911.00 2888.80 155.00
167 14.3100 6.214975 2818.00 2897.15 152.00
168 14.3600 6.193449 2965.00 2914.60 156.00
169 14.4100 6.172071 2840.00 2946.74 152.00
170 14.4600 6.150842 2954.00 3005.18 155.00
171 14.5100 6.129760 3274.00 3116.23 162.00
172 14.5600 6.108822 3631.00 3333.27 171.00
173 14.6100 6.088029 4071.00 3743.11 180.00
174 14.6600 6.067378 4758.00 4449.13 194.00
175 14.7100 6.046867 6157.00 5517.13 221.00
176 14.7600 6.026496 7803.00 6896.09 248.00
177 14.8100 6.006263 9552.00 8363.46 274.00
178 14.8600 5.986166 10350.00 9557.15 284.00
179 14.9100 5.966205 10672.00 10112.80 288.00
180 14.9600 5.946377 10200.00 9840.45 281.00
181 15.0100 5.926682 8762.00 8826.00 259.00
182 15.0600 5.907118 6830.00 7385.07 228.00
183 15.1100 5.887684 5414.00 5902.79 203.00
184 15.1600 5.868378 4289.00 4670.01 180.00
185 15.2100 5.849200 3457.00 3807.09 161.00
186 15.2600 5.830148 2887.00 3288.66 147.00
187 15.3100 5.811220 2731.00 3018.07 142.00
188 15.3600 5.792416 2815.00 2894.13 144.00
189 15.4100 5.773735 2638.00 2843.51 139.00
190 15.4600 5.755174 2735.00 2824.36 141.00
191 15.5100 5.736734 2742.00 2816.92 141.00
192 15.5600 5.718413 2842.00 2813.27 143.00
193 15.6100 5.700209 2772.00 2810.70 141.00
194 15.6600 5.682123 2904.00 2808.43 144.00
195 15.7100 5.664151 2819.00 2806.23 142.00
196 15.7600 5.646294 2909.00 2804.06 144.00
197 15.8100 5.628550 3010.00 2801.92 146.00
198 15.8600 5.610919 2809.00 2799.79 141.00
199 15.9100 5.593398 2849.00 2797.68 141.00
200 15.9600 5.575987 2712.00 2795.59 137.00
201 16.0100 5.558687 2798.00 2793.52 139.00
202 16.0600 5.541494 2777.00 2791.47 138.00
203 16.1100 5.524407 2653.00 2789.44 135.00
204 16.1600 5.507428 2645.00 2787.42 134.00
205 16.2100 5.490553 2861.00 2785.42 140.00
206 16.2600 5.473782 2783.00 2783.44 137.00
207 16.3100 5.457115 2838.00 2781.47 138.00
208 16.3600 5.440549 2812.00 2779.52 137.00
209 16.4100 5.424086 2662.00 2777.59 133.00
210 16.4600 5.407722 2661.00 2775.67 133.00
211 16.5100 5.391458 2790.00 2773.77 136.00
212 16.5600 5.375292 2830.00 2771.90 136.00
213 16.6100 5.359224 2611.00 2770.14 131.00
214 16.6600 5.343253 2705.00 2768.71 133.00
215 16.7100 5.327378 2721.00 2768.47 133.00
216 16.7600 5.311598 2915.00 2771.81 137.00
217 16.8100 5.295912 2687.00 2784.70 131.00
218 16.8600 5.280319 2711.00 2819.56 132.00
219 16.9100 5.264819 2786.00 2897.78 133.00
220 16.9600 5.249411 2983.00 3048.10 137.00
221 17.0100 5.234093 3339.00 3296.43 145.00
222 17.0600 5.218866 3625.00 3646.35 151.00
223 17.1100 5.203728 4048.00 4058.77 159.00
224 17.1600 5.188679 4720.00 4447.59 171.00
225 17.2100 5.173717 4728.00 4704.45 171.00
226 17.2600 5.158843 4522.00 4746.47 167.00
227 17.3100 5.144054 4495.00 4558.88 166.00
228 17.3600 5.129351 4140.00 4203.02 159.00
229 17.4100 5.114734 3743.00 3783.83 151.00
230 17.4600 5.100200 3347.00 3400.19 142.00
231 17.5100 5.085749 3023.00 3109.44 135.00
232 17.5600 5.071381 2733.00 2921.81 128.00
233 17.6100 5.057095 2765.00 2817.07 128.00
234 17.6600 5.042890 2790.00 2765.76 129.00
235 17.7100 5.028766 2768.00 2743.23 128.00
236 17.7600 5.014721 2553.00 2733.91 123.00
237 17.8100 5.000756 2655.00 2729.81 125.00
238 17.8600 4.986869 2715.00 2727.51 126.00
239 17.9100 4.973060 2722.00 2725.76 126.00
240 17.9600 4.959329 2760.00 2724.16 126.00
241 18.0100 4.945673 2764.00 2722.60 126.00
242 18.0600 4.932094 2706.00 2721.05 124.00
243 18.1100 4.918590 2831.00 2719.51 127.00
244 18.1600 4.905160 2682.00 2717.98 123.00
245 18.2100 4.891806 2742.00 2716.46 124.00
246 18.2600 4.878523 2762.00 2714.95 125.00
247 18.3100 4.865315 2713.00 2713.45 123.00
248 18.3600 4.852178 2477.00 2711.98 117.00
249 18.4100 4.839113 2577.00 2710.61 120.00
250 18.4600 4.826119 2697.00 2709.65 122.00
251 18.5100 4.813196 2787.00 2710.12 124.00
252 18.5600 4.800343 2789.00 2715.01 124.00
253 18.6100 4.787559 2805.00 2731.87 124.00
254 18.6600 4.774843 2970.00 2776.70 127.00
255 18.7100 4.762197 3103.00 2877.52 130.00
256 18.7600 4.749617 3158.00 3072.82 130.00
257 18.8100 4.737105 3716.00 3398.79 141.00
258 18.8600 4.724659 4210.00 3863.34 150.00
259 18.9100 4.712280 5017.00 4417.97 163.00
260 18.9600 4.699966 5677.00 4949.45 173.00
261 19.0100 4.687717 5998.00 5311.13 178.00
262 19.0600 4.675533 5896.00 5386.75 176.00
263 19.1100 4.663413 5736.00 5150.16 173.00
264 19.1600 4.651357 5233.00 4679.58 165.00
265 19.2100 4.639364 4137.00 4115.88 146.00
266 19.2600 4.627432 3462.00 3594.86 134.00
267 19.3100 4.615564 3216.00 3197.33 128.00
268 19.3600 4.603756 2853.00 2939.74 121.00
269 19.4100 4.592010 2709.00 2795.69 117.00
270 19.4600 4.580326 2779.00 2725.34 119.00
271 19.5100 4.568700 2724.00 2694.87 117.00
272 19.5600 4.557135 2662.00 2682.75 116.00
273 19.6100 4.545628 2835.00 2677.91 119.00
274 19.6600 4.534181 2711.00 2675.57 116.00
275 19.7100 4.522792 2560.00 2673.98 113.00
276 19.7600 4.511461 2623.00 2672.59 114.00
277 19.8100 4.500187 2717.00 2671.26 116.00
278 19.8600 4.488971 2697.00 2669.93 115.00
279 19.9100 4.477811 2667.00 2668.62 114.00
280 19.9600 4.466707 2620.00 2667.31 113.00
281 20.0100 4.455659 2583.00 2666.00 112.00
282 20.0600 4.444667 2789.00 2664.70 116.00
283 20.1100 4.433729 2758.00 2663.40 115.00
284 20.1600 4.422846 2504.00 2662.11 109.00
285 20.2100 4.412017 2642.00 2660.82 112.00
286 20.2600 4.401242 2585.00 2659.54 111.00
287 20.3100 4.390520 2646.00 2658.26 112.00
288 20.3600 4.379851 2575.00 2656.99 110.00
289 20.4100 4.369235 2636.00 2655.73 111.00
290 20.4600 4.358671 2810.00 2654.49 114.00
291 20.5100 4.348158 2675.00 2653.29 111.00
292 20.5600 4.337697 2505.00 2652.18 107.00
293 20.6100 4.327287 2566.00 2651.24 109.00
294 20.6600 4.316927 2774.00 2650.55 113.00
295 20.7100 4.306619 2658.00 2650.20 110.00
296 20.7600 4.296359 2598.00 2650.17 108.00
297 20.8100 4.286150 2715.00 2650.29 111.00
298 20.8600 4.275990 2587.00 2650.25 108.00
299 20.9100 4.265878 2683.00 2649.71 110.00
300 20.9600 4.255816 2526.00 2648.43 106.00
301 21.0100 4.245800 2674.00 2646.45 109.00
302 21.0600 4.235834 2543.00 2644.01 106.00
303 21.1100 4.225914 2613.00 2641.47 107.00
304 21.1600 4.216042 2607.00 2639.11 107.00
305 21.2100 4.206217 2662.00 2637.09 108.00
306 21.2600 4.196437 2663.00 2635.40 108.00
307 21.3100 4.186705 2786.00 2633.95 110.00
308 21.3600 4.177018 2679.00 2632.66 107.00
309 21.4100 4.167377 2717.00 2631.44 108.00
310 21.4600 4.157781 2506.00 2630.26 104.00
311 21.5100 4.148229 2642.00 2629.10 106.00
312 21.5600 4.138722 2605.00 2627.95 105.00
313 21.6100 4.129259 2548.00 2626.81 104.00
314 21.6600 4.119841 2622.00 2625.67 105.00
315 21.7100 4.110466 2620.00 2624.54 105.00
316 21.7600 4.101134 2606.00 2623.41 104.00
317 21.8100 4.091846 2617.00 2622.29 104.00
318 21.8600 4.082600 2597.00 2621.18 104.00
319 21.9100 4.073397 2522.00 2620.07 102.00
320 21.9600 4.064236 2508.00 2618.97 101.00
321 22.0100 4.055116 2592.00 2617.88 103.00
322 22.0600 4.046039 2653.00 2616.79 104.00
323 22.1100 4.037002 2580.00 2615.71 102.00
324 22.1600 4.028007 2545.00 2614.63 101.00
325 22.2100 4.019053 2541.00 2613.57 101.00
326 22.2600 4.010138 2611.00 2612.53 102.00
327 22.3100 4.001265 2409.00 2611.59 98.00
328 22.3600 3.992430 2453.00 2610.94 99.00
329 22.4100 3.983636 2597.00 2611.16 101.00
330 22.4600 3.974882 2419.00 2613.64 98.00
331 22.5100 3.966166 2547.00 2621.13 100.00
332 22.5600 3.957489 2642.00 2638.16 102.00
333 22.6100 3.948851 2555.00 2670.33 100.00
334 22.6600 3.940251 2653.00 2721.83 102.00
335 22.7100 3.931690 2698.00 2791.37 102.00
336 22.7600 3.923166 2655.00 2868.79 101.00
337 22.8100 3.914680 2699.00 2935.69 102.00
338 22.8600 3.906230 2831.00 2971.84 104.00
339 22.9100 3.897819 2888.00 2964.88 105.00
340 22.9600 3.889444 3003.00 2916.87 107.00
341 23.0100 3.881106 2852.00 2843.17 104.00
342 23.0600 3.872805 2650.00 2764.50 100.00
343 23.1100 3.864539 2565.00 2697.71 98.00
344 23.1600 3.856309 2595.00 2651.23 98.00
345 23.2100 3.848116 2487.00 2626.72 96.00
346 23.2600 3.839957 2584.00 2624.56 98.00
347 23.3100 3.831834 2716.00 2649.74 100.00
348 23.3600 3.823746 2658.00 2714.84 99.00
349 23.4100 3.815693 2981.00 2837.45 105.00
350 23.4600 3.807674 3234.00 3030.01 109.00
351 23.5100 3.799689 3547.00 3284.58 114.00
352 23.5600 3.791739 3762.00 3561.25 117.00
353 23.6100 3.783822 3990.00 3792.40 120.00
354 23.6600 3.775940 4119.00 3907.61 122.00
355 23.7100 3.768091 4122.00 3867.84 122.00
356 23.7600 3.760275 3678.00 3686.44 115.00
357 23.8100 3.752492 3547.00 3421.86 112.00
358 23.8600 3.744742 3183.00 3147.25 106.00
359 23.9100 3.737025 2790.00 2918.46 99.00
360 23.9600 3.729340 2792.00 2758.71 99.00
361 24.0100 3.721687 2661.00 2663.27 96.00
362 24.0600 3.714067 2581.00 2613.82 95.00
363 24.1100 3.706478 2495.00 2591.29 93.00
364 24.1600 3.698921 2386.00 2582.05 91.00
365 24.2100 3.691396 2426.00 2578.41 91.00
366 24.2600 3.683901 2550.00 2576.81 94.00
367 24.3100 3.676438 2474.00 2575.87 92.00
368 24.3600 3.669005 2512.00 2575.12 92.00
369 24.4100 3.661604 2545.00 2574.42 93.00
370 24.4600 3.654233 2517.00 2573.74 92.00
371 24.5100 3.646892 2531.00 2573.08 92.00
372 24.5600 3.639581 2640.00 2572.46 94.00
373 24.6100 3.632300 2603.00 2571.98 93.00
374 24.6600 3.625049 2661.00 2572.04 94.00
375 24.7100 3.617828 2571.00 2573.95 92.00
376 24.7600 3.610636 2557.00 2581.39 92.00
377 24.8100 3.603473 2565.00 2603.31 92.00
378 24.8600 3.596339 2672.00 2657.76 94.00
379 24.9100 3.589234 2803.00 2774.45 96.00
380 24.9600 3.582158 3031.00 2990.57 99.00
381 25.0100 3.575110 3476.00 3334.42 106.00
382 25.0600 3.568091 3851.00 3798.52 112.00
383 25.1100 3.561099 4888.00 4316.25 126.00
384 25.1600 3.554136 5301.00 4765.86 131.00
385 25.2100 3.547201 5514.00 5012.99 133.00
386 25.2600 3.540293 5205.00 4975.16 129.00
387 25.3100 3.533413 4701.00 4666.89 122.00
388 25.3600 3.526561 4409.00 4193.75 118.00
389 25.4100 3.519735 3954.00 3700.77 112.00
390 25.4600 3.512937 3115.00 3312.68 99.00
391 25.5100 3.506165 3144.00 3100.90 99.00
392 25.5600 3.499420 3162.00 3082.86 99.00
393 25.6100 3.492702 3307.00 3234.38 101.00
394 25.6600 3.486010 3689.00 3497.99 107.00
395 25.7100 3.479344 3964.00 3788.24 111.00
396 25.7600 3.472704 4414.00 4007.71 117.00
397 25.8100 3.466091 4098.00 4078.44 112.00
398 25.8600 3.459503 4047.00 3974.19 111.00
399 25.9100 3.452941 3746.00 3730.30 107.00
400 25.9600 3.446404 3377.00 3422.23 101.00
401 26.0100 3.439893 3004.00 3127.27 95.00
402 26.0600 3.433407 2756.00 2894.61 91.00
403 26.1100 3.426946 2685.00 2737.77 90.00
404 26.1600 3.420510 2608.00 2645.28 88.00
405 26.2100 3.414098 2655.00 2596.65 89.00
406 26.2600 3.407712 2609.00 2573.44 88.00
407 26.3100 3.401349 2620.00 2563.18 88.00
408 26.3600 3.395011 2574.00 2558.91 87.00
409 26.4100 3.388698 2524.00 2557.18 86.00
410 26.4600 3.382409 2444.00 2556.45 84.00
411 26.5100 3.376143 2430.00 2556.10 84.00
412 26.5600 3.369901 2528.00 2555.88 86.00
413 26.6100 3.363683 2579.00 2555.71 86.00
414 26.6600 3.357488 2539.00 2555.56 85.00
415 26.7100 3.351317 2544.00 2555.43 85.00
416 26.7600 3.345169 2477.00 2555.32 84.00
417 26.8100 3.339045 2511.00 2555.21 84.00
418 26.8600 3.332943 2559.00 2555.13 85.00
419 26.9100 3.326864 2539.00 2555.05 85.00
420 26.9600 3.320808 2666.00 2554.99 87.00
421 27.0100 3.314775 2559.00 2554.93 85.00
422 27.0600 3.308764 2458.00 2554.90 83.00
423 27.1100 3.302775 2598.00 2554.87 85.00
424 27.1600 3.296809 2615.00 2554.86 85.00
425 27.2100 3.290865 2579.00 2554.87 84.00
426 27.2600 3.284943 2491.00 2554.88 83.00
427 27.3100 3.279042 2594.00 2554.91 84.00
428 27.3600 3.273164 2582.00 2554.95 84.00
429 27.4100 3.267307 2563.00 2555.01 84.00
430 27.4600 3.261472 2359.00 2555.11 80.00
431 27.5100 3.255658 2450.00 2555.30 81.00
432 27.5600 3.249866 2496.00 2555.83 82.00
433 27.6100 3.244094 2604.00 2557.42 84.00
434 27.6600 3.238344 2622.00 2561.94 84.00
435 27.7100 3.232615 2694.00 2573.52 85.00
436 27.7600 3.226907 2706.00 2599.62 85.00
437 27.8100 3.221219 2555.00 2650.91 82.00
438 27.8600 3.215552 2709.00 2737.98 84.00
439 27.9100 3.209905 2922.00 2864.27 88.00
440 27.9600 3.204280 3084.00 3017.67 90.00
441 28.0100 3.198673 3240.00 3167.72 92.00
442 28.0600 3.193088 3398.00 3274.47 94.00
443 28.1100 3.187522 3521.00 3308.79 96.00
444 28.1600 3.181977 3402.00 3275.23 94.00
445 28.2100 3.176451 3377.00 3226.35 93.00
446 28.2600 3.170945 3309.00 3263.48 92.00
447 28.3100 3.165459 3500.00 3523.31 95.00
448 28.3600 3.159992 4349.00 4145.63 105.00
449 28.4100 3.154545 5475.00 5212.84 118.00
450 28.4600 3.149117 7098.00 6668.57 134.00
451 28.5100 3.143708 9116.00 8261.44 152.00
452 28.5600 3.138319 10566.00 9580.88 163.00
453 28.6100 3.132948 11056.00 10211.20 167.00
454 28.6600 3.127597 10309.00 9933.60 161.00
455 28.7100 3.122264 9272.00 8842.81 152.00
456 28.7600 3.116950 7551.00 7293.19 137.00
457 28.8100 3.111655 5516.00 5712.78 117.00
458 28.8600 3.106378 4225.00 4417.27 102.00
459 28.9100 3.101119 3237.00 3528.33 89.00
460 28.9600 3.095880 2945.00 3008.17 85.00
461 29.0100 3.090658 2736.00 2746.91 82.00
462 29.0600 3.085454 2532.00 2636.25 78.00
463 29.1100 3.080269 2477.00 2602.47 77.00
464 29.1600 3.075101 2556.00 2607.31 78.00
465 29.2100 3.069952 2626.00 2634.97 79.00
466 29.2600 3.064820 2630.00 2678.36 79.00
467 29.3100 3.059706 2777.00 2729.66 81.00
468 29.3600 3.054609 2717.00 2776.85 80.00
469 29.4100 3.049531 2883.00 2806.13 83.00
470 29.4600 3.044469 2818.00 2807.88 81.00
471 29.5100 3.039425 2806.00 2781.67 81.00
472 29.5600 3.034398 2716.00 2736.53 80.00
473 29.6100 3.029388 2686.00 2686.08 79.00
474 29.6600 3.024396 2538.00 2642.18 77.00
475 29.7100 3.019420 2557.00 2611.16 77.00
476 29.7600 3.014462 2651.00 2593.86 78.00
477 29.8100 3.009520 2475.00 2588.16 75.00
478 29.8600 3.004595 2516.00 2591.33 76.00
479 29.9100 2.999686 2583.00 2600.92 77.00
480 29.9600 2.994794 2569.00 2614.30 76.00
481 30.0100 2.989919 2612.00 2628.04 77.00
482 30.0600 2.985060 2591.00 2638.17 77.00
483 30.1100 2.980217 2640.00 2641.49 77.00
484 30.1600 2.975391 2571.00 2637.05 76.00
485 30.2100 2.970581 2629.00 2626.61 77.00
486 30.2600 2.965787 2584.00 2613.64 76.00
487 30.3100 2.961009 2530.00 2601.58 75.00
488 30.3600 2.956246 2615.00 2592.54 76.00
489 30.4100 2.951500 2461.00 2586.97 74.00
490 30.4600 2.946770 2601.00 2584.24 76.00
491 30.5100 2.942055 2632.00 2583.33 76.00
492 30.5600 2.937356 2761.00 2583.41 78.00
493 30.6100 2.932672 2649.00 2583.94 76.00
494 30.6600 2.928004 2488.00 2584.66 73.00
495 30.7100 2.923352 2595.00 2585.47 75.00
496 30.7600 2.918714 2495.00 2586.45 73.00
497 30.8100 2.914092 2431.00 2587.95 72.00
498 30.8600 2.909484 2456.00 2591.19 72.00
499 30.9100 2.904892 2594.00 2599.54 74.00
500 30.9600 2.900316 2621.00 2620.78 75.00
501 31.0100 2.895753 2606.00 2669.90 74.00
502 31.0600 2.891207 2638.00 2770.07 75.00
503 31.1100 2.886674 2855.00 2947.39 78.00
504 31.1600 2.882157 3172.00 3216.55 82.00
505 31.2100 2.877654 3508.00 3560.74 86.00
506 31.2600 2.873166 3857.00 3919.17 90.00
507 31.3100 2.868692 4315.00 4198.41 95.00
508 31.3600 2.864232 4294.00 4310.02 94.00
509 31.4100 2.859787 4176.00 4215.75 93.00
510 31.4600 2.855357 3751.00 3948.63 88.00
511 31.5100 2.850940 3408.00 3594.56 84.00
512 31.5600 2.846538 3128.00 3248.30 80.00
513 31.6100 2.842150 2789.00 2973.94 75.00
514 31.6600 2.837776 2712.00 2791.50 74.00
515 31.7100 2.833416 2608.00 2688.02 73.00
516 31.7600 2.829070 2515.00 2637.66 71.00
517 31.8100 2.824738 2473.00 2616.83 70.00
518 31.8600 2.820419 2582.00 2610.22 72.00
519 31.9100 2.816114 2622.00 2610.74 72.00
520 31.9600 2.811823 2674.00 2618.10 73.00
521 32.0100 2.807546 2608.00 2639.01 72.00
522 32.0600 2.803282 2614.00 2689.41 72.00
523 32.1100 2.799031 2812.00 2796.08 74.00
524 32.1600 2.794794 3037.00 2992.43 77.00
525 32.2100 2.790570 3460.00 3303.22 82.00
526 32.2600 2.786360 3915.00 3719.79 87.00
527 32.3100 2.782162 4361.00 4179.50 92.00
528 32.3600 2.777978 4889.00 4570.87 97.00
529 32.4100 2.773807 4979.00 4774.25 98.00
530 32.4600 2.769649 5042.00 4720.52 99.00
531 32.5100 2.765504 4567.00 4428.84 94.00
532 32.5600 2.761372 4147.00 3995.98 89.00
533 32.6100 2.757253 3687.00 3545.28 84.00
534 32.6600 2.753146 3210.00 3171.82 78.00
535 32.7100 2.749053 2806.00 2916.80 73.00
536 32.7600 2.744972 2769.00 2776.82 72.00
537 32.8100 2.740903 2780.00 2730.35 72.00
538 32.8600 2.736847 2769.00 2759.80 72.00
539 32.9100 2.732804 2834.00 2858.13 73.00
540 32.9600 2.728773 3122.00 3020.37 76.00
541 33.0100 2.724754 3196.00 3228.38 77.00
542 33.0600 2.720748 3489.00 3441.22 80.00
543 33.1100 2.716754 3671.00 3601.88 82.00
544 33.1600 2.712772 3732.00 3661.08 83.00
545 33.2100 2.708803 3780.00 3604.69 83.00
546 33.2600 2.704846 3613.00 3465.49 81.00
547 33.3100 2.700900 3497.00 3310.12 80.00
548 33.3600 2.696967 3247.00 3208.53 77.00
549 33.4100 2.693045 3087.00 3203.25 75.00
550 33.4600 2.689136 3108.00 3291.99 75.00
551 33.5100 2.685238 3434.00 3429.60 79.00
552 33.5600 2.681352 3492.00 3547.92 79.00
553 33.6100 2.677478 3318.00 3586.32 77.00
554 33.6600 2.673616 3465.00 3518.90 78.00
555 33.7100 2.669765 3137.00 3363.38 75.00
556 33.7600 2.665926 3031.00 3167.07 73.00
557 33.8100 2.662098 2974.00 2980.51 72.00
558 33.8600 2.658282 2763.00 2836.08 70.00
559 33.9100 2.654477 2693.00 2742.16 69.00
560 33.9600 2.650684 2660.00 2690.16 68.00
561 34.0100 2.646902 2668.00 2665.60 68.00
562 34.0600 2.643131 2636.00 2655.91 67.00
563 34.1100 2.639371 2673.00 2653.01 68.00
564 34.1600 2.635623 2630.00 2652.79 67.00
565 34.2100 2.631886 2699.00 2653.53 68.00
566 34.2600 2.628160 2538.00 2654.80 66.00
567 34.3100 2.624444 2646.00 2657.37 67.00
568 34.3600 2.620740 2760.00 2664.54 68.00
569 34.4100 2.617047 2645.00 2686.73 67.00
570 34.4600 2.613365 2876.00 2751.44 70.00
571 34.5100 2.609693 3033.00 2919.77 71.00
572 34.5600 2.606032 3571.00 3303.45 77.00
573 34.6100 2.602382 4173.00 4063.42 84.00
574 34.6600 2.598743 5466.00 5360.46 95.00
575 34.7100 2.595115 7536.00 7246.59 112.00
576 34.7600 2.591497 10180.00 9536.60 130.00
577 34.8100 2.587889 12405.00 11761.60 143.00
578 34.8600 2.584292 13585.00 13294.20 150.00
579 34.9100 2.580706 14046.00 13628.30 152.00
580 34.9600 2.577130 12792.00 12647.10 145.00
581 35.0100 2.573565 10517.00 10688.40 131.00
582 35.0600 2.570009 8305.00 8359.12 116.00
583 35.1100 2.566464 5919.00 6233.83 98.00
584 35.1600 2.562930 4336.00 4642.54 84.00
585 35.2100 2.559405 3453.00 3636.98 74.00
586 35.2600 2.555891 2909.00 3093.89 68.00
587 35.3100 2.552387 2750.00 2843.79 66.00
588 35.3600 2.548893 2696.00 2752.26 65.00
589 35.4100 2.545409 2666.00 2746.04 65.00
590 35.4600 2.541935 2825.00 2808.81 67.00
591 35.5100 2.538471 3024.00 2969.28 69.00
592 35.5600 2.535016 3306.00 3285.31 72.00
593 35.6100 2.531572 3816.00 3814.27 77.00
594 35.6600 2.528137 4719.00 4565.16 86.00
595 35.7100 2.524713 5588.00 5450.29 93.00
596 35.7600 2.521298 6415.00 6275.62 100.00
597 35.8100 2.517893 7088.00 6800.03 105.00
598 35.8600 2.514497 6872.00 6847.25 103.00
599 35.9100 2.511111 6268.00 6400.71 98.00
600 35.9600 2.507735 5565.00 5612.82 92.00
601 36.0100 2.504368 4580.00 4721.69 84.00
602 36.0600 2.501010 3859.00 3936.27 77.00
603 36.1100 2.497662 3157.00 3364.72 69.00
604 36.1600 2.494324 2972.00 3012.68 67.00
605 36.2100 2.490995 2821.00 2826.72 65.00
606 36.2600 2.487675 2739.00 2742.03 64.00
607 36.3100 2.484365 2582.00 2708.88 62.00
608 36.3600 2.481064 2527.00 2698.28 61.00
609 36.4100 2.477772 2580.00 2697.21 62.00
610 36.4600 2.474489 2562.00 2703.01 62.00
611 36.5100 2.471215 2559.00 2721.61 61.00
612 36.5600 2.467951 2636.00 2769.90 62.00
613 36.6100 2.464695 2834.00 2879.88 64.00
614 36.6600 2.461449 3094.00 3098.12 67.00
615 36.7100 2.458212 3476.00 3472.03 71.00
616 36.7600 2.454984 4087.00 4018.41 77.00
617 36.8100 2.451764 4777.00 4685.88 83.00
618 36.8600 2.448554 5433.00 5339.97 89.00
619 36.9100 2.445352 6089.00 5797.73 94.00
620 36.9600 2.442159 6107.00 5908.72 94.00
621 37.0100 2.438975 5759.00 5634.20 91.00
622 37.0600 2.435800 5057.00 5068.95 85.00
623 37.1100 2.432633 4357.00 4388.98 79.00
624 37.1600 2.429475 3640.00 3763.97 72.00
625 37.2100 2.426326 3168.00 3293.06 67.00
626 37.2600 2.423186 2869.00 2993.71 63.00
627 37.3100 2.420053 2702.00 2830.81 61.00
628 37.3600 2.416930 2720.00 2754.40 62.00
629 37.4100 2.413815 2672.00 2723.50 61.00
630 37.4600 2.410709 2633.00 2712.93 60.00
631 37.5100 2.407611 2657.00 2710.45 61.00
632 37.5600 2.404521 2667.00 2712.05 61.00
633 37.6100 2.401440 2788.00 2720.20 62.00
634 37.6600 2.398367 2649.00 2747.48 60.00
635 37.7100 2.395302 2817.00 2828.34 62.00
636 37.7600 2.392246 3276.00 3039.12 67.00
637 37.8100 2.389198 3733.00 3518.49 71.00
638 37.8600 2.386158 4734.00 4463.70 80.00
639 37.9100 2.383126 6529.00 6066.95 94.00
640 37.9600 2.380103 8745.00 8380.29 109.00
641 38.0100 2.377087 11725.00 11160.20 126.00
642 38.0600 2.374080 14463.00 13819.60 140.00
643 38.1100 2.371080 16390.00 15595.80 148.00
644 38.1600 2.368089 16340.00 15895.40 148.00
645 38.2100 2.365106 15070.00 14614.00 142.00
646 38.2600 2.362131 12629.00 12194.50 130.00
647 38.3100 2.359163 9563.00 9385.36 112.00
648 38.3600 2.356204 6952.00 6873.61 96.00
649 38.4100 2.353252 5010.00 5037.04 81.00
650 38.4600 2.350308 3779.00 3918.67 70.00
651 38.5100 2.347372 3433.00 3356.61 67.00
652 38.5600 2.344444 3167.00 3138.70 64.00
653 38.6100 2.341523 3186.00 3101.47 64.00
654 38.6600 2.338610 3379.00 3165.10 66.00
655 38.7100 2.335706 3648.00 3328.63 68.00
656 38.7600 2.332808 3930.00 3641.35 71.00
657 38.8100 2.329918 4392.00 4153.02 75.00
658 38.8600 2.327036 5218.00 4852.81 81.00
659 38.9100 2.324161 6086.00 5625.78 88.00
660 38.9600 2.321294 6652.00 6266.98 92.00
661 39.0100 2.318434 6802.00 6563.53 93.00
662 39.0600 2.315582 6659.00 6404.33 92.00
663 39.1100 2.312737 6137.00 5844.09 88.00
664 39.1600 2.309900 5401.00 5079.74 82.00
665 39.2100 2.307070 4751.00 4366.68 77.00
666 39.2600 2.304248 4433.00 3951.83 74.00
667 39.3100 2.301432 4619.00 4073.25 76.00
668 39.3600 2.298625 5549.00 5003.53 83.00
669 39.4100 2.295824 7584.00 7045.65 97.00
670 39.4600 2.293031 10841.00 10395.30 115.00
671 39.5100 2.290245 15242.00 14884.20 137.00
672 39.5600 2.287466 19683.00 19772.00 155.00
673 39.6100 2.284694 23498.00 23835.00 169.00
674 39.6600 2.281929 25744.00 25843.00 177.00
675 39.7100 2.279172 24964.00 25201.40 174.00
676 39.7600 2.276421 22105.00 22310.70 164.00
677 39.8100 2.273678 18068.00 18355.70 148.00
678 39.8600 2.270941 14173.00 14656.50 130.00
679 39.9100 2.268212 11562.00 12027.30 118.00
680 39.9600 2.265490 10043.00 10531.60 109.00
681 40.0100 2.262774 9402.00 9697.50 106.00
682 40.0600 2.260066 8755.00 8950.16 102.00
683 40.1100 2.257365 7759.00 7957.29 96.00
684 40.1600 2.254670 6555.00 6721.40 88.00
685 40.2100 2.251982 5251.00 5453.30 78.00
686 40.2600 2.249301 4105.00 4378.39 69.00
687 40.3100 2.246627 3376.00 3611.98 63.00
688 40.3600 2.243959 3109.00 3145.67 60.00
689 40.4100 2.241299 2848.00 2901.05 57.00
690 40.4600 2.238645 2558.00 2789.50 54.00
691 40.5100 2.235998 2506.00 2745.00 53.00
692 40.5600 2.233357 2591.00 2729.34 54.00
693 40.6100 2.230723 2598.00 2724.41 54.00
694 40.6600 2.228096 2637.00 2722.95 55.00
695 40.7100 2.225476 2614.00 2722.47 54.00
696 40.7600 2.222861 2660.00 2722.23 55.00
697 40.8100 2.220254 2625.00 2722.03 54.00
698 40.8600 2.217653 2753.00 2721.83 55.00
699 40.9100 2.215058 2677.00 2721.62 55.00
700 40.9600 2.212470 2693.00 2721.40 55.00
701 41.0100 2.209889 2705.00 2721.16 55.00
702 41.0600 2.207314 2670.00 2720.92 54.00
703 41.1100 2.204745 2506.00 2720.66 52.00
704 41.1600 2.202183 2527.00 2720.39 53.00
705 41.2100 2.199627 2572.00 2720.11 53.00
706 41.2600 2.197077 2507.00 2719.82 52.00
707 41.3100 2.194534 2603.00 2719.52 53.00
708 41.3600 2.191997 2701.00 2719.20 54.00
709 41.4100 2.189466 2610.00 2718.88 53.00
710 41.4600 2.186942 2564.00 2718.55 52.00
711 41.5100 2.184424 2542.00 2718.23 52.00
712 41.5600 2.181912 2730.00 2717.99 54.00
713 41.6100 2.179406 2654.00 2717.96 53.00
714 41.6600 2.176906 2601.00 2718.42 52.00
715 41.7100 2.174413 2660.00 2719.81 53.00
716 41.7600 2.171925 2645.00 2722.67 53.00
717 41.8100 2.169444 2647.00 2727.35 53.00
718 41.8600 2.166969 2568.00 2733.65 52.00
719 41.9100 2.164500 2536.00 2740.46 51.00
720 41.9600 2.162037 2686.00 2746.03 53.00
721 42.0100 2.159580 2580.00 2748.90 52.00
722 42.0600 2.157128 2615.00 2749.65 52.00
723 42.1100 2.154683 2725.00 2753.71 53.00
724 42.1600 2.152244 2785.00 2776.26 53.00
725 42.2100 2.149811 2927.00 2850.67 55.00
726 42.2600 2.147383 3162.00 3038.74 57.00
727 42.3100 2.144962 3534.00 3433.50 60.00
728 42.3600 2.142546 4253.00 4137.64 66.00
729 42.4100 2.140136 5370.00 5205.28 74.00
730 42.4600 2.137733 6720.00 6566.15 83.00
731 42.5100 2.135334 8375.00 7989.71 92.00
732 42.5600 2.132942 9397.00 9153.22 97.00
733 42.6100 2.130555 9922.00 9815.71 100.00
734 42.6600 2.128174 10032.00 9992.96 100.00
735 42.7100 2.125799 10121.00 9985.40 101.00
736 42.7600 2.123430 10359.00 10194.00 102.00
737 42.8100 2.121066 10999.00 10827.60 105.00
738 42.8600 2.118708 11851.00 11712.70 108.00
739 42.9100 2.116355 12629.00 12363.70 112.00
740 42.9600 2.114008 12523.00 12280.10 111.00
741 43.0100 2.111667 11346.00 11259.20 106.00
742 43.0600 2.109331 9698.00 9507.07 98.00
743 43.1100 2.107001 7624.00 7492.15 87.00
744 43.1600 2.104677 5784.00 5679.02 76.00
745 43.2100 2.102358 4350.00 4333.31 65.00
746 43.2600 2.100044 3428.00 3489.03 58.00
747 43.3100 2.097736 2951.00 3035.07 54.00
748 43.3600 2.095433 2756.00 2824.13 52.00
749 43.4100 2.093136 2793.00 2739.07 52.00
750 43.4600 2.090844 2735.00 2710.16 52.00
751 43.5100 2.088558 2785.00 2706.16 52.00
752 43.5600 2.086277 2778.00 2722.32 52.00
753 43.6100 2.084002 3035.00 2776.78 55.00
754 43.6600 2.081731 3145.00 2915.92 56.00
755 43.7100 2.079467 3352.00 3220.15 57.00
756 43.7600 2.077207 3840.00 3793.17 61.00
757 43.8100 2.074953 4774.00 4716.86 69.00
758 43.8600 2.072704 5909.00 5974.21 76.00
759 43.9100 2.070460 7269.00 7380.93 85.00
760 43.9600 2.068222 8559.00 8595.91 92.00
761 44.0100 2.065988 9143.00 9243.57 95.00
762 44.0600 2.063760 9097.00 9099.41 95.00
763 44.1100 2.061538 8482.00 8214.33 92.00
764 44.1600 2.059320 7104.00 6886.26 84.00
765 44.2100 2.057107 5606.00 5500.44 74.00
766 44.2600 2.054900 4334.00 4357.09 65.00
767 44.3100 2.052698 3673.00 3596.45 60.00
768 44.3600 2.050501 3413.00 3243.40 58.00
769 44.4100 2.048309 3599.00 3321.60 59.00
770 44.4600 2.046122 4309.00 3964.25 65.00
771 44.5100 2.043940 5867.00 5456.32 76.00
772 44.5600 2.041763 8374.00 8149.50 91.00
773 44.6100 2.039591 12006.00 12221.50 109.00
774 44.6600 2.037424 16774.00 17357.70 129.00
775 44.7100 2.035262 21831.00 22581.10 147.00
776 44.7600 2.033105 25644.00 26463.80 160.00
777 44.8100 2.030953 26911.00 27744.50 164.00
778 44.8600 2.028806 25231.00 26018.50 158.00
779 44.9100 2.026664 21909.00 22045.30 148.00
780 44.9600 2.024527 18048.00 17511.60 134.00
781 45.0100 2.022395 15366.00 14523.00 123.00
782 45.0600 2.020267 16316.00 15223.60 127.00
783 45.1100 2.018145 22268.00 21593.80 149.00
784 45.1600 2.016027 35077.00 35029.50 187.00
785 45.2100 2.013914 55018.00 55390.60 234.00
786 45.2600 2.011806 79724.00 79868.10 282.00
787 45.3100 2.009703 103435.00 102821.00 321.00
788 45.3600 2.007604 118804.00 117531.00 344.00
789 45.4100 2.005510 121304.00 119396.00 348.00
790 45.4600 2.003421 109162.00 108604.00 330.00
791 45.5100 2.001337 90162.00 90219.70 300.00
792 45.5600 1.999257 71109.00 71525.60 266.00
793 45.6100 1.997182 56945.00 58389.40 238.00
794 45.6600 1.995112 51120.00 52924.40 226.00
795 45.7100 1.993047 51984.00 53416.90 228.00
796 45.7600 1.990986 54959.00 55971.90 234.00
797 45.8100 1.988930 56113.00 56666.40 236.00
798 45.8600 1.986878 53272.00 53191.50 230.00
799 45.9100 1.984831 45849.00 45470.00 214.00
800 45.9600 1.982789 35024.00 35203.40 187.00
801 46.0100 1.980751 24817.00 24750.90 157.00
802 46.0600 1.978717 15945.00 16008.30 126.00
803 46.1100 1.976688 9927.00 9820.96 99.00
804 46.1600 1.974664 6065.00 6061.62 77.00
805 46.2100 1.972645 4342.00 4086.08 65.00
806 46.2600 1.970629 3432.00 3188.39 58.00
807 46.3100 1.968619 3137.00 2848.41 56.00
808 46.3600 1.966612 2997.00 2778.40 54.00
809 46.4100 1.964611 3110.00 2868.16 55.00
810 46.4600 1.962613 3281.00 3111.01 57.00
811 46.5100 1.960620 3481.00 3536.95 59.00
812 46.5600 1.958632 4158.00 4151.15 64.00
813 46.6100 1.956648 4942.00 4884.53 70.00
814 46.6600 1.954668 5547.00 5582.26 74.00
815 46.7100 1.952693 6034.00 6057.57 77.00
816 46.7600 1.950722 6109.00 6197.56 78.00
817 46.8100 1.948755 5940.00 6061.49 77.00
818 46.8600 1.946793 5748.00 5901.24 75.00
819 46.9100 1.944835 5728.00 6071.92 75.00
820 46.9600 1.942881 6567.00 6860.92 81.00
821 47.0100 1.940932 7861.00 8308.61 88.00
822 47.0600 1.938986 9731.00 10114.00 98.00
823 47.1100 1.937046 11418.00 11706.70 106.00
824 47.1600 1.935109 12086.00 12488.90 109.00
825 47.2100 1.933177 11903.00 12135.00 109.00
826 47.2600 1.931249 10635.00 10756.20 103.00
827 47.3100 1.929325 8658.00 8817.62 93.00
828 47.3600 1.927405 6516.00 6873.87 80.00
829 47.4100 1.925489 5031.00 5311.88 70.00
830 47.4600 1.923578 3978.00 4251.80 63.00
831 47.5100 1.921671 3453.00 3612.36 58.00
832 47.5600 1.919768 3180.00 3241.47 56.00
833 47.6100 1.917869 2880.00 3013.55 53.00
834 47.6600 1.915974 2728.00 2859.63 52.00
835 47.7100 1.914083 2722.00 2752.41 52.00
836 47.7600 1.912197 2733.00 2681.97 52.00
837 47.8100 1.910314 2662.00 2641.64 51.00
838 47.8600 1.908435 2735.00 2626.90 52.00
839 47.9100 1.906561 2778.00 2643.73 52.00
840 47.9600 1.904691 2890.00 2726.41 53.00
841 48.0100 1.902824 3249.00 2969.20 57.00
842 48.0600 1.900962 3890.00 3571.25 62.00
843 48.1100 1.899103 5334.00 4871.03 73.00
844 48.1600 1.897249 8036.00 7311.51 89.00
845 48.2100 1.895399 12059.00 11268.50 109.00
846 48.2600 1.893552 16935.00 16734.10 130.00
847 48.3100 1.891710 23093.00 23009.20 151.00
848 48.3600 1.889871 28753.00 28683.00 169.00
849 48.4100 1.888037 31681.00 32082.10 177.00
850 48.4600 1.886206 30865.00 32056.80 175.00
851 48.5100 1.884379 27727.00 28602.30 166.00
852 48.5600 1.882556 22223.00 22868.50 149.00
853 48.6100 1.880737 16050.00 16544.40 126.00
854 48.6600 1.878922 10592.00 11062.30 102.00
855 48.7100 1.877111 6887.00 7125.39 82.00
856 48.7600 1.875304 4644.00 4728.17 68.00
857 48.8100 1.873500 3602.00 3475.57 60.00
858 48.8600 1.871700 3048.00 2913.02 55.00
859 48.9100 1.869904 2918.00 2704.68 54.00
860 48.9600 1.868112 2847.00 2667.14 53.00
861 49.0100 1.866324 2866.00 2732.79 53.00
862 49.0600 1.864539 3021.00 2899.85 54.00
863 49.1100 1.862758 3377.00 3188.01 58.00
864 49.1600 1.860981 3706.00 3597.84 60.00
865 49.2100 1.859208 3997.00 4078.89 63.00
866 49.2600 1.857438 4439.00 4523.04 66.00
867 49.3100 1.855672 4628.00 4798.21 68.00
868 49.3600 1.853910 4618.00 4810.20 67.00
869 49.4100 1.852152 4359.00 4554.24 66.00
870 49.4600 1.850397 3898.00 4117.63 62.00
871 49.5100 1.848646 3564.00 3631.87 59.00
872 49.5600 1.846898 3111.00 3209.38 55.00
873 49.6100 1.845154 2739.00 2905.57 52.00
874 49.6600 1.843414 2649.00 2720.43 51.00
875 49.7100 1.841678 2544.00 2623.34 50.00
876 49.7600 1.839945 2567.00 2578.93 50.00
877 49.8100 1.838215 2658.00 2560.81 51.00
878 49.8600 1.836490 2583.00 2553.83 50.00
879 49.9100 1.834767 2488.00 2550.89 49.00
880 49.9600 1.833049 2430.00 2549.25 49.00
881 50.0100 1.831334 2374.00 2548.05 48.00
882 50.0600 1.829623 2595.00 2547.29 50.00
883 50.1100 1.827915 2535.00 2547.74 50.00
884 50.1600 1.826210 2582.00 2551.54 50.00
885 50.2100 1.824509 2592.00 2563.51 50.00
886 50.2600 1.822812 2617.00 2592.39 51.00
887 50.3100 1.821118 2554.00 2650.97 50.00
888 50.3600 1.819428 2890.00 2753.16 53.00
889 50.4100 1.817741 2918.00 2908.81 54.00
890 50.4600 1.816058 3188.00 3121.87 56.00
891 50.5100 1.814378 3374.00 3400.90 58.00
892 50.5600 1.812701 3777.00 3785.10 61.00
893 50.6100 1.811028 4154.00 4369.21 64.00
894 50.6600 1.809359 5130.00 5291.74 71.00
895 50.7100 1.807692 6575.00 6659.28 81.00
896 50.7600 1.806030 8383.00 8425.15 91.00
897 50.8100 1.804370 10317.00 10304.90 101.00
898 50.8600 1.802714 12167.00 11821.40 110.00
899 50.9100 1.801062 12713.00 12494.00 112.00
900 50.9600 1.799412 12274.00 12077.70 110.00
901 51.0100 1.797766 10714.00 10690.50 103.00
902 51.0600 1.796124 8555.00 8747.01 92.00
903 51.1100 1.794485 6512.00 6749.64 80.00
904 51.1600 1.792849 4805.00 5079.85 69.00
905 51.2100 1.791216 3718.00 3899.43 60.00
906 51.2600 1.789587 2999.00 3181.13 54.00
907 51.3100 1.787961 2735.00 2801.81 52.00
908 51.3600 1.786339 2629.00 2629.22 51.00
909 51.4100 1.784719 2553.00 2567.81 50.00
910 51.4600 1.783103 2624.00 2566.74 51.00
911 51.5100 1.781490 2617.00 2608.96 51.00
912 51.5600 1.779881 2656.00 2694.59 51.00
913 51.6100 1.778274 2752.00 2824.18 52.00
914 51.6600 1.776671 2916.00 2984.65 54.00
915 51.7100 1.775072 3105.00 3143.94 55.00
916 51.7600 1.773475 3207.00 3260.24 56.00
917 51.8100 1.771881 3159.00 3304.86 56.00
918 51.8600 1.770291 3185.00 3286.78 56.00
919 51.9100 1.768704 3297.00 3262.46 57.00
920 51.9600 1.767120 3337.00 3320.83 57.00
921 52.0100 1.765540 3552.00 3545.48 59.00
922 52.0600 1.763962 3832.00 3966.50 61.00
923 52.1100 1.762388 4515.00 4523.93 67.00
924 52.1600 1.760816 5082.00 5068.25 71.00
925 52.2100 1.759248 5522.00 5414.04 74.00
926 52.2600 1.757683 5282.00 5427.11 72.00
927 52.3100 1.756121 5061.00 5093.95 71.00
928 52.3600 1.754562 4569.00 4525.20 67.00
929 52.4100 1.753007 3868.00 3891.85 62.00
930 52.4600 1.751454 3240.00 3340.84 56.00
931 52.5100 1.749905 2887.00 2945.27 53.00
932 52.5600 1.748358 2715.00 2705.96 52.00
933 52.6100 1.746815 2667.00 2585.17 51.00
934 52.6600 1.745275 2555.00 2541.90 50.00
935 52.7100 1.743737 2599.00 2551.45 50.00
936 52.7600 1.742203 2652.00 2608.49 51.00
937 52.8100 1.740672 2709.00 2718.91 52.00
938 52.8600 1.739144 2889.00 2885.49 53.00
939 52.9100 1.737618 3091.00 3093.62 55.00
940 52.9600 1.736096 3342.00 3306.51 57.00
941 53.0100 1.734577 3385.00 3477.90 58.00
942 53.0600 1.733061 3513.00 3579.65 59.00
943 53.1100 1.731548 3600.00 3626.35 60.00
944 53.1600 1.730038 3624.00 3676.00 60.00
945 53.2100 1.728530 3803.00 3799.87 61.00
946 53.2600 1.727026 4090.00 4036.93 63.00
947 53.3100 1.725525 4426.00 4360.25 66.00
948 53.3600 1.724026 4743.00 4677.20 68.00
949 53.4100 1.722531 5048.00 4866.99 71.00
950 53.4600 1.721038 4831.00 4837.95 69.00
951 53.5100 1.719548 4506.00 4573.58 67.00
952 53.5600 1.718061 4176.00 4139.76 64.00
953 53.6100 1.716578 3750.00 3649.75 61.00
954 53.6600 1.715097 3142.00 3210.84 56.00
955 53.7100 1.713619 2770.00 2886.53 52.00
956 53.7600 1.712143 2633.00 2693.60 51.00
957 53.8100 1.710671 2575.00 2626.93 50.00
958 53.8600 1.709201 2683.00 2692.96 51.00
959 53.9100 1.707735 2948.00 2931.87 54.00
960 53.9600 1.706271 3446.00 3413.16 58.00
961 54.0100 1.704810 4116.00 4195.70 64.00
962 54.0600 1.703351 5263.00 5259.40 72.00
963 54.1100 1.701896 6525.00 6446.98 80.00
964 54.1600 1.700444 7584.00 7471.35 87.00
965 54.2100 1.698994 8063.00 8018.88 89.00
966 54.2600 1.697547 7814.00 7901.85 88.00
967 54.3100 1.696103 7135.00 7161.75 84.00
968 54.3600 1.694661 6149.00 6045.52 78.00
969 54.4100 1.693223 4928.00 4874.62 70.00
970 54.4600 1.691787 3799.00 3900.57 61.00
971 54.5100 1.690354 3288.00 3236.68 57.00
972 54.5600 1.688923 2907.00 2882.16 53.00
973 54.6100 1.687496 2921.00 2791.05 54.00
974 54.6600 1.686071 2873.00 2928.73 53.00
975 54.7100 1.684649 3079.00 3283.62 55.00
976 54.7600 1.683229 3766.00 3835.73 61.00
977 54.8100 1.681812 4473.00 4510.15 66.00
978 54.8600 1.680398 5303.00 5156.44 72.00
979 54.9100 1.678987 5482.00 5584.89 74.00
980 54.9600 1.677578 5681.00 5650.36 75.00
981 55.0100 1.676172 5485.00 5329.09 74.00
982 55.0600 1.674769 4832.00 4732.11 69.00
983 55.1100 1.673368 4254.00 4043.32 65.00
984 55.1600 1.671970 3689.00 3429.51 60.00
985 55.2100 1.670575 3062.00 2980.42 55.00
986 55.2600 1.669183 2752.00 2705.83 52.00
987 55.3100 1.667792 2665.00 2570.88 51.00
988 55.3600 1.666405 2535.00 2536.89 50.00
989 55.4100 1.665020 2549.00 2585.56 50.00
990 55.4600 1.663638 2792.00 2722.27 52.00
991 55.5100 1.662258 3028.00 2961.67 55.00
992 55.5600 1.660881 3321.00 3302.40 57.00
993 55.6100 1.659507 3603.00 3703.17 60.00
994 55.6600 1.658135 4137.00 4077.49 64.00
995 55.7100 1.656766 4330.00 4319.69 65.00
996 55.7600 1.655399 4349.00 4352.38 65.00
997 55.8100 1.654035 4222.00 4166.20 64.00
998 55.8600 1.652674 3742.00 3823.88 61.00
999 55.9100 1.651315 3475.00 3426.27 58.00
1000 55.9600 1.649958 3097.00 3065.09 55.00
1001 56.0100 1.648605 2793.00 2791.91 52.00
1002 56.0600 1.647253 2670.00 2614.95 51.00
1003 56.1100 1.645904 2544.00 2515.24 50.00
1004 56.1600 1.644558 2516.00 2465.85 50.00
1005 56.2100 1.643214 2468.00 2444.11 49.00
1006 56.2600 1.641873 2441.00 2435.42 49.00
1007 56.3100 1.640534 2494.00 2432.11 49.00
1008 56.3600 1.639198 2333.00 2430.74 48.00
1009 56.4100 1.637864 2290.00 2429.99 47.00
1010 56.4600 1.636533 2471.00 2429.42 49.00
1011 56.5100 1.635204 2362.00 2428.90 48.00
1012 56.5600 1.633878 2484.00 2428.39 49.00
1013 56.6100 1.632554 2449.00 2427.90 49.00
1014 56.6600 1.631233 2376.00 2427.45 48.00
1015 56.7100 1.629914 2332.00 2427.13 48.00
1016 56.7600 1.628597 2283.00 2427.28 47.00
1017 56.8100 1.627283 2327.00 2428.86 48.00
1018 56.8600 1.625971 2514.00 2434.29 50.00
1019 56.9100 1.624662 2498.00 2448.55 49.00
1020 56.9600 1.623355 2399.00 2479.99 48.00
1021 57.0100 1.622051 2533.00 2539.20 50.00
1022 57.0600 1.620749 2772.00 2634.25 52.00
1023 57.1100 1.619449 2717.00 2762.77 52.00
1024 57.1600 1.618152 2970.00 2905.19 54.00
1025 57.2100 1.616857 3150.00 3026.29 56.00
1026 57.2600 1.615564 3151.00 3088.16 56.00
1027 57.3100 1.614274 3137.00 3069.13 56.00
1028 57.3600 1.612986 3048.00 2975.83 55.00
1029 57.4100 1.611701 2932.00 2839.51 54.00
1030 57.4600 1.610418 2635.00 2699.36 51.00
1031 57.5100 1.609137 2587.00 2585.41 50.00
1032 57.5600 1.607859 2499.00 2511.48 49.00
1033 57.6100 1.606583 2489.00 2480.15 49.00
1034 57.6600 1.605309 2510.00 2493.40 50.00
1035 57.7100 1.604038 2490.00 2560.79 49.00
1036 57.7600 1.602769 2732.00 2698.97 52.00
1037 57.8100 1.601502 2835.00 2920.13 53.00
1038 57.8600 1.600237 3314.00 3212.86 57.00
1039 57.9100 1.598975 3645.00 3527.77 60.00
1040 57.9600 1.597715 3815.00 3783.53 61.00
1041 58.0100 1.596458 3980.00 3898.64 63.00
1042 58.0600 1.595203 4014.00 3832.59 63.00
1043 58.1100 1.593950 3760.00 3608.69 61.00
1044 58.1600 1.592699 3324.00 3300.85 57.00
1045 58.2100 1.591450 3043.00 2994.35 55.00
1046 58.2600 1.590204 2828.00 2748.92 53.00
1047 58.3100 1.588960 2623.00 2584.87 51.00
1048 58.3600 1.587718 2496.00 2492.33 49.00
1049 58.4100 1.586479 2493.00 2450.44 49.00
1050 58.4600 1.585242 2546.00 2443.06 50.00
1051 58.5100 1.584007 2428.00 2466.98 49.00
1052 58.5600 1.582774 2602.00 2533.59 51.00
1053 58.6100 1.581543 2633.00 2664.82 51.00
1054 58.6600 1.580315 2827.00 2881.12 53.00
1055 58.7100 1.579089 3145.00 3182.34 56.00
1056 58.7600 1.577865 3399.00 3529.32 58.00
1057 58.8100 1.576643 3805.00 3843.02 61.00
1058 58.8600 1.575424 3960.00 4031.05 62.00
1059 58.9100 1.574206 3911.00 4032.70 62.00
1060 58.9600 1.572991 3710.00 3854.15 60.00
1061 59.0100 1.571778 3468.00 3568.23 58.00
1062 59.0600 1.570567 3217.00 3280.58 56.00
1063 59.1100 1.569359 3040.00 3090.84 55.00
1064 59.1600 1.568152 3052.00 3077.28 55.00
1065 59.2100 1.566948 3239.00 3309.19 56.00
1066 59.2600 1.565746 3697.00 3858.89 60.00
1067 59.3100 1.564545 4812.00 4777.85 69.00
1068 59.3600 1.563348 5882.00 6027.87 76.00
1069 59.4100 1.562152 7452.00 7412.38 86.00
1070 59.4600 1.560958 8711.00 8584.60 93.00
1071 59.5100 1.559766 9249.00 9172.18 96.00
1072 59.5600 1.558577 9222.00 8965.33 96.00
1073 59.6100 1.557390 8268.00 8041.47 90.00
1074 59.6600 1.556204 6761.00 6732.06 82.00
1075 59.7100 1.555021 5511.00 5455.68 74.00
1076 59.7600 1.553840 4438.00 4535.20 66.00
1077 59.8100 1.552661 3943.00 4100.11 62.00
1078 59.8600 1.551484 4033.00 4093.64 63.00
1079 59.9100 1.550309 4341.00 4347.16 65.00
1080 59.9600 1.549137 4719.00 4673.62 68.00
1081 60.0100 1.547966 5026.00 4947.94 70.00
1082 60.0600 1.546797 5153.00 5145.06 71.00
1083 60.1100 1.545631 5424.00 5312.78 73.00
1084 60.1600 1.544466 5554.00 5494.37 74.00
1085 60.2100 1.543304 5558.00 5659.11 74.00
1086 60.2600 1.542144 5780.00 5701.50 76.00
1087 60.3100 1.540985 5590.00 5513.31 74.00
1088 60.3600 1.539829 5231.00 5068.39 72.00
1089 60.4100 1.538674 4417.00 4449.23 66.00
1090 60.4600 1.537522 3747.00 3799.99 61.00
1091 60.5100 1.536372 3221.00 3248.67 56.00
1092 60.5600 1.535224 2896.00 2857.69 53.00
1093 60.6100 1.534077 2568.00 2623.66 50.00
1094 60.6600 1.532933 2541.00 2508.47 50.00
1095 60.7100 1.531791 2579.00 2472.79 50.00
1096 60.7600 1.530651 2585.00 2494.42 50.00
1097 60.8100 1.529512 2639.00 2569.71 51.00
1098 60.8600 1.528376 2626.00 2703.33 51.00
1099 60.9100 1.527242 2871.00 2891.98 53.00
1100 60.9600 1.526109 3139.00 3110.90 56.00
1101 61.0100 1.524979 3336.00 3313.09 57.00
1102 61.0600 1.523851 3359.00 3449.00 57.00
1103 61.1100 1.522724 3357.00 3498.76 57.00
1104 61.1600 1.521600 3265.00 3496.93 57.00
1105 61.2100 1.520477 3459.00 3527.37 58.00
1106 61.2600 1.519356 3580.00 3682.51 59.00
1107 61.3100 1.518238 4020.00 4004.63 63.00
1108 61.3600 1.517121 4471.00 4443.15 66.00
1109 61.4100 1.516006 4861.00 4859.47 69.00
1110 61.4600 1.514893 5252.00 5087.49 72.00
1111 61.5100 1.513783 5366.00 5019.25 73.00
1112 61.5600 1.512673 4761.00 4661.39 69.00
1113 61.6100 1.511566 4104.00 4125.84 64.00
1114 61.6600 1.510461 3685.00 3564.17 60.00
1115 61.7100 1.509358 3149.00 3095.52 56.00
1116 61.7600 1.508256 2973.00 2770.06 54.00
1117 61.8100 1.507157 2703.00 2577.98 51.00
1118 61.8600 1.506059 2530.00 2480.67 50.00
1119 61.9100 1.504963 2469.00 2438.57 49.00
1120 61.9600 1.503870 2565.00 2424.85 50.00
1121 62.0100 1.502777 2517.00 2427.96 50.00
1122 62.0600 1.501687 2555.00 2450.85 50.00
1123 62.1100 1.500599 2577.00 2512.31 50.00
1124 62.1600 1.499513 2588.00 2650.25 50.00
1125 62.2100 1.498428 2895.00 2921.93 53.00
1126 62.2600 1.497345 3329.00 3392.40 57.00
1127 62.3100 1.496264 4060.00 4106.01 63.00
1128 62.3600 1.495185 5020.00 5045.41 70.00
1129 62.4100 1.494108 6197.00 6097.52 78.00
1130 62.4600 1.493033 7214.00 7056.84 84.00
1131 62.5100 1.491960 7721.00 7680.14 87.00
1132 62.5600 1.490888 7944.00 7782.54 89.00
1133 62.6100 1.489818 7462.00 7323.98 86.00
1134 62.6600 1.488750 6451.00 6434.21 80.00
1135 62.7100 1.487684 5394.00 5355.07 73.00
1136 62.7600 1.486619 4206.00 4334.51 64.00
1137 62.8100 1.485557 3475.00 3538.33 58.00
1138 62.8600 1.484496 3021.00 3024.18 54.00
1139 62.9100 1.483437 2883.00 2774.56 53.00
1140 62.9600 1.482380 2836.00 2752.04 53.00
1141 63.0100 1.481324 2911.00 2936.19 53.00
1142 63.0600 1.480271 3412.00 3321.63 58.00
1143 63.1100 1.479219 4049.00 3883.77 63.00
1144 63.1600 1.478169 4678.00 4538.33 68.00
1145 63.2100 1.477120 5202.00 5132.93 72.00
1146 63.2600 1.476074 5470.00 5491.16 73.00
1147 63.3100 1.475029 5696.00 5492.91 75.00
1148 63.3600 1.473986 5104.00 5139.05 71.00
1149 63.4100 1.472945 4531.00 4552.92 67.00
1150 63.4600 1.471905 3996.00 3918.80 63.00
1151 63.5100 1.470867 3363.00 3405.11 57.00
1152 63.5600 1.469831 3152.00 3119.52 56.00
1153 63.6100 1.468797 3095.00 3108.69 55.00
1154 63.6600 1.467764 3342.00 3374.01 57.00
1155 63.7100 1.466734 3883.00 3872.91 62.00
1156 63.7600 1.465705 4529.00 4503.83 67.00
1157 63.8100 1.464677 4963.00 5104.51 70.00
1158 63.8600 1.463651 5409.00 5491.17 73.00
1159 63.9100 1.462627 5326.00 5532.49 72.00
1160 63.9600 1.461605 5102.00 5213.72 71.00
1161 64.0100 1.460585 4527.00 4642.04 67.00
1162 64.0600 1.459566 3845.00 3989.05 62.00
1163 64.1100 1.458549 3376.00 3410.23 58.00
1164 64.1600 1.457533 3091.00 2994.83 55.00
1165 64.2100 1.456519 2748.00 2764.27 52.00
1166 64.2600 1.455507 2718.00 2705.11 52.00
1167 64.3100 1.454497 2853.00 2801.53 53.00
1168 64.3600 1.453488 3087.00 3045.52 55.00
1169 64.4100 1.452481 3536.00 3420.04 59.00
1170 64.4600 1.451476 3810.00 3871.54 61.00
1171 64.5100 1.450472 4343.00 4298.24 65.00
1172 64.5600 1.449470 4550.00 4574.66 67.00
1173 64.6100 1.448470 4472.00 4606.91 66.00
1174 64.6600 1.447471 4347.00 4382.21 65.00
1175 64.7100 1.446474 3938.00 3976.21 62.00
1176 64.7600 1.445478 3671.00 3511.74 60.00
1177 64.8100 1.444485 3162.00 3099.10 56.00
1178 64.8600 1.443492 2968.00 2796.67 54.00
1179 64.9100 1.442502 2782.00 2609.37 52.00
1180 64.9600 1.441513 2584.00 2510.44 50.00
1181 65.0100 1.440526 2405.00 2466.91 49.00
1182 65.0600 1.439540 2407.00 2454.40 49.00
1183 65.1100 1.438556 2502.00 2460.92 50.00
1184 65.1600 1.437574 2512.00 2484.16 50.00
1185 65.2100 1.436593 2701.00 2526.30 51.00
1186 65.2600 1.435614 2636.00 2587.91 51.00
1187 65.3100 1.434636 2785.00 2662.55 52.00
1188 65.3600 1.433660 2755.00 2734.82 52.00
1189 65.4100 1.432686 2758.00 2784.42 52.00
1190 65.4600 1.431713 2702.00 2795.54 51.00
1191 65.5100 1.430742 2737.00 2766.22 52.00
1192 65.5600 1.429773 2648.00 2712.38 51.00
1193 65.6100 1.428805 2588.00 2665.97 50.00
1194 65.6600 1.427838 2505.00 2672.39 50.00
1195 65.7100 1.426873 2671.00 2790.79 51.00
1196 65.7600 1.425910 2983.00 3091.84 54.00
1197 65.8100 1.424949 3607.00 3638.86 60.00
1198 65.8600 1.423988 4369.00 4444.64 66.00
1199 65.9100 1.423030 5218.00 5419.23 72.00
1200 65.9600 1.422073 6221.00 6354.45 78.00
1201 66.0100 1.421117 7055.00 6980.96 83.00
1202 66.0600 1.420164 6982.00 7089.58 83.00
1203 66.1100 1.419211 6720.00 6642.17 81.00
1204 66.1600 1.418260 5757.00 5793.14 75.00
1205 66.2100 1.417311 4735.00 4804.93 68.00
1206 66.2600 1.416363 3839.00 3922.44 61.00
1207 66.3100 1.415417 3297.00 3290.04 57.00
1208 66.3600 1.414473 2933.00 2950.86 54.00
1209 66.4100 1.413530 2965.00 2903.04 54.00
1210 66.4600 1.412588 3182.00 3156.62 56.00
1211 66.5100 1.411648 3571.00 3746.79 59.00
1212 66.5600 1.410709 4442.00 4689.51 66.00
1213 66.6100 1.409772 5601.00 5905.17 74.00
1214 66.6600 1.408837 6787.00 7166.68 82.00
1215 66.7100 1.407903 7840.00 8138.43 88.00
1216 66.7600 1.406970 8295.00 8508.36 91.00
1217 66.8100 1.406039 7965.00 8147.92 89.00
1218 66.8600 1.405110 7090.00 7182.60 84.00
1219 66.9100 1.404182 5778.00 5922.50 76.00
1220 66.9600 1.403255 4477.00 4702.86 66.00
1221 67.0100 1.402330 3840.00 3747.44 61.00
1222 67.0600 1.401407 3296.00 3127.48 57.00
1223 67.1100 1.400485 3000.00 2807.96 54.00
1224 67.1600 1.399564 2923.00 2726.09 54.00
1225 67.2100 1.398645 2964.00 2846.50 54.00
1226 67.2600 1.397727 3403.00 3172.12 58.00
1227 67.3100 1.396811 3762.00 3712.88 61.00
1228 67.3600 1.395897 4514.00 4434.20 67.00
1229 67.4100 1.394983 5313.00 5218.36 72.00
1230 67.4600 1.394072 5917.00 5881.43 76.00
1231 67.5100 1.393161 6171.00 6253.95 78.00
1232 67.5600 1.392252 6176.00 6287.20 78.00
1233 67.6100 1.391345 6052.00 6106.45 77.00
1234 67.6600 1.390439 5871.00 5957.45 76.00
1235 67.7100 1.389535 5838.00 6064.81 76.00
1236 67.7600 1.388631 6229.00 6487.84 78.00
1237 67.8100 1.387730 7003.00 7069.79 83.00
1238 67.8600 1.386830 7465.00 7519.94 86.00
1239 67.9100 1.385931 7630.00 7577.77 87.00
1240 67.9600 1.385033 7056.00 7153.78 84.00
1241 68.0100 1.384138 6281.00 6357.56 79.00
1242 68.0600 1.383243 5451.00 5411.45 73.00
1243 68.1100 1.382350 4544.00 4525.40 67.00
1244 68.1600 1.381458 3809.00 3820.72 61.00
1245 68.2100 1.380568 3244.00 3327.00 56.00
1246 68.2600 1.379679 2945.00 3024.33 54.00
1247 68.3100 1.378792 3009.00 2882.85 54.00
1248 68.3600 1.377906 2924.00 2880.52 54.00
1249 68.4100 1.377021 3115.00 3004.95 55.00
1250 68.4600 1.376138 3438.00 3259.44 58.00
1251 68.5100 1.375256 3698.00 3690.44 60.00
1252 68.5600 1.374376 4260.00 4434.73 65.00
1253 68.6100 1.373496 5376.00 5750.40 73.00
1254 68.6600 1.372619 7424.00 7959.45 86.00
1255 68.7100 1.371742 10491.00 11258.80 102.00
1256 68.7600 1.370867 14692.00 15446.50 121.00
1257 68.8100 1.369994 19329.00 19758.10 139.00
1258 68.8600 1.369122 23124.00 23023.70 152.00
1259 68.9100 1.368251 24668.00 24161.10 157.00
1260 68.9600 1.367381 23330.00 22740.90 152.00
1261 69.0100 1.366513 19628.00 19227.90 140.00
1262 69.0600 1.365647 15262.00 14723.10 123.00
1263 69.1100 1.364781 10310.00 10398.70 101.00
1264 69.1600 1.363917 6916.00 7027.48 83.00
1265 69.2100 1.363055 4617.00 4836.67 67.00
1266 69.2600 1.362193 3428.00 3671.45 58.00
1267 69.3100 1.361333 3064.00 3241.32 55.00
1268 69.3600 1.360475 3280.00 3290.22 57.00
1269 69.4100 1.359617 3675.00 3636.83 60.00
1270 69.4600 1.358762 4024.00 4135.05 63.00
1271 69.5100 1.357907 4613.00 4630.58 67.00
1272 69.5600 1.357054 4756.00 4964.36 68.00
1273 69.6100 1.356202 5029.00 5020.75 70.00
1274 69.6600 1.355351 4865.00 4779.64 69.00
1275 69.7100 1.354502 4348.00 4325.65 65.00
1276 69.7600 1.353654 3706.00 3804.05 60.00
1277 69.8100 1.352808 3348.00 3355.56 57.00
1278 69.8600 1.351962 2972.00 3072.66 54.00
1279 69.9100 1.351118 2906.00 2995.57 53.00
1280 69.9600 1.350275 3056.00 3127.55 55.00
1281 70.0100 1.349434 3490.00 3444.14 59.00
1282 70.0600 1.348594 3912.00 3885.55 62.00
1283 70.1100 1.347755 4570.00 4348.86 67.00
1284 70.1600 1.346918 4677.00 4703.70 68.00
1285 70.2100 1.346081 4963.00 4839.77 70.00
1286 70.2600 1.345247 4846.00 4720.56 69.00
1287 70.3100 1.344413 4517.00 4408.05 67.00
1288 70.3600 1.343581 4201.00 4036.34 64.00
1289 70.4100 1.342750 3718.00 3750.71 60.00
1290 70.4600 1.341920 3536.00 3646.97 59.00
1291 70.5100 1.341091 3530.00 3743.64 59.00
1292 70.5600 1.340264 3808.00 3993.71 61.00
1293 70.6100 1.339438 4233.00 4324.69 65.00
1294 70.6600 1.338614 4459.00 4678.55 66.00
1295 70.7100 1.337790 4716.00 5025.25 68.00
1296 70.7600 1.336968 5029.00 5340.40 70.00
1297 70.8100 1.336147 5468.00 5572.88 73.00
1298 70.8600 1.335328 5804.00 5641.13 76.00
1299 70.9100 1.334509 5921.00 5474.05 76.00
1300 70.9600 1.333692 5304.00 5065.77 72.00
1301 71.0100 1.332876 4729.00 4495.32 68.00
1302 71.0600 1.332062 3854.00 3891.96 62.00
1303 71.1100 1.331249 3356.00 3373.66 57.00
1304 71.1600 1.330436 3092.00 3006.70 55.00
1305 71.2100 1.329626 2957.00 2805.54 54.00
1306 71.2600 1.328816 2765.00 2765.07 52.00
1307 71.3100 1.328008 2878.00 2895.91 53.00
1308 71.3600 1.327201 3151.00 3238.68 56.00
1309 71.4100 1.326395 3593.00 3842.95 59.00
1310 71.4600 1.325590 4572.00 4714.66 67.00
1311 71.5100 1.324787 5668.00 5755.60 75.00
1312 71.5600 1.323985 6631.00 6745.87 81.00
1313 71.6100 1.323184 7587.00 7405.29 87.00
1314 71.6600 1.322384 7634.00 7517.47 87.00
1315 71.7100 1.321585 7095.00 7044.14 84.00
1316 71.7600 1.320788 6247.00 6145.71 79.00
1317 71.8100 1.319992 5051.00 5094.81 71.00
1318 71.8600 1.319197 4081.00 4143.65 63.00
1319 71.9100 1.318403 3392.00 3434.08 58.00
1320 71.9600 1.317611 2983.00 2985.67 54.00
1321 72.0100 1.316819 2793.00 2742.49 52.00
1322 72.0600 1.316029 2677.00 2628.60 51.00
1323 72.1100 1.315240 2676.00 2582.54 51.00
1324 72.1600 1.314453 2557.00 2566.77 50.00
1325 72.2100 1.313666 2578.00 2562.66 50.00
1326 72.2600 1.312881 2584.00 2562.63 50.00
1327 72.3100 1.312097 2463.00 2564.65 49.00
1328 72.3600 1.311314 2533.00 2570.46 50.00
1329 72.4100 1.310532 2587.00 2587.73 50.00
1330 72.4600 1.309752 2597.00 2637.43 50.00
1331 72.5100 1.308972 2878.00 2767.19 53.00
1332 72.5600 1.308194 3176.00 3067.71 56.00
1333 72.6100 1.307417 3767.00 3679.91 61.00
1334 72.6600 1.306641 4704.00 4770.01 68.00
1335 72.7100 1.305866 6235.00 6457.24 78.00
1336 72.7600 1.305093 8162.00 8701.86 90.00
1337 72.8100 1.304320 10842.00 11218.70 104.00
1338 72.8600 1.303549 13236.00 13496.40 115.00
1339 72.9100 1.302779 14875.00 14954.20 121.00
1340 72.9600 1.302010 15082.00 15183.50 122.00
1341 73.0100 1.301243 14369.00 14131.20 119.00
1342 73.0600 1.300476 12219.00 12117.20 110.00
1343 73.1100 1.299711 9485.00 9680.21 97.00
1344 73.1600 1.298946 7194.00 7356.14 84.00
1345 73.2100 1.298183 5499.00 5512.73 74.00
1346 73.2600 1.297421 4348.00 4317.93 65.00
1347 73.3100 1.296660 3863.00 3820.21 62.00
1348 73.3600 1.295901 3925.00 4072.49 62.00
1349 73.4100 1.295142 4907.00 5208.90 70.00
1350 73.4600 1.294384 6960.00 7400.50 83.00
1351 73.5100 1.293628 10126.00 10674.90 100.00
1352 73.5600 1.292873 13946.00 14687.00 118.00
1353 73.6100 1.292119 18355.00 18623.40 135.00
1354 73.6600 1.291366 21162.00 21399.70 145.00
1355 73.7100 1.290614 22255.00 22125.70 149.00
1356 73.7600 1.289863 21042.00 20567.70 145.00
1357 73.8100 1.289114 17759.00 17283.40 133.00
1358 73.8600 1.288365 13794.00 13323.70 117.00
1359 73.9100 1.287618 9746.00 9731.24 98.00
1360 73.9600 1.286872 7151.00 7154.22 84.00
1361 74.0100 1.286127 5737.00 5770.55 75.00
1362 74.0600 1.285383 5417.00 5421.22 73.00
1363 74.1100 1.284640 5850.00 5786.82 76.00
1364 74.1600 1.283898 6395.00 6492.77 79.00
1365 74.2100 1.283157 7287.00 7162.34 85.00
1366 74.2600 1.282418 7828.00 7480.95 88.00
1367 74.3100 1.281679 7655.00 7282.54 87.00
1368 74.3600 1.280942 6984.00 6603.09 83.00
1369 74.4100 1.280205 5852.00 5647.55 76.00
1370 74.4600 1.279470 4768.00 4683.48 69.00
1371 74.5100 1.278736 4090.00 3936.19 63.00
1372 74.5600 1.278003 3718.00 3547.42 60.00
1373 74.6100 1.277271 3578.00 3602.67 59.00
1374 74.6600 1.276540 4143.00 4174.83 64.00
1375 74.7100 1.275810 5133.00 5320.85 71.00
1376 74.7600 1.275081 6752.00 7010.39 82.00
1377 74.8100 1.274354 8630.00 9031.09 92.00
1378 74.8600 1.273627 10808.00 10961.00 103.00
1379 74.9100 1.272902 12341.00 12275.50 111.00
1380 74.9600 1.272177 12796.00 12565.10 113.00
1381 75.0100 1.271454 12185.00 11737.20 110.00
1382 75.0600 1.270731 10365.00 10062.80 101.00
1383 75.1100 1.270010 8218.00 8033.38 90.00
1384 75.1600 1.269290 6089.00 6132.26 78.00
1385 75.2100 1.268571 4718.00 4658.73 68.00
1386 75.2600 1.267853 3808.00 3693.00 61.00
1387 75.3100 1.267136 3339.00 3164.67 57.00
1388 75.3600 1.266420 3211.00 2954.70 56.00
1389 75.4100 1.265705 3106.00 2965.35 55.00
1390 75.4600 1.264991 3261.00 3138.04 57.00
1391 75.5100 1.264278 3534.00 3434.43 59.00
1392 75.5600 1.263566 3890.00 3807.97 62.00
1393 75.6100 1.262855 4276.00 4191.43 65.00
1394 75.6600 1.262146 4577.00 4512.17 67.00
1395 75.7100 1.261437 4805.00 4724.79 69.00
1396 75.7600 1.260729 4748.00 4831.17 68.00
1397 75.8100 1.260023 4676.00 4866.82 68.00
1398 75.8600 1.259317 4611.00 4861.05 67.00
1399 75.9100 1.258612 4505.00 4806.46 67.00
1400 75.9600 1.257909 4424.00 4666.40 66.00
1401 76.0100 1.257206 4166.00 4413.56 64.00
1402 76.0600 1.256505 4012.00 4063.79 63.00
1403 76.1100 1.255804 3773.00 3676.36 61.00
1404 76.1600 1.255105 3466.00 3324.77 58.00
1405 76.2100 1.254407 3145.00 3065.67 56.00
1406 76.2600 1.253709 2946.00 2929.77 54.00
1407 76.3100 1.253013 2874.00 2935.62 53.00
1408 76.3600 1.252317 3182.00 3109.70 56.00
1409 76.4100 1.251623 3427.00 3490.93 58.00
1410 76.4600 1.250930 3895.00 4108.38 62.00
1411 76.5100 1.250237 4770.00 4937.06 69.00
1412 76.5600 1.249546 5773.00 5861.94 75.00
1413 76.6100 1.248855 6489.00 6686.87 80.00
1414 76.6600 1.248166 7245.00 7203.29 85.00
1415 76.7100 1.247478 7515.00 7290.20 86.00
1416 76.7600 1.246791 7053.00 6976.18 83.00
1417 76.8100 1.246104 6292.00 6416.24 79.00
1418 76.8600 1.245419 5786.00 5797.51 76.00
1419 76.9100 1.244734 5281.00 5244.12 72.00
1420 76.9600 1.244051 4892.00 4783.13 69.00
1421 77.0100 1.243369 4448.00 4380.39 66.00
1422 77.0600 1.242687 3917.00 3999.67 62.00
1423 77.1100 1.242007 3580.00 3636.99 59.00
1424 77.1600 1.241327 3273.00 3316.44 57.00
1425 77.2100 1.240649 3017.00 3064.67 54.00
1426 77.2600 1.239971 2953.00 2891.75 54.00
1427 77.3100 1.239295 2940.00 2788.38 54.00
1428 77.3600 1.238619 2882.00 2734.80 53.00
1429 77.4100 1.237944 2650.00 2711.29 51.00
1430 77.4600 1.237271 2788.00 2703.98 52.00
1431 77.5100 1.236598 2788.00 2706.29 52.00
1432 77.5600 1.235927 2710.00 2718.11 52.00
1433 77.6100 1.235256 2783.00 2744.85 52.00
1434 77.6600 1.234586 3002.00 2795.78 54.00
1435 77.7100 1.233917 3099.00 2880.34 55.00
1436 77.7600 1.233249 3286.00 3001.40 57.00
1437 77.8100 1.232583 3321.00 3147.90 57.00
1438 77.8600 1.231917 3425.00 3292.19 58.00
1439 77.9100 1.231252 3767.00 3396.79 61.00
1440 77.9600 1.230588 3702.00 3430.10 60.00
1441 78.0100 1.229925 3601.00 3382.30 60.00
1442 78.0600 1.229262 3575.00 3271.71 59.00
1443 78.1100 1.228601 3353.00 3139.33 57.00
1444 78.1600 1.227941 3153.00 3041.35 56.00
1445 78.2100 1.227282 3266.00 3055.52 57.00
1446 78.2600 1.226623 3594.00 3312.44 59.00
1447 78.3100 1.225966 4168.00 4042.66 64.00
1448 78.3600 1.225309 5392.00 5603.67 73.00
1449 78.4100 1.224654 8121.00 8422.28 90.00
1450 78.4600 1.223999 12223.00 12816.10 110.00
1451 78.5100 1.223346 18438.00 18730.70 135.00
1452 78.5600 1.222693 25667.00 25561.80 160.00
1453 78.6100 1.222041 32118.00 32244.50 179.00
1454 78.6600 1.221390 38027.00 37614.30 195.00
1455 78.7100 1.220740 41240.00 40839.50 203.00
1456 78.7600 1.220091 42067.00 41600.90 205.00
1457 78.8100 1.219443 40351.00 39988.60 200.00
1458 78.8600 1.218796 36753.00 36303.20 191.00
1459 78.9100 1.218150 31157.00 31003.20 176.00
1460 78.9600 1.217504 25192.00 24763.70 158.00
1461 79.0100 1.216860 18728.00 18450.00 136.00
1462 79.0600 1.216216 13065.00 12904.30 114.00
1463 79.1100 1.215574 8754.00 8667.26 93.00
1464 79.1600 1.214932 5911.00 5860.13 76.00
1465 79.2100 1.214291 4333.00 4274.27 65.00
1466 79.2600 1.213651 3739.00 3582.67 61.00
1467 79.3100 1.213012 3710.00 3514.65 60.00
1468 79.3600 1.212374 4068.00 3920.99 63.00
1469 79.4100 1.211737 5034.00 4730.91 70.00
1470 79.4600 1.211101 6048.00 5854.28 77.00
1471 79.5100 1.210465 7267.00 7097.69 85.00
1472 79.5600 1.209831 8516.00 8159.35 92.00
1473 79.6100 1.209197 9004.00 8724.24 94.00
1474 79.6600 1.208565 8929.00 8606.65 94.00
1475 79.7100 1.207933 8127.00 7848.73 90.00
1476 79.7600 1.207302 6747.00 6699.31 82.00
1477 79.8100 1.206672 5410.00 5490.26 73.00
1478 79.8600 1.206043 4436.00 4495.16 66.00
1479 79.9100 1.205414 3968.00 3854.15 62.00
1480 79.9600 1.204787 3493.00 3577.28 59.00
1481 80.0100 1.204161 3552.00 3592.36 59.00
1482 80.0600 1.203535 3863.00 3788.05 62.00
1483 80.1100 1.202910 4142.00 4041.87 64.00
1484 80.1600 1.202286 4357.00 4242.91 66.00
1485 80.2100 1.201663 4446.00 4319.95 66.00
1486 80.2600 1.201041 4401.00 4264.75 66.00
1487 80.3100 1.200420 4251.00 4131.96 65.00
1488 80.3600 1.199800 4055.00 4008.23 63.00
1489 80.4100 1.199180 3879.00 3967.54 62.00
1490 80.4600 1.198562 4049.00 4042.98 63.00
1491 80.5100 1.197944 4320.00 4235.88 65.00
1492 80.5600 1.197327 4440.00 4556.54 66.00
1493 80.6100 1.196711 4945.00 5066.00 70.00
1494 80.6600 1.196096 5623.00 5878.76 74.00
1495 80.7100 1.195481 6939.00 7108.33 83.00
1496 80.7600 1.194868 8563.00 8768.04 92.00
1497 80.8100 1.194255 10490.00 10681.00 102.00
1498 80.8600 1.193644 12449.00 12466.40 111.00
1499 80.9100 1.193033 13721.00 13641.10 117.00
1500 80.9600 1.192423 13910.00 13816.00 117.00
1501 81.0100 1.191813 12881.00 12884.60 113.00
1502 81.0600 1.191205 11183.00 11086.40 105.00
1503 81.1100 1.190598 8872.00 8894.88 94.00
1504 81.1600 1.189991 6795.00 6806.04 82.00
1505 81.2100 1.189385 5129.00 5150.14 71.00
1506 81.2600 1.188780 3973.00 4032.12 63.00
1507 81.3100 1.188176 3345.00 3382.83 57.00
1508 81.3600 1.187573 3041.00 3059.72 55.00
1509 81.4100 1.186970 3002.00 2927.05 54.00
1510 81.4600 1.186369 2897.00 2889.33 53.00
1511 81.5100 1.185768 2765.00 2890.87 52.00
1512 81.5600 1.185168 2901.00 2902.39 53.00
1513 81.6100 1.184569 2892.00 2909.52 53.00
1514 81.6600 1.183971 2941.00 2906.82 54.00
1515 81.7100 1.183373 2803.00 2895.22 52.00
1516 81.7600 1.182777 2795.00 2880.01 52.00
1517 81.8100 1.182181 2823.00 2868.67 53.00
1518 81.8600 1.181586 2847.00 2868.78 53.00
1519 81.9100 1.180992 2747.00 2886.54 52.00
1520 81.9600 1.180398 2830.00 2925.18 53.00
1521 82.0100 1.179806 2848.00 2982.63 53.00
1522 82.0600 1.179214 2852.00 3049.55 53.00
1523 82.1100 1.178623 3003.00 3110.05 54.00
1524 82.1600 1.178033 2960.00 3146.67 54.00
1525 82.2100 1.177444 3090.00 3148.42 55.00
1526 82.2600 1.176856 3028.00 3117.70 55.00
1527 82.3100 1.176268 2966.00 3073.19 54.00
1528 82.3600 1.175681 2930.00 3050.31 54.00
1529 82.4100 1.175095 3030.00 3104.57 55.00
1530 82.4600 1.174510 3253.00 3319.32 57.00
1531 82.5100 1.173926 3639.00 3808.63 60.00
1532 82.5600 1.173342 4451.00 4695.13 66.00
1533 82.6100 1.172759 5735.00 6047.98 75.00
1534 82.6600 1.172177 7442.00 7792.62 86.00
1535 82.7100 1.171596 9583.00 9652.23 97.00
1536 82.7600 1.171016 11296.00 11185.40 106.00
1537 82.8100 1.170436 12175.00 11947.50 110.00
1538 82.8600 1.169858 11892.00 11696.20 109.00
1539 82.9100 1.169279 10646.00 10515.80 103.00
1540 82.9600 1.168702 8701.00 8772.05 93.00
1541 83.0100 1.168126 6933.00 6931.70 83.00
1542 83.0600 1.167550 5368.00 5367.69 73.00
1543 83.1100 1.166976 4102.00 4258.92 64.00
1544 83.1600 1.166401 3608.00 3613.95 60.00
1545 83.2100 1.165828 3401.00 3354.20 58.00
1546 83.2600 1.165256 3194.00 3392.87 56.00
1547 83.3100 1.164684 3540.00 3664.34 59.00
1548 83.3600 1.164113 4070.00 4108.46 63.00
1549 83.4100 1.163543 4708.00 4638.45 68.00
1550 83.4600 1.162974 5335.00 5128.18 73.00
1551 83.5100 1.162405 5665.00 5438.41 75.00
1552 83.5600 1.161838 5553.00 5471.70 74.00
1553 83.6100 1.161270 5165.00 5218.90 71.00
1554 83.6600 1.160704 4778.00 4762.86 69.00
1555 83.7100 1.160139 4239.00 4234.93 65.00
1556 83.7600 1.159574 3775.00 3755.49 61.00
1557 83.8100 1.159010 3252.00 3393.04 57.00
1558 83.8600 1.158447 3016.00 3159.34 54.00
1559 83.9100 1.157885 2903.00 3030.65 53.00
1560 83.9600 1.157323 2868.00 2973.55 53.00
1561 84.0100 1.156762 2945.00 2962.89 54.00
1562 84.0600 1.156202 2892.00 2990.16 53.00
1563 84.1100 1.155643 3037.00 3066.74 55.00
1564 84.1600 1.155084 3208.00 3223.22 56.00
1565 84.2100 1.154526 3641.00 3501.60 60.00
1566 84.2600 1.153969 3930.00 3935.90 62.00
1567 84.3100 1.153413 4367.00 4525.98 66.00
1568 84.3600 1.152858 5130.00 5222.61 71.00
1569 84.4100 1.152303 6036.00 5942.67 77.00
1570 84.4600 1.151749 6720.00 6622.22 81.00
1571 84.5100 1.151196 7211.00 7272.99 84.00
1572 84.5600 1.150643 7984.00 7992.04 89.00
1573 84.6100 1.150091 8814.00 8891.72 93.00
1574 84.6600 1.149540 9961.00 9979.48 99.00
1575 84.7100 1.148990 11221.00 11077.70 105.00
1576 84.7600 1.148440 12059.00 11857.10 109.00
1577 84.8100 1.147892 12169.00 11989.40 110.00
1578 84.8600 1.147344 11349.00 11324.60 106.00
1579 84.9100 1.146796 9846.00 9976.64 99.00
1580 84.9600 1.146250 8092.00 8265.48 89.00
1581 85.0100 1.145704 6503.00 6565.08 80.00
1582 85.0600 1.145159 5275.00 5157.01 72.00
1583 85.1100 1.144614 4110.00 4162.32 64.00
1584 85.1600 1.144071 3521.00 3564.33 59.00
1585 85.2100 1.143528 3308.00 3273.28 57.00
1586 85.2600 1.142986 3239.00 3187.39 56.00
1587 85.3100 1.142444 3278.00 3223.77 57.00
1588 85.3600 1.141904 3384.00 3325.81 58.00
1589 85.4100 1.141364 3506.00 3463.42 59.00
1590 85.4600 1.140824 3703.00 3638.12 60.00
1591 85.5100 1.140286 4015.00 3888.84 63.00
1592 85.5600 1.139748 4214.00 4283.46 64.00
1593 85.6100 1.139211 4704.00 4885.23 68.00
1594 85.6600 1.138675 5653.00 5700.88 75.00
1595 85.7100 1.138139 6476.00 6645.88 80.00
1596 85.7600 1.137604 7406.00 7558.78 86.00
1597 85.8100 1.137070 8272.00 8271.11 90.00
1598 85.8600 1.136537 8760.00 8688.75 93.00
1599 85.9100 1.136004 8599.00 8825.78 92.00
1600 85.9600 1.135472 8661.00 8774.38 93.00
1601 86.0100 1.134941 8671.00 8651.56 93.00
1602 86.0600 1.134410 8672.00 8582.31 93.00
1603 86.1100 1.133880 8694.00 8723.03 93.00
1604 86.1600 1.133351 9163.00 9263.32 95.00
1605 86.2100 1.132822 10145.00 10345.30 100.00
1606 86.2600 1.132295 11791.00 11924.60 108.00
1607 86.3100 1.131768 13529.00 13686.00 116.00
1608 86.3600 1.131241 15141.00 15128.20 123.00
1609 86.4100 1.130716 15702.00 15801.30 125.00
1610 86.4600 1.130191 15357.00 15550.00 123.00
1611 86.5100 1.129666 14105.00 14576.40 118.00
1612 86.5600 1.129143 12853.00 13278.00 113.00
1613 86.6100 1.128620 11695.00 11986.90 108.00
1614 86.6600 1.128098 10695.00 10812.80 103.00
1615 86.7100 1.127576 9334.00 9676.51 96.00
1616 86.7600 1.127056 8293.00 8468.63 91.00
1617 86.8100 1.126536 7099.00 7181.31 84.00
1618 86.8600 1.126016 5906.00 5922.02 76.00
1619 86.9100 1.125498 4705.00 4837.44 68.00
1620 86.9600 1.124980 3918.00 4023.59 62.00
1621 87.0100 1.124462 3399.00 3491.75 58.00
1622 87.0600 1.123946 2964.00 3188.17 54.00
1623 87.1100 1.123430 3004.00 3036.31 54.00
1624 87.1600 1.122915 2878.00 2969.74 53.00
1625 87.2100 1.122400 2939.00 2944.30 54.00
1626 87.2600 1.121886 2831.00 2936.08 53.00
1627 87.3100 1.121373 2799.00 2934.15 52.00
1628 87.3600 1.120861 2882.00 2934.28 53.00
1629 87.4100 1.120349 2877.00 2935.12 53.00
1630 87.4600 1.119838 2841.00 2936.57 53.00
1631 87.5100 1.119327 2931.00 2939.29 54.00
1632 87.5600 1.118818 2911.00 2944.95 53.00
1633 87.6100 1.118309 2841.00 2956.65 53.00
1634 87.6600 1.117800 2856.00 2979.12 53.00
1635 87.7100 1.117292 3032.00 3018.33 55.00
1636 87.7600 1.116785 3161.00 3080.62 56.00
1637 87.8100 1.116279 3250.00 3173.77 57.00
1638 87.8600 1.115773 3518.00 3314.67 59.00
1639 87.9100 1.115268 3806.00 3547.95 61.00
1640 87.9600 1.114764 4340.00 3974.50 65.00
1641 88.0100 1.114260 5153.00 4771.79 71.00
1642 88.0600 1.113757 6524.00 6172.79 80.00
1643 88.1100 1.113255 8693.00 8372.24 93.00
1644 88.1600 1.112753 11325.00 11367.30 106.00
1645 88.2100 1.112252 14396.00 14813.50 119.00
1646 88.2600 1.111751 17695.00 18017.00 133.00
1647 88.3100 1.111252 20033.00 20147.90 141.00
1648 88.3600 1.110753 20764.00 20601.70 144.00
1649 88.4100 1.110254 19443.00 19302.50 139.00
1650 88.4600 1.109757 17009.00 16743.20 130.00
1651 88.5100 1.109259 13985.00 13731.90 118.00
1652 88.5600 1.108763 11111.00 11005.70 105.00
1653 88.6100 1.108267 9142.00 8951.59 95.00
1654 88.6600 1.107772 7871.00 7570.07 88.00
1655 88.7100 1.107278 6885.00 6631.68 82.00
1656 88.7600 1.106784 6166.00 5886.64 78.00
1657 88.8100 1.106291 5406.00 5195.87 73.00
1658 88.8600 1.105798 4658.00 4544.33 68.00
1659 88.9100 1.105306 4037.00 3981.58 63.00
1660 88.9600 1.104815 3486.00 3553.43 59.00
1661 89.0100 1.104325 3226.00 3269.32 56.00
1662 89.0600 1.103835 3111.00 3105.52 55.00
1663 89.1100 1.103345 3114.00 3025.77 55.00
1664 89.1600 1.102857 3150.00 3000.65 56.00
1665 89.2100 1.102369 2975.00 3018.14 54.00
1666 89.2600 1.101881 3038.00 3087.60 55.00
1667 89.3100 1.101395 3285.00 3238.98 57.00
1668 89.3600 1.100909 3488.00 3515.66 59.00
1669 89.4100 1.100423 3778.00 3956.30 61.00
1670 89.4600 1.099938 4351.00 4565.70 65.00
1671 89.5100 1.099454 5082.00 5285.45 71.00
1672 89.5600 1.098971 5876.00 5986.27 76.00
1673 89.6100 1.098488 6428.00 6499.31 80.00
1674 89.6600 1.098005 6600.00 6679.92 81.00
1675 89.7100 1.097524 6343.00 6473.81 79.00
1676 89.7600 1.097043 5940.00 5943.02 77.00
1677 89.8100 1.096562 5142.00 5236.32 71.00
1678 89.8600 1.096083 4401.00 4521.95 66.00
1679 89.9100 1.095604 3979.00 3925.55 63.00
1680 89.9600 1.095125 3521.00 3502.33 59.00
1681 90.0100 1.094647 3315.00 3250.18 57.00
1682 90.0600 1.094170 3305.00 3144.37 57.00
1683 90.1100 1.093693 3187.00 3175.40 56.00
1684 90.1600 1.093217 3432.00 3375.95 58.00
1685 90.2100 1.092742 3872.00 3829.72 62.00
1686 90.2600 1.092267 4705.00 4651.23 68.00
1687 90.3100 1.091793 5840.00 5927.66 76.00
1688 90.3600 1.091320 7568.00 7633.62 86.00
1689 90.4100 1.090847 9455.00 9555.55 97.00
1690 90.4600 1.090374 11497.00 11298.30 107.00
1691 90.5100 1.089903 12689.00 12401.70 112.00
1692 90.5600 1.089432 12730.00 12535.60 112.00
1693 90.6100 1.088961 11790.00 11658.70 108.00
1694 90.6600 1.088492 10042.00 10039.20 100.00
1695 90.7100 1.088022 8113.00 8123.11 90.00
1696 90.7600 1.087554 6112.00 6339.67 78.00
1697 90.8100 1.087086 4822.00 4958.16 69.00
1698 90.8600 1.086618 4032.00 4058.43 63.00
1699 90.9100 1.086152 3616.00 3595.27 60.00
1700 90.9600 1.085685 3352.00 3486.40 57.00
1701 91.0100 1.085220 3697.00 3672.12 60.00
1702 91.0600 1.084755 4047.00 4121.44 63.00
1703 91.1100 1.084291 4735.00 4797.77 68.00
1704 91.1600 1.083827 5471.00 5613.30 73.00
1705 91.2100 1.083364 6250.00 6411.20 79.00
1706 91.2600 1.082901 6785.00 6997.62 82.00
1707 91.3100 1.082439 7192.00 7217.81 84.00
1708 91.3600 1.081978 7019.00 7029.55 83.00
1709 91.4100 1.081517 6376.00 6524.83 79.00
1710 91.4600 1.081057 5659.00 5880.97 75.00
1711 91.5100 1.080598 5144.00 5273.69 71.00
1712 91.5600 1.080139 4768.00 4806.16 69.00
1713 91.6100 1.079680 4450.00 4490.78 66.00
1714 91.6600 1.079223 4352.00 4280.49 65.00
1715 91.7100 1.078766 4032.00 4115.73 63.00
1716 91.7600 1.078309 4123.00 3959.67 64.00
1717 91.8100 1.077853 4011.00 3809.56 63.00
1718 91.8600 1.077398 3694.00 3690.25 60.00
1719 91.9100 1.076943 3720.00 3639.75 60.00
1720 91.9600 1.076489 3674.00 3692.60 60.00
1721 92.0100 1.076035 3689.00 3865.55 60.00
1722 92.0600 1.075582 3933.00 4151.53 62.00
1723 92.1100 1.075130 4399.00 4530.71 66.00
1724 92.1600 1.074678 4766.00 5000.33 69.00
1725 92.2100 1.074226 5509.00 5609.71 74.00
1726 92.2600 1.073776 6140.00 6468.15 78.00
1727 92.3100 1.073326 7260.00 7696.06 85.00
1728 92.3600 1.072876 8912.00 9324.89 94.00
1729 92.4100 1.072427 10916.00 11194.70 104.00
1730 92.4600 1.071979 12691.00 12935.20 112.00
1731 92.5100 1.071531 14079.00 14071.10 118.00
1732 92.5600 1.071084 14400.00 14225.90 120.00
1733 92.6100 1.070637 13361.00 13303.50 115.00
1734 92.6600 1.070191 11743.00 11542.70 108.00
1735 92.7100 1.069746 9523.00 9408.52 97.00
1736 92.7600 1.069301 7445.00 7403.93 86.00
1737 92.8100 1.068856 5955.00 5914.33 77.00
1738 92.8600 1.068413 5369.00 5155.96 73.00
1739 92.9100 1.067969 5112.00 5212.33 71.00
1740 92.9600 1.067527 5917.00 6075.27 76.00
1741 93.0100 1.067085 7434.00 7637.58 86.00
1742 93.0600 1.066643 9556.00 9642.81 97.00
1743 93.1100 1.066202 11732.00 11664.70 108.00
1744 93.1600 1.065762 13603.00 13183.80 116.00
1745 93.2100 1.065322 14151.00 13769.20 118.00
1746 93.2600 1.064883 13676.00 13265.50 116.00
1747 93.3100 1.064444 12173.00 11872.80 110.00
1748 93.3600 1.064006 10073.00 10056.70 100.00
1749 93.4100 1.063569 8357.00 8356.10 91.00
1750 93.4600 1.063132 7045.00 7195.91 83.00
1751 93.5100 1.062695 6676.00 6793.77 81.00
1752 93.5600 1.062260 7119.00 7151.79 84.00
1753 93.6100 1.061824 7850.00 8088.22 88.00
1754 93.6600 1.061390 9327.00 9281.12 96.00
1755 93.7100 1.060955 10357.00 10338.80 101.00
1756 93.7600 1.060522 11049.00 10909.60 105.00
1757 93.8100 1.060089 10833.00 10809.00 104.00
1758 93.8600 1.059656 10116.00 10093.90 100.00
1759 93.9100 1.059224 9117.00 9034.69 95.00
1760 93.9600 1.058793 8330.00 7996.19 91.00
1761 94.0100 1.058362 7490.00 7300.30 86.00
1762 94.0600 1.057932 7186.00 7141.82 84.00
1763 94.1100 1.057502 7852.00 7579.01 88.00
1764 94.1600 1.057073 8527.00 8559.14 92.00
1765 94.2100 1.056644 9946.00 9928.96 99.00
1766 94.2600 1.056216 11303.00 11423.40 106.00
1767 94.3100 1.055789 12604.00 12679.40 112.00
1768 94.3600 1.055362 13292.00 13319.80 115.00
1769 94.4100 1.054935 13237.00 13093.20 115.00
1770 94.4600 1.054509 12020.00 11992.40 109.00
1771 94.5100 1.054084 10417.00 10266.80 102.00
1772 94.5600 1.053659 8456.00 8313.75 91.00
1773 94.6100 1.053235 6485.00 6514.48 80.00
1774 94.6600 1.052811 5153.00 5114.06 71.00
1775 94.7100 1.052388 4320.00 4192.21 65.00
1776 94.7600 1.051965 3979.00 3715.83 63.00
1777 94.8100 1.051543 3759.00 3615.95 61.00
1778 94.8600 1.051122 3889.00 3839.03 62.00
1779 94.9100 1.050701 4340.00 4351.56 65.00
1780 94.9600 1.050280 5254.00 5106.00 72.00
1781 95.0100 1.049860 5912.00 5997.38 76.00
1782 95.0600 1.049441 6994.00 6848.70 83.00
1783 95.1100 1.049022 7720.00 7448.78 87.00
1784 95.1600 1.048604 7895.00 7629.80 88.00
1785 95.2100 1.048186 7648.00 7346.99 87.00
1786 95.2600 1.047768 7014.00 6708.62 83.00
1787 95.3100 1.047352 6137.00 5941.45 78.00
1788 95.3600 1.046935 5504.00 5314.27 74.00
1789 95.4100 1.046520 5178.00 5062.43 71.00
1790 95.4600 1.046105 5531.00 5335.12 74.00
1791 95.5100 1.045690 6300.00 6161.70 79.00
1792 95.5600 1.045276 7487.00 7429.41 86.00
1793 95.6100 1.044862 9226.00 8890.79 96.00
1794 95.6600 1.044449 10688.00 10232.20 103.00
1795 95.7100 1.044037 11548.00 11221.70 107.00
1796 95.7600 1.043625 12156.00 11877.90 110.00
1797 95.8100 1.043213 12874.00 12565.60 113.00
1798 95.8600 1.042802 13672.00 13913.90 116.00
1799 95.9100 1.042392 15882.00 16541.10 126.00
1800 95.9600 1.041982 20151.00 20692.10 141.00
1801 96.0100 1.041572 25821.00 25972.30 160.00
1802 96.0600 1.041164 31574.00 31370.80 177.00
1803 96.1100 1.040755 36104.00 35607.90 190.00
1804 96.1600 1.040347 37703.00 37650.60 194.00
1805 96.2100 1.039940 36644.00 37112.00 191.00
1806 96.2600 1.039533 33801.00 34307.90 183.00
1807 96.3100 1.039127 29574.00 29996.00 171.00
1808 96.3600 1.038721 25457.00 25005.80 159.00
1809 96.4100 1.038316 20110.00 20002.60 141.00
1810 96.4600 1.037911 15791.00 15423.70 125.00
1811 96.5100 1.037507 11877.00 11532.70 108.00
1812 96.5600 1.037103 8873.00 8464.07 94.00
1813 96.6100 1.036700 6334.00 6237.00 79.00
1814 96.6600 1.036297 5126.00 4765.77 71.00
1815 96.7100 1.035895 4315.00 3892.52 65.00
1816 96.7600 1.035493 3793.00 3439.74 61.00
1817 96.8100 1.035092 3667.00 3255.37 60.00
1818 96.8600 1.034692 3529.00 3233.79 59.00
1819 96.9100 1.034292 3675.00 3312.61 60.00
1820 96.9600 1.033892 3699.00 3458.59 60.00
1821 97.0100 1.033493 3934.00 3657.75 62.00
1822 97.0600 1.033094 4331.00 3918.84 65.00
1823 97.1100 1.032696 4779.00 4289.01 69.00
1824 97.1600 1.032298 5346.00 4869.58 73.00
1825 97.2100 1.031901 6422.00 5816.17 80.00
1826 97.2600 1.031505 8040.00 7306.92 89.00
1827 97.3100 1.031108 9918.00 9478.12 99.00
1828 97.3600 1.030713 12600.00 12337.00 112.00
1829 97.4100 1.030318 15530.00 15678.50 124.00
1830 97.4600 1.029923 18690.00 19056.10 136.00
1831 97.5100 1.029529 20868.00 21839.30 144.00
1832 97.5600 1.029135 22747.00 23384.20 150.00
1833 97.6100 1.028742 22596.00 23265.60 150.00
1834 97.6600 1.028349 21049.00 21457.50 145.00
1835 97.7100 1.027957 18603.00 18364.00 136.00
1836 97.7600 1.027566 15017.00 14667.40 122.00
1837 97.8100 1.027174 11345.00 11073.00 106.00
1838 97.8600 1.026784 8410.00 8085.28 91.00
1839 97.9100 1.026394 6317.00 5916.27 79.00
1840 97.9600 1.026004 4858.00 4526.63 69.00
1841 98.0100 1.025615 4052.00 3739.75 63.00
1842 98.0600 1.025226 3484.00 3351.11 59.00
1843 98.1100 1.024838 3264.00 3193.44 57.00
1844 98.1600 1.024450 3267.00 3154.75 57.00
1845 98.2100 1.024063 3292.00 3168.27 57.00
1846 98.2600 1.023676 3153.00 3195.75 56.00
1847 98.3100 1.023290 3210.00 3215.26 56.00
1848 98.3600 1.022904 3198.00 3215.80 56.00
1849 98.4100 1.022519 3139.00 3195.51 56.00
1850 98.4600 1.022134 3106.00 3160.12 55.00
1851 98.5100 1.021750 2958.00 3119.98 54.00
1852 98.5600 1.021366 2939.00 3087.01 54.00
1853 98.6100 1.020983 2979.00 3073.63 54.00
1854 98.6600 1.020600 3080.00 3094.44 55.00
1855 98.7100 1.020217 3072.00 3169.00 55.00
1856 98.7600 1.019835 3244.00 3321.94 56.00
1857 98.8100 1.019454 3330.00 3576.04 57.00
1858 98.8600 1.019073 3745.00 3937.69 61.00
1859 98.9100 1.018692 4290.00 4379.16 65.00
1860 98.9600 1.018312 4648.00 4831.03 68.00
1861 99.0100 1.017933 5179.00 5194.36 71.00
1862 99.0600 1.017554 5417.00 5374.99 73.00
1863 99.1100 1.017175 5242.00 5324.42 72.00
1864 99.1600 1.016797 4791.00 5064.19 69.00
1865 99.2100 1.016420 4559.00 4678.76 67.00
1866 99.2600 1.016043 4192.00 4281.55 64.00
1867 99.3100 1.015666 3948.00 3972.34 62.00
1868 99.3600 1.015290 3739.00 3806.92 61.00
1869 99.4100 1.014914 3641.00 3788.12 60.00
1870 99.4600 1.014539 3797.00 3875.21 61.00
1871 99.5100 1.014164 3969.00 4005.87 63.00
1872 99.5600 1.013790 3990.00 4124.55 63.00
1873 99.6100 1.013416 4047.00 4211.29 63.00
1874 99.6600 1.013042 4306.00 4301.63 65.00
1875 99.7100 1.012669 4445.00 4487.05 66.00
1876 99.7600 1.012297 4817.00 4888.29 69.00
1877 99.8100 1.011925 5375.00 5605.37 73.00
1878 99.8600 1.011554 6335.00 6661.34 79.00
1879 99.9100 1.011182 7926.00 7968.98 89.00
1880 99.9600 1.010812 9550.00 9350.97 97.00
1881 100.0100 1.010442 10819.00 10612.90 104.00
1882 100.0600 1.010072 11710.00 11635.10 108.00
1883 100.1100 1.009703 12264.00 12419.00 110.00
1884 100.1600 1.009334 12597.00 13042.40 112.00
1885 100.2100 1.008966 13467.00 13553.10 116.00
1886 100.2600 1.008598 14004.00 13878.20 118.00
1887 100.3100 1.008231 14245.00 13831.40 119.00
1888 100.3600 1.007864 13551.00 13223.50 116.00
1889 100.4100 1.007497 12316.00 11999.40 110.00
1890 100.4600 1.007132 10340.00 10300.50 101.00
1891 100.5100 1.006766 8264.00 8416.05 90.00
1892 100.5600 1.006401 6562.00 6658.00 81.00
1893 100.6100 1.006036 5009.00 5244.29 70.00
1894 100.6600 1.005672 4138.00 4253.04 64.00
1895 100.7100 1.005309 3600.00 3644.71 60.00
1896 100.7600 1.004945 3298.00 3321.21 57.00
1897 100.8100 1.004583 3223.00 3178.74 56.00
1898 100.8600 1.004220 3170.00 3135.93 56.00
1899 100.9100 1.003858 3118.00 3139.95 55.00
1900 100.9600 1.003497 3201.00 3161.08 56.00
1901 101.0100 1.003136 3077.00 3185.19 55.00
1902 101.0600 1.002775 3137.00 3207.44 56.00
1903 101.1100 1.002415 3115.00 3227.30 55.00
1904 101.1600 1.002056 3128.00 3244.28 55.00
1905 101.2100 1.001697 3246.00 3255.48 56.00
1906 101.2600 1.001338 3140.00 3255.80 56.00
1907 101.3100 1.000980 3154.00 3240.73 56.00
1908 101.3600 1.000622 3017.00 3209.49 54.00
1909 101.4100 1.000264 3098.00 3166.31 55.00
1910 101.4600 0.999907 3079.00 3118.96 55.00
1911 101.5100 0.999551 2964.00 3075.75 54.00
1912 101.5600 0.999195 2940.00 3043.04 54.00
1913 101.6100 0.998839 2959.00 3024.99 54.00
1914 101.6600 0.998484 2962.00 3025.61 54.00
1915 101.7100 0.998129 3014.00 3052.66 54.00
1916 101.7600 0.997775 3087.00 3122.26 55.00
1917 101.8100 0.997421 3153.00 3262.82 56.00
1918 101.8600 0.997068 3410.00 3515.96 58.00
1919 101.9100 0.996715 3693.00 3929.72 60.00
1920 101.9600 0.996362 4239.00 4540.92 65.00
1921 102.0100 0.996010 5143.00 5347.23 71.00
1922 102.0600 0.995659 6053.00 6279.32 77.00
1923 102.1100 0.995307 7270.00 7193.78 85.00
1924 102.1600 0.994957 7989.00 7900.16 89.00
1925 102.2100 0.994606 8305.00 8223.80 91.00
1926 102.2600 0.994256 8264.00 8074.95 90.00
1927 102.3100 0.993907 7549.00 7489.28 86.00
1928 102.3600 0.993558 6545.00 6612.98 80.00
1929 102.4100 0.993209 5563.00 5643.76 74.00
1930 102.4600 0.992861 4534.00 4757.71 67.00
1931 102.5100 0.992513 3785.00 4062.11 61.00
1932 102.5600 0.992166 3502.00 3586.73 59.00
1933 102.6100 0.991819 3178.00 3306.09 56.00
1934 102.6600 0.991473 3040.00 3171.84 55.00
1935 102.7100 0.991127 3028.00 3136.47 55.00
1936 102.7600 0.990781 3002.00 3163.07 54.00
1937 102.8100 0.990436 3094.00 3223.95 55.00
1938 102.8600 0.990091 3364.00 3295.93 58.00
1939 102.9100 0.989747 3384.00 3357.91 58.00
1940 102.9600 0.989403 3374.00 3393.43 58.00
1941 103.0100 0.989060 3374.00 3396.26 58.00
1942 103.0600 0.988717 3247.00 3376.00 56.00
1943 103.1100 0.988374 3233.00 3360.68 56.00
1944 103.1600 0.988032 3311.00 3395.43 57.00
1945 103.2100 0.987690 3339.00 3536.92 57.00
1946 103.2600 0.987349 3622.00 3841.70 60.00
1947 103.3100 0.987008 4106.00 4346.78 64.00
1948 103.3600 0.986668 4910.00 5044.06 70.00
1949 103.4100 0.986328 5815.00 5858.78 76.00
1950 103.4600 0.985988 6625.00 6650.89 81.00
1951 103.5100 0.985649 7336.00 7248.77 85.00
1952 103.5600 0.985310 7676.00 7511.41 87.00
1953 103.6100 0.984972 7327.00 7388.90 85.00
1954 103.6600 0.984634 7000.00 6946.99 83.00
1955 103.7100 0.984296 6376.00 6340.41 79.00
1956 103.7600 0.983959 5696.00 5750.17 75.00
1957 103.8100 0.983623 5232.00 5320.93 72.00
1958 103.8600 0.983286 5163.00 5131.09 71.00
1959 103.9100 0.982950 5338.00 5203.14 73.00
1960 103.9600 0.982615 5737.00 5533.51 75.00
1961 104.0100 0.982280 6140.00 6112.11 78.00
1962 104.0600 0.981945 7056.00 6913.29 84.00
1963 104.1100 0.981611 8173.00 7865.76 90.00
1964 104.1600 0.981278 8995.00 8827.12 94.00
1965 104.2100 0.980944 9694.00 9596.61 98.00
1966 104.2600 0.980611 10215.00 9969.13 101.00
1967 104.3100 0.980279 10112.00 9814.27 100.00
1968 104.3600 0.979947 9300.00 9133.68 96.00
1969 104.4100 0.979615 8011.00 8064.91 89.00
1970 104.4600 0.979284 6635.00 6827.11 81.00
1971 104.5100 0.978953 5506.00 5641.33 74.00
1972 104.5600 0.978622 4452.00 4662.84 66.00
1973 104.6100 0.978292 3983.00 3955.86 63.00
1974 104.6600 0.977962 3572.00 3507.91 59.00
1975 104.7100 0.977633 3335.00 3263.80 57.00
1976 104.7600 0.977304 3141.00 3158.75 56.00
1977 104.8100 0.976976 3212.00 3137.13 56.00
1978 104.8600 0.976648 3078.00 3157.64 55.00
1979 104.9100 0.976320 3285.00 3191.32 57.00
1980 104.9600 0.975993 3315.00 3218.57 57.00
1981 105.0100 0.975666 3178.00 3228.55 56.00
1982 105.0600 0.975340 3261.00 3220.00 57.00
1983 105.1100 0.975014 3089.00 3201.80 55.00
1984 105.1600 0.974688 3075.00 3191.68 55.00
1985 105.2100 0.974363 3183.00 3212.73 56.00
1986 105.2600 0.974038 3184.00 3288.23 56.00
1987 105.3100 0.973714 3395.00 3434.68 58.00
1988 105.3600 0.973390 3688.00 3653.70 60.00
1989 105.4100 0.973066 3798.00 3924.79 61.00
1990 105.4600 0.972743 4033.00 4204.15 63.00
1991 105.5100 0.972420 4282.00 4432.48 65.00
1992 105.5600 0.972098 4571.00 4553.30 67.00
1993 105.6100 0.971776 4449.00 4533.89 66.00
1994 105.6600 0.971455 4243.00 4378.55 65.00
1995 105.7100 0.971133 4067.00 4126.84 63.00
1996 105.7600 0.970812 3765.00 3837.77 61.00
1997 105.8100 0.970492 3518.00 3568.49 59.00
1998 105.8600 0.970172 3169.00 3358.57 56.00
1999 105.9100 0.969852 3163.00 3225.07 56.00
2000 105.9600 0.969533 3144.00 3166.43 56.00
2001 106.0100 0.969214 3142.00 3169.99 56.00
2002 106.0600 0.968896 3170.00 3217.72 56.00
2003 106.1100 0.968578 3126.00 3289.10 55.00
2004 106.1600 0.968260 3390.00 3362.49 58.00
2005 106.2100 0.967943 3535.00 3417.53 59.00
2006 106.2600 0.967626 3427.00 3438.95 58.00
2007 106.3100 0.967310 3334.00 3420.34 57.00
2008 106.3600 0.966994 3365.00 3365.74 58.00
2009 106.4100 0.966678 3207.00 3287.62 56.00
2010 106.4600 0.966363 3179.00 3201.97 56.00
2011 106.5100 0.966048 3158.00 3123.10 56.00
2012 106.5600 0.965733 3013.00 3060.21 54.00
2013 106.6100 0.965419 3028.00 3017.08 55.00
2014 106.6600 0.965106 3093.00 2994.80 55.00
2015 106.7100 0.964792 3022.00 2996.74 54.00
2016 106.7600 0.964479 2930.00 3035.46 54.00
2017 106.8100 0.964167 3132.00 3140.77 55.00
2018 106.8600 0.963854 3584.00 3367.43 59.00
2019 106.9100 0.963543 3937.00 3796.50 62.00
2020 106.9600 0.963231 4551.00 4522.80 67.00
2021 107.0100 0.962920 5520.00 5620.13 74.00
2022 107.0600 0.962610 7034.00 7089.58 83.00
2023 107.1100 0.962299 8850.00 8809.79 94.00
2024 107.1600 0.961989 10760.00 10522.70 103.00
2025 107.2100 0.961680 12177.00 11885.00 110.00
2026 107.2600 0.961371 13021.00 12575.40 114.00
2027 107.3100 0.961062 12979.00 12417.70 113.00
2028 107.3600 0.960754 11862.00 11453.50 108.00
2029 107.4100 0.960446 9914.00 9924.61 99.00
2030 107.4600 0.960138 7986.00 8174.16 89.00
2031 107.5100 0.959831 6478.00 6523.87 80.00
2032 107.5600 0.959524 5114.00 5183.56 71.00
2033 107.6100 0.959218 4198.00 4225.89 64.00
2034 107.6600 0.958912 3732.00 3618.27 61.00
2035 107.7100 0.958606 3493.00 3275.46 59.00
2036 107.7600 0.958301 3360.00 3107.67 57.00
2037 107.8100 0.957996 3220.00 3046.19 56.00
2038 107.8600 0.957691 3166.00 3050.22 56.00
2039 107.9100 0.957387 3183.00 3102.09 56.00
2040 107.9600 0.957083 3225.00 3198.10 56.00
2041 108.0100 0.956780 3255.00 3339.04 57.00
2042 108.0600 0.956477 3438.00 3522.04 58.00
2043 108.1100 0.956174 3707.00 3734.75 60.00
2044 108.1600 0.955871 3993.00 3953.00 63.00
2045 108.2100 0.955570 4240.00 4143.53 65.00
2046 108.2600 0.955268 4334.00 4271.18 65.00
2047 108.3100 0.954967 4307.00 4309.04 65.00
2048 108.3600 0.954666 4259.00 4247.48 65.00
2049 108.4100 0.954365 3919.00 4097.92 62.00
2050 108.4600 0.954065 3948.00 3889.54 62.00
2051 108.5100 0.953766 3704.00 3660.03 60.00
2052 108.5600 0.953466 3467.00 3444.30 58.00
2053 108.6100 0.953167 3160.00 3265.96 56.00
2054 108.6600 0.952869 3120.00 3134.42 55.00
2055 108.7100 0.952570 3079.00 3047.20 55.00
2056 108.7600 0.952273 2876.00 2995.07 53.00
2057 108.8100 0.951975 2988.00 2967.23 54.00
2058 108.8600 0.951678 3024.00 2954.89 54.00
2059 108.9100 0.951381 2954.00 2952.93 54.00
2060 108.9600 0.951085 3024.00 2960.53 54.00
2061 109.0100 0.950789 2977.00 2981.53 54.00
2062 109.0600 0.950493 3189.00 3025.10 56.00
2063 109.1100 0.950198 3274.00 3106.39 57.00
2064 109.1600 0.949903 3350.00 3246.10 57.00
2065 109.2100 0.949608 3541.00 3467.60 59.00
2066 109.2600 0.949314 3690.00 3790.00 60.00
2067 109.3100 0.949020 4239.00 4217.26 65.00
2068 109.3600 0.948727 4827.00 4727.02 69.00
2069 109.4100 0.948433 5057.00 5263.96 71.00
2070 109.4600 0.948141 5748.00 5745.83 75.00
2071 109.5100 0.947848 6093.00 6082.58 78.00
2072 109.5600 0.947556 6235.00 6205.36 78.00
2073 109.6100 0.947265 6242.00 6092.38 79.00
2074 109.6600 0.946973 5982.00 5779.35 77.00
2075 109.7100 0.946682 5402.00 5349.16 73.00
2076 109.7600 0.946392 5012.00 4905.82 70.00
2077 109.8100 0.946101 4553.00 4544.50 67.00
2078 109.8600 0.945811 4591.00 4330.56 67.00
2079 109.9100 0.945522 4562.00 4293.54 67.00
2080 109.9600 0.945233 4651.00 4432.50 68.00
2081 110.0100 0.944944 4988.00 4724.09 70.00
2082 110.0600 0.944655 5116.00 5126.31 71.00
2083 110.1100 0.944367 5327.00 5577.39 72.00
2084 110.1600 0.944080 5735.00 5995.38 75.00
2085 110.2100 0.943792 6038.00 6289.00 77.00
2086 110.2600 0.943505 5994.00 6379.42 77.00
2087 110.3100 0.943218 6143.00 6227.90 78.00
2088 110.3600 0.942932 5889.00 5852.55 76.00
2089 110.4100 0.942646 5228.00 5324.53 72.00
2090 110.4600 0.942360 4728.00 4743.62 68.00
2091 110.5100 0.942075 4453.00 4207.05 66.00
2092 110.5600 0.941790 3905.00 3785.31 62.00
2093 110.6100 0.941506 3593.00 3515.19 59.00
2094 110.6600 0.941221 3413.00 3407.19 58.00
2095 110.7100 0.940938 3454.00 3457.61 58.00
2096 110.7600 0.940654 3776.00 3656.36 61.00
2097 110.8100 0.940371 4159.00 3985.18 64.00
2098 110.8600 0.940088 4548.00 4409.83 67.00
2099 110.9100 0.939805 4872.00 4872.18 69.00
2100 110.9600 0.939523 5270.00 5293.09 72.00
2101 111.0100 0.939242 5742.00 5587.37 75.00
2102 111.0600 0.938960 5914.00 5688.99 76.00
2103 111.1100 0.938679 5881.00 5574.27 76.00
2104 111.1600 0.938398 5363.00 5271.74 73.00
2105 111.2100 0.938118 4902.00 4853.00 70.00
2106 111.2600 0.937838 4505.00 4409.14 67.00
2107 111.3100 0.937558 4008.00 4023.08 63.00
2108 111.3600 0.937279 3617.00 3749.17 60.00
2109 111.4100 0.937000 3736.00 3605.71 61.00
2110 111.4600 0.936721 3691.00 3577.95 60.00
2111 111.5100 0.936443 3650.00 3628.25 60.00
2112 111.5600 0.936165 3738.00 3708.25 61.00
2113 111.6100 0.935887 3808.00 3771.70 61.00
2114 111.6600 0.935610 3788.00 3785.44 61.00
2115 111.7100 0.935333 3747.00 3736.55 61.00
2116 111.7600 0.935056 3733.00 3633.37 61.00
2117 111.8100 0.934780 3405.00 3500.44 58.00
2118 111.8600 0.934504 3382.00 3369.91 58.00
2119 111.9100 0.934228 3367.00 3273.93 58.00
2120 111.9600 0.933953 3354.00 3240.24 57.00
2121 112.0100 0.933678 3324.00 3291.33 57.00
2122 112.0600 0.933404 3559.00 3443.69 59.00
2123 112.1100 0.933130 3755.00 3704.24 61.00
2124 112.1600 0.932856 4085.00 4062.74 63.00
2125 112.2100 0.932582 4476.00 4484.55 66.00
2126 112.2600 0.932309 4875.00 4908.84 69.00
2127 112.3100 0.932036 5109.00 5258.28 71.00
2128 112.3600 0.931764 5405.00 5459.53 73.00
2129 112.4100 0.931491 5545.00 5466.83 74.00
2130 112.4600 0.931219 5185.00 5278.45 72.00
2131 112.5100 0.930948 4899.00 4937.25 69.00
2132 112.5600 0.930677 4398.00 4515.17 66.00
2133 112.6100 0.930406 4079.00 4089.11 63.00
2134 112.6600 0.930135 3788.00 3720.13 61.00
2135 112.7100 0.929865 3604.00 3442.19 60.00
2136 112.7600 0.929595 3383.00 3263.81 58.00
2137 112.8100 0.929326 3177.00 3176.00 56.00
2138 112.8600 0.929057 3215.00 3161.71 56.00
2139 112.9100 0.928788 3155.00 3202.37 56.00
2140 112.9600 0.928519 3166.00 3280.21 56.00
2141 113.0100 0.928251 3352.00 3378.36 57.00
2142 113.0600 0.927983 3540.00 3481.20 59.00
2143 113.1100 0.927716 3605.00 3576.34 60.00
2144 113.1600 0.927448 3684.00 3657.82 60.00
2145 113.2100 0.927181 3756.00 3728.71 61.00
2146 113.2600 0.926915 3836.00 3800.37 61.00
2147 113.3100 0.926649 3841.00 3887.81 61.00
2148 113.3600 0.926383 3998.00 4003.00 63.00
2149 113.4100 0.926117 4114.00 4149.08 64.00
2150 113.4600 0.925852 4336.00 4319.07 65.00
2151 113.5100 0.925587 4502.00 4498.26 67.00
2152 113.5600 0.925323 4744.00 4668.33 68.00
2153 113.6100 0.925058 4866.00 4809.89 69.00
2154 113.6600 0.924794 4843.00 4902.74 69.00
2155 113.7100 0.924531 4987.00 4926.92 70.00
2156 113.7600 0.924268 4776.00 4866.54 69.00
2157 113.8100 0.924005 4573.00 4717.12 67.00
2158 113.8600 0.923742 4469.00 4492.17 66.00
2159 113.9100 0.923480 4227.00 4225.28 65.00
2160 113.9600 0.923218 3909.00 3965.29 62.00
2161 114.0100 0.922956 3773.00 3767.44 61.00
2162 114.0600 0.922695 3760.00 3683.92 61.00
2163 114.1100 0.922434 3766.00 3755.71 61.00
2164 114.1600 0.922173 3956.00 4004.93 62.00
2165 114.2100 0.921913 4373.00 4426.14 66.00
2166 114.2600 0.921653 4884.00 4977.36 69.00
2167 114.3100 0.921393 5480.00 5577.22 74.00
2168 114.3600 0.921134 6414.00 6115.79 80.00
2169 114.4100 0.920875 6840.00 6479.09 82.00
2170 114.4600 0.920616 7125.00 6583.81 84.00
2171 114.5100 0.920358 6571.00 6405.34 81.00
2172 114.5600 0.920099 6162.00 5987.15 78.00
2173 114.6100 0.919842 5436.00 5426.22 73.00
2174 114.6600 0.919584 4853.00 4842.98 69.00
2175 114.7100 0.919327 4360.00 4350.20 66.00
2176 114.7600 0.919070 4320.00 4033.74 65.00
2177 114.8100 0.918814 4295.00 3946.48 65.00
2178 114.8600 0.918558 4289.00 4111.74 65.00
2179 114.9100 0.918302 4722.00 4525.04 68.00
2180 114.9600 0.918046 5262.00 5150.41 72.00
2181 115.0100 0.917791 5685.00 5913.22 75.00
2182 115.0600 0.917536 6320.00 6701.22 79.00
2183 115.1100 0.917281 6814.00 7378.62 82.00
2184 115.1600 0.917027 7498.00 7816.31 86.00
2185 115.2100 0.916773 7568.00 7928.31 86.00
2186 115.2600 0.916519 7542.00 7699.84 86.00
2187 115.3100 0.916266 7001.00 7195.05 83.00
2188 115.3600 0.916013 6711.00 6540.61 81.00
2189 115.4100 0.915760 6064.00 5893.07 77.00
2190 115.4600 0.915508 5535.00 5401.57 74.00
2191 115.5100 0.915256 5369.00 5176.80 73.00
2192 115.5600 0.915004 5436.00 5268.91 73.00
2193 115.6100 0.914753 5516.00 5658.05 74.00
2194 115.6600 0.914501 6208.00 6254.78 78.00
2195 115.7100 0.914251 6999.00 6917.33 83.00
2196 115.7600 0.914000 7492.00 7480.99 86.00
2197 115.8100 0.913750 7913.00 7803.10 88.00
2198 115.8600 0.913500 7887.00 7803.85 88.00
2199 115.9100 0.913251 7511.00 7490.51 86.00
2200 115.9600 0.913001 6907.00 6952.17 83.00
2201 116.0100 0.912752 6398.00 6326.88 79.00
2202 116.0600 0.912504 5773.00 5755.92 75.00
2203 116.1100 0.912255 5196.00 5344.55 72.00
2204 116.1600 0.912007 5405.00 5144.23 73.00
2205 116.2100 0.911759 5254.00 5157.65 72.00
2206 116.2600 0.911512 5587.00 5359.96 74.00
2207 116.3100 0.911265 5801.00 5719.37 76.00
2208 116.3600 0.911018 6044.00 6207.46 77.00
2209 116.4100 0.910772 6798.00 6791.65 82.00
2210 116.4600 0.910525 7431.00 7421.48 86.00
2211 116.5100 0.910280 7937.00 8017.50 89.00
2212 116.5600 0.910034 8405.00 8476.02 91.00
2213 116.6100 0.909789 8895.00 8693.92 94.00
2214 116.6600 0.909544 8420.00 8601.05 91.00
2215 116.7100 0.909299 8052.00 8186.98 89.00
2216 116.7600 0.909055 7226.00 7507.32 85.00
2217 116.8100 0.908811 6529.00 6667.89 80.00
2218 116.8600 0.908567 5709.00 5791.73 75.00
2219 116.9100 0.908323 4885.00 4986.96 69.00
2220 116.9600 0.908080 4258.00 4325.04 65.00
2221 117.0100 0.907837 3960.00 3835.14 62.00
2222 117.0600 0.907595 3657.00 3512.31 60.00
2223 117.1100 0.907353 3605.00 3330.40 60.00
2224 117.1600 0.907111 3502.00 3255.44 59.00
2225 117.2100 0.906869 3367.00 3253.75 58.00
2226 117.2600 0.906628 3430.00 3295.46 58.00
2227 117.3100 0.906387 3463.00 3355.50 58.00
2228 117.3600 0.906146 3404.00 3414.26 58.00
2229 117.4100 0.905905 3545.00 3459.23 59.00
2230 117.4600 0.905665 3526.00 3487.09 59.00
2231 117.5100 0.905425 3542.00 3505.13 59.00
2232 117.5600 0.905186 3548.00 3530.78 59.00
2233 117.6100 0.904947 3538.00 3588.98 59.00
2234 117.6600 0.904708 3786.00 3707.36 61.00
2235 117.7100 0.904469 3959.00 3909.82 62.00
2236 117.7600 0.904231 4141.00 4208.66 64.00
2237 117.8100 0.903993 4444.00 4597.21 66.00
2238 117.8600 0.903755 4847.00 5044.86 69.00
2239 117.9100 0.903518 5425.00 5498.01 73.00
2240 117.9600 0.903280 5916.00 5892.06 76.00
2241 118.0100 0.903044 6213.00 6168.79 78.00
2242 118.0600 0.902807 6315.00 6299.16 79.00
2243 118.1100 0.902571 6310.00 6297.62 79.00
2244 118.1600 0.902335 6035.00 6222.27 77.00
2245 118.2100 0.902099 5799.00 6156.97 76.00
2246 118.2600 0.901864 5828.00 6180.80 76.00
2247 118.3100 0.901629 6067.00 6336.31 77.00
2248 118.3600 0.901394 6536.00 6609.75 80.00
2249 118.4100 0.901159 6802.00 6931.77 82.00
2250 118.4600 0.900925 7103.00 7200.41 84.00
2251 118.5100 0.900691 7332.00 7315.99 85.00
2252 118.5600 0.900458 6978.00 7215.01 83.00
2253 118.6100 0.900224 6731.00 6889.09 82.00
2254 118.6600 0.899991 6223.00 6383.50 78.00
2255 118.7100 0.899759 5505.00 5776.94 74.00
2256 118.7600 0.899526 4893.00 5154.77 69.00
2257 118.8100 0.899294 4464.00 4586.97 66.00
2258 118.8600 0.899062 4087.00 4115.10 63.00
2259 118.9100 0.898830 3838.00 3755.21 61.00
2260 118.9600 0.898599 3723.00 3505.36 61.00
2261 119.0100 0.898368 3544.00 3358.17 59.00
2262 119.0600 0.898137 3513.00 3311.77 59.00
2263 119.1100 0.897907 3606.00 3377.43 60.00
2264 119.1600 0.897677 3655.00 3583.44 60.00
2265 119.2100 0.897447 3966.00 3973.06 62.00
2266 119.2600 0.897218 4565.00 4594.92 67.00
2267 119.3100 0.896988 5166.00 5483.75 71.00
2268 119.3600 0.896759 6239.00 6636.50 78.00
2269 119.4100 0.896531 7483.00 7988.33 86.00
2270 119.4600 0.896302 9057.00 9402.41 95.00
2271 119.5100 0.896074 10339.00 10683.70 101.00
2272 119.5600 0.895846 11629.00 11617.70 107.00
2273 119.6100 0.895619 11971.00 12029.60 109.00
2274 119.6600 0.895391 11543.00 11836.10 107.00
2275 119.7100 0.895165 10427.00 11073.20 102.00
2276 119.7600 0.894938 9363.00 9886.14 96.00
2277 119.8100 0.894711 8002.00 8483.19 89.00
2278 119.8600 0.894485 6624.00 7077.03 81.00
2279 119.9100 0.894259 5514.00 5833.44 74.00
2280 119.9600 0.894034 4742.00 4844.80 68.00
2281 120.0100 0.893809 4172.00 4132.27 64.00
2282 120.0600 0.893584 3747.00 3664.45 61.00
2283 120.1100 0.893359 3486.00 3385.00 59.00
2284 120.1600 0.893135 3436.00 3234.55 58.00
2285 120.2100 0.892910 3309.00 3164.04 57.00
2286 120.2600 0.892687 3053.00 3139.62 55.00
2287 120.3100 0.892463 3111.00 3141.76 55.00
2288 120.3600 0.892240 3066.00 3162.04 55.00
2289 120.4100 0.892017 3162.00 3199.21 56.00
2290 120.4600 0.891794 3177.00 3255.85 56.00
2291 120.5100 0.891572 3316.00 3335.44 57.00
2292 120.5600 0.891349 3296.00 3440.64 57.00
2293 120.6100 0.891128 3556.00 3571.98 59.00
2294 120.6600 0.890906 3639.00 3727.10 60.00
2295 120.7100 0.890685 3738.00 3900.31 61.00
2296 120.7600 0.890464 3848.00 4081.84 62.00
2297 120.8100 0.890243 4196.00 4257.49 64.00
2298 120.8600 0.890022 4258.00 4409.11 65.00
2299 120.9100 0.889802 4349.00 4516.60 65.00
2300 120.9600 0.889582 4476.00 4562.12 66.00
2301 121.0100 0.889363 4440.00 4534.69 66.00
2302 121.0600 0.889143 4300.00 4434.16 65.00
2303 121.1100 0.888924 4138.00 4272.28 64.00
2304 121.1600 0.888705 3859.00 4070.68 62.00
2305 121.2100 0.888487 3574.00 3855.44 59.00
2306 121.2600 0.888268 3593.00 3651.23 59.00
2307 121.3100 0.888051 3321.00 3476.62 57.00
2308 121.3600 0.887833 3261.00 3341.48 57.00
2309 121.4100 0.887615 3208.00 3247.52 56.00
2310 121.4600 0.887398 2995.00 3190.46 54.00
2311 121.5100 0.887181 3022.00 3162.64 54.00
2312 121.5600 0.886965 3002.00 3155.44 54.00
2313 121.6100 0.886748 2937.00 3160.79 54.00
2314 121.6600 0.886532 3002.00 3172.19 54.00
2315 121.7100 0.886317 3166.00 3185.34 56.00
2316 121.7600 0.886101 3194.00 3198.72 56.00
2317 121.8100 0.885886 3183.00 3213.82 56.00
2318 121.8600 0.885671 3150.00 3234.97 56.00
2319 121.9100 0.885456 3196.00 3268.25 56.00
2320 121.9600 0.885242 3305.00 3319.58 57.00
2321 122.0100 0.885028 3350.00 3392.03 57.00
2322 122.0600 0.884814 3446.00 3483.58 58.00
2323 122.1100 0.884600 3431.00 3585.78 58.00
2324 122.1600 0.884387 3584.00 3684.47 59.00
2325 122.2100 0.884174 3630.00 3762.78 60.00
2326 122.2600 0.883961 3786.00 3805.44 61.00
2327 122.3100 0.883748 3667.00 3803.44 60.00
2328 122.3600 0.883536 3604.00 3756.63 60.00
2329 122.4100 0.883324 3464.00 3673.74 58.00
2330 122.4600 0.883112 3496.00 3569.69 59.00
2331 122.5100 0.882901 3287.00 3461.63 57.00
2332 122.5600 0.882690 3242.00 3365.29 56.00
2333 122.6100 0.882479 3401.00 3293.59 58.00
2334 122.6600 0.882268 3398.00 3258.07 58.00
2335 122.7100 0.882058 3477.00 3272.78 58.00
2336 122.7600 0.881848 3534.00 3359.62 59.00
2337 122.8100 0.881638 3729.00 3552.91 61.00
2338 122.8600 0.881428 4142.00 3900.76 64.00
2339 122.9100 0.881219 4561.00 4459.22 67.00
2340 122.9600 0.881010 5314.00 5279.98 72.00
2341 123.0100 0.880801 6031.00 6386.30 77.00
2342 123.0600 0.880593 7596.00 7750.18 87.00
2343 123.1100 0.880385 9080.00 9273.87 95.00
2344 123.1600 0.880177 10841.00 10788.10 104.00
2345 123.2100 0.879969 12713.00 12079.90 112.00
2346 123.2600 0.879762 13631.00 12937.80 116.00
2347 123.3100 0.879554 13463.00 13209.30 116.00
2348 123.3600 0.879348 12829.00 12844.80 113.00
2349 123.4100 0.879141 11836.00 11914.20 108.00
2350 123.4600 0.878935 10587.00 10585.50 102.00
2351 123.5100 0.878728 8742.00 9078.49 93.00
2352 123.5600 0.878523 7402.00 7611.71 86.00
2353 123.6100 0.878317 6399.00 6355.63 79.00
2354 123.6600 0.878112 5744.00 5418.99 75.00
2355 123.7100 0.877907 5345.00 4848.86 73.00
2356 123.7600 0.877702 5108.00 4650.49 71.00
2357 123.8100 0.877497 5031.00 4806.12 70.00
2358 123.8600 0.877293 5474.00 5285.23 73.00
2359 123.9100 0.877089 6021.00 6043.67 77.00
2360 123.9600 0.876885 6966.00 7014.23 83.00
2361 124.0100 0.876682 8120.00 8097.60 90.00
2362 124.0600 0.876479 9397.00 9160.85 96.00
2363 124.1100 0.876276 10249.00 10053.60 101.00
2364 124.1600 0.876073 10994.00 10635.50 104.00
2365 124.2100 0.875870 10948.00 10810.60 104.00
2366 124.2600 0.875668 10610.00 10555.70 103.00
2367 124.3100 0.875466 9641.00 9930.97 98.00
2368 124.3600 0.875265 8820.00 9067.12 93.00
2369 124.4100 0.875063 8047.00 8133.45 89.00
2370 124.4600 0.874862 7294.00 7296.74 85.00
2371 124.5100 0.874661 6742.00 6684.77 82.00
2372 124.5600 0.874461 6333.00 6360.73 79.00
2373 124.6100 0.874260 6357.00 6317.50 79.00
2374 124.6600 0.874060 6744.00 6487.49 82.00
2375 124.7100 0.873860 7101.00 6765.35 84.00
2376 124.7600 0.873661 7488.00 7037.43 86.00
2377 124.8100 0.873461 7770.00 7212.59 88.00
2378 124.8600 0.873262 7969.00 7246.26 89.00
2379 124.9100 0.873064 7598.00 7153.02 87.00
2380 124.9600 0.872865 7411.00 7004.24 86.00
2381 125.0100 0.872667 7298.00 6912.06 85.00
2382 125.0600 0.872469 7380.00 7003.53 85.00
2383 125.1100 0.872271 7656.00 7392.74 87.00
2384 125.1600 0.872073 8324.00 8155.10 91.00
2385 125.2100 0.871876 9769.00 9311.38 98.00
2386 125.2600 0.871679 11043.00 10815.20 105.00
2387 125.3100 0.871482 12682.00 12554.70 112.00
2388 125.3600 0.871286 14125.00 14360.20 118.00
2389 125.4100 0.871089 15781.00 16020.30 125.00
2390 125.4600 0.870894 17044.00 17314.90 130.00
2391 125.5100 0.870698 18240.00 18050.90 135.00
2392 125.5600 0.870502 18352.00 18101.70 135.00
2393 125.6100 0.870307 17870.00 17437.00 133.00
2394 125.6600 0.870112 16377.00 16133.80 127.00
2395 125.7100 0.869917 14591.00 14360.20 120.00
2396 125.7600 0.869723 12323.00 12337.50 111.00
2397 125.8100 0.869529 10210.00 10295.70 101.00
2398 125.8600 0.869335 8346.00 8422.89 91.00
2399 125.9100 0.869141 6996.00 6845.45 83.00
2400 125.9600 0.868947 5875.00 5615.53 76.00
2401 126.0100 0.868754 5229.00 4724.82 72.00
2402 126.0600 0.868561 4623.00 4126.21 67.00
2403 126.1100 0.868368 4230.00 3754.94 65.00
2404 126.1600 0.868176 4013.00 3547.13 63.00
2405 126.2100 0.867984 3675.00 3449.38 60.00
2406 126.2600 0.867792 3592.00 3421.91 59.00
2407 126.3100 0.867600 3518.00 3437.13 59.00
2408 126.3600 0.867409 3635.00 3476.44 60.00
2409 126.4100 0.867217 3695.00 3527.15 60.00
2410 126.4600 0.867026 3647.00 3580.46 60.00
2411 126.5100 0.866836 3630.00 3630.53 60.00
2412 126.5600 0.866645 3633.00 3674.01 60.00
2413 126.6100 0.866455 3619.00 3709.78 60.00
2414 126.6600 0.866265 3710.00 3738.00 60.00
2415 126.7100 0.866075 3597.00 3758.97 59.00
2416 126.7600 0.865886 3695.00 3772.10 60.00
2417 126.8100 0.865696 3733.00 3775.44 61.00
2418 126.8600 0.865507 3524.00 3766.28 59.00
2419 126.9100 0.865319 3748.00 3742.33 61.00
2420 126.9600 0.865130 3740.00 3703.11 61.00
2421 127.0100 0.864942 3617.00 3650.78 60.00
2422 127.0600 0.864754 3510.00 3590.01 59.00
2423 127.1100 0.864566 3535.00 3527.05 59.00
2424 127.1600 0.864379 3376.00 3468.46 58.00
2425 127.2100 0.864192 3384.00 3420.07 58.00
2426 127.2600 0.864004 3347.00 3386.84 57.00
2427 127.3100 0.863818 3265.00 3373.72 57.00
2428 127.3600 0.863631 3429.00 3387.68 58.00
2429 127.4100 0.863445 3480.00 3440.44 58.00
2430 127.4600 0.863259 3565.00 3551.63 59.00
2431 127.5100 0.863073 3865.00 3751.00 62.00
2432 127.5600 0.862888 4227.00 4078.85 65.00
2433 127.6100 0.862702 4436.00 4582.34 66.00
2434 127.6600 0.862517 5198.00 5305.50 72.00
2435 127.7100 0.862332 6075.00 6276.44 77.00
2436 127.7600 0.862148 7115.00 7486.70 84.00
2437 127.8100 0.861963 8467.00 8878.26 92.00
2438 127.8600 0.861779 10121.00 10336.80 100.00
2439 127.9100 0.861595 12026.00 11699.90 109.00
2440 127.9600 0.861412 13438.00 12786.80 115.00
2441 128.0100 0.861229 14214.00 13435.10 119.00
2442 128.0600 0.861045 14062.00 13541.30 118.00
2443 128.1100 0.860862 13369.00 13088.20 115.00
2444 128.1600 0.860680 12179.00 12148.70 110.00
2445 128.2100 0.860497 10685.00 10868.30 103.00
2446 128.2600 0.860315 9051.00 9427.17 95.00
2447 128.3100 0.860133 7495.00 8001.36 86.00
2448 128.3600 0.859952 6244.00 6728.47 79.00
2449 128.4100 0.859770 5651.00 5690.67 75.00
2450 128.4600 0.859589 4995.00 4917.45 70.00
2451 128.5100 0.859408 4629.00 4394.08 68.00
2452 128.5600 0.859227 4325.00 4080.27 65.00
2453 128.6100 0.859047 4053.00 3924.53 63.00
2454 128.6600 0.858867 3969.00 3875.52 63.00
2455 128.7100 0.858687 3864.00 3888.19 62.00
2456 128.7600 0.858507 3969.00 3926.03 63.00
2457 128.8100 0.858328 3962.00 3961.81 62.00
2458 128.8600 0.858148 3962.00 3977.62 62.00
2459 128.9100 0.857969 3856.00 3964.56 62.00
2460 128.9600 0.857790 3791.00 3921.81 61.00
2461 129.0100 0.857612 3782.00 3855.05 61.00
2462 129.0600 0.857433 3795.00 3774.16 61.00
2463 129.1100 0.857255 3720.00 3690.47 60.00
2464 129.1600 0.857077 3632.00 3614.54 60.00
2465 129.2100 0.856900 3389.00 3554.63 58.00
2466 129.2600 0.856723 3421.00 3516.22 58.00
2467 129.3100 0.856545 3411.00 3502.15 58.00
2468 129.3600 0.856368 3472.00 3513.21 58.00
2469 129.4100 0.856192 3626.00 3548.70 60.00
2470 129.4600 0.856015 3525.00 3606.85 59.00
2471 129.5100 0.855839 3648.00 3685.38 60.00
2472 129.5600 0.855663 3921.00 3782.64 62.00
2473 129.6100 0.855488 4041.00 3899.43 63.00
2474 129.6600 0.855312 4120.00 4042.31 64.00
2475 129.7100 0.855137 4388.00 4226.62 66.00
2476 129.7600 0.854962 4589.00 4478.82 67.00
2477 129.8100 0.854787 4914.00 4836.59 70.00
2478 129.8600 0.854612 5173.00 5343.82 71.00
2479 129.9100 0.854438 5910.00 6042.95 76.00
2480 129.9600 0.854264 6969.00 6961.98 83.00
2481 130.0100 0.854090 8006.00 8101.93 89.00
2482 130.0600 0.853916 9775.00 9430.70 98.00
2483 130.1100 0.853743 11387.00 10880.60 106.00
2484 130.1600 0.853570 12980.00 12362.80 113.00
2485 130.2100 0.853397 14233.00 13781.20 119.00
2486 130.2600 0.853224 15373.00 15052.90 123.00
2487 130.3100 0.853052 15873.00 16124.50 125.00
2488 130.3600 0.852880 16309.00 16971.90 127.00
2489 130.4100 0.852708 16465.00 17595.30 128.00
2490 130.4600 0.852536 17519.00 17998.50 132.00
2491 130.5100 0.852364 17618.00 18175.70 132.00
2492 130.5600 0.852193 18377.00 18103.00 135.00
2493 130.6100 0.852022 17900.00 17744.20 133.00
2494 130.6600 0.851851 17520.00 17066.00 132.00
2495 130.7100 0.851681 16347.00 16060.00 127.00
2496 130.7600 0.851510 14558.00 14756.10 120.00
2497 130.8100 0.851340 12850.00 13229.00 113.00
2498 130.8600 0.851170 11495.00 11586.50 107.00
2499 130.9100 0.851000 9725.00 9950.19 98.00
2500 130.9600 0.850831 8290.00 8436.81 91.00
2501 131.0100 0.850662 7072.00 7135.27 84.00
2502 131.0600 0.850493 6161.00 6100.32 78.00
2503 131.1100 0.850324 5728.00 5349.51 75.00
2504 131.1600 0.850155 5312.00 4870.17 72.00
2505 131.2100 0.849987 4950.00 4630.32 70.00
2506 131.2600 0.849819 4736.00 4586.03 68.00
2507 131.3100 0.849651 4989.00 4689.09 70.00
2508 131.3600 0.849484 5080.00 4890.97 71.00
2509 131.4100 0.849316 5394.00 5145.55 73.00
2510 131.4600 0.849149 5454.00 5411.44 74.00
2511 131.5100 0.848982 5527.00 5654.59 74.00
2512 131.5600 0.848815 5600.00 5850.61 75.00
2513 131.6100 0.848649 5750.00 5986.80 76.00
2514 131.6600 0.848483 5818.00 6061.75 77.00
2515 131.7100 0.848316 6069.00 6083.39 79.00
2516 131.7600 0.848151 5839.00 6065.58 77.00
2517 131.8100 0.847985 5798.00 6024.51 77.00
2518 131.8600 0.847820 5726.00 5975.67 77.00
2519 131.9100 0.847655 5912.00 5931.90 78.00
2520 131.9600 0.847490 5843.00 5902.30 78.00
2521 132.0100 0.847325 5870.00 5891.33 78.00
2522 132.0600 0.847161 6002.00 5897.91 79.00
2523 132.1100 0.846996 5939.00 5914.74 79.00
2524 132.1600 0.846832 5964.00 5928.60 79.00
2525 132.2100 0.846668 6157.00 5922.18 81.00
2526 132.2600 0.846505 6013.00 5877.67 80.00
2527 132.3100 0.846342 5769.00 5781.32 78.00
2528 132.3600 0.846179 5661.00 5627.88 78.00
2529 132.4100 0.846016 5560.00 5422.94 77.00
2530 132.4600 0.845853 5051.00 5183.36 74.00
2531 132.5100 0.845691 4715.00 4935.23 71.00
2532 132.5600 0.845528 4522.00 4709.56 70.00
2533 132.6100 0.845366 4314.00 4538.62 69.00
2534 132.6600 0.845205 4262.00 4451.34 68.00
2535 132.7100 0.845043 4398.00 4470.75 70.00
2536 132.7600 0.844882 4628.00 4610.82 71.00
2537 132.8100 0.844721 4681.00 4874.18 72.00
2538 132.8600 0.844560 4968.00 5249.22 74.00
2539 132.9100 0.844399 5413.00 5709.47 78.00
2540 132.9600 0.844239 6186.00 6212.49 83.00
2541 133.0100 0.844078 6790.00 6704.46 88.00
2542 133.0600 0.843919 7355.00 7125.84 91.00
2543 133.1100 0.843759 7764.00 7421.67 94.00
2544 133.1600 0.843599 7719.00 7551.49 94.00
2545 133.2100 0.843440 7664.00 7497.02 94.00
2546 133.2600 0.843281 7202.00 7266.51 91.00
2547 133.3100 0.843122 6476.00 6893.10 86.00
2548 133.3600 0.842963 6136.00 6427.91 84.00
2549 133.4100 0.842805 5679.00 5929.88 81.00
2550 133.4600 0.842646 5177.00 5457.01 78.00
2551 133.5100 0.842488 4948.00 5056.90 76.00
2552 133.5600 0.842331 4736.00 4763.12 75.00
2553 133.6100 0.842173 4786.00 4593.00 75.00
2554 133.6600 0.842016 4507.00 4548.92 73.00
2555 133.7100 0.841859 4609.00 4620.59 74.00
2556 133.7600 0.841702 4810.00 4787.19 76.00
2557 133.8100 0.841545 4960.00 5019.60 77.00
2558 133.8600 0.841389 5070.00 5283.13 78.00
2559 133.9100 0.841232 5473.00 5540.62 81.00
2560 133.9600 0.841076 5606.00 5756.46 82.00
2561 134.0100 0.840920 5745.00 5901.16 84.00
2562 134.0600 0.840765 5839.00 5955.40 85.00
2563 134.1100 0.840609 5892.00 5913.02 85.00
2564 134.1600 0.840454 5839.00 5781.36 85.00
2565 134.2100 0.840299 5462.00 5579.16 82.00
2566 134.2600 0.840145 5117.00 5332.70 80.00
2567 134.3100 0.839990 4839.00 5070.30 78.00
2568 134.3600 0.839836 4542.00 4817.56 75.00
2569 134.4100 0.839682 4189.00 4593.60 73.00
2570 134.4600 0.839528 4151.00 4409.15 72.00
2571 134.5100 0.839374 4215.00 4266.90 73.00
2572 134.5600 0.839221 4026.00 4162.67 71.00
2573 134.6100 0.839068 3990.00 4088.28 71.00
2574 134.6600 0.838915 3805.00 4033.75 70.00
2575 134.7100 0.838762 3691.00 3989.85 69.00
2576 134.7600 0.838609 3788.00 3949.48 70.00
2577 134.8100 0.838457 3875.00 3908.47 71.00
2578 134.8600 0.838305 3939.00 3865.79 72.00
2579 134.9100 0.838153 3783.00 3823.14 70.00
2580 134.9600 0.838001 3776.00 3784.64 70.00
2581 135.0100 0.837850 3699.00 3756.51 70.00
2582 135.0600 0.837698 3739.00 3746.95 70.00
2583 135.1100 0.837547 3876.00 3766.46 72.00
2584 135.1600 0.837396 3916.00 3828.27 72.00
2585 135.2100 0.837246 3884.00 3948.53 72.00
2586 135.2600 0.837095 3932.00 4146.03 73.00
2587 135.3100 0.836945 4410.00 4440.77 77.00
2588 135.3600 0.836795 4861.00 4850.65 81.00
2589 135.4100 0.836645 5254.00 5388.35 85.00
2590 135.4600 0.836496 5853.00 6054.69 89.00
2591 135.5100 0.836346 6442.00 6835.36 94.00
2592 135.5600 0.836197 7452.00 7696.17 101.00
2593 135.6100 0.836048 8635.00 8584.06 109.00
2594 135.6600 0.835899 9604.00 9431.29 116.00
2595 135.7100 0.835751 10630.00 10161.20 122.00
2596 135.7600 0.835603 11071.00 10701.40 125.00
2597 135.8100 0.835455 11495.00 10994.20 127.00
2598 135.8600 0.835307 11491.00 11007.40 127.00
2599 135.9100 0.835159 11197.00 10739.40 126.00
2600 135.9600 0.835012 10258.00 10220.20 121.00
2601 136.0100 0.834864 9134.00 9505.55 114.00
2602 136.0600 0.834717 8351.00 8667.84 109.00
2603 136.1100 0.834570 7391.00 7783.63 103.00
2604 136.1600 0.834424 6600.00 6923.20 98.00
2605 136.2100 0.834277 5803.00 6142.32 92.00
2606 136.2600 0.834131 5325.00 5477.87 88.00
2607 136.3100 0.833985 4885.00 4948.44 84.00
2608 136.3600 0.833840 4617.00 4556.14 82.00
2609 136.4100 0.833694 4373.00 4292.04 80.00
2610 136.4600 0.833549 4492.00 4140.78 81.00
2611 136.5100 0.833403 4295.00 4084.75 80.00
2612 136.5600 0.833259 4311.00 4106.67 80.00
2613 136.6100 0.833114 4371.00 4191.39 81.00
2614 136.6600 0.832969 4391.00 4326.80 81.00
2615 136.7100 0.832825 4496.00 4504.63 82.00
2616 136.7600 0.832681 5007.00 4721.17 87.00
2617 136.8100 0.832537 5452.00 4978.69 91.00
2618 136.8600 0.832393 5512.00 5285.60 92.00
2619 136.9100 0.832250 5807.00 5656.72 94.00
2620 136.9600 0.832106 5971.00 6110.38 96.00
2621 137.0100 0.831963 6368.00 6663.58 99.00
2622 137.0600 0.831821 7005.00 7326.40 104.00
2623 137.1100 0.831678 7957.00 8093.38 111.00
2624 137.1600 0.831535 9070.00 8939.80 119.00
2625 137.2100 0.831393 9936.00 9817.60 125.00
2626 137.2600 0.831251 11058.00 10658.20 132.00
2627 137.3100 0.831109 12241.00 11382.00 139.00
2628 137.3600 0.830968 12694.00 11909.10 142.00
2629 137.4100 0.830826 13122.00 12175.30 145.00
2630 137.4600 0.830685 12632.00 12142.60 142.00
2631 137.5100 0.830544 11885.00 11807.40 138.00
2632 137.5600 0.830403 10807.00 11201.30 132.00
2633 137.6100 0.830263 9928.00 10385.70 127.00
2634 137.6600 0.830122 9096.00 9438.88 122.00
2635 137.7100 0.829982 7941.00 8445.50 114.00
2636 137.7600 0.829842 7307.00 7482.14 109.00
2637 137.8100 0.829703 6608.00 6609.33 104.00
2638 137.8600 0.829563 5834.00 5868.13 98.00
2639 137.9100 0.829424 5337.00 5277.85 94.00
2640 137.9600 0.829284 4996.00 4842.15 91.00
2641 138.0100 0.829146 4787.00 4551.76 89.00
2642 138.0600 0.829007 4819.00 4390.68 90.00
2643 138.1100 0.828868 4818.00 4339.45 90.00
2644 138.1600 0.828730 4600.00 4378.07 88.00
2645 138.2100 0.828592 4620.00 4486.96 88.00
2646 138.2600 0.828454 4736.00 4647.27 90.00
2647 138.3100 0.828316 4875.00 4840.40 91.00
2648 138.3600 0.828179 5006.00 5048.12 93.00
2649 138.4100 0.828041 5099.00 5252.84 94.00
2650 138.4600 0.827904 5365.00 5437.74 96.00
2651 138.5100 0.827767 5574.00 5588.36 98.00
2652 138.5600 0.827631 5737.00 5693.13 100.00
2653 138.6100 0.827494 5847.00 5744.58 101.00
2654 138.6600 0.827358 5784.00 5739.61 101.00
2655 138.7100 0.827222 5968.00 5679.57 103.00
2656 138.7600 0.827086 5666.00 5569.79 100.00
2657 138.8100 0.826950 5440.00 5419.01 98.00
2658 138.8600 0.826815 5345.00 5238.13 98.00
2659 138.9100 0.826679 5087.00 5039.41 96.00
2660 138.9600 0.826544 4937.00 4835.30 94.00
2661 139.0100 0.826409 4672.00 4637.88 92.00
2662 139.0600 0.826275 4562.00 4457.84 91.00
2663 139.1100 0.826140 4300.00 4304.19 88.00
2664 139.1600 0.826006 4146.00 4183.97 87.00
2665 139.2100 0.825872 4136.00 4102.03 87.00
2666 139.2600 0.825738 4187.00 4061.08 88.00
2667 139.3100 0.825604 4070.00 4061.46 87.00
2668 139.3600 0.825471 3960.00 4101.19 86.00
2669 139.4100 0.825338 4033.00 4175.88 87.00
2670 139.4600 0.825205 4201.00 4278.69 89.00
2671 139.5100 0.825072 4393.00 4400.39 91.00
2672 139.5600 0.824939 4617.00 4529.94 93.00
2673 139.6100 0.824807 4662.00 4655.04 94.00
2674 139.6600 0.824674 5156.00 4763.57 99.00
2675 139.7100 0.824542 5292.00 4844.69 101.00
2676 139.7600 0.824410 5195.00 4890.38 100.00
2677 139.8100 0.824279 5148.00 4896.72 100.00
2678 139.8600 0.824147 5205.00 4864.67 100.00
2679 139.9100 0.824016 4905.00 4800.16 98.00
2680 139.9600 0.823885 4732.00 4713.74 96.00
2681 140.0100 0.823754 4696.00 4619.35 96.00
2682 140.0600 0.823623 4444.00 4532.81 93.00
2683 140.1100 0.823493 4435.00 4470.22 94.00
2684 140.1600 0.823362 4274.00 4445.93 92.00
2685 140.2100 0.823232 4425.00 4471.26 94.00
2686 140.2600 0.823102 4672.00 4553.09 97.00
2687 140.3100 0.822973 4639.00 4693.13 97.00
2688 140.3600 0.822843 4784.00 4887.88 98.00
2689 140.4100 0.822714 5239.00 5129.59 103.00
2690 140.4600 0.822585 5781.00 5407.37 108.00
2691 140.5100 0.822456 6065.00 5710.54 111.00
2692 140.5600 0.822327 6679.00 6031.41 117.00
2693 140.6100 0.822199 7130.00 6369.35 121.00
2694 140.6600 0.822070 7612.00 6734.19 126.00
2695 140.7100 0.821942 7934.00 7147.04 128.00
2696 140.7600 0.821814 8166.00 7641.03 131.00
2697 140.8100 0.821687 8535.00 8256.97 134.00
2698 140.8600 0.821559 8960.00 9037.97 137.00
2699 140.9100 0.821432 9661.00 10021.80 143.00
2700 140.9600 0.821305 10675.00 11229.60 151.00
2701 141.0100 0.821178 12175.00 12660.10 161.00
2702 141.0600 0.821051 14150.00 14281.40 174.00
2703 141.1100 0.820924 16479.00 16031.90 188.00
2704 141.1600 0.820798 19168.00 17823.00 204.00
2705 141.2100 0.820672 20810.00 19547.40 213.00
2706 141.2600 0.820546 22394.00 21092.00 221.00
2707 141.3100 0.820420 23385.00 22349.90 226.00
2708 141.3600 0.820294 23966.00 23235.60 230.00
2709 141.4100 0.820169 23607.00 23692.80 228.00
2710 141.4600 0.820044 22978.00 23699.30 226.00
2711 141.5100 0.819919 21870.00 23267.10 221.00
2712 141.5600 0.819794 21480.00 22437.80 219.00
2713 141.6100 0.819669 20403.00 21274.70 214.00
2714 141.6600 0.819545 19252.00 19853.80 208.00
2715 141.7100 0.819421 18246.00 18255.80 203.00
2716 141.7600 0.819297 16555.00 16560.50 194.00
2717 141.8100 0.819173 14819.00 14839.20 184.00
2718 141.8600 0.819049 13276.00 13155.70 174.00
2719 141.9100 0.818926 11392.00 11559.70 162.00
2720 141.9600 0.818803 9769.00 10090.40 150.00
2721 142.0100 0.818680 8421.00 8775.86 140.00
2722 142.0600 0.818557 7437.00 7631.22 131.00
2723 142.1100 0.818434 6478.00 6662.43 123.00
2724 142.1600 0.818312 5894.00 5864.44 117.00
2725 142.2100 0.818189 5537.00 5225.61 114.00
2726 142.2600 0.818067 4883.00 4729.10 107.00
2727 142.3100 0.817945 4492.00 4354.22 103.00
2728 142.3600 0.817824 4335.00 4079.81 102.00
2729 142.4100 0.817702 4003.00 3884.86 98.00
2730 142.4600 0.817581 3968.00 3750.98 98.00
2731 142.5100 0.817460 3851.00 3662.43 96.00
2732 142.5600 0.817339 3688.00 3606.75 94.00
2733 142.6100 0.817218 3632.00 3574.66 94.00
2734 142.6600 0.817097 3624.00 3559.70 94.00
2735 142.7100 0.816977 3751.00 3557.82 96.00
2736 142.7600 0.816857 3686.00 3566.81 95.00
2737 142.8100 0.816737 3410.00 3585.81 92.00
2738 142.8600 0.816617 3296.00 3614.79 90.00
2739 142.9100 0.816497 3554.00 3654.18 94.00
2740 142.9600 0.816378 3516.00 3704.34 94.00
2741 143.0100 0.816259 3541.00 3765.32 94.00
2742 143.0600 0.816140 3740.00 3836.51 97.00
2743 143.1100 0.816021 3873.00 3916.47 99.00
2744 143.1600 0.815902 3847.00 4002.99 99.00
2745 143.2100 0.815784 4006.00 4092.86 101.00
2746 143.2600 0.815665 4019.00 4182.38 102.00
2747 143.3100 0.815547 4059.00 4267.37 102.00
2748 143.3600 0.815429 4221.00 4343.76 105.00
2749 143.4100 0.815312 4252.00 4407.75 105.00
2750 143.4600 0.815194 4195.00 4456.26 105.00
2751 143.5100 0.815077 4116.00 4487.08 104.00
2752 143.5600 0.814960 4126.00 4499.00 104.00
2753 143.6100 0.814843 4286.00 4491.89 106.00
2754 143.6600 0.814726 4279.00 4466.55 107.00
2755 143.7100 0.814609 4244.00 4424.59 106.00
2756 143.7600 0.814493 4284.00 4368.28 107.00
2757 143.8100 0.814377 4246.00 4300.33 107.00
2758 143.8600 0.814261 4087.00 4223.68 105.00
2759 143.9100 0.814145 3849.00 4141.41 102.00
2760 143.9600 0.814029 3931.00 4056.52 103.00
2761 144.0100 0.813914 3997.00 3971.88 105.00
2762 144.0600 0.813799 3667.00 3889.97 100.00
2763 144.1100 0.813684 3527.00 3812.99 99.00
2764 144.1600 0.813569 3686.00 3742.52 101.00
2765 144.2100 0.813454 3446.00 3679.67 98.00
2766 144.2600 0.813339 3424.00 3625.08 98.00
2767 144.3100 0.813225 3337.00 3578.81 97.00
2768 144.3600 0.813111 3380.00 3540.57 98.00
2769 144.4100 0.812997 3478.00 3509.67 99.00
2770 144.4600 0.812883 3294.00 3485.23 97.00
2771 144.5100 0.812770 3090.00 3466.27 94.00
2772 144.5600 0.812656 3259.00 3451.79 97.00
2773 144.6100 0.812543 3455.00 3440.83 100.00
2774 144.6600 0.812430 3340.00 3432.58 98.00
2775 144.7100 0.812317 3356.00 3426.33 99.00
2776 144.7600 0.812205 3457.00 3421.60 100.00
2777 144.8100 0.812092 3290.00 3418.03 98.00
2778 144.8600 0.811980 3224.00 3415.50 97.00
2779 144.9100 0.811868 3389.00 3414.06 100.00
2780 144.9600 0.811756 3391.00 3414.06 100.00
2781 145.0100 0.811644 3382.00 3416.16 100.00
2782 145.0600 0.811533 3412.00 3421.50 101.00
2783 145.1100 0.811421 3505.00 3431.78 103.00
2784 145.1600 0.811310 3490.00 3449.53 103.00
2785 145.2100 0.811199 3459.00 3478.21 102.00
2786 145.2600 0.811088 3576.00 3522.48 104.00
2787 145.3100 0.810978 3794.00 3588.25 108.00
2788 145.3600 0.810867 3966.00 3682.79 110.00
2789 145.4100 0.810757 3954.00 3814.63 111.00
2790 145.4600 0.810647 4309.00 3992.95 116.00
2791 145.5100 0.810537 4378.00 4227.31 117.00
2792 145.5600 0.810427 4801.00 4526.26 123.00
2793 145.6100 0.810318 5019.00 4896.48 126.00
2794 145.6600 0.810208 5280.00 5341.77 129.00
2795 145.7100 0.810099 5491.00 5860.58 132.00
2796 145.7600 0.809990 5792.00 6446.21 136.00
2797 145.8100 0.809882 6607.00 7084.80 146.00
2798 145.8600 0.809773 7249.00 7756.36 153.00
2799 145.9100 0.809665 8035.00 8434.78 161.00
2800 145.9600 0.809556 9034.00 9089.59 171.00
2801 146.0100 0.809448 9847.00 9688.33 179.00
2802 146.0600 0.809341 10684.00 10198.90 187.00
2803 146.1100 0.809233 11218.00 10593.50 192.00
2804 146.1600 0.809125 11702.00 10851.00 197.00
2805 146.2100 0.809018 11462.00 10959.60 195.00
2806 146.2600 0.808911 11206.00 10917.90 194.00
2807 146.3100 0.808804 10545.00 10735.70 188.00
2808 146.3600 0.808697 9902.00 10432.60 183.00
2809 146.4100 0.808591 9462.00 10036.00 179.00
2810 146.4600 0.808484 8753.00 9578.32 173.00
2811 146.5100 0.808378 8513.00 9094.06 171.00
2812 146.5600 0.808272 8059.00 8615.42 166.00
2813 146.6100 0.808166 7777.00 8170.67 164.00
2814 146.6600 0.808061 7355.00 7780.53 160.00
2815 146.7100 0.807955 7300.00 7458.19 159.00
2816 146.7600 0.807850 7296.00 7208.79 160.00
2817 146.8100 0.807745 7373.00 7029.69 161.00
2818 146.8600 0.807640 7328.00 6912.44 161.00
2819 146.9100 0.807535 7124.00 6844.22 159.00
2820 146.9600 0.807430 7138.00 6810.30 159.00
2821 147.0100 0.807326 7097.00 6795.85 159.00
2822 147.0600 0.807222 7324.00 6787.73 162.00
2823 147.1100 0.807118 7536.00 6775.95 165.00
2824 147.1600 0.807014 7381.00 6754.49 164.00
2825 147.2100 0.806910 7239.00 6721.84 162.00
2826 147.2600 0.806807 7396.00 6680.85 164.00
2827 147.3100 0.806703 7241.00 6638.27 163.00
2828 147.3600 0.806600 7006.00 6603.87 161.00
2829 147.4100 0.806497 6726.00 6589.21 158.00
2830 147.4600 0.806394 6634.00 6606.37 157.00
2831 147.5100 0.806292 6537.00 6666.60 156.00
2832 147.5600 0.806189 7060.00 6779.06 163.00
2833 147.6100 0.806087 7272.00 6950.01 166.00
2834 147.6600 0.805985 7315.00 7182.50 167.00
2835 147.7100 0.805883 7811.00 7475.87 173.00
2836 147.7600 0.805781 8331.00 7826.73 179.00
2837 147.8100 0.805680 9040.00 8228.94 187.00
2838 147.8600 0.805579 9361.00 8674.92 190.00
2839 147.9100 0.805477 9765.00 9156.51 195.00
2840 147.9600 0.805376 10136.00 9664.25 199.00
2841 148.0100 0.805276 10259.00 10188.80 201.00
2842 148.0600 0.805175 10431.00 10719.20 203.00
2843 148.1100 0.805075 11094.00 11243.60 210.00
2844 148.1600 0.804974 11390.00 11748.30 213.00
2845 148.2100 0.804874 12295.00 12216.00 222.00
2846 148.2600 0.804774 12717.00 12628.10 226.00
2847 148.3100 0.804675 13584.00 12963.20 234.00
2848 148.3600 0.804575 13951.00 13200.20 238.00
2849 148.4100 0.804476 14408.00 13319.10 242.00
2850 148.4600 0.804376 14001.00 13303.70 239.00
2851 148.5100 0.804277 13445.00 13143.50 235.00
2852 148.5600 0.804178 12771.00 12835.70 230.00
2853 148.6100 0.804080 12148.00 12385.90 225.00
2854 148.6600 0.803981 11219.00 11808.30 216.00
2855 148.7100 0.803883 10102.00 11124.80 206.00
2856 148.7600 0.803785 9225.00 10363.60 197.00
2857 148.8100 0.803687 8579.00 9555.57 190.00
2858 148.8600 0.803589 7873.00 8732.83 183.00
2859 148.9100 0.803492 7193.00 7925.44 175.00
2860 148.9600 0.803394 6568.00 7159.29 168.00
2861 149.0100 0.803297 6096.00 6455.26 162.00
2862 149.0600 0.803200 5701.00 5827.07 157.00
2863 149.1100 0.803103 5343.00 5282.85 152.00
2864 149.1600 0.803006 4904.00 4823.88 146.00
2865 149.2100 0.802910 4561.00 4447.15 141.00
2866 149.2600 0.802813 4500.00 4146.17 141.00
2867 149.3100 0.802717 4272.00 3911.77 138.00
2868 149.3600 0.802621 4211.00 3734.05 137.00
2869 149.4100 0.802525 4022.00 3602.65 134.00
2870 149.4600 0.802429 3746.00 3508.04 130.00
2871 149.5100 0.802334 3660.00 3441.80 129.00
2872 149.5600 0.802239 3665.00 3396.76 129.00
2873 149.6100 0.802143 3634.00 3367.15 129.00
2874 149.6600 0.802049 3538.00 3348.46 127.00
2875 149.7100 0.801954 3437.00 3337.33 126.00
2876 149.7600 0.801859 3257.00 3331.30 123.00
2877 149.8100 0.801765 3383.00 3328.67 125.00
2878 149.8600 0.801670 3331.00 3328.28 125.00
2879 149.9100 0.801576 3504.00 3329.36 128.00
2880 149.9600 0.801482 3357.00 3331.46 126.00
2881 150.0100 0.801389 3179.00 3334.28 123.00
2882 150.0600 0.801295 3265.00 3337.67 125.00
2883 150.1100 0.801202 3358.00 3341.58 127.00
2884 150.1600 0.801108 3236.00 3345.98 125.00
2885 150.2100 0.801015 3424.00 3350.88 129.00
2886 150.2600 0.800922 3532.00 3356.29 131.00
2887 150.3100 0.800830 3394.00 3362.21 129.00
2888 150.3600 0.800737 3415.00 3368.65 129.00
2889 150.4100 0.800645 3119.00 3375.58 124.00
2890 150.4600 0.800553 3237.00 3382.94 127.00
2891 150.5100 0.800461 3300.00 3390.65 128.00
2892 150.5600 0.800369 3409.00 3398.60 131.00
2893 150.6100 0.800277 3270.00 3406.65 128.00
2894 150.6600 0.800186 3177.00 3414.66 127.00
2895 150.7100 0.800094 3323.00 3422.50 130.00
2896 150.7600 0.800003 3406.00 3430.03 132.00
2897 150.8100 0.799912 3406.00 3437.19 132.00
2898 150.8600 0.799821 3390.00 3443.97 132.00
2899 150.9100 0.799731 3402.00 3450.46 133.00
2900 150.9600 0.799640 3425.00 3456.87 134.00
2901 151.0100 0.799550 3417.00 3463.58 134.00
2902 151.0600 0.799460 3605.00 3471.14 138.00
2903 151.1100 0.799370 3453.00 3480.35 135.00
2904 151.1600 0.799280 3473.00 3492.24 136.00
2905 151.2100 0.799191 3486.00 3508.16 137.00
2906 151.2600 0.799101 3576.00 3529.78 139.00
2907 151.3100 0.799012 3523.00 3559.14 138.00
2908 151.3600 0.798923 3542.00 3598.61 139.00
2909 151.4100 0.798834 3604.00 3651.01 140.00
2910 151.4600 0.798745 3676.00 3719.44 142.00
2911 151.5100 0.798657 3748.00 3807.20 144.00
2912 151.5600 0.798568 3746.00 3917.79 144.00
2913 151.6100 0.798480 3830.00 4054.44 146.00
2914 151.6600 0.798392 4187.00 4220.21 153.00
2915 151.7100 0.798304 4183.00 4417.42 153.00
2916 151.7600 0.798217 4409.00 4647.20 158.00
2917 151.8100 0.798129 4586.00 4909.52 162.00
2918 151.8600 0.798042 4831.00 5202.26 166.00
2919 151.9100 0.797954 5309.00 5521.76 175.00
2920 151.9600 0.797868 5612.00 5862.01 180.00
2921 152.0100 0.797781 6326.00 6214.67 192.00
2922 152.0600 0.797694 6546.00 6569.84 196.00
2923 152.1100 0.797607 7299.00 6915.63 207.00
2924 152.1600 0.797521 7672.00 7239.85 213.00
2925 152.2100 0.797435 8260.00 7529.50 222.00
2926 152.2600 0.797349 8583.00 7772.54 227.00
2927 152.3100 0.797263 8958.00 7958.46 232.00
2928 152.3600 0.797177 9032.00 8078.88 234.00
2929 152.4100 0.797092 8927.00 8128.72 233.00
2930 152.4600 0.797007 8788.00 8106.17 232.00
2931 152.5100 0.796922 8103.00 8013.24 223.00
2932 152.5600 0.796837 7824.00 7855.63 220.00
2933 152.6100 0.796752 7375.00 7642.43 214.00
2934 152.6600 0.796667 7001.00 7385.26 209.00
2935 152.7100 0.796583 6430.00 7098.27 201.00
2936 152.7600 0.796498 6358.00 6796.53 200.00
2937 152.8100 0.796414 6329.00 6495.97 200.00
2938 152.8600 0.796330 6025.00 6212.04 196.00
2939 152.9100 0.796247 5577.00 5959.08 189.00
2940 152.9600 0.796163 5517.00 5750.45 188.00
2941 153.0100 0.796080 5524.00 5597.38 189.00
2942 153.0600 0.795996 5448.00 5509.26 188.00
2943 153.1100 0.795913 5433.00 5493.15 189.00
2944 153.1600 0.795830 5673.00 5553.90 193.00
2945 153.2100 0.795747 5955.00 5694.02 198.00
2946 153.2600 0.795665 5861.00 5913.68 197.00
2947 153.3100 0.795582 6056.00 6210.36 201.00
2948 153.3600 0.795500 6334.00 6579.14 206.00
2949 153.4100 0.795418 6601.00 7012.35 211.00
2950 153.4600 0.795336 7066.00 7499.75 219.00
2951 153.5100 0.795254 7624.00 8028.04 228.00
2952 153.5600 0.795173 8370.00 8581.85 240.00
2953 153.6100 0.795091 9094.00 9143.60 251.00
2954 153.6600 0.795010 10216.00 9694.15 267.00
2955 153.7100 0.794929 10627.00 10213.70 273.00
2956 153.7600 0.794848 11464.00 10682.20 284.00
2957 153.8100 0.794767 12159.00 11081.10 293.00
2958 153.8600 0.794687 12581.00 11393.60 299.00
loop_
_pd_proc_info_excluded_regions
'from 0 to 6.000'
loop_
_restr_angle_atom_site_label_1
_restr_angle_site_symmetry_1
_restr_angle_atom_site_label_2
_restr_angle_site_symmetry_2
_restr_angle_atom_site_label_3
_restr_angle_site_symmetry_3
_restr_angle_target
_restr_angle_target_weight_param
? ? ? ? ? ? ? ?
loop_
_restr_distance_atom_site_label_1
_restr_distance_site_symmetry_1
_restr_distance_atom_site_label_2
_restr_distance_site_symmetry_2
_restr_distance_target
_restr_distance_target_weight_param
? ? ? ? ? ?
loop_
_restr_equal_angle_atom_site_label_1
_restr_equal_angle_site_symmetry_1
_restr_equal_angle_atom_site_label_2
_restr_equal_angle_site_symmetry_2
_restr_equal_angle_atom_site_label_3
_restr_equal_angle_site_symmetry_3
_restr_equal_angle_class_class_id
_restr_equal_angle_class_target_weight_param
? ? ? ? ? ? ? ?
loop_
_restr_equal_distance_atom_site_label_1
_restr_equal_distance_site_symmetry_1
_restr_equal_distance_atom_site_label_2
_restr_equal_distance_site_symmetry_2
_restr_equal_distance_class_class_id
_restr_equal_distance_class_target_weight_param
? ? ? ? ? ?
loop_
_restr_equal_torsion_atom_site_label_1
_restr_equal_torsion_site_symmetry_1
_restr_equal_torsion_atom_site_label_2
_restr_equal_torsion_site_symmetry_2
_restr_equal_torsion_atom_site_label_3
_restr_equal_torsion_site_symmetry_3
_restr_equal_torsion_atom_site_label_4
_restr_equal_torsion_site_symmetry_4
_restr_equal_torsion_class_class_id
_restr_equal_torsion_class_target_weight_param
? ? ? ? ? ? ? ? ? ?
loop_
_restr_torsion_atom_site_label_1
_restr_torsion_site_symmetry_1
_restr_torsion_atom_site_label_2
_restr_torsion_site_symmetry_2
_restr_torsion_atom_site_label_3
_restr_torsion_site_symmetry_3
_restr_torsion_atom_site_label_4
_restr_torsion_site_symmetry_4
_restr_torsion_angle_target
_restr_torsion_weight_param
? ? ? ? ? ? ? ? ? ?
loop_
_jana_atom_site_adp_c_label
_jana_atom_site_adp_c_type_symbol
_jana_atom_site_adp_c_111
_jana_atom_site_adp_c_112
_jana_atom_site_adp_c_113
_jana_atom_site_adp_c_122
_jana_atom_site_adp_c_123
_jana_atom_site_adp_c_133
_jana_atom_site_adp_c_222
_jana_atom_site_adp_c_223
_jana_atom_site_adp_c_233
_jana_atom_site_adp_c_333
? ? ? ? ? ? ? ? ? ? ? ?
loop_
_jana_atom_site_adp_d_label
_jana_atom_site_adp_d_type_symbol
_jana_atom_site_adp_d_1111
_jana_atom_site_adp_d_1112
_jana_atom_site_adp_d_1113
_jana_atom_site_adp_d_1122
_jana_atom_site_adp_d_1123
_jana_atom_site_adp_d_1133
_jana_atom_site_adp_d_1222
_jana_atom_site_adp_d_1223
_jana_atom_site_adp_d_1233
_jana_atom_site_adp_d_1333
_jana_atom_site_adp_d_2222
_jana_atom_site_adp_d_2223
_jana_atom_site_adp_d_2233
_jana_atom_site_adp_d_2333
_jana_atom_site_adp_d_3333
? ? ? ? ? ? ? ? ? ? ? ? ? ? ? ? ?
loop_
_jana_atom_site_adp_e_label
_jana_atom_site_adp_e_type_symbol
_jana_atom_site_adp_e_11111
_jana_atom_site_adp_e_11112
_jana_atom_site_adp_e_11113
_jana_atom_site_adp_e_11122
_jana_atom_site_adp_e_11123
_jana_atom_site_adp_e_11133
_jana_atom_site_adp_e_11222
_jana_atom_site_adp_e_11223
_jana_atom_site_adp_e_11233
_jana_atom_site_adp_e_11333
_jana_atom_site_adp_e_12222
_jana_atom_site_adp_e_12223
_jana_atom_site_adp_e_12233
_jana_atom_site_adp_e_12333
_jana_atom_site_adp_e_13333
_jana_atom_site_adp_e_22222
_jana_atom_site_adp_e_22223
_jana_atom_site_adp_e_22233
_jana_atom_site_adp_e_22333
_jana_atom_site_adp_e_23333
_jana_atom_site_adp_e_33333
? ? ? ? ? ? ? ? ? ? ? ? ? ? ? ? ? ? ? ? ? ? ?
loop_
_jana_atom_site_adp_f_label
_jana_atom_site_adp_f_type_symbol
_jana_atom_site_adp_f_111111
_jana_atom_site_adp_f_111112
_jana_atom_site_adp_f_111113
_jana_atom_site_adp_f_111122
_jana_atom_site_adp_f_111123
_jana_atom_site_adp_f_111133
_jana_atom_site_adp_f_111222
_jana_atom_site_adp_f_111223
_jana_atom_site_adp_f_111233
_jana_atom_site_adp_f_111333
_jana_atom_site_adp_f_112222
_jana_atom_site_adp_f_112223
_jana_atom_site_adp_f_112233
_jana_atom_site_adp_f_112333
_jana_atom_site_adp_f_113333
_jana_atom_site_adp_f_122222
_jana_atom_site_adp_f_122223
_jana_atom_site_adp_f_122233
_jana_atom_site_adp_f_122333
_jana_atom_site_adp_f_123333
_jana_atom_site_adp_f_133333
_jana_atom_site_adp_f_222222
_jana_atom_site_adp_f_222223
_jana_atom_site_adp_f_222233
_jana_atom_site_adp_f_222333
_jana_atom_site_adp_f_223333
_jana_atom_site_adp_f_233333
_jana_atom_site_adp_f_333333
? ? ? ? ? ? ? ? ? ? ? ? ? ? ? ? ? ? ? ? ? ? ? ? ? ? ? ? ? ?
