#------------------------------------------------------------------------------
#$Date: 2021-06-05 21:47:25 +0300 (Sat, 05 Jun 2021) $
#$Revision: 266063 $
#$URL: file:///home/coder/svn-repositories/cod/cif/7/70/68/7706851.cif $
#------------------------------------------------------------------------------
#
# This file is available in the Crystallography Open Database (COD),
# http://www.crystallography.net/
#
# All data on this site have been placed in the public domain by the
# contributors.
#
data_7706851
loop_
_publ_author_name
'Hu, Lei'
'Mahaut, Damien'
'Tumanov, Nikolay'
'Wouters, Johan'
'Collard, Laurent'
'Robiette, Rapha\"el'
'Berionni, Guillaume'
_publ_section_title
;
 Sterically hindered ortho-substituted phosphatriptycenes as
 configurationally stable P-chirogenic triarylphosphines.
;
_journal_issue                   14
_journal_name_full
'Dalton transactions (Cambridge, England : 2003)'
_journal_page_first              4772
_journal_page_last               4777
_journal_paper_doi               10.1039/d1dt00816a
_journal_volume                  50
_journal_year                    2021
_chemical_formula_moiety         'C18 H9 Br6 P'
_chemical_formula_sum            'C18 H9 Br6 P'
_chemical_formula_weight         735.68
_chemical_name_common
(2,3-dibromophenyl)bis(2,6-dibromophenyl)phosphane
_chemical_name_systematic
(2,3-dibromophenyl)bis(2,6-dibromophenyl)phosphane
_space_group_crystal_system      triclinic
_space_group_IT_number           2
_space_group_name_Hall           '-P 1'
_space_group_name_H-M_alt        'P -1'
_atom_sites_solution_hydrogens   geom
_atom_sites_solution_primary     dual
_atom_sites_solution_secondary   dual
_audit_creation_method           SHELXL-2018/3
_audit_update_record
;
2021-02-08 deposited with the CCDC.	2021-03-15 downloaded from the CCDC.
;
_cell_angle_alpha                78.126(13)
_cell_angle_beta                 82.433(12)
_cell_angle_gamma                81.201(11)
_cell_formula_units_Z            2
_cell_length_a                   7.4004(9)
_cell_length_b                   8.9219(12)
_cell_length_c                   15.889(3)
_cell_measurement_reflns_used    1068
_cell_measurement_temperature    100(2)
_cell_measurement_theta_max      40.7270
_cell_measurement_theta_min      5.3480
_cell_volume                     1009.1(3)
_computing_cell_refinement       'CrysAlisPro 1.171.40.82a (Rigaku OD, 2020)'
_computing_data_collection       'CrysAlisPro 1.171.40.82a (Rigaku OD, 2020)'
_computing_data_reduction        'CrysAlisPro 1.171.40.82a (Rigaku OD, 2020)'
_computing_structure_refinement  'SHELXL-2018/3 (Sheldrick, 2018)'
_computing_structure_solution    'SHELXT (Sheldrick, 2015)'
_diffrn_ambient_temperature      100(2)
_diffrn_detector_area_resol_mean 5.1856
_diffrn_measured_fraction_theta_full 0.964
_diffrn_measured_fraction_theta_max 0.964
_diffrn_measurement_device_type
;
Oxford Diffraction Xcalibur, Ruby, Gemini ultra
;
_diffrn_measurement_method       '\w scans'
_diffrn_radiation_monochromator  'multilayer mirror'
_diffrn_radiation_type           CuK\a
_diffrn_radiation_wavelength     1.54184
_diffrn_reflns_av_unetI/netI     0.0503
_diffrn_reflns_Laue_measured_fraction_full 0.964
_diffrn_reflns_Laue_measured_fraction_max 0.964
_diffrn_reflns_limit_h_max       5
_diffrn_reflns_limit_h_min       -6
_diffrn_reflns_limit_k_max       7
_diffrn_reflns_limit_k_min       -7
_diffrn_reflns_limit_l_max       13
_diffrn_reflns_limit_l_min       -13
_diffrn_reflns_number            2316
_diffrn_reflns_point_group_measured_fraction_full 0.964
_diffrn_reflns_point_group_measured_fraction_max 0.964
_diffrn_reflns_theta_full        40.794
_diffrn_reflns_theta_max         40.794
_diffrn_reflns_theta_min         2.857
_diffrn_source                   'fine-focus sealed tube'
_exptl_absorpt_coefficient_mu    15.123
_exptl_absorpt_correction_T_max  0.736
_exptl_absorpt_correction_T_min  0.153
_exptl_absorpt_correction_type   gaussian
_exptl_absorpt_process_details
;
CrysAlisPro 1.171.40.53 (Rigaku Oxford Diffraction, 2019)
Numerical absorption correction based on gaussian integration over
a multifaceted crystal model
Empirical absorption correction using spherical harmonics,
 implemented in SCALE3 ABSPACK scaling algorithm.
;
_exptl_crystal_colour            colourless
_exptl_crystal_density_diffrn    2.421
_exptl_crystal_description       plate
_exptl_crystal_F_000             684
_exptl_crystal_size_max          0.430
_exptl_crystal_size_mid          0.058
_exptl_crystal_size_min          0.021
_refine_diff_density_max         1.023
_refine_diff_density_min         -1.221
_refine_diff_density_rms         0.229
_refine_ls_extinction_method     none
_refine_ls_goodness_of_fit_ref   1.095
_refine_ls_hydrogen_treatment    constr
_refine_ls_matrix_type           full
_refine_ls_number_parameters     227
_refine_ls_number_reflns         2316
_refine_ls_number_restraints     171
_refine_ls_restrained_S_all      1.056
_refine_ls_R_factor_all          0.0912
_refine_ls_R_factor_gt           0.0735
_refine_ls_shift/su_max          0.000
_refine_ls_shift/su_mean         0.000
_refine_ls_structure_factor_coef Fsqd
_refine_ls_weighting_details
'w=1/[\s^2^(Fo^2^)+(0.1624P)^2^+3.0830P] where P=(Fo^2^+2Fc^2^)/3'
_refine_ls_weighting_scheme      calc
_refine_ls_wR_factor_gt          0.2115
_refine_ls_wR_factor_ref         0.2272
_reflns_Friedel_coverage         0.000
_reflns_number_gt                1816
_reflns_number_total             2316
_reflns_threshold_expression     'I > 2\s(I)'
_cod_data_source_file            d1dt00816a2.cif
_cod_data_source_block           test23_Lie91_lowres
_cod_depositor_comments
'Adding full bibliography for 7706848--7706861.cif.'
_cod_database_code               7706851
_shelx_shelxl_version_number     2018/3
_shelx_space_group_comment
;
The symmetry employed for this shelxl refinement is uniquely defined
by the following loop, which should always be used as a source of
symmetry information in preference to the above space-group names.
They are only intended as comments.
;
_shelx_estimated_absorpt_t_min   0.059
_shelx_estimated_absorpt_t_max   0.742
_shelx_res_file
;
TITL test23_lie91_lowres_a.res in P-1
    test23_Lie91_lowres.res
    created by SHELXL-2018/3 at 11:04:13 on 08-Feb-2021
REM Old TITL test23_lie91_lowres_a.res in P-1
REM SHELXT solution in P-1
REM R1 0.137, Rweak 0.006, Alpha 0.076, Orientation as input
REM Formula found by SHELXT: C12 N6 P Br6
CELL 1.54184   7.400405   8.921909  15.889432  78.1258  82.4326  81.2014
ZERR    2.00   0.000856   0.001239   0.002562   0.0127   0.0116   0.0110
LATT 1
SFAC C H P Br

UNIT 36 18 2 12
L.S. 10
PLAN  20
BOND $H
list 6
fmap 2
ACTA
MERG 0
CONF
TEMP -173
SIZE 0.021 0.058 0.43
RIGU 0.002 0.002 BR1 > C18
REM SIMU 0.02 0.02 BR6 C18 P1 C13 BR2 C2 > C5
REM ISOR C2 C3
WGHT    0.162400    3.083000
BASF   0.37476
FVAR       3.49390
BR1   4    0.027700    0.520517    0.189280    11.00000    0.02891    0.03319 =
         0.05308   -0.00197    0.00542   -0.00156
BR2   4    0.116557    0.801053    0.017443    11.00000    0.04246    0.03679 =
         0.04898    0.00461   -0.00066    0.00230
BR3   4    0.758251    0.298122    0.353390    11.00000    0.03894    0.04437 =
         0.04001   -0.00893    0.00279   -0.01196
BR4   4    0.374184    0.001367    0.152028    11.00000    0.03761    0.03481 =
         0.04556   -0.00967    0.00347   -0.00948
BR5   4    0.372772    0.648340    0.314296    11.00000    0.05983    0.02874 =
         0.04470   -0.00706    0.00076   -0.01048
BR6   4    0.295285   -0.005515    0.416337    11.00000    0.04197    0.03013 =
         0.04328    0.00330    0.00431   -0.00681
P1    3    0.354438    0.269294    0.259186    11.00000    0.02797    0.02688 =
         0.03468   -0.00250    0.00338   -0.00432
C1    1    0.414424    0.437253    0.175106    11.00000    0.02791    0.02920 =
         0.03013    0.00217    0.00345   -0.00094
C2    1    0.593230    0.453456    0.140273    11.00000    0.02957    0.02427 =
         0.02523   -0.00277    0.00595   -0.00122
AFIX  43
H2    2    0.692156    0.381959    0.162734    11.00000   -1.20000
AFIX   0
C3    1    0.628962    0.578158    0.070311    11.00000    0.03766    0.03367 =
         0.01879    0.00013    0.00423   -0.00276
AFIX  43
H3    2    0.751451    0.590588    0.046207    11.00000   -1.20000
AFIX   0
C4    1    0.484002    0.679561    0.038487    11.00000    0.04074    0.02645 =
         0.04104   -0.00202   -0.00922   -0.00709
AFIX  43
H4    2    0.506361    0.765836   -0.005923    11.00000   -1.20000
AFIX   0
C5    1    0.310038    0.657191    0.070008    11.00000    0.03799    0.03510 =
         0.02442   -0.00107   -0.01263   -0.00314
C6    1    0.269638    0.540344    0.139750    11.00000    0.03486    0.03288 =
         0.02950   -0.00249   -0.00219    0.00290
C7    1    0.571781    0.142762    0.252819    11.00000    0.03579    0.02709 =
         0.01757    0.00489    0.00587   -0.00405
C8    1    0.733516    0.147094    0.288505    11.00000    0.03615    0.02416 =
         0.01188    0.00631    0.00771   -0.00494
C9    1    0.891199    0.045287    0.277121    11.00000    0.03666    0.03963 =
         0.04917   -0.01166    0.00071    0.00032
AFIX  43
H9    2    0.999275    0.054787    0.300859    11.00000   -1.20000
REM #####
AFIX   0
C10   1    0.891445   -0.072181    0.230434    11.00000    0.01992    0.03201 =
         0.04384   -0.00547    0.01228   -0.00274
AFIX  43
H10   2    0.998084   -0.144612    0.223598    11.00000   -1.20000
AFIX   0
C11   1    0.733859   -0.080772    0.194531    11.00000    0.02046    0.03684 =
         0.03994   -0.00667    0.01482   -0.00686
AFIX  43
H11   2    0.731935   -0.157632    0.161334    11.00000   -1.20000
AFIX   0
C12   1    0.578776    0.023863    0.207466    11.00000    0.01906    0.03479 =
         0.03415   -0.00650    0.01408   -0.00818
C13   1    0.325114    0.320103    0.367017    11.00000    0.02676    0.02988 =
         0.03045   -0.00261    0.00742   -0.01071
C14   1    0.307581    0.465687    0.390684    11.00000    0.03539    0.03039 =
         0.03614   -0.00486   -0.00493   -0.00503
C15   1    0.256518    0.485471    0.476101    11.00000    0.05532    0.04848 =
         0.03939   -0.01384   -0.00306   -0.01460
AFIX  43
H15   2    0.247240    0.584873    0.490358    11.00000   -1.20000
AFIX   0
C16   1    0.220397    0.361899    0.538334    11.00000    0.05173    0.04857 =
         0.03896   -0.01166    0.00670   -0.00157
AFIX  43
H16   2    0.188384    0.376258    0.596295    11.00000   -1.20000
AFIX   0
C17   1    0.228367    0.218342    0.520733    11.00000    0.02760    0.04335 =
         0.02886   -0.00302    0.01006    0.00090
AFIX  43
H17   2    0.199695    0.133554    0.564978    11.00000   -1.20000
AFIX   0
C18   1    0.280664    0.199195    0.434518    11.00000    0.01018    0.03336 =
         0.02798    0.00081    0.00870   -0.00055
HKLF 5




REM  test23_lie91_lowres_a.res in P-1
REM wR2 = 0.2272, GooF = S = 1.095, Restrained GooF = 1.056 for all data
REM R1 = 0.0735 for 1816 Fo > 4sig(Fo) and 0.0912 for all 2316 data
REM 227 parameters refined using 171 restraints

END

WGHT      0.1624      3.0778

REM Highest difference peak  1.023,  deepest hole -1.221,  1-sigma level  0.229
Q1    1   0.3510  0.0523  0.3199  11.00000  0.05    1.02
Q2    1   0.3226 -0.0168  0.3361  11.00000  0.05    0.97
Q3    1   0.3574  0.0946  0.2143  11.00000  0.05    0.75
Q4    1   0.1288 -0.0027  0.4120  11.00000  0.05    0.75
Q5    1   0.3074  0.1724  0.3625  11.00000  0.05    0.74
Q6    1   0.5801  0.3516  0.3443  11.00000  0.05    0.73
Q7    1   0.3718  0.8062  0.3429  11.00000  0.05    0.73
Q8    1  -0.1364  0.5381  0.1879  11.00000  0.05    0.72
Q9    1   0.3994  0.5838  0.2445  11.00000  0.05    0.71
Q10   1   0.0775  0.8175  0.1058  11.00000  0.05    0.71
Q11   1   0.2139  0.0402  0.1459  11.00000  0.05    0.70
Q12   1  -0.0486  0.3449  0.2419  11.00000  0.05    0.70
Q13   1   0.2629  0.0571  0.4923  11.00000  0.05    0.69
Q14   1   0.7183  0.4473  0.3418  11.00000  0.05    0.68
Q15   1   0.0039  0.5500  0.2793  11.00000  0.05    0.68
Q16   1   0.4813  0.6991  0.2170  11.00000  0.05    0.68
Q17   1   0.8239  0.4783  0.2939  11.00000  0.05    0.68
Q18   1   0.4219  0.0050  0.0622  11.00000  0.05    0.67
Q19   1   0.0041  0.6687  0.1966  11.00000  0.05    0.66
Q20   1   0.3351 -0.0563  0.2470  11.00000  0.05    0.66
;
_shelx_res_checksum              61962
_shelx_hkl_file
;
   0   0   1 388.638 289.663  -2
   0   0  -1 388.638 289.663   1
   0   0   2 76775.0 1586.26  -2
   0   0  -2 76775.0 1586.26   1
   0   0   3 7807.77 801.647  -2
   0   0  -3 7807.77 801.647   1
   0   0   4 10297.2 241.635  -2
   0   0  -4 10297.2 241.635   1
   0   0   5 134215. 949.213  -2
   0   0  -5 134215. 949.213   1
   0   0   6 159723. 2748.68  -2
   0   0  -6 159723. 2748.68   1
   0   0   7 48543.9 1610.05  -2
   0   0  -7 48543.9 1610.05   1
   0   0   8 13897.9 976.415  -2
   0   0  -8 13897.9 976.415   1
   0   0   9 675.837 454.218  -2
   0   0  -9 675.837 454.218   1
   0   0 -10 555.029 411.465  -2
   0   0  10 555.029 411.465   1
   0   0 -11 1032.53 1056.30  -2
   0   0  11 1032.53 1056.30   1
   0   0 -12 30905.5 2990.57  -2
   0   0  12 30905.5 2990.57   1
   0   1 -12 77160.9 4511.16  -2
   0  -1  12 77160.9 4511.16   1
   0   1 -11 179589. 6386.18  -2
   0  -1  11 179589. 6386.18   1
   0  -1  10 88604.3 2986.67  -2
   0   1 -10 88604.3 2986.67   1
   0  -1   9 16371.4 764.568  -2
   0   1  -9 16371.4 764.568   1
   0  -1   8 1466.25 601.431  -2
   0   1  -8 1466.25 601.431   1
   0   1  -7 4343.84 351.000  -2
   0  -1   7 4343.84 351.000   1
   0  -1   6 50851.1 857.300  -2
   0   1  -6 50851.1 857.300   1
   0  -1   5 762.998 383.424  -2
   0   1  -5 762.998 383.424   1
   0  -1   4 8917.05 379.987  -2
   0   1  -4 8917.05 379.987   1
   0  -1   3 30420.5 483.948  -2
   0   1  -3 30420.5 483.948   1
   0  -1   2 12732.7 2000.83  -2
   0   1  -2 12732.7 2000.83   1
   0   1  -1 9188.57 492.283  -2
   0  -1   1 9188.57 492.283   1
   0   1   0 168.050 44.8678  -2
   0  -1   0 168.050 44.8678   1
   0   1   1 16947.6 191.302  -2
   0  -1  -1 16947.6 191.302   1
   0   1   2 173335. 2010.71  -2
   0  -1  -2 173335. 2010.71   1
   0   1   3 266.300 141.487  -2
   0  -1  -3 266.300 141.487   1
   0   1   4 15278.7 362.990  -2
   0  -1  -4 15278.7 362.990   1
   0   1   5 149360. 1092.57  -2
   0  -1  -5 149360. 1092.57   1
   0   1   6 92828.7 975.083  -2
   0  -1  -6 92828.7 975.083   1
   0   1   7 530699. 2526.05  -2
   0  -1  -7 530699. 2526.05   1
   0   1   8 96311.1 1218.98  -2
   0  -1  -8 96311.1 1218.98   1
   0   1   9 41219.5 2320.65  -2
   0  -1  -9 41219.5 2320.65   1
   0   1  10 16046.5 1223.07  -2
   0  -1 -10 16046.5 1223.07   1
   0  -1 -11 5598.40 1259.44  -2
   0   1  11 5598.40 1259.44   1
   0  -1 -12 2102.63 1342.69  -2
   0   1  12 2102.63 1342.69   1
   0  -1 -13 40750.3 3417.36  -2
   0   1  13 40750.3 3417.36   1
   0   2 -11 20548.1 2379.25  -2
   0  -2  11 20548.1 2379.25   1
   0  -2  10 16306.1 1467.87  -2
   0   2 -10 16306.1 1467.87   1
   0  -2   9 234356. 2726.67  -2
   0   2  -9 234356. 2726.67   1
   0   2  -8 74733.3 1453.88  -2
   0  -2   8 74733.3 1453.88   1
   0   2  -7 95988.0 1505.43  -2
   0  -2   7 95988.0 1505.43   1
   0  -2   6 105338. 2903.78  -2
   0   2  -6 105338. 2903.78   1
   0  -2   5 102366. 2760.68  -2
   0   2  -5 102366. 2760.68   1
   0   2  -4 30523.1 1483.55  -2
   0  -2   4 30523.1 1483.55   1
   0  -2   3 797888. 6134.96  -2
   0   2  -3 797888. 6134.96   1
   0   2  -2 47726.6 1024.51  -2
   0  -2   2 47726.6 1024.51   1
   0  -2   1 24782.5 644.304  -2
   0   2  -1 24782.5 644.304   1
   0   2   0 68302.0 505.987  -2
   0  -2   0 68302.0 505.987   1
   0   2   1 8963.48 282.593  -2
   0  -2  -1 8963.48 282.593   1
   0   2   2 51513.7 585.387  -2
   0  -2  -2 51513.7 585.387   1
   0   2   3 442908. 1494.01  -2
   0  -2  -3 442908. 1494.01   1
   0   2   4 251257. 1271.19  -2
   0  -2  -4 251257. 1271.19   1
   0   2   5 37226.8 1507.79  -2
   0  -2  -5 37226.8 1507.79   1
   0   2   6 33963.1 710.742  -2
   0  -2  -6 33963.1 710.742   1
   0   2   7 8812.71 490.560  -2
   0  -2  -7 8812.71 490.560   1
   0   2   8 92467.5 3661.09  -2
   0  -2  -8 92467.5 3661.09   1
   0   2   9 1056.05 744.795  -2
   0  -2  -9 1056.05 744.795   1
   0   2  10 11258.4 1117.59  -2
   0  -2 -10 11258.4 1117.59   1
   0  -2 -11 39699.5 1228.51  -2
   0   2  11 39699.5 1228.51   1
   0  -2 -12 64159.4 2513.68  -2
   0   2  12 64159.4 2513.68   1
   0  -2 -13 2157.15 1732.99  -2
   0   2  13 2157.15 1732.99   1
   0   3 -10 12791.9 2069.47  -2
   0  -3  10 12791.9 2069.47   1
   0   3  -9 2138.58 813.879  -2
   0  -3   9 2138.58 813.879   1
   0   3  -8 2040.93 742.797  -2
   0  -3   8 2040.93 742.797   1
   0  -3   7 8403.18 1033.68  -2
   0   3  -7 8403.18 1033.68   1
   0   3  -6 7153.71 979.271  -2
   0  -3   6 7153.71 979.271   1
   0   3  -5 10379.1 764.718  -2
   0  -3   5 10379.1 764.718   1
   0   3  -4 158123. 2399.43  -2
   0  -3   4 158123. 2399.43   1
   0   3  -3 56187.6 1154.03  -2
   0  -3   3 56187.6 1154.03   1
   0   3  -2 487.589 158.853  -2
   0  -3   2 487.589 158.853   1
   0   3  -1 350691. 1768.64  -2
   0  -3   1 350691. 1768.64   1
   0  -3   0 111290. 679.749  -2
   0   3   0 111290. 679.749   1
   0   3   1 9875.09 256.941  -2
   0  -3  -1 9875.09 256.941   1
   0   3   2 88554.9 766.957  -2
   0  -3  -2 88554.9 766.957   1
   0   3   3 30625.9 467.354  -2
   0  -3  -3 30625.9 467.354   1
   0   3   4 182644. 1067.19  -2
   0  -3  -4 182644. 1067.19   1
   0   3   5 72187.9 855.191  -2
   0  -3  -5 72187.9 855.191   1
   0   3   6 543.037 241.789  -2
   0  -3  -6 543.037 241.789   1
   0   3   7 5219.21 392.783  -2
   0  -3  -7 5219.21 392.783   1
   0   3   8 55703.4 1987.91  -2
   0  -3  -8 55703.4 1987.91   1
   0   3   9 3678.19 421.874  -2
   0  -3  -9 3678.19 421.874   1
   0   3  10 80934.6 1563.87  -2
   0  -3 -10 80934.6 1563.87   1
   0   3  11 156769. 3908.19  -2
   0  -3 -11 156769. 3908.19   1
   0   3  12 30318.6 1874.16  -2
   0  -3 -12 30318.6 1874.16   1
   0   4  -9 8303.12 1765.25  -2
   0  -4   9 8303.12 1765.25   1
   0  -4   8 582.707 513.547  -2
   0   4  -8 582.707 513.547   1
   0   4  -7 34099.8 1926.39  -2
   0  -4   7 34099.8 1926.39   1
   0  -4   6 46678.6 2136.36  -2
   0   4  -6 46678.6 2136.36   1
   0  -4   5 85715.7 2708.28  -2
   0   4  -5 85715.7 2708.28   1
   0  -4   4 10432.5 820.547  -2
   0   4  -4 10432.5 820.547   1
   0  -4   3 67488.1 1810.76  -2
   0   4  -3 67488.1 1810.76   1
   0   4  -2 1413.68 471.884  -2
   0  -4   2 1413.68 471.884   1
   0  -4   1 15920.5 603.446  -2
   0   4  -1 15920.5 603.446   1
   0   4   0 203140. 1182.70  -2
   0  -4   0 203140. 1182.70   1
   0   4   1 2945.98 271.314  -2
   0  -4  -1 2945.98 271.314   1
   0   4   2 134.717 184.171  -2
   0  -4  -2 134.717 184.171   1
   0   4   3 142650. 1162.73  -2
   0  -4  -3 142650. 1162.73   1
   0   4   4 42591.0 690.359  -2
   0  -4  -4 42591.0 690.359   1
   0   4   5 225479. 1773.18  -2
   0  -4  -5 225479. 1773.18   1
   0   4   6 35211.0 758.690  -2
   0  -4  -6 35211.0 758.690   1
   0   4   7 11601.0 537.757  -2
   0  -4  -7 11601.0 537.757   1
   0   4   8 20896.4 1427.13  -2
   0  -4  -8 20896.4 1427.13   1
   0   4   9 137442. 5446.56  -2
   0  -4  -9 137442. 5446.56   1
   0   4  10 1682.69 968.582  -2
   0  -4 -10 1682.69 968.582   1
   0   4  11 2418.76 1141.37  -2
   0  -4 -11 2418.76 1141.37   1
   0   4  12 14783.0 2105.54  -2
   0  -4 -12 14783.0 2105.54   1
   0   5  -7 179816. 6469.76  -2
   0  -5   7 179816. 6469.76   1
   0   5  -6 27527.0 1752.66  -2
   0  -5   6 27527.0 1752.66   1
   0   5  -5 7705.28 1018.37  -2
   0  -5   5 7705.28 1018.37   1
   0  -5   4 47924.9 2096.07  -2
   0   5  -4 47924.9 2096.07   1
   0  -5   3 3178.49 762.787  -2
   0   5  -3 3178.49 762.787   1
   0   5  -2 30025.3 2114.52  -2
   0  -5   2 30025.3 2114.52   1
   0   5  -1 42046.5 2413.20  -2
   0  -5   1 42046.5 2413.20   1
   0   5   0 14984.0 1453.67  -2
   0  -5   0 14984.0 1453.67   1
   0   5   1 106.109 326.791  -2
   0  -5  -1 106.109 326.791   1
   0   5   2 180960. 1575.99  -2
   0  -5  -2 180960. 1575.99   1
   0   5   3 1174.49 441.151  -2
   0  -5  -3 1174.49 441.151   1
   0   5   4 38215.2 956.552  -2
   0  -5  -4 38215.2 956.552   1
   0   5   5 12077.2 554.905  -2
   0  -5  -5 12077.2 554.905   1
   0   5   6 8243.02 508.359  -2
   0  -5  -6 8243.02 508.359   1
   0   5   7 129299. 3957.30  -2
   0  -5  -7 129299. 3957.30   1
   0   5   8 116.002 1078.94  -2
   0  -5  -8 116.002 1078.94   1
   0   5   9 1910.41 1049.52  -2
   0  -5  -9 1910.41 1049.52   1
   0   5  10 137.355 1245.67  -2
   0  -5 -10 137.355 1245.67   1
   0   5  11 46085.0 3512.54  -2
   0  -5 -11 46085.0 3512.54   1
   0   6  -5 15259.6 1945.72  -2
   0  -6   5 15259.6 1945.72   1
   0   6  -4 126642. 5110.29  -2
   0  -6   4 126642. 5110.29   1
   0   6  -3 5885.48 1301.02  -2
   0  -6   3 5885.48 1301.02   1
   0   6  -2 43240.1 2231.92  -2
   0  -6   2 43240.1 2231.92   1
   0   6  -1 32884.9 1182.04  -2
   0  -6   1 32884.9 1182.04   1
   0   6   0 217805. 4667.49  -2
   0  -6   0 217805. 4667.49   1
   0   6   1 11143.8 1257.76  -2
   0  -6  -1 11143.8 1257.76   1
   0   6   2 73108.4 1697.42  -2
   0  -6  -2 73108.4 1697.42   1
   0   6   3 6592.59 593.811  -2
   0  -6  -3 6592.59 593.811   1
   0   6   4 4344.39 669.835  -2
   0  -6  -4 4344.39 669.835   1
   0   6   5 10239.8 1221.65  -2
   0  -6  -5 10239.8 1221.65   1
   0   6   6 33757.9 2117.25  -2
   0  -6  -6 33757.9 2117.25   1
   0   6   7 37140.7 2349.22  -2
   0  -6  -7 37140.7 2349.22   1
   0   6   8 23169.2 2967.56  -2
   0  -6  -8 23169.2 2967.56   1
   0   6   9 21718.5 2651.17  -2
   0  -6  -9 21718.5 2651.17   1
   0   7  -1 26301.3 1986.47  -2
   0  -7   1 26301.3 1986.47   1
   0   7   0 2416.50 565.677  -2
   0  -7   0 2416.50 565.677   1
   0   7   1 570.976 542.389  -2
   0  -7  -1 570.976 542.389   1
   0   7   2 5130.30 649.144  -2
   0  -7  -2 5130.30 649.144   1
   0   7   3 24494.5 1851.25  -2
   0  -7  -3 24494.5 1851.25   1
   0   7   4 75802.0 3170.01  -2
   0  -7  -4 75802.0 3170.01   1
   0   7   5 22973.1 3167.78  -2
   0  -7  -5 22973.1 3167.78   1
   0   7   6 12101.4 1468.75  -2
   0  -7  -6 12101.4 1468.75   1
   1  -7  -3 14694.0 1565.01   1
   1  -7  -2 25541.3 1535.40   1
   1  -7  -1 7300.99 1025.59   1
   1  -6  -8 20519.2 2196.38   1
   1  -6  -7 17950.3 1851.74   1
   1  -6  -6 657.371 909.384   1
   1  -6  -5 6728.03 1092.31   1
   1  -6  -4 4057.04 686.801   1
   1  -6  -3 13615.1 1066.93   1
   1  -6  -2 316.579 492.340   1
   1  -6  -1 87.4827 524.260   1
   1  -6   0 6018.79 732.171   1
   1  -6   1 1150.96 534.157   1
   1  -6   2 763.921 612.171   1
   1  -6   3 82452.4 3098.26   1
   1  -6   4-319.183 854.421   1
   1  -5 -10 26341.1 2158.87   1
   1  -5  -9 882.437 894.906   1
   1  -5  -8 30375.3 1494.51   1
   1  -5  -7 29484.5 1419.96   1
   1  -5  -6 907.556 476.397   1
   1  -5  -5 88099.8 1802.61   1
   1  -5  -4 19754.7 745.408   1
   1  -5  -3 176983. 2377.43   1
   1  -5  -2 2994.16 478.162   1
   1  -5  -1 108139. 2288.30   1
   1  -5   0 60.7372 407.720   1
   1  -5   1 77286.7 2076.92   1
   1  -5   2 19051.8 1120.91   1
  -1   5  -3 31037.7 1289.82   1
   1  -5   4 53165.4 1730.87   1
   1  -5   5-1186.48 552.673   1
   1  -5   6 4666.81 715.508   1
  -1   5  -7 8754.30 912.743   1
   1  -4 -11 7438.57 1248.46   1
   1  -4 -10 19140.5 1673.11   1
   1  -4  -9 6000.04 710.079   1
   1  -4  -8 5152.39 655.416   1
   1  -4  -7 41303.3 1550.64   1
   1  -4  -6 256.007 407.601   1
   1  -4  -5 32721.6 1203.73   1
   1  -4  -4 1006.88 272.712   1
   1  -4  -3 12222.1 520.076   1
   1  -4  -2 314.879 230.739   1
   1  -4  -1 36654.4 793.479   1
  -1   4   0 346.102 306.046   1
   1  -4   1 35916.3 1067.27   1
   1  -4   2 1692.61 404.610   1
   1  -4   3 7292.25 620.112   1
   1  -4   4 204501. 3244.80   1
   1  -4   5-9.97586 458.239   1
   1  -4   6 21419.4 1215.04   1
  -1   4  -7 50870.9 1838.98   1
  -1   4  -8 23542.3 1372.49   1
   1  -4   9 215.656 759.423   1
   1  -3 -12 47199.0 1819.53   1
   1  -3 -11 223.201 621.631   1
  -1   3  10 4681.97 630.888   1
   1  -3  -9 22943.8 966.327   1
  -1   3   8 75435.5 1661.13   1
   1  -3  -7 37131.5 1170.40   1
   1  -3  -6 60270.1 1311.85   1
   1  -3  -5 10401.0 710.125   1
  -1   3   4 55483.6 855.327   1
  -1   3   3 14510.3 327.134   1
   1  -3  -2 41941.0 592.610   1
  -1   3   1 3359.27 240.932   1
   1  -3   0 135628. 1242.47   1
   1  -3   1 53539.5 990.584   1
   1  -3   2 5541.87 298.482   1
   1  -3   3 6911.25 407.578   1
   1  -3   4 17598.4 608.191   1
  -1   3  -5 654.220 437.618   1
   1  -3   6 1573.46 564.094   1
   1  -3   7 16940.4 1064.99   1
  -1   3  -8 1185.11 618.029   1
   1  -3   9 67045.0 2060.88   1
  -1   3 -10 9965.53 1383.74   1
  -1   2  12 12479.2 1533.42   1
   1  -2 -11 1823.19 571.971   1
  -1   2  10 17423.3 1023.82   1
  -1   2   9 2398.97 525.618   1
   1  -2  -8 25073.5 1208.28   1
   1  -2  -7 22457.1 1272.89   1
  -1   2   6 641.250 738.046   1
  -1   2   5 81890.1 1863.61   1
  -1   2   4 7006.02 503.671   1
   1  -2  -3 78447.8 945.597   1
   1  -2  -2 302384. 1288.79   1
   1  -2  -1 4536.39 149.197   1
   1  -2   0 3036.51 211.109   1
   1  -2   1 171622. 1323.18   1
   1  -2   2 24938.6 618.838   1
  -1   2  -3 38751.8 1183.27   1
  -1   2  -4 192.814 328.136   1
  -1   2  -5 156.596 1084.81   1
  -1   2  -6 3962.59 538.081   1
  -1   2  -7 74265.4 3455.82   1
  -1   2  -8 60328.4 1891.98   1
   1  -2   9 1250.19 533.027   1
  -1   2 -10 2834.85 639.679   1
  -1   2 -11 13948.5 1110.04   1
  -1   1  12 4697.01 1150.89   1
  -1   1  11 24123.4 2004.18   1
   1  -1 -10 4328.01 540.250   1
   1  -1  -9 20040.0 1000.85   1
  -1   1   8 75743.3 1862.59   1
  -1   1   7 4625.73 659.790   1
   1  -1  -6 27525.0 1602.80   1
  -1   1   5 14779.5 1007.72   1
   1  -1  -4 5042.69 480.145   1
   1  -1  -3 67215.9 1071.58   1
  -1   1   2 38911.5 682.061   1
  -1   1   1 7119.33 269.293   1
  -1   1   0 131608. 787.179   1
  -1   1  -1 15926.3 321.219   1
   1  -1   2 6556.78 378.080   1
  -1   1  -3 88325.5 1837.72   1
  -1   1  -4 182513. 3239.59   1
  -1   1  -5 55769.3 2443.02   1
  -1   1  -6 85608.6 1934.06   1
  -1   1  -7 9218.10 896.775   1
  -1   1  -8 19639.6 1056.14   1
  -1   1  -9 33524.6 2145.06   1
  -1   1 -10 7422.76 1188.88   1
   1  -1  11 1246.86 558.164   1
  -1   1 -12 22511.5 1379.09   1
  -1   0  12 31071.9 2335.43   1
  -1   0  11 30129.9 2208.05   1
  -1   0  10 93937.4 3563.01   1
  -1   0   9 3143.81 929.977   1
  -1   0   8 101516. 1868.04   1
   1   0  -7 3418.54 476.616   1
   1   0  -6 1584.38 461.771   1
  -1   0   5 74657.1 1567.45   1
  -1   0   4 3477.57 347.299   1
   1   0  -3 27880.1 652.282   1
  -1   0   2 31157.6 923.830   1
  -1   0   1 141842. 1597.10   1
  -1   0   0 42505.2 790.456   1
  -1   0  -1 8719.90 243.672   1
  -1   0  -2 7256.68 434.182   1
  -1   0  -3 42177.0 1083.35   1
  -1   0  -4 126989. 2250.62   1
  -1   0  -5 21109.9 876.120   1
  -1   0  -6 20152.7 1125.62   1
  -1   0  -7 21669.1 1236.63   1
  -1   0  -8 107382. 2295.23   1
  -1   0  -9 35637.4 1300.45   1
  -1   0 -10 1016.58 624.695   1
  -1   0 -11 35861.4 2047.73   1
   1   0  12 2570.19 674.584   1
  -1  -1  12 8140.98 1428.89   1
  -1  -1  11 37227.7 2439.76   1
  -1  -1  10 8419.85 1245.00   1
  -1  -1   9 5819.34 1142.48   1
  -1  -1   8 24903.2 1851.14   1
  -1  -1   7 1597.32 831.734   1
  -1  -1   6 6146.99 1259.89   1
  -1  -1   5 125692. 3320.28   1
  -1  -1   4 1520.51 549.298   1
  -1  -1   3 999999. 25110.2   1
  -1  -1   2 410.480 369.195   1
  -1  -1   1 18.4111 284.484   1
  -1  -1   0 17680.1 610.884   1
  -1  -1  -1 4832.90 183.027   1
  -1  -1  -2 53856.3 1104.58   1
  -1  -1  -3 171126. 1085.41   1
  -1  -1  -4 3870.09 399.017   1
  -1  -1  -5 6698.66 399.577   1
  -1  -1  -6 34151.2 1514.67   1
  -1  -1  -7 863.063 495.418   1
  -1  -1  -8 240.494 469.119   1
  -1  -1  -9 66442.2 1722.15   1
  -1  -1 -10 6168.20 611.294   1
  -1  -1 -11 13586.2 866.313   1
  -1  -1 -12 6420.79 974.005   1
   1   1  13 9500.03 1550.84   1
  -1  -2  11-2315.08 1122.52   1
  -1  -2  10-993.327 925.416   1
  -1  -2   9 5468.80 1176.08   1
  -1  -2   8 153.349 786.339   1
  -1  -2   7 27063.5 1925.85   1
  -1  -2   6 19074.2 1588.24   1
  -1  -2   5 40210.6 1876.45   1
   1   2  -4 29992.9 1223.28   1
  -1  -2   3 38209.0 1318.81   1
  -1  -2   2 28880.4 1014.14   1
  -1  -2   1 13291.8 432.751   1
  -1  -2   0 21738.9 469.053   1
  -1  -2  -1 8286.12 310.332   1
  -1  -2  -2 113.506 151.428   1
  -1  -2  -3 104180. 874.327   1
  -1  -2  -4 479701. 3119.20   1
  -1  -2  -5 140255. 1178.91   1
  -1  -2  -6 32200.6 805.749   1
  -1  -2  -7 98.5981 376.345   1
  -1  -2  -8 3198.21 460.144   1
  -1  -2  -9 5978.05 592.265   1
  -1  -2 -10 62070.2 1574.51   1
  -1  -2 -11 99843.8 3139.45   1
  -1  -2 -12 3974.58 876.514   1
   1   2  13-348.076 1196.78   1
  -1  -3  10 2915.96 1308.83   1
  -1  -3   9 23531.6 1958.69   1
  -1  -3   8 85330.2 3323.17   1
  -1  -3   7 1719.88 862.644   1
  -1  -3   6 252924. 4885.33   1
  -1  -3   5 25382.5 1489.02   1
  -1  -3   4 16433.8 1102.38   1
  -1  -3   3-151.314 363.613   1
  -1  -3   2 10089.2 504.645   1
  -1  -3   1 3864.42 206.442   1
  -1  -3   0 221613. 1290.34   1
  -1  -3  -1 89847.3 856.644   1
  -1  -3  -2 2888.86 217.754   1
  -1  -3  -3 13972.7 513.476   1
  -1  -3  -4 1336.88 230.775   1
  -1  -3  -5 132598. 1571.31   1
  -1  -3  -6 5747.53 358.102   1
  -1  -3  -7 4965.42 561.935   1
  -1  -3  -8 23039.8 1057.71   1
  -1  -3  -9 10342.8 1167.01   1
  -1  -3 -10 25316.7 1726.90   1
  -1  -3 -11 1766.58 737.122   1
  -1  -3 -12 31994.4 2013.27   1
   1   3  13 5193.91 848.958   1
  -1  -4   7 17129.3 1514.01   1
  -1  -4   6 14267.9 888.714   1
  -1  -4   5 219.800 321.720   1
  -1  -4   4 84600.7 1428.63   1
  -1  -4   3 90841.7 1380.19   1
  -1  -4   2 474.152 232.165   1
  -1  -4   1 3434.87 306.593   1
  -1  -4   0 18726.1 433.608   1
  -1  -4  -1 173278. 1274.06   1
  -1  -4  -2 38874.2 843.386   1
  -1  -4  -3 3733.03 356.700   1
  -1  -4  -4 31036.1 1043.74   1
  -1  -4  -5 34853.0 1954.47   1
  -1  -4  -6 11654.3 811.461   1
  -1  -4  -7 100632. 2221.67   1
  -1  -4  -8 276486. 3744.96   1
  -1  -4  -9 5590.71 990.580   1
  -1  -4 -10 40.4613 657.150   1
  -1  -4 -11 1796.29 806.935   1
   1   4  12 5161.31 877.397   1
  -1  -5   7 865.375 908.876   1
  -1  -5   6 1472.41 750.925   1
  -1  -5   5 523.868 614.820   1
  -1  -5   4 938.807 483.881   1
  -1  -5   3 121692. 2387.56   1
  -1  -5   2 8459.66 681.090   1
  -1  -5   1 2226.63 405.407   1
  -1  -5   0 42222.4 1301.67   1
  -1  -5  -1 428.856 233.292   1
  -1  -5  -2 125187. 1645.71   1
  -1  -5  -3 10641.5 657.037   1
  -1  -5  -4 20958.9 943.187   1
  -1  -5  -5 11203.5 840.221   1
  -1  -5  -6 14767.2 985.986   1
  -1  -5  -7 5831.81 751.073   1
  -1  -5  -8 4716.03 742.389   1
  -1  -5  -9 3283.64 679.596   1
  -1  -5 -10 16185.0 1645.82   1
  -1  -5 -11 32102.7 2243.84   1
  -1  -6   5 364.869 868.118   1
  -1  -6   4 3722.96 836.472   1
  -1  -6   3 5789.55 710.562   1
  -1  -6   2 615.316 483.837   1
  -1  -6   1 134197. 2670.44   1
  -1  -6   0 1171.69 518.388   1
  -1  -6  -1 18735.8 1310.65   1
  -1  -6  -2 3907.98 716.229   1
  -1  -6  -3 1052.85 372.837   1
  -1  -6  -4 107298. 1864.63   1
  -1  -6  -5 31476.0 1429.16   1
  -1  -6  -6 675.903 529.317   1
  -1  -6  -7 4423.36 715.080   1
  -1  -6  -8 16168.4 1223.21   1
  -1  -6  -9 32820.6 1669.33   1
  -1  -6 -10 17144.6 1869.92   1
  -1  -7   1 15359.6 1392.45   1
  -1  -7   0-12.2876 777.568   1
  -1  -7  -1 2108.01 630.528   1
  -1  -7  -2 397.634 624.629   1
  -1  -7  -3 19453.4 1240.52   1
  -1  -7  -4 18184.9 1226.12   1
  -1  -7  -5 45582.6 2869.50   1
  -1  -7  -6 17794.1 1179.84   1
  -1  -7  -7 11864.3 1173.17   1
   2  -6  -7 49526.2 2717.91   1
   2  -6  -6 3912.95 1087.07   1
   2  -6  -5 13750.1 1594.43   1
   2  -6  -4 4.82334 883.770   1
   2  -6  -3 51121.1 2487.87   1
   2  -6  -2 21830.0 1740.43   1
   2  -6  -1 46097.5 2383.40   1
   2  -6   0-806.486 738.745   1
   2  -6   1 42697.7 2262.68   1
   2  -6   2 98048.7 3313.86   1
   2  -6   3-450.461 933.198   1
   2  -5  -9 10712.8 1427.94   1
   2  -5  -8 11106.9 1392.71   1
   2  -5  -7 11541.4 1438.49   1
   2  -5  -6 35924.9 2202.12   1
   2  -5  -5 15736.3 1452.70   1
   2  -5  -4 2988.34 815.264   1
   2  -5  -3-14.1321 369.985   1
   2  -5  -2 3138.50 522.016   1
   2  -5  -1-66.1298 432.596   1
   2  -5   0 38014.1 1825.85   1
   2  -5   1 4684.60 759.442   1
   2  -5   2 8565.67 989.015   1
  -2   5  -3 14826.8 1209.83   1
   2  -5   4 31334.0 1527.55   1
   2  -5   5 16129.1 1164.88   1
   2  -5   6 5022.71 815.778   1
   2  -4 -10 43059.8 2528.81   1
   2  -4  -9 6393.47 1113.89   1
   2  -4  -8 125674. 3874.01   1
   2  -4  -7 5559.51 957.422   1
   2  -4  -6 77381.7 2882.90   1
   2  -4  -5 24.1706 530.750   1
   2  -4  -4 152182. 3609.19   1
   2  -4  -3 507.430 357.500   1
   2  -4  -2 26546.3 759.430   1
  -2   4   1 49673.9 1034.67   1
  -2   4   0 17429.4 663.079   1
  -2   4  -1 68418.6 1560.21   1
  -2   4  -2 15291.4 853.639   1
  -2   4  -3 2743.08 468.952   1
   2  -4   4 7748.02 797.485   1
   2  -4   5 18841.5 1304.52   1
   2  -4   6 15242.4 1164.54   1
  -2   4  -7 12998.5 1150.05   1
  -2   4  -8 2862.92 816.951   1
   2  -3 -11 774.925 1211.40   1
   2  -3 -10 13795.8 1540.19   1
   2  -3  -9 2096.53 836.289   1
  -2   3   8-76.1404 537.134   1
  -2   3   7 174.436 398.119   1
  -2   3   6 436.902 387.972   1
   2  -3  -5 3658.49 405.903   1
   2  -3  -4 17599.8 1205.27   1
   2  -3  -3-109.809 289.063   1
   2  -3  -2 13837.9 679.329   1
  -2   3   1 87733.4 1197.95   1
   2  -3   0 14656.5 531.761   1
  -2   3  -1 238457. 2042.10   1
  -2   3  -2 313.512 272.848   1
  -2   3  -3 36634.2 1117.25   1
   2  -3   4 76724.0 1752.76   1
  -2   3  -5 57939.8 1733.68   1
  -2   3  -6 254.986 496.683   1
   2  -3   7 39075.4 1806.46   1
  -2   3  -8 68981.9 2336.99   1
  -2   3  -9 15620.0 1252.16   1
   2  -3  10 8109.61 976.418   1
  -2   2  11 47926.6 3201.80   1
  -2   2  10 19560.7 2053.02   1
  -2   2   9 12854.1 1978.65   1
  -2   2   8 4960.67 1409.12   1
   2  -2  -7 85880.3 2524.67   1
  -2   2   6 1118.19 562.251   1
  -2   2   5 36786.8 1501.18   1
  -2   2   4 2252.04 506.217   1
   2  -2  -3 129882. 2788.32   1
   2  -2  -2 74808.0 960.182   1
  -2   2   1 13123.2 394.541   1
   2  -2   0 231.895 153.774   1
   2  -2   1 13916.1 450.779   1
  -2   2  -2 58758.9 910.971   1
   2  -2   3 1828.90 310.254   1
  -2   2  -4 27051.0 912.957   1
  -2   2  -5 937.450 608.517   1
  -2   2  -6 16323.0 1636.67   1
  -2   2  -7 33317.8 2902.92   1
  -2   2  -8 12058.0 2327.27   1
  -2   2  -9 649.291 1210.57   1
  -2   2 -10 2040.38 1078.21   1
  -2   2 -11 38815.3 1821.79   1
  -2   1  11-18.6699 1220.13   1
  -2   1  10 3218.54 1060.71   1
  -2   1   9 8197.65 1655.75   1
  -2   1   8 3089.97 2184.83   1
  -2   1   7 1451.90 1275.36   1
  -2   1   6 28971.5 1802.27   1
  -2   1   5 173620. 3500.33   1
  -2   1   4 50835.0 1667.97   1
  -2   1   3 468.282 345.677   1
  -2   1   2 187023. 2516.57   1
   2  -1  -1 18353.5 584.091   1
   2  -1   0 61976.8 736.153   1
  -2   1  -1 41840.8 596.030   1
  -2   1  -2 55663.4 737.994   1
  -2   1  -3 27893.6 710.967   1
  -2   1  -4 167032. 2925.54   1
  -2   1  -5 123654. 2860.88   1
  -2   1  -6 10540.4 1127.83   1
  -2   1  -7 28427.9 2203.10   1
  -2   1  -8 16371.8 1202.99   1
  -2   1  -9-8.00683 1292.56   1
  -2   1 -10 13932.9 1861.60   1
  -2   1 -11 32704.2 2522.78   1
  -2   1 -12 41745.1 1937.20   1
  -2   0  11 38455.4 2691.01   1
  -2   0  10 7590.60 1449.42   1
  -2   0   9 1470.42 1075.26   1
  -2   0   8 18527.8 2623.22   1
  -2   0   7 80.2260 2070.51   1
  -2   0   6 98089.1 3415.18   1
  -2   0   5 41456.0 1891.88   1
  -2   0   4 52402.8 1810.08   1
  -2   0   3 44618.9 1499.22   1
  -2   0   2 666.520 370.633   1
  -2   0   1 2934.30 474.258   1
  -2   0   0 106669. 1790.21   1
   2   0   2 143919. 862.786   1
  -2   0  -3 33244.1 1122.99   1
  -2   0  -4 31553.7 1148.47   1
  -2   0  -5 9141.29 772.076   1
  -2   0  -6 19146.3 1229.31   1
  -2   0  -7 1034.38 743.585   1
  -2   0  -8 258.554 596.051   1
  -2   0  -9 6783.06 1001.78   1
  -2   0 -10 8635.86 1028.15   1
  -2   0 -11 15628.7 1679.96   1
  -2   0 -12 54358.8 2899.60   1
  -2  -1  11 72928.5 3632.07   1
  -2  -1  10 14480.0 1853.44   1
  -2  -1   9 2420.21 1135.74   1
  -2  -1   8 59628.0 3515.38   1
  -2  -1   7 31.3628 1005.55   1
  -2  -1   6 201.904 762.924   1
  -2  -1   5 27099.0 1616.99   1
  -2  -1   4 90161.8 2457.90   1
  -2  -1   3 4864.78 648.183   1
  -2  -1   2 32722.1 1248.08   1
  -2  -1   1 8657.99 690.086   1
  -2  -1   0 5573.61 193.279   1
  -2  -1  -1 210952. 2589.26   1
   2   1   2 56277.3 686.710   1
  -2  -1  -3 129883. 2314.57   1
  -2  -1  -4 265.382 176.584   1
  -2  -1  -5 44972.9 740.419   1
  -2  -1  -6 9803.64 657.455   1
  -2  -1  -7 4548.50 691.415   1
  -2  -1  -8 96883.8 2771.49   1
  -2  -1  -9 11896.8 1200.32   1
  -2  -1 -10 41477.5 1733.56   1
  -2  -1 -11 734.424 598.205   1
  -2  -1 -12 2411.27 1030.46   1
  -2  -2  10 9625.11 1672.91   1
  -2  -2   9-45.1926 1100.85   1
  -2  -2   8 111522. 4509.12   1
  -2  -2   7 10550.0 1546.93   1
  -2  -2   6 208686. 4919.53   1
  -2  -2   5 12825.9 1247.05   1
  -2  -2   4 14590.7 1130.84   1
  -2  -2   3 769.130 487.457   1
  -2  -2   2 109813. 2335.15   1
  -2  -2   1 24234.1 1086.58   1
  -2  -2   0 78824.7 957.969   1
  -2  -2  -1 206.566 147.300   1
  -2  -2  -2 1181.07 194.099   1
  -2  -2  -3 123635. 2231.91   1
  -2  -2  -4 7587.05 356.644   1
  -2  -2  -5 1462.75 245.556   1
  -2  -2  -6 43083.0 1279.11   1
  -2  -2  -7 5565.48 466.705   1
  -2  -2  -8 18975.2 1411.49   1
  -2  -2  -9 20057.0 1226.27   1
  -2  -2 -10 14771.4 989.958   1
  -2  -2 -11 9847.09 1337.78   1
  -2  -2 -12 21996.7 1848.65   1
  -2  -3   9 1522.10 1317.12   1
  -2  -3   8 34573.9 2547.29   1
  -2  -3   7 27958.3 2139.25   1
  -2  -3   6 242.397 750.507   1
  -2  -3   5 24819.1 1609.51   1
  -2  -3   4 2725.62 657.747   1
  -2  -3   3 16569.0 1146.70   1
  -2  -3   2-57.3041 252.374   1
  -2  -3   1 38197.5 768.720   1
  -2  -3   0 178436. 1589.14   1
  -2  -3  -1 103772. 1211.22   1
  -2  -3  -2 28797.8 666.085   1
  -2  -3  -3 17010.7 484.573   1
  -2  -3  -4 820.732 207.232   1
  -2  -3  -5 56934.6 951.995   1
  -2  -3  -6 16086.3 1794.42   1
  -2  -3  -7 26656.6 1099.17   1
  -2  -3  -8 50089.9 1478.79   1
  -2  -3  -9 20789.1 1854.24   1
  -2  -3 -10 7814.93 1260.24   1
  -2  -3 -11 100.447 774.033   1
  -2  -3 -12 45689.0 2517.43   1
  -2  -4   8 4062.50 1493.73   1
  -2  -4   7 938.705 1141.36   1
  -2  -4   6 2743.51 546.073   1
  -2  -4   5 892.037 434.973   1
  -2  -4   4 1508.36 385.850   1
  -2  -4   3 101594. 1866.94   1
  -2  -4   2 25572.7 890.098   1
  -2  -4   1 83.9485 250.912   1
  -2  -4   0 48357.2 765.606   1
  -2  -4  -1 20065.1 532.289   1
  -2  -4  -2 48340.6 821.849   1
  -2  -4  -3 6690.05 444.352   1
  -2  -4  -4 2913.54 519.034   1
  -2  -4  -5 38424.7 1323.05   1
  -2  -4  -6 589.415 658.425   1
  -2  -4  -7 75245.3 1935.18   1
  -2  -4  -8 5157.47 652.195   1
  -2  -4  -9 44216.7 2546.59   1
  -2  -4 -10 10970.4 1398.74   1
  -2  -4 -11 12671.7 1499.68   1
  -2  -4 -12 7896.45 1302.52   1
  -2  -5   7 10555.8 1346.92   1
  -2  -5   6 30527.1 2044.33   1
  -2  -5   5 3515.76 570.043   1
  -2  -5   4 43855.7 1533.11   1
  -2  -5   3 46464.0 1494.59   1
  -2  -5   2 46863.7 1447.17   1
  -2  -5   1 18080.9 895.633   1
  -2  -5   0 15549.9 813.742   1
  -2  -5  -1 8045.04 601.878   1
  -2  -5  -2 6830.39 458.067   1
  -2  -5  -3 79232.3 1406.14   1
  -2  -5  -4 54656.9 1233.49   1
  -2  -5  -5 119994. 2457.35   1
  -2  -5  -6 6217.68 1164.33   1
  -2  -5  -7 2917.47 572.578   1
  -2  -5  -8 6840.49 783.018   1
  -2  -5  -9 3533.37 688.987   1
  -2  -5 -10 29276.8 2207.79   1
  -2  -5 -11 2880.86 931.357   1
  -2  -6   4 9368.47 885.672   1
  -2  -6   3 17337.1 1113.84   1
  -2  -6   2-428.765 558.496   1
  -2  -6   1 60389.9 1789.90   1
  -2  -6   0 6616.46 666.252   1
  -2  -6  -1 41046.2 1413.91   1
  -2  -6  -2 10391.5 830.299   1
  -2  -6  -3 1277.05 466.229   1
  -2  -6  -4 21516.0 1040.26   1
  -2  -6  -5-309.417 730.924   1
  -2  -6  -6 9904.51 937.212   1
  -2  -6  -7-898.631 611.666   1
  -2  -6  -8 55269.0 2038.42   1
  -2  -6  -9 3395.86 758.159   1
  -2  -7   1 710.840 831.049   1
  -2  -7   0 12526.7 1026.89   1
  -2  -7  -1 42967.3 2130.78   1
  -2  -7  -2 28815.9 1931.67   1
  -2  -7  -3 2233.63 896.074   1
  -2  -7  -4 5469.38 985.088   1
  -2  -7  -5 9556.21 1542.38   1
  -2  -7  -6 31631.8 2347.07   1
   3  -6  -1 827.058 1166.79   1
   3   6   8 6037.81 1430.05  -2
   3  -5  -6 6037.81 1430.05   1
   3   6   7 10563.5 1727.60  -2
   3  -5  -5 10563.5 1727.60   1
   3   6   6 61634.8 3023.01  -2
   3  -5  -4 61634.8 3023.01   1
   3   6   5 16614.6 1758.77  -2
   3  -5  -3 16614.6 1758.77   1
   3  -5  -2 48463.8 2484.56   1
   3  -5  -1 47216.1 1641.12   1
   3  -5   0 2213.79 748.139   1
   3  -5   1 6785.58 1146.65   1
   3  -5   2 41861.4 2072.34   1
   3  -5   3-161.425 860.857   1
   3  -5   4 5512.03 1056.59   1
   3   5  10 15925.4 1879.93  -2
   3  -4  -8 15925.4 1879.93   1
   3   5   9 18846.0 1974.27  -2
   3  -4  -7 18846.0 1974.27   1
   3   5   8 9438.48 1480.03  -2
   3  -4  -6 9438.48 1480.03   1
   3   5   7 40902.7 2373.14  -2
   3  -4  -5 40902.7 2373.14   1
   3   5   6 6415.41 1212.75  -2
   3  -4  -4 6415.41 1212.75   1
   3   5   5 8221.68 1250.40  -2
   3  -4  -3 8221.68 1250.40   1
  -3   4   2 10649.5 741.496   1
  -3   4   1 2928.97 496.790   1
   3   5   3 4652.01 870.092  -2
   3  -4  -1 4652.01 870.092   1
   3  -4   0 98122.6 1639.08   1
  -3   4  -1 266.562 323.400   1
  -3   4  -2 2044.29 467.544   1
   3  -4   3 9993.30 825.962   1
  -3   4  -4 8329.07 820.972   1
  -3   4  -5 93193.6 2523.52   1
  -3   4  -6-49.9485 880.549   1
  -3   4  -7 2410.85 2447.90   1
   3  -3  -9 14706.4 1750.05   1
   3  -3  -8 794.136 840.156   1
   3  -3  -7 90555.2 3622.75   1
   3   4   8 14423.5 1638.61  -2
   3  -3  -6 14423.5 1638.61   1
   3   4   7 37805.1 2156.65  -2
   3  -3  -5 37805.1 2156.65   1
   3   4   6 48260.2 2243.05  -2
   3  -3  -4 48260.2 2243.05   1
   3  -3  -3 2296.97 682.330   1
   3  -3  -2 24565.0 1489.52   1
  -3   3   1 54603.8 1442.74   1
   3   4   3 93187.0 2283.50  -2
   3  -3  -1 93187.0 2283.50   1
  -3   3   0 12567.9 576.348   1
  -3   3  -1 13118.8 580.804   1
   3  -3   2 41966.5 991.944   1
   3  -3   3 18863.1 872.182   1
  -3   3  -4 5643.07 597.429   1
   3  -3   5 19220.0 1006.60   1
  -3   3  -6 5361.91 669.765   1
  -3   3  -7 27095.9 1491.57   1
  -3   3  -8-1233.01 2438.99   1
  -3   3  -9 6108.81 2082.27   1
  -3   2  10 2077.06 2261.71   1
  -3   2   9 1309.97 1741.20   1
  -3   2   8 8558.66 1388.28   1
  -3   2   7 2641.55 842.606   1
  -3   2   6 2334.43 694.510   1
  -3   2   5 3032.33 656.115   1
  -3   2   4 93170.7 1851.79   1
  -3   2   3 64027.7 1421.52   1
  -3   2   2 59075.8 1267.10   1
  -3   2   1 20681.7 737.000   1
   3  -2   0 48406.3 848.286   1
   3  -2   1 31780.1 739.930   1
   3  -2   2 67799.5 1067.60   1
   3  -2   3 4122.62 422.290   1
  -3   2  -4 11152.3 631.393   1
  -3   2  -5 35476.4 1133.61   1
  -3   2  -6 14617.4 869.577   1
  -3   2  -7 33581.7 1400.83   1
   3  -2   8 29355.1 1534.31   1
  -3   2  -9 1951.41 2223.90   1
  -3   2 -10 42376.0 3824.17   1
  -3   1  10 28464.5 2971.06   1
  -3   1   9 1145.86 2302.11   1
  -3   1   8 6031.99 1457.57   1
  -3   1   7 550.466 830.735   1
  -3   1   6 54867.1 2473.32   1
  -3   1   5 30055.0 1682.70   1
  -3   1   4 37934.1 1676.70   1
  -3   1   3-140.007 480.031   1
  -3   1   2 28959.9 1290.77   1
  -3   1   1 81037.7 1440.63   1
  -3   1   0 14412.5 617.178   1
   3  -1   1 10201.0 372.871   1
   3  -1   2 30372.9 544.374   1
  -3   1  -3 7201.83 348.641   1
  -3   1  -4 133843. 1672.30   1
  -3   1  -5 25184.2 852.555   1
  -3   1  -6 745.032 325.748   1
  -3   1  -7 2361.46 765.352   1
  -3   1  -8 14416.0 1827.91   1
  -3   1  -9 5777.61 984.165   1
  -3   1 -10 10525.4 2493.33   1
  -3   1 -11 427.131 1733.35   1
  -3   0  10-826.930 1684.65   1
  -3   0   9 473.476 2510.03   1
  -3   0   8 20015.4 3018.17   1
  -3   0   7 94991.3 4149.96   1
  -3   0   6 3059.05 1003.15   1
  -3   0   5 31320.2 1833.15   1
  -3   0   4 2157.24 592.226   1
  -3   0   3 54856.6 1947.20   1
  -3   0   2 49142.5 1744.64   1
  -3   0   1 31779.6 1330.26   1
  -3   0   0 206847. 3130.50   1
  -3   0  -1 138288. 1658.54   1
  -3   0  -2 82020.5 1261.28   1
  -3   0  -3 13885.0 471.016   1
   3   0   4 100331. 1160.01   1
  -3   0  -5 68854.6 2042.30   1
  -3   0  -6 6862.08 857.003   1
  -3   0  -7 36514.5 1901.92   1
  -3   0  -8 20717.8 1238.16   1
  -3   0  -9 34224.2 1828.30   1
  -3   0 -10 984.348 1131.51   1
  -3   0 -11 5894.08 1551.43   1
  -3   0 -12 1029.52 1611.01   1
  -3  -1  10 66.5952 1633.36   1
  -3  -1   9 65213.4 4439.22   1
  -3  -1   8 13421.6 2409.77   1
  -3  -1   7 46944.8 3033.81   1
  -3  -1   6 7168.12 1191.96   1
  -3  -1   5 6471.00 1046.76   1
  -3  -1   4 2832.56 724.100   1
  -3  -1   3 573.317 517.038   1
  -3  -1   2 246543. 3976.66   1
  -3  -1   1 19715.6 1124.86   1
  -3  -1   0 706.655 404.631   1
  -3  -1  -1 35085.8 1372.09   1
   3   1   2 245.058 188.186   1
   3   1   3 19462.3 520.113   1
  -3  -1  -4 6573.01 637.546   1
  -3  -1  -5 182.250 209.779   1
  -3  -1  -6 100.191 449.014   1
  -3  -1  -7 111914. 2953.09   1
  -3  -1  -8 11884.1 996.968   1
  -3  -1  -9 52061.3 2209.42   1
  -3  -1 -10 1241.69 1056.66   1
  -3  -1 -11 25393.3 1773.84   1
  -3  -1 -12 2783.84 1561.81   1
  -3  -2   9 19926.8 2407.81   1
  -3  -2   8 3964.02 1529.95   1
  -3  -2   7 25794.2 2402.42   1
  -3  -2   6 2957.24 940.540   1
  -3  -2   5 39836.3 2165.12   1
  -3  -2   4 22761.8 1547.24   1
  -3  -2   3 53507.1 2123.88   1
  -3  -2   2 178455. 3582.15   1
  -3  -2   1 21153.9 564.458   1
  -3  -2   0 172653. 3152.25   1
  -3  -2  -1 21923.8 1165.77   1
  -3  -2  -2 13309.0 1003.60   1
  -3  -2  -3 152.235 393.549   1
  -3  -2  -4 2920.41 388.163   1
  -3  -2  -5 208009. 2044.27   1
  -3  -2  -6 41846.2 1284.95   1
  -3  -2  -7 11971.8 845.254   1
  -3  -2  -8-8.09424 590.550   1
  -3  -2  -9 6327.00 1065.42   1
  -3  -2 -10 904.872 1136.83   1
  -3  -2 -11 6685.49 1421.80   1
  -3  -2 -12 27305.2 2327.56   1
  -3  -3   8 8836.29 1824.78   1
  -3  -3   7 7228.18 1458.69   1
  -3  -3   6 9124.50 1422.94   1
  -3  -3   5 97202.7 3421.49   1
  -3  -3   4 134.248 652.692   1
  -3  -3   3 26763.8 948.764   1
  -3  -3   2 21289.7 764.853   1
  -3  -3   1 13527.0 511.509   1
  -3  -3   0 61588.2 2023.37   1
  -3  -3  -1 15861.8 836.287   1
  -3  -3  -2 2.37169 405.587   1
  -3  -3  -3 14605.6 842.807   1
  -3  -3  -4 51854.7 896.352   1
  -3  -3  -5 38727.1 891.246   1
  -3  -3  -6 22852.7 1032.46   1
  -3  -3  -7 4732.71 1503.42   1
  -3  -3  -8 13614.6 2042.37   1
  -3  -3  -9 15648.1 2088.43   1
  -3  -3 -10 938.128 1027.94   1
  -3  -3 -11 1323.76 1016.87   1
  -3  -3 -12 52259.8 3039.34   1
  -3  -4   7 7954.45 1656.10   1
  -3  -4   6 134.670 1059.17   1
  -3  -4   5 1079.14 540.385   1
  -3  -4   4 24852.6 1096.07   1
  -3  -4   3 141760. 2263.57   1
  -3  -4   2 14926.6 735.261   1
  -3  -4   1 705.584 261.391   1
  -3  -4   0 304.324 482.036   1
  -3  -4  -1 1529.17 462.249   1
  -3  -4  -2 123649. 1951.45   1
  -3  -4  -3 47027.4 1205.45   1
  -3  -4  -4 1780.19 602.316   1
  -3  -4  -5 19417.4 1091.71   1
  -3  -4  -6 46287.6 1611.64   1
  -3  -4  -7 20802.7 2264.85   1
  -3  -4  -8 7188.72 1525.49   1
  -3  -4  -9 98559.9 4221.70   1
  -3  -4 -10 41654.2 2765.09   1
  -3  -4 -11 141.494 1023.93   1
  -3  -5   6 38326.0 2298.01   1
  -3  -5   5 1880.47 1064.03   1
  -3  -5   4 388.459 903.682   1
  -3  -5   3 28757.2 1341.28   1
  -3  -5   2 24030.6 1143.52   1
  -3  -5   1 8535.44 711.027   1
  -3  -5   0 1189.71 425.494   1
  -3  -5  -1 92.6384 406.678   1
  -3  -5  -2 2372.02 474.867   1
  -3  -5  -3 1864.90 506.941   1
  -3  -5  -4 75708.5 2049.52   1
  -3  -5  -5-369.122 496.862   1
  -3  -5  -6 9824.13 888.940   1
  -3  -5  -7-298.713 1049.72   1
  -3  -5  -8 13044.8 1016.24   1
  -3  -5  -9 25835.6 2245.36   1
  -3  -5 -10 13936.4 1744.65   1
  -3  -6   3 3374.59 1332.69   1
  -3  -6   2 11628.5 1547.11   1
  -3  -6   1 847.172 938.155   1
  -3  -6   0 105898. 3810.41   1
  -3  -6  -1 15591.6 1593.41   1
  -3  -6  -2 34423.1 2193.01   1
  -3  -6  -3 10808.6 1443.62   1
  -3  -6  -4 8768.50 1395.43   1
  -3  -6  -5 25450.5 1353.12   1
  -3  -6  -6 14863.3 1759.75   1
  -3  -6  -7 13831.7 1121.34   1
  -3  -6  -8 4603.89 811.867   1
   4  -4  -5 47915.1 2669.74   1
   4  -4  -4 12235.3 1484.88   1
   4  -4  -3 12385.8 1464.29   1
   4  -4  -2 258.659 767.789   1
   4  -4  -1 4497.55 944.426   1
  -4   4   0 7920.59 803.275   1
  -4   4  -1 8764.84 1207.62   1
  -4   4  -2 6876.34 1152.77   1
  -4   4  -3 469.723 1150.43   1
  -4   4  -4 7120.99 1360.59   1
  -4   4  -5 7935.42 2028.67   1
   4  -3  -7 4499.73 1061.93   1
   4  -3  -6 219.770 907.343   1
   4  -3  -5 2190.75 847.090   1
   4  -3  -4 304.571 692.182   1
   4  -3  -3 133416. 3881.91   1
   4  -3  -2 19667.4 1545.40   1
  -4   3   1 1619.13 464.005   1
   4  -3   0 17148.0 968.576   1
   4  -3   1 1209.36 408.794   1
  -4   3  -2 115873. 2353.02   1
  -4   3  -3 3529.49 861.572   1
  -4   3  -4 4852.64 998.345   1
  -4   3  -5 10972.3 1481.00   1
  -4   3  -6 11968.0 1801.82   1
  -4   3  -7-1031.46 1735.34   1
   4  -2  -8 16549.1 1947.28   1
   4  -2  -7 3352.81 1183.11   1
   4  -2  -6 2880.54 933.231   1
   4  -2  -5-148.181 706.099   1
   4  -2  -4 17854.6 1505.50   1
   4  -2  -3 1366.46 590.632   1
  -4   2   2 13678.3 769.607   1
   4  -2  -1 38603.2 1862.26   1
   4  -2   0 2981.19 630.295   1
  -4   2  -1 5762.74 586.360   1
  -4   2  -2 19746.2 945.436   1
  -4   2  -3 4203.61 543.572   1
  -4   2  -4 59133.5 2449.37   1
  -4   2  -5 37430.3 2121.35   1
  -4   2  -6 1414.61 795.323   1
  -4   2  -7-398.055 959.232   1
  -4   2  -8 4296.52 1470.24   1
  -4   1   9 4436.80 2916.92   1
  -4   1   8 2810.04 1817.11   1
  -4   1   7 26162.1 2365.56   1
  -4   1   6 58984.6 2878.97   1
  -4   1   5 2967.35 858.031   1
  -4   1   4 25657.9 1625.22   1
  -4   1   3 38011.9 1327.26   1
  -4   1   2 942.347 356.672   1
  -4   1   1 112216. 1963.93   1
  -4   1   0 21376.5 903.740   1
  -4   1  -1 2767.47 396.784   1
   4  -1   2 2041.14 373.237   1
   4  -1   3 25376.0 959.817   1
  -4   1  -4 33610.6 1741.34   1
  -4   1  -5 66034.3 2526.74   1
  -4   1  -6 6517.61 1102.86   1
  -4   1  -7 23065.3 1815.47   1
  -4   1  -8 6804.17 1436.57   1
  -4   1  -9 6655.88 1133.27   1
  -4   0   8 3101.50 2231.82   1
  -4   0   7 36233.1 2898.12   1
  -4   0   6 658.613 952.946   1
  -4   0   5 16622.8 1594.30   1
  -4   0   4 52529.6 2427.30   1
  -4   0   3 845.720 566.767   1
  -4   0   2 2003.08 615.141   1
  -4   0   1 967.108 492.798   1
  -4   0   0 6403.22 513.784   1
  -4   0  -1 223112. 2500.06   1
  -4   0  -2 12650.6 631.643   1
  -4   0  -3 40499.6 891.716   1
  -4   0  -4 113.978 431.265   1
  -4   0  -5 3786.52 735.203   1
  -4   0  -6 14679.2 1260.10   1
  -4   0  -7 47457.2 2271.90   1
  -4   0  -8 9202.40 1314.68   1
  -4   0  -9 3278.40 825.467   1
  -4   0 -10-241.596 1243.09   1
  -4  -1   8 3176.82 2367.18   1
  -4  -1   7 4115.54 1414.97   1
  -4  -1   6 8493.15 1450.74   1
  -4  -1   5 11921.1 1516.59   1
  -4  -1   4 30999.1 1969.22   1
  -4  -1   3 94483.4 3089.37   1
  -4  -1   2 23359.4 1516.73   1
  -4  -1   1 2175.06 584.953   1
  -4  -1   0 40716.0 1782.43   1
  -4  -1  -1 33915.2 987.200   1
  -4  -1  -2 161378. 1940.76   1
  -4  -1  -3 199.267 500.408   1
  -4  -1  -4 13189.6 1051.56   1
  -4  -1  -5 7496.70 864.317   1
  -4  -1  -6 25332.7 1452.39   1
  -4  -1  -7 1478.22 643.399   1
  -4  -1  -8 15117.0 1116.96   1
  -4  -1  -9 941.574 772.452   1
  -4  -1 -10 640.801 1198.31   1
  -4  -1 -11 1822.83 1715.09   1
  -4  -2   8 13064.4 2490.31   1
  -4  -2   7 373.725 1427.38   1
  -4  -2   6-167.233 1085.09   1
  -4  -2   5 39652.7 2479.75   1
  -4  -2   4 5887.71 1130.27   1
  -4  -2   3 38894.6 2113.62   1
  -4  -2   2 42768.3 2085.45   1
  -4  -2   1 6.25227 513.778   1
  -4  -2   0 550.036 473.734   1
  -4  -2  -1 1058.73 523.642   1
  -4  -2  -2 4557.68 697.448   1
  -4  -2  -3 964.295 484.589   1
  -4  -2  -4 228910. 2828.71   1
  -4  -2  -5 540.795 502.092   1
  -4  -2  -6 18317.1 1176.49   1
  -4  -2  -7 6785.87 743.365   1
  -4  -2  -8 25525.8 1378.37   1
  -4  -2  -9 7750.96 1073.66   1
  -4  -2 -10 11682.0 2241.26   1
  -4  -2 -11 3834.24 1934.64   1
  -4  -3   7 32485.4 2974.06   1
  -4  -3   6 30965.9 2701.14   1
  -4  -3   5 42938.5 2647.36   1
  -4  -3   4 3346.24 932.369   1
  -4  -3   3 56503.3 2596.26   1
  -4  -3   2 2304.63 730.743   1
  -4  -3   1 6211.78 949.316   1
  -4  -3   0 3336.25 735.374   1
  -4  -3  -1 600.827 601.237   1
  -4  -3  -2 134833. 3422.76   1
  -4  -3  -3 33238.9 1707.15   1
  -4  -3  -4 953.546 562.956   1
  -4  -3  -5 240.378 303.306   1
  -4  -3  -6 499.959 894.252   1
  -4  -3  -7 1654.24 1091.76   1
  -4  -3  -8 3617.12 1583.90   1
  -4  -3  -9 16908.7 2591.07   1
  -4  -3 -10 3787.91 1533.68   1
  -4  -3 -11 29866.8 2975.23   1
  -4  -4   5 24068.4 2148.98   1
  -4  -4   4 20677.6 1824.32   1
  -4  -4   3 12894.2 1397.81   1
  -4  -4   2 9121.19 1140.19   1
  -4  -4   1 3361.26 756.242   1
  -4  -4   0 209.922 566.034   1
  -4  -4  -1 167205. 3858.98   1
  -4  -4  -2 18489.0 1198.39   1
  -4  -4  -3 5492.69 569.274   1
  -4  -4  -4 4826.95 694.754   1
  -4  -4  -5 13368.7 1070.42   1
  -4  -4  -6 6806.79 807.514   1
  -4  -4  -7 8371.14 1940.94   1
  -4  -4  -8 4275.09 1540.34   1
  -4  -4  -9 30874.4 2944.25   1
  -4  -4 -10 14329.1 2149.90   1
  -4  -5   4-1352.43 1437.49   1
  -4  -5   3 10644.4 1339.04   1
  -4  -5   2 1753.18 1001.18   1
  -4  -5   1 80785.0 2960.28   1
  -4  -5   0 46792.5 1664.09   1
  -4  -5  -1 1270.07 516.604   1
  -4  -5  -2 2665.39 580.089   1
  -4  -5  -3 41774.5 1513.25   1
  -4  -5  -4 13460.2 1151.24   1
  -4  -5  -5 20227.6 1296.89   1
  -4  -5  -6 59243.0 1994.31   1
  -4  -5  -7 16945.7 2185.26   1
  -4  -5  -8 6005.65 1446.60   1
  -4  -5  -9 1045.48 1306.51   1
  -4  -6   0 5.47010 1067.62   1
  -4  -6  -1 42655.9 2594.50   1
  -4  -6  -2 188.221 988.016   1
  -4  -6  -3 1780.90 930.917   1
  -4  -6  -4 14893.4 1586.69   1
  -4  -6  -5 843.128 985.335   1
  -4  -6  -6 29586.6 2039.95   1
  -4  -6  -7 19144.3 2192.50   1
  -5   3   3 17696.5 1247.47   1
  -5   3   2 5702.06 863.308   1
  -5   3   1 17117.7 1149.02   1
  -5   3   0 2523.13 671.991   1
  -5   3  -1 26617.0 1336.31   1
  -5   3  -2 819.623 1007.04   1
  -5   3  -3 11323.3 1478.67   1
   5  -2  -5 17702.6 1893.00   1
   5  -2  -4 1805.83 1011.53   1
   5  -2  -3 6323.60 1166.91   1
   5  -2  -2 2431.56 821.238   1
   5  -2  -1 100497. 3278.99   1
  -5   2   0 12585.4 931.132   1
  -5   2  -1 23658.7 1158.45   1
  -5   2  -2 6728.18 715.035   1
  -5   2  -3 3920.80 810.793   1
  -5   2  -4-85.5710 854.830   1
  -5   2  -5 14347.4 1552.52   1
  -5   2  -6 9567.09 1467.23   1
  -5   1   6-100.190 1056.12   1
  -5   1   5 5855.07 956.284   1
  -5   1   4 16552.8 1177.29   1
  -5   1   3 2283.18 633.248   1
  -5   1   2 18912.4 1051.08   1
   5  -1  -1 2373.43 511.114   1
  -5   1   0 43852.7 1407.59   1
  -5   1  -1 48850.8 1469.61   1
  -5   1  -2 109325. 3473.20   1
  -5   1  -3 2852.16 788.590   1
  -5   1  -4 4172.02 919.047   1
  -5  -3   2 18508.0 1663.44  -2
  -5   1  -5 18508.0 1663.44   1
  -5   1  -6 29649.6 2064.13   1
  -5   1  -7 15020.6 1685.39   1
  -5   0   6 25747.4 2407.53   1
  -5   0   5-302.938 1063.46   1
  -5   0   4 37608.8 2279.62   1
  -5   0   3 18985.4 1135.41   1
  -5   0   2 9109.00 789.681   1
  -5   0   1 15256.6 901.688   1
   5   0   0-174.206 425.504   1
  -5   0  -1 44379.7 2054.43   1
  -5   0  -2 150336. 3862.29   1
  -5   0  -3 22488.4 1577.10   1
  -5   0  -4 8697.14 1153.02   1
  -5  -2   2 73058.5 2781.86  -2
  -5   0  -5 73058.5 2781.86   1
  -5   0  -6 16142.9 1489.18   1
  -5   0  -7 2921.91 1002.53   1
  -5   0  -8 2783.01 1097.56   1
  -5  -1   6 1857.70 1668.72   1
  -5  -1   5-1608.68 1178.99   1
  -5  -1   4 2894.79 1037.62   1
  -5  -1   3 536.213 745.176   1
  -5  -1   2 58291.8 2625.77   1
  -5  -1   1 4989.93 632.175   1
  -5  -1   0 11746.0 1203.50   1
  -5  -1  -1 13443.6 1248.56   1
  -5  -1  -2 3373.29 755.558   1
  -5  -1  -3 8140.88 1053.66   1
  -5  -1  -4 86475.3 2889.61   1
  -5  -1  -5 26899.8 1716.92   1
  -5  -1  -6 1862.80 644.342   1
  -5  -1  -7 1359.00 814.299   1
  -5  -1  -8 34261.4 2223.70   1
  -5  -1  -9 15486.3 1921.87   1
  -5  -1   6 11451.2 2799.30  -2
  -5  -1  -9 11451.2 2799.30   1
  -5  -2   5 1408.54 1241.59   1
  -5  -2   4 10495.3 1572.89   1
  -5  -2   3 15286.4 1745.87   1
  -5  -2   2 29604.2 1970.63   1
  -5  -2   1 167741. 4291.77   1
  -5  -2   0 307.462 770.015   1
  -5  -2  -1 1522.53 782.604   1
  -5  -2  -2 4547.53 999.822   1
  -5  -2  -3 4036.52 911.133   1
  -5  -2  -4 148.579 570.578   1
  -5  -2  -5 4916.14 897.775   1
  -5  -2  -6 2121.77 742.800   1
  -5  -2  -7 375.180 871.250   1
  -5   0   5 2492.94 1785.13  -2
  -5  -2  -8 2492.94 1785.13   1
  -5   0   6 32930.0 3412.57  -2
  -5  -2  -9 32930.0 3412.57   1
  -5  -3   4 106.391 1120.28   1
  -5  -3   3 367.455 934.902   1
  -5  -3   2 4217.23 1042.85   1
  -5  -3   1 6071.18 1034.25   1
  -5  -3   0 95.7729 680.923   1
  -5  -3  -1 187103. 4552.23   1
  -5  -3  -2 1887.01 852.997   1
  -5  -3  -3 595.712 610.380   1
  -5   1   2 53051.8 3341.36  -2
  -5  -3  -5 53051.8 3341.36   1
  -5   1   3 22554.8 2806.53  -2
  -5  -3  -6 22554.8 2806.53   1
  -5   1   4 53451.9 3963.07  -2
  -5  -3  -7 53451.9 3963.07   1
  -5  -3  -8-736.177 1641.87   1
  -5  -4   3 2637.77 1226.36   1
  -5  -4   2 3768.31 1110.02   1
  -5  -4   1 14164.8 1530.73   1
  -5  -4   0 2685.38 843.279   1
  -5  -4  -1 4313.28 917.957   1
  -5  -4  -2-348.564 790.926   1
  -5  -4  -3-940.617 710.767   1
  -5  -4  -4 697.854 731.781   1
  -5  -4  -5 1531.95 1918.90   1
  -5  -4  -6 1650.56 2051.62   1
  -5  -4  -7 12204.7 2536.23   1
  -5  -5   0-731.768 1219.18   1
  -5  -5  -1-121.659 738.758   1
  -5  -5  -2 5134.33 799.795   1
  -5  -5  -3 4970.04 1042.92   1
  -5  -5  -4 17860.1 1657.52   1
  -5  -5  -5 7308.96 1121.58   1
  -5  -5  -6 6202.92 2335.09   1
  -6   0   1 24465.1 1975.97   1
  -6   0   0 2427.81 1140.95   1
  -6   0  -1 14681.3 1100.97   1
  -6   0  -2 29932.7 2073.54   1
  -6   0  -3 21216.7 1813.79   1
  -6  -1   1 50963.7 2772.07   1
  -6  -1   0 3312.07 1004.52   1
  -6  -1  -1 1984.63 1038.67   1
  -6  -1  -2 57266.4 1910.93   1
  -6  -1  -3 4435.62 878.649   1
  -6  -1  -4 30229.8 2101.90   1
  -6  -1  -5 7047.47 1294.95   1
  -6  -2   0 2824.87 1053.84   1
  -6  -2  -1 27399.5 2082.06   1
  -6  -2  -2 24325.0 1996.78   1
  -6  -2  -3 2559.17 974.886   1
  -6  -2  -4 1247.72 1024.70   1
  -6  -2  -5 43944.1 2383.22   1
  -6  -3  -3-3284.83 1896.87   1
  -1   7   4 54685.0 3172.64   2
  -1   7   3 7424.82 886.807   2
  -1   7   2 13033.1 1066.91   2
  -1   7   1 3028.86 782.117   2
  -1   7   0 41679.0 1747.18   2
  -1   6   8 9219.62 1024.27   2
  -1   6   7 7197.29 1003.12   2
  -1   6   6 995.540 700.539   2
  -1   6   5 2745.86 662.368   2
  -1   6   4 1969.28 464.770   2
  -1   6   3 7097.17 757.320   2
  -1   6   2 17.6099 571.741   2
  -1   6   1-74.4749 525.643   2
  -1   6   0 2552.85 676.574   2
  -1   6  -1 652.240 617.271   2
  -1   6  -2 787.389 731.470   2
  -1   6  -3 51146.9 2412.42   2
  -1   6  -4 340.774 916.374   2
  -1   5  10 12652.9 1640.90   2
  -1   5   9 585.508 998.050   2
  -1   5   8 11515.7 1069.19   2
  -1   5   7 11483.1 995.669   2
  -1   5   6 559.694 544.853   2
  -1   5   5 37317.5 1489.18   2
  -1   5   4 10708.2 664.299   2
  -1   5   3 93915.6 1905.74   2
  -1   5   2 298.535 326.686   2
  -1   5   1 62450.5 1192.41   2
  -1   5   0 353.063 340.462   2
  -1   5  -1 43575.3 1425.53   2
  -1   5  -2 10002.0 779.112   2
  -1   5  -3 18373.4 1032.61   2
  -1   5  -4 32086.3 1369.80   2
  -1   5  -5-229.881 586.515   2
  -1   5  -6 1897.77 854.399   2
  -1   5  -7 5298.65 1102.28   2
  -1   4  11 2522.96 1059.47   2
  -1   4  10 9156.82 1261.75   2
  -1   4   9 2249.99 956.665   2
  -1   4   8 1951.39 586.832   2
  -1   4   7 18077.3 1082.35   2
  -1   4   6 165.174 422.569   2
  -1   4   5 15336.2 959.060   2
  -1   4   4 252.685 378.439   2
  -1   4   3 5968.91 471.157   2
  -1   4   2 248.214 259.351   2
  -1   4   1 24713.3 705.514   2
  -1   4   0-86.6959 225.756   2
  -1   4  -1 25089.0 937.786   2
  -1   4  -2 1121.55 365.816   2
  -1   4  -3 5035.98 537.361   2
  -1   4  -4 125037. 2344.88   2
  -1   4  -5-631.675 446.126   2
  -1   4  -6 11753.0 864.489   2
  -1   4  -7 25179.6 1937.16   2
  -1   4  -8 11980.2 1411.46   2
  -1   4  -9 431.640 1060.64   2
  -1   3  12 34317.3 1677.50   2
  -1   3  11-395.574 938.628   2
  -1   3  10 2682.47 781.755   2
  -1   3   9 14394.2 1435.02   2
  -1   3   8 52566.5 2403.27   2
  -1   3   7 24631.5 1107.13   2
  -1   3   6 35866.3 1258.08   2
  -1   3   5 5442.03 385.511   2
  -1   3   4 34117.5 905.945   2
  -1   3   3 8913.43 477.177   2
  -1   3   2 24584.8 665.332   2
  -1   3   1 1731.63 206.645   2
  -1   3   0 85720.9 859.191   2
  -1   3  -1 36598.5 558.138   2
  -1   3  -2 3574.87 317.244   2
  -1   3  -3 4062.79 423.561   2
  -1   3  -4 10655.4 885.453   2
  -1   3  -5-371.491 545.279   2
  -1   3  -6 11224.9 1398.42   2
  -1   3  -7 7667.65 1120.67   2
  -1   3  -8 9911.31 1641.88   2
  -1   3  -9 25472.9 2201.33   2
  -1   3 -10 3392.45 1405.94   2
   1  -2 -12 9408.52 940.811   2
  -1   2  11 2515.01 827.360   2
  -1   2  10 10402.8 1207.60   2
  -1   2   9 1067.63 681.609   2
  -1   2   8 14593.2 782.042   2
  -1   2   7 17354.0 792.143   2
  -1   2   6 825.022 226.007   2
  -1   2   5 51760.5 689.883   2
  -1   2   4 4039.67 303.871   2
  -1   2   3 49674.0 702.463   2
  -1   2   2 208779. 861.055   2
  -1   2   1 3137.28 216.724   2
  -1   2   0 1869.95 217.687   2
  -1   2  -1 115447. 993.572   2
  -1   2  -2 17867.5 339.367   2
  -1   2  -3 31005.6 1152.69   2
  -1   2  -4 157.014 453.632   2
  -1   2  -5 338.571 574.776   2
  -1   2  -6 1939.82 817.194   2
  -1   2  -7 25366.9 1920.18   2
  -1   2  -8 17851.0 1678.72   2
  -1   2  -9 164.832 826.484   2
  -1   2 -10 1044.99 973.881   2
  -1   2 -11 7826.32 1362.13   2
   1  -1 -12 3580.28 1081.82   2
  -1   1  11 14986.7 1360.16   2
  -1   1  10 2522.81 523.110   2
  -1   1   9 13627.3 842.725   2
  -1   1   8 52131.6 1490.05   2
  -1   1   7 4134.17 664.381   2
  -1   1   6 29076.6 1254.78   2
  -1   1   5 9272.19 507.561   2
  -1   1   4 2880.77 314.065   2
  -1   1   3 46847.7 699.490   2
  -1   1   2 27421.2 457.633   2
  -1   1   1 4363.15 237.249   2
  -1   1   0 88126.2 776.946   2
  -1   1  -1 11426.4 576.940   2
  -1   1  -2 4942.07 504.996   2
  -1   1  -3 57526.0 1466.56   2
  -1   1  -4 124402. 2444.23   2
  -1   1  -5 34414.3 1611.12   2
  -1   1  -6 47038.3 2235.23   2
  -1   1  -7 3652.93 1014.47   2
  -1   1  -8 7915.43 1252.11   2
  -1   1  -9 19491.5 1742.81   2
  -1   1 -10 3711.74 1085.68   2
  -1   1 -11 1714.31 987.577   2
  -1   1 -12 14034.7 1773.63   2
   1   0 -12 16886.6 1883.41   2
  -1   0  11 17631.2 1510.80   2
  -1   0  10 61325.4 2510.46   2
  -1   0   9 1990.22 525.933   2
  -1   0   8 80826.8 1951.69   2
  -1   0   7 4272.88 758.478   2
  -1   0   6 1519.09 761.715   2
  -1   0   5 87443.4 1937.49   2
  -1   0   4 3120.93 489.218   2
  -1   0   3 17927.5 364.353   2
  -1   0   2 17338.5 330.187   2
  -1   0   1 77622.6 568.785   2
  -1   0   0 23429.7 609.539   2
  -1   0  -1 4970.75 356.261   2
  -1   0  -2 4333.45 417.651   2
  -1   0  -3 26789.4 998.101   2
  -1   0  -4 90358.3 1124.38   2
  -1   0  -5 16789.1 644.733   2
  -1   0  -6 21148.3 878.632   2
  -1   0  -7 17816.9 826.197   2
  -1   0  -8 68266.4 1482.50   2
  -1   0  -9 23945.7 1859.91   2
  -1   0 -10 1178.90 822.279   2
  -1   0 -11 23878.6 1965.05   2
  -1   0 -12 327.149 1011.37   2
   1   1 -12 4449.70 911.272   2
   1   1 -11 24053.5 1374.17   2
  -1  -1  10 5442.99 1153.22   2
  -1  -1   9 4638.02 1058.96   2
  -1  -1   8 16805.8 1018.53   2
  -1  -1   7 1601.66 719.803   2
  -1  -1   6 5897.32 853.968   2
  -1  -1   5 93999.8 1857.51   2
  -1  -1   4 1178.63 608.048   2
  -1  -1   3 595072. 4662.14   2
  -1  -1   2 401.958 404.557   2
  -1  -1   1 24.3523 189.444   2
  -1  -1   0 8446.78 212.146   2
   1   1   1 2826.81 175.642   2
  -1  -1  -2 32813.4 580.203   2
  -1  -1  -3 109503. 1202.58   2
  -1  -1  -4 2648.73 389.557   2
  -1  -1  -5 5550.77 584.567   2
  -1  -1  -6 35941.3 1659.41   2
  -1  -1  -7 244.170 583.975   2
  -1  -1  -8-110.144 457.822   2
  -1  -1  -9 39866.1 1345.47   2
  -1  -1 -10 3729.15 520.945   2
  -1  -1 -11 8000.39 1270.25   2
  -1  -1 -12 5210.52 1181.86   2
  -1  -1 -13 6846.23 1451.07   2
  -1  -2  11 1508.96 808.990   2
  -1  -2  10 128.974 692.704   2
  -1  -2   9 3647.21 721.405   2
  -1  -2   8 532.680 1076.66   2
  -1  -2   7 17811.5 1978.23   2
  -1  -2   6 20316.8 1049.33   2
  -1  -2   5 36983.8 2715.40   2
  -1  -2   4 18305.6 506.299   2
  -1  -2   3 28318.0 779.165   2
   1   2  -2 20834.1 714.876   2
   1   2  -1 7699.40 299.932   2
  -1  -2   0 13291.3 359.963   2
   1   2   1 5125.52 184.645   2
   1   2   2 150.232 133.072   2
  -1  -2  -3 65125.7 770.305   2
  -1  -2  -4 311955. 2486.58   2
  -1  -2  -5 85632.2 1716.62   2
  -1  -2  -6 21993.1 1426.50   2
  -1  -2  -7 253.883 765.434   2
  -1  -2  -8 2582.68 630.419   2
  -1  -2  -9 4535.29 641.704   2
  -1  -2 -10 37254.0 1419.07   2
  -1  -2 -11 54227.5 1692.27   2
  -1  -2 -12 3180.47 1071.43   2
  -1  -2 -13 854.343 1269.65   2
   1   3 -10-105.036 886.015   2
  -1  -3   9 15403.5 1138.68   2
  -1  -3   8 55510.6 1900.37   2
  -1  -3   7 1241.28 572.866   2
  -1  -3   6 151638. 2862.30   2
  -1  -3   5 14490.4 1006.14   2
  -1  -3   4 15777.1 2085.84   2
   1   3  -3-78.9901 335.299   2
   1   3  -2 6384.37 489.220   2
   1   3  -1 2555.54 315.983   2
   1   3   0 133128. 1156.59   2
  -1  -3  -1 54433.3 710.882   2
   1   3   2 1809.80 176.424   2
   1   3   3 7487.11 238.703   2
   1   3   4 726.942 191.363   2
  -1  -3  -5 70108.9 1108.01   2
   1   3   6 1580.25 999.493   2
  -1  -3  -7 5648.54 903.621   2
  -1  -3  -8 15001.7 1127.20   2
  -1  -3  -9 7768.22 920.562   2
  -1  -3 -10 14500.8 1068.65   2
   1   3  11 1655.73 621.398   2
   1   3  12 19394.0 1195.68   2
  -1  -3 -13 4234.00 1629.14   2
  -1  -4   9 1616.18 864.295   2
  -1  -4   8 2806.32 718.374   2
  -1  -4   7 10354.4 988.005   2
  -1  -4   6 7804.34 826.158   2
  -1  -4   5-309.973 488.118   2
  -1  -4   4 53679.8 1757.39   2
  -1  -4   3 59353.1 1392.88   2
   1   4  -2 465.965 374.399   2
   1   4  -1 2480.69 406.349   2
  -1  -4   0 12143.6 598.547   2
  -1  -4  -1 101832. 1191.99   2
   1   4   2 25749.3 595.133   2
   1   4   3 2083.79 222.946   2
   1   4   4 16073.6 562.009   2
   1   4   5 15230.0 697.513   2
   1   4   6 5257.98 613.679   2
   1   4   7 38619.1 1444.05   2
   1   4   8 111471. 2420.74   2
   1   4   9 1675.67 580.549   2
   1   4  10-1121.63 604.385   2
   1   4  11 3101.88 965.705   2
   1   4  12 3266.69 1142.46   2
  -1  -5   7 1205.76 836.109   2
  -1  -5   6 158.500 683.865   2
  -1  -5   5-113.987 581.416   2
  -1  -5   4 1003.55 518.156   2
  -1  -5   3 82892.9 2115.02   2
   1   5  -2 5649.87 580.419   2
   1   5  -1 1034.19 417.222   2
   1   5   0 22377.5 1090.92   2
   1   5   1 374.408 383.026   2
   1   5   2 69289.0 1392.67   2
   1   5   3 4211.57 464.955   2
   1   5   4 10416.0 543.473   2
   1   5   5 5693.98 459.359   2
   1   5   6 6324.60 700.153   2
   1   5   7 1900.07 548.597   2
   1   5   8 1173.08 598.777   2
   1   5   9 1100.47 674.582   2
   1   5  10 6755.68 1256.13   2
   1   5  11 14228.5 1764.64   2
   1   6  -5-15.1905 999.026   2
   1   6  -4 3014.63 843.537   2
   1   6  -3 3428.26 839.730   2
   1   6  -2 390.117 640.426   2
   1   6  -1 62601.8 2004.65   2
   1   6   0 670.492 526.289   2
   1   6   1 9699.92 875.039   2
   1   6   2 2089.92 553.186   2
   1   6   3 727.901 502.047   2
   1   6   4 56065.7 1853.53   2
   1   6   5 15878.0 892.022   2
   1   6   6-863.081 554.833   2
   1   6   7 1867.49 654.211   2
   1   6   8 5566.11 1330.14   2
   1   6   9 8484.48 1607.64   2
   1   7  -1 12301.1 1301.89   2
   1   7   0 266.414 782.430   2
   1   7   1-63.6529 684.607   2
   1   7   2 18.3966 744.756   2
   1   7   3 8684.57 986.502   2
   1   7   4 11166.6 1326.99   2
  -2   6   6 1471.62 917.619   2
  -2   6   5 5267.83 966.815   2
  -2   6   4 234.784 990.331   2
  -2   6   3 23904.4 1640.10   2
  -2   6   2 7959.22 1049.33   2
  -2   6   1 29423.8 1757.43   2
  -2   6   0 815.929 775.415   2
  -2   6  -1 21883.4 1218.41   2
  -2   6  -2 47070.7 1732.65   2
  -2   6  -3-296.794 855.778   2
  -2   5   9 2750.63 1230.45   2
  -2   5   8 4847.09 883.371   2
  -2   5   7 4762.10 822.859   2
  -2   5   6 15201.0 1147.43   2
  -2   5   5 5554.19 819.712   2
  -2   5   4 1061.42 868.775   2
  -2   5   3 85.5613 442.986   2
  -2   5   2 2036.73 484.371   2
  -2   5   1-54.1563 394.090   2
  -2   5   0 24984.0 1100.72   2
  -2   5  -1 2210.88 466.572   2
  -2   5  -2 5260.01 615.346   2
  -2   5  -3 11024.0 855.492   2
  -2   5  -4 16855.0 1049.86   2
  -2   5  -5 8950.20 826.692   2
  -2   5  -6 1901.73 1010.42   2
  -2   4  10 15629.5 1899.99   2
  -2   4   9 3100.15 1070.40   2
  -2   4   8 54083.0 1866.22   2
  -2   4   7 1628.95 610.111   2
  -2   4   6 36540.4 1461.26   2
  -2   4   5-632.852 902.842   2
  -2   4   4 74449.3 1960.39   2
  -2   4   3 245.775 331.693   2
  -2   4   2 14719.0 673.236   2
  -2   4   1 28579.3 688.476   2
  -2   4   0 10691.3 504.670   2
  -2   4  -1 46268.1 984.441   2
  -2   4  -2 9599.17 510.396   2
  -2   4  -3 1116.78 331.690   2
  -2   4  -4 4568.31 475.084   2
  -2   4  -5 15520.1 956.949   2
  -2   4  -6 12397.3 890.397   2
  -2   4  -7 8083.86 790.341   2
  -2   4  -8 1019.01 1139.16   2
  -2   3  11 284.149 1184.06   2
  -2   3  10 7094.76 1397.22   2
  -2   3   9 945.081 966.927   2
  -2   3   8-1342.80 973.353   2
  -2   3   7 496.567 470.626   2
  -2   3   6-137.356 480.544   2
  -2   3   5 1600.32 1014.18   2
  -2   3   4 10781.3 807.028   2
  -2   3   3 59.7025 421.060   2
  -2   3   2 7985.73 494.213   2
  -2   3   1 55733.6 877.822   2
  -2   3   0 9751.59 410.702   2
  -2   3  -1 146094. 1450.77   2
  -2   3  -2 499.426 271.887   2
  -2   3  -3 26769.7 908.998   2
  -2   3  -4 52888.8 1357.09   2
  -2   3  -5 38907.6 1274.81   2
  -2   3  -6 32.3243 691.671   2
  -2   3  -7 23612.8 1753.69   2
  -2   3  -8 26085.4 2089.62   2
  -2   3  -9 4744.36 1430.63   2
  -2   3 -10 2217.58 1799.94   2
  -2   2  11 38682.3 2529.44   2
  -2   2  10 19526.9 1835.61   2
  -2   2   9 15315.2 1768.79   2
  -2   2   8 8160.64 1619.72   2
  -2   2   7 86212.6 3648.89   2
  -2   2   6 954.232 456.519   2
  -2   2   5 31415.8 1289.03   2
  -2   2   4 1904.00 318.081   2
  -2   2   3 86128.0 1084.35   2
  -2   2   2 49122.0 986.938   2
  -2   2   1 8594.70 390.956   2
  -2   2   0 88.8518 175.461   2
  -2   2  -1 8288.66 383.703   2
  -2   2  -2 42188.0 808.454   2
  -2   2  -3 1577.61 378.920   2
  -2   2  -4 17090.0 1132.02   2
  -2   2  -5 634.394 562.794   2
  -2   2  -6 9572.76 1159.80   2
  -2   2  -7 29307.4 1980.08   2
  -2   2  -8 10016.3 1505.60   2
  -2   2  -9 6.35842 1137.60   2
  -2   2 -10 1700.06 1323.66   2
  -2   2 -11 20476.7 2100.63   2
  -2   1  11 2176.51 1175.60   2
  -2   1  10 3821.16 1074.61   2
  -2   1   9 8209.15 987.751   2
  -2   1   8 18476.3 1360.44   2
  -2   1   7 15751.6 1500.67   2
  -2   1   6 31861.7 1503.03   2
  -2   1   5 123566. 1435.62   2
  -2   1   4 34902.0 713.083   2
  -2   1   3 590.021 246.934   2
  -2   1   2 100307. 2139.66   2
  -2   1   1 10806.2 734.309   2
  -2   1   0 42929.9 594.637   2
  -2   1  -1 28370.1 548.670   2
  -2   1  -2 39696.8 1352.19   2
  -2   1  -3 20805.8 1081.79   2
  -2   1  -4 115358. 2540.44   2
  -2   1  -5 80784.3 2406.59   2
  -2   1  -6 7072.02 1007.09   2
  -2   1  -7 17540.6 1629.41   2
  -2   1  -8 9547.98 1550.46   2
  -2   1  -9-472.364 1120.18   2
  -2   1 -10 6076.81 1482.28   2
  -2   1 -11 16611.8 2041.93   2
  -2   1 -12 23030.1 2307.80   2
  -2   0  11 21267.0 1855.27   2
  -2   0  10 6038.51 856.725   2
  -2   0   9-3191.96 991.758   2
  -2   0   8 22071.1 1637.95   2
  -2   0   7 11178.5 1448.40   2
  -2   0   6 83267.2 2076.14   2
  -2   0   5 30065.1 1101.42   2
  -2   0   4 34054.2 1341.35   2
  -2   0   3 25813.0 554.194   2
  -2   0   1 1820.23 202.015   2
  -2   0   0 57399.3 1347.22   2
  -2   0  -1 433391. 3740.36   2
  -2   0  -2 94973.7 1907.11   2
  -2   0  -3 19385.3 969.895   2
  -2   0  -4 22486.4 1138.30   2
  -2   0  -5 4768.19 787.840   2
  -2   0  -6 10995.9 1121.28   2
  -2   0  -7 742.179 840.365   2
  -2   0  -8 201.206 1097.91   2
  -2   0  -9 2706.84 1260.29   2
  -2   0 -10 3175.93 1236.05   2
  -2   0 -11 11248.5 1675.29   2
  -2   0 -12 34132.1 2746.12   2
  -2  -1  11 39115.6 2621.68   2
  -2  -1  10 9011.80 1612.77   2
  -2  -1   9 2077.57 1221.74   2
  -2  -1   8 56111.3 2282.38   2
  -2  -1   7-223.726 724.224   2
  -2  -1   6 129.004 981.709   2
  -2  -1   5 17789.4 1304.63   2
  -2  -1   4 53833.8 1748.82   2
  -2  -1   3 2119.52 517.998   2
  -2  -1   2 18906.6 932.446   2
  -2  -1   1 4556.08 215.974   2
   2   1   0 3185.19 187.093   2
  -2  -1  -1 103841. 1756.92   2
  -2  -1  -2 36673.6 1138.16   2
  -2  -1  -3 86804.5 1806.41   2
  -2  -1  -4 184.339 427.382   2
  -2  -1  -5 27045.3 1329.28   2
  -2  -1  -6 4714.51 839.493   2
  -2  -1  -7 2473.69 972.987   2
  -2  -1  -8 75100.7 4001.16   2
  -2  -1  -9 3650.54 1979.62   2
  -2  -1 -10 23302.4 2440.88   2
  -2  -1 -11 420.549 1146.33   2
  -2  -1 -12 1397.82 1207.17   2
  -2  -2  10 5958.88 1475.66   2
  -2  -2   9 532.786 1301.77   2
  -2  -2   8 88629.9 4624.48   2
  -2  -2   7 9639.20 1054.52   2
  -2  -2   6 183254. 5408.48   2
  -2  -2   5 8790.06 1135.06   2
  -2  -2   4 9205.17 975.877   2
  -2  -2   3 1163.13 531.226   2
  -2  -2   2 55934.7 1031.59   2
  -2  -2   1 11351.8 389.367   2
  -2  -2   0 43477.6 630.825   2
   2   2   1 77.7415 150.034   2
   2   2   2 693.923 176.719   2
  -2  -2  -3 73864.8 1542.45   2
  -2  -2  -4 4805.45 562.459   2
  -2  -2  -5 942.850 446.677   2
  -2  -2  -6 29969.1 1497.48   2
  -2  -2  -7 3653.86 862.796   2
  -2  -2  -8 18080.8 1879.05   2
  -2  -2  -9 14347.4 2597.72   2
  -2  -2 -10 10304.6 1739.22   2
  -2  -2 -11 6449.34 1324.94   2
  -2  -2 -12 15185.7 1874.29   2
  -2  -2 -13 1357.96 1611.92   2
  -2  -3   9 946.997 953.352   2
  -2  -3   8 27900.0 2690.41   2
  -2  -3   7 20150.0 2811.46   2
  -2  -3   6 580.809 1765.41   2
  -2  -3   5 21152.9 2010.06   2
   2   3  -4 1573.25 437.808   2
  -2  -3   3 11380.6 670.517   2
   2   3  -2 28.4631 287.368   2
  -2  -3   1 24848.1 638.336   2
  -2  -3   0 116494. 1259.58   2
  -2  -3  -1 60490.2 910.475   2
  -2  -3  -2 16833.2 431.921   2
   2   3   3 9684.85 371.604   2
   2   3   4 111.495 469.553   2
   2   3   5 31493.8 925.014   2
  -2  -3  -6 12057.7 897.992   2
  -2  -3  -7 15089.9 1159.23   2
  -2  -3  -8 26663.6 1582.72   2
  -2  -3  -9 13421.8 1671.99   2
  -2  -3 -10 5455.53 1574.93   2
  -2  -3 -11 264.459 1395.15   2
  -2  -3 -12 26891.0 2443.78   2
   2   4  -8 3195.19 935.581   2
  -2  -4   7 1663.44 806.524   2
   2   4  -6 1619.13 656.702   2
  -2  -4   5 501.873 559.076   2
  -2  -4   4 966.128 451.823   2
  -2  -4   3 68688.1 1767.12   2
  -2  -4   2 18995.6 889.859   2
  -2  -4   1-112.223 345.003   2
  -2  -4   0 28113.2 760.859   2
  -2  -4  -1 11561.5 501.307   2
  -2  -4  -2 28641.3 725.950   2
   2   4   3 3241.28 329.637   2
   2   4   4 1769.45 378.231   2
   2   4   5 19216.2 1289.82   2
   2   4   6-245.115 498.424   2
   2   4   7 34628.4 1840.28   2
   2   4   8 1250.01 686.365   2
   2   4   9 14115.6 1454.59   2
   2   4  10 3321.25 932.737   2
   2   4  11 4182.16 1082.62   2
   2   4  12 1615.43 1401.78   2
  -2  -5   7 4888.60 1043.44   2
  -2  -5   6 18877.8 1375.77   2
   2   5  -5 1642.93 730.238   2
  -2  -5   4 27897.3 1528.48   2
  -2  -5   3 29935.2 1501.57   2
  -2  -5   2 33805.9 1422.94   2
  -2  -5   1 12381.3 836.765   2
  -2  -5   0 9576.10 694.536   2
  -2  -5  -1 5117.84 449.530   2
   2   5   2 3977.21 399.458   2
   2   5   3 42558.9 1313.68   2
   2   5   4 26063.7 1088.25   2
   2   5   5 59802.1 2322.22   2
   2   5   6 2718.19 735.557   2
   2   5   7 580.904 680.490   2
   2   5   8 3297.63 872.873   2
   2   5   9 126.765 886.520   2
   2   5  10 7891.67 1296.50   2
   2   5  11-1162.37 1444.47   2
   2   6  -4 6330.71 1115.75   2
   2   6  -3 11985.4 1368.73   2
   2   6  -2 1181.61 784.543   2
   2   6  -1 40080.1 2028.10   2
   2   6   0 3610.01 696.052   2
   2   6   1 22843.9 1523.39   2
   2   6   2 5949.87 918.041   2
   2   6   3 913.175 460.179   2
   2   6   4 11476.6 866.068   2
   2   6   5-586.325 744.368   2
   2   6   6 4418.52 944.202   2
   2   6   7 913.136 863.572   2
   2   6   8 21543.9 1802.76   2
   2   6   9 668.031 1232.81   2
   2   7  -1 741.445 1003.57   2
   2   7   0 10373.7 1271.13   2
   2   7   1 25775.8 1833.43   2
   2   7   2 19224.3 1634.03   2
   2   7   3 1537.59 866.195   2
   2   7   4 1481.32 862.208   2
   2   7   6 12964.7 1655.90   2
   2   7   7 1763.36 1437.00   2
  -3   5   7 7187.28 1510.67   2
  -3   5   6 1268.64 887.512   2
  -3   5   5 1308.41 1393.00   2
  -3   5   4 10582.7 1583.39   2
  -3   5   3-179.286 905.195   2
  -3   5   2 24779.2 1940.94   2
  -3   5   1 24458.4 1929.65   2
  -3   5   0 2722.83 1173.85   2
  -3   5  -1 24295.8 2058.04   2
  -3   5  -2 18507.8 1775.56   2
  -3   5  -3-3315.55 1207.52   2
  -3   5  -4 2509.03 1324.25   2
  -3   4   8 6101.99 1398.25   2
  -3   4   7 4378.56 1328.52   2
  -3   4   6 2365.70 662.547   2
  -3   4   5 10296.7 1710.08   2
  -3   4   4-14.8033 544.468   2
  -3   4   3 3892.81 700.593   2
  -3   4   2 5148.34 720.906   2
  -3   4   1 165.464 430.985   2
  -3   4   0 66631.8 1656.97   2
  -3   4  -1 527.952 440.257   2
  -3   4  -2 1577.64 497.916   2
  -3   4  -3 4571.44 713.196   2
  -3   4  -4 3248.04 1086.82   2
  -3   4  -5 52176.6 2700.55   2
  -3   4  -6 748.006 1107.09   2
  -3   4  -7 774.376 1353.07   2
  -3   3   9 4756.47 1406.82   2
  -3   3   8-6.28903 1159.99   2
  -3   3   7 52299.4 3237.89   2
  -3   3   6 6814.27 1676.23   2
  -3   3   5 11592.9 927.755   2
  -3   3   4 9745.72 868.590   2
  -3   3   3 668.058 495.035   2
  -3   3   2 14745.1 1032.92   2
  -3   3   1 36051.5 1106.82   2
  -3   3   0 8213.36 773.296   2
  -3   3  -1 8423.30 879.910   2
  -3   3  -2 27319.2 1463.27   2
  -3   3  -3 12364.1 657.218   2
  -3   3  -4 3229.32 521.734   2
  -3   3  -5 10041.9 764.967   2
  -3   3  -6 3091.71 559.967   2
  -3   3  -7 15365.3 1069.95   2
  -3   3  -8 1686.72 1415.39   2
  -3   3  -9 2558.67 1968.07   2
  -3   2  10 746.857 1319.64   2
  -3   2   9 149.875 1282.59   2
  -3   2   8 7735.29 1772.82   2
  -3   2   7 1934.13 1263.10   2
  -3   2   6 3677.00 1507.04   2
  -3   2   5 2398.66 500.824   2
  -3   2   4 64082.2 1626.28   2
  -3   2   3 46387.1 983.997   2
  -3   2   2 38115.0 1007.61   2
  -3   2   1 15140.1 886.659   2
  -3   2   0 32181.6 1171.16   2
  -3   2  -1 19208.0 962.693   2
  -3   2  -2 45586.4 865.538   2
  -3   2  -3 3031.17 382.171   2
  -3   2  -4 5411.80 490.520   2
  -3   2  -5 20649.2 896.944   2
  -3   2  -6 7636.58 1182.48   2
  -3   2  -7 18474.7 1751.06   2
  -3   2  -8 12630.9 1761.74   2
  -3   2  -9-92.1912 1433.74   2
  -3   2 -10 12699.0 2036.08   2
  -3   1  10 28193.8 2525.56   2
  -3   1   9 48.7651 1385.55   2
  -3   1   8 9225.24 1886.91   2
  -3   1   7 2095.28 1001.82   2
  -3   1   6 44196.3 1652.55   2
  -3   1   5 22036.9 1075.84   2
  -3   1   4 26002.0 722.762   2
  -3   1   3 136.032 293.224   2
  -3   1   2 15568.0 1093.96   2
  -3   1   1 48395.8 1709.75   2
  -3   1   0 9147.34 804.953   2
  -3   1  -1 7092.54 776.183   2
  -3   1  -2 21178.6 1208.96   2
  -3   1  -3 3910.21 351.634   2
  -3   1  -4 89570.4 2653.95   2
  -3   1  -5 14116.5 1254.30   2
  -3   1  -6 3.61415 773.086   2
  -3   1  -7 1504.94 850.666   2
  -3   1  -8 5252.86 1248.61   2
  -3   1  -9 2216.54 1326.64   2
  -3   1 -10 3273.49 1704.28   2
  -3   1 -11-2935.57 1799.73   2
  -3   0  10-72.0151 1262.41   2
  -3   0   9 796.368 1240.08   2
  -3   0   8 29577.7 2026.01   2
  -3   0   7 87907.5 2642.03   2
  -3   0   6 3142.33 708.594   2
  -3   0   5 19279.1 1287.54   2
  -3   0   4 1404.40 577.511   2
  -3   0   3 34321.1 1387.88   2
  -3   0   2 28846.3 907.706   2
  -3   0   1 14346.3 459.681   2
  -3   0   0 112283. 1347.63   2
  -3   0  -1 85611.6 2099.13   2
  -3   0  -2 46138.5 1635.48   2
  -3   0  -3 8396.94 886.042   2
  -3   0  -4 64349.5 2142.69   2
  -3   0  -5 44931.5 1943.81   2
  -3   0  -6 5335.89 954.351   2
  -3   0  -7 20211.6 1674.83   2
  -3   0  -8 14263.6 1742.27   2
  -3   0  -9 16847.7 2266.95   2
  -3   0 -10 715.775 1998.77   2
  -3   0 -11 3431.95 1765.41   2
  -3  -1  10 903.182 1974.45   2
  -3  -1   9 61923.6 2810.96   2
  -3  -1   8 16889.4 1664.57   2
  -3  -1   7 39372.6 1860.09   2
  -3  -1   6 3626.20 997.850   2
  -3  -1   5 3470.86 912.591   2
  -3  -1   4 1031.58 589.712   2
  -3  -1   3 31.9997 515.406   2
  -3  -1   2 136755. 2634.79   2
  -3  -1   1 7478.53 430.833   2
   3   1   0 325.545 251.716   2
  -3  -1  -1 16400.8 631.996   2
  -3  -1  -2 131.834 449.027   2
  -3  -1  -3 9655.90 867.914   2
  -3  -1  -4 3441.24 702.713   2
  -3  -1  -5-172.480 558.890   2
  -3  -1  -6-128.133 594.964   2
  -3  -1  -7 75588.4 2912.74   2
  -3  -1  -8 9752.23 1501.03   2
  -3  -1  -9 35461.0 3081.89   2
  -3  -1 -10 1932.05 2878.46   2
  -3  -1 -11 16491.1 2724.59   2
  -3  -1 -12 4313.60 1772.96   2
  -3  -2   9 11547.7 2556.76   2
  -3  -2   8 1162.27 2440.52   2
  -3  -2   7 24312.6 1574.51   2
  -3  -2   6 2353.41 1145.61   2
  -3  -2   5 25099.0 1671.48   2
  -3  -2   4 13356.5 694.703   2
  -3  -2   3 33156.6 920.341   2
  -3  -2   2 93912.8 1313.23   2
  -3  -2   1 11650.7 396.570   2
  -3  -2   0 85399.1 924.266   2
  -3  -2  -1 11632.0 560.737   2
  -3  -2  -2 7742.41 498.894   2
  -3  -2  -3 2336.53 393.274   2
  -3  -2  -4 2955.29 613.276   2
  -3  -2  -5 124190. 2804.44   2
  -3  -2  -6 26974.5 1514.45   2
  -3  -2  -7 6534.66 1045.01   2
  -3  -2  -8-172.573 915.038   2
  -3  -2  -9 6356.42 1386.61   2
  -3  -2 -10-806.169 1787.79   2
  -3  -2 -11 2316.99 2349.19   2
  -3  -2 -12 16790.4 2416.28   2
  -3  -3   8 7542.93 2489.32   2
  -3  -3   7 8831.40 2327.45   2
   3   3  -6 5061.55 771.357   2
  -3  -3   5 60548.4 1719.10   2
  -3  -3   4 344.685 406.115   2
  -3  -3   3 15489.2 754.570   2
  -3  -3   2 13110.8 650.023   2
  -3  -3   1 7940.19 425.116   2
  -3  -3   0 33698.5 745.053   2
  -3  -3  -1 8998.00 412.240   2
   3   3   2 236.453 232.329   2
  -3  -3  -3 8074.34 528.622   2
  -3  -3  -4 41042.9 1092.01   2
  -3  -3  -5 27153.5 992.244   2
  -3  -3  -6 18558.7 962.801   2
  -3  -3  -7 5307.15 870.182   2
  -3  -3  -8 9581.36 1206.33   2
  -3  -3  -9 9088.78 1391.78   2
  -3  -3 -10 1139.93 1541.63   2
  -3  -3 -11 1017.40 2261.30   2
  -3  -3 -12 24042.8 2650.81   2
  -3  -4   7 9228.43 2670.16   2
  -3  -4   6 2991.71 2411.85   2
   3   4  -5 750.910 680.217   2
  -3  -4   4 16344.4 995.743   2
  -3  -4   3 89608.2 1918.34   2
  -3  -4   2 9602.23 664.119   2
  -3  -4   1 713.492 339.481   2
  -3  -4   0 207.270 277.239   2
  -3  -4  -1 723.414 266.594   2
  -3  -4  -2 77351.5 1264.92   2
   3   4   3 30819.3 1596.65   2
   3   4   4 5570.84 968.604   2
   3   4   5 11752.2 1138.69   2
   3   4   9 39140.2 2495.06   2
   3   4  10 12218.4 1672.14   2
   3   4  11-900.060 1245.65   2
  -3  -5   5 88.8976 3278.44   2
  -3  -5   4-1070.81 836.085   2
  -3  -5   3 19061.0 1191.75   2
  -3  -5   2 17100.6 997.564   2
   3   5  -1 4529.01 576.276   2
  -3  -5   0 1051.56 426.448   2
  -3  -5  -1 297.296 337.252   2
  -3  -5  -2 1601.94 383.730   2
  -3  -5  -3 1280.65 462.852   2
  -3  -5  -4 46166.7 1375.80   2
  -3  -6   3 2211.78 1168.09   2
  -3  -6   2 7435.18 953.984   2
   3   6  -1 443.890 834.205   2
   3   6   0 66145.6 2468.19   2
   3   6   1 12555.6 1185.47   2
   3   6   2 22091.0 1562.11   2
   3   6   3 9694.95 882.702   2
   3   6   4 7381.67 1269.36   2
   3   7   1 10667.3 1339.10   2
   3   7   2 1694.30 1202.88   2
   3   7   3 6874.01 1215.18   2
  -4   4   6 8480.22 1787.72   2
  -4   4   5 12129.9 2016.39   2
  -4   4   4 2895.06 893.636   2
  -4   4   3 5731.64 940.236   2
  -4   4   2 319.552 843.529   2
  -4   4   1 1264.93 826.970   2
  -4   4   0 5823.71 748.869   2
  -4   4  -1 4870.94 691.533   2
  -4   4  -2 5759.72 1109.98   2
  -4   4  -3-989.428 1028.62   2
  -4   4  -4 4720.85 1181.39   2
  -4   3   7 1461.01 1624.12   2
  -4   3   6 491.604 1587.23   2
  -4   3   5 476.912 1684.27   2
  -4   3   4-326.863 705.367   2
  -4   3   3 76135.1 2262.00   2
  -4   3   2 14166.3 1189.98   2
  -4   3   1 562.602 443.672   2
  -4   3   0 10663.1 829.083   2
  -4   3  -1 951.670 668.868   2
  -4   3  -2 76072.9 2748.07   2
  -4   3  -3 1790.46 743.919   2
  -4   3  -4 4554.40 954.587   2
  -4   3  -5 8792.27 1263.37   2
  -4   3  -6 6987.29 1249.99   2
  -4   3  -7 1860.13 1512.62   2
  -4   2   8 9906.64 2142.44   2
  -4   2   7 437.495 1763.61   2
  -4   2   6 1518.31 1751.91   2
  -4   2   5-2334.05 1635.49   2
  -4   2   4 12027.5 2279.84   2
  -4   2   3 1087.89 489.749   2
  -4   2   2 7642.60 779.982   2
  -4   2   1 27064.5 1329.49   2
  -4   2   0 1641.03 572.423   2
  -4   2  -1 4514.21 693.012   2
  -4   2  -2 11560.0 1150.82   2
  -4   2  -3 2648.91 722.012   2
  -4   2  -4 40350.1 2106.43   2
  -4   2  -5 25345.7 1854.47   2
  -4   2  -6 1223.15 869.580   2
  -4   2  -7-235.144 1121.87   2
  -4   2  -8 591.090 1437.21   2
  -4   1   8 2356.65 1957.08   2
  -4   1   7 29119.3 3234.88   2
  -4   1   6 58241.3 3826.40   2
  -4   1   5 2506.66 681.683   2
  -4   1   4 18397.2 1046.75   2
  -4   1   3 23616.2 893.267   2
  -4   1   2 468.168 386.348   2
  -4   1   1 68561.8 2393.32   2
  -4   1   0 13684.9 1141.18   2
  -4   1  -1 1972.60 650.920   2
  -4   1  -2 2505.48 689.087   2
  -4   1  -3 16477.8 1328.51   2
  -4   1  -4 21588.0 1556.90   2
  -4   1  -5 44465.8 2290.23   2
  -4   1  -6 3979.64 1041.39   2
  -4   1  -7 14141.4 1776.34   2
  -4   1  -8 5598.04 1417.59   2
  -4   1  -9 4278.47 1660.42   2
  -4   0   9 72.5879 2357.13   2
  -4   0   8-820.138 2057.03   2
  -4   0   7 33438.6 1970.18   2
  -4   0   6 270.698 707.274   2
  -4   0   5 8717.64 1110.98   2
  -4   0   4 32707.9 1644.76   2
  -4   0   3 102.688 537.855   2
  -4   0   2 2000.64 646.364   2
  -4   0   1 473.061 498.209   2
  -4   0   0 4458.56 722.973   2
  -4   0  -1 113936. 1692.06   2
  -4   0  -2 6560.54 873.355   2
  -4   0  -3 23751.5 1495.60   2
  -4   0  -4-25.8087 619.380   2
  -4   0  -5 1712.78 809.812   2
  -4   0  -6 8217.92 1273.30   2
  -4   0  -7 30630.5 2201.19   2
  -4   0  -8 6242.03 1516.00   2
  -4   0  -9 575.515 1374.98   2
  -4   0 -10-1032.43 2278.46   2
  -4  -1   8 4412.80 1665.03   2
  -4  -1   7 2562.21 998.968   2
  -4  -1   6 5100.07 1115.74   2
  -4  -1   5 8253.99 1162.75   2
  -4  -1   4 17261.3 1354.22   2
  -4  -1   3 45683.0 1947.21   2
  -4  -1   2 12300.0 1133.45   2
  -4  -1   1 1022.21 374.721   2
  -4  -1   0 16875.0 691.426   2
  -4  -1  -1 17132.7 732.383   2
  -4  -1  -2 80626.8 1571.12   2
  -4  -1  -3 576.299 518.635   2
  -4  -1  -4 6284.80 931.711   2
  -4  -1  -5 3834.32 878.328   2
  -4  -1  -6 14564.2 1479.00   2
  -4  -1  -7 1202.52 797.333   2
  -4  -1  -8 8651.46 1554.86   2
  -4  -1  -9-21.7097 1587.67   2
  -4  -1 -10 1933.51 2315.10   2
  -4  -1 -11 102.689 5984.06   2
  -4  -2   8 7443.66 3465.63   2
  -4  -2   7 2368.96 1187.20   2
  -4  -2   6 682.547 1149.41   2
  -4  -2   5 23472.6 1823.74   2
  -4  -2   4 3228.25 882.753   2
  -4  -2   3 18612.5 1358.35   2
  -4  -2   2 21506.6 1479.55   2
  -4  -2   1 205.697 327.191   2
  -4  -2   0 203.544 302.447   2
  -4  -2  -1 347.324 315.592   2
  -4  -2  -2 1484.92 363.521   2
  -4  -2  -3 178.003 333.478   2
  -4  -2  -4 117538. 2107.72   2
  -4  -2  -5 261.929 590.714   2
  -4  -2  -6 8869.44 1093.41   2
  -4  -2  -7 4495.78 1022.11   2
  -4  -2  -8 15795.1 1704.67   2
  -4  -2  -9 5586.79 1496.40   2
  -4  -2 -10 9821.11 2215.10   2
  -4  -2 -11 782.994 3328.32   2
  -4  -3   7 32008.7 3476.64   2
  -4  -3   6 23459.3 2557.24   2
  -4  -3   5 25319.7 2138.48   2
  -4  -3   4 1080.58 874.374   2
  -4  -3   3 29607.1 1845.88   2
  -4  -3   2 339.998 610.924   2
  -4  -3   1 2752.29 479.895   2
  -4  -3   0 1468.99 396.787   2
  -4  -3  -1 258.469 296.990   2
  -4  -3  -2 62131.3 1417.91   2
  -4  -3  -3 15428.3 793.905   2
  -4  -3  -4 612.516 386.553   2
   4   3   5 678.571 429.066   2
  -4  -3  -6 314.056 433.296   2
   4   3   7 151.878 545.804   2
   4   3   8 2988.51 683.651   2
  -4  -3  -9 12197.4 1673.13   2
  -4  -3 -10 2879.56 1897.77   2
  -4  -4   5 23133.3 2442.78   2
  -4  -4   4 14657.7 1750.12   2
  -4  -4   3 7316.26 1348.28   2
  -4  -4   2 6379.67 1116.06   2
  -4  -4   1 1088.97 690.913   2
  -4  -4   0 360.846 427.364   2
  -4  -4  -1 80061.9 1840.83   2
  -4  -4  -2 9655.90 762.101   2
   4   4   3 2783.82 716.266   2
   4   4   4 2751.08 713.434   2
   4   4   5 8878.14 1155.45   2
   4   4   6 2889.59 776.125   2
   4   4   7 6095.03 1107.29   2
   4   4   8 2924.40 1001.16   2
   4   4   9 11657.9 1516.48   2
   4   4  10 5517.40 1342.82   2
  -4  -5   4 2810.67 2314.16   2
  -4  -5   3 11131.1 1784.18   2
  -4  -5   2 351.714 1229.68   2
  -4  -5   1 54974.3 2644.42   2
  -4  -5   0 31438.9 1969.63   2
  -4  -5  -1 482.532 567.871   2
  -4  -5  -2 1201.60 539.737   2
   4   5   3 19634.3 1606.98   2
  -4  -5  -4 9953.07 880.147   2
  -4  -5  -5 14530.7 986.017   2
   4   5   6 31545.6 2054.59   2
   4   5   7 7323.18 1243.98   2
   4   5   8 2289.69 1097.56   2
   4   5   9-490.411 1243.93   2
   4   6   3 1163.30 991.220   2
   4   6   4 8343.79 1291.33   2
   4   6   5-1183.71 1006.49   2
   4   6   6 15821.8 1808.71   2
  -5   3   3 10380.9 2832.63   2
  -5   3   2 976.428 1167.41   2
  -5   3   1 11156.2 1295.94   2
  -5   3   0-213.722 742.692   2
  -5   3  -1 19085.6 1187.91   2
  -5   3  -2 623.319 1147.38   2
  -5   3  -3 9083.75 1354.34   2
  -5   2   5 11161.2 2828.17   2
  -5   2   4-3331.66 2469.10   2
  -5   2   3 5199.61 2291.94   2
  -5   2   2 1443.14 1972.64   2
  -5   2   1 60655.9 2074.86   2
  -5   2   0 7965.17 995.550   2
  -5   2  -1 18030.3 1614.96   2
  -5   2  -2 4442.10 1033.53   2
  -5   2  -3 1476.05 818.022   2
  -5   2  -4 527.403 939.461   2
  -5   2  -5 7331.23 1259.20   2
  -5   2  -6 5277.06 1311.77   2
  -5   1   6 240.742 2390.85   2
  -5   1   5 7328.05 1980.19   2
  -5   1   2 12344.3 1315.98   2
  -5   1   1 809.764 746.150   2
  -5   1   0 28243.5 1867.53   2
  -5   1  -1 29480.5 1882.69   2
  -5   1  -2 74163.3 2892.72   2
  -5   1  -3 1145.25 762.278   2
  -5   1  -4 2566.71 830.921   2
  -5   1  -5 7494.06 1341.11   2
  -5   1  -6 14583.8 1856.08   2
  -5   1  -7 4525.18 1388.33   2
  -5   0   5-580.601 1277.33   2
  -5   0   4 21308.7 1746.86   2
  -5   0   3 9781.99 1220.54   2
  -5   0   2 6005.66 1000.60   2
  -5   0   1 8487.32 793.543   2
  -5   0   0 805.575 671.035   2
  -5   0  -1 24702.7 1719.49   2
  -5   0  -2 85964.1 2994.92   2
  -5   0  -3 13244.0 1341.80   2
  -5   0  -4 5210.15 1119.60   2
  -5   0  -5 23910.9 1872.72   2
  -5   0  -6 8956.64 1493.77   2
  -5   0  -7 1474.32 1104.16   2
  -5   0  -8 1320.26 1423.63   2
  -5  -1   6 1973.58 1702.13   2
  -5  -1   5 3573.34 1484.00   2
  -5  -1   4 2293.34 1016.54   2
  -5  -1   3 117.683 781.329   2
  -5  -1   2 34434.1 1976.78   2
  -5  -1   1 8101.58 1126.91   2
  -5  -1   0 6191.87 1076.32   2
  -5  -1  -1 5227.39 977.536   2
  -5  -1  -2 862.372 624.063   2
  -5  -1  -3 4873.28 901.876   2
  -5  -1  -4 36703.1 1366.09   2
  -5  -1  -5 13323.9 1452.44   2
  -5  -1  -6 2525.09 885.745   2
  -5  -1  -7 435.363 1047.92   2
  -5  -1  -8 20354.3 2256.32   2
  -5  -1  -9 10012.2 2180.56   2
  -5  -2   5 578.205 1294.16   2
  -5  -2   4 8721.03 1379.55   2
  -5  -2   3 18041.7 1601.06   2
  -5  -2   1 88624.4 3026.17   2
  -5  -2   0 3237.63 951.160   2
  -5  -2  -1 3040.80 908.929   2
  -5  -2  -2 2543.76 807.584   2
   5   2   3 794.806 469.263   2
  -5  -2  -4 337.010 491.399   2
  -5  -2  -5 1818.45 548.604   2
  -5  -2  -6 885.066 634.685   2
  -5  -2  -7 1239.13 1047.67   2
  -5  -2  -8 1638.21 1281.22   2
  -5  -2  -9-399.534 1811.15   2
  -5  -3   4 5387.12 1433.54   2
  -5  -3   3 19803.8 1799.24   2
  -5  -3   1 5087.08 1028.80   2
  -5  -3   0 1289.04 849.317   2
  -5  -3  -1 91974.2 3214.76   2
  -5  -3  -2 1358.65 601.969   2
  -5  -3  -3 432.501 526.197   2
   5   3   4 2372.12 576.287   2
  -5  -3  -5 21637.1 1158.63   2
  -5  -3  -6 17863.6 1079.16   2
  -5  -3  -7 24179.4 1365.76   2
   5   3   8-369.734 1210.38   2
  -5  -4   3 4868.34 1450.35   2
  -5  -4   2 11030.0 1621.84   2
  -5  -4   1 9003.33 1307.94   2
  -5  -4   0 1832.37 923.825   2
  -5  -4  -1 1233.80 634.959   2
  -5  -4  -2-1013.64 629.661   2
  -5  -4  -3-323.602 613.659   2
   5   4   4-139.309 906.701   2
   5   4   5-1687.92 937.459   2
   5   4   6 4256.37 1190.43   2
   5   4   7 8194.83 1428.04   2
  -5  -5   0 411.578 1402.02   2
  -5  -5  -1 352.119 1264.11   2
  -5  -5  -2 1469.94 841.723   2
  -5  -5  -3 2717.33 847.249   2
  -5  -5  -4 11085.1 1092.54   2
  -5  -5  -5 6510.91 997.631   2
  -6   0   1 16611.1 1750.99   2
  -6   0   0 1340.35 1262.16   2
  -6   0  -1 9133.42 1476.39   2
  -6   0  -2 17409.7 1760.74   2
  -6   0  -3 11975.2 1502.04   2
  -6  -1   1 29096.5 2193.00   2
  -6  -1   0 1497.00 1111.32   2
  -6  -1  -1 2060.52 766.157   2
  -6  -1  -2 26360.1 2062.80   2
  -6  -1  -3 2290.59 1131.04   2
  -6  -1  -4 14705.3 1889.34   2
  -6  -1  -5 3403.01 1420.55   2
  -6  -2   0 2132.19 1186.75   2
  -6  -2  -1 12586.1 1611.16   2
  -6  -2  -2 9076.65 971.951   2
  -6  -2  -3-139.514 1224.28   2
  -6  -2  -4-562.025 1240.93   2
  -6  -2  -5 21189.0 2137.20   2
;
_shelx_hkl_checksum              68620
loop_
_space_group_symop_operation_xyz
'x, y, z'
'-x, -y, -z'
loop_
_atom_site_label
_atom_site_type_symbol
_atom_site_fract_x
_atom_site_fract_y
_atom_site_fract_z
_atom_site_U_iso_or_equiv
_atom_site_adp_type
_atom_site_occupancy
_atom_site_site_symmetry_order
_atom_site_calc_flag
_atom_site_refinement_flags_posn
_atom_site_refinement_flags_adp
_atom_site_refinement_flags_occupancy
_atom_site_disorder_assembly
_atom_site_disorder_group
Br1 Br 0.0277(4) 0.5205(3) 0.1893(2) 0.0404(14) Uani 1 1 d . . . . .
Br2 Br 0.1166(4) 0.8011(4) 0.0174(2) 0.0458(14) Uani 1 1 d . . . . .
Br3 Br 0.7583(4) 0.2981(4) 0.3534(2) 0.0409(13) Uani 1 1 d . . . . .
Br4 Br 0.3742(4) 0.0014(3) 0.1520(2) 0.0392(14) Uani 1 1 d . . . . .
Br5 Br 0.3728(5) 0.6483(3) 0.3143(2) 0.0445(14) Uani 1 1 d . . . . .
Br6 Br 0.2953(4) -0.0055(3) 0.4163(2) 0.0405(13) Uani 1 1 d . . . . .
P1 P 0.3544(10) 0.2693(8) 0.2592(5) 0.031(2) Uani 1 1 d . . . . .
C1 C 0.414(4) 0.437(3) 0.1751(18) 0.031(7) Uani 1 1 d . . . . .
C2 C 0.593(4) 0.453(3) 0.1403(17) 0.028(7) Uani 1 1 d . . . . .
H2 H 0.692156 0.381959 0.162734 0.033 Uiso 1 1 calc R U . . .
C3 C 0.629(4) 0.578(3) 0.0703(17) 0.032(7) Uani 1 1 d . . . . .
H3 H 0.751451 0.590588 0.046207 0.038 Uiso 1 1 calc R U . . .
C4 C 0.484(4) 0.680(3) 0.0385(19) 0.036(8) Uani 1 1 d . . . . .
H4 H 0.506361 0.765836 -0.005923 0.043 Uiso 1 1 calc R U . . .
C5 C 0.310(4) 0.657(3) 0.0700(19) 0.032(7) Uani 1 1 d . . . . .
C6 C 0.270(4) 0.540(3) 0.1397(19) 0.034(7) Uani 1 1 d . . . . .
C7 C 0.572(4) 0.143(3) 0.2528(17) 0.029(6) Uani 1 1 d . . . . .
C8 C 0.734(4) 0.147(3) 0.2885(17) 0.026(7) Uani 1 1 d . . . . .
C9 C 0.891(4) 0.045(3) 0.277(2) 0.042(8) Uani 1 1 d . . . . .
H9 H 0.999275 0.054787 0.300859 0.051 Uiso 1 1 calc R U . . .
C10 C 0.891(4) -0.072(3) 0.2304(19) 0.034(7) Uani 1 1 d . . . . .
H10 H 0.998084 -0.144612 0.223598 0.040 Uiso 1 1 calc R U . . .
C11 C 0.734(4) -0.081(3) 0.1945(19) 0.034(7) Uani 1 1 d . . . . .
H11 H 0.731935 -0.157632 0.161334 0.041 Uiso 1 1 calc R U . . .
C12 C 0.579(4) 0.024(3) 0.2075(18) 0.030(7) Uani 1 1 d . . . . .
C13 C 0.325(4) 0.320(3) 0.3670(18) 0.030(7) Uani 1 1 d . . . . .
C14 C 0.308(4) 0.466(3) 0.3907(19) 0.034(7) Uani 1 1 d . . . . .
C15 C 0.257(4) 0.485(4) 0.476(2) 0.046(8) Uani 1 1 d . . . . .
H15 H 0.247240 0.584873 0.490358 0.056 Uiso 1 1 calc R U . . .
C16 C 0.220(4) 0.362(4) 0.538(2) 0.048(8) Uani 1 1 d . . . . .
H16 H 0.188384 0.376258 0.596295 0.057 Uiso 1 1 calc R U . . .
C17 C 0.228(4) 0.218(3) 0.5207(19) 0.036(7) Uani 1 1 d . . . . .
H17 H 0.199695 0.133554 0.564978 0.043 Uiso 1 1 calc R U . . .
C18 C 0.281(3) 0.199(3) 0.4345(19) 0.026(7) Uani 1 1 d . . . . .
loop_
_atom_site_aniso_label
_atom_site_aniso_U_11
_atom_site_aniso_U_22
_atom_site_aniso_U_33
_atom_site_aniso_U_23
_atom_site_aniso_U_13
_atom_site_aniso_U_12
Br1 0.029(2) 0.033(2) 0.053(3) -0.0020(19) 0.0054(19) -0.0016(17)
Br2 0.042(3) 0.037(3) 0.049(3) 0.005(2) -0.001(2) 0.0023(19)
Br3 0.039(2) 0.044(2) 0.040(3) -0.0089(19) 0.0028(19) -0.0120(18)
Br4 0.038(2) 0.035(2) 0.046(3) -0.0097(19) 0.0035(19) -0.0095(17)
Br5 0.060(3) 0.029(2) 0.045(3) -0.0071(19) 0.001(2) -0.0105(18)
Br6 0.042(3) 0.030(2) 0.043(3) 0.0033(18) 0.0043(19) -0.0068(17)
P1 0.028(5) 0.027(5) 0.035(6) -0.002(4) 0.003(4) -0.004(4)
C1 0.028(11) 0.029(13) 0.030(12) 0.002(10) 0.003(10) -0.001(9)
C2 0.030(11) 0.024(15) 0.025(17) -0.003(10) 0.006(11) -0.001(11)
C3 0.038(12) 0.034(16) 0.019(17) 0.000(11) 0.004(12) -0.003(11)
C4 0.041(11) 0.026(17) 0.041(19) -0.002(12) -0.009(11) -0.007(10)
C5 0.038(11) 0.035(16) 0.024(16) -0.001(10) -0.013(12) -0.003(11)
C6 0.035(12) 0.033(15) 0.030(16) -0.002(10) -0.002(11) 0.003(9)
C7 0.036(12) 0.027(10) 0.018(15) 0.005(9) 0.006(9) -0.004(10)
C8 0.036(13) 0.024(14) 0.012(15) 0.006(12) 0.008(11) -0.005(9)
C9 0.037(13) 0.040(15) 0.05(2) -0.012(13) 0.001(13) 0.000(10)
C10 0.020(13) 0.032(15) 0.044(19) -0.005(13) 0.012(12) -0.003(11)
C11 0.020(12) 0.037(14) 0.040(18) -0.007(13) 0.015(11) -0.007(10)
C12 0.019(12) 0.035(14) 0.034(16) -0.006(12) 0.014(11) -0.008(9)
C13 0.027(17) 0.030(12) 0.030(11) -0.003(8) 0.007(10) -0.011(11)
C14 0.035(19) 0.030(11) 0.036(13) -0.005(11) -0.005(12) -0.005(10)
C15 0.06(2) 0.048(14) 0.039(13) -0.014(10) -0.003(13) -0.015(15)
C16 0.05(2) 0.049(14) 0.039(15) -0.012(10) 0.007(14) -0.002(15)
C17 0.028(18) 0.043(13) 0.029(11) -0.003(11) 0.010(12) 0.001(14)
C18 0.010(16) 0.033(12) 0.028(11) 0.001(9) 0.009(11) -0.001(10)
loop_
_atom_type_symbol
_atom_type_description
_atom_type_scat_dispersion_real
_atom_type_scat_dispersion_imag
_atom_type_scat_source
C C 0.0181 0.0091 'International Tables Vol C Tables 4.2.6.8 and 6.1.1.4'
H H 0.0000 0.0000 'International Tables Vol C Tables 4.2.6.8 and 6.1.1.4'
P P 0.2955 0.4335 'International Tables Vol C Tables 4.2.6.8 and 6.1.1.4'
Br Br -0.6763 1.2805 'International Tables Vol C Tables 4.2.6.8 and 6.1.1.4'
loop_
_geom_angle_atom_site_label_1
_geom_angle_atom_site_label_2
_geom_angle_atom_site_label_3
_geom_angle
_geom_angle_site_symmetry_1
_geom_angle_site_symmetry_3
_geom_angle_publ_flag
C7 P1 C13 106.1(13) . . ?
C7 P1 C1 99.5(12) . . ?
C13 P1 C1 110.3(13) . . ?
C2 C1 C6 120(3) . . ?
C2 C1 P1 123(2) . . ?
C6 C1 P1 118(2) . . ?
C1 C2 C3 120(3) . . ?
C1 C2 H2 120.1 . . ?
C3 C2 H2 120.1 . . ?
C4 C3 C2 119(3) . . ?
C4 C3 H3 120.4 . . ?
C2 C3 H3 120.4 . . ?
C5 C4 C3 120(3) . . ?
C5 C4 H4 119.9 . . ?
C3 C4 H4 119.9 . . ?
C4 C5 C6 122(3) . . ?
C4 C5 Br2 117(2) . . ?
C6 C5 Br2 121(2) . . ?
C1 C6 C5 119(3) . . ?
C1 C6 Br1 119(2) . . ?
C5 C6 Br1 122(2) . . ?
C12 C7 C8 115(3) . . ?
C12 C7 P1 116(2) . . ?
C8 C7 P1 129(2) . . ?
C9 C8 C7 123(3) . . ?
C9 C8 Br3 114(2) . . ?
C7 C8 Br3 123(2) . . ?
C8 C9 C10 120(3) . . ?
C8 C9 H9 120.1 . . ?
C10 C9 H9 120.1 . . ?
C11 C10 C9 119(3) . . ?
C11 C10 H10 120.6 . . ?
C9 C10 H10 120.6 . . ?
C12 C11 C10 119(3) . . ?
C12 C11 H11 120.3 . . ?
C10 C11 H11 120.3 . . ?
C11 C12 C7 124(3) . . ?
C11 C12 Br4 115(2) . . ?
C7 C12 Br4 121(2) . . ?
C14 C13 C18 115(2) . . ?
C14 C13 P1 130(2) . . ?
C18 C13 P1 114(2) . . ?
C15 C14 C13 122(3) . . ?
C15 C14 Br5 114(2) . . ?
C13 C14 Br5 124(2) . . ?
C16 C15 C14 120(3) . . ?
C16 C15 H15 120.2 . . ?
C14 C15 H15 120.2 . . ?
C17 C16 C15 122(3) . . ?
C17 C16 H16 118.9 . . ?
C15 C16 H16 118.9 . . ?
C16 C17 C18 118(3) . . ?
C16 C17 H17 121.1 . . ?
C18 C17 H17 121.1 . . ?
C13 C18 C17 123(3) . . ?
C13 C18 Br6 122(2) . . ?
C17 C18 Br6 115(2) . . ?
loop_
_geom_bond_atom_site_label_1
_geom_bond_atom_site_label_2
_geom_bond_distance
_geom_bond_site_symmetry_2
_geom_bond_publ_flag
Br1 C6 1.88(3) . ?
Br2 C5 1.93(3) . ?
Br3 C8 1.90(3) . ?
Br4 C12 1.90(3) . ?
Br5 C14 1.91(3) . ?
Br6 C18 1.89(3) . ?
P1 C7 1.82(3) . ?
P1 C13 1.84(3) . ?
P1 C1 1.86(3) . ?
C1 C2 1.38(3) . ?
C1 C6 1.40(4) . ?
C2 C3 1.43(4) . ?
C2 H2 0.9500 . ?
C3 C4 1.37(4) . ?
C3 H3 0.9500 . ?
C4 C5 1.35(4) . ?
C4 H4 0.9500 . ?
C5 C6 1.39(4) . ?
C7 C12 1.39(4) . ?
C7 C8 1.40(4) . ?
C8 C9 1.38(4) . ?
C9 C10 1.40(4) . ?
C9 H9 0.9500 . ?
C10 C11 1.38(4) . ?
C10 H10 0.9500 . ?
C11 C12 1.39(4) . ?
C11 H11 0.9500 . ?
C13 C14 1.41(3) . ?
C13 C18 1.40(4) . ?
C14 C15 1.40(4) . ?
C15 C16 1.36(4) . ?
C15 H15 0.9500 . ?
C16 C17 1.36(4) . ?
C16 H16 0.9500 . ?
C17 C18 1.41(4) . ?
C17 H17 0.9500 . ?
loop_
_geom_torsion_atom_site_label_1
_geom_torsion_atom_site_label_2
_geom_torsion_atom_site_label_3
_geom_torsion_atom_site_label_4
_geom_torsion
_geom_torsion_site_symmetry_1
_geom_torsion_site_symmetry_2
_geom_torsion_site_symmetry_3
_geom_torsion_site_symmetry_4
_geom_torsion_publ_flag
C7 P1 C1 C2 -13(3) . . . . ?
C13 P1 C1 C2 98(2) . . . . ?
C7 P1 C1 C6 160(2) . . . . ?
C13 P1 C1 C6 -89(2) . . . . ?
C6 C1 C2 C3 2(4) . . . . ?
P1 C1 C2 C3 174(2) . . . . ?
C1 C2 C3 C4 0(4) . . . . ?
C2 C3 C4 C5 -3(4) . . . . ?
C3 C4 C5 C6 5(4) . . . . ?
C3 C4 C5 Br2 -177(2) . . . . ?
C2 C1 C6 C5 0(4) . . . . ?
P1 C1 C6 C5 -173(2) . . . . ?
C2 C1 C6 Br1 -178(2) . . . . ?
P1 C1 C6 Br1 9(3) . . . . ?
C4 C5 C6 C1 -4(4) . . . . ?
Br2 C5 C6 C1 179(2) . . . . ?
C4 C5 C6 Br1 175(2) . . . . ?
Br2 C5 C6 Br1 -2(3) . . . . ?
C13 P1 C7 C12 144(2) . . . . ?
C1 P1 C7 C12 -102(2) . . . . ?
C13 P1 C7 C8 -35(3) . . . . ?
C1 P1 C7 C8 79(3) . . . . ?
C12 C7 C8 C9 2(4) . . . . ?
P1 C7 C8 C9 -179(2) . . . . ?
C12 C7 C8 Br3 -179.9(19) . . . . ?
P1 C7 C8 Br3 -1(4) . . . . ?
C7 C8 C9 C10 -2(4) . . . . ?
Br3 C8 C9 C10 180(2) . . . . ?
C8 C9 C10 C11 2(4) . . . . ?
C9 C10 C11 C12 -2(4) . . . . ?
C10 C11 C12 C7 2(4) . . . . ?
C10 C11 C12 Br4 179(2) . . . . ?
C8 C7 C12 C11 -2(4) . . . . ?
P1 C7 C12 C11 178(2) . . . . ?
C8 C7 C12 Br4 -178.6(19) . . . . ?
P1 C7 C12 Br4 2(3) . . . . ?
C7 P1 C13 C14 120(3) . . . . ?
C1 P1 C13 C14 13(3) . . . . ?
C7 P1 C13 C18 -73(2) . . . . ?
C1 P1 C13 C18 -179.6(19) . . . . ?
C18 C13 C14 C15 2(4) . . . . ?
P1 C13 C14 C15 169(2) . . . . ?
C18 C13 C14 Br5 176(2) . . . . ?
P1 C13 C14 Br5 -17(4) . . . . ?
C13 C14 C15 C16 -1(5) . . . . ?
Br5 C14 C15 C16 -175(2) . . . . ?
C14 C15 C16 C17 -1(5) . . . . ?
C15 C16 C17 C18 2(4) . . . . ?
C14 C13 C18 C17 -2(4) . . . . ?
P1 C13 C18 C17 -171(2) . . . . ?
C14 C13 C18 Br6 -180.0(19) . . . . ?
P1 C13 C18 Br6 11(3) . . . . ?
C16 C17 C18 C13 0(4) . . . . ?
C16 C17 C18 Br6 178(2) . . . . ?
