#------------------------------------------------------------------------------
#$Date: 2021-03-05 04:04:50 +0200 (Fri, 05 Mar 2021) $
#$Revision: 262642 $
#$URL: file:///home/coder/svn-repositories/cod/cif/7/70/65/7706504.cif $
#------------------------------------------------------------------------------
#
# This file is available in the Crystallography Open Database (COD),
# http://www.crystallography.net/
#
# All data on this site have been placed in the public domain by the
# contributors.
#
data_7706504
loop_
_publ_author_name
'Khalaniya, R. A.'
'Sobolev, A. V.'
'Verchenko, V. Yu'
'Tsirlin, A. A.'
'Senyshyn, A.'
'Damay, F.'
'Presniakov, I. A.'
'Shevelkov, A. V.'
_publ_section_title
;
 Magnetic structures of Fe<sub>32+\d</sub>Ge<sub>33</sub>As<sub>2</sub>
 and Fe<sub>32+\d'</sub>Ge<sub>35-x</sub>P<sub>x</sub> intermetallic
 compounds: a neutron diffraction and <sup>57</sup>Fe M\"ossbauer
 spectroscopy study.
;
_journal_issue                   6
_journal_name_full
'Dalton transactions (Cambridge, England : 2003)'
_journal_page_first              2210
_journal_page_last               2220
_journal_paper_doi               10.1039/d0dt03923c
_journal_volume                  50
_journal_year                    2021
_chemical_formula_moiety         'Fe32.447 Ge32.489 P2.511'
_chemical_formula_sum            'Fe32.447 Ge32.489 P2.511'
_chemical_formula_weight         4248.2
_space_group_IT_number           191
_space_group_name_Hall           '-P 6 2'
_space_group_name_H-M_alt        'P 6/m m m'
_symmetry_cell_setting           hexagonal
_symmetry_Int_Tables_number      191
_symmetry_space_group_name_Hall  '-P 6 2'
_symmetry_space_group_name_H-M   'P 6/m m m'
_audit_creation_method           'Jana2006 Version : 25/04/2020'
_audit_update_record
;
2020-11-10 deposited with the CCDC.	2021-01-11 downloaded from the CCDC.
;
_cell_angle_alpha                90
_cell_angle_beta                 90
_cell_angle_gamma                120
_cell_formula_units_Z            1
_cell_length_a                   11.88568(8)
_cell_length_b                   11.88568(8)
_cell_length_c                   7.50310(8)
_cell_measurement_temperature    150
_cell_volume                     917.951(13)
_diffrn_ambient_temperature      150
_diffrn_detector_type            '80 position-sensitive 3He tubes'
_diffrn_measurement_device       'high resolution powder diffractometer'
_diffrn_measurement_device_type  'SPODI high resolution powder diffractometer'
_diffrn_radiation_monochromator  'Ge (551) monochromator'
_diffrn_radiation_probe          neutron
_diffrn_radiation_type           neutron
_diffrn_radiation_wavelength     1.5482
_exptl_absorpt_coefficient_mu    0.015
_exptl_crystal_density_diffrn    7.6849
_exptl_crystal_description       powder
_exptl_crystal_F_000             585.429
_pd_instr_location               ' ?'
_pd_meas_2theta_range_inc        0.05
_pd_meas_2theta_range_max        151.900
_pd_meas_2theta_range_min        0.950
_pd_meas_number_of_points        3020
_pd_proc_2theta_range_inc        0.05
_pd_proc_2theta_range_max        151.9
_pd_proc_2theta_range_min        6.05
_pd_proc_ls_background_function  '10 Legendre polynoms'
_pd_proc_ls_pref_orient_corr     none
_pd_proc_ls_profile_function     Gaussian
_pd_proc_ls_prof_R_factor        0.0312
_pd_proc_ls_prof_wR_expected     0.0145
_pd_proc_ls_prof_wR_factor       0.0387
_refine_ls_goodness_of_fit_all   2.66
_refine_ls_number_constraints    0
_refine_ls_number_parameters     62
_refine_ls_number_restraints     0
_refine_ls_R_factor_all          0.0223
_refine_ls_R_factor_gt           0.0222
_refine_ls_shift/su_max          0.0091
_refine_ls_shift/su_mean         0.0007
_refine_ls_weighting_scheme      sigma
_refine_ls_wR_factor_all         0.0278
_refine_ls_wR_factor_gt          0.0278
_cod_data_source_file            d0dt03923c2.cif
_cod_data_source_block           Fe32p5Ge32P3_150K
_cod_depositor_comments
'Adding full bibliography for 7706499--7706504.cif.'
_cod_original_cell_volume        917.950(13)
_cod_original_sg_symbol_Hall     '-P 6;-2'
_cod_database_code               7706504
loop_
_space_group_symop_id
_space_group_symop_operation_xyz
1 x,y,z
2 -y,x-y,z
3 -x+y,-x,z
4 -x,-y,z
5 y,-x+y,z
6 x-y,x,z
7 y,x,-z
8 x-y,-y,-z
9 -x,-x+y,-z
10 -y,-x,-z
11 -x+y,y,-z
12 x,x-y,-z
13 -x,-y,-z
14 y,-x+y,-z
15 x-y,x,-z
16 x,y,-z
17 -y,x-y,-z
18 -x+y,-x,-z
19 -y,-x,z
20 -x+y,y,z
21 x,x-y,z
22 y,x,z
23 x-y,-y,z
24 -x,-x+y,z
loop_
_atom_site_label
_atom_site_type_symbol
_atom_site_fract_x
_atom_site_fract_y
_atom_site_fract_z
_atom_site_adp_type
_atom_site_U_iso_or_equiv
_atom_site_site_symmetry_multiplicity
_atom_site_occupancy
_atom_site_calc_flag
_atom_site_refinement_flags
_atom_site_disorder_assembly
_atom_site_disorder_group
Ge0 Ge 0 0 0.1623(5) Uani 0.0122(10) 2 1 d . . .
Ge1 Ge 0.232404 0 0.5 Uani 0.0065(8) 6 0.58(2) d . . .
P1 P 0.232404 0 0.5 Uani 0.0065(8) 6 0.42(2) d . . .
Fe1 Fe 0.21102(7) 0.42204(14) 0.5 Uani 0.0046(5) 6 1 d . . .
Ge2 Ge 0.43156(9) 0.56844(9) 0.5 Uani 0.0069(6) 6 1 d . . .
Ge3 Ge 0.24422(6) 0.48843(12) 0.19592(17) Uani 0.0125(5) 12 1 d . . .
Ge4 Ge 0.26985(15) 0 0 Uani 0.0094(6) 6 1 d . . .
Fe2 Fe 0.333333 0.666667 0 Uani 0.0067(7) 2 1 d . . .
Fe3 Fe 0.38433(8) 0.38433(8) 0.28041(16) Uani 0.0070(4) 12 1 d . . .
Ge5 Ge -0.0468(4) 0.47659(18) 0 Uani 0.0141(14) 6 0.5 d . . .
Fe4 Fe 0.12292(5) 0.24585(10) 0.24175(18) Uani 0.0093(4) 12 1 d . . .
Fe5 Fe 0 0 0.5 Uani 0.049(6) 1 0.45(2) d . . .
loop_
_atom_site_aniso_label
_atom_site_aniso_type_symbol
_atom_site_aniso_U_11
_atom_site_aniso_U_22
_atom_site_aniso_U_33
_atom_site_aniso_U_12
_atom_site_aniso_U_13
_atom_site_aniso_U_23
Ge0 Ge 0.0101(10) 0.0101(10) 0.016(2) 0.0051(5) 0 0
Ge1 Ge 0.0080(9) 0.0064(12) 0.0047(11) 0.0032(6) 0 0
P1 P 0.0080(9) 0.0064(12) 0.0047(11) 0.0032(6) 0 0
Fe1 Fe 0.0029(5) 0.0061(7) 0.0059(8) 0.0030(4) 0 0
Ge2 Ge 0.0035(6) 0.0035(6) 0.0102(10) -0.0009(8) 0 0
Ge3 Ge 0.0199(6) 0.0049(6) 0.0078(7) 0.0025(3) 0.0010(2) 0.0020(5)
Ge4 Ge 0.0109(7) 0.0107(9) 0.0065(9) 0.0053(4) 0 0
Fe2 Fe 0.0095(8) 0.0095(8) 0.0010(14) 0.0048(4) 0 0
Fe3 Fe 0.0051(4) 0.0051(4) 0.0114(6) 0.0031(4) 0.0022(4) 0.0022(4)
Ge5 Ge 0.035(3) 0.0127(13) 0.002248 0.0175(13) 0 0
Fe4 Fe 0.0052(3) 0.0093(5) 0.0149(6) 0.0046(3) -0.0012(3) -0.0024(5)
Fe5 Fe 0.066(8) 0.066(8) 0.016(8) 0.033(4) 0 0
loop_
_atom_type_symbol
_atom_type_scat_length_neutron
_atom_type_scat_source
Fe 9.450 International_Tables_Vol_C
Ge 8.185 International_Tables_Vol_C
P 5.130 International_Tables_Vol_C
loop_
_exptl_crystal_face_index_h
_exptl_crystal_face_index_k
_exptl_crystal_face_index_l
_exptl_crystal_face_perp_dist
? ? ? ?
loop_
_geom_angle_atom_site_label_1
_geom_angle_atom_site_label_2
_geom_angle_atom_site_label_3
_geom_angle_site_symmetry_1
_geom_angle_site_symmetry_2
_geom_angle_site_symmetry_3
_geom_angle
_geom_angle_publ_flag
Ge0 Ge0 Fe4 7_555 . . 103.25(8) ?
Ge0 Ge0 Fe4 7_555 . 2_555 103.25(8) ?
Ge0 Ge0 Fe4 7_555 . 3_555 103.25(8) ?
Ge0 Ge0 Fe4 7_555 . 4_555 103.25(8) ?
Ge0 Ge0 Fe4 7_555 . 5_555 103.25(8) ?
Ge0 Ge0 Fe4 7_555 . 6_555 103.25(8) ?
Ge0 Ge0 Fe5 7_555 . . 180 ?
Fe4 Ge0 Fe4 . . 2_555 114.91(7) ?
Fe4 Ge0 Fe4 . . 3_555 114.91(6) ?
Fe4 Ge0 Fe4 . . 4_555 153.49(15) ?
Fe4 Ge0 Fe4 . . 5_555 58.25(4) ?
Fe4 Ge0 Fe4 . . 6_555 58.25(3) ?
Fe4 Ge0 Fe5 . . . 76.75(8) ?
Fe4 Ge0 Fe4 2_555 . 3_555 114.91(7) ?
Fe4 Ge0 Fe4 2_555 . 4_555 58.25(4) ?
Fe4 Ge0 Fe4 2_555 . 5_555 153.49(15) ?
Fe4 Ge0 Fe4 2_555 . 6_555 58.25(4) ?
Fe4 Ge0 Fe5 2_555 . . 76.75(8) ?
Fe4 Ge0 Fe4 3_555 . 4_555 58.25(3) ?
Fe4 Ge0 Fe4 3_555 . 5_555 58.25(4) ?
Fe4 Ge0 Fe4 3_555 . 6_555 153.49(15) ?
Fe4 Ge0 Fe5 3_555 . . 76.75(8) ?
Fe4 Ge0 Fe4 4_555 . 5_555 114.91(7) ?
Fe4 Ge0 Fe4 4_555 . 6_555 114.91(6) ?
Fe4 Ge0 Fe5 4_555 . . 76.75(8) ?
Fe4 Ge0 Fe4 5_555 . 6_555 114.91(7) ?
Fe4 Ge0 Fe5 5_555 . . 76.75(8) ?
Fe4 Ge0 Fe5 6_555 . . 76.75(8) ?
Ge1 Ge1 Ge1 5_555 . 6_555 120.0000(6) ?
Ge1 Ge1 P1 5_555 . . 0 ?
Ge1 Ge1 P1 5_555 . 5_555 0 ?
Ge1 Ge1 P1 5_555 . 6_555 120.0000(6) ?
Ge1 Ge1 Fe1 5_555 . 3_555 54.72(4) ?
Ge1 Ge1 Fe1 5_555 . 5_555 174.72(5) ?
Ge1 Ge1 Fe3 5_555 . 5_555 111.68(2) ?
Ge1 Ge1 Fe3 5_555 . 12_556 111.68(2) ?
Ge1 Ge1 Fe4 5_555 . 3_555 54.59(2) ?
Ge1 Ge1 Fe4 5_555 . 5_555 109.88(2) ?
Ge1 Ge1 Fe4 5_555 . 7_556 109.88(2) ?
Ge1 Ge1 Fe4 5_555 . 12_556 54.59(2) ?
Ge1 Ge1 Fe5 5_555 . . 60.0000(6) ?
Ge1 Ge1 P1 6_555 . . 0 ?
Ge1 Ge1 P1 6_555 . 5_555 120.0000(6) ?
Ge1 Ge1 P1 6_555 . 6_555 0 ?
Ge1 Ge1 Fe1 6_555 . 3_555 174.72(4) ?
Ge1 Ge1 Fe1 6_555 . 5_555 54.72(5) ?
Ge1 Ge1 Fe3 6_555 . 5_555 111.68(3) ?
Ge1 Ge1 Fe3 6_555 . 12_556 111.68(3) ?
Ge1 Ge1 Fe4 6_555 . 3_555 109.88(3) ?
Ge1 Ge1 Fe4 6_555 . 5_555 54.59(4) ?
Ge1 Ge1 Fe4 6_555 . 7_556 54.59(3) ?
Ge1 Ge1 Fe4 6_555 . 12_556 109.88(3) ?
Ge1 Ge1 Fe5 6_555 . . 60.0000(5) ?
P1 Ge1 P1 . . 5_555 0 ?
P1 Ge1 P1 . . 6_555 0 ?
P1 Ge1 Fe1 . . 3_555 0 ?
P1 Ge1 Fe1 . . 5_555 0 ?
P1 Ge1 Fe3 . . 5_555 0 ?
P1 Ge1 Fe3 . . 12_556 0 ?
P1 Ge1 Fe4 . . 3_555 0 ?
P1 Ge1 Fe4 . . 5_555 0 ?
P1 Ge1 Fe4 . . 7_556 0 ?
P1 Ge1 Fe4 . . 12_556 0 ?
P1 Ge1 Fe5 . . . 0 ?
P1 Ge1 P1 5_555 . 6_555 120.0000(6) ?
P1 Ge1 Fe1 5_555 . 3_555 54.72(4) ?
P1 Ge1 Fe1 5_555 . 5_555 174.72(5) ?
P1 Ge1 Fe3 5_555 . 5_555 111.68(2) ?
P1 Ge1 Fe3 5_555 . 12_556 111.68(2) ?
P1 Ge1 Fe4 5_555 . 3_555 54.59(2) ?
P1 Ge1 Fe4 5_555 . 5_555 109.88(2) ?
P1 Ge1 Fe4 5_555 . 7_556 109.88(2) ?
P1 Ge1 Fe4 5_555 . 12_556 54.59(2) ?
P1 Ge1 Fe5 5_555 . . 60.0000(6) ?
P1 Ge1 Fe1 6_555 . 3_555 174.72(4) ?
P1 Ge1 Fe1 6_555 . 5_555 54.72(5) ?
P1 Ge1 Fe3 6_555 . 5_555 111.68(3) ?
P1 Ge1 Fe3 6_555 . 12_556 111.68(3) ?
P1 Ge1 Fe4 6_555 . 3_555 109.88(3) ?
P1 Ge1 Fe4 6_555 . 5_555 54.59(4) ?
P1 Ge1 Fe4 6_555 . 7_556 54.59(3) ?
P1 Ge1 Fe4 6_555 . 12_556 109.88(3) ?
P1 Ge1 Fe5 6_555 . . 60.0000(5) ?
Fe1 Ge1 Fe1 3_555 . 5_555 130.56(7) ?
Fe1 Ge1 Fe3 3_555 . 5_555 72.01(4) ?
Fe1 Ge1 Fe3 3_555 . 12_556 72.01(4) ?
Fe1 Ge1 Fe4 3_555 . 3_555 67.54(3) ?
Fe1 Ge1 Fe4 3_555 . 5_555 125.61(3) ?
Fe1 Ge1 Fe4 3_555 . 7_556 125.62(2) ?
Fe1 Ge1 Fe4 3_555 . 12_556 67.54(4) ?
Fe1 Ge1 Fe5 3_555 . . 114.72(4) ?
Fe1 Ge1 Fe3 5_555 . 5_555 72.01(4) ?
Fe1 Ge1 Fe3 5_555 . 12_556 72.01(4) ?
Fe1 Ge1 Fe4 5_555 . 3_555 125.62(2) ?
Fe1 Ge1 Fe4 5_555 . 5_555 67.54(3) ?
Fe1 Ge1 Fe4 5_555 . 7_556 67.54(3) ?
Fe1 Ge1 Fe4 5_555 . 12_556 125.61(3) ?
Fe1 Ge1 Fe5 5_555 . . 114.72(5) ?
Fe3 Ge1 Fe3 5_555 . 12_556 84.76(4) ?
Fe3 Ge1 Fe4 5_555 . 3_555 68.22(4) ?
Fe3 Ge1 Fe4 5_555 . 5_555 68.22(5) ?
Fe3 Ge1 Fe4 5_555 . 7_556 136.45(3) ?
Fe3 Ge1 Fe4 5_555 . 12_556 136.45(5) ?
Fe3 Ge1 Fe5 5_555 . . 137.62(3) ?
Fe3 Ge1 Fe4 12_556 . 3_555 136.45(5) ?
Fe3 Ge1 Fe4 12_556 . 5_555 136.45(3) ?
Fe3 Ge1 Fe4 12_556 . 7_556 68.22(5) ?
Fe3 Ge1 Fe4 12_556 . 12_556 68.22(3) ?
Fe3 Ge1 Fe5 12_556 . . 137.62(3) ?
Fe4 Ge1 Fe4 3_555 . 5_555 64.13(3) ?
Fe4 Ge1 Fe4 3_555 . 7_556 152.29(5) ?
Fe4 Ge1 Fe4 3_555 . 12_556 108.77(3) ?
Fe4 Ge1 Fe5 3_555 . . 76.15(3) ?
Fe4 Ge1 Fe4 5_555 . 7_556 108.77(4) ?
Fe4 Ge1 Fe4 5_555 . 12_556 152.29(4) ?
Fe4 Ge1 Fe5 5_555 . . 76.15(3) ?
Fe4 Ge1 Fe4 7_556 . 12_556 64.13(4) ?
Fe4 Ge1 Fe5 7_556 . . 76.15(3) ?
Fe4 Ge1 Fe5 12_556 . . 76.15(3) ?
Ge1 P1 Ge1 . . 5_555 0 ?
Ge1 P1 Ge1 . . 6_555 0 ?
Ge1 P1 P1 . . 5_555 0 ?
Ge1 P1 P1 . . 6_555 0 ?
Ge1 P1 Fe1 . . 3_555 0 ?
Ge1 P1 Fe1 . . 5_555 0 ?
Ge1 P1 Fe3 . . 5_555 0 ?
Ge1 P1 Fe3 . . 12_556 0 ?
Ge1 P1 Fe4 . . 3_555 0 ?
Ge1 P1 Fe4 . . 5_555 0 ?
Ge1 P1 Fe4 . . 7_556 0 ?
Ge1 P1 Fe4 . . 12_556 0 ?
Ge1 P1 Fe5 . . . 0 ?
Ge1 P1 Ge1 5_555 . 6_555 120.0000(6) ?
Ge1 P1 P1 5_555 . 5_555 0 ?
Ge1 P1 P1 5_555 . 6_555 120.0000(6) ?
Ge1 P1 Fe1 5_555 . 3_555 54.72(4) ?
Ge1 P1 Fe1 5_555 . 5_555 174.72(5) ?
Ge1 P1 Fe3 5_555 . 5_555 111.68(2) ?
Ge1 P1 Fe3 5_555 . 12_556 111.68(2) ?
Ge1 P1 Fe4 5_555 . 3_555 54.59(2) ?
Ge1 P1 Fe4 5_555 . 5_555 109.88(2) ?
Ge1 P1 Fe4 5_555 . 7_556 109.88(2) ?
Ge1 P1 Fe4 5_555 . 12_556 54.59(2) ?
Ge1 P1 Fe5 5_555 . . 60.0000(6) ?
Ge1 P1 P1 6_555 . 5_555 120.0000(6) ?
Ge1 P1 P1 6_555 . 6_555 0 ?
Ge1 P1 Fe1 6_555 . 3_555 174.72(4) ?
Ge1 P1 Fe1 6_555 . 5_555 54.72(5) ?
Ge1 P1 Fe3 6_555 . 5_555 111.68(3) ?
Ge1 P1 Fe3 6_555 . 12_556 111.68(3) ?
Ge1 P1 Fe4 6_555 . 3_555 109.88(3) ?
Ge1 P1 Fe4 6_555 . 5_555 54.59(4) ?
Ge1 P1 Fe4 6_555 . 7_556 54.59(3) ?
Ge1 P1 Fe4 6_555 . 12_556 109.88(3) ?
Ge1 P1 Fe5 6_555 . . 60.0000(5) ?
P1 P1 P1 5_555 . 6_555 120.0000(6) ?
P1 P1 Fe1 5_555 . 3_555 54.72(4) ?
P1 P1 Fe1 5_555 . 5_555 174.72(5) ?
P1 P1 Fe3 5_555 . 5_555 111.68(2) ?
P1 P1 Fe3 5_555 . 12_556 111.68(2) ?
P1 P1 Fe4 5_555 . 3_555 54.59(2) ?
P1 P1 Fe4 5_555 . 5_555 109.88(2) ?
P1 P1 Fe4 5_555 . 7_556 109.88(2) ?
P1 P1 Fe4 5_555 . 12_556 54.59(2) ?
P1 P1 Fe5 5_555 . . 60.0000(6) ?
P1 P1 Fe1 6_555 . 3_555 174.72(4) ?
P1 P1 Fe1 6_555 . 5_555 54.72(5) ?
P1 P1 Fe3 6_555 . 5_555 111.68(3) ?
P1 P1 Fe3 6_555 . 12_556 111.68(3) ?
P1 P1 Fe4 6_555 . 3_555 109.88(3) ?
P1 P1 Fe4 6_555 . 5_555 54.59(4) ?
P1 P1 Fe4 6_555 . 7_556 54.59(3) ?
P1 P1 Fe4 6_555 . 12_556 109.88(3) ?
P1 P1 Fe5 6_555 . . 60.0000(5) ?
Fe1 P1 Fe1 3_555 . 5_555 130.56(7) ?
Fe1 P1 Fe3 3_555 . 5_555 72.01(4) ?
Fe1 P1 Fe3 3_555 . 12_556 72.01(4) ?
Fe1 P1 Fe4 3_555 . 3_555 67.54(3) ?
Fe1 P1 Fe4 3_555 . 5_555 125.61(3) ?
Fe1 P1 Fe4 3_555 . 7_556 125.62(2) ?
Fe1 P1 Fe4 3_555 . 12_556 67.54(4) ?
Fe1 P1 Fe5 3_555 . . 114.72(4) ?
Fe1 P1 Fe3 5_555 . 5_555 72.01(4) ?
Fe1 P1 Fe3 5_555 . 12_556 72.01(4) ?
Fe1 P1 Fe4 5_555 . 3_555 125.62(2) ?
Fe1 P1 Fe4 5_555 . 5_555 67.54(3) ?
Fe1 P1 Fe4 5_555 . 7_556 67.54(3) ?
Fe1 P1 Fe4 5_555 . 12_556 125.61(3) ?
Fe1 P1 Fe5 5_555 . . 114.72(5) ?
Fe3 P1 Fe3 5_555 . 12_556 84.76(4) ?
Fe3 P1 Fe4 5_555 . 3_555 68.22(4) ?
Fe3 P1 Fe4 5_555 . 5_555 68.22(5) ?
Fe3 P1 Fe4 5_555 . 7_556 136.45(3) ?
Fe3 P1 Fe4 5_555 . 12_556 136.45(5) ?
Fe3 P1 Fe5 5_555 . . 137.62(3) ?
Fe3 P1 Fe4 12_556 . 3_555 136.45(5) ?
Fe3 P1 Fe4 12_556 . 5_555 136.45(3) ?
Fe3 P1 Fe4 12_556 . 7_556 68.22(5) ?
Fe3 P1 Fe4 12_556 . 12_556 68.22(3) ?
Fe3 P1 Fe5 12_556 . . 137.62(3) ?
Fe4 P1 Fe4 3_555 . 5_555 64.13(3) ?
Fe4 P1 Fe4 3_555 . 7_556 152.29(5) ?
Fe4 P1 Fe4 3_555 . 12_556 108.77(3) ?
Fe4 P1 Fe5 3_555 . . 76.15(3) ?
Fe4 P1 Fe4 5_555 . 7_556 108.77(4) ?
Fe4 P1 Fe4 5_555 . 12_556 152.29(4) ?
Fe4 P1 Fe5 5_555 . . 76.15(3) ?
Fe4 P1 Fe4 7_556 . 12_556 64.13(4) ?
Fe4 P1 Fe5 7_556 . . 76.15(3) ?
Fe4 P1 Fe5 12_556 . . 76.15(3) ?
Ge1 Fe1 Ge1 2_555 . 6_555 70.56(4) ?
Ge1 Fe1 P1 2_555 . 2_555 0 ?
Ge1 Fe1 P1 2_555 . 6_555 70.56(4) ?
Ge1 Fe1 Ge2 2_555 . . 165.99(9) ?
Ge1 Fe1 Ge2 2_555 . 3_565 95.43(5) ?
Ge1 Fe1 Ge3 2_555 . . 103.55(2) ?
Ge1 Fe1 Ge3 2_555 . 11_556 103.55(3) ?
Ge1 Fe1 Fe3 2_555 . . 110.65(5) ?
Ge1 Fe1 Fe3 2_555 . 6_555 54.87(2) ?
Ge1 Fe1 Fe3 2_555 . 7_556 110.65(5) ?
Ge1 Fe1 Fe3 2_555 . 11_556 54.87(2) ?
Ge1 Fe1 Fe4 2_555 . . 56.09(3) ?
Ge1 Fe1 Fe4 2_555 . 11_556 56.09(3) ?
Ge1 Fe1 P1 6_555 . 2_555 70.56(4) ?
Ge1 Fe1 P1 6_555 . 6_555 0 ?
Ge1 Fe1 Ge2 6_555 . . 95.43(6) ?
Ge1 Fe1 Ge2 6_555 . 3_565 165.99(4) ?
Ge1 Fe1 Ge3 6_555 . . 103.55(5) ?
Ge1 Fe1 Ge3 6_555 . 11_556 103.55(6) ?
Ge1 Fe1 Fe3 6_555 . . 54.87(4) ?
Ge1 Fe1 Fe3 6_555 . 6_555 110.65(4) ?
Ge1 Fe1 Fe3 6_555 . 7_556 54.87(4) ?
Ge1 Fe1 Fe3 6_555 . 11_556 110.65(4) ?
Ge1 Fe1 Fe4 6_555 . . 56.09(4) ?
Ge1 Fe1 Fe4 6_555 . 11_556 56.09(5) ?
P1 Fe1 P1 2_555 . 6_555 70.56(4) ?
P1 Fe1 Ge2 2_555 . . 165.99(9) ?
P1 Fe1 Ge2 2_555 . 3_565 95.43(5) ?
P1 Fe1 Ge3 2_555 . . 103.55(2) ?
P1 Fe1 Ge3 2_555 . 11_556 103.55(3) ?
P1 Fe1 Fe3 2_555 . . 110.65(5) ?
P1 Fe1 Fe3 2_555 . 6_555 54.87(2) ?
P1 Fe1 Fe3 2_555 . 7_556 110.65(5) ?
P1 Fe1 Fe3 2_555 . 11_556 54.87(2) ?
P1 Fe1 Fe4 2_555 . . 56.09(3) ?
P1 Fe1 Fe4 2_555 . 11_556 56.09(3) ?
P1 Fe1 Ge2 6_555 . . 95.43(6) ?
P1 Fe1 Ge2 6_555 . 3_565 165.99(4) ?
P1 Fe1 Ge3 6_555 . . 103.55(5) ?
P1 Fe1 Ge3 6_555 . 11_556 103.55(6) ?
P1 Fe1 Fe3 6_555 . . 54.87(4) ?
P1 Fe1 Fe3 6_555 . 6_555 110.65(4) ?
P1 Fe1 Fe3 6_555 . 7_556 54.87(4) ?
P1 Fe1 Fe3 6_555 . 11_556 110.65(4) ?
P1 Fe1 Fe4 6_555 . . 56.09(4) ?
P1 Fe1 Fe4 6_555 . 11_556 56.09(5) ?
Ge2 Fe1 Ge2 . . 3_565 98.57(7) ?
Ge2 Fe1 Ge3 . . . 79.21(3) ?
Ge2 Fe1 Ge3 . . 11_556 79.21(4) ?
Ge2 Fe1 Fe3 . . . 58.67(3) ?
Ge2 Fe1 Fe3 . . 6_555 134.27(5) ?
Ge2 Fe1 Fe3 . . 7_556 58.67(3) ?
Ge2 Fe1 Fe3 . . 11_556 134.27(5) ?
Ge2 Fe1 Fe4 . . . 116.47(4) ?
Ge2 Fe1 Fe4 . . 11_556 116.47(5) ?
Ge2 Fe1 Ge3 3_565 . . 79.21(5) ?
Ge2 Fe1 Ge3 3_565 . 11_556 79.21(6) ?
Ge2 Fe1 Fe3 3_565 . . 134.27(4) ?
Ge2 Fe1 Fe3 3_565 . 6_555 58.67(4) ?
Ge2 Fe1 Fe3 3_565 . 7_556 134.27(4) ?
Ge2 Fe1 Fe3 3_565 . 11_556 58.67(4) ?
Ge2 Fe1 Fe4 3_565 . . 116.47(4) ?
Ge2 Fe1 Fe4 3_565 . 11_556 116.47(5) ?
Ge3 Fe1 Ge3 . . 11_556 146.65(8) ?
Ge3 Fe1 Fe3 . . . 58.93(4) ?
Ge3 Fe1 Fe3 . . 6_555 58.93(3) ?
Ge3 Fe1 Fe3 . . 7_556 126.47(5) ?
Ge3 Fe1 Fe3 . . 11_556 126.47(6) ?
Ge3 Fe1 Fe4 . . . 59.78(4) ?
Ge3 Fe1 Fe4 . . 11_556 153.57(7) ?
Ge3 Fe1 Fe3 11_556 . . 126.47(6) ?
Ge3 Fe1 Fe3 11_556 . 6_555 126.47(7) ?
Ge3 Fe1 Fe3 11_556 . 7_556 58.93(5) ?
Ge3 Fe1 Fe3 11_556 . 11_556 58.93(5) ?
Ge3 Fe1 Fe4 11_556 . . 153.57(7) ?
Ge3 Fe1 Fe4 11_556 . 11_556 59.78(4) ?
Fe3 Fe1 Fe3 . . 6_555 106.91(4) ?
Fe3 Fe1 Fe3 . . 7_556 70.84(5) ?
Fe3 Fe1 Fe3 . . 11_556 164.30(6) ?
Fe3 Fe1 Fe4 . . . 58.91(3) ?
Fe3 Fe1 Fe4 . . 11_556 109.26(7) ?
Fe3 Fe1 Fe3 6_555 . 7_556 164.30(6) ?
Fe3 Fe1 Fe3 6_555 . 11_556 70.84(4) ?
Fe3 Fe1 Fe4 6_555 . . 58.91(4) ?
Fe3 Fe1 Fe4 6_555 . 11_556 109.26(4) ?
Fe3 Fe1 Fe3 7_556 . 11_556 106.91(4) ?
Fe3 Fe1 Fe4 7_556 . . 109.26(7) ?
Fe3 Fe1 Fe4 7_556 . 11_556 58.91(4) ?
Fe3 Fe1 Fe4 11_556 . . 109.26(4) ?
Fe3 Fe1 Fe4 11_556 . 11_556 58.91(4) ?
Fe4 Fe1 Fe4 . . 11_556 93.79(6) ?
Fe1 Ge2 Fe1 . . 2_665 141.43(9) ?
Fe1 Ge2 Ge2 . . 4_665 109.29(6) ?
Fe1 Ge2 Ge3 . . . 51.45(2) ?
Fe1 Ge2 Ge3 . . 2_665 112.29(5) ?
Fe1 Ge2 Ge3 . . 10_666 112.29(5) ?
Fe1 Ge2 Ge3 . . 11_556 51.45(3) ?
Fe1 Ge2 Fe3 . . . 71.08(4) ?
Fe1 Ge2 Fe3 . . 4_665 133.38(4) ?
Fe1 Ge2 Fe3 . . 7_556 71.08(4) ?
Fe1 Ge2 Fe3 . . 10_666 133.38(4) ?
Fe1 Ge2 Ge2 2_665 . 4_665 109.29(7) ?
Fe1 Ge2 Ge3 2_665 . . 112.29(5) ?
Fe1 Ge2 Ge3 2_665 . 2_665 51.45(3) ?
Fe1 Ge2 Ge3 2_665 . 10_666 51.45(3) ?
Fe1 Ge2 Ge3 2_665 . 11_556 112.29(5) ?
Fe1 Ge2 Fe3 2_665 . . 133.38(4) ?
Fe1 Ge2 Fe3 2_665 . 4_665 71.08(5) ?
Fe1 Ge2 Fe3 2_665 . 7_556 133.38(4) ?
Fe1 Ge2 Fe3 2_665 . 10_666 71.08(5) ?
Ge2 Ge2 Ge3 4_665 . . 111.67(4) ?
Ge2 Ge2 Ge3 4_665 . 2_665 111.67(4) ?
Ge2 Ge2 Ge3 4_665 . 10_666 111.67(4) ?
Ge2 Ge2 Ge3 4_665 . 11_556 111.67(4) ?
Ge2 Ge2 Fe3 4_665 . . 56.71(4) ?
Ge2 Ge2 Fe3 4_665 . 4_665 56.71(4) ?
Ge2 Ge2 Fe3 4_665 . 7_556 56.71(4) ?
Ge2 Ge2 Fe3 4_665 . 10_666 56.71(4) ?
Ge3 Ge2 Ge3 . . 2_665 64.16(3) ?
Ge3 Ge2 Ge3 . . 10_666 136.66(6) ?
Ge3 Ge2 Ge3 . . 11_556 99.39(4) ?
Ge3 Ge2 Fe3 . . . 55.17(4) ?
Ge3 Ge2 Fe3 . . 4_665 89.86(3) ?
Ge3 Ge2 Fe3 . . 7_556 114.06(4) ?
Ge3 Ge2 Fe3 . . 10_666 167.57(6) ?
Ge3 Ge2 Ge3 2_665 . 10_666 99.39(4) ?
Ge3 Ge2 Ge3 2_665 . 11_556 136.66(7) ?
Ge3 Ge2 Fe3 2_665 . . 89.86(4) ?
Ge3 Ge2 Fe3 2_665 . 4_665 55.17(4) ?
Ge3 Ge2 Fe3 2_665 . 7_556 167.57(6) ?
Ge3 Ge2 Fe3 2_665 . 10_666 114.06(4) ?
Ge3 Ge2 Ge3 10_666 . 11_556 64.16(3) ?
Ge3 Ge2 Fe3 10_666 . . 167.57(6) ?
Ge3 Ge2 Fe3 10_666 . 4_665 114.06(4) ?
Ge3 Ge2 Fe3 10_666 . 7_556 89.86(3) ?
Ge3 Ge2 Fe3 10_666 . 10_666 55.17(4) ?
Ge3 Ge2 Fe3 11_556 . . 114.06(4) ?
Ge3 Ge2 Fe3 11_556 . 4_665 167.57(6) ?
Ge3 Ge2 Fe3 11_556 . 7_556 55.17(4) ?
Ge3 Ge2 Fe3 11_556 . 10_666 89.86(4) ?
Fe3 Ge2 Fe3 . . 4_665 64.76(3) ?
Fe3 Ge2 Fe3 . . 7_556 79.86(5) ?
Fe3 Ge2 Fe3 . . 10_666 113.42(6) ?
Fe3 Ge2 Fe3 4_665 . 7_556 113.42(6) ?
Fe3 Ge2 Fe3 4_665 . 10_666 79.86(5) ?
Fe3 Ge2 Fe3 7_556 . 10_666 64.76(3) ?
Fe1 Ge3 Ge2 . . . 49.34(3) ?
Fe1 Ge3 Ge2 . . 3_565 49.34(5) ?
Fe1 Ge3 Ge3 . . 11_555 163.33(7) ?
Fe1 Ge3 Fe2 . . . 145.38(7) ?
Fe1 Ge3 Fe3 . . . 69.41(6) ?
Fe1 Ge3 Fe3 . . 6_555 69.41(4) ?
Fe1 Ge3 Ge5 . . 4_565 120.61(6) ?
Fe1 Ge3 Ge5 . . 5_555 120.61(7) ?
Fe1 Ge3 Fe4 . . . 65.48(6) ?
Ge2 Ge3 Ge2 . . 3_565 71.65(4) ?
Ge2 Ge3 Ge3 . . 11_555 139.70(4) ?
Ge2 Ge3 Fe2 . . . 105.19(3) ?
Ge2 Ge3 Fe3 . . . 54.10(4) ?
Ge2 Ge3 Fe3 . . 6_555 116.20(5) ?
Ge2 Ge3 Ge5 . . 4_565 147.97(7) ?
Ge2 Ge3 Ge5 . . 5_555 80.83(3) ?
Ge2 Ge3 Fe4 . . . 99.71(5) ?
Ge2 Ge3 Ge3 3_565 . 11_555 139.70(6) ?
Ge2 Ge3 Fe2 3_565 . . 105.19(5) ?
Ge2 Ge3 Fe3 3_565 . . 116.20(6) ?
Ge2 Ge3 Fe3 3_565 . 6_555 54.10(4) ?
Ge2 Ge3 Ge5 3_565 . 4_565 80.83(6) ?
Ge2 Ge3 Ge5 3_565 . 5_555 147.97(6) ?
Ge2 Ge3 Fe4 3_565 . . 99.71(5) ?
Ge3 Ge3 Fe2 11_555 . . 51.30(3) ?
Ge3 Ge3 Fe3 11_555 . . 104.10(6) ?
Ge3 Ge3 Fe3 11_555 . 6_555 104.10(5) ?
Ge3 Ge3 Ge5 11_555 . 4_565 60.32(6) ?
Ge3 Ge3 Ge5 11_555 . 5_555 60.32(5) ?
Ge3 Ge3 Fe4 11_555 . . 97.84(6) ?
Fe2 Ge3 Fe3 . . . 118.28(4) ?
Fe2 Ge3 Fe3 . . 6_555 118.28(6) ?
Fe2 Ge3 Ge5 . . 4_565 66.16(5) ?
Fe2 Ge3 Ge5 . . 5_555 66.16(9) ?
Fe2 Ge3 Fe4 . . . 149.14(6) ?
Fe3 Ge3 Fe3 . . 6_555 122.81(6) ?
Fe3 Ge3 Ge5 . . 4_565 157.82(7) ?
Fe3 Ge3 Ge5 . . 5_555 54.22(8) ?
Fe3 Ge3 Fe4 . . . 63.81(4) ?
Fe3 Ge3 Ge5 6_555 . 4_565 54.22(5) ?
Fe3 Ge3 Ge5 6_555 . 5_555 157.82(8) ?
Fe3 Ge3 Fe4 6_555 . . 63.81(4) ?
Ge5 Ge3 Ge5 4_565 . 5_555 118.70(7) ?
Ge5 Ge3 Fe4 4_565 . . 100.82(5) ?
Ge5 Ge3 Fe4 5_555 . . 100.82(10) ?
Fe3 Ge4 Fe3 5_555 . 12_555 114.22(8) ?
Fe3 Ge4 Ge5 5_555 . 3_555 57.67(4) ?
Fe3 Ge4 Ge5 5_555 . 6_655 57.67(5) ?
Fe3 Ge4 Fe4 5_555 . 3_555 66.47(4) ?
Fe3 Ge4 Fe4 5_555 . 5_555 66.47(5) ?
Fe3 Ge4 Fe4 5_555 . 7_555 148.49(4) ?
Fe3 Ge4 Fe4 5_555 . 12_555 148.49(5) ?
Fe3 Ge4 Ge5 12_555 . 3_555 57.67(4) ?
Fe3 Ge4 Ge5 12_555 . 6_655 57.67(5) ?
Fe3 Ge4 Fe4 12_555 . 3_555 148.49(4) ?
Fe3 Ge4 Fe4 12_555 . 5_555 148.49(4) ?
Fe3 Ge4 Fe4 12_555 . 7_555 66.47(5) ?
Fe3 Ge4 Fe4 12_555 . 12_555 66.47(3) ?
Ge5 Ge4 Ge5 3_555 . 6_655 19.99(11) ?
Ge5 Ge4 Fe4 3_555 . 3_555 120.08(7) ?
Ge5 Ge4 Fe4 3_555 . 5_555 108.71(7) ?
Ge5 Ge4 Fe4 3_555 . 7_555 108.71(7) ?
Ge5 Ge4 Fe4 3_555 . 12_555 120.08(6) ?
Ge5 Ge4 Fe4 6_655 . 3_555 108.71(6) ?
Ge5 Ge4 Fe4 6_655 . 5_555 120.08(6) ?
Ge5 Ge4 Fe4 6_655 . 7_555 120.08(6) ?
Ge5 Ge4 Fe4 6_655 . 12_555 108.71(6) ?
Fe4 Ge4 Fe4 3_555 . 5_555 62.65(4) ?
Fe4 Ge4 Fe4 3_555 . 7_555 130.66(9) ?
Fe4 Ge4 Fe4 3_555 . 12_555 96.37(5) ?
Fe4 Ge4 Fe4 5_555 . 7_555 96.37(6) ?
Fe4 Ge4 Fe4 5_555 . 12_555 130.66(9) ?
Fe4 Ge4 Fe4 7_555 . 12_555 62.65(4) ?
Ge3 Fe2 Ge3 . . 2_665 85.04(4) ?
Ge3 Fe2 Ge3 . . 3_565 85.04(4) ?
Ge3 Fe2 Ge3 . . 10_665 134.07(4) ?
Ge3 Fe2 Ge3 . . 11_555 77.41(4) ?
Ge3 Fe2 Ge3 . . 12_565 134.07(3) ?
Ge3 Fe2 Ge5 . . 4_565 67.03(5) ?
Ge3 Fe2 Ge5 . . 5_555 67.03(5) ?
Ge3 Fe2 Ge5 . . 6_665 141.30(3) ?
Ge3 Fe2 Ge3 2_665 . 3_565 85.04(5) ?
Ge3 Fe2 Ge3 2_665 . 10_665 77.41(4) ?
Ge3 Fe2 Ge3 2_665 . 11_555 134.07(6) ?
Ge3 Fe2 Ge3 2_665 . 12_565 134.07(5) ?
Ge3 Fe2 Ge5 2_665 . 4_565 141.30(3) ?
Ge3 Fe2 Ge5 2_665 . 5_555 67.03(6) ?
Ge3 Fe2 Ge5 2_665 . 6_665 67.03(8) ?
Ge3 Fe2 Ge3 3_565 . 10_665 134.07(3) ?
Ge3 Fe2 Ge3 3_565 . 11_555 134.07(5) ?
Ge3 Fe2 Ge3 3_565 . 12_565 77.41(5) ?
Ge3 Fe2 Ge5 3_565 . 4_565 67.03(5) ?
Ge3 Fe2 Ge5 3_565 . 5_555 141.30(3) ?
Ge3 Fe2 Ge5 3_565 . 6_665 67.03(8) ?
Ge3 Fe2 Ge3 10_665 . 11_555 85.04(4) ?
Ge3 Fe2 Ge3 10_665 . 12_565 85.04(4) ?
Ge3 Fe2 Ge5 10_665 . 4_565 141.30(3) ?
Ge3 Fe2 Ge5 10_665 . 5_555 67.03(5) ?
Ge3 Fe2 Ge5 10_665 . 6_665 67.03(8) ?
Ge3 Fe2 Ge3 11_555 . 12_565 85.04(5) ?
Ge3 Fe2 Ge5 11_555 . 4_565 67.03(6) ?
Ge3 Fe2 Ge5 11_555 . 5_555 67.03(6) ?
Ge3 Fe2 Ge5 11_555 . 6_665 141.30(3) ?
Ge3 Fe2 Ge5 12_565 . 4_565 67.03(5) ?
Ge3 Fe2 Ge5 12_565 . 5_555 141.30(3) ?
Ge3 Fe2 Ge5 12_565 . 6_665 67.03(8) ?
Ge5 Fe2 Ge5 4_565 . 5_555 120.00(8) ?
Ge5 Fe2 Ge5 4_565 . 6_665 120.00(12) ?
Ge5 Fe2 Ge5 5_555 . 6_665 120.00(11) ?
Ge1 Fe3 P1 6_555 . 6_555 0 ?
Ge1 Fe3 Fe1 6_555 . . 53.13(4) ?
Ge1 Fe3 Fe1 6_555 . 5_555 53.13(4) ?
Ge1 Fe3 Ge2 6_555 . . 87.88(4) ?
Ge1 Fe3 Ge2 6_555 . 4_665 87.88(4) ?
Ge1 Fe3 Ge3 6_555 . . 95.94(4) ?
Ge1 Fe3 Ge3 6_555 . 5_555 95.94(4) ?
Ge1 Fe3 Ge4 6_555 . 6_555 99.49(3) ?
Ge1 Fe3 Fe3 6_555 . 4_665 137.62(5) ?
Ge1 Fe3 Ge5 6_555 . 2_665 161.99(10) ?
Ge1 Fe3 Ge5 6_555 . 5_555 161.99(6) ?
Ge1 Fe3 Fe4 6_555 . . 54.82(3) ?
Ge1 Fe3 Fe4 6_555 . 5_555 54.82(3) ?
P1 Fe3 Fe1 6_555 . . 53.13(4) ?
P1 Fe3 Fe1 6_555 . 5_555 53.13(4) ?
P1 Fe3 Ge2 6_555 . . 87.88(4) ?
P1 Fe3 Ge2 6_555 . 4_665 87.88(4) ?
P1 Fe3 Ge3 6_555 . . 95.94(4) ?
P1 Fe3 Ge3 6_555 . 5_555 95.94(4) ?
P1 Fe3 Ge4 6_555 . 6_555 99.49(3) ?
P1 Fe3 Fe3 6_555 . 4_665 137.62(5) ?
P1 Fe3 Ge5 6_555 . 2_665 161.99(10) ?
P1 Fe3 Ge5 6_555 . 5_555 161.99(6) ?
P1 Fe3 Fe4 6_555 . . 54.82(3) ?
P1 Fe3 Fe4 6_555 . 5_555 54.82(3) ?
Fe1 Fe3 Fe1 . . 5_555 99.64(5) ?
Fe1 Fe3 Ge2 . . . 50.24(4) ?
Fe1 Fe3 Ge2 . . 4_665 101.49(4) ?
Fe1 Fe3 Ge3 . . . 51.65(4) ?
Fe1 Fe3 Ge3 . . 5_555 148.90(6) ?
Fe1 Fe3 Ge4 . . 6_555 109.43(6) ?
Fe1 Fe3 Fe3 . . 4_665 106.47(5) ?
Fe1 Fe3 Ge5 . . 2_665 140.59(12) ?
Fe1 Fe3 Ge5 . . 5_555 119.00(11) ?
Fe1 Fe3 Fe4 . . . 57.06(4) ?
Fe1 Fe3 Fe4 . . 5_555 99.81(5) ?
Fe1 Fe3 Ge2 5_555 . . 101.49(5) ?
Fe1 Fe3 Ge2 5_555 . 4_665 50.24(4) ?
Fe1 Fe3 Ge3 5_555 . . 148.90(5) ?
Fe1 Fe3 Ge3 5_555 . 5_555 51.65(5) ?
Fe1 Fe3 Ge4 5_555 . 6_555 109.43(6) ?
Fe1 Fe3 Fe3 5_555 . 4_665 106.47(5) ?
Fe1 Fe3 Ge5 5_555 . 2_665 119.00(11) ?
Fe1 Fe3 Ge5 5_555 . 5_555 140.59(11) ?
Fe1 Fe3 Fe4 5_555 . . 99.81(5) ?
Fe1 Fe3 Fe4 5_555 . 5_555 57.06(4) ?
Ge2 Fe3 Ge2 . . 4_665 66.58(4) ?
Ge2 Fe3 Ge3 . . . 70.74(5) ?
Ge2 Fe3 Ge3 . . 5_555 136.96(6) ?
Ge2 Fe3 Ge4 . . 6_555 146.07(8) ?
Ge2 Fe3 Fe3 . . 4_665 57.62(3) ?
Ge2 Fe3 Ge5 . . 2_665 110.08(9) ?
Ge2 Fe3 Ge5 . . 5_555 97.85(9) ?
Ge2 Fe3 Fe4 . . . 106.40(5) ?
Ge2 Fe3 Fe4 . . 5_555 142.67(5) ?
Ge2 Fe3 Ge3 4_665 . . 136.96(6) ?
Ge2 Fe3 Ge3 4_665 . 5_555 70.74(5) ?
Ge2 Fe3 Ge4 4_665 . 6_555 146.07(8) ?
Ge2 Fe3 Fe3 4_665 . 4_665 57.62(3) ?
Ge2 Fe3 Ge5 4_665 . 2_665 97.85(5) ?
Ge2 Fe3 Ge5 4_665 . 5_555 110.08(5) ?
Ge2 Fe3 Fe4 4_665 . . 142.67(5) ?
Ge2 Fe3 Fe4 4_665 . 5_555 106.40(6) ?
Ge3 Fe3 Ge3 . . 5_555 150.19(6) ?
Ge3 Fe3 Ge4 . . 6_555 75.56(6) ?
Ge3 Fe3 Fe3 . . 4_665 94.72(4) ?
Ge3 Fe3 Ge5 . . 2_665 91.48(10) ?
Ge3 Fe3 Ge5 . . 5_555 70.24(9) ?
Ge3 Fe3 Fe4 . . . 56.64(4) ?
Ge3 Fe3 Fe4 . . 5_555 110.69(5) ?
Ge3 Fe3 Ge4 5_555 . 6_555 75.56(6) ?
Ge3 Fe3 Fe3 5_555 . 4_665 94.72(5) ?
Ge3 Fe3 Ge5 5_555 . 2_665 70.24(12) ?
Ge3 Fe3 Ge5 5_555 . 5_555 91.48(11) ?
Ge3 Fe3 Fe4 5_555 . . 110.69(5) ?
Ge3 Fe3 Fe4 5_555 . 5_555 56.64(4) ?
Ge4 Fe3 Fe3 6_555 . 4_665 122.89(5) ?
Ge4 Fe3 Ge5 6_555 . 2_665 66.51(6) ?
Ge4 Fe3 Ge5 6_555 . 5_555 66.51(7) ?
Ge4 Fe3 Fe4 6_555 . . 55.49(5) ?
Ge4 Fe3 Fe4 6_555 . 5_555 55.49(5) ?
Fe3 Fe3 Ge5 4_665 . 2_665 57.50(7) ?
Fe3 Fe3 Ge5 4_665 . 5_555 57.50(5) ?
Fe3 Fe3 Fe4 4_665 . . 151.36(6) ?
Fe3 Fe3 Fe4 4_665 . 5_555 151.36(6) ?
Ge5 Fe3 Ge5 2_665 . 5_555 21.71(14) ?
Ge5 Fe3 Fe4 2_665 . . 118.13(6) ?
Ge5 Fe3 Fe4 2_665 . 5_555 107.18(10) ?
Ge5 Fe3 Fe4 5_555 . . 107.18(6) ?
Ge5 Fe3 Fe4 5_555 . 5_555 118.13(9) ?
Fe4 Fe3 Fe4 . . 5_555 55.71(4) ?
Ge3 Ge5 Ge3 4_565 . 6_555 64.71(7) ?
Ge3 Ge5 Ge3 4_565 . 8_565 59.36(9) ?
Ge3 Ge5 Ge3 4_565 . 9_555 93.62(11) ?
Ge3 Ge5 Ge4 4_565 . 2_555 130.23(6) ?
Ge3 Ge5 Ge4 4_565 . 5_565 65.90(8) ?
Ge3 Ge5 Fe2 4_565 . 4_565 46.81(7) ?
Ge3 Ge5 Fe3 4_565 . 3_565 55.55(7) ?
Ge3 Ge5 Fe3 4_565 . 6_555 90.53(6) ?
Ge3 Ge5 Fe3 4_565 . 8_565 104.39(14) ?
Ge3 Ge5 Fe3 4_565 . 11_555 145.44(13) ?
Ge3 Ge5 Ge5 4_565 . 4_565 133.19(19) ?
Ge3 Ge5 Ge3 6_555 . 8_565 93.62(11) ?
Ge3 Ge5 Ge3 6_555 . 9_555 59.36(5) ?
Ge3 Ge5 Ge4 6_555 . 2_555 65.90(5) ?
Ge3 Ge5 Ge4 6_555 . 5_565 130.23(13) ?
Ge3 Ge5 Fe2 6_555 . 4_565 46.81(5) ?
Ge3 Ge5 Fe3 6_555 . 3_565 90.53(5) ?
Ge3 Ge5 Fe3 6_555 . 6_555 55.55(4) ?
Ge3 Ge5 Fe3 6_555 . 8_565 145.44(13) ?
Ge3 Ge5 Fe3 6_555 . 11_555 104.39(7) ?
Ge3 Ge5 Ge5 6_555 . 4_565 133.2(2) ?
Ge3 Ge5 Ge3 8_565 . 9_555 64.71(7) ?
Ge3 Ge5 Ge4 8_565 . 2_555 130.23(6) ?
Ge3 Ge5 Ge4 8_565 . 5_565 65.90(8) ?
Ge3 Ge5 Fe2 8_565 . 4_565 46.81(7) ?
Ge3 Ge5 Fe3 8_565 . 3_565 104.39(14) ?
Ge3 Ge5 Fe3 8_565 . 6_555 145.44(13) ?
Ge3 Ge5 Fe3 8_565 . 8_565 55.55(7) ?
Ge3 Ge5 Fe3 8_565 . 11_555 90.53(6) ?
Ge3 Ge5 Ge5 8_565 . 4_565 133.19(19) ?
Ge3 Ge5 Ge4 9_555 . 2_555 65.90(5) ?
Ge3 Ge5 Ge4 9_555 . 5_565 130.23(13) ?
Ge3 Ge5 Fe2 9_555 . 4_565 46.81(5) ?
Ge3 Ge5 Fe3 9_555 . 3_565 145.44(13) ?
Ge3 Ge5 Fe3 9_555 . 6_555 104.39(7) ?
Ge3 Ge5 Fe3 9_555 . 8_565 90.53(5) ?
Ge3 Ge5 Fe3 9_555 . 11_555 55.55(4) ?
Ge3 Ge5 Ge5 9_555 . 4_565 133.2(2) ?
Ge4 Ge5 Ge4 2_555 . 5_565 160.01(15) ?
Ge4 Ge5 Fe2 2_555 . 4_565 99.99(6) ?
Ge4 Ge5 Fe3 2_555 . 3_565 119.76(10) ?
Ge4 Ge5 Fe3 2_555 . 6_555 55.82(7) ?
Ge4 Ge5 Fe3 2_555 . 8_565 119.76(10) ?
Ge4 Ge5 Fe3 2_555 . 11_555 55.82(7) ?
Ge4 Ge5 Ge5 2_555 . 4_565 80.0(3) ?
Ge4 Ge5 Fe2 5_565 . 4_565 99.99(13) ?
Ge4 Ge5 Fe3 5_565 . 3_565 55.82(5) ?
Ge4 Ge5 Fe3 5_565 . 6_555 119.76(5) ?
Ge4 Ge5 Fe3 5_565 . 8_565 55.82(5) ?
Ge4 Ge5 Fe3 5_565 . 11_555 119.76(5) ?
Ge4 Ge5 Ge5 5_565 . 4_565 80.0(2) ?
Fe2 Ge5 Fe3 4_565 . 3_565 100.86(12) ?
Fe2 Ge5 Fe3 4_565 . 6_555 100.86(7) ?
Fe2 Ge5 Fe3 4_565 . 8_565 100.86(12) ?
Fe2 Ge5 Fe3 4_565 . 11_555 100.86(7) ?
Fe2 Ge5 Ge5 4_565 . 4_565 180 ?
Fe3 Ge5 Fe3 3_565 . 6_555 64.99(4) ?
Fe3 Ge5 Fe3 3_565 . 8_565 110.60(9) ?
Fe3 Ge5 Fe3 3_565 . 11_555 158.29(17) ?
Fe3 Ge5 Ge5 3_565 . 4_565 79.14(12) ?
Fe3 Ge5 Fe3 6_555 . 8_565 158.29(17) ?
Fe3 Ge5 Fe3 6_555 . 11_555 110.60(15) ?
Fe3 Ge5 Ge5 6_555 . 4_565 79.14(19) ?
Fe3 Ge5 Fe3 8_565 . 11_555 64.99(4) ?
Fe3 Ge5 Ge5 8_565 . 4_565 79.14(12) ?
Fe3 Ge5 Ge5 11_555 . 4_565 79.14(19) ?
Ge0 Fe4 Ge1 . . 2_555 97.46(7) ?
Ge0 Fe4 Ge1 . . 6_555 97.46(7) ?
Ge0 Fe4 P1 . . 2_555 97.46(7) ?
Ge0 Fe4 P1 . . 6_555 97.46(7) ?
Ge0 Fe4 Fe1 . . . 146.36(9) ?
Ge0 Fe4 Ge3 . . . 158.91(10) ?
Ge0 Fe4 Ge4 . . 2_555 85.87(7) ?
Ge0 Fe4 Ge4 . . 6_555 85.87(8) ?
Ge0 Fe4 Fe3 . . . 122.48(5) ?
Ge0 Fe4 Fe3 . . 6_555 122.48(3) ?
Ge0 Fe4 Fe4 . . 5_555 60.88(4) ?
Ge0 Fe4 Fe4 . . 6_555 60.88(3) ?
Ge1 Fe4 Ge1 2_555 . 6_555 70.82(4) ?
Ge1 Fe4 P1 2_555 . 2_555 0 ?
Ge1 Fe4 P1 2_555 . 6_555 70.82(4) ?
Ge1 Fe4 Fe1 2_555 . . 56.37(3) ?
Ge1 Fe4 Ge3 2_555 . . 99.70(5) ?
Ge1 Fe4 Ge4 2_555 . 2_555 103.29(4) ?
Ge1 Fe4 Ge4 2_555 . 6_555 173.52(5) ?
Ge1 Fe4 Fe3 2_555 . . 115.61(5) ?
Ge1 Fe4 Fe3 2_555 . 6_555 56.96(3) ?
Ge1 Fe4 Fe4 2_555 . 5_555 118.22(6) ?
Ge1 Fe4 Fe4 2_555 . 6_555 57.94(3) ?
Ge1 Fe4 P1 6_555 . 2_555 70.82(4) ?
Ge1 Fe4 P1 6_555 . 6_555 0 ?
Ge1 Fe4 Fe1 6_555 . . 56.37(4) ?
Ge1 Fe4 Ge3 6_555 . . 99.70(4) ?
Ge1 Fe4 Ge4 6_555 . 2_555 173.52(7) ?
Ge1 Fe4 Ge4 6_555 . 6_555 103.29(5) ?
Ge1 Fe4 Fe3 6_555 . . 56.96(3) ?
Ge1 Fe4 Fe3 6_555 . 6_555 115.61(6) ?
Ge1 Fe4 Fe4 6_555 . 5_555 57.94(4) ?
Ge1 Fe4 Fe4 6_555 . 6_555 118.22(5) ?
P1 Fe4 P1 2_555 . 6_555 70.82(4) ?
P1 Fe4 Fe1 2_555 . . 56.37(3) ?
P1 Fe4 Ge3 2_555 . . 99.70(5) ?
P1 Fe4 Ge4 2_555 . 2_555 103.29(4) ?
P1 Fe4 Ge4 2_555 . 6_555 173.52(5) ?
P1 Fe4 Fe3 2_555 . . 115.61(5) ?
P1 Fe4 Fe3 2_555 . 6_555 56.96(3) ?
P1 Fe4 Fe4 2_555 . 5_555 118.22(6) ?
P1 Fe4 Fe4 2_555 . 6_555 57.94(3) ?
P1 Fe4 Fe1 6_555 . . 56.37(4) ?
P1 Fe4 Ge3 6_555 . . 99.70(4) ?
P1 Fe4 Ge4 6_555 . 2_555 173.52(7) ?
P1 Fe4 Ge4 6_555 . 6_555 103.29(5) ?
P1 Fe4 Fe3 6_555 . . 56.96(3) ?
P1 Fe4 Fe3 6_555 . 6_555 115.61(6) ?
P1 Fe4 Fe4 6_555 . 5_555 57.94(4) ?
P1 Fe4 Fe4 6_555 . 6_555 118.22(5) ?
Fe1 Fe4 Ge3 . . . 54.74(4) ?
Fe1 Fe4 Ge4 . . 2_555 118.34(7) ?
Fe1 Fe4 Ge4 . . 6_555 118.34(4) ?
Fe1 Fe4 Fe3 . . . 64.03(4) ?
Fe1 Fe4 Fe3 . . 6_555 64.03(5) ?
Fe1 Fe4 Fe4 . . 5_555 109.98(6) ?
Fe1 Fe4 Fe4 . . 6_555 109.98(5) ?
Ge3 Fe4 Ge4 . . 2_555 78.33(6) ?
Ge3 Fe4 Ge4 . . 6_555 78.33(5) ?
Ge3 Fe4 Fe3 . . . 59.54(4) ?
Ge3 Fe4 Fe3 . . 6_555 59.54(4) ?
Ge3 Fe4 Fe4 . . 5_555 119.69(4) ?
Ge3 Fe4 Fe4 . . 6_555 119.69(6) ?
Ge4 Fe4 Ge4 2_555 . 6_555 82.44(6) ?
Ge4 Fe4 Fe3 2_555 . . 125.60(5) ?
Ge4 Fe4 Fe3 2_555 . 6_555 58.03(5) ?
Ge4 Fe4 Fe4 2_555 . 5_555 128.42(7) ?
Ge4 Fe4 Fe4 2_555 . 6_555 58.68(4) ?
Ge4 Fe4 Fe3 6_555 . . 58.03(4) ?
Ge4 Fe4 Fe3 6_555 . 6_555 125.60(7) ?
Ge4 Fe4 Fe4 6_555 . 5_555 58.68(6) ?
Ge4 Fe4 Fe4 6_555 . 6_555 128.42(6) ?
Fe3 Fe4 Fe3 . . 6_555 115.01(5) ?
Fe3 Fe4 Fe4 . . 5_555 62.14(4) ?
Fe3 Fe4 Fe4 . . 6_555 173.55(7) ?
Fe3 Fe4 Fe4 6_555 . 5_555 173.55(7) ?
Fe3 Fe4 Fe4 6_555 . 6_555 62.14(4) ?
Fe4 Fe4 Fe4 5_555 . 6_555 120.00(5) ?
Ge0 Fe5 Ge0 . . 7_556 180 ?
Ge0 Fe5 Ge1 . . . 90 ?
Ge0 Fe5 Ge1 . . 2_555 90 ?
Ge0 Fe5 Ge1 . . 3_555 90 ?
Ge0 Fe5 Ge1 . . 4_555 90 ?
Ge0 Fe5 Ge1 . . 5_555 90 ?
Ge0 Fe5 Ge1 . . 6_555 90 ?
Ge0 Fe5 P1 . . . 90 ?
Ge0 Fe5 P1 . . 2_555 90 ?
Ge0 Fe5 P1 . . 3_555 90 ?
Ge0 Fe5 P1 . . 4_555 90 ?
Ge0 Fe5 P1 . . 5_555 90 ?
Ge0 Fe5 P1 . . 6_555 90 ?
Ge0 Fe5 Ge1 7_556 . . 90 ?
Ge0 Fe5 Ge1 7_556 . 2_555 90 ?
Ge0 Fe5 Ge1 7_556 . 3_555 90 ?
Ge0 Fe5 Ge1 7_556 . 4_555 90 ?
Ge0 Fe5 Ge1 7_556 . 5_555 90 ?
Ge0 Fe5 Ge1 7_556 . 6_555 90 ?
Ge0 Fe5 P1 7_556 . . 90 ?
Ge0 Fe5 P1 7_556 . 2_555 90 ?
Ge0 Fe5 P1 7_556 . 3_555 90 ?
Ge0 Fe5 P1 7_556 . 4_555 90 ?
Ge0 Fe5 P1 7_556 . 5_555 90 ?
Ge0 Fe5 P1 7_556 . 6_555 90 ?
Ge1 Fe5 Ge1 . . 2_555 120.0000(5) ?
Ge1 Fe5 Ge1 . . 3_555 120.0000(6) ?
Ge1 Fe5 Ge1 . . 4_555 180 ?
Ge1 Fe5 Ge1 . . 5_555 60.0000(5) ?
Ge1 Fe5 Ge1 . . 6_555 60.0000(6) ?
Ge1 Fe5 P1 . . . 0 ?
Ge1 Fe5 P1 . . 2_555 120.0000(5) ?
Ge1 Fe5 P1 . . 3_555 120.0000(6) ?
Ge1 Fe5 P1 . . 4_555 180 ?
Ge1 Fe5 P1 . . 5_555 60.0000(5) ?
Ge1 Fe5 P1 . . 6_555 60.0000(6) ?
Ge1 Fe5 Ge1 2_555 . 3_555 120.0000(6) ?
Ge1 Fe5 Ge1 2_555 . 4_555 60.0000(5) ?
Ge1 Fe5 Ge1 2_555 . 5_555 180 ?
Ge1 Fe5 Ge1 2_555 . 6_555 60.0000(6) ?
Ge1 Fe5 P1 2_555 . . 120.0000(5) ?
Ge1 Fe5 P1 2_555 . 2_555 0 ?
Ge1 Fe5 P1 2_555 . 3_555 120.0000(6) ?
Ge1 Fe5 P1 2_555 . 4_555 60.0000(5) ?
Ge1 Fe5 P1 2_555 . 5_555 180 ?
Ge1 Fe5 P1 2_555 . 6_555 60.0000(6) ?
Ge1 Fe5 Ge1 3_555 . 4_555 60.0000(6) ?
Ge1 Fe5 Ge1 3_555 . 5_555 60.0000(6) ?
Ge1 Fe5 Ge1 3_555 . 6_555 180 ?
Ge1 Fe5 P1 3_555 . . 120.0000(6) ?
Ge1 Fe5 P1 3_555 . 2_555 120.0000(6) ?
Ge1 Fe5 P1 3_555 . 3_555 0 ?
Ge1 Fe5 P1 3_555 . 4_555 60.0000(6) ?
Ge1 Fe5 P1 3_555 . 5_555 60.0000(6) ?
Ge1 Fe5 P1 3_555 . 6_555 180 ?
Ge1 Fe5 Ge1 4_555 . 5_555 120.0000(5) ?
Ge1 Fe5 Ge1 4_555 . 6_555 120.0000(6) ?
Ge1 Fe5 P1 4_555 . . 180 ?
Ge1 Fe5 P1 4_555 . 2_555 60.0000(5) ?
Ge1 Fe5 P1 4_555 . 3_555 60.0000(6) ?
Ge1 Fe5 P1 4_555 . 4_555 0 ?
Ge1 Fe5 P1 4_555 . 5_555 120.0000(5) ?
Ge1 Fe5 P1 4_555 . 6_555 120.0000(6) ?
Ge1 Fe5 Ge1 5_555 . 6_555 120.0000(6) ?
Ge1 Fe5 P1 5_555 . . 60.0000(5) ?
Ge1 Fe5 P1 5_555 . 2_555 180 ?
Ge1 Fe5 P1 5_555 . 3_555 60.0000(6) ?
Ge1 Fe5 P1 5_555 . 4_555 120.0000(5) ?
Ge1 Fe5 P1 5_555 . 5_555 0 ?
Ge1 Fe5 P1 5_555 . 6_555 120.0000(6) ?
Ge1 Fe5 P1 6_555 . . 60.0000(6) ?
Ge1 Fe5 P1 6_555 . 2_555 60.0000(6) ?
Ge1 Fe5 P1 6_555 . 3_555 180 ?
Ge1 Fe5 P1 6_555 . 4_555 120.0000(6) ?
Ge1 Fe5 P1 6_555 . 5_555 120.0000(6) ?
Ge1 Fe5 P1 6_555 . 6_555 0 ?
P1 Fe5 P1 . . 2_555 120.0000(5) ?
P1 Fe5 P1 . . 3_555 120.0000(6) ?
P1 Fe5 P1 . . 4_555 180 ?
P1 Fe5 P1 . . 5_555 60.0000(5) ?
P1 Fe5 P1 . . 6_555 60.0000(6) ?
P1 Fe5 P1 2_555 . 3_555 120.0000(6) ?
P1 Fe5 P1 2_555 . 4_555 60.0000(5) ?
P1 Fe5 P1 2_555 . 5_555 180 ?
P1 Fe5 P1 2_555 . 6_555 60.0000(6) ?
P1 Fe5 P1 3_555 . 4_555 60.0000(6) ?
P1 Fe5 P1 3_555 . 5_555 60.0000(6) ?
P1 Fe5 P1 3_555 . 6_555 180 ?
P1 Fe5 P1 4_555 . 5_555 120.0000(5) ?
P1 Fe5 P1 4_555 . 6_555 120.0000(6) ?
P1 Fe5 P1 5_555 . 6_555 120.0000(6) ?
loop_
_geom_bond_atom_site_label_1
_geom_bond_atom_site_label_2
_geom_bond_site_symmetry_1
_geom_bond_site_symmetry_2
_geom_bond_distance
_geom_bond_publ_flag
Ge0 Ge0 . 7_555 2.436(5) ?
Ge0 Fe4 . . 2.5998(13) ?
Ge0 Fe4 . 2_555 2.5998(13) ?
Ge0 Fe4 . 3_555 2.5998(15) ?
Ge0 Fe4 . 4_555 2.5998(13) ?
Ge0 Fe4 . 5_555 2.5998(13) ?
Ge0 Fe4 . 6_555 2.5998(15) ?
Ge0 Fe5 . . 2.534(3) ?
Ge1 Ge1 . 5_555 2.76228(6) ?
Ge1 Ge1 . 6_555 2.76228(4) ?
Ge1 P1 . . 0 ?
Ge1 P1 . 5_555 2.76228(6) ?
Ge1 P1 . 6_555 2.76228(4) ?
Ge1 Fe1 . 3_555 2.3912(12) ?
Ge1 Fe1 . 5_555 2.3912(13) ?
Ge1 Fe3 . 5_555 2.4445(12) ?
Ge1 Fe3 . 12_556 2.4445(12) ?
Ge1 Fe4 . 3_555 2.3835(12) ?
Ge1 Fe4 . 5_555 2.3835(14) ?
Ge1 Fe4 . 7_556 2.3835(12) ?
Ge1 Fe4 . 12_556 2.3835(12) ?
Ge1 Fe5 . . 2.76228(4) ?
P1 P1 . 5_555 2.76228(6) ?
P1 P1 . 6_555 2.76228(4) ?
P1 Fe1 . 3_555 2.3912(12) ?
P1 Fe1 . 5_555 2.3912(13) ?
P1 Fe3 . 5_555 2.4445(12) ?
P1 Fe3 . 12_556 2.4445(12) ?
P1 Fe4 . 3_555 2.3835(12) ?
P1 Fe4 . 5_555 2.3835(14) ?
P1 Fe4 . 7_556 2.3835(12) ?
P1 Fe4 . 12_556 2.3835(12) ?
P1 Fe5 . . 2.76228(4) ?
Fe1 Ge2 . . 2.3103(11) ?
Fe1 Ge2 . 3_565 2.310(2) ?
Fe1 Ge3 . . 2.3817(13) ?
Fe1 Ge3 . 11_556 2.3817(13) ?
Fe1 Fe3 . . 2.8429(16) ?
Fe1 Fe3 . 6_555 2.8429(16) ?
Fe1 Fe3 . 7_556 2.8429(16) ?
Fe1 Fe3 . 11_556 2.8429(16) ?
Fe1 Fe4 . . 2.6540(16) ?
Fe1 Fe4 . 11_556 2.6540(16) ?
Ge2 Ge2 . 4_665 2.8180(19) ?
Ge2 Ge3 . . 2.9917(12) ?
Ge2 Ge3 . 2_665 2.9917(15) ?
Ge2 Ge3 . 10_666 2.9917(12) ?
Ge2 Ge3 . 11_556 2.9917(15) ?
Ge2 Fe3 . . 2.5671(14) ?
Ge2 Fe3 . 4_665 2.5671(14) ?
Ge2 Fe3 . 7_556 2.5671(14) ?
Ge2 Fe3 . 10_666 2.5671(14) ?
Ge3 Ge3 . 11_555 2.9400(18) ?
Ge3 Fe2 . . 2.3509(12) ?
Ge3 Fe3 . . 2.6013(18) ?
Ge3 Fe3 . 6_555 2.6013(14) ?
Ge3 Ge5 . 4_565 2.969(4) ?
Ge3 Ge5 . 5_555 2.969(3) ?
Ge3 Fe4 . . 2.5206(16) ?
Ge4 Fe3 . 5_555 2.5056(15) ?
Ge4 Fe3 . 12_555 2.5056(15) ?
Ge4 Ge5 . 3_555 2.778(5) ?
Ge4 Ge5 . 6_655 2.778(6) ?
Ge4 Fe4 . 3_555 2.4338(14) ?
Ge4 Fe4 . 5_555 2.4337(16) ?
Ge4 Fe4 . 7_555 2.4338(14) ?
Ge4 Fe4 . 12_555 2.4337(13) ?
Fe2 Ge5 . 4_565 2.949(4) ?
Fe2 Ge5 . 5_555 2.949(5) ?
Fe2 Ge5 . 6_665 2.949(4) ?
Fe3 Fe3 . 4_665 2.7496(10) ?
Fe3 Ge5 . 2_665 2.5591(15) ?
Fe3 Ge5 . 5_555 2.559(2) ?
Fe3 Fe4 . . 2.7079(10) ?
Fe3 Fe4 . 5_555 2.7079(14) ?
Ge5 Ge5 . 4_565 0.964(5) ?
Fe4 Fe4 . 5_555 2.531(2) ?
Fe4 Fe4 . 6_555 2.5306(13) ?
loop_
_geom_hbond_atom_site_label_D
_geom_hbond_atom_site_label_H
_geom_hbond_atom_site_label_A
_geom_hbond_site_symmetry_D
_geom_hbond_site_symmetry_H
_geom_hbond_site_symmetry_A
_geom_hbond_distance_DH
_geom_hbond_distance_HA
_geom_hbond_distance_DA
_geom_hbond_angle_DHA
_geom_hbond_publ_flag
? ? ? ? ? ? ? ? ? ? ?
loop_
_geom_torsion_atom_site_label_1
_geom_torsion_atom_site_label_2
_geom_torsion_atom_site_label_3
_geom_torsion_atom_site_label_4
_geom_torsion_site_symmetry_1
_geom_torsion_site_symmetry_2
_geom_torsion_site_symmetry_3
_geom_torsion_site_symmetry_4
_geom_torsion
_geom_torsion_publ_flag
? ? ? ? ? ? ? ? ? ?
loop_
_pd_proc_point_id
_pd_proc_2theta_corrected
_pd_proc_d_spacing
_pd_proc_intensity_net
_pd_calc_intensity_net
_pd_proc_ls_weight
1 6.0000 14.790978 4362.00 3907.28 326.00
2 6.0500 14.668851 4212.00 3902.41 319.00
3 6.1000 14.548727 4232.00 3897.49 318.00
4 6.1500 14.430556 4302.00 3892.51 319.00
5 6.2000 14.314295 4144.00 3887.48 312.00
6 6.2500 14.199891 4326.00 3882.41 317.00
7 6.3000 14.087306 4174.00 3877.28 311.00
8 6.3500 13.976495 4056.00 3872.11 305.00
9 6.4000 13.867415 4351.00 3866.89 315.00
10 6.4500 13.760029 4240.00 3861.63 309.00
11 6.5000 13.654295 3985.00 3856.32 299.00
12 6.5500 13.550175 4112.00 3850.97 302.00
13 6.6000 13.447636 3927.00 3845.57 294.00
14 6.6500 13.346637 4054.00 3840.14 297.00
15 6.7000 13.247148 4367.00 3834.66 308.00
16 6.7500 13.149133 4094.00 3829.15 297.00
17 6.8000 13.052560 3975.00 3823.59 291.00
18 6.8500 12.957398 3847.00 3818.00 285.00
19 6.9000 12.863616 4030.00 3812.37 291.00
20 6.9500 12.771185 4023.00 3806.71 289.00
21 7.0000 12.680075 3572.00 3801.01 272.00
22 7.0500 12.590257 3899.00 3795.27 283.00
23 7.1000 12.501706 3826.00 3789.50 279.00
24 7.1500 12.414393 3930.00 3783.70 282.00
25 7.2000 12.328294 3647.00 3777.87 270.00
26 7.2500 12.243384 3667.00 3772.01 270.00
27 7.3000 12.159636 3759.00 3766.12 272.00
28 7.3500 12.077032 3769.00 3760.20 272.00
29 7.4000 11.995542 3446.00 3754.25 259.00
30 7.4500 11.915148 3597.00 3748.27 263.00
31 7.5000 11.835826 3696.00 3742.27 266.00
32 7.5500 11.757554 3644.00 3736.24 263.00
33 7.6000 11.680315 3712.00 3730.19 264.00
34 7.6500 11.604085 3715.00 3724.11 264.00
35 7.7000 11.528847 3840.00 3718.01 267.00
36 7.7500 11.454578 3771.00 3711.88 264.00
37 7.8000 11.381264 3719.00 3705.74 261.00
38 7.8500 11.308885 3598.00 3699.57 256.00
39 7.9000 11.237422 3474.00 3693.39 250.00
40 7.9500 11.166860 3681.00 3687.19 257.00
41 8.0000 11.097178 3908.00 3681.00 263.00
42 8.0500 11.028363 3721.00 3674.94 256.00
43 8.1000 10.960400 3653.00 3669.43 253.00
44 8.1500 10.893271 3661.00 3665.85 252.00
45 8.2000 10.826962 3632.00 3667.99 250.00
46 8.2500 10.761456 3471.00 3684.58 244.00
47 8.3000 10.696739 3596.00 3731.89 247.00
48 8.3500 10.632798 3831.00 3833.59 254.00
49 8.4000 10.569622 3980.00 4012.99 258.00
50 8.4500 10.507193 4741.00 4275.81 281.00
51 8.5000 10.445498 4928.00 4590.75 285.00
52 8.5500 10.384524 5162.00 4884.44 291.00
53 8.6000 10.324261 5139.00 5064.62 289.00
54 8.6500 10.264696 4900.00 5065.14 282.00
55 8.7000 10.205816 4935.00 4883.42 282.00
56 8.7500 10.147610 4616.00 4582.02 271.00
57 8.8000 10.090065 3957.00 4252.92 250.00
58 8.8500 10.033172 3547.00 3972.00 236.00
59 8.9000 9.976918 3602.00 3773.68 237.00
60 8.9500 9.921294 3499.00 3654.31 233.00
61 9.0000 9.866288 3405.00 3591.17 229.00
62 9.0500 9.811890 3308.00 3560.26 225.00
63 9.1000 9.758091 3185.00 3544.68 220.00
64 9.1500 9.704881 3186.00 3535.27 219.00
65 9.2000 9.652249 3222.00 3527.98 220.00
66 9.2500 9.600187 3262.00 3521.30 220.00
67 9.3000 9.548686 3408.00 3514.78 225.00
68 9.3500 9.497736 3545.00 3508.30 228.00
69 9.4000 9.447329 3476.00 3501.82 225.00
70 9.4500 9.397455 3400.00 3495.34 222.00
71 9.5000 9.348107 3417.00 3488.86 222.00
72 9.5500 9.299276 3403.00 3482.39 221.00
73 9.6000 9.250956 3341.00 3475.91 218.00
74 9.6500 9.203135 3272.00 3469.44 215.00
75 9.7000 9.155809 3449.00 3462.97 220.00
76 9.7500 9.108969 3492.00 3456.50 221.00
77 9.8000 9.062607 3391.00 3450.03 217.00
78 9.8500 9.016716 3536.00 3443.57 221.00
79 9.9000 8.971291 3495.00 3437.11 219.00
80 9.9500 8.926321 3359.00 3430.66 214.00
81 10.0000 8.881802 3193.00 3424.22 208.00
82 10.0500 8.837727 3181.00 3417.77 207.00
83 10.1000 8.794087 3358.00 3411.34 212.00
84 10.1500 8.750879 3427.00 3404.91 213.00
85 10.2000 8.708096 3187.00 3398.49 205.00
86 10.2500 8.665730 3272.00 3392.08 207.00
87 10.3000 8.623775 3329.00 3385.67 208.00
88 10.3500 8.582227 3333.00 3379.28 207.00
89 10.4000 8.541080 3442.00 3372.89 210.00
90 10.4500 8.500325 3314.00 3366.51 206.00
91 10.5000 8.459960 3246.00 3360.15 203.00
92 10.5500 8.419978 3262.00 3353.79 203.00
93 10.6000 8.380373 3244.00 3347.44 201.00
94 10.6500 8.341142 3213.00 3341.11 200.00
95 10.7000 8.302277 3380.00 3334.78 204.00
96 10.7500 8.263774 3365.00 3328.47 203.00
97 10.8000 8.225628 3353.00 3322.17 202.00
98 10.8500 8.187835 3146.00 3315.88 195.00
99 10.9000 8.150389 3197.00 3309.61 196.00
100 10.9500 8.113285 3213.00 3303.35 196.00
101 11.0000 8.076519 3273.00 3297.10 197.00
102 11.0500 8.040086 3338.00 3290.87 199.00
103 11.1000 8.003982 3116.00 3284.65 191.00
104 11.1500 7.968203 2988.00 3278.45 187.00
105 11.2000 7.932743 3215.00 3272.30 193.00
106 11.2500 7.897598 3537.00 3266.29 202.00
107 11.3000 7.862766 2872.00 3260.83 182.00
108 11.3500 7.828240 2818.00 3257.34 179.00
109 11.4000 7.794019 3094.00 3259.90 187.00
110 11.4500 7.760097 3134.00 3278.49 188.00
111 11.5000 7.726470 3340.00 3333.20 194.00
112 11.5500 7.693134 3502.00 3456.06 198.00
113 11.6000 7.660087 3936.00 3684.20 209.00
114 11.6500 7.627324 4273.00 4038.72 217.00
115 11.7000 7.594841 4849.00 4494.71 231.00
116 11.7500 7.562635 5405.00 4963.15 243.00
117 11.8000 7.530702 5555.00 5309.94 245.00
118 11.8500 7.499040 5497.00 5414.88 243.00
119 11.9000 7.467644 5261.00 5237.17 237.00
120 11.9500 7.436512 4539.00 4839.41 220.00
121 12.0000 7.405638 3920.00 4351.14 204.00
122 12.0500 7.375022 3633.00 3900.39 196.00
123 12.1000 7.344660 3422.00 3561.98 189.00
124 12.1500 7.314548 3231.00 3348.19 183.00
125 12.2000 7.284682 3051.00 3231.83 178.00
126 12.2500 7.255062 3089.00 3175.64 178.00
127 12.3000 7.225682 2965.00 3150.05 174.00
128 12.3500 7.196541 2941.00 3137.54 173.00
129 12.4000 7.167635 3009.00 3129.82 174.00
130 12.4500 7.138963 2792.00 3123.60 167.00
131 12.5000 7.110519 2904.00 3117.81 170.00
132 12.5500 7.082303 3188.00 3112.12 178.00
133 12.6000 7.054311 3013.00 3106.49 173.00
134 12.6500 7.026542 3096.00 3100.87 174.00
135 12.7000 6.998991 2928.00 3095.28 169.00
136 12.7500 6.971656 3103.00 3089.72 174.00
137 12.8000 6.944536 3039.00 3084.18 171.00
138 12.8500 6.917627 2951.00 3078.66 168.00
139 12.9000 6.890927 2775.00 3073.17 163.00
140 12.9500 6.864434 2941.00 3067.71 167.00
141 13.0000 6.838145 3034.00 3062.27 169.00
142 13.0500 6.812058 3002.00 3056.85 168.00
143 13.1000 6.786170 3000.00 3051.46 167.00
144 13.1500 6.760480 3176.00 3046.09 172.00
145 13.2000 6.734985 2958.00 3040.76 165.00
146 13.2500 6.709683 2921.00 3035.44 164.00
147 13.3000 6.684571 2825.00 3030.15 161.00
148 13.3500 6.659648 2979.00 3024.89 165.00
149 13.4000 6.634912 3013.00 3019.66 165.00
150 13.4500 6.610359 3187.00 3014.45 169.00
151 13.5000 6.585989 3123.00 3009.27 167.00
152 13.5500 6.561799 3136.00 3004.12 167.00
153 13.6000 6.537787 2917.00 2998.99 161.00
154 13.6500 6.513953 2880.00 2993.89 159.00
155 13.7000 6.490292 2877.00 2988.82 159.00
156 13.7500 6.466803 3050.00 2983.77 163.00
157 13.8000 6.443486 3077.00 2978.76 163.00
158 13.8500 6.420337 3042.00 2973.77 162.00
159 13.9000 6.397355 3056.00 2968.80 162.00
160 13.9500 6.374538 2777.00 2963.87 154.00
161 14.0000 6.351885 2837.00 2958.97 155.00
162 14.0500 6.329393 2898.00 2954.10 156.00
163 14.1000 6.307061 2966.00 2949.28 158.00
164 14.1500 6.284887 2866.00 2944.57 155.00
165 14.2000 6.262870 2710.00 2940.18 150.00
166 14.2500 6.241008 2842.00 2936.63 153.00
167 14.3000 6.219299 3076.00 2935.13 159.00
168 14.3500 6.197742 2909.00 2937.94 154.00
169 14.4000 6.176335 2858.00 2948.52 153.00
170 14.4500 6.155076 2934.00 2971.40 154.00
171 14.5000 6.133965 3103.00 3012.48 158.00
172 14.5500 6.112998 3100.00 3082.37 158.00
173 14.6000 6.092176 3309.00 3205.11 162.00
174 14.6500 6.071497 3776.00 3429.85 173.00
175 14.7000 6.050958 4207.00 3832.70 182.00
176 14.7500 6.030560 4765.00 4489.29 194.00
177 14.8000 6.010299 6005.00 5412.03 217.00
178 14.8500 5.990175 7394.00 6482.38 240.00
179 14.9000 5.970187 8349.00 7441.03 254.00
180 14.9500 5.950332 8585.00 7978.50 257.00
181 15.0000 5.930611 7921.00 7892.56 247.00
182 15.0500 5.911020 6934.00 7205.66 230.00
183 15.1000 5.891560 5858.00 6151.91 211.00
184 15.1500 5.872230 5214.00 5045.20 198.00
185 15.2000 5.853025 4109.00 4128.44 176.00
186 15.2500 5.833948 3408.00 3500.09 160.00
187 15.3000 5.814996 3011.00 3135.33 150.00
188 15.3500 5.796167 2793.00 2953.16 144.00
189 15.4000 5.777462 2739.00 2873.40 142.00
190 15.4500 5.758877 2609.00 2841.53 138.00
191 15.5000 5.740413 2525.00 2828.64 136.00
192 15.5500 5.722068 2750.00 2822.19 141.00
193 15.6000 5.703841 2825.00 2817.65 143.00
194 15.6500 5.685730 2953.00 2813.60 146.00
195 15.7000 5.667736 2691.00 2809.68 139.00
196 15.7500 5.649856 2712.00 2805.82 139.00
197 15.8000 5.632090 2811.00 2801.99 141.00
198 15.8500 5.614436 2609.00 2798.19 135.00
199 15.9000 5.596893 2755.00 2794.42 139.00
200 15.9500 5.579461 2698.00 2790.68 137.00
201 16.0000 5.562138 2757.00 2786.97 138.00
202 16.0500 5.544924 2837.00 2783.30 140.00
203 16.1000 5.527816 2715.00 2779.65 137.00
204 16.1500 5.510815 2688.00 2776.04 136.00
205 16.2000 5.493919 2758.00 2772.45 137.00
206 16.2500 5.477128 2930.00 2768.90 141.00
207 16.3000 5.460440 2796.00 2765.38 137.00
208 16.3500 5.443854 2685.00 2761.89 134.00
209 16.4000 5.427371 2711.00 2758.43 134.00
210 16.4500 5.410986 2713.00 2755.00 134.00
211 16.5000 5.394702 2682.00 2751.60 133.00
212 16.5500 5.378518 2619.00 2748.23 131.00
213 16.6000 5.362430 2630.00 2744.90 131.00
214 16.6500 5.346439 2774.00 2741.61 134.00
215 16.7000 5.330545 2675.00 2738.41 132.00
216 16.7500 5.314746 2775.00 2735.48 134.00
217 16.8000 5.299041 2910.00 2733.47 137.00
218 16.8500 5.283430 2699.00 2734.27 131.00
219 16.9000 5.267912 2704.00 2742.64 131.00
220 16.9500 5.252485 2888.00 2768.32 135.00
221 17.0000 5.237149 3108.00 2827.41 140.00
222 17.0500 5.221905 3166.00 2939.51 141.00
223 17.1000 5.206749 3322.00 3117.76 144.00
224 17.1500 5.191682 3391.00 3353.33 145.00
225 17.2000 5.176702 3826.00 3604.17 154.00
226 17.2500 5.161810 4101.00 3801.75 159.00
227 17.3000 5.147006 4202.00 3879.46 161.00
228 17.3500 5.132286 4072.00 3807.97 158.00
229 17.4000 5.117651 3698.00 3612.32 150.00
230 17.4500 5.103099 3365.00 3357.30 143.00
231 17.5000 5.088632 3181.00 3112.63 138.00
232 17.5500 5.074248 2943.00 2923.07 133.00
233 17.6000 5.059946 2860.00 2800.01 131.00
234 17.6500 5.045725 2826.00 2731.48 130.00
235 17.7000 5.031584 2778.00 2697.94 128.00
236 17.7500 5.017524 2743.00 2682.81 127.00
237 17.8000 5.003543 2700.00 2675.83 126.00
238 17.8500 4.989640 2794.00 2671.92 128.00
239 17.9000 4.975816 2744.00 2669.03 126.00
240 17.9500 4.962069 2756.00 2666.43 126.00
241 18.0000 4.948398 2545.00 2663.93 121.00
242 18.0500 4.934804 2639.00 2661.48 123.00
243 18.1000 4.921285 2607.00 2659.05 122.00
244 18.1500 4.907841 2639.00 2656.66 122.00
245 18.2000 4.894470 2644.00 2654.30 122.00
246 18.2500 4.881175 2626.00 2651.96 121.00
247 18.3000 4.867951 2631.00 2649.66 121.00
248 18.3500 4.854800 2755.00 2647.38 124.00
249 18.4000 4.841720 2519.00 2645.14 118.00
250 18.4500 4.828712 2607.00 2642.93 120.00
251 18.5000 4.815775 2745.00 2640.81 123.00
252 18.5500 4.802908 2677.00 2638.97 121.00
253 18.6000 4.790110 2678.00 2638.13 121.00
254 18.6500 4.777381 2547.00 2640.69 118.00
255 18.7000 4.764719 2633.00 2653.16 119.00
256 18.7500 4.752127 2783.00 2690.52 122.00
257 18.8000 4.739602 2930.00 2780.94 125.00
258 18.8500 4.727143 3226.00 2965.71 131.00
259 18.9000 4.714751 3511.00 3286.53 137.00
260 18.9500 4.702424 4073.00 3756.06 147.00
261 19.0000 4.690162 4688.00 4323.67 157.00
262 19.0500 4.677965 5199.00 4864.24 165.00
263 19.1000 4.665832 5524.00 5215.10 170.00
264 19.1500 4.653763 5540.00 5253.37 170.00
265 19.2000 4.641757 5155.00 4964.34 163.00
266 19.2500 4.629814 4479.00 4450.14 152.00
267 19.3000 4.617933 3900.00 3871.59 141.00
268 19.3500 4.606113 3329.00 3368.02 130.00
269 19.4000 4.594355 2953.00 3008.01 123.00
270 19.4500 4.582657 2832.00 2790.96 120.00
271 19.5000 4.571020 2895.00 2678.84 121.00
272 19.5500 4.559443 2719.00 2628.47 117.00
273 19.6000 4.547925 2583.00 2608.30 114.00
274 19.6500 4.536466 2503.00 2600.60 112.00
275 19.7000 4.525065 2648.00 2597.31 115.00
276 19.7500 4.513722 2622.00 2595.38 114.00
277 19.8000 4.502438 2677.00 2593.82 115.00
278 19.8500 4.491210 2664.00 2592.37 114.00
279 19.9000 4.480039 2735.00 2590.96 115.00
280 19.9500 4.468923 2666.00 2589.57 114.00
281 20.0000 4.457864 2603.00 2588.22 112.00
282 20.0500 4.446861 2688.00 2586.89 114.00
283 20.1000 4.435912 2728.00 2585.59 114.00
284 20.1500 4.425018 2513.00 2584.31 109.00
285 20.2000 4.414178 2631.00 2583.06 112.00
286 20.2500 4.403392 2546.00 2581.84 110.00
287 20.3000 4.392660 2507.00 2580.64 109.00
288 20.3500 4.381980 2624.00 2579.47 111.00
289 20.4000 4.371354 2533.00 2578.32 109.00
290 20.4500 4.360779 2770.00 2577.20 113.00
291 20.5000 4.350256 2616.00 2576.12 110.00
292 20.5500 4.339785 2702.00 2575.11 112.00
293 20.6000 4.329365 2630.00 2574.24 110.00
294 20.6500 4.318995 2761.00 2573.70 112.00
295 20.7000 4.308676 2554.00 2573.78 108.00
296 20.7500 4.298407 2698.00 2574.91 111.00
297 20.8000 4.288188 2658.00 2577.44 110.00
298 20.8500 4.278018 2706.00 2581.40 110.00
299 20.9000 4.267897 2592.00 2586.09 108.00
300 20.9500 4.257824 2665.00 2590.19 109.00
301 21.0000 4.247800 2726.00 2592.12 110.00
302 21.0500 4.237823 2748.00 2590.90 110.00
303 21.1000 4.227894 2612.00 2586.68 107.00
304 21.1500 4.218013 2563.00 2580.63 106.00
305 21.2000 4.208178 2718.00 2574.35 109.00
306 21.2500 4.198390 2705.00 2569.03 108.00
307 21.3000 4.188648 2538.00 2565.18 105.00
308 21.3500 4.178951 2504.00 2562.67 104.00
309 21.4000 4.169301 2764.00 2561.10 109.00
310 21.4500 4.159696 2695.00 2560.07 107.00
311 21.5000 4.150136 2594.00 2559.31 105.00
312 21.5500 4.140620 2712.00 2558.67 107.00
313 21.6000 4.131148 2624.00 2558.08 105.00
314 21.6500 4.121721 2445.00 2557.52 101.00
315 21.7000 4.112337 2618.00 2556.99 105.00
316 21.7500 4.102997 2611.00 2556.48 104.00
317 21.8000 4.093700 2548.00 2556.00 103.00
318 21.8500 4.084445 2489.00 2555.53 102.00
319 21.9000 4.075234 2713.00 2555.09 106.00
320 21.9500 4.066064 2583.00 2554.67 103.00
321 22.0000 4.056937 2529.00 2554.27 102.00
322 22.0500 4.047851 2571.00 2553.89 102.00
323 22.1000 4.038806 2539.00 2553.53 102.00
324 22.1500 4.029803 2535.00 2553.19 101.00
325 22.2000 4.020840 2592.00 2552.87 102.00
326 22.2500 4.011918 2520.00 2552.58 101.00
327 22.3000 4.003036 2712.00 2552.30 104.00
328 22.3500 3.994194 2571.00 2552.05 101.00
329 22.4000 3.985392 2654.00 2551.82 103.00
330 22.4500 3.976629 2604.00 2551.62 101.00
331 22.5000 3.967906 2565.00 2551.48 100.00
332 22.5500 3.959221 2667.00 2551.46 102.00
333 22.6000 3.950575 2578.00 2551.68 100.00
334 22.6500 3.941968 2456.00 2552.38 98.00
335 22.7000 3.933398 2591.00 2553.80 100.00
336 22.7500 3.924867 2487.00 2556.12 98.00
337 22.8000 3.916374 2445.00 2559.25 97.00
338 22.8500 3.907917 2470.00 2562.64 97.00
339 22.9000 3.899499 2412.00 2565.36 96.00
340 22.9500 3.891116 2544.00 2566.52 98.00
341 23.0000 3.882771 2736.00 2565.69 102.00
342 23.0500 3.874462 2578.00 2563.17 99.00
343 23.1000 3.866189 2556.00 2559.81 98.00
344 23.1500 3.857952 2588.00 2556.57 98.00
345 23.2000 3.849751 2500.00 2554.12 96.00
346 23.2500 3.841586 2548.00 2552.80 97.00
347 23.3000 3.833456 2524.00 2553.11 97.00
348 23.3500 3.825361 2579.00 2556.67 97.00
349 23.4000 3.817300 2595.00 2568.20 98.00
350 23.4500 3.809275 2748.00 2598.22 100.00
351 23.5000 3.801284 2910.00 2665.28 103.00
352 23.5500 3.793326 3005.00 2794.29 104.00
353 23.6000 3.785403 3144.00 3006.23 107.00
354 23.6500 3.777514 3666.00 3299.52 115.00
355 23.7000 3.769658 4056.00 3632.33 121.00
356 23.7500 3.761835 4374.00 3923.38 125.00
357 23.8000 3.754046 4523.00 4081.18 127.00
358 23.8500 3.746289 4211.00 4049.90 122.00
359 23.9000 3.738566 4143.00 3841.04 121.00
360 23.9500 3.730875 3623.00 3526.74 113.00
361 24.0000 3.723216 3091.00 3199.94 104.00
362 24.0500 3.715589 2917.00 2931.02 101.00
363 24.1000 3.707993 2732.00 2747.69 97.00
364 24.1500 3.700430 2640.00 2641.98 96.00
365 24.2000 3.692898 2615.00 2589.90 95.00
366 24.2500 3.685398 2631.00 2567.93 95.00
367 24.3000 3.677928 2455.00 2560.09 92.00
368 24.3500 3.670490 2525.00 2557.87 93.00
369 24.4000 3.663082 2523.00 2557.58 93.00
370 24.4500 3.655704 2633.00 2557.87 94.00
371 24.5000 3.648358 2505.00 2558.32 92.00
372 24.5500 3.641041 2609.00 2558.81 94.00
373 24.6000 3.633754 2639.00 2559.32 94.00
374 24.6500 3.626497 2441.00 2559.85 90.00
375 24.7000 3.619270 2610.00 2560.41 93.00
376 24.7500 3.612072 2486.00 2561.05 91.00
377 24.8000 3.604903 2503.00 2562.04 91.00
378 24.8500 3.597763 2528.00 2564.31 91.00
379 24.9000 3.590653 2523.00 2570.76 91.00
380 24.9500 3.583570 2690.00 2589.12 94.00
381 25.0000 3.576517 2730.00 2636.43 94.00
382 25.0500 3.569492 2911.00 2743.46 97.00
383 25.1000 3.562495 3195.00 2953.05 101.00
384 25.1500 3.555527 3523.00 3304.69 106.00
385 25.2000 3.548586 4145.00 3803.23 115.00
386 25.2500 3.541673 4837.00 4386.15 124.00
387 25.3000 3.534787 5462.00 4918.83 132.00
388 25.3500 3.527929 5659.00 5238.97 134.00
389 25.4000 3.521098 5584.00 5236.26 133.00
390 25.4500 3.514294 5194.00 4916.23 128.00
391 25.5000 3.507517 4609.00 4401.81 120.00
392 25.5500 3.500767 3899.00 3873.32 110.00
393 25.6000 3.494043 3421.00 3492.23 103.00
394 25.6500 3.487346 3389.00 3353.34 102.00
395 25.7000 3.480675 3702.00 3473.61 107.00
396 25.7500 3.474030 4168.00 3798.07 113.00
397 25.8000 3.467412 4672.00 4210.73 120.00
398 25.8500 3.460819 4934.00 4560.30 123.00
399 25.9000 3.454251 5126.00 4710.62 125.00
400 25.9500 3.447709 4676.00 4598.57 119.00
401 26.0000 3.441193 4460.00 4261.52 116.00
402 26.0500 3.434702 3788.00 3811.30 107.00
403 26.1000 3.428236 3440.00 3372.79 101.00
404 26.1500 3.421795 3033.00 3029.24 95.00
405 26.2000 3.415379 2826.00 2804.73 92.00
406 26.2500 3.408987 2569.00 2680.24 87.00
407 26.3000 3.402620 2635.00 2621.25 88.00
408 26.3500 3.396277 2584.00 2597.44 87.00
409 26.4000 3.389959 2449.00 2589.50 85.00
410 26.4500 3.383664 2544.00 2587.67 86.00
411 26.5000 3.377394 2614.00 2587.85 87.00
412 26.5500 3.371148 2621.00 2588.62 87.00
413 26.6000 3.364924 2721.00 2589.53 89.00
414 26.6500 3.358725 2525.00 2590.48 85.00
415 26.7000 3.352549 2631.00 2591.44 87.00
416 26.7500 3.346397 2568.00 2592.41 86.00
417 26.8000 3.340268 2485.00 2593.39 84.00
418 26.8500 3.334161 2557.00 2594.38 85.00
419 26.9000 3.328078 2483.00 2595.37 84.00
420 26.9500 3.322017 2482.00 2596.37 84.00
421 27.0000 3.315979 2450.00 2597.38 83.00
422 27.0500 3.309964 2599.00 2598.40 85.00
423 27.1000 3.303971 2485.00 2599.42 83.00
424 27.1500 3.298000 2618.00 2600.45 85.00
425 27.2000 3.292052 2579.00 2601.48 84.00
426 27.2500 3.286125 2585.00 2602.52 84.00
427 27.3000 3.280221 2531.00 2603.57 83.00
428 27.3500 3.274338 2506.00 2604.62 83.00
429 27.4000 3.268477 2499.00 2605.68 82.00
430 27.4500 3.262637 2551.00 2606.75 83.00
431 27.5000 3.256819 2645.00 2607.82 85.00
432 27.5500 3.251023 2435.00 2608.90 81.00
433 27.6000 3.245247 2606.00 2610.00 84.00
434 27.6500 3.239493 2540.00 2611.16 82.00
435 27.7000 3.233759 2468.00 2612.59 81.00
436 27.7500 3.228047 2513.00 2614.90 82.00
437 27.8000 3.222355 2473.00 2619.93 81.00
438 27.8500 3.216684 2582.00 2632.01 82.00
439 27.9000 3.211033 2656.00 2659.80 84.00
440 27.9500 3.205403 2760.00 2716.98 85.00
441 28.0000 3.199793 2799.00 2819.34 85.00
442 28.0500 3.194204 3085.00 2976.11 90.00
443 28.1000 3.188634 3269.00 3177.44 92.00
444 28.1500 3.183084 3420.00 3387.01 94.00
445 28.2000 3.177555 3680.00 3550.28 97.00
446 28.2500 3.172045 3755.00 3621.43 98.00
447 28.3000 3.166555 3804.00 3597.56 99.00
448 28.3500 3.161084 3649.00 3541.17 96.00
449 28.4000 3.155633 3635.00 3577.57 96.00
450 28.4500 3.150201 3949.00 3864.65 100.00
451 28.5000 3.144788 4818.00 4535.86 110.00
452 28.5500 3.139395 5857.00 5621.50 121.00
453 28.6000 3.134021 7571.00 6976.59 138.00
454 28.6500 3.128665 8729.00 8272.83 148.00
455 28.7000 3.123329 9922.00 9102.84 157.00
456 28.7500 3.118011 9526.00 9169.08 154.00
457 28.8000 3.112712 8723.00 8442.60 147.00
458 28.8500 3.107432 7142.00 7175.61 133.00
459 28.9000 3.102170 5670.00 5758.13 118.00
460 28.9500 3.096926 4381.00 4525.77 104.00
461 29.0000 3.091701 3441.00 3643.95 92.00
462 29.0500 3.086494 3058.00 3111.56 86.00
463 29.1000 3.081304 2689.00 2837.00 81.00
464 29.1500 3.076133 2660.00 2715.57 80.00
465 29.2000 3.070980 2702.00 2670.15 80.00
466 29.2500 3.065845 2633.00 2657.47 79.00
467 29.3000 3.060727 2641.00 2658.22 79.00
468 29.3500 3.055627 2569.00 2665.60 78.00
469 29.4000 3.050545 2659.00 2677.49 79.00
470 29.4500 3.045480 2697.00 2692.18 80.00
471 29.5000 3.040432 2689.00 2706.74 79.00
472 29.5500 3.035402 2847.00 2717.30 82.00
473 29.6000 3.030389 2705.00 2720.70 79.00
474 29.6500 3.025393 2649.00 2716.14 78.00
475 29.7000 3.020414 2648.00 2705.66 78.00
476 29.7500 3.015452 2751.00 2692.96 80.00
477 29.8000 3.010507 2653.00 2681.57 78.00
478 29.8500 3.005578 2681.00 2673.47 78.00
479 29.9000 3.000666 2617.00 2668.93 77.00
480 29.9500 2.995771 2590.00 2667.21 77.00
481 30.0000 2.990893 2520.00 2667.27 76.00
482 30.0500 2.986031 2545.00 2668.27 76.00
483 30.1000 2.981184 2488.00 2669.67 75.00
484 30.1500 2.976355 2677.00 2671.12 78.00
485 30.2000 2.971542 2727.00 2672.42 78.00
486 30.2500 2.966744 2787.00 2673.50 79.00
487 30.3000 2.961963 2631.00 2674.38 76.00
488 30.3500 2.957198 2670.00 2675.17 77.00
489 30.4000 2.952448 2708.00 2675.97 77.00
490 30.4500 2.947715 2648.00 2676.86 76.00
491 30.5000 2.942997 2675.00 2677.84 77.00
492 30.5500 2.938295 2735.00 2678.92 77.00
493 30.6000 2.933608 2601.00 2680.04 75.00
494 30.6500 2.928936 2613.00 2681.20 75.00
495 30.7000 2.924280 2626.00 2682.37 75.00
496 30.7500 2.919640 2592.00 2683.54 75.00
497 30.8000 2.915015 2594.00 2684.73 75.00
498 30.8500 2.910405 2511.00 2685.95 73.00
499 30.9000 2.905810 2455.00 2687.38 72.00
500 30.9500 2.901230 2472.00 2689.54 72.00
501 31.0000 2.896665 2459.00 2694.03 72.00
502 31.0500 2.892115 2554.00 2704.91 73.00
503 31.1000 2.887580 2564.00 2730.80 73.00
504 31.1500 2.883059 2641.00 2786.48 74.00
505 31.2000 2.878553 2814.00 2891.29 77.00
506 31.2500 2.874062 2928.00 3060.97 78.00
507 31.3000 2.869586 3197.00 3293.27 81.00
508 31.3500 2.865123 3489.00 3554.74 85.00
509 31.4000 2.860675 3681.00 3782.09 87.00
510 31.4500 2.856242 3870.00 3904.83 89.00
511 31.5000 2.851823 3769.00 3880.45 88.00
512 31.5500 2.847418 3547.00 3718.11 85.00
513 31.6000 2.843027 3404.00 3473.42 83.00
514 31.6500 2.838650 3088.00 3218.14 79.00
515 31.7000 2.834287 2879.00 3007.07 76.00
516 31.7500 2.829938 2655.00 2862.36 73.00
517 31.8000 2.825603 2567.00 2778.45 72.00
518 31.8500 2.821282 2561.00 2737.04 72.00
519 31.9000 2.816974 2576.00 2719.79 72.00
520 31.9500 2.812680 2610.00 2714.14 72.00
521 32.0000 2.808400 2460.00 2713.61 70.00
522 32.0500 2.804134 2564.00 2716.31 71.00
523 32.1000 2.799881 2566.00 2724.35 71.00
524 32.1500 2.795640 2759.00 2744.96 74.00
525 32.2000 2.791414 2671.00 2792.74 72.00
526 32.2500 2.787201 2660.00 2890.34 72.00
527 32.3000 2.783001 2976.00 3062.96 76.00
528 32.3500 2.778814 3234.00 3323.58 79.00
529 32.4000 2.774641 3670.00 3652.89 84.00
530 32.4500 2.770480 3961.00 3988.36 87.00
531 32.5000 2.766332 4212.00 4237.78 90.00
532 32.5500 2.762198 4245.00 4319.01 90.00
533 32.6000 2.758076 4160.00 4203.42 89.00
534 32.6500 2.753966 3821.00 3932.31 85.00
535 32.7000 2.749870 3492.00 3593.49 81.00
536 32.7500 2.745787 3125.00 3275.99 77.00
537 32.8000 2.741716 3017.00 3034.54 75.00
538 32.8500 2.737658 2780.00 2881.72 72.00
539 32.9000 2.733611 2667.00 2802.78 71.00
540 32.9500 2.729578 2630.00 2776.59 70.00
541 33.0000 2.725557 2638.00 2789.32 70.00
542 33.0500 2.721549 2592.00 2837.51 69.00
543 33.1000 2.717552 2678.00 2922.35 70.00
544 33.1500 2.713567 2892.00 3039.67 73.00
545 33.2000 2.709596 3056.00 3171.74 75.00
546 33.2500 2.705636 3144.00 3287.43 76.00
547 33.3000 2.701688 3200.00 3354.57 76.00
548 33.3500 2.697753 3171.00 3358.94 76.00
549 33.4000 2.693829 3176.00 3317.58 76.00
550 33.4500 2.689917 3203.00 3275.48 76.00
551 33.5000 2.686017 3184.00 3284.72 76.00
552 33.5500 2.682128 3161.00 3376.25 75.00
553 33.6000 2.678252 3530.00 3539.04 79.00
554 33.6500 2.674387 3775.00 3718.98 82.00
555 33.7000 2.670534 3864.00 3841.83 83.00
556 33.7500 2.666693 3885.00 3849.70 83.00
557 33.8000 2.662863 3693.00 3730.52 81.00
558 33.8500 2.659044 3538.00 3521.31 79.00
559 33.9000 2.655237 3330.00 3284.82 76.00
560 33.9500 2.651441 3019.00 3077.04 72.00
561 34.0000 2.647657 2716.00 2926.75 69.00
562 34.0500 2.643884 2676.00 2835.10 68.00
563 34.1000 2.640122 2689.00 2787.46 68.00
564 34.1500 2.636371 2681.00 2766.35 68.00
565 34.2000 2.632632 2645.00 2758.57 67.00
566 34.2500 2.628904 2588.00 2756.45 66.00
567 34.3000 2.625187 2564.00 2756.40 66.00
568 34.3500 2.621480 2624.00 2757.09 67.00
569 34.4000 2.617785 2651.00 2758.44 67.00
570 34.4500 2.614100 2629.00 2761.80 67.00
571 34.5000 2.610427 2731.00 2772.32 68.00
572 34.5500 2.606764 2857.00 2805.22 69.00
573 34.6000 2.603112 2921.00 2898.45 70.00
574 34.6500 2.599470 3161.00 3130.84 73.00
575 34.7000 2.595840 3533.00 3635.00 77.00
576 34.7500 2.592220 4734.00 4579.72 89.00
577 34.8000 2.588610 6204.00 6095.47 101.00
578 34.8500 2.585011 8758.00 8147.41 120.00
579 34.9000 2.581423 10969.00 10426.40 134.00
580 34.9500 2.577845 12922.00 12371.90 146.00
581 35.0000 2.574277 13955.00 13377.20 151.00
582 35.0500 2.570720 13543.00 13092.30 149.00
583 35.1000 2.567173 11667.00 11619.00 138.00
584 35.1500 2.563636 9460.00 9452.92 124.00
585 35.2000 2.560109 6996.00 7216.55 106.00
586 35.2500 2.556593 5131.00 5376.82 91.00
587 35.3000 2.553087 3734.00 4117.42 77.00
588 35.3500 2.549591 3153.00 3385.58 71.00
589 35.4000 2.546105 2912.00 3021.21 68.00
590 35.4500 2.542629 2801.00 2865.70 66.00
591 35.5000 2.539163 2760.00 2809.98 66.00
592 35.5500 2.535707 2666.00 2796.01 65.00
593 35.6000 2.532260 2635.00 2801.41 64.00
594 35.6500 2.528823 2789.00 2826.97 66.00
595 35.7000 2.525397 2785.00 2892.03 66.00
596 35.7500 2.521980 2928.00 3032.95 67.00
597 35.8000 2.518573 3307.00 3295.53 71.00
598 35.8500 2.515175 3748.00 3712.87 76.00
599 35.9000 2.511787 4243.00 4270.73 81.00
600 35.9500 2.508409 4918.00 4880.34 87.00
601 36.0000 2.505040 5346.00 5387.97 90.00
602 36.0500 2.501681 5565.00 5633.71 92.00
603 36.1000 2.498331 5539.00 5531.71 92.00
604 36.1500 2.494991 5069.00 5118.33 88.00
605 36.2000 2.491660 4451.00 4531.25 82.00
606 36.2500 2.488338 3779.00 3936.13 75.00
607 36.3000 2.485026 3223.00 3453.14 69.00
608 36.3500 2.481723 2874.00 3126.07 65.00
609 36.4000 2.478429 2724.00 2937.79 64.00
610 36.4500 2.475145 2656.00 2844.80 63.00
611 36.5000 2.471869 2616.00 2805.66 62.00
612 36.5500 2.468603 2603.00 2793.48 62.00
613 36.6000 2.465346 2623.00 2797.31 62.00
614 36.6500 2.462098 2647.00 2821.61 62.00
615 36.7000 2.458859 2837.00 2888.86 64.00
616 36.7500 2.455628 2906.00 3044.51 65.00
617 36.8000 2.452407 3269.00 3355.77 69.00
618 36.8500 2.449195 3811.00 3891.55 74.00
619 36.9000 2.445992 4584.00 4676.42 81.00
620 36.9500 2.442797 5691.00 5635.77 90.00
621 37.0000 2.439611 6638.00 6574.09 98.00
622 37.0500 2.436434 7214.00 7226.33 102.00
623 37.1000 2.433266 7410.00 7376.14 103.00
624 37.1500 2.430106 6898.00 6970.95 99.00
625 37.2000 2.426955 6031.00 6151.57 92.00
626 37.2500 2.423813 4961.00 5173.91 84.00
627 37.3000 2.420680 3890.00 4281.15 74.00
628 37.3500 2.417554 3307.00 3612.68 68.00
629 37.4000 2.414437 3001.00 3190.36 65.00
630 37.4500 2.411329 2717.00 2961.80 61.00
631 37.5000 2.408229 2707.00 2854.98 61.00
632 37.5500 2.405138 2640.00 2811.71 60.00
633 37.6000 2.402055 2537.00 2796.61 59.00
634 37.6500 2.398981 2644.00 2792.66 60.00
635 37.7000 2.395914 2702.00 2794.38 61.00
636 37.7500 2.392857 2827.00 2805.06 62.00
637 37.8000 2.389807 2820.00 2841.23 62.00
638 37.8500 2.386765 2940.00 2946.50 63.00
639 37.9000 2.383732 3308.00 3213.76 67.00
640 37.9500 2.380707 3842.00 3803.78 72.00
641 38.0000 2.377690 5056.00 4930.28 82.00
642 38.0500 2.374681 7162.00 6775.68 98.00
643 38.1000 2.371680 9795.00 9336.73 115.00
644 38.1500 2.368687 12967.00 12273.30 132.00
645 38.2000 2.365702 15448.00 14904.50 144.00
646 38.2500 2.362725 17065.00 16438.30 151.00
647 38.3000 2.359756 16686.00 16350.40 149.00
648 38.3500 2.356795 14796.00 14673.30 140.00
649 38.4000 2.353842 12062.00 11978.50 126.00
650 38.4500 2.350896 8828.00 9068.66 108.00
651 38.5000 2.347959 6334.00 6604.85 91.00
652 38.5500 2.345029 4782.00 4899.20 79.00
653 38.6000 2.342107 3811.00 3937.95 70.00
654 38.6500 2.339192 3541.00 3529.00 67.00
655 38.7000 2.336286 3492.00 3444.19 67.00
656 38.7500 2.333387 3530.00 3497.11 67.00
657 38.8000 2.330495 3735.00 3568.88 69.00
658 38.8500 2.327612 3829.00 3614.97 70.00
659 38.9000 2.324735 3994.00 3665.89 71.00
660 38.9500 2.321867 4183.00 3813.07 73.00
661 39.0000 2.319006 4481.00 4168.27 75.00
662 39.0500 2.316152 4960.00 4798.01 79.00
663 39.1000 2.313306 5884.00 5656.24 86.00
664 39.1500 2.310467 6932.00 6557.60 93.00
665 39.2000 2.307636 7624.00 7229.29 98.00
666 39.2500 2.304812 7810.00 7432.38 99.00
667 39.3000 2.301995 7345.00 7089.19 95.00
668 39.3500 2.299186 6599.00 6333.91 90.00
669 39.4000 2.296384 5887.00 5462.48 85.00
670 39.4500 2.293589 5362.00 4835.91 81.00
671 39.5000 2.290801 5333.00 4816.05 81.00
672 39.5500 2.288021 6554.00 5748.69 89.00
673 39.6000 2.285248 8637.00 7921.55 103.00
674 39.6500 2.282481 12438.00 11415.30 123.00
675 39.7000 2.279722 16580.00 15880.00 142.00
676 39.7500 2.276971 21198.00 20412.40 160.00
677 39.8000 2.274226 24244.00 23757.60 171.00
678 39.8500 2.271488 25057.00 24836.00 174.00
679 39.9000 2.268757 23299.00 23313.90 167.00
680 39.9500 2.266034 19321.00 19805.30 152.00
681 40.0000 2.263317 15261.00 15542.00 135.00
682 40.0500 2.260607 11365.00 11746.50 116.00
683 40.1000 2.257904 8905.00 9117.53 102.00
684 40.1500 2.255208 7536.00 7694.54 94.00
685 40.2000 2.252519 6807.00 7066.20 89.00
686 40.2500 2.249837 6455.00 6711.12 87.00
687 40.3000 2.247161 6192.00 6264.54 85.00
688 40.3500 2.244493 5785.00 5615.40 82.00
689 40.4000 2.241830 5287.00 4849.86 78.00
690 40.4500 2.239175 4723.00 4123.39 74.00
691 40.5000 2.236527 4240.00 3552.80 70.00
692 40.5500 2.233885 3962.00 3173.94 67.00
693 40.6000 2.231250 3676.00 2958.27 65.00
694 40.6500 2.228621 3413.00 2852.08 62.00
695 40.7000 2.225999 3057.00 2806.49 59.00
696 40.7500 2.223384 2868.00 2789.22 57.00
697 40.8000 2.220775 2772.00 2783.27 56.00
698 40.8500 2.218173 2628.00 2781.23 54.00
699 40.9000 2.215577 2688.00 2780.36 55.00
700 40.9500 2.212987 2674.00 2779.77 54.00
701 41.0000 2.210405 2645.00 2779.25 54.00
702 41.0500 2.207828 2671.00 2778.73 54.00
703 41.1000 2.205258 2588.00 2778.21 53.00
704 41.1500 2.202695 2621.00 2777.67 54.00
705 41.2000 2.200137 2624.00 2777.12 53.00
706 41.2500 2.197587 2653.00 2776.57 54.00
707 41.3000 2.195042 2613.00 2776.00 53.00
708 41.3500 2.192504 2627.00 2775.42 53.00
709 41.4000 2.189972 2591.00 2774.84 53.00
710 41.4500 2.187446 2621.00 2774.24 53.00
711 41.5000 2.184927 2689.00 2773.63 54.00
712 41.5500 2.182414 2618.00 2773.02 53.00
713 41.6000 2.179907 2640.00 2772.41 53.00
714 41.6500 2.177406 2711.00 2771.82 54.00
715 41.7000 2.174911 2693.00 2771.34 53.00
716 41.7500 2.172422 2739.00 2771.16 54.00
717 41.8000 2.169940 2677.00 2771.68 53.00
718 41.8500 2.167464 2629.00 2773.59 52.00
719 41.9000 2.164993 2596.00 2777.75 52.00
720 41.9500 2.162529 2608.00 2784.86 52.00
721 42.0000 2.160070 2698.00 2794.81 53.00
722 42.0500 2.157618 2674.00 2806.12 53.00
723 42.1000 2.155172 2667.00 2815.97 52.00
724 42.1500 2.152731 2690.00 2821.30 53.00
725 42.2000 2.150297 2710.00 2820.60 53.00
726 42.2500 2.147868 2768.00 2815.90 53.00
727 42.3000 2.145446 2840.00 2814.99 54.00
728 42.3500 2.143029 2878.00 2835.39 54.00
729 42.4000 2.140618 3022.00 2911.45 55.00
730 42.4500 2.138213 3338.00 3102.66 58.00
731 42.5000 2.135813 3700.00 3493.33 61.00
732 42.5500 2.133420 4371.00 4168.56 66.00
733 42.6000 2.131032 5387.00 5159.18 74.00
734 42.6500 2.128650 6676.00 6377.02 82.00
735 42.7000 2.126274 7748.00 7594.62 88.00
736 42.7500 2.123903 8622.00 8521.75 93.00
737 42.8000 2.121538 9116.00 8971.68 95.00
738 42.8500 2.119179 9031.00 9022.80 95.00
739 42.9000 2.116825 9079.00 9049.25 95.00
740 42.9500 2.114477 9543.00 9554.20 97.00
741 43.0000 2.112135 11206.00 10868.80 105.00
742 43.0500 2.109798 13109.00 12885.40 114.00
743 43.1000 2.107467 15072.00 15008.30 122.00
744 43.1500 2.105141 16440.00 16399.50 128.00
745 43.2000 2.102821 16327.00 16403.40 127.00
746 43.2500 2.100506 14744.00 14893.80 121.00
747 43.3000 2.098197 12213.00 12315.00 110.00
748 43.3500 2.095894 9408.00 9410.34 96.00
749 43.4000 2.093595 6755.00 6847.06 82.00
750 43.4500 2.091302 4889.00 4974.38 69.00
751 43.5000 2.089015 3814.00 3813.96 61.00
752 43.5500 2.086733 3156.00 3196.09 56.00
753 43.6000 2.084456 2978.00 2911.91 54.00
754 43.6500 2.082185 2979.00 2801.93 54.00
755 43.7000 2.079919 2843.00 2777.97 53.00
756 43.7500 2.077658 2907.00 2813.89 53.00
757 43.8000 2.075403 2994.00 2933.60 54.00
758 43.8500 2.073153 3293.00 3204.08 57.00
759 43.9000 2.070908 3789.00 3720.91 61.00
760 43.9500 2.068669 4564.00 4567.96 67.00
761 44.0000 2.066435 5794.00 5746.61 76.00
762 44.0500 2.064205 7170.00 7107.36 84.00
763 44.1000 2.061982 8379.00 8344.59 91.00
764 44.1500 2.059763 9256.00 9094.35 96.00
765 44.2000 2.057549 9364.00 9105.35 96.00
766 44.2500 2.055341 8703.00 8373.35 93.00
767 44.3000 2.053138 7624.00 7143.71 87.00
768 44.3500 2.050940 6473.00 5779.35 80.00
769 44.4000 2.048747 5348.00 4590.37 73.00
770 44.4500 2.046559 4466.00 3732.90 66.00
771 44.5000 2.044376 3942.00 3214.78 62.00
772 44.5500 2.042198 3602.00 2970.18 60.00
773 44.6000 2.040025 3443.00 2946.31 58.00
774 44.6500 2.037857 3613.00 3168.99 60.00
775 44.7000 2.035694 4226.00 3778.75 65.00
776 44.7500 2.033536 5588.00 5022.18 74.00
777 44.8000 2.031383 7522.00 7164.62 86.00
778 44.8500 2.029235 10810.00 10307.70 103.00
779 44.9000 2.027092 14719.00 14169.30 121.00
780 44.9500 2.024954 18329.00 17994.20 135.00
781 45.0000 2.022821 21387.00 20746.60 146.00
782 45.0500 2.020692 22080.00 21583.60 148.00
783 45.1000 2.018569 21054.00 20365.80 145.00
784 45.1500 2.016450 18987.00 17911.80 137.00
785 45.2000 2.014336 17026.00 15882.10 130.00
786 45.2500 2.012227 17395.00 16425.10 131.00
787 45.3000 2.010123 22206.00 21709.10 149.00
788 45.3500 2.008024 33706.00 33273.90 183.00
789 45.4000 2.005929 52180.00 51092.90 228.00
790 45.4500 2.003839 74308.00 72686.20 272.00
791 45.5000 2.001753 95155.00 93117.20 308.00
792 45.5500 1.999673 109872.00 106557.00 331.00
793 45.6000 1.997597 112384.00 109022.00 335.00
794 45.6500 1.995526 102729.00 100623.00 320.00
795 45.7000 1.993459 87195.00 85640.90 295.00
796 45.7500 1.991398 69947.00 70240.80 264.00
797 45.8000 1.989340 58278.00 59311.70 241.00
798 45.8500 1.987288 53743.00 54417.80 231.00
799 45.9000 1.985240 53900.00 53792.70 232.00
800 45.9500 1.983196 55083.00 53964.30 234.00
801 46.0000 1.981158 52705.00 51822.50 229.00
802 46.0500 1.979123 46471.00 46029.80 215.00
803 46.1000 1.977094 37482.00 37258.00 193.00
804 46.1500 1.975069 27464.00 27412.00 165.00
805 46.2000 1.973048 18406.00 18475.00 135.00
806 46.2500 1.971032 11518.00 11664.60 107.00
807 46.3000 1.969020 7204.00 7222.85 84.00
808 46.3500 1.967013 4815.00 4718.16 69.00
809 46.4000 1.965011 3770.00 3491.79 61.00
810 46.4500 1.963012 3298.00 2975.66 57.00
811 46.5000 1.961018 3011.00 2809.41 54.00
812 46.5500 1.959029 3015.00 2820.16 54.00
813 46.6000 1.957044 3130.00 2956.97 55.00
814 46.6500 1.955063 3297.00 3226.27 57.00
815 46.7000 1.953087 3641.00 3637.59 60.00
816 46.7500 1.951115 4292.00 4159.72 65.00
817 46.8000 1.949148 4566.00 4699.13 67.00
818 46.8500 1.947185 4993.00 5119.62 70.00
819 46.9000 1.945226 5284.00 5304.88 72.00
820 46.9500 1.943271 5240.00 5235.11 72.00
821 47.0000 1.941321 5135.00 5030.60 71.00
822 47.0500 1.939375 4972.00 4931.94 70.00
823 47.1000 1.937434 5295.00 5217.93 72.00
824 47.1500 1.935496 6213.00 6086.40 78.00
825 47.2000 1.933563 7651.00 7534.74 87.00
826 47.2500 1.931634 9310.00 9293.73 96.00
827 47.3000 1.929709 10919.00 10875.00 104.00
828 47.3500 1.927789 11943.00 11755.90 109.00
829 47.4000 1.925872 11774.00 11625.30 108.00
830 47.4500 1.923960 10495.00 10539.90 102.00
831 47.5000 1.922052 8522.00 8881.54 92.00
832 47.5500 1.920148 6911.00 7142.69 83.00
833 47.6000 1.918248 5435.00 5694.25 73.00
834 47.6500 1.916352 4491.00 4673.97 67.00
835 47.7000 1.914461 3894.00 4025.30 62.00
836 47.7500 1.912573 3493.00 3613.70 59.00
837 47.8000 1.910690 3290.00 3324.38 57.00
838 47.8500 1.908811 3080.00 3098.60 55.00
839 47.9000 1.906935 2916.00 2921.01 54.00
840 47.9500 1.905064 2833.00 2791.73 53.00
841 48.0000 1.903197 2700.00 2708.39 51.00
842 48.0500 1.901334 2706.00 2663.01 52.00
843 48.1000 1.899475 2732.00 2647.90 52.00
844 48.1500 1.897620 2724.00 2664.19 52.00
845 48.2000 1.895768 2908.00 2731.30 53.00
846 48.2500 1.893921 3177.00 2898.52 56.00
847 48.3000 1.892078 3595.00 3259.74 59.00
848 48.3500 1.890239 4180.00 3969.29 64.00
849 48.4000 1.888403 5600.00 5248.66 74.00
850 48.4500 1.886572 7866.00 7363.12 88.00
851 48.5000 1.884744 11016.00 10534.30 104.00
852 48.5500 1.882921 15288.00 14769.30 123.00
853 48.6000 1.881101 20082.00 19659.50 141.00
854 48.6500 1.879285 24488.00 24297.50 156.00
855 48.7000 1.877473 27267.00 27475.90 165.00
856 48.7500 1.875665 27799.00 28175.60 166.00
857 48.8000 1.873860 25921.00 26088.60 161.00
858 48.8500 1.872060 21569.00 21815.00 146.00
859 48.9000 1.870263 16298.00 16574.10 127.00
860 48.9500 1.868470 11549.00 11621.20 107.00
861 49.0000 1.866681 7930.00 7765.24 89.00
862 49.0500 1.864896 5501.00 5225.53 74.00
863 49.1000 1.863114 3985.00 3799.70 63.00
864 49.1500 1.861336 3376.00 3136.48 58.00
865 49.2000 1.859562 3128.00 2931.92 55.00
866 49.2500 1.857792 3156.00 2998.59 56.00
867 49.3000 1.856025 3414.00 3240.83 58.00
868 49.3500 1.854262 3574.00 3596.10 59.00
869 49.4000 1.852503 3859.00 3987.66 62.00
870 49.4500 1.850747 4207.00 4313.76 64.00
871 49.5000 1.848996 4401.00 4474.64 66.00
872 49.5500 1.847247 4374.00 4416.70 66.00
873 49.6000 1.845503 4138.00 4159.54 64.00
874 49.6500 1.843762 3669.00 3784.73 60.00
875 49.7000 1.842025 3290.00 3393.94 57.00
876 49.7500 1.840291 3019.00 3065.18 54.00
877 49.8000 1.838561 2737.00 2832.12 52.00
878 49.8500 1.836835 2653.00 2689.77 51.00
879 49.9000 1.835112 2501.00 2613.69 50.00
880 49.9500 1.833392 2505.00 2577.49 50.00
881 50.0000 1.831677 2444.00 2561.66 49.00
882 50.0500 1.829965 2470.00 2554.82 49.00
883 50.1000 1.828256 2462.00 2551.44 49.00
884 50.1500 1.826551 2549.00 2549.25 50.00
885 50.2000 1.824849 2539.00 2547.48 50.00
886 50.2500 1.823151 2516.00 2546.11 50.00
887 50.3000 1.821457 2505.00 2545.72 50.00
888 50.3500 1.819766 2469.00 2548.07 49.00
889 50.4000 1.818078 2483.00 2557.05 49.00
890 50.4500 1.816394 2576.00 2579.89 50.00
891 50.5000 1.814713 2591.00 2627.34 50.00
892 50.5500 1.813036 2778.00 2711.27 52.00
893 50.6000 1.811363 2855.00 2839.12 53.00
894 50.6500 1.809692 2858.00 3008.23 53.00
895 50.7000 1.808025 3170.00 3207.55 56.00
896 50.7500 1.806362 3484.00 3433.16 59.00
897 50.8000 1.804702 3605.00 3714.76 60.00
898 50.8500 1.803045 4032.00 4134.01 63.00
899 50.9000 1.801392 4653.00 4807.49 68.00
900 50.9500 1.799742 5709.00 5823.13 75.00
901 51.0000 1.798095 7103.00 7154.75 84.00
902 51.0500 1.796452 8799.00 8611.40 93.00
903 51.1000 1.794812 10038.00 9873.51 100.00
904 51.1500 1.793176 10805.00 10612.20 103.00
905 51.2000 1.791543 10653.00 10628.30 103.00
906 51.2500 1.789913 9835.00 9928.67 99.00
907 51.3000 1.788286 8667.00 8704.70 93.00
908 51.3500 1.786663 7121.00 7241.01 84.00
909 51.4000 1.785043 5613.00 5812.41 74.00
910 51.4500 1.783426 4417.00 4611.36 66.00
911 51.5000 1.781813 3518.00 3723.15 59.00
912 51.5500 1.780202 3064.00 3140.96 55.00
913 51.6000 1.778595 2820.00 2802.35 53.00
914 51.6500 1.776991 2589.00 2629.05 50.00
915 51.7000 1.775391 2516.00 2555.20 50.00
916 51.7500 1.773794 2535.00 2539.42 50.00
917 51.8000 1.772200 2605.00 2563.92 51.00
918 51.8500 1.770609 2642.00 2626.47 51.00
919 51.9000 1.769021 2663.00 2729.28 51.00
920 51.9500 1.767437 2810.00 2868.58 53.00
921 52.0000 1.765855 2937.00 3029.65 54.00
922 52.0500 1.764277 3025.00 3193.24 55.00
923 52.1000 1.762702 3215.00 3353.61 56.00
924 52.1500 1.761130 3390.00 3536.50 58.00
925 52.2000 1.759561 3469.00 3798.44 58.00
926 52.2500 1.757996 4023.00 4194.31 63.00
927 52.3000 1.756433 4608.00 4724.85 67.00
928 52.3500 1.754874 5274.00 5299.27 72.00
929 52.4000 1.753318 5957.00 5750.99 77.00
930 52.4500 1.751765 6198.00 5911.57 78.00
931 52.5000 1.750214 5948.00 5700.12 77.00
932 52.5500 1.748667 5379.00 5168.61 73.00
933 52.6000 1.747123 4535.00 4471.45 67.00
934 52.6500 1.745582 3814.00 3785.26 61.00
935 52.7000 1.744045 3112.00 3233.90 55.00
936 52.7500 1.742510 2715.00 2860.23 52.00
937 52.8000 1.740978 2654.00 2644.49 51.00
938 52.8500 1.739449 2472.00 2541.61 49.00
939 52.9000 1.737923 2439.00 2511.59 49.00
940 52.9500 1.736401 2445.00 2532.55 49.00
941 53.0000 1.734881 2536.00 2598.84 50.00
942 53.0500 1.733364 2688.00 2710.72 51.00
943 53.1000 1.731850 2757.00 2861.53 52.00
944 53.1500 1.730339 3035.00 3029.22 55.00
945 53.2000 1.728831 3126.00 3179.10 55.00
946 53.2500 1.727327 3156.00 3280.03 56.00
947 53.3000 1.725825 3241.00 3326.10 56.00
948 53.3500 1.724326 3278.00 3348.27 57.00
949 53.4000 1.722829 3344.00 3402.91 57.00
950 53.4500 1.721336 3545.00 3538.63 59.00
951 53.5000 1.719846 3703.00 3759.50 60.00
952 53.5500 1.718359 4111.00 4009.74 64.00
953 53.6000 1.716874 4417.00 4193.90 66.00
954 53.6500 1.715393 4411.00 4224.61 66.00
955 53.7000 1.713914 4266.00 4069.12 65.00
956 53.7500 1.712438 4163.00 3764.71 64.00
957 53.8000 1.710965 3818.00 3395.31 61.00
958 53.8500 1.709495 3385.00 3047.93 58.00
959 53.9000 1.708028 3101.00 2778.34 55.00
960 53.9500 1.706563 2977.00 2602.04 54.00
961 54.0000 1.705102 2832.00 2507.81 53.00
962 54.0500 1.703643 2886.00 2479.37 53.00
963 54.1000 1.702187 2821.00 2513.67 53.00
964 54.1500 1.700734 2832.00 2631.06 53.00
965 54.2000 1.699284 2988.00 2875.81 54.00
966 54.2500 1.697836 3187.00 3302.85 56.00
967 54.3000 1.696391 3766.00 3947.34 61.00
968 54.3500 1.694949 4616.00 4783.38 67.00
969 54.4000 1.693510 5519.00 5692.34 74.00
970 54.4500 1.692074 6108.00 6473.49 78.00
971 54.5000 1.690640 6497.00 6909.32 80.00
972 54.5500 1.689209 6510.00 6861.67 80.00
973 54.6000 1.687781 6093.00 6342.56 78.00
974 54.6500 1.686356 5258.00 5511.27 72.00
975 54.7000 1.684933 4555.00 4599.85 67.00
976 54.7500 1.683513 3784.00 3818.14 61.00
977 54.8000 1.682096 3374.00 3294.85 58.00
978 54.8500 1.680681 3134.00 3074.50 55.00
979 54.9000 1.679269 3159.00 3144.67 56.00
980 54.9500 1.677860 3370.00 3457.23 58.00
981 55.0000 1.676453 3747.00 3928.18 61.00
982 55.0500 1.675050 4321.00 4432.04 65.00
983 55.1000 1.673648 4688.00 4818.67 68.00
984 55.1500 1.672250 4895.00 4960.47 69.00
985 55.2000 1.670854 4734.00 4807.10 68.00
986 55.2500 1.669461 4267.00 4408.04 65.00
987 55.3000 1.668070 3849.00 3884.61 62.00
988 55.3500 1.666682 3285.00 3370.18 57.00
989 55.4000 1.665297 2819.00 2957.20 53.00
990 55.4500 1.663914 2606.00 2678.02 51.00
991 55.5000 1.662534 2463.00 2519.64 49.00
992 55.5500 1.661157 2492.00 2451.44 49.00
993 55.6000 1.659782 2427.00 2447.90 49.00
994 55.6500 1.658409 2482.00 2497.85 49.00
995 55.7000 1.657040 2572.00 2601.22 50.00
996 55.7500 1.655673 2644.00 2758.25 51.00
997 55.8000 1.654308 2818.00 2956.93 53.00
998 55.8500 1.652946 3099.00 3166.00 55.00
999 55.9000 1.651586 3209.00 3339.42 56.00
1000 55.9500 1.650230 3376.00 3432.13 58.00
1001 56.0000 1.648875 3304.00 3418.97 57.00
1002 56.0500 1.647523 3243.00 3305.41 56.00
1003 56.1000 1.646174 3036.00 3123.81 55.00
1004 56.1500 1.644827 2777.00 2918.39 52.00
1005 56.2000 1.643483 2631.00 2728.14 51.00
1006 56.2500 1.642141 2488.00 2576.49 49.00
1007 56.3000 1.640802 2435.00 2469.94 49.00
1008 56.3500 1.639465 2404.00 2403.00 49.00
1009 56.4000 1.638131 2313.00 2365.00 48.00
1010 56.4500 1.636799 2286.00 2345.20 47.00
1011 56.5000 1.635470 2322.00 2335.43 48.00
1012 56.5500 1.634143 2335.00 2330.57 48.00
1013 56.6000 1.632819 2295.00 2327.83 47.00
1014 56.6500 1.631497 2279.00 2325.90 47.00
1015 56.7000 1.630177 2271.00 2324.26 47.00
1016 56.7500 1.628860 2324.00 2322.71 48.00
1017 56.8000 1.627545 2304.00 2321.20 48.00
1018 56.8500 1.626233 2305.00 2319.72 48.00
1019 56.9000 1.624923 2265.00 2318.37 47.00
1020 56.9500 1.623616 2256.00 2317.43 47.00
1021 57.0000 1.622311 2275.00 2317.70 47.00
1022 57.0500 1.621009 2283.00 2321.11 47.00
1023 57.1000 1.619709 2300.00 2331.60 47.00
1024 57.1500 1.618411 2367.00 2355.73 48.00
1025 57.2000 1.617115 2435.00 2402.08 49.00
1026 57.2500 1.615823 2461.00 2477.99 49.00
1027 57.3000 1.614532 2579.00 2583.74 50.00
1028 57.3500 1.613244 2732.00 2706.85 52.00
1029 57.4000 1.611958 2895.00 2821.23 53.00
1030 57.4500 1.610674 2899.00 2894.96 53.00
1031 57.5000 1.609393 2887.00 2904.21 53.00
1032 57.5500 1.608114 2738.00 2845.46 52.00
1033 57.6000 1.606838 2764.00 2737.27 52.00
1034 57.6500 1.605564 2557.00 2610.77 50.00
1035 57.7000 1.604292 2500.00 2495.15 50.00
1036 57.7500 1.603022 2411.00 2407.92 49.00
1037 57.8000 1.601755 2306.00 2353.79 48.00
1038 57.8500 1.600490 2311.00 2330.84 48.00
1039 57.9000 1.599228 2406.00 2338.70 49.00
1040 57.9500 1.597967 2445.00 2384.35 49.00
1041 58.0000 1.596709 2460.00 2482.65 49.00
1042 58.0500 1.595454 2606.00 2649.59 51.00
1043 58.1000 1.594200 2830.00 2888.69 53.00
1044 58.1500 1.592949 3162.00 3176.22 56.00
1045 58.2000 1.591700 3520.00 3456.41 59.00
1046 58.2500 1.590453 3795.00 3655.43 61.00
1047 58.3000 1.589209 3794.00 3711.98 61.00
1048 58.3500 1.587967 3693.00 3607.61 60.00
1049 58.4000 1.586727 3417.00 3376.20 58.00
1050 58.4500 1.585489 3067.00 3086.08 55.00
1051 58.5000 1.584254 2699.00 2807.58 51.00
1052 58.5500 1.583021 2539.00 2587.12 50.00
1053 58.6000 1.581789 2496.00 2439.76 49.00
1054 58.6500 1.580561 2462.00 2359.13 49.00
1055 58.7000 1.579334 2404.00 2333.10 49.00
1056 58.7500 1.578110 2402.00 2356.20 49.00
1057 58.8000 1.576888 2444.00 2433.75 49.00
1058 58.8500 1.575668 2544.00 2576.98 50.00
1059 58.9000 1.574450 2771.00 2790.40 52.00
1060 58.9500 1.573234 3039.00 3056.90 55.00
1061 59.0000 1.572021 3330.00 3330.23 57.00
1062 59.0500 1.570809 3359.00 3543.76 57.00
1063 59.1000 1.569600 3603.00 3636.07 60.00
1064 59.1500 1.568393 3550.00 3580.46 59.00
1065 59.2000 1.567189 3382.00 3399.19 58.00
1066 59.2500 1.565986 3144.00 3153.30 56.00
1067 59.3000 1.564785 2959.00 2916.04 54.00
1068 59.3500 1.563587 2751.00 2749.57 52.00
1069 59.4000 1.562391 2793.00 2699.87 52.00
1070 59.4500 1.561197 2885.00 2809.90 53.00
1071 59.5000 1.560005 3127.00 3134.46 55.00
1072 59.5500 1.558815 3635.00 3733.41 60.00
1073 59.6000 1.557627 4418.00 4631.58 66.00
1074 59.6500 1.556441 5641.00 5758.31 75.00
1075 59.7000 1.555258 6760.00 6913.72 82.00
1076 59.7500 1.554076 7970.00 7806.33 89.00
1077 59.8000 1.552897 8219.00 8168.94 90.00
1078 59.8500 1.551720 7800.00 7894.87 88.00
1079 59.9000 1.550544 6917.00 7103.65 83.00
1080 59.9500 1.549371 5717.00 6088.84 75.00
1081 60.0000 1.548200 4855.00 5181.02 69.00
1082 60.0500 1.547031 4190.00 4607.85 64.00
1083 60.1000 1.545864 4111.00 4426.11 64.00
1084 60.1500 1.544699 4411.00 4542.00 66.00
1085 60.2000 1.543536 4744.00 4791.20 68.00
1086 60.2500 1.542376 4872.00 5029.13 69.00
1087 60.3000 1.541217 5007.00 5184.61 70.00
1088 60.3500 1.540060 4920.00 5254.92 70.00
1089 60.4000 1.538905 4907.00 5258.16 70.00
1090 60.4500 1.537753 4856.00 5187.04 69.00
1091 60.5000 1.536602 4828.00 5004.03 69.00
1092 60.5500 1.535453 4381.00 4677.33 66.00
1093 60.6000 1.534307 4046.00 4221.22 63.00
1094 60.6500 1.533162 3520.00 3702.65 59.00
1095 60.7000 1.532019 3031.00 3210.22 55.00
1096 60.7500 1.530879 2716.00 2812.80 52.00
1097 60.8000 1.529740 2470.00 2536.98 49.00
1098 60.8500 1.528603 2348.00 2370.92 48.00
1099 60.9000 1.527468 2314.00 2284.13 48.00
1100 60.9500 1.526336 2248.00 2246.07 47.00
1101 61.0000 1.525205 2211.00 2236.41 47.00
1102 61.0500 1.524076 2353.00 2246.96 48.00
1103 61.1000 1.522949 2266.00 2279.42 47.00
1104 61.1500 1.521824 2295.00 2340.89 47.00
1105 61.2000 1.520701 2437.00 2437.94 49.00
1106 61.2500 1.519580 2450.00 2569.86 49.00
1107 61.3000 1.518461 2670.00 2725.30 51.00
1108 61.3500 1.517344 2919.00 2886.20 54.00
1109 61.4000 1.516229 3019.00 3039.79 54.00
1110 61.4500 1.515116 3172.00 3190.88 56.00
1111 61.5000 1.514005 3248.00 3361.45 56.00
1112 61.5500 1.512895 3333.00 3571.45 57.00
1113 61.6000 1.511788 3658.00 3810.98 60.00
1114 61.6500 1.510682 3880.00 4026.90 62.00
1115 61.7000 1.509578 3938.00 4140.19 62.00
1116 61.7500 1.508476 3940.00 4088.11 62.00
1117 61.8000 1.507377 3755.00 3862.10 61.00
1118 61.8500 1.506279 3416.00 3514.86 58.00
1119 61.9000 1.505182 3043.00 3132.70 55.00
1120 61.9500 1.504088 2632.00 2794.18 51.00
1121 62.0000 1.502996 2427.00 2542.29 49.00
1122 62.0500 1.501905 2339.00 2381.35 48.00
1123 62.1000 1.500817 2262.00 2291.37 47.00
1124 62.1500 1.499730 2256.00 2246.32 47.00
1125 62.2000 1.498645 2313.00 2226.11 48.00
1126 62.2500 1.497562 2256.00 2221.32 47.00
1127 62.3000 1.496481 2310.00 2234.88 48.00
1128 62.3500 1.495401 2330.00 2285.23 48.00
1129 62.4000 1.494324 2394.00 2412.23 48.00
1130 62.4500 1.493248 2614.00 2681.62 51.00
1131 62.5000 1.492174 3065.00 3177.15 55.00
1132 62.5500 1.491102 3740.00 3969.30 61.00
1133 62.6000 1.490032 4768.00 5060.65 69.00
1134 62.6500 1.488963 5891.00 6331.54 76.00
1135 62.7000 1.487897 7424.00 7531.32 86.00
1136 62.7500 1.486832 8259.00 8347.44 90.00
1137 62.8000 1.485769 8412.00 8534.07 91.00
1138 62.8500 1.484708 7721.00 8031.10 87.00
1139 62.9000 1.483648 6728.00 6995.59 82.00
1140 62.9500 1.482591 5412.00 5722.57 73.00
1141 63.0000 1.481535 4158.00 4510.70 64.00
1142 63.0500 1.480481 3397.00 3556.16 58.00
1143 63.1000 1.479429 2885.00 2922.14 53.00
1144 63.1500 1.478379 2671.00 2578.40 51.00
1145 63.2000 1.477330 2500.00 2462.78 50.00
1146 63.2500 1.476283 2594.00 2527.02 50.00
1147 63.3000 1.475238 2825.00 2748.60 53.00
1148 63.3500 1.474194 3098.00 3114.29 55.00
1149 63.4000 1.473153 3706.00 3590.82 60.00
1150 63.4500 1.472113 4275.00 4103.97 65.00
1151 63.5000 1.471075 4765.00 4542.03 69.00
1152 63.5500 1.470038 4958.00 4789.54 70.00
1153 63.6000 1.469004 4981.00 4774.50 70.00
1154 63.6500 1.467971 4749.00 4502.35 68.00
1155 63.7000 1.466940 4277.00 4054.81 65.00
1156 63.7500 1.465910 3705.00 3555.41 60.00
1157 63.8000 1.464882 3166.00 3123.54 56.00
1158 63.8500 1.463856 2856.00 2843.95 53.00
1159 63.9000 1.462832 2710.00 2760.46 52.00
1160 63.9500 1.461810 2930.00 2884.47 54.00
1161 64.0000 1.460789 3145.00 3202.16 56.00
1162 64.0500 1.459769 3592.00 3671.55 59.00
1163 64.1000 1.458752 4118.00 4215.77 64.00
1164 64.1500 1.457736 4688.00 4725.11 68.00
1165 64.2000 1.456722 5083.00 5079.50 71.00
1166 64.2500 1.455710 5119.00 5184.89 71.00
1167 64.3000 1.454699 4969.00 5009.96 70.00
1168 64.3500 1.453690 4598.00 4600.00 67.00
1169 64.4000 1.452682 3913.00 4059.19 62.00
1170 64.4500 1.451677 3392.00 3508.69 58.00
1171 64.5000 1.450673 3131.00 3044.12 55.00
1172 64.5500 1.449670 2793.00 2713.56 52.00
1173 64.6000 1.448670 2647.00 2522.08 51.00
1174 64.6500 1.447670 2530.00 2453.77 50.00
1175 64.7000 1.446673 2637.00 2492.91 51.00
1176 64.7500 1.445677 2660.00 2631.47 51.00
1177 64.8000 1.444683 2909.00 2860.25 53.00
1178 64.8500 1.443691 3107.00 3152.07 55.00
1179 64.9000 1.442700 3492.00 3450.73 59.00
1180 64.9500 1.441711 3609.00 3679.55 60.00
1181 65.0000 1.440723 3722.00 3768.54 61.00
1182 65.0500 1.439737 3636.00 3686.76 60.00
1183 65.1000 1.438753 3464.00 3457.68 58.00
1184 65.1500 1.437770 3190.00 3147.45 56.00
1185 65.2000 1.436789 2919.00 2833.19 54.00
1186 65.2500 1.435810 2674.00 2572.58 51.00
1187 65.3000 1.434832 2438.00 2389.98 49.00
1188 65.3500 1.433856 2321.00 2281.32 48.00
1189 65.4000 1.432881 2312.00 2228.47 48.00
1190 65.4500 1.431908 2314.00 2211.56 48.00
1191 65.5000 1.430936 2331.00 2215.07 48.00
1192 65.5500 1.429966 2372.00 2228.04 48.00
1193 65.6000 1.428998 2379.00 2242.43 48.00
1194 65.6500 1.428031 2395.00 2252.17 48.00
1195 65.7000 1.427066 2335.00 2253.59 48.00
1196 65.7500 1.426103 2403.00 2246.46 49.00
1197 65.8000 1.425141 2341.00 2234.54 48.00
1198 65.8500 1.424180 2313.00 2225.74 48.00
1199 65.9000 1.423221 2309.00 2233.10 48.00
1200 65.9500 1.422264 2418.00 2277.65 49.00
1201 66.0000 1.421308 2405.00 2391.60 49.00
1202 66.0500 1.420354 2625.00 2616.90 51.00
1203 66.1000 1.419402 2952.00 2992.80 54.00
1204 66.1500 1.418450 3330.00 3529.21 57.00
1205 66.2000 1.417501 4145.00 4177.57 64.00
1206 66.2500 1.416553 4772.00 4819.21 69.00
1207 66.3000 1.415606 5407.00 5293.01 73.00
1208 66.3500 1.414661 5560.00 5459.08 74.00
1209 66.4000 1.413718 5254.00 5265.11 72.00
1210 66.4500 1.412776 4666.00 4773.84 68.00
1211 66.5000 1.411836 4086.00 4133.35 63.00
1212 66.5500 1.410897 3443.00 3512.13 58.00
1213 66.6000 1.409960 2788.00 3042.31 52.00
1214 66.6500 1.409024 2721.00 2801.72 52.00
1215 66.7000 1.408090 2710.00 2828.19 52.00
1216 66.7500 1.407157 2906.00 3139.30 53.00
1217 66.8000 1.406225 3554.00 3728.79 59.00
1218 66.8500 1.405296 4338.00 4538.67 65.00
1219 66.9000 1.404367 5093.00 5430.86 71.00
1220 66.9500 1.403441 5969.00 6197.48 77.00
1221 67.0000 1.402515 6649.00 6623.35 81.00
1222 67.0500 1.401591 6494.00 6576.73 80.00
1223 67.1000 1.400669 6032.00 6072.33 77.00
1224 67.1500 1.399748 5376.00 5262.95 73.00
1225 67.2000 1.398829 4323.00 4364.40 65.00
1226 67.2500 1.397911 3567.00 3564.23 59.00
1227 67.3000 1.396994 3034.00 2964.65 55.00
1228 67.3500 1.396080 2669.00 2579.71 51.00
1229 67.4000 1.395166 2589.00 2371.38 50.00
1230 67.4500 1.394254 2402.00 2290.99 49.00
1231 67.5000 1.393343 2471.00 2308.36 49.00
1232 67.5500 1.392434 2481.00 2421.39 49.00
1233 67.6000 1.391526 2705.00 2649.27 52.00
1234 67.6500 1.390620 3101.00 3013.00 55.00
1235 67.7000 1.389715 3538.00 3510.44 59.00
1236 67.7500 1.388812 4168.00 4099.12 64.00
1237 67.8000 1.387910 4793.00 4703.73 69.00
1238 67.8500 1.387010 5163.00 5252.16 71.00
1239 67.9000 1.386110 5591.00 5717.68 74.00
1240 67.9500 1.385213 6014.00 6131.94 77.00
1241 68.0000 1.384317 6389.00 6544.16 79.00
1242 68.0500 1.383422 6513.00 6953.04 80.00
1243 68.1000 1.382528 6807.00 7267.86 82.00
1244 68.1500 1.381637 7155.00 7342.16 84.00
1245 68.2000 1.380746 6918.00 7065.17 83.00
1246 68.2500 1.379857 6234.00 6442.61 78.00
1247 68.3000 1.378969 5437.00 5605.33 73.00
1248 68.3500 1.378083 4632.00 4742.26 68.00
1249 68.4000 1.377198 4041.00 4010.42 63.00
1250 68.4500 1.376314 3592.00 3480.32 59.00
1251 68.5000 1.375432 3278.00 3141.99 57.00
1252 68.5500 1.374551 3120.00 2946.98 55.00
1253 68.6000 1.373672 3194.00 2850.19 56.00
1254 68.6500 1.372794 3034.00 2827.72 55.00
1255 68.7000 1.371918 3039.00 2871.60 55.00
1256 68.7500 1.371042 3207.00 2980.98 56.00
1257 68.8000 1.370168 3311.00 3169.25 57.00
1258 68.8500 1.369296 3596.00 3493.35 59.00
1259 68.9000 1.368425 3993.00 4089.90 63.00
1260 68.9500 1.367555 4724.00 5182.98 68.00
1261 69.0000 1.366687 6247.00 7023.20 79.00
1262 69.0500 1.365820 8688.00 9745.84 93.00
1263 69.1000 1.364954 11643.00 13196.80 107.00
1264 69.1500 1.364090 15482.00 16829.00 124.00
1265 69.2000 1.363227 19016.00 19798.80 137.00
1266 69.2500 1.362366 20997.00 21260.10 144.00
1267 69.3000 1.361505 20483.00 20745.70 143.00
1268 69.3500 1.360646 18271.00 18394.80 135.00
1269 69.4000 1.359789 14359.00 14885.10 119.00
1270 69.4500 1.358933 10669.00 11110.30 103.00
1271 69.5000 1.358078 7329.00 7818.28 85.00
1272 69.5500 1.357224 5094.00 5397.71 71.00
1273 69.6000 1.356372 3722.00 3886.83 61.00
1274 69.6500 1.355521 3134.00 3116.59 55.00
1275 69.7000 1.354672 2969.00 2863.05 54.00
1276 69.7500 1.353824 3082.00 2934.99 55.00
1277 69.8000 1.352977 3195.00 3187.28 56.00
1278 69.8500 1.352131 3420.00 3500.69 58.00
1279 69.9000 1.351287 3622.00 3766.82 60.00
1280 69.9500 1.350444 3974.00 3897.99 63.00
1281 70.0000 1.349602 3891.00 3851.20 62.00
1282 70.0500 1.348762 3486.00 3644.37 59.00
1283 70.1000 1.347923 3304.00 3347.69 57.00
1284 70.1500 1.347085 3121.00 3053.81 55.00
1285 70.2000 1.346249 2811.00 2843.18 53.00
1286 70.2500 1.345413 2786.00 2762.24 52.00
1287 70.3000 1.344580 2797.00 2816.74 52.00
1288 70.3500 1.343747 2898.00 2976.53 53.00
1289 70.4000 1.342916 3134.00 3185.87 55.00
1290 70.4500 1.342086 3339.00 3379.20 57.00
1291 70.5000 1.341257 3626.00 3501.42 60.00
1292 70.5500 1.340429 3664.00 3528.82 60.00
1293 70.6000 1.339603 3541.00 3480.11 59.00
1294 70.6500 1.338778 3469.00 3410.20 58.00
1295 70.7000 1.337955 3366.00 3387.16 58.00
1296 70.7500 1.337132 3454.00 3462.64 58.00
1297 70.8000 1.336311 3653.00 3651.23 60.00
1298 70.8500 1.335492 3963.00 3931.58 62.00
1299 70.9000 1.334673 4142.00 4269.24 64.00
1300 70.9500 1.333856 4457.00 4645.21 66.00
1301 71.0000 1.333040 4739.00 5063.51 68.00
1302 71.0500 1.332225 5200.00 5526.05 72.00
1303 71.1000 1.331411 5699.00 5991.48 75.00
1304 71.1500 1.330599 6107.00 6355.51 78.00
1305 71.2000 1.329788 6282.00 6483.45 79.00
1306 71.2500 1.328978 6274.00 6279.74 79.00
1307 71.3000 1.328169 5816.00 5748.51 76.00
1308 71.3500 1.327362 4997.00 4999.48 70.00
1309 71.4000 1.326556 4114.00 4197.68 64.00
1310 71.4500 1.325751 3368.00 3491.48 58.00
1311 71.5000 1.324947 2909.00 2967.78 53.00
1312 71.5500 1.324145 2703.00 2648.81 51.00
1313 71.6000 1.323344 2541.00 2522.22 50.00
1314 71.6500 1.322544 2666.00 2577.35 51.00
1315 71.7000 1.321745 2825.00 2824.85 53.00
1316 71.7500 1.320947 3317.00 3289.66 57.00
1317 71.8000 1.320151 3783.00 3978.40 61.00
1318 71.8500 1.319356 4732.00 4837.85 68.00
1319 71.9000 1.318562 5612.00 5729.81 74.00
1320 71.9500 1.317769 6458.00 6452.17 80.00
1321 72.0000 1.316978 6890.00 6806.99 83.00
1322 72.0500 1.316187 6765.00 6687.44 82.00
1323 72.1000 1.315398 6189.00 6129.12 78.00
1324 72.1500 1.314610 5342.00 5293.37 73.00
1325 72.2000 1.313824 4414.00 4391.65 66.00
1326 72.2500 1.313038 3729.00 3600.68 61.00
1327 72.3000 1.312253 3219.00 3012.25 56.00
1328 72.3500 1.311471 2929.00 2633.32 54.00
1329 72.4000 1.310688 2725.00 2420.14 52.00
1330 72.4500 1.309908 2586.00 2314.78 50.00
1331 72.5000 1.309128 2595.00 2269.12 50.00
1332 72.5500 1.308349 2601.00 2252.12 51.00
1333 72.6000 1.307572 2540.00 2247.45 50.00
1334 72.6500 1.306796 2566.00 2248.62 50.00
1335 72.7000 1.306021 2578.00 2255.74 50.00
1336 72.7500 1.305247 2497.00 2275.99 49.00
1337 72.8000 1.304475 2592.00 2328.13 50.00
1338 72.8500 1.303703 2662.00 2450.95 51.00
1339 72.9000 1.302933 2801.00 2712.64 52.00
1340 72.9500 1.302164 3205.00 3213.98 56.00
1341 73.0000 1.301396 4000.00 4073.25 63.00
1342 73.0500 1.300629 5113.00 5382.11 71.00
1343 73.1000 1.299863 6496.00 7137.82 80.00
1344 73.1500 1.299099 8398.00 9176.09 91.00
1345 73.2000 1.298336 10587.00 11157.40 102.00
1346 73.2500 1.297573 12208.00 12638.90 110.00
1347 73.3000 1.296812 12869.00 13229.80 113.00
1348 73.3500 1.296052 12547.00 12758.00 112.00
1349 73.4000 1.295294 11249.00 11355.10 106.00
1350 73.4500 1.294536 9491.00 9408.44 97.00
1351 73.5000 1.293779 7402.00 7415.72 86.00
1352 73.5500 1.293024 5881.00 5831.61 76.00
1353 73.6000 1.292270 4899.00 4990.36 69.00
1354 73.6500 1.291516 4725.00 5113.25 68.00
1355 73.7000 1.290765 5478.00 6333.79 74.00
1356 73.7500 1.290013 7388.00 8664.98 85.00
1357 73.8000 1.289264 10257.00 11895.50 101.00
1358 73.8500 1.288515 14014.00 15497.00 118.00
1359 73.9000 1.287767 17395.00 18660.30 131.00
1360 73.9500 1.287021 19752.00 20535.80 140.00
1361 74.0000 1.286276 20206.00 20574.70 142.00
1362 74.0500 1.285531 18802.00 18788.60 137.00
1363 74.1000 1.284788 15612.00 15741.70 124.00
1364 74.1500 1.284046 11997.00 12285.30 109.00
1365 74.2000 1.283305 8978.00 9199.12 94.00
1366 74.2500 1.282565 7022.00 6950.49 83.00
1367 74.3000 1.281827 5707.00 5656.77 75.00
1368 74.3500 1.281089 5342.00 5191.96 73.00
1369 74.4000 1.280352 5535.00 5322.71 74.00
1370 74.4500 1.279617 5930.00 5788.74 77.00
1371 74.5000 1.278883 6487.00 6330.99 80.00
1372 74.5500 1.278149 6814.00 6711.70 82.00
1373 74.6000 1.277417 6878.00 6757.26 82.00
1374 74.6500 1.276686 6501.00 6407.50 80.00
1375 74.7000 1.275956 5818.00 5733.98 76.00
1376 74.7500 1.275227 5049.00 4904.66 71.00
1377 74.8000 1.274499 4214.00 4113.99 64.00
1378 74.8500 1.273772 3608.00 3521.25 60.00
1379 74.9000 1.273047 3285.00 3228.70 57.00
1380 74.9500 1.272322 3272.00 3294.54 57.00
1381 75.0000 1.271598 3576.00 3751.32 59.00
1382 75.0500 1.270876 4221.00 4600.35 64.00
1383 75.1000 1.270154 5413.00 5779.16 73.00
1384 75.1500 1.269434 6590.00 7125.72 81.00
1385 75.2000 1.268715 7889.00 8383.72 88.00
1386 75.2500 1.267996 9004.00 9262.46 94.00
1387 75.3000 1.267279 9465.00 9540.20 97.00
1388 75.3500 1.266563 9145.00 9151.54 95.00
1389 75.4000 1.265848 8303.00 8210.29 91.00
1390 75.4500 1.265134 6890.00 6955.60 83.00
1391 75.5000 1.264420 5670.00 5656.83 75.00
1392 75.5500 1.263708 4564.00 4526.08 67.00
1393 75.6000 1.262997 3739.00 3677.60 61.00
1394 75.6500 1.262287 3229.00 3134.99 56.00
1395 75.7000 1.261579 2909.00 2864.16 53.00
1396 75.7500 1.260871 2917.00 2808.13 54.00
1397 75.8000 1.260164 3056.00 2905.58 55.00
1398 75.8500 1.259458 3138.00 3094.29 56.00
1399 75.9000 1.258753 3299.00 3308.60 57.00
1400 75.9500 1.258049 3498.00 3483.37 59.00
1401 76.0000 1.257347 3628.00 3567.45 60.00
1402 76.0500 1.256645 3645.00 3541.13 60.00
1403 76.1000 1.255944 3599.00 3425.38 59.00
1404 76.1500 1.255245 3425.00 3275.57 58.00
1405 76.2000 1.254546 3242.00 3160.78 56.00
1406 76.2500 1.253849 3228.00 3137.37 56.00
1407 76.3000 1.253152 3375.00 3226.67 58.00
1408 76.3500 1.252456 3358.00 3405.12 57.00
1409 76.4000 1.251762 3565.00 3610.78 59.00
1410 76.4500 1.251068 3655.00 3766.82 60.00
1411 76.5000 1.250376 3645.00 3813.39 60.00
1412 76.5500 1.249684 3663.00 3735.61 60.00
1413 76.6000 1.248994 3525.00 3573.26 59.00
1414 76.6500 1.248304 3273.00 3408.48 57.00
1415 76.7000 1.247615 3266.00 3337.83 57.00
1416 76.7500 1.246928 3347.00 3440.79 57.00
1417 76.8000 1.246241 3764.00 3753.07 61.00
1418 76.8500 1.245556 4272.00 4250.79 65.00
1419 76.9000 1.244871 4936.00 4850.49 70.00
1420 76.9500 1.244188 5414.00 5431.43 73.00
1421 77.0000 1.243505 5895.00 5875.21 76.00
1422 77.0500 1.242823 6055.00 6107.72 77.00
1423 77.1000 1.242143 6076.00 6120.17 77.00
1424 77.1500 1.241463 5834.00 5957.67 76.00
1425 77.2000 1.240784 5410.00 5685.80 73.00
1426 77.2500 1.240107 5221.00 5357.72 72.00
1427 77.3000 1.239430 4843.00 4999.91 69.00
1428 77.3500 1.238754 4563.00 4619.18 67.00
1429 77.4000 1.238079 4250.00 4219.89 65.00
1430 77.4500 1.237406 3946.00 3816.01 62.00
1431 77.5000 1.236733 3631.00 3433.06 60.00
1432 77.5500 1.236061 3358.00 3099.39 57.00
1433 77.6000 1.235390 3085.00 2835.22 55.00
1434 77.6500 1.234720 2875.00 2646.57 53.00
1435 77.7000 1.234051 2740.00 2525.47 52.00
1436 77.7500 1.233383 2603.00 2456.01 51.00
1437 77.8000 1.232716 2625.00 2420.76 51.00
1438 77.8500 1.232050 2555.00 2405.51 50.00
1439 77.9000 1.231385 2560.00 2401.05 50.00
1440 77.9500 1.230720 2537.00 2402.80 50.00
1441 78.0000 1.230057 2530.00 2409.90 50.00
1442 78.0500 1.229395 2609.00 2424.42 51.00
1443 78.1000 1.228733 2504.00 2450.80 50.00
1444 78.1500 1.228073 2696.00 2495.02 51.00
1445 78.2000 1.227414 2831.00 2562.78 53.00
1446 78.2500 1.226755 2980.00 2656.34 54.00
1447 78.3000 1.226097 3082.00 2770.78 55.00
1448 78.3500 1.225441 3189.00 2892.53 56.00
1449 78.4000 1.224785 3375.00 3003.31 58.00
1450 78.4500 1.224130 3454.00 3093.19 58.00
1451 78.5000 1.223476 3636.00 3182.73 60.00
1452 78.5500 1.222823 3702.00 3350.81 60.00
1453 78.6000 1.222172 3959.00 3759.42 62.00
1454 78.6500 1.221520 4524.00 4657.30 67.00
1455 78.7000 1.220870 5711.00 6338.95 75.00
1456 78.7500 1.220221 7962.00 9033.62 89.00
1457 78.8000 1.219573 11516.00 12741.80 107.00
1458 78.8500 1.218925 15845.00 17095.40 125.00
1459 78.9000 1.218279 20368.00 21355.10 142.00
1460 78.9500 1.217633 24281.00 24636.60 155.00
1461 79.0000 1.216989 26107.00 26293.40 161.00
1462 79.0500 1.216345 26121.00 26248.70 161.00
1463 79.1000 1.215702 24485.00 25042.30 156.00
1464 79.1500 1.215060 22419.00 23519.40 149.00
1465 79.2000 1.214419 21146.00 22341.60 145.00
1466 79.2500 1.213779 20730.00 21639.10 143.00
1467 79.3000 1.213140 20400.00 21017.60 142.00
1468 79.3500 1.212502 19801.00 19888.60 140.00
1469 79.4000 1.211864 18105.00 17880.20 134.00
1470 79.4500 1.211228 15078.00 15057.80 122.00
1471 79.5000 1.210592 12063.00 11860.10 109.00
1472 79.5500 1.209958 8957.00 8846.66 94.00
1473 79.6000 1.209324 6765.00 6446.83 82.00
1474 79.6500 1.208691 5369.00 4856.14 73.00
1475 79.7000 1.208059 4520.00 4067.31 67.00
1476 79.7500 1.207428 4482.00 3970.48 66.00
1477 79.8000 1.206798 4722.00 4424.96 68.00
1478 79.8500 1.206169 5491.00 5272.30 74.00
1479 79.9000 1.205540 6398.00 6311.44 79.00
1480 79.9500 1.204913 7357.00 7290.75 85.00
1481 80.0000 1.204286 8097.00 7947.15 89.00
1482 80.0500 1.203660 8319.00 8090.00 91.00
1483 80.1000 1.203035 7841.00 7676.95 88.00
1484 80.1500 1.202411 6845.00 6831.29 82.00
1485 80.2000 1.201788 5702.00 5785.47 75.00
1486 80.2500 1.201166 4709.00 4784.56 68.00
1487 80.3000 1.200544 4073.00 4003.42 63.00
1488 80.3500 1.199924 3526.00 3510.94 59.00
1489 80.4000 1.199304 3392.00 3283.62 58.00
1490 80.4500 1.198685 3323.00 3242.14 57.00
1491 80.5000 1.198067 3423.00 3289.96 58.00
1492 80.5500 1.197450 3503.00 3342.47 59.00
1493 80.6000 1.196834 3584.00 3345.93 59.00
1494 80.6500 1.196219 3414.00 3286.07 58.00
1495 80.7000 1.195604 3328.00 3186.52 57.00
1496 80.7500 1.194991 3355.00 3098.81 57.00
1497 80.8000 1.194378 3296.00 3089.82 57.00
1498 80.8500 1.193766 3341.00 3232.67 57.00
1499 80.9000 1.193155 3629.00 3601.97 60.00
1500 80.9500 1.192545 4175.00 4267.57 64.00
1501 81.0000 1.191935 4907.00 5276.70 70.00
1502 81.0500 1.191327 6210.00 6620.42 78.00
1503 81.1000 1.190719 7859.00 8194.18 88.00
1504 81.1500 1.190112 9426.00 9774.69 97.00
1505 81.2000 1.189506 10818.00 11050.60 104.00
1506 81.2500 1.188901 11589.00 11708.80 107.00
1507 81.3000 1.188297 11402.00 11557.80 106.00
1508 81.3500 1.187693 10545.00 10615.20 102.00
1509 81.4000 1.187091 8969.00 9109.92 94.00
1510 81.4500 1.186489 7130.00 7387.85 84.00
1511 81.5000 1.185888 5649.00 5779.20 75.00
1512 81.5500 1.185288 4436.00 4497.14 66.00
1513 81.6000 1.184689 3619.00 3607.15 60.00
1514 81.6500 1.184090 3098.00 3063.68 55.00
1515 81.7000 1.183493 2918.00 2770.13 54.00
1516 81.7500 1.182896 2797.00 2629.95 52.00
1517 81.8000 1.182300 2746.00 2571.32 52.00
1518 81.8500 1.181705 2679.00 2550.49 51.00
1519 81.9000 1.181111 2654.00 2544.93 51.00
1520 81.9500 1.180517 2676.00 2544.68 51.00
1521 82.0000 1.179924 2725.00 2546.34 52.00
1522 82.0500 1.179332 2600.00 2549.74 50.00
1523 82.1000 1.178741 2545.00 2556.63 50.00
1524 82.1500 1.178151 2575.00 2570.01 50.00
1525 82.2000 1.177562 2599.00 2593.51 50.00
1526 82.2500 1.176973 2643.00 2630.08 51.00
1527 82.3000 1.176386 2706.00 2680.02 52.00
1528 82.3500 1.175799 2720.00 2739.02 52.00
1529 82.4000 1.175212 2655.00 2797.56 51.00
1530 82.4500 1.174627 2793.00 2842.99 52.00
1531 82.5000 1.174042 2763.00 2863.95 52.00
1532 82.5500 1.173459 2924.00 2855.54 54.00
1533 82.6000 1.172876 2929.00 2822.44 54.00
1534 82.6500 1.172294 2873.00 2779.19 53.00
1535 82.7000 1.171712 2847.00 2749.04 53.00
1536 82.7500 1.171132 2850.00 2764.50 53.00
1537 82.8000 1.170552 2875.00 2870.63 53.00
1538 82.8500 1.169973 3097.00 3127.95 55.00
1539 82.9000 1.169395 3462.00 3606.16 58.00
1540 82.9500 1.168818 4164.00 4361.38 64.00
1541 83.0000 1.168241 5099.00 5396.14 71.00
1542 83.0500 1.167665 6475.00 6619.72 80.00
1543 83.1000 1.167090 7786.00 7838.57 88.00
1544 83.1500 1.166516 8915.00 8794.74 94.00
1545 83.2000 1.165943 9448.00 9254.25 97.00
1546 83.2500 1.165370 9210.00 9099.46 95.00
1547 83.3000 1.164798 8312.00 8378.79 91.00
1548 83.3500 1.164227 7282.00 7282.72 85.00
1549 83.4000 1.163657 5932.00 6063.85 77.00
1550 83.4500 1.163088 4745.00 4946.40 68.00
1551 83.5000 1.162519 3778.00 4070.13 61.00
1552 83.5500 1.161951 3414.00 3482.55 58.00
1553 83.6000 1.161384 3252.00 3166.80 57.00
1554 83.6500 1.160818 3189.00 3078.40 56.00
1555 83.7000 1.160252 3319.00 3168.34 57.00
1556 83.7500 1.159687 3451.00 3387.84 58.00
1557 83.8000 1.159123 3751.00 3680.93 61.00
1558 83.8500 1.158560 4253.00 3978.98 65.00
1559 83.9000 1.157997 4540.00 4206.83 67.00
1560 83.9500 1.157435 4613.00 4302.14 67.00
1561 84.0000 1.156874 4446.00 4237.15 66.00
1562 84.0500 1.156314 4216.00 4029.38 64.00
1563 84.1000 1.155755 3849.00 3733.13 62.00
1564 84.1500 1.155196 3530.00 3416.48 59.00
1565 84.2000 1.154638 3160.00 3136.10 56.00
1566 84.2500 1.154081 2983.00 2922.91 54.00
1567 84.3000 1.153524 2866.00 2781.65 53.00
1568 84.3500 1.152969 2651.00 2700.30 51.00
1569 84.4000 1.152414 2679.00 2662.22 51.00
1570 84.4500 1.151860 2787.00 2654.80 52.00
1571 84.5000 1.151306 2693.00 2674.30 51.00
1572 84.5500 1.150753 2827.00 2727.56 53.00
1573 84.6000 1.150202 2952.00 2832.44 54.00
1574 84.6500 1.149650 3082.00 3017.51 55.00
1575 84.7000 1.149100 3439.00 3321.14 58.00
1576 84.7500 1.148550 3806.00 3787.94 61.00
1577 84.8000 1.148001 4530.00 4461.11 67.00
1578 84.8500 1.147453 5343.00 5367.14 73.00
1579 84.9000 1.146906 6462.00 6491.24 80.00
1580 84.9500 1.146359 7582.00 7752.16 87.00
1581 85.0000 1.145813 8601.00 8989.98 92.00
1582 85.0500 1.145268 9770.00 9985.48 98.00
1583 85.1000 1.144723 10503.00 10519.30 102.00
1584 85.1500 1.144179 10436.00 10448.80 102.00
1585 85.2000 1.143636 9855.00 9769.55 99.00
1586 85.2500 1.143094 8478.00 8623.48 92.00
1587 85.3000 1.142553 6967.00 7248.25 83.00
1588 85.3500 1.142012 5705.00 5893.20 75.00
1589 85.4000 1.141472 4557.00 4744.78 67.00
1590 85.4500 1.140932 3786.00 3890.07 61.00
1591 85.5000 1.140393 3408.00 3327.23 58.00
1592 85.5500 1.139856 3079.00 3000.93 55.00
1593 85.6000 1.139318 2950.00 2841.01 54.00
1594 85.6500 1.138782 2945.00 2789.19 54.00
1595 85.7000 1.138246 2790.00 2809.43 52.00
1596 85.7500 1.137711 2903.00 2888.72 53.00
1597 85.8000 1.137177 2983.00 3034.10 54.00
1598 85.8500 1.136643 3229.00 3268.56 56.00
1599 85.9000 1.136110 3567.00 3623.22 59.00
1600 85.9500 1.135578 3889.00 4122.87 62.00
1601 86.0000 1.135047 4553.00 4764.33 67.00
1602 86.0500 1.134516 5264.00 5498.91 72.00
1603 86.1000 1.133986 5947.00 6232.56 77.00
1604 86.1500 1.133457 6651.00 6849.88 81.00
1605 86.2000 1.132928 7147.00 7254.84 84.00
1606 86.2500 1.132400 7268.00 7402.46 85.00
1607 86.3000 1.131873 7189.00 7304.18 84.00
1608 86.3500 1.131346 6735.00 7007.61 82.00
1609 86.4000 1.130821 6441.00 6571.08 80.00
1610 86.4500 1.130296 5848.00 6053.62 76.00
1611 86.5000 1.129771 5542.00 5525.72 74.00
1612 86.5500 1.129248 5038.00 5086.88 70.00
1613 86.6000 1.128725 4885.00 4873.28 69.00
1614 86.6500 1.128202 5193.00 5047.25 72.00
1615 86.7000 1.127681 5805.00 5763.88 76.00
1616 86.7500 1.127160 6857.00 7117.98 82.00
1617 86.8000 1.126640 8519.00 9079.68 92.00
1618 86.8500 1.126120 10781.00 11446.60 103.00
1619 86.9000 1.125601 12794.00 13839.50 113.00
1620 86.9500 1.125083 14790.00 15781.00 121.00
1621 87.0000 1.124566 16075.00 16832.00 126.00
1622 87.0500 1.124049 16478.00 16742.30 128.00
1623 87.1000 1.123533 15248.00 15537.70 123.00
1624 87.1500 1.123018 13191.00 13502.90 114.00
1625 87.2000 1.122503 10995.00 11068.90 104.00
1626 87.2500 1.121989 8683.00 8668.91 93.00
1627 87.3000 1.121476 6475.00 6619.26 80.00
1628 87.3500 1.120963 5047.00 5068.88 71.00
1629 87.4000 1.120451 4055.00 4019.18 63.00
1630 87.4500 1.119940 3492.00 3379.02 59.00
1631 87.5000 1.119429 3197.00 3026.37 56.00
1632 87.5500 1.118919 2943.00 2850.88 54.00
1633 87.6000 1.118410 2929.00 2772.14 54.00
1634 87.6500 1.117902 2805.00 2740.65 52.00
1635 87.7000 1.117394 2847.00 2729.84 53.00
1636 87.7500 1.116887 2833.00 2727.26 53.00
1637 87.8000 1.116380 2823.00 2727.82 53.00
1638 87.8500 1.115874 2701.00 2730.01 51.00
1639 87.9000 1.115369 2799.00 2734.12 52.00
1640 87.9500 1.114865 2792.00 2741.77 52.00
1641 88.0000 1.114361 2842.00 2755.93 53.00
1642 88.0500 1.113858 2802.00 2780.82 52.00
1643 88.1000 1.113355 2779.00 2821.24 52.00
1644 88.1500 1.112853 3080.00 2881.10 55.00
1645 88.2000 1.112352 3168.00 2961.52 56.00
1646 88.2500 1.111852 3268.00 3059.92 57.00
1647 88.3000 1.111352 3452.00 3172.20 58.00
1648 88.3500 1.110852 3694.00 3299.64 60.00
1649 88.4000 1.110354 3912.00 3460.31 62.00
1650 88.4500 1.109856 4296.00 3702.56 65.00
1651 88.5000 1.109359 4783.00 4113.30 69.00
1652 88.5500 1.108862 5338.00 4813.58 73.00
1653 88.6000 1.108366 6513.00 5933.58 80.00
1654 88.6500 1.107871 7919.00 7563.12 88.00
1655 88.7000 1.107376 9708.00 9689.30 98.00
1656 88.7500 1.106883 12130.00 12142.90 110.00
1657 88.8000 1.106389 14370.00 14588.60 119.00
1658 88.8500 1.105897 16092.00 16591.60 126.00
1659 88.9000 1.105405 16820.00 17745.60 129.00
1660 88.9500 1.104913 17097.00 17819.80 130.00
1661 89.0000 1.104423 16181.00 16842.10 127.00
1662 89.0500 1.103932 14644.00 15077.10 121.00
1663 89.1000 1.103443 12416.00 12906.50 111.00
1664 89.1500 1.102954 10565.00 10692.10 102.00
1665 89.2000 1.102466 8762.00 8681.02 93.00
1666 89.2500 1.101979 7058.00 6992.55 84.00
1667 89.3000 1.101492 5683.00 5652.70 75.00
1668 89.3500 1.101006 4719.00 4639.56 68.00
1669 89.4000 1.100520 4159.00 3912.65 64.00
1670 89.4500 1.100035 3496.00 3423.24 59.00
1671 89.5000 1.099551 3223.00 3118.58 56.00
1672 89.5500 1.099067 3099.00 2946.90 55.00
1673 89.6000 1.098584 3055.00 2864.72 55.00
1674 89.6500 1.098102 2914.00 2842.83 53.00
1675 89.7000 1.097620 2791.00 2868.38 52.00
1676 89.7500 1.097139 2945.00 2943.17 54.00
1677 89.8000 1.096658 3092.00 3078.59 55.00
1678 89.8500 1.096179 3225.00 3287.81 56.00
1679 89.9000 1.095699 3438.00 3575.84 58.00
1680 89.9500 1.095221 3789.00 3930.45 61.00
1681 90.0000 1.094743 4210.00 4316.83 64.00
1682 90.0500 1.094265 4481.00 4680.42 66.00
1683 90.1000 1.093789 4824.00 4957.93 69.00
1684 90.1500 1.093313 5048.00 5094.23 71.00
1685 90.2000 1.092837 4953.00 5059.59 70.00
1686 90.2500 1.092362 4891.00 4859.91 69.00
1687 90.3000 1.091888 4420.00 4535.85 66.00
1688 90.3500 1.091414 4121.00 4149.93 64.00
1689 90.4000 1.090941 3823.00 3768.37 61.00
1690 90.4500 1.090469 3477.00 3443.84 58.00
1691 90.5000 1.089997 3325.00 3208.52 57.00
1692 90.5500 1.089526 3146.00 3078.36 56.00
1693 90.6000 1.089055 3159.00 3066.00 56.00
1694 90.6500 1.088585 3277.00 3195.12 57.00
1695 90.7000 1.088116 3528.00 3507.24 59.00
1696 90.7500 1.087647 4080.00 4053.37 63.00
1697 90.8000 1.087179 4738.00 4867.66 68.00
1698 90.8500 1.086712 5881.00 5929.76 76.00
1699 90.9000 1.086245 7111.00 7131.80 84.00
1700 90.9500 1.085779 8312.00 8278.20 91.00
1701 91.0000 1.085313 9269.00 9127.40 96.00
1702 91.0500 1.084848 9682.00 9473.65 98.00
1703 91.1000 1.084383 9368.00 9228.69 96.00
1704 91.1500 1.083920 8526.00 8461.59 92.00
1705 91.2000 1.083456 7316.00 7374.85 85.00
1706 91.2500 1.082994 5924.00 6232.08 76.00
1707 91.3000 1.082532 5016.00 5274.79 70.00
1708 91.3500 1.082070 4395.00 4667.63 66.00
1709 91.4000 1.081609 4242.00 4481.54 65.00
1710 91.4500 1.081149 4432.00 4700.89 66.00
1711 91.5000 1.080690 5065.00 5237.26 71.00
1712 91.5500 1.080230 5730.00 5942.48 75.00
1713 91.6000 1.079772 6566.00 6631.55 81.00
1714 91.6500 1.079314 7004.00 7121.27 83.00
1715 91.7000 1.078857 7079.00 7282.99 84.00
1716 91.7500 1.078400 6903.00 7083.03 83.00
1717 91.8000 1.077944 6330.00 6588.99 79.00
1718 91.8500 1.077489 5712.00 5934.42 75.00
1719 91.9000 1.077034 5076.00 5261.92 71.00
1720 91.9500 1.076579 4478.00 4672.65 66.00
1721 92.0000 1.076126 4062.00 4207.91 63.00
1722 92.0500 1.075672 3755.00 3859.92 61.00
1723 92.1000 1.075220 3595.00 3598.98 59.00
1724 92.1500 1.074768 3451.00 3397.54 58.00
1725 92.2000 1.074317 3258.00 3240.54 57.00
1726 92.2500 1.073866 3117.00 3123.94 55.00
1727 92.3000 1.073416 3199.00 3048.79 56.00
1728 92.3500 1.072966 3082.00 3017.56 55.00
1729 92.4000 1.072517 3117.00 3035.99 55.00
1730 92.4500 1.072068 3121.00 3118.51 55.00
1731 92.5000 1.071620 3341.00 3293.64 57.00
1732 92.5500 1.071173 3676.00 3605.02 60.00
1733 92.6000 1.070726 4106.00 4104.99 64.00
1734 92.6500 1.070280 4723.00 4839.84 68.00
1735 92.7000 1.069835 5504.00 5830.38 74.00
1736 92.7500 1.069390 6633.00 7050.90 81.00
1737 92.8000 1.068945 7852.00 8414.93 88.00
1738 92.8500 1.068501 9407.00 9774.81 96.00
1739 92.9000 1.068058 10626.00 10935.60 103.00
1740 92.9500 1.067615 11619.00 11694.10 107.00
1741 93.0000 1.067173 11845.00 11890.60 108.00
1742 93.0500 1.066731 11622.00 11463.30 107.00
1743 93.1000 1.066290 10536.00 10479.60 102.00
1744 93.1500 1.065850 9093.00 9128.35 95.00
1745 93.2000 1.065410 7735.00 7669.76 87.00
1746 93.2500 1.064971 6486.00 6372.80 80.00
1747 93.3000 1.064532 5480.00 5460.22 74.00
1748 93.3500 1.064094 5123.00 5083.29 71.00
1749 93.4000 1.063656 5310.00 5318.23 72.00
1750 93.4500 1.063219 6149.00 6160.66 78.00
1751 93.5000 1.062783 7486.00 7507.86 86.00
1752 93.5500 1.062347 9306.00 9138.25 96.00
1753 93.6000 1.061911 11205.00 10724.10 105.00
1754 93.6500 1.061476 12322.00 11897.80 111.00
1755 93.7000 1.061042 13043.00 12367.40 114.00
1756 93.7500 1.060609 12473.00 12027.90 111.00
1757 93.8000 1.060175 11229.00 11010.20 105.00
1758 93.8500 1.059743 9698.00 9635.69 98.00
1759 93.9000 1.059311 8177.00 8300.76 90.00
1760 93.9500 1.058879 7030.00 7343.33 83.00
1761 94.0000 1.058448 6788.00 6951.34 82.00
1762 94.0500 1.058018 7010.00 7131.97 83.00
1763 94.1000 1.057588 7653.00 7736.96 87.00
1764 94.1500 1.057159 8628.00 8521.14 92.00
1765 94.2000 1.056730 9376.00 9214.16 96.00
1766 94.2500 1.056302 9741.00 9590.81 98.00
1767 94.3000 1.055874 9598.00 9527.12 97.00
1768 94.3500 1.055447 9080.00 9026.93 95.00
1769 94.4000 1.055020 8125.00 8211.75 90.00
1770 94.4500 1.054594 7244.00 7275.93 85.00
1771 94.5000 1.054169 6396.00 6427.94 79.00
1772 94.5500 1.053744 5741.00 5834.95 75.00
1773 94.6000 1.053320 5615.00 5590.51 74.00
1774 94.6500 1.052896 5794.00 5709.72 76.00
1775 94.7000 1.052473 6149.00 6143.18 78.00
1776 94.7500 1.052050 6660.00 6798.40 81.00
1777 94.8000 1.051628 7301.00 7556.69 85.00
1778 94.8500 1.051206 8137.00 8285.25 90.00
1779 94.9000 1.050785 8822.00 8847.83 93.00
1780 94.9500 1.050364 9045.00 9124.37 95.00
1781 95.0000 1.049944 8938.00 9037.75 94.00
1782 95.0500 1.049525 8305.00 8580.63 91.00
1783 95.1000 1.049106 7528.00 7825.34 86.00
1784 95.1500 1.048687 6867.00 6911.17 82.00
1785 95.2000 1.048269 5912.00 6009.08 76.00
1786 95.2500 1.047852 5241.00 5281.43 72.00
1787 95.3000 1.047435 4823.00 4847.78 69.00
1788 95.3500 1.047019 4883.00 4764.76 69.00
1789 95.4000 1.046603 4918.00 5018.58 70.00
1790 95.4500 1.046188 5436.00 5526.30 73.00
1791 95.5000 1.045773 5999.00 6147.40 77.00
1792 95.5500 1.045359 6639.00 6710.96 81.00
1793 95.6000 1.044945 7259.00 7058.65 85.00
1794 95.6500 1.044532 7233.00 7092.17 85.00
1795 95.7000 1.044119 6900.00 6807.50 83.00
1796 95.7500 1.043707 6385.00 6298.38 79.00
1797 95.8000 1.043295 5794.00 5726.98 76.00
1798 95.8500 1.042884 5393.00 5273.19 73.00
1799 95.9000 1.042474 5153.00 5083.53 71.00
1800 95.9500 1.042064 5444.00 5233.55 73.00
1801 96.0000 1.041654 5881.00 5714.46 76.00
1802 96.0500 1.041245 6922.00 6448.22 83.00
1803 96.1000 1.040837 7813.00 7333.63 88.00
1804 96.1500 1.040429 8780.00 8315.46 93.00
1805 96.2000 1.040022 9531.00 9452.29 97.00
1806 96.2500 1.039615 10438.00 10936.50 102.00
1807 96.3000 1.039208 11983.00 13030.00 109.00
1808 96.3500 1.038802 14684.00 15917.90 121.00
1809 96.4000 1.038397 18615.00 19530.60 136.00
1810 96.4500 1.037992 22923.00 23452.50 151.00
1811 96.5000 1.037588 26911.00 26985.90 164.00
1812 96.5500 1.037184 29835.00 29386.90 172.00
1813 96.6000 1.036781 30666.00 30160.40 175.00
1814 96.6500 1.036378 29460.00 29255.70 171.00
1815 96.7000 1.035976 26675.00 27055.50 163.00
1816 96.7500 1.035574 23481.00 24171.60 153.00
1817 96.8000 1.035172 20548.00 21173.60 143.00
1818 96.8500 1.034772 18243.00 18399.60 135.00
1819 96.9000 1.034371 15841.00 15933.50 125.00
1820 96.9500 1.033972 13854.00 13702.20 117.00
1821 97.0000 1.033572 11725.00 11616.50 108.00
1822 97.0500 1.033174 9804.00 9654.95 99.00
1823 97.1000 1.032776 8084.00 7871.63 89.00
1824 97.1500 1.032378 6502.00 6353.35 80.00
1825 97.2000 1.031981 5453.00 5165.27 73.00
1826 97.2500 1.031584 4624.00 4323.18 68.00
1827 97.3000 1.031188 4165.00 3793.21 64.00
1828 97.3500 1.030792 3884.00 3512.52 62.00
1829 97.4000 1.030397 3716.00 3414.03 60.00
1830 97.4500 1.030002 3663.00 3445.77 60.00
1831 97.5000 1.029608 3747.00 3581.61 61.00
1832 97.5500 1.029214 3964.00 3821.65 62.00
1833 97.6000 1.028821 4209.00 4182.39 64.00
1834 97.6500 1.028428 4592.00 4677.37 67.00
1835 97.7000 1.028036 5206.00 5296.84 72.00
1836 97.7500 1.027644 6003.00 5996.17 77.00
1837 97.8000 1.027253 6736.00 6705.44 82.00
1838 97.8500 1.026862 7403.00 7360.17 86.00
1839 97.9000 1.026472 8073.00 7938.49 89.00
1840 97.9500 1.026082 8738.00 8482.91 93.00
1841 98.0000 1.025693 9449.00 9087.73 97.00
1842 98.0500 1.025304 10118.00 9852.10 100.00
1843 98.1000 1.024915 10885.00 10817.80 104.00
1844 98.1500 1.024528 11654.00 11919.30 107.00
1845 98.2000 1.024140 12596.00 12976.80 112.00
1846 98.2500 1.023753 13147.00 13736.60 114.00
1847 98.3000 1.023367 13321.00 13955.10 115.00
1848 98.3500 1.022981 13217.00 13491.30 114.00
1849 98.4000 1.022596 11980.00 12367.30 109.00
1850 98.4500 1.022211 10633.00 10766.30 103.00
1851 98.5000 1.021827 8871.00 8969.67 94.00
1852 98.5500 1.021443 7215.00 7259.75 84.00
1853 98.6000 1.021059 5881.00 5838.20 76.00
1854 98.6500 1.020676 4957.00 4789.87 70.00
1855 98.7000 1.020294 4352.00 4094.53 65.00
1856 98.7500 1.019912 3867.00 3671.20 62.00
1857 98.8000 1.019530 3563.00 3424.43 59.00
1858 98.8500 1.019149 3371.00 3275.99 58.00
1859 98.9000 1.018769 3151.00 3177.22 56.00
1860 98.9500 1.018389 3103.00 3106.02 55.00
1861 99.0000 1.018009 3045.00 3058.31 55.00
1862 99.0500 1.017630 2984.00 3039.89 54.00
1863 99.1000 1.017251 2994.00 3061.55 54.00
1864 99.1500 1.016873 3079.00 3136.30 55.00
1865 99.2000 1.016495 3164.00 3276.16 56.00
1866 99.2500 1.016118 3353.00 3486.21 57.00
1867 99.3000 1.015741 3477.00 3756.93 58.00
1868 99.3500 1.015365 3790.00 4058.60 61.00
1869 99.4000 1.014989 4153.00 4342.13 64.00
1870 99.4500 1.014614 4488.00 4550.19 66.00
1871 99.5000 1.014239 4527.00 4635.12 67.00
1872 99.5500 1.013864 4478.00 4576.41 66.00
1873 99.6000 1.013490 4206.00 4388.74 64.00
1874 99.6500 1.013117 3913.00 4116.40 62.00
1875 99.7000 1.012744 3723.00 3816.78 61.00
1876 99.7500 1.012372 3580.00 3542.21 59.00
1877 99.8000 1.011999 3239.00 3327.40 56.00
1878 99.8500 1.011628 3148.00 3187.05 56.00
1879 99.9000 1.011257 3088.00 3121.35 55.00
1880 99.9500 1.010886 3110.00 3124.83 55.00
1881 100.0000 1.010516 3193.00 3195.12 56.00
1882 100.0500 1.010146 3169.00 3339.58 56.00
1883 100.1000 1.009777 3416.00 3579.30 58.00
1884 100.1500 1.009408 3684.00 3948.06 60.00
1885 100.2000 1.009040 4234.00 4484.16 65.00
1886 100.2500 1.008672 4853.00 5211.69 69.00
1887 100.3000 1.008304 5876.00 6116.08 76.00
1888 100.3500 1.007937 6995.00 7126.05 83.00
1889 100.4000 1.007571 8183.00 8116.16 90.00
1890 100.4500 1.007205 9089.00 8943.19 95.00
1891 100.5000 1.006839 9589.00 9501.57 97.00
1892 100.5500 1.006474 10000.00 9776.08 100.00
1893 100.6000 1.006109 9744.00 9854.61 98.00
1894 100.6500 1.005745 9625.00 9886.43 98.00
1895 100.7000 1.005381 9485.00 10002.50 97.00
1896 100.7500 1.005018 9701.00 10238.90 98.00
1897 100.8000 1.004655 10319.00 10508.20 101.00
1898 100.8500 1.004293 10477.00 10636.40 102.00
1899 100.9000 1.003931 10481.00 10447.40 102.00
1900 100.9500 1.003569 9833.00 9848.34 99.00
1901 101.0000 1.003208 8750.00 8873.14 93.00
1902 101.0500 1.002847 7513.00 7665.72 86.00
1903 101.1000 1.002487 5902.00 6417.04 76.00
1904 101.1500 1.002128 4965.00 5297.65 70.00
1905 101.2000 1.001768 4392.00 4409.97 66.00
1906 101.2500 1.001410 3762.00 3780.54 61.00
1907 101.3000 1.001051 3381.00 3378.83 58.00
1908 101.3500 1.000693 3084.00 3147.39 55.00
1909 101.4000 1.000336 3037.00 3027.43 55.00
1910 101.4500 0.999979 3035.00 2972.76 55.00
1911 101.5000 0.999622 2884.00 2953.56 53.00
1912 101.5500 0.999266 2828.00 2954.05 53.00
1913 101.6000 0.998910 2953.00 2968.27 54.00
1914 101.6500 0.998555 2852.00 2995.78 53.00
1915 101.7000 0.998200 2927.00 3037.95 54.00
1916 101.7500 0.997846 2953.00 3094.61 54.00
1917 101.8000 0.997492 3008.00 3161.61 54.00
1918 101.8500 0.997138 3060.00 3230.02 55.00
1919 101.9000 0.996785 3175.00 3287.51 56.00
1920 101.9500 0.996433 3190.00 3322.05 56.00
1921 102.0000 0.996081 3173.00 3326.35 56.00
1922 102.0500 0.995729 3180.00 3301.07 56.00
1923 102.1000 0.995378 3156.00 3255.27 56.00
1924 102.1500 0.995027 3119.00 3203.79 55.00
1925 102.2000 0.994676 2864.00 3162.98 53.00
1926 102.2500 0.994326 2837.00 3147.01 53.00
1927 102.3000 0.993977 2956.00 3166.23 54.00
1928 102.3500 0.993628 3023.00 3228.34 54.00
1929 102.4000 0.993279 3083.00 3340.80 55.00
1930 102.4500 0.992931 3314.00 3512.82 57.00
1931 102.5000 0.992583 3637.00 3753.92 60.00
1932 102.5500 0.992236 3877.00 4068.35 62.00
1933 102.6000 0.991889 4385.00 4446.82 66.00
1934 102.6500 0.991542 4890.00 4859.24 69.00
1935 102.7000 0.991196 5372.00 5254.40 73.00
1936 102.7500 0.990850 5711.00 5568.78 75.00
1937 102.8000 0.990505 5922.00 5743.53 76.00
1938 102.8500 0.990160 5832.00 5742.63 76.00
1939 102.9000 0.989816 5546.00 5564.40 74.00
1940 102.9500 0.989472 5145.00 5241.78 71.00
1941 103.0000 0.989128 4846.00 4832.25 69.00
1942 103.0500 0.988785 4302.00 4401.74 65.00
1943 103.1000 0.988443 3823.00 4009.26 61.00
1944 103.1500 0.988100 3520.00 3697.45 59.00
1945 103.2000 0.987759 3298.00 3488.89 57.00
1946 103.2500 0.987417 3181.00 3387.83 56.00
1947 103.3000 0.987076 3240.00 3383.15 56.00
1948 103.3500 0.986736 3453.00 3451.81 58.00
1949 103.4000 0.986396 3420.00 3561.84 58.00
1950 103.4500 0.986056 3475.00 3677.12 58.00
1951 103.5000 0.985717 3672.00 3764.45 60.00
1952 103.5500 0.985378 3675.00 3802.53 60.00
1953 103.6000 0.985039 3669.00 3790.02 60.00
1954 103.6500 0.984701 3655.00 3748.94 60.00
1955 103.7000 0.984364 3628.00 3721.68 60.00
1956 103.7500 0.984027 3566.00 3761.34 59.00
1957 103.8000 0.983690 3715.00 3917.45 60.00
1958 103.8500 0.983354 4109.00 4219.84 64.00
1959 103.9000 0.983018 4576.00 4664.18 67.00
1960 103.9500 0.982682 5131.00 5204.17 71.00
1961 104.0000 0.982347 5822.00 5755.26 76.00
1962 104.0500 0.982012 6382.00 6213.13 79.00
1963 104.1000 0.981678 6545.00 6483.69 80.00
1964 104.1500 0.981344 6668.00 6513.56 81.00
1965 104.2000 0.981011 6432.00 6309.35 80.00
1966 104.2500 0.980678 5761.00 5935.88 75.00
1967 104.3000 0.980345 5352.00 5495.07 73.00
1968 104.3500 0.980013 5126.00 5095.08 71.00
1969 104.4000 0.979681 4741.00 4824.60 68.00
1970 104.4500 0.979350 4709.00 4739.75 68.00
1971 104.5000 0.979019 4853.00 4864.91 69.00
1972 104.5500 0.978688 5179.00 5198.87 71.00
1973 104.6000 0.978358 5623.00 5718.08 74.00
1974 104.6500 0.978028 6439.00 6372.55 80.00
1975 104.7000 0.977699 7295.00 7080.22 85.00
1976 104.7500 0.977370 8008.00 7727.69 89.00
1977 104.8000 0.977042 8475.00 8187.54 92.00
1978 104.8500 0.976714 8739.00 8350.90 93.00
1979 104.9000 0.976386 8433.00 8162.36 91.00
1980 104.9500 0.976059 7705.00 7642.37 87.00
1981 105.0000 0.975732 6720.00 6883.39 81.00
1982 105.0500 0.975405 5868.00 6020.88 76.00
1983 105.1000 0.975079 5050.00 5191.75 71.00
1984 105.1500 0.974753 4330.00 4499.74 65.00
1985 105.2000 0.974428 3908.00 3996.39 62.00
1986 105.2500 0.974103 3597.00 3683.79 59.00
1987 105.3000 0.973779 3520.00 3527.99 59.00
1988 105.3500 0.973455 3632.00 3477.39 60.00
1989 105.4000 0.973131 3661.00 3478.83 60.00
1990 105.4500 0.972808 3585.00 3488.81 59.00
1991 105.5000 0.972485 3459.00 3480.05 58.00
1992 105.5500 0.972163 3366.00 3443.63 58.00
1993 105.6000 0.971841 3355.00 3387.18 57.00
1994 105.6500 0.971519 3226.00 3329.94 56.00
1995 105.7000 0.971198 3175.00 3295.72 56.00
1996 105.7500 0.970877 3221.00 3305.79 56.00
1997 105.8000 0.970556 3208.00 3372.46 56.00
1998 105.8500 0.970236 3264.00 3494.52 57.00
1999 105.9000 0.969916 3581.00 3655.24 59.00
2000 105.9500 0.969597 3718.00 3824.53 60.00
2001 106.0000 0.969278 3836.00 3965.32 61.00
2002 106.0500 0.968960 3995.00 4043.67 63.00
2003 106.1000 0.968642 3921.00 4039.29 62.00
2004 106.1500 0.968324 3921.00 3951.70 62.00
2005 106.2000 0.968007 3834.00 3799.87 61.00
2006 106.2500 0.967690 3567.00 3615.14 59.00
2007 106.3000 0.967373 3358.00 3431.00 57.00
2008 106.3500 0.967057 3207.00 3274.13 56.00
2009 106.4000 0.966741 3174.00 3160.20 56.00
2010 106.4500 0.966426 3084.00 3093.92 55.00
2011 106.5000 0.966111 3069.00 3072.46 55.00
2012 106.5500 0.965796 3099.00 3088.71 55.00
2013 106.6000 0.965482 3164.00 3133.58 56.00
2014 106.6500 0.965168 3235.00 3196.66 56.00
2015 106.7000 0.964855 3225.00 3266.30 56.00
2016 106.7500 0.964542 3358.00 3329.99 57.00
2017 106.8000 0.964229 3369.00 3375.76 58.00
2018 106.8500 0.963917 3246.00 3394.41 56.00
2019 106.9000 0.963605 3243.00 3381.72 56.00
2020 106.9500 0.963294 3315.00 3339.58 57.00
2021 107.0000 0.962982 3273.00 3275.53 57.00
2022 107.0500 0.962672 3142.00 3200.42 56.00
2023 107.1000 0.962361 3005.00 3125.43 54.00
2024 107.1500 0.962051 2970.00 3059.40 54.00
2025 107.2000 0.961742 2929.00 3007.42 54.00
2026 107.2500 0.961433 2952.00 2971.07 54.00
2027 107.3000 0.961124 2869.00 2949.97 53.00
2028 107.3500 0.960815 2961.00 2944.16 54.00
2029 107.4000 0.960507 3017.00 2957.16 54.00
2030 107.4500 0.960200 2979.00 2999.46 54.00
2031 107.5000 0.959892 3170.00 3092.47 56.00
2032 107.5500 0.959585 3465.00 3271.87 58.00
2033 107.6000 0.959279 3823.00 3588.40 61.00
2034 107.6500 0.958973 4293.00 4101.71 65.00
2035 107.7000 0.958667 5068.00 4865.55 71.00
2036 107.7500 0.958362 6042.00 5901.58 77.00
2037 107.8000 0.958057 7120.00 7170.77 84.00
2038 107.8500 0.957752 8500.00 8554.78 92.00
2039 107.9000 0.957448 10120.00 9860.36 100.00
2040 107.9500 0.957144 11005.00 10859.10 104.00
2041 108.0000 0.956840 11798.00 11350.40 108.00
2042 108.0500 0.956537 11820.00 11227.20 108.00
2043 108.1000 0.956234 10994.00 10514.30 104.00
2044 108.1500 0.955932 9696.00 9360.81 98.00
2045 108.2000 0.955630 8134.00 7989.03 90.00
2046 108.2500 0.955328 6587.00 6626.20 81.00
2047 108.3000 0.955027 5500.00 5445.41 74.00
2048 108.3500 0.954726 4623.00 4536.46 67.00
2049 108.4000 0.954426 4070.00 3912.78 63.00
2050 108.4500 0.954125 3824.00 3535.69 61.00
2051 108.5000 0.953826 3744.00 3345.60 61.00
2052 108.5500 0.953526 3485.00 3284.15 59.00
2053 108.6000 0.953227 3466.00 3304.67 58.00
2054 108.6500 0.952928 3495.00 3372.61 59.00
2055 108.7000 0.952630 3580.00 3461.22 59.00
2056 108.7500 0.952332 3748.00 3547.48 61.00
2057 108.8000 0.952035 3776.00 3611.05 61.00
2058 108.8500 0.951737 3729.00 3636.42 61.00
2059 108.9000 0.951440 3705.00 3616.09 60.00
2060 108.9500 0.951144 3580.00 3552.46 59.00
2061 109.0000 0.950848 3524.00 3456.80 59.00
2062 109.0500 0.950552 3328.00 3345.50 57.00
2063 109.1000 0.950257 3192.00 3235.01 56.00
2064 109.1500 0.949962 3102.00 3137.94 55.00
2065 109.2000 0.949667 3047.00 3061.01 55.00
2066 109.2500 0.949373 3083.00 3005.42 55.00
2067 109.3000 0.949079 2969.00 2968.64 54.00
2068 109.3500 0.948785 3012.00 2946.47 54.00
2069 109.4000 0.948492 2844.00 2934.78 53.00
2070 109.4500 0.948199 2918.00 2930.51 54.00
2071 109.5000 0.947907 2952.00 2932.07 54.00
2072 109.5500 0.947615 2898.00 2939.43 53.00
2073 109.6000 0.947323 2855.00 2953.95 53.00
2074 109.6500 0.947031 2901.00 2978.34 53.00
2075 109.7000 0.946740 2880.00 3016.58 53.00
2076 109.7500 0.946450 3028.00 3073.74 55.00
2077 109.8000 0.946159 2998.00 3155.45 54.00
2078 109.8500 0.945869 3243.00 3266.95 56.00
2079 109.9000 0.945580 3319.00 3411.21 57.00
2080 109.9500 0.945291 3467.00 3586.98 58.00
2081 110.0000 0.945002 3717.00 3787.14 60.00
2082 110.0500 0.944713 3978.00 3998.81 63.00
2083 110.1000 0.944425 4209.00 4205.71 64.00
2084 110.1500 0.944137 4456.00 4391.71 66.00
2085 110.2000 0.943850 4640.00 4545.06 68.00
2086 110.2500 0.943562 4647.00 4660.37 68.00
2087 110.3000 0.943276 4651.00 4738.76 68.00
2088 110.3500 0.942989 4687.00 4786.10 68.00
2089 110.4000 0.942703 4733.00 4810.42 68.00
2090 110.4500 0.942418 4711.00 4820.00 68.00
2091 110.5000 0.942132 4852.00 4821.84 69.00
2092 110.5500 0.941847 4853.00 4820.60 69.00
2093 110.6000 0.941563 4955.00 4817.77 70.00
2094 110.6500 0.941278 5135.00 4811.48 71.00
2095 110.7000 0.940994 4979.00 4797.35 70.00
2096 110.7500 0.940711 5017.00 4771.02 70.00
2097 110.8000 0.940427 5123.00 4731.59 71.00
2098 110.8500 0.940145 5135.00 4684.88 71.00
2099 110.9000 0.939862 5111.00 4644.54 71.00
2100 110.9500 0.939580 4970.00 4629.13 70.00
2101 111.0000 0.939298 4971.00 4655.26 70.00
2102 111.0500 0.939016 4865.00 4728.80 69.00
2103 111.1000 0.938735 4880.00 4838.62 69.00
2104 111.1500 0.938454 4964.00 4957.26 70.00
2105 111.2000 0.938174 4925.00 5050.14 70.00
2106 111.2500 0.937894 4956.00 5090.45 70.00
2107 111.3000 0.937614 4908.00 5073.03 70.00
2108 111.3500 0.937335 4930.00 5019.50 70.00
2109 111.4000 0.937056 4908.00 4971.23 70.00
2110 111.4500 0.936777 5040.00 4971.95 70.00
2111 111.5000 0.936498 5175.00 5047.83 71.00
2112 111.5500 0.936220 5408.00 5193.82 73.00
2113 111.6000 0.935943 5702.00 5372.99 75.00
2114 111.6500 0.935665 6063.00 5528.86 77.00
2115 111.7000 0.935388 5961.00 5605.68 77.00
2116 111.7500 0.935112 5920.00 5567.47 76.00
2117 111.8000 0.934835 5740.00 5408.66 75.00
2118 111.8500 0.934559 5204.00 5153.10 72.00
2119 111.9000 0.934284 4934.00 4844.15 70.00
2120 111.9500 0.934008 4601.00 4530.86 67.00
2121 112.0000 0.933733 4294.00 4256.55 65.00
2122 112.0500 0.933459 4147.00 4051.37 64.00
2123 112.1000 0.933184 4010.00 3929.14 63.00
2124 112.1500 0.932910 4064.00 3887.24 63.00
2125 112.2000 0.932637 3944.00 3907.90 62.00
2126 112.2500 0.932364 4022.00 3961.95 63.00
2127 112.3000 0.932091 3943.00 4015.26 62.00
2128 112.3500 0.931818 4106.00 4037.28 64.00
2129 112.4000 0.931546 4043.00 4009.46 63.00
2130 112.4500 0.931274 3870.00 3930.49 62.00
2131 112.5000 0.931002 3769.00 3816.34 61.00
2132 112.5500 0.930731 3653.00 3695.08 60.00
2133 112.6000 0.930460 3576.00 3598.29 59.00
2134 112.6500 0.930189 3444.00 3552.51 58.00
2135 112.7000 0.929919 3639.00 3572.42 60.00
2136 112.7500 0.929649 3740.00 3657.91 61.00
2137 112.8000 0.929380 3901.00 3794.40 62.00
2138 112.8500 0.929110 4192.00 3956.83 64.00
2139 112.9000 0.928841 4183.00 4115.59 64.00
2140 112.9500 0.928573 4372.00 4243.73 66.00
2141 113.0000 0.928305 4322.00 4322.78 65.00
2142 113.0500 0.928037 4487.00 4346.10 66.00
2143 113.1000 0.927769 4380.00 4318.24 66.00
2144 113.1500 0.927502 4267.00 4251.22 65.00
2145 113.2000 0.927235 4102.00 4159.52 64.00
2146 113.2500 0.926968 3997.00 4056.01 63.00
2147 113.3000 0.926702 3824.00 3950.30 61.00
2148 113.3500 0.926436 3821.00 3849.23 61.00
2149 113.4000 0.926170 3666.00 3758.84 60.00
2150 113.4500 0.925905 3671.00 3685.28 60.00
2151 113.5000 0.925640 3623.00 3634.58 60.00
2152 113.5500 0.925375 3600.00 3611.14 60.00
2153 113.6000 0.925111 3666.00 3616.58 60.00
2154 113.6500 0.924847 3614.00 3650.09 60.00
2155 113.7000 0.924584 3709.00 3710.56 60.00
2156 113.7500 0.924320 3883.00 3798.97 62.00
2157 113.8000 0.924057 3880.00 3919.09 62.00
2158 113.8500 0.923795 3992.00 4075.12 63.00
2159 113.9000 0.923532 4116.00 4266.60 64.00
2160 113.9500 0.923270 4312.00 4483.63 65.00
2161 114.0000 0.923008 4615.00 4705.17 67.00
2162 114.0500 0.922747 4810.00 4902.52 69.00
2163 114.1000 0.922486 4852.00 5047.22 69.00
2164 114.1500 0.922225 5019.00 5119.24 70.00
2165 114.2000 0.921965 5024.00 5112.02 70.00
2166 114.2500 0.921705 4871.00 5031.88 69.00
2167 114.3000 0.921445 4707.00 4893.13 68.00
2168 114.3500 0.921186 4613.00 4711.88 67.00
2169 114.4000 0.920926 4357.00 4502.56 66.00
2170 114.4500 0.920668 4175.00 4277.25 64.00
2171 114.5000 0.920409 4099.00 4047.84 64.00
2172 114.5500 0.920151 3766.00 3827.98 61.00
2173 114.6000 0.919893 3717.00 3633.69 60.00
2174 114.6500 0.919636 3572.00 3482.71 59.00
2175 114.7000 0.919378 3488.00 3393.30 59.00
2176 114.7500 0.919122 3456.00 3383.49 58.00
2177 114.8000 0.918865 3558.00 3469.89 59.00
2178 114.8500 0.918609 3713.00 3665.31 60.00
2179 114.9000 0.918353 4019.00 3973.83 63.00
2180 114.9500 0.918097 4472.00 4383.84 66.00
2181 115.0000 0.917842 4877.00 4861.49 69.00
2182 115.0500 0.917587 5473.00 5350.06 73.00
2183 115.1000 0.917332 6043.00 5776.70 77.00
2184 115.1500 0.917078 6464.00 6067.92 80.00
2185 115.2000 0.916824 6449.00 6169.16 80.00
2186 115.2500 0.916570 6497.00 6061.09 80.00
2187 115.3000 0.916317 5933.00 5766.18 77.00
2188 115.3500 0.916064 5509.00 5342.29 74.00
2189 115.4000 0.915811 4989.00 4866.63 70.00
2190 115.4500 0.915559 4609.00 4416.55 67.00
2191 115.5000 0.915306 4138.00 4055.05 64.00
2192 115.5500 0.915055 3878.00 3822.81 62.00
2193 115.6000 0.914803 3833.00 3739.04 61.00
2194 115.6500 0.914552 4103.00 3805.64 64.00
2195 115.7000 0.914301 4281.00 4011.64 65.00
2196 115.7500 0.914050 4632.00 4335.74 68.00
2197 115.8000 0.913800 5048.00 4748.02 71.00
2198 115.8500 0.913550 5484.00 5211.43 74.00
2199 115.9000 0.913300 6055.00 5684.18 77.00
2200 115.9500 0.913051 6329.00 6124.51 79.00
2201 116.0000 0.912802 6603.00 6493.98 81.00
2202 116.0500 0.912553 6714.00 6760.69 81.00
2203 116.1000 0.912305 6667.00 6901.90 81.00
2204 116.1500 0.912057 6833.00 6907.33 82.00
2205 116.2000 0.911809 6868.00 6783.84 82.00
2206 116.2500 0.911561 6585.00 6559.02 81.00
2207 116.3000 0.911314 6404.00 6281.53 80.00
2208 116.3500 0.911067 6320.00 6013.69 79.00
2209 116.4000 0.910821 6230.00 5818.94 78.00
2210 116.4500 0.910575 6031.00 5744.23 77.00
2211 116.5000 0.910329 6210.00 5806.14 78.00
2212 116.5500 0.910083 6305.00 5984.29 79.00
2213 116.6000 0.909838 6635.00 6226.39 81.00
2214 116.6500 0.909593 6800.00 6463.49 82.00
2215 116.7000 0.909348 6972.00 6631.76 83.00
2216 116.7500 0.909103 6911.00 6693.79 83.00
2217 116.8000 0.908859 7216.00 6652.81 84.00
2218 116.8500 0.908616 6883.00 6554.45 82.00
2219 116.9000 0.908372 6762.00 6474.34 82.00
2220 116.9500 0.908129 6767.00 6494.74 82.00
2221 117.0000 0.907886 6836.00 6676.99 82.00
2222 117.0500 0.907643 7244.00 7037.85 85.00
2223 117.1000 0.907401 7988.00 7538.45 89.00
2224 117.1500 0.907159 8564.00 8089.20 92.00
2225 117.2000 0.906917 9116.00 8571.00 95.00
2226 117.2500 0.906676 9483.00 8865.86 97.00
2227 117.3000 0.906435 9145.00 8889.36 95.00
2228 117.3500 0.906194 8701.00 8612.00 93.00
2229 117.4000 0.905954 8105.00 8064.54 90.00
2230 117.4500 0.905713 7294.00 7325.62 85.00
2231 117.5000 0.905473 6378.00 6498.51 79.00
2232 117.5500 0.905234 5531.00 5683.19 74.00
2233 117.6000 0.904995 4914.00 4956.52 70.00
2234 117.6500 0.904756 4582.00 4362.55 67.00
2235 117.7000 0.904517 3980.00 3913.64 63.00
2236 117.7500 0.904278 3685.00 3599.23 60.00
2237 117.8000 0.904040 3494.00 3395.63 59.00
2238 117.8500 0.903803 3326.00 3275.57 57.00
2239 117.9000 0.903565 3227.00 3213.83 56.00
2240 117.9500 0.903328 3175.00 3189.58 56.00
2241 118.0000 0.903091 3181.00 3187.05 56.00
2242 118.0500 0.902854 3267.00 3194.93 57.00
2243 118.1000 0.902618 3223.00 3205.99 56.00
2244 118.1500 0.902382 3244.00 3216.77 56.00
2245 118.2000 0.902146 3285.00 3227.59 57.00
2246 118.2500 0.901911 3323.00 3242.22 57.00
2247 118.3000 0.901676 3249.00 3267.21 57.00
2248 118.3500 0.901441 3338.00 3310.51 57.00
2249 118.4000 0.901206 3380.00 3379.54 58.00
2250 118.4500 0.900972 3558.00 3479.29 59.00
2251 118.5000 0.900738 3636.00 3610.52 60.00
2252 118.5500 0.900504 3870.00 3768.73 62.00
2253 118.6000 0.900271 4073.00 3945.03 63.00
2254 118.6500 0.900038 4236.00 4127.46 65.00
2255 118.7000 0.899805 4422.00 4304.57 66.00
2256 118.7500 0.899573 4592.00 4468.73 67.00
2257 118.8000 0.899340 4629.00 4618.59 68.00
2258 118.8500 0.899108 4521.00 4760.07 67.00
2259 118.9000 0.898877 4652.00 4903.59 68.00
2260 118.9500 0.898645 4997.00 5059.67 70.00
2261 119.0000 0.898414 5076.00 5232.95 71.00
2262 119.0500 0.898184 5228.00 5417.31 72.00
2263 119.1000 0.897953 5405.00 5594.61 73.00
2264 119.1500 0.897723 5632.00 5737.40 75.00
2265 119.2000 0.897493 5660.00 5815.58 75.00
2266 119.2500 0.897263 5830.00 5804.92 76.00
2267 119.3000 0.897034 5666.00 5694.41 75.00
2268 119.3500 0.896805 5481.00 5490.33 74.00
2269 119.4000 0.896576 5136.00 5215.50 71.00
2270 119.4500 0.896348 4782.00 4904.48 69.00
2271 119.5000 0.896120 4523.00 4595.95 67.00
2272 119.5500 0.895892 4270.00 4325.16 65.00
2273 119.6000 0.895664 4142.00 4117.08 64.00
2274 119.6500 0.895437 3997.00 3983.69 63.00
2275 119.7000 0.895210 3826.00 3924.64 61.00
2276 119.7500 0.894983 3877.00 3931.91 62.00
2277 119.8000 0.894757 3962.00 3996.83 62.00
2278 119.8500 0.894531 4117.00 4117.93 64.00
2279 119.9000 0.894305 4277.00 4306.38 65.00
2280 119.9500 0.894079 4558.00 4586.72 67.00
2281 120.0000 0.893854 4928.00 4990.31 70.00
2282 120.0500 0.893629 5308.00 5543.05 72.00
2283 120.1000 0.893404 6182.00 6249.10 78.00
2284 120.1500 0.893179 6963.00 7077.18 83.00
2285 120.2000 0.892955 8082.00 7955.62 89.00
2286 120.2500 0.892731 8950.00 8779.25 94.00
2287 120.3000 0.892508 9718.00 9431.65 98.00
2288 120.3500 0.892284 10079.00 9812.23 100.00
2289 120.4000 0.892061 9951.00 9861.88 99.00
2290 120.4500 0.891839 9591.00 9577.90 97.00
2291 120.5000 0.891616 8950.00 9011.80 94.00
2292 120.5500 0.891394 8076.00 8252.56 89.00
2293 120.6000 0.891172 7136.00 7402.41 84.00
2294 120.6500 0.890950 6241.00 6555.05 79.00
2295 120.7000 0.890729 5622.00 5779.35 74.00
2296 120.7500 0.890508 5063.00 5115.56 71.00
2297 120.8000 0.890287 4608.00 4578.40 67.00
2298 120.8500 0.890066 4286.00 4164.27 65.00
2299 120.9000 0.889846 3918.00 3859.52 62.00
2300 120.9500 0.889626 3794.00 3646.01 61.00
2301 121.0000 0.889407 3599.00 3505.60 59.00
2302 121.0500 0.889187 3438.00 3422.54 58.00
2303 121.1000 0.888968 3350.00 3384.05 57.00
2304 121.1500 0.888749 3479.00 3380.79 58.00
2305 121.2000 0.888530 3409.00 3405.90 58.00
2306 121.2500 0.888312 3479.00 3454.17 58.00
2307 121.3000 0.888094 3532.00 3520.94 59.00
2308 121.3500 0.887876 3643.00 3601.60 60.00
2309 121.4000 0.887659 3699.00 3691.43 60.00
2310 121.4500 0.887442 3763.00 3786.09 61.00
2311 121.5000 0.887225 3788.00 3882.23 61.00
2312 121.5500 0.887008 3918.00 3977.92 62.00
2313 121.6000 0.886792 4027.00 4072.78 63.00
2314 121.6500 0.886576 4130.00 4167.04 64.00
2315 121.7000 0.886360 4298.00 4260.15 65.00
2316 121.7500 0.886144 4237.00 4349.13 65.00
2317 121.8000 0.885929 4280.00 4427.27 65.00
2318 121.8500 0.885714 4417.00 4484.46 66.00
2319 121.9000 0.885499 4355.00 4508.91 65.00
2320 121.9500 0.885285 4374.00 4490.39 66.00
2321 122.0000 0.885070 4305.00 4423.80 65.00
2322 122.0500 0.884856 4102.00 4311.52 64.00
2323 122.1000 0.884643 4011.00 4163.76 63.00
2324 122.1500 0.884429 4015.00 3996.36 63.00
2325 122.2000 0.884216 3731.00 3827.16 61.00
2326 122.2500 0.884003 3544.00 3672.27 59.00
2327 122.3000 0.883791 3400.00 3543.11 58.00
2328 122.3500 0.883579 3271.00 3445.69 57.00
2329 122.4000 0.883367 3282.00 3381.47 57.00
2330 122.4500 0.883155 3203.00 3349.18 56.00
2331 122.5000 0.882943 3157.00 3346.76 56.00
2332 122.5500 0.882732 3242.00 3372.51 56.00
2333 122.6000 0.882521 3231.00 3425.21 56.00
2334 122.6500 0.882310 3395.00 3503.15 58.00
2335 122.7000 0.882100 3305.00 3602.60 57.00
2336 122.7500 0.881890 3440.00 3716.34 58.00
2337 122.8000 0.881680 3555.00 3833.27 59.00
2338 122.8500 0.881470 3681.00 3939.27 60.00
2339 122.9000 0.881261 3799.00 4019.47 61.00
2340 122.9500 0.881052 3837.00 4061.74 61.00
2341 123.0000 0.880843 3936.00 4059.46 62.00
2342 123.0500 0.880635 3716.00 4013.39 60.00
2343 123.1000 0.880426 3696.00 3931.43 60.00
2344 123.1500 0.880218 3477.00 3826.64 58.00
2345 123.2000 0.880011 3359.00 3713.88 57.00
2346 123.2500 0.879803 3346.00 3606.79 57.00
2347 123.3000 0.879596 3373.00 3515.71 58.00
2348 123.3500 0.879389 3303.00 3447.24 57.00
2349 123.4000 0.879182 3209.00 3405.46 56.00
2350 123.4500 0.878976 3293.00 3394.06 57.00
2351 123.5000 0.878770 3296.00 3419.21 57.00
2352 123.5500 0.878564 3464.00 3491.78 58.00
2353 123.6000 0.878358 3770.00 3628.70 61.00
2354 123.6500 0.878153 3847.00 3851.74 62.00
2355 123.7000 0.877948 4188.00 4184.16 64.00
2356 123.7500 0.877743 4721.00 4644.03 68.00
2357 123.8000 0.877538 5253.00 5235.11 72.00
2358 123.8500 0.877334 5850.00 5938.86 76.00
2359 123.9000 0.877130 6734.00 6708.78 82.00
2360 123.9500 0.876926 7579.00 7471.78 87.00
2361 124.0000 0.876723 8340.00 8137.99 91.00
2362 124.0500 0.876519 8798.00 8617.06 93.00
2363 124.1000 0.876316 9003.00 8839.48 94.00
2364 124.1500 0.876113 8833.00 8773.20 93.00
2365 124.2000 0.875911 8412.00 8432.80 91.00
2366 124.2500 0.875709 7762.00 7877.08 88.00
2367 124.3000 0.875507 7173.00 7197.21 84.00
2368 124.3500 0.875305 6458.00 6497.54 80.00
2369 124.4000 0.875104 5737.00 5877.78 75.00
2370 124.4500 0.874902 5556.00 5418.63 74.00
2371 124.5000 0.874701 5342.00 5174.05 73.00
2372 124.5500 0.874501 5448.00 5167.35 73.00
2373 124.6000 0.874300 5490.00 5391.47 74.00
2374 124.6500 0.874100 6028.00 5809.97 77.00
2375 124.7000 0.873900 6586.00 6359.86 81.00
2376 124.7500 0.873701 7158.00 6956.93 84.00
2377 124.8000 0.873501 7732.00 7507.34 87.00
2378 124.8500 0.873302 8369.00 7922.15 91.00
2379 124.9000 0.873103 8282.00 8134.21 91.00
2380 124.9500 0.872905 7969.00 8111.62 89.00
2381 125.0000 0.872706 7864.00 7863.38 88.00
2382 125.0500 0.872508 7249.00 7435.10 85.00
2383 125.1000 0.872310 6636.00 6895.95 81.00
2384 125.1500 0.872113 6094.00 6322.78 78.00
2385 125.2000 0.871916 5722.00 5783.40 75.00
2386 125.2500 0.871718 5315.00 5329.31 72.00
2387 125.3000 0.871522 5098.00 4991.57 71.00
2388 125.3500 0.871325 4840.00 4784.07 69.00
2389 125.4000 0.871129 4821.00 4708.27 69.00
2390 125.4500 0.870933 5031.00 4756.91 70.00
2391 125.5000 0.870737 5148.00 4916.48 71.00
2392 125.5500 0.870541 5290.00 5168.25 72.00
2393 125.6000 0.870346 5682.00 5489.58 75.00
2394 125.6500 0.870151 6047.00 5856.16 77.00
2395 125.7000 0.869956 6391.00 6246.23 79.00
2396 125.7500 0.869762 6661.00 6643.89 81.00
2397 125.8000 0.869567 7075.00 7039.96 84.00
2398 125.8500 0.869373 7285.00 7431.25 85.00
2399 125.9000 0.869180 7744.00 7814.47 88.00
2400 125.9500 0.868986 8115.00 8182.34 90.00
2401 126.0000 0.868793 8746.00 8520.66 93.00
2402 126.0500 0.868600 8835.00 8810.35 93.00
2403 126.1000 0.868407 8932.00 9035.10 94.00
2404 126.1500 0.868214 9195.00 9190.15 95.00
2405 126.2000 0.868022 9544.00 9289.74 97.00
2406 126.2500 0.867830 9638.00 9368.39 98.00
2407 126.3000 0.867638 9949.00 9474.32 99.00
2408 126.3500 0.867447 10057.00 9655.88 100.00
2409 126.4000 0.867256 10314.00 9944.58 101.00
2410 126.4500 0.867065 10737.00 10340.30 103.00
2411 126.5000 0.866874 11209.00 10804.10 105.00
2412 126.5500 0.866683 11583.00 11260.80 107.00
2413 126.6000 0.866493 12087.00 11614.70 109.00
2414 126.6500 0.866303 12089.00 11771.20 109.00
2415 126.7000 0.866113 11740.00 11660.10 108.00
2416 126.7500 0.865924 11563.00 11253.40 107.00
2417 126.8000 0.865734 10615.00 10572.50 103.00
2418 126.8500 0.865545 9624.00 9681.75 98.00
2419 126.9000 0.865356 8678.00 8672.20 93.00
2420 126.9500 0.865168 7660.00 7641.19 87.00
2421 127.0000 0.864980 6700.00 6674.50 81.00
2422 127.0500 0.864792 5862.00 5832.25 76.00
2423 127.1000 0.864604 5317.00 5145.69 72.00
2424 127.1500 0.864416 4895.00 4619.73 69.00
2425 127.2000 0.864229 4698.00 4239.92 68.00
2426 127.2500 0.864042 4241.00 3981.32 65.00
2427 127.3000 0.863855 4107.00 3815.37 64.00
2428 127.3500 0.863669 3865.00 3715.70 62.00
2429 127.4000 0.863482 3803.00 3660.92 61.00
2430 127.4500 0.863296 3551.00 3635.60 59.00
2431 127.5000 0.863110 3678.00 3629.74 60.00
2432 127.5500 0.862925 3573.00 3637.53 59.00
2433 127.6000 0.862739 3623.00 3655.71 60.00
2434 127.6500 0.862554 3551.00 3682.05 59.00
2435 127.7000 0.862369 3788.00 3714.16 61.00
2436 127.7500 0.862185 3676.00 3748.74 60.00
2437 127.8000 0.862000 3712.00 3781.64 60.00
2438 127.8500 0.861816 3607.00 3808.30 60.00
2439 127.9000 0.861632 3631.00 3824.67 60.00
2440 127.9500 0.861449 3688.00 3828.12 60.00
2441 128.0000 0.861265 3706.00 3818.14 60.00
2442 128.0500 0.861082 3645.00 3796.49 60.00
2443 128.1000 0.860899 3711.00 3767.09 60.00
2444 128.1500 0.860716 3610.00 3735.37 60.00
2445 128.2000 0.860534 3501.00 3708.11 59.00
2446 128.2500 0.860352 3550.00 3693.36 59.00
2447 128.3000 0.860170 3564.00 3701.35 59.00
2448 128.3500 0.859988 3659.00 3745.87 60.00
2449 128.4000 0.859807 3934.00 3846.02 62.00
2450 128.4500 0.859625 4090.00 4027.23 63.00
2451 128.5000 0.859444 4375.00 4320.94 66.00
2452 128.5500 0.859264 4846.00 4760.97 69.00
2453 128.6000 0.859083 5380.00 5376.98 73.00
2454 128.6500 0.858903 6125.00 6185.30 78.00
2455 128.7000 0.858723 7188.00 7175.83 84.00
2456 128.7500 0.858543 8262.00 8305.01 90.00
2457 128.8000 0.858363 9499.00 9490.26 97.00
2458 128.8500 0.858184 10913.00 10618.00 104.00
2459 128.9000 0.858005 11831.00 11558.80 108.00
2460 128.9500 0.857826 12468.00 12191.30 111.00
2461 129.0000 0.857647 12726.00 12428.00 112.00
2462 129.0500 0.857469 12249.00 12234.80 110.00
2463 129.1000 0.857291 11455.00 11639.90 107.00
2464 129.1500 0.857113 10364.00 10726.40 101.00
2465 129.2000 0.856935 9189.00 9613.37 95.00
2466 129.2500 0.856758 8154.00 8431.60 90.00
2467 129.3000 0.856581 6954.00 7297.30 83.00
2468 129.3500 0.856404 6259.00 6295.99 79.00
2469 129.4000 0.856227 5444.00 5475.17 73.00
2470 129.4500 0.856051 4984.00 4846.63 70.00
2471 129.5000 0.855874 4718.00 4396.14 68.00
2472 129.5500 0.855698 4262.00 4093.66 65.00
2473 129.6000 0.855523 4121.00 3904.79 64.00
2474 129.6500 0.855347 4026.00 3797.24 63.00
2475 129.7000 0.855172 3897.00 3745.32 62.00
2476 129.7500 0.854997 3835.00 3730.62 61.00
2477 129.8000 0.854822 3716.00 3741.11 60.00
2478 129.8500 0.854647 3666.00 3769.41 60.00
2479 129.9000 0.854473 3681.00 3811.00 60.00
2480 129.9500 0.854299 3757.00 3862.84 61.00
2481 130.0000 0.854125 3792.00 3922.43 61.00
2482 130.0500 0.853951 3834.00 3987.67 61.00
2483 130.1000 0.853778 3967.00 4056.85 62.00
2484 130.1500 0.853605 3877.00 4129.08 62.00
2485 130.2000 0.853432 3993.00 4204.30 63.00
2486 130.2500 0.853259 4154.00 4283.17 64.00
2487 130.3000 0.853086 4233.00 4367.03 65.00
2488 130.3500 0.852914 4465.00 4457.67 66.00
2489 130.4000 0.852742 4576.00 4558.25 67.00
2490 130.4500 0.852570 4690.00 4674.44 68.00
2491 130.5000 0.852399 4705.00 4816.77 68.00
2492 130.5500 0.852227 5042.00 5002.65 71.00
2493 130.6000 0.852056 5349.00 5256.85 73.00
2494 130.6500 0.851885 5713.00 5610.45 75.00
2495 130.7000 0.851715 5975.00 6094.64 77.00
2496 130.7500 0.851544 6581.00 6733.75 81.00
2497 130.8000 0.851374 7565.00 7534.78 86.00
2498 130.8500 0.851204 8737.00 8480.74 93.00
2499 130.9000 0.851034 9941.00 9528.78 99.00
2500 130.9500 0.850865 11209.00 10612.30 105.00
2501 131.0000 0.850696 12540.00 11655.60 111.00
2502 131.0500 0.850527 13265.00 12588.10 115.00
2503 131.1000 0.850358 13880.00 13361.30 117.00
2504 131.1500 0.850189 14257.00 13957.60 119.00
2505 131.2000 0.850021 14227.00 14389.00 119.00
2506 131.2500 0.849853 14607.00 14687.60 120.00
2507 131.3000 0.849685 15049.00 14887.60 122.00
2508 131.3500 0.849517 15536.00 15010.50 124.00
2509 131.4000 0.849350 15839.00 15054.60 126.00
2510 131.4500 0.849182 15996.00 14996.40 127.00
2511 131.5000 0.849015 15565.00 14801.90 125.00
2512 131.5500 0.848849 15220.00 14441.50 124.00
2513 131.6000 0.848682 14086.00 13904.60 120.00
2514 131.6500 0.848516 13386.00 13206.50 117.00
2515 131.7000 0.848350 12621.00 12386.40 114.00
2516 131.7500 0.848184 11176.00 11499.00 107.00
2517 131.8000 0.848018 10457.00 10601.40 104.00
2518 131.8500 0.847853 10006.00 9743.44 102.00
2519 131.9000 0.847688 9132.00 8961.77 97.00
2520 131.9500 0.847523 8451.00 8278.66 94.00
2521 132.0000 0.847358 8107.00 7705.13 92.00
2522 132.0500 0.847193 7546.00 7242.76 89.00
2523 132.1000 0.847029 7358.00 6887.03 88.00
2524 132.1500 0.846865 7095.00 6626.47 87.00
2525 132.2000 0.846701 6790.00 6443.59 85.00
2526 132.2500 0.846538 6667.00 6315.18 84.00
2527 132.3000 0.846374 6306.00 6214.45 82.00
2528 132.3500 0.846211 6140.00 6115.57 81.00
2529 132.4000 0.846048 6108.00 5998.23 81.00
2530 132.4500 0.845886 5809.00 5851.99 79.00
2531 132.5000 0.845723 5588.00 5678.32 78.00
2532 132.5500 0.845561 5262.00 5489.52 76.00
2533 132.6000 0.845399 5033.00 5305.78 74.00
2534 132.6500 0.845237 4963.00 5149.72 74.00
2535 132.7000 0.845075 4871.00 5041.91 73.00
2536 132.7500 0.844914 4823.00 4996.09 73.00
2537 132.8000 0.844753 4987.00 5016.81 74.00
2538 132.8500 0.844592 5045.00 5098.60 75.00
2539 132.9000 0.844431 5286.00 5227.21 77.00
2540 132.9500 0.844271 5481.00 5381.87 78.00
2541 133.0000 0.844110 5582.00 5539.02 79.00
2542 133.0500 0.843950 5529.00 5675.76 79.00
2543 133.1000 0.843791 5648.00 5773.46 80.00
2544 133.1500 0.843631 5651.00 5820.13 80.00
2545 133.2000 0.843472 5490.00 5811.40 79.00
2546 133.2500 0.843313 5489.00 5750.35 79.00
2547 133.3000 0.843154 5367.00 5646.06 79.00
2548 133.3500 0.842995 5170.00 5511.62 77.00
2549 133.4000 0.842836 4993.00 5362.08 76.00
2550 133.4500 0.842678 4966.00 5213.46 76.00
2551 133.5000 0.842520 4895.00 5081.69 76.00
2552 133.5500 0.842362 4879.00 4982.65 76.00
2553 133.6000 0.842205 4830.00 4931.61 75.00
2554 133.6500 0.842047 4871.00 4942.45 76.00
2555 133.7000 0.841890 4928.00 5026.02 77.00
2556 133.7500 0.841733 5077.00 5187.68 78.00
2557 133.8000 0.841576 5318.00 5424.51 80.00
2558 133.8500 0.841420 5557.00 5723.54 82.00
2559 133.9000 0.841264 6034.00 6061.06 85.00
2560 133.9500 0.841107 6438.00 6404.17 88.00
2561 134.0000 0.840952 6878.00 6714.74 92.00
2562 134.0500 0.840796 7047.00 6954.59 93.00
2563 134.1000 0.840640 7063.00 7092.31 93.00
2564 134.1500 0.840485 6979.00 7108.38 93.00
2565 134.2000 0.840330 6755.00 6998.58 91.00
2566 134.2500 0.840176 6373.00 6774.64 89.00
2567 134.3000 0.840021 6126.00 6461.42 87.00
2568 134.3500 0.839867 5598.00 6092.16 84.00
2569 134.4000 0.839713 5298.00 5702.61 82.00
2570 134.4500 0.839559 5021.00 5325.36 80.00
2571 134.5000 0.839405 4645.00 4986.36 77.00
2572 134.5500 0.839251 4463.00 4702.25 75.00
2573 134.6000 0.839098 4241.00 4481.29 74.00
2574 134.6500 0.838945 4111.00 4324.22 73.00
2575 134.7000 0.838792 4138.00 4227.19 73.00
2576 134.7500 0.838640 4027.00 4183.95 72.00
2577 134.8000 0.838487 4208.00 4187.59 74.00
2578 134.8500 0.838335 4254.00 4231.79 74.00
2579 134.9000 0.838183 4356.00 4311.37 75.00
2580 134.9500 0.838031 4415.00 4422.09 76.00
2581 135.0000 0.837880 4657.00 4560.26 78.00
2582 135.0500 0.837728 4775.00 4722.25 79.00
2583 135.1000 0.837577 4768.00 4903.49 80.00
2584 135.1500 0.837426 5038.00 5098.25 82.00
2585 135.2000 0.837276 5234.00 5298.37 84.00
2586 135.2500 0.837125 5257.00 5493.50 84.00
2587 135.3000 0.836975 5391.00 5671.06 85.00
2588 135.3500 0.836825 5508.00 5817.04 86.00
2589 135.4000 0.836675 5527.00 5918.04 87.00
2590 135.4500 0.836526 5738.00 5962.82 89.00
2591 135.5000 0.836376 5967.00 5944.80 90.00
2592 135.5500 0.836227 5908.00 5863.49 90.00
2593 135.6000 0.836078 5593.00 5725.07 88.00
2594 135.6500 0.835929 5436.00 5541.55 87.00
2595 135.7000 0.835781 5444.00 5329.34 87.00
2596 135.7500 0.835632 4979.00 5106.36 83.00
2597 135.8000 0.835484 4718.00 4889.93 81.00
2598 135.8500 0.835336 4598.00 4694.38 80.00
2599 135.9000 0.835189 4503.00 4529.82 80.00
2600 135.9500 0.835041 4241.00 4402.34 78.00
2601 136.0000 0.834894 4160.00 4314.02 77.00
2602 136.0500 0.834747 4145.00 4264.23 77.00
2603 136.1000 0.834600 4255.00 4250.77 78.00
2604 136.1500 0.834453 4137.00 4271.06 77.00
2605 136.2000 0.834307 4212.00 4323.13 78.00
2606 136.2500 0.834161 4191.00 4406.29 78.00
2607 136.3000 0.834014 4297.00 4521.27 79.00
2608 136.3500 0.833869 4517.00 4670.21 81.00
2609 136.4000 0.833723 4622.00 4855.88 82.00
2610 136.4500 0.833578 4986.00 5080.64 86.00
2611 136.5000 0.833432 5535.00 5344.87 91.00
2612 136.5500 0.833287 5787.00 5645.97 93.00
2613 136.6000 0.833143 6206.00 5977.19 96.00
2614 136.6500 0.832998 6676.00 6327.43 100.00
2615 136.7000 0.832854 6995.00 6681.87 103.00
2616 136.7500 0.832710 7154.00 7022.95 104.00
2617 136.8000 0.832566 7507.00 7332.64 107.00
2618 136.8500 0.832422 7895.00 7593.45 110.00
2619 136.9000 0.832278 7811.00 7790.67 109.00
2620 136.9500 0.832135 7674.00 7912.51 109.00
2621 137.0000 0.831992 7672.00 7950.97 109.00
2622 137.0500 0.831849 7617.00 7902.31 109.00
2623 137.1000 0.831706 7479.00 7767.48 108.00
2624 137.1500 0.831564 7462.00 7552.29 108.00
2625 137.2000 0.831422 7195.00 7268.01 106.00
2626 137.2500 0.831280 7009.00 6931.35 105.00
2627 137.3000 0.831138 6691.00 6563.09 103.00
2628 137.3500 0.830996 6061.00 6187.30 98.00
2629 137.4000 0.830855 5953.00 5828.06 97.00
2630 137.4500 0.830713 5509.00 5508.06 94.00
2631 137.5000 0.830572 5387.00 5246.44 93.00
2632 137.5500 0.830432 5036.00 5057.02 90.00
2633 137.6000 0.830291 5012.00 4948.55 90.00
2634 137.6500 0.830151 5053.00 4924.76 91.00
2635 137.7000 0.830010 5149.00 4985.92 92.00
2636 137.7500 0.829870 5327.00 5130.22 93.00
2637 137.8000 0.829731 5511.00 5355.32 95.00
2638 137.8500 0.829591 5857.00 5659.01 98.00
2639 137.9000 0.829452 6190.00 6040.20 101.00
2640 137.9500 0.829312 6607.00 6496.74 105.00
2641 138.0000 0.829173 7036.00 7024.53 108.00
2642 138.0500 0.829035 7636.00 7613.50 113.00
2643 138.1000 0.828896 8206.00 8245.39 118.00
2644 138.1500 0.828758 9151.00 8892.01 124.00
2645 138.2000 0.828619 10003.00 9513.42 130.00
2646 138.2500 0.828481 10441.00 10062.50 134.00
2647 138.3000 0.828344 11108.00 10488.60 138.00
2648 138.3500 0.828206 11158.00 10746.60 139.00
2649 138.4000 0.828069 11410.00 10803.60 140.00
2650 138.4500 0.827932 10894.00 10645.70 138.00
2651 138.5000 0.827795 10186.00 10281.80 133.00
2652 138.5500 0.827658 9462.00 9742.36 129.00
2653 138.6000 0.827521 8705.00 9075.17 124.00
2654 138.6500 0.827385 8243.00 8337.42 121.00
2655 138.7000 0.827249 7305.00 7587.21 114.00
2656 138.7500 0.827113 6639.00 6875.44 109.00
2657 138.8000 0.826977 6202.00 6240.93 105.00
2658 138.8500 0.826842 5551.00 5706.61 100.00
2659 138.9000 0.826706 5348.00 5280.69 98.00
2660 138.9500 0.826571 5200.00 4958.92 97.00
2661 139.0000 0.826436 4902.00 4728.73 94.00
2662 139.0500 0.826302 4827.00 4572.78 94.00
2663 139.1000 0.826167 4533.00 4472.83 91.00
2664 139.1500 0.826033 4289.00 4412.18 89.00
2665 139.2000 0.825899 4341.00 4377.22 89.00
2666 139.2500 0.825765 4439.00 4358.04 90.00
2667 139.3000 0.825631 4335.00 4348.29 90.00
2668 139.3500 0.825498 4257.00 4344.69 89.00
2669 139.4000 0.825364 4345.00 4346.24 90.00
2670 139.4500 0.825231 4355.00 4353.47 90.00
2671 139.5000 0.825098 4494.00 4367.61 92.00
2672 139.5500 0.824965 4547.00 4390.01 93.00
2673 139.6000 0.824833 4641.00 4421.61 94.00
2674 139.6500 0.824701 4920.00 4462.75 97.00
2675 139.7000 0.824569 4849.00 4512.95 96.00
2676 139.7500 0.824437 4859.00 4570.92 97.00
2677 139.8000 0.824305 4796.00 4634.76 96.00
2678 139.8500 0.824173 5005.00 4701.93 98.00
2679 139.9000 0.824042 4971.00 4769.58 98.00
2680 139.9500 0.823911 4803.00 4834.43 97.00
2681 140.0000 0.823780 4935.00 4893.11 98.00
2682 140.0500 0.823649 4913.00 4942.23 98.00
2683 140.1000 0.823519 4820.00 4978.60 98.00
2684 140.1500 0.823388 5047.00 4999.70 100.00
2685 140.2000 0.823258 5166.00 5003.94 101.00
2686 140.2500 0.823128 4932.00 4991.18 99.00
2687 140.3000 0.822999 4825.00 4962.98 98.00
2688 140.3500 0.822869 4727.00 4922.78 98.00
2689 140.4000 0.822740 4802.00 4875.68 99.00
2690 140.4500 0.822611 4717.00 4828.10 98.00
2691 140.5000 0.822482 4664.00 4786.98 98.00
2692 140.5500 0.822353 4675.00 4758.90 98.00
2693 140.6000 0.822224 4686.00 4749.12 98.00
2694 140.6500 0.822096 4657.00 4760.77 98.00
2695 140.7000 0.821968 4852.00 4794.36 100.00
2696 140.7500 0.821840 4898.00 4847.60 101.00
2697 140.8000 0.821712 4813.00 4915.71 100.00
2698 140.8500 0.821585 4956.00 4992.12 102.00
2699 140.9000 0.821457 5138.00 5069.52 104.00
2700 140.9500 0.821330 5210.00 5140.71 105.00
2701 141.0000 0.821203 5322.00 5199.79 106.00
2702 141.0500 0.821076 5053.00 5242.78 104.00
2703 141.1000 0.820950 5138.00 5268.13 105.00
2704 141.1500 0.820823 5241.00 5276.83 106.00
2705 141.2000 0.820697 5229.00 5272.25 106.00
2706 141.2500 0.820571 4935.00 5259.78 104.00
2707 141.3000 0.820445 5139.00 5246.45 106.00
2708 141.3500 0.820320 5009.00 5240.30 105.00
2709 141.4000 0.820194 5026.00 5249.81 105.00
2710 141.4500 0.820069 5255.00 5283.23 108.00
2711 141.5000 0.819944 5374.00 5347.70 109.00
2712 141.5500 0.819819 5547.00 5448.68 111.00
2713 141.6000 0.819694 5604.00 5589.23 112.00
2714 141.6500 0.819570 5918.00 5769.90 115.00
2715 141.7000 0.819446 6327.00 5989.12 119.00
2716 141.7500 0.819322 6768.00 6243.89 124.00
2717 141.8000 0.819198 6985.00 6531.74 126.00
2718 141.8500 0.819074 7445.00 6851.87 130.00
2719 141.9000 0.818951 7930.00 7207.55 135.00
2720 141.9500 0.818827 8071.00 7606.28 136.00
2721 142.0000 0.818704 8488.00 8059.34 140.00
2722 142.0500 0.818581 8883.00 8580.81 144.00
2723 142.1000 0.818459 9634.00 9183.29 150.00
2724 142.1500 0.818336 10522.00 9875.63 157.00
2725 142.2000 0.818214 11263.00 10657.70 163.00
2726 142.2500 0.818092 12296.00 11517.30 171.00
2727 142.3000 0.817970 13257.00 12430.20 178.00
2728 142.3500 0.817848 14233.00 13358.80 184.00
2729 142.4000 0.817726 14801.00 14258.50 188.00
2730 142.4500 0.817605 15494.00 15079.20 193.00
2731 142.5000 0.817484 15805.00 15773.70 196.00
2732 142.5500 0.817363 16874.00 16302.90 202.00
2733 142.6000 0.817242 17055.00 16640.20 204.00
2734 142.6500 0.817121 17008.00 16775.70 204.00
2735 142.7000 0.817001 17185.00 16715.70 206.00
2736 142.7500 0.816881 16822.00 16481.70 204.00
2737 142.8000 0.816761 16525.00 16107.00 202.00
2738 142.8500 0.816641 16276.00 15631.80 201.00
2739 142.9000 0.816521 15512.00 15097.20 197.00
2740 142.9500 0.816402 14963.00 14541.90 194.00
2741 143.0000 0.816283 14253.00 13996.20 190.00
2742 143.0500 0.816163 13992.00 13481.20 188.00
2743 143.1000 0.816045 13652.00 13006.50 186.00
2744 143.1500 0.815926 13324.00 12570.70 184.00
2745 143.2000 0.815807 12335.00 12165.00 178.00
2746 143.2500 0.815689 11992.00 11773.60 176.00
2747 143.3000 0.815571 11605.00 11379.40 173.00
2748 143.3500 0.815453 11180.00 10965.10 170.00
2749 143.4000 0.815335 10704.00 10517.80 167.00
2750 143.4500 0.815218 10053.00 10029.90 162.00
2751 143.5000 0.815100 9451.00 9500.82 158.00
2752 143.5500 0.814983 8906.00 8937.00 153.00
2753 143.6000 0.814866 8476.00 8350.47 150.00
2754 143.6500 0.814749 8047.00 7757.47 146.00
2755 143.7000 0.814633 7317.00 7175.99 140.00
2756 143.7500 0.814516 6865.00 6624.14 136.00
2757 143.8000 0.814400 6485.00 6117.12 132.00
2758 143.8500 0.814284 5893.00 5666.39 126.00
2759 143.9000 0.814168 5470.00 5278.77 122.00
2760 143.9500 0.814052 5345.00 4956.30 121.00
2761 144.0000 0.813937 4987.00 4697.12 117.00
2762 144.0500 0.813822 4600.00 4495.91 112.00
2763 144.1000 0.813707 4531.00 4345.65 112.00
2764 144.1500 0.813592 4320.00 4238.22 109.00
2765 144.2000 0.813477 4151.00 4165.80 107.00
2766 144.2500 0.813362 4208.00 4121.43 108.00
2767 144.3000 0.813248 4050.00 4099.28 107.00
2768 144.3500 0.813134 4115.00 4094.87 108.00
2769 144.4000 0.813020 4079.00 4104.89 107.00
2770 144.4500 0.812906 4075.00 4127.01 108.00
2771 144.5000 0.812792 3952.00 4159.44 106.00
2772 144.5500 0.812679 4041.00 4200.63 108.00
2773 144.6000 0.812566 4121.00 4248.94 109.00
2774 144.6500 0.812453 4113.00 4302.46 109.00
2775 144.7000 0.812340 4278.00 4358.84 112.00
2776 144.7500 0.812227 4287.00 4415.26 112.00
2777 144.8000 0.812115 4313.00 4468.67 112.00
2778 144.8500 0.812002 4375.00 4515.88 114.00
2779 144.9000 0.811890 4499.00 4553.99 115.00
2780 144.9500 0.811778 4551.00 4580.52 116.00
2781 145.0000 0.811666 4520.00 4593.83 116.00
2782 145.0500 0.811555 4390.00 4593.21 115.00
2783 145.1000 0.811443 4388.00 4579.01 115.00
2784 145.1500 0.811332 4415.00 4552.56 116.00
2785 145.2000 0.811221 4261.00 4516.04 114.00
2786 145.2500 0.811110 4155.00 4472.17 113.00
2787 145.3000 0.811000 4257.00 4423.95 114.00
2788 145.3500 0.810889 4183.00 4374.29 113.00
2789 145.4000 0.810779 3919.00 4325.70 110.00
2790 145.4500 0.810669 3927.00 4280.20 110.00
2791 145.5000 0.810559 3845.00 4239.08 109.00
2792 145.5500 0.810449 3918.00 4202.99 111.00
2793 145.6000 0.810340 3751.00 4171.97 109.00
2794 145.6500 0.810230 3907.00 4145.58 111.00
2795 145.7000 0.810121 3922.00 4123.13 112.00
2796 145.7500 0.810012 3784.00 4103.82 110.00
2797 145.8000 0.809903 3906.00 4086.89 112.00
2798 145.8500 0.809795 3895.00 4071.71 112.00
2799 145.9000 0.809686 3729.00 4057.83 110.00
2800 145.9500 0.809578 3936.00 4045.01 113.00
2801 146.0000 0.809470 3818.00 4033.18 112.00
2802 146.0500 0.809362 3837.00 4022.35 112.00
2803 146.1000 0.809254 3938.00 4012.61 114.00
2804 146.1500 0.809147 3871.00 4004.08 113.00
2805 146.2000 0.809040 3876.00 3996.84 113.00
2806 146.2500 0.808932 3837.00 3990.97 113.00
2807 146.3000 0.808825 3756.00 3986.56 112.00
2808 146.3500 0.808719 3673.00 3983.74 111.00
2809 146.4000 0.808612 3751.00 3982.74 113.00
2810 146.4500 0.808506 3817.00 3984.00 114.00
2811 146.5000 0.808399 3803.00 3988.24 114.00
2812 146.5500 0.808293 3960.00 3996.60 116.00
2813 146.6000 0.808187 3961.00 4010.75 117.00
2814 146.6500 0.808082 3994.00 4033.03 117.00
2815 146.7000 0.807976 4081.00 4066.57 119.00
2816 146.7500 0.807871 3943.00 4115.26 117.00
2817 146.8000 0.807766 4119.00 4183.85 120.00
2818 146.8500 0.807661 4567.00 4277.64 127.00
2819 146.9000 0.807556 4467.00 4402.38 126.00
2820 146.9500 0.807451 4766.00 4563.72 130.00
2821 147.0000 0.807347 4966.00 4766.44 133.00
2822 147.0500 0.807243 5166.00 5014.10 136.00
2823 147.1000 0.807138 5626.00 5307.78 142.00
2824 147.1500 0.807035 5919.00 5646.25 146.00
2825 147.2000 0.806931 6306.00 6024.45 151.00
2826 147.2500 0.806827 7032.00 6434.34 160.00
2827 147.3000 0.806724 7522.00 6864.83 166.00
2828 147.3500 0.806621 8023.00 7302.08 172.00
2829 147.4000 0.806518 8363.00 7731.88 176.00
2830 147.4500 0.806415 8409.00 8139.32 177.00
2831 147.5000 0.806312 9040.00 8511.52 184.00
2832 147.5500 0.806210 9439.00 8837.82 188.00
2833 147.6000 0.806108 9342.00 9111.08 188.00
2834 147.6500 0.806005 9503.00 9327.88 190.00
2835 147.7000 0.805904 9450.00 9487.57 190.00
2836 147.7500 0.805802 9723.00 9592.18 193.00
2837 147.8000 0.805700 9568.00 9645.01 192.00
2838 147.8500 0.805599 9384.00 9649.89 191.00
2839 147.9000 0.805498 9146.00 9610.29 189.00
2840 147.9500 0.805397 9513.00 9529.10 193.00
2841 148.0000 0.805296 8956.00 9408.70 187.00
2842 148.0500 0.805195 8897.00 9251.63 187.00
2843 148.1000 0.805095 9017.00 9061.18 189.00
2844 148.1500 0.804994 8961.00 8841.88 189.00
2845 148.2000 0.804894 8651.00 8600.43 186.00
2846 148.2500 0.804794 8334.00 8345.07 183.00
2847 148.3000 0.804694 8159.00 8085.60 181.00
2848 148.3500 0.804595 8134.00 7832.00 182.00
2849 148.4000 0.804495 7820.00 7593.66 178.00
2850 148.4500 0.804396 7613.00 7378.18 176.00
2851 148.5000 0.804297 7477.00 7190.51 175.00
2852 148.5500 0.804198 7367.00 7032.76 174.00
2853 148.6000 0.804100 7353.00 6904.08 175.00
2854 148.6500 0.804001 7092.00 6801.46 172.00
2855 148.7000 0.803903 7095.00 6720.78 172.00
2856 148.7500 0.803805 7114.00 6658.06 173.00
2857 148.8000 0.803706 7079.00 6610.62 173.00
2858 148.8500 0.803609 6828.00 6578.10 170.00
2859 148.9000 0.803511 6929.00 6563.13 172.00
2860 148.9500 0.803414 6998.00 6571.37 173.00
2861 149.0000 0.803316 7091.00 6611.21 175.00
2862 149.0500 0.803219 6862.00 6692.95 172.00
2863 149.1000 0.803122 6986.00 6827.48 174.00
2864 149.1500 0.803025 7098.00 7025.22 176.00
2865 149.2000 0.802929 7429.00 7294.42 181.00
2866 149.2500 0.802832 7827.00 7639.56 186.00
2867 149.3000 0.802736 8386.00 8060.72 193.00
2868 149.3500 0.802640 8758.00 8551.74 198.00
2869 149.4000 0.802544 9516.00 9101.10 207.00
2870 149.4500 0.802449 10434.00 9690.90 217.00
2871 149.5000 0.802353 11237.00 10297.40 226.00
2872 149.5500 0.802258 11934.00 10893.50 233.00
2873 149.6000 0.802162 12631.00 11448.60 240.00
2874 149.6500 0.802067 13178.00 11933.20 246.00
2875 149.7000 0.801973 13286.00 12318.70 248.00
2876 149.7500 0.801878 13405.00 12581.80 249.00
2877 149.8000 0.801784 13294.00 12705.30 249.00
2878 149.8500 0.801689 12865.00 12680.50 246.00
2879 149.9000 0.801595 12440.00 12507.00 242.00
2880 149.9500 0.801501 12154.00 12193.60 240.00
2881 150.0000 0.801407 11251.00 11756.70 231.00
2882 150.0500 0.801314 10307.00 11218.80 222.00
2883 150.1000 0.801220 9696.00 10606.80 216.00
2884 150.1500 0.801127 8976.00 9948.25 208.00
2885 150.2000 0.801034 8637.00 9271.31 205.00
2886 150.2500 0.800941 8177.00 8600.64 200.00
2887 150.3000 0.800848 7869.00 7957.63 196.00
2888 150.3500 0.800756 7702.00 7358.42 195.00
2889 150.4000 0.800663 6932.00 6813.58 185.00
2890 150.4500 0.800571 6327.00 6329.78 177.00
2891 150.5000 0.800479 5942.00 5908.74 172.00
2892 150.5500 0.800387 5950.00 5549.31 173.00
2893 150.6000 0.800295 5593.00 5247.55 168.00
2894 150.6500 0.800204 5299.00 4998.10 164.00
2895 150.7000 0.800113 5102.00 4794.86 161.00
2896 150.7500 0.800021 4828.00 4631.45 157.00
2897 150.8000 0.799930 4677.00 4501.89 155.00
2898 150.8500 0.799840 4397.00 4400.51 151.00
2899 150.9000 0.799749 4400.00 4322.34 151.00
2900 150.9500 0.799658 4267.00 4263.02 149.00
2901 151.0000 0.799568 4151.00 4218.88 147.00
2902 151.0500 0.799478 4136.00 4186.79 148.00
2903 151.1000 0.799388 4124.00 4164.17 148.00
2904 151.1500 0.799298 4070.00 4148.89 147.00
2905 151.2000 0.799209 4025.00 4139.23 147.00
2906 151.2500 0.799119 3898.00 4133.81 145.00
2907 151.3000 0.799030 3895.00 4131.55 145.00
2908 151.3500 0.798941 3959.00 4131.60 147.00
2909 151.4000 0.798852 3926.00 4133.33 146.00
2910 151.4500 0.798763 3952.00 4136.25 147.00
2911 151.5000 0.798675 3707.00 4140.03 143.00
2912 151.5500 0.798586 3647.00 4144.43 142.00
2913 151.6000 0.798498 3595.00 4149.28 142.00
2914 151.6500 0.798410 3693.00 4154.48 144.00
2915 151.7000 0.798322 3866.00 4159.96 148.00
2916 151.7500 0.798234 3783.00 4165.72 146.00
2917 151.8000 0.798147 3796.00 4171.74 147.00
2918 151.8500 0.798059 3933.00 4178.07 150.00
loop_
_pd_proc_info_excluded_regions
'from 0 to 6.000'
loop_
_restr_angle_atom_site_label_1
_restr_angle_site_symmetry_1
_restr_angle_atom_site_label_2
_restr_angle_site_symmetry_2
_restr_angle_atom_site_label_3
_restr_angle_site_symmetry_3
_restr_angle_target
_restr_angle_target_weight_param
? ? ? ? ? ? ? ?
loop_
_restr_distance_atom_site_label_1
_restr_distance_site_symmetry_1
_restr_distance_atom_site_label_2
_restr_distance_site_symmetry_2
_restr_distance_target
_restr_distance_target_weight_param
? ? ? ? ? ?
loop_
_restr_equal_angle_atom_site_label_1
_restr_equal_angle_site_symmetry_1
_restr_equal_angle_atom_site_label_2
_restr_equal_angle_site_symmetry_2
_restr_equal_angle_atom_site_label_3
_restr_equal_angle_site_symmetry_3
_restr_equal_angle_class_class_id
_restr_equal_angle_class_target_weight_param
? ? ? ? ? ? ? ?
loop_
_restr_equal_distance_atom_site_label_1
_restr_equal_distance_site_symmetry_1
_restr_equal_distance_atom_site_label_2
_restr_equal_distance_site_symmetry_2
_restr_equal_distance_class_class_id
_restr_equal_distance_class_target_weight_param
? ? ? ? ? ?
loop_
_restr_equal_torsion_atom_site_label_1
_restr_equal_torsion_site_symmetry_1
_restr_equal_torsion_atom_site_label_2
_restr_equal_torsion_site_symmetry_2
_restr_equal_torsion_atom_site_label_3
_restr_equal_torsion_site_symmetry_3
_restr_equal_torsion_atom_site_label_4
_restr_equal_torsion_site_symmetry_4
_restr_equal_torsion_class_class_id
_restr_equal_torsion_class_target_weight_param
? ? ? ? ? ? ? ? ? ?
loop_
_restr_torsion_atom_site_label_1
_restr_torsion_site_symmetry_1
_restr_torsion_atom_site_label_2
_restr_torsion_site_symmetry_2
_restr_torsion_atom_site_label_3
_restr_torsion_site_symmetry_3
_restr_torsion_atom_site_label_4
_restr_torsion_site_symmetry_4
_restr_torsion_angle_target
_restr_torsion_weight_param
? ? ? ? ? ? ? ? ? ?
loop_
_jana_atom_site_adp_c_label
_jana_atom_site_adp_c_type_symbol
_jana_atom_site_adp_c_111
_jana_atom_site_adp_c_112
_jana_atom_site_adp_c_113
_jana_atom_site_adp_c_122
_jana_atom_site_adp_c_123
_jana_atom_site_adp_c_133
_jana_atom_site_adp_c_222
_jana_atom_site_adp_c_223
_jana_atom_site_adp_c_233
_jana_atom_site_adp_c_333
? ? ? ? ? ? ? ? ? ? ? ?
loop_
_jana_atom_site_adp_d_label
_jana_atom_site_adp_d_type_symbol
_jana_atom_site_adp_d_1111
_jana_atom_site_adp_d_1112
_jana_atom_site_adp_d_1113
_jana_atom_site_adp_d_1122
_jana_atom_site_adp_d_1123
_jana_atom_site_adp_d_1133
_jana_atom_site_adp_d_1222
_jana_atom_site_adp_d_1223
_jana_atom_site_adp_d_1233
_jana_atom_site_adp_d_1333
_jana_atom_site_adp_d_2222
_jana_atom_site_adp_d_2223
_jana_atom_site_adp_d_2233
_jana_atom_site_adp_d_2333
_jana_atom_site_adp_d_3333
? ? ? ? ? ? ? ? ? ? ? ? ? ? ? ? ?
loop_
_jana_atom_site_adp_e_label
_jana_atom_site_adp_e_type_symbol
_jana_atom_site_adp_e_11111
_jana_atom_site_adp_e_11112
_jana_atom_site_adp_e_11113
_jana_atom_site_adp_e_11122
_jana_atom_site_adp_e_11123
_jana_atom_site_adp_e_11133
_jana_atom_site_adp_e_11222
_jana_atom_site_adp_e_11223
_jana_atom_site_adp_e_11233
_jana_atom_site_adp_e_11333
_jana_atom_site_adp_e_12222
_jana_atom_site_adp_e_12223
_jana_atom_site_adp_e_12233
_jana_atom_site_adp_e_12333
_jana_atom_site_adp_e_13333
_jana_atom_site_adp_e_22222
_jana_atom_site_adp_e_22223
_jana_atom_site_adp_e_22233
_jana_atom_site_adp_e_22333
_jana_atom_site_adp_e_23333
_jana_atom_site_adp_e_33333
? ? ? ? ? ? ? ? ? ? ? ? ? ? ? ? ? ? ? ? ? ? ?
loop_
_jana_atom_site_adp_f_label
_jana_atom_site_adp_f_type_symbol
_jana_atom_site_adp_f_111111
_jana_atom_site_adp_f_111112
_jana_atom_site_adp_f_111113
_jana_atom_site_adp_f_111122
_jana_atom_site_adp_f_111123
_jana_atom_site_adp_f_111133
_jana_atom_site_adp_f_111222
_jana_atom_site_adp_f_111223
_jana_atom_site_adp_f_111233
_jana_atom_site_adp_f_111333
_jana_atom_site_adp_f_112222
_jana_atom_site_adp_f_112223
_jana_atom_site_adp_f_112233
_jana_atom_site_adp_f_112333
_jana_atom_site_adp_f_113333
_jana_atom_site_adp_f_122222
_jana_atom_site_adp_f_122223
_jana_atom_site_adp_f_122233
_jana_atom_site_adp_f_122333
_jana_atom_site_adp_f_123333
_jana_atom_site_adp_f_133333
_jana_atom_site_adp_f_222222
_jana_atom_site_adp_f_222223
_jana_atom_site_adp_f_222233
_jana_atom_site_adp_f_222333
_jana_atom_site_adp_f_223333
_jana_atom_site_adp_f_233333
_jana_atom_site_adp_f_333333
? ? ? ? ? ? ? ? ? ? ? ? ? ? ? ? ? ? ? ? ? ? ? ? ? ? ? ? ? ?
