#------------------------------------------------------------------------------
#$Date: 2021-04-05 17:52:35 +0300 (Mon, 05 Apr 2021) $
#$Revision: 263770 $
#$URL: file:///home/coder/svn-repositories/cod/cif/7/70/66/7706664.cif $
#------------------------------------------------------------------------------
#
# This file is available in the Crystallography Open Database (COD),
# http://www.crystallography.net/
#
# All data on this site have been placed in the public domain by the
# contributors.
#
data_7706664
loop_
_publ_author_name
'Podda, Enrico'
'Coles, Simon J.'
'Horton, Peter N.'
'Lickiss, Paul D.'
'Bull, Okpara S.'
'Orton, James B.'
'Pintus, Anna'
'Pugh, David'
'Carla Aragoni, M.'
'Davies, Robert P.'
_publ_section_title
;
 First example of solid-state luminescent borasiloxane-based chiral
 helices assembled through N-B bonds.
;
_journal_issue                   11
_journal_name_full
'Dalton transactions (Cambridge, England : 2003)'
_journal_page_first              3782
_journal_page_last               3785
_journal_paper_doi               10.1039/d1dt00114k
_journal_volume                  50
_journal_year                    2021
_chemical_formula_moiety         'C36 H28 B2 F2 O4 Si2'
_chemical_formula_sum            'C36 H28 B2 F2 O4 Si2'
_chemical_formula_weight         640.38
_chemical_name_systematic
'8-bis(4-fluorophenyl)-2,2,6,6-tetraphenyl- 1,3,5,7,2,6,4,8-tetraoxadisiladiborocane'
_space_group_crystal_system      triclinic
_space_group_IT_number           2
_space_group_name_Hall           '-P 1'
_space_group_name_H-M_alt        'P -1'
_atom_sites_solution_hydrogens   geom
_audit_creation_method           SHELXL-2016/4
_audit_update_record
;
2020-12-21 deposited with the CCDC.	2021-02-19 downloaded from the CCDC.
;
_cell_angle_alpha                112.478(8)
_cell_angle_beta                 108.622(6)
_cell_angle_gamma                91.091(7)
_cell_formula_units_Z            1
_cell_length_a                   8.5686(6)
_cell_length_b                   9.8331(10)
_cell_length_c                   11.3579(8)
_cell_measurement_reflns_used    1572
_cell_measurement_temperature    173.00(10)
_cell_measurement_theta_max      27.1830
_cell_measurement_theta_min      3.1750
_cell_volume                     827.02(14)
_computing_cell_refinement       'CrysAlisPro 1.171.38.46 (Rigaku OD, 2015)'
_computing_data_collection       'CrysAlisPro 1.171.38.46 (Rigaku OD, 2015)'
_computing_data_reduction        'CrysAlisPro 1.171.38.46 (Rigaku OD, 2015)'
_computing_molecular_graphics    ORTEP-3
_computing_publication_material  'WinGX, enCIFer'
_computing_structure_refinement  'SHELXL-2016/4 (Sheldrick, 2016)'
_computing_structure_solution    Olex-2
_diffrn_ambient_environment      N~2~
_diffrn_ambient_temperature      173.00(10)
_diffrn_detector                 'CCD plate'
_diffrn_detector_area_resol_mean 16.0382
_diffrn_detector_type            Eos
_diffrn_measured_fraction_theta_full 0.989
_diffrn_measured_fraction_theta_max 0.989
_diffrn_measurement_device       'four-circle diffractometer'
_diffrn_measurement_device_type  'Xcalibur, Eos'
_diffrn_radiation_monochromator  graphite
_diffrn_radiation_probe          x-ray
_diffrn_radiation_type           'Mo K\a'
_diffrn_radiation_wavelength     0.71073
_diffrn_reflns_av_R_equivalents  0.0164
_diffrn_reflns_av_unetI/netI     0.0555
_diffrn_reflns_Laue_measured_fraction_full 0.989
_diffrn_reflns_Laue_measured_fraction_max 0.989
_diffrn_reflns_limit_h_max       10
_diffrn_reflns_limit_h_min       -9
_diffrn_reflns_limit_k_max       11
_diffrn_reflns_limit_k_min       -7
_diffrn_reflns_limit_l_max       13
_diffrn_reflns_limit_l_min       -13
_diffrn_reflns_number            4382
_diffrn_reflns_point_group_measured_fraction_full 0.989
_diffrn_reflns_point_group_measured_fraction_max 0.989
_diffrn_reflns_theta_full        25.022
_diffrn_reflns_theta_max         25.022
_diffrn_reflns_theta_min         3.124
_diffrn_source                   'fine-focus sealed X-ray tube'
_diffrn_source_type              'Enhance (Mo) X-ray Source'
_exptl_absorpt_coefficient_mu    0.157
_exptl_absorpt_correction_T_max  1.00000
_exptl_absorpt_correction_T_min  0.97249
_exptl_absorpt_correction_type   multi-scan
_exptl_absorpt_process_details
;
CrysAlisPro 1.171.38.46 (Rigaku Oxford Diffraction, 2015)
Empirical absorption correction using spherical harmonics,
 implemented in SCALE3 ABSPACK scaling algorithm.
;
_exptl_crystal_colour            colourless
_exptl_crystal_density_diffrn    1.286
_exptl_crystal_description       block
_exptl_crystal_F_000             332
_exptl_crystal_preparation       Luminescent
_exptl_crystal_size_max          0.300
_exptl_crystal_size_mid          0.250
_exptl_crystal_size_min          0.150
_refine_diff_density_max         0.229
_refine_diff_density_min         -0.297
_refine_diff_density_rms         0.042
_refine_ls_extinction_method     none
_refine_ls_goodness_of_fit_ref   1.026
_refine_ls_hydrogen_treatment    constr
_refine_ls_matrix_type           full
_refine_ls_number_parameters     208
_refine_ls_number_reflns         2890
_refine_ls_number_restraints     0
_refine_ls_restrained_S_all      1.026
_refine_ls_R_factor_all          0.0714
_refine_ls_R_factor_gt           0.0467
_refine_ls_shift/su_max          0.013
_refine_ls_shift/su_mean         0.001
_refine_ls_structure_factor_coef Fsqd
_refine_ls_weighting_details
'w=1/[\s^2^(Fo^2^)+(0.0445P)^2^+0.0257P] where P=(Fo^2^+2Fc^2^)/3'
_refine_ls_weighting_scheme      calc
_refine_ls_wR_factor_gt          0.0941
_refine_ls_wR_factor_ref         0.1018
_reflns_Friedel_coverage         0.000
_reflns_number_gt                2089
_reflns_number_total             2890
_reflns_threshold_expression     'I > 2\s(I)'
_cod_data_source_file            d1dt00114k2.cif
_cod_data_source_block           Compound_2
_cod_depositor_comments
'Adding full bibliography for 7706663--7706667.cif.'
_cod_original_cell_volume        827.02(13)
_cod_database_code               7706664
_shelx_shelxl_version_number     2016/4
_shelx_space_group_comment
;
The symmetry employed for this shelxl refinement is uniquely defined
by the following loop, which should always be used as a source of
symmetry information in preference to the above space-group names.
They are only intended as comments.
;
_shelx_estimated_absorpt_t_min   0.954
_shelx_estimated_absorpt_t_max   0.977
_oxdiff_exptl_absorpt_empirical_full_min 0.915
_oxdiff_exptl_absorpt_empirical_full_max 1.052
_oxdiff_exptl_absorpt_empirical_details
;
Empirical correction (ABSPACK) includes:
- Absorption correction using spherical harmonics
- Frame scaling
;
_shelx_res_file
;
TITL PDL1807 in P-1 #2
 shelx.res created by SHELXL-2016/4 at 14:30:43 on 23-May-2018
CELL  0.71073   8.5686   9.8331  11.3579  112.478  108.622   91.091
ZERR     1.00   0.0006   0.0010   0.0008    0.008    0.006    0.007
LATT   1
SFAC  C    H    B    O    SI   F
UNIT  36 28 2 4 2 2
MERG   2
OMIT     0  -1   1
OMIT     0  -2   5
SHEL  7 0.84
FMAP   2
PLAN    5
ACTA
HTAB
CONF
SIZE     0.150   0.250   0.300
BOND   $H
L.S.  1
TEMP  -100.00
WGHT    0.044500    0.025700
FVAR       8.56236
C1    1    0.287536    0.678512    0.279961    11.00000    0.02889    0.02785 =
         0.02156    0.01202    0.00965    0.00677
C2    1    0.361403    0.825256    0.324983    11.00000    0.02826    0.03370 =
         0.03266    0.01564    0.01112    0.00481
AFIX  43
H2    2    0.474493    0.857037    0.384551    11.00000   -1.20000
AFIX   0
C3    1    0.272583    0.925797    0.284289    11.00000    0.04075    0.03039 =
         0.05220    0.02319    0.01793    0.00905
AFIX  43
H3    2    0.325050    1.025545    0.316290    11.00000   -1.20000
AFIX   0
C4    1    0.108512    0.881622    0.197616    11.00000    0.04694    0.04446 =
         0.05246    0.02965    0.01332    0.02118
AFIX  43
H4    2    0.047549    0.950927    0.170603    11.00000   -1.20000
AFIX   0
C5    1    0.033036    0.735847    0.150146    11.00000    0.03775    0.04627 =
         0.04455    0.02115   -0.00190    0.00968
AFIX  43
H5    2   -0.079782    0.704705    0.089907    11.00000   -1.20000
AFIX   0
C6    1    0.121756    0.635498    0.190355    11.00000    0.03612    0.03113 =
         0.03500    0.01306    0.00064    0.00472
AFIX  43
H6    2    0.069136    0.535423    0.156487    11.00000   -1.20000
AFIX   0
C7    1    0.418270    0.384255    0.180716    11.00000    0.04913    0.03579 =
         0.03172    0.02048    0.00951    0.02239
C8    1    0.329665    0.241345    0.126689    11.00000    0.04278    0.04032 =
         0.04377    0.01106   -0.00175    0.01940
AFIX  43
H8    2    0.258066    0.220337    0.168598    11.00000   -1.20000
AFIX   0
C9    1    0.343698    0.128783    0.012794    11.00000    0.07480    0.04483 =
         0.05165    0.00170   -0.01020    0.03184
AFIX  43
H9    2    0.282540    0.031528   -0.022826    11.00000   -1.20000
AFIX   0
C10   1    0.446675    0.159167   -0.047932    11.00000    0.13642    0.07515 =
         0.03735    0.02215    0.02468    0.07395
AFIX  43
H10   2    0.456181    0.082207   -0.126112    11.00000   -1.20000
AFIX   0
C11   1    0.535676    0.298033    0.002037    11.00000    0.15195    0.08167 =
         0.06542    0.05375    0.07138    0.07615
AFIX  43
H11   2    0.607551    0.317492   -0.040322    11.00000   -1.20000
AFIX   0
C12   1    0.520175    0.410763    0.115519    11.00000    0.10744    0.05147 =
         0.05435    0.03745    0.05054    0.04118
AFIX  43
H12   2    0.580496    0.507981    0.149239    11.00000   -1.20000
AFIX   0
C13   1    0.896001    0.691316    0.562543    11.00000    0.02483    0.02383 =
         0.02506    0.00902    0.00840    0.00547
C14   1    1.038161    0.687693    0.664448    11.00000    0.02969    0.03764 =
         0.03330    0.01697    0.00797    0.00413
AFIX  43
H14   2    1.027313    0.637306    0.718722    11.00000   -1.20000
AFIX   0
C15   1    1.194593    0.756213    0.687779    11.00000    0.02528    0.05306 =
         0.03654    0.01668    0.00276    0.00307
AFIX  43
H15   2    1.290490    0.754412    0.757843    11.00000   -1.20000
AFIX   0
C16   1    1.206928    0.826079    0.607565    11.00000    0.02566    0.04450 =
         0.03650    0.00890    0.01299   -0.00466
C17   1    1.073325    0.834562    0.506531    11.00000    0.03806    0.04153 =
         0.03981    0.01844    0.01753    0.00077
AFIX  43
H17   2    1.086690    0.885064    0.453002    11.00000   -1.20000
AFIX   0
C18   1    0.918014    0.766692    0.485408    11.00000    0.02659    0.03904 =
         0.03317    0.01777    0.00916    0.00533
AFIX  43
H18   2    0.823246    0.771532    0.416157    11.00000   -1.20000
AFIX   0
B1    3    0.721187    0.611116    0.533971    11.00000    0.02653    0.02480 =
         0.02680    0.01072    0.00926    0.00611
O1    4    0.584902    0.623358    0.437461    11.00000    0.02282    0.03773 =
         0.03778    0.02330    0.00572    0.00346
O2    4    0.292263    0.468627    0.393821    11.00000    0.02612    0.04067 =
         0.03905    0.02479    0.00685    0.00213
SI1   5    0.399158    0.539242    0.330414    11.00000    0.02564    0.02823 =
         0.02500    0.01553    0.00651    0.00535
F1    6    1.361796    0.890916    0.628837    11.00000    0.03093    0.08695 =
         0.05693    0.02395    0.01440   -0.01455
HKLF    4
 
 
 
 
REM  PDL1807 in P-1 #2
REM R1 =  0.0467 for    2089 Fo > 4sig(Fo)  and  0.0714 for all    2890 data
REM    208 parameters refined using      0 restraints
 
END
 
WGHT      0.0445      0.0257
 
REM No hydrogen bonds found for HTAB generation
 
REM Highest difference peak  0.229,  deepest hole -0.297,  1-sigma level  0.042
Q1    1   0.3794  0.6270  0.2913  11.00000  0.05    0.23
Q2    1   0.8007  0.6801  0.5617  11.00000  0.05    0.21
Q3    1   0.3233  0.6361  0.3490  11.00000  0.05    0.21
Q4    1   0.8772  0.7520  0.5439  11.00000  0.05    0.18
Q5    1   0.4330  0.4178  0.2715  11.00000  0.05    0.17
;
_shelx_res_checksum              7623
_shelx_hkl_file
;
   0   0  -2 708.844 235.385   3
   0   0   2 686.521 249.699   3
   0   0   3 31945.3 893.380   3
   0   0  -3 33823.4 894.962   3
   0   0   4 24940.4 912.527   3
   0   0   5-115.409 304.716   3
   0   0   6 72476.7 1856.34   3
   0   0   7 1741.63 476.873   3
   0   0   8 4732.43 669.702   3
   0   0   9 2985.99 598.171   3
   0   0  10 738.543 444.597   3
   0   0  11 854.802 510.474   3
   0  -1  12 2812.71 716.926   3
   0  -1  11 1726.85 604.627   3
   0  -1  10 1736.09 533.547   3
   0  -1   9 7505.87 794.511   3
   0  -1   8 7753.19 329.877   2
   0  -1   8 7794.77 749.520   3
   0  -1   7 20109.2 1051.43   3
   0  -1   7 19985.7 550.564   2
   0   1  -7 19787.1 391.821   1
   0   1  -6 225.157 103.220   1
   0  -1   6-22.6535 191.276   2
   0  -1   6 271.693 345.443   3
   0  -1   5 8858.15 386.066   2
   0   1  -5 9826.06 352.751   1
   0  -1   5 8412.70 619.915   3
   0  -1   4 22760.0 835.929   3
   0  -1   4 23638.7 562.580   2
   0   1  -4 23729.5 519.710   1
   0  -1   3 74830.9 923.039   2
   0   1  -3 75468.3 947.921   2
   0  -1   2 12675.1 427.412   2
   0   1  -2 13050.7 429.495   2
   0  -1   1 310.085 147.200   2
   0   1   0-33.7861 101.972   3
   0  -1   0 33778.4 479.350   2
   0  -1  -1 27262.6 615.233   3
   0   1   1 28477.9 629.490   3
   0  -1  -2 49968.8 1021.87   3
   0   1   2 49771.7 1019.34   3
   0   1   3 10846.6 650.772   3
   0  -1  -3 10637.8 599.896   3
   0  -1  -4 22800.4 922.866   3
   0   1   4 23807.5 957.644   3
   0   1   5 11353.9 764.820   3
   0   1   6 4021.53 557.071   3
   0   1   7 2268.79 508.742   3
   0   1   8 12998.0 1037.06   3
   0   1   9 12827.3 1085.54   3
   0   1  10 390.468 437.970   3
   0   1  11 693.798 518.115   3
   0  -2  12 838.766 520.745   3
   0  -2  11 436.968 407.550   3
   0  -2  10-358.258 446.271   3
   0   2  -9 2695.21 217.528   1
   0  -2   9 2775.84 294.614   2
   0  -2   9 3218.16 555.918   3
   0   2  -8 573.400 159.570   1
   0  -2   8 187.830 229.588   2
   0   2  -7 16685.6 579.345   1
   0  -2   7 16324.6 936.494   3
   0  -2   7 14963.6 625.257   2
   0  -2   6 324.365 235.199   2
   0   2  -6 222.447 264.256   1
   0  -2   5 2282.19 380.601   2
   0   2  -5 2673.68 388.520   1
   0   2  -4 32041.1 864.163   2
   0  -2   4 31711.8 820.918   2
   0   2  -3 42150.6 934.028   2
   0  -2   3 41780.3 910.759   2
   0   2  -2 193135. 1808.79   2
   0  -2   2 191790. 1790.62   2
   0   2  -1 14171.5 601.466   2
   0  -2   1 14735.6 537.024   2
   0   2   0 95818.7 1217.83   3
   0  -2   0 92357.9 1191.50   3
   0  -2   0 93546.9 1135.64   2
   0   2   0 96007.4 1146.27   2
   0   2   1 237.514 317.142   3
   0  -2  -1 311.237 216.431   2
   0   2   1 193.001 254.772   2
   0  -2  -1 514.778 268.194   3
   0  -2  -2 3650.29 378.424   3
   0   2   2 3363.53 433.731   3
   0  -2  -2 3423.35 234.080   2
   0   2   2 3509.85 298.143   1
   0   2   3 10326.3 652.362   3
   0  -2  -3 9411.19 261.972   2
   0  -2  -3 10046.9 635.194   3
   0   2   3 9748.73 350.785   1
   0   2   4 12462.5 307.241   1
   0  -2  -4 11762.5 728.338   3
   0   2   4 12001.7 774.475   3
   0   2   5 8339.04 719.836   3
   0   2   6 1977.82 461.918   3
   0   2   7 517.605 426.271   3
   0   2   8 1932.56 564.879   3
   0   2   9 920.417 509.873   3
   0   2  10 689.850 537.222   3
   0  -3  12 3652.41 755.753   3
   0  -3  11 38500.4 1839.49   3
   0   3 -10 27197.6 848.521   1
   0  -3  10 25018.8 1400.05   3
   0  -3   9 18064.3 1114.76   3
   0  -3   9 16920.6 785.233   2
   0   3  -9 17385.3 713.514   1
   0  -3   8 204.445 247.012   2
   0  -3   8 374.356 354.309   3
   0   3  -7 3282.78 410.588   1
   0  -3   7 2947.42 383.689   2
   0   3  -6 1448.20 398.269   1
   0  -3   6 1128.53 361.520   2
   0  -3   5 1768.09 424.630   2
   0   3  -5-804.898 571.981   2
   0  -3   4 4943.93 495.666   2
   0   3  -4 4107.33 543.760   2
   0   3  -3 1962.74 496.755   2
   0  -3   3 2597.54 415.863   2
   0  -3   2 913.629 360.373   2
   0   3  -2 554.981 476.621   2
   0  -3   1 722.422 364.723   2
   0   3  -1 265.316 396.326   2
   0  -3   1 500.287 255.561   3
   0   3   0 27905.3 824.605   2
   0  -3   0 27952.2 822.945   3
   0   3   0 26952.8 842.573   3
   0  -3   0 27204.5 785.020   2
   0   3   1 59740.1 1311.95   3
   0   3   1 61254.6 1101.08   2
   0  -3  -1 62916.8 1069.34   2
   0  -3  -1 64375.3 1343.40   3
   0  -3  -2 15354.2 755.771   3
   0  -3  -2 16699.7 552.552   2
   0   3   2 17343.3 639.991   1
   0   3   2 14710.6 757.482   3
   0  -3  -3 75910.9 1749.26   3
   0  -3  -3 73442.4 1018.51   2
   0   3   3 73272.4 1148.37   1
   0   3   3 78126.3 1780.84   3
   0   3   4 35572.2 729.907   1
   0   3   4 35518.0 1332.97   3
   0  -3  -4 34053.9 561.821   2
   0   3   5 269.165 340.482   3
   0   3   5-23.0036 81.4111   1
   0   3   6 16591.7 1087.11   3
   0   3   7 27385.1 1465.00   3
   0   3   8 5297.84 791.473   3
   0   3   9 3440.82 684.241   3
   0  -4  13 5837.97 879.401   3
   0  -4  12 2744.03 643.764   3
   0  -4  11 61524.5 2284.62   3
   0  -4  10 17223.7 1166.75   3
   0   4 -10 18574.3 851.417   1
   0   4  -9 1993.34 378.420   1
   0   4  -8 11527.3 726.857   1
   0  -4   8 11548.8 726.583   2
   0   4  -7 65745.0 1560.99   1
   0  -4   7 62156.6 1541.33   2
   0   4  -6 13144.6 781.136   1
   0  -4   6 13610.9 760.024   2
   0  -4   5 87912.0 1760.21   2
   0   4  -5 91417.7 1869.37   2
   0   4  -4 3240.52 633.314   2
   0  -4   4 3699.33 573.727   2
   0   4  -3 22259.7 990.413   2
   0  -4   3 21114.9 935.714   2
   0  -4   2 86210.1 1653.79   2
   0   4  -2 88956.0 1710.92   2
   0  -4   1 209.060 231.704   3
   0  -4   1 572.595 369.843   2
   0   4  -1-469.298 523.954   2
   0  -4   0 28074.4 946.827   3
   0  -4   0 29025.7 919.764   2
   0   4   0 26428.2 958.860   2
   0   4   0 25479.3 932.445   3
   0  -4  -1 338.674 238.133   3
   0   4   1 105.675 316.445   3
   0   4   2 9263.89 689.946   3
   0   4   2 10334.5 597.245   1
   0  -4  -2 8979.91 643.207   3
   0  -4  -2 8464.39 484.977   2
   0  -4  -3 1964.92 253.460   2
   0   4   3 2125.48 338.179   1
   0   4   3 2351.55 455.364   3
   0  -4  -4 33235.4 741.809   2
   0   4   4 33483.2 878.026   1
   0   4   4 33203.9 1398.02   3
   0   4   5 1662.39 507.865   3
   0  -4  -5 2120.90 141.145   2
   0   4   5 2448.64 246.275   1
   0   4   6-126.577 407.075   3
   0   4   7 8191.46 893.287   3
   0   4   8 11288.2 1104.57   3
   0   4   9 659.237 562.674   3
   0  -5  13 6826.15 921.079   3
   0  -5  12 323.661 402.728   3
   0   5 -11 1637.38 360.975   1
   0  -5  11 1364.42 516.796   3
   0   5 -10 892.841 356.739   1
   0   5  -9 6237.28 651.957   1
   0   5  -8 2275.00 520.264   1
   0   5  -7 19314.4 990.666   1
   0   5  -6 1108.00 497.846   1
   0   5  -5-483.891 628.421   2
   0   5  -4 1836.81 645.674   2
   0  -5   4 3923.21 559.544   2
   0   5  -3 62425.4 1664.02   2
   0  -5   3 61379.8 1589.41   2
   0   5  -2 30879.4 1206.27   2
   0  -5   2 34184.1 1177.28   2
   0  -5   2 32621.2 1087.18   3
   0  -5   1 152.706 254.252   3
   0   5  -1-197.100 594.461   2
   0  -5   0 8390.63 615.457   3
   0   5   0 7161.88 598.907   3
   0  -5   0 8779.13 620.590   2
   0   5   1 53.0217 291.976   3
   0  -5  -1 572.084 307.325   2
   0  -5  -2 153.965 269.922   2
   0   5   2 465.812 357.050   3
   0   5   2 691.677 362.166   1
   0  -5  -3 25500.4 866.635   2
   0   5   3 26372.3 960.580   1
   0   5   3 27238.1 1280.54   3
   0   5   4 4720.31 439.511   1
   0  -5  -4 4325.87 339.766   2
   0   5   5 6279.57 786.204   3
   0   5   5 6160.90 431.534   1
   0   5   6-2.47295 360.053   3
   0   5   7 597.711 507.659   3
   0   5   8 1679.30 602.349   3
   0  -6  13 1408.39 602.604   3
   0  -6  12 296.362 415.552   3
   0   6 -11 2781.94 519.284   1
   0   6 -10 843.611 450.248   1
   0   6  -9 461.959 470.368   1
   0   6  -8 15472.7 1034.02   1
   0   6  -7 5816.41 727.132   1
   0   6  -6 3742.21 668.051   1
   0   6  -5 2697.74 632.492   2
   0   6  -4 32152.4 1349.62   2
   0   6  -3-502.439 567.993   2
   0   6  -2 22095.0 1132.70   2
   0  -6   2 23494.9 1017.08   3
   0   6  -1 1660.80 564.580   1
   0   6   0 1224.27 498.783   1
   0  -6   0 640.960 342.545   2
   0  -6  -1 13700.2 767.671   2
   0   6   1 13787.2 844.339   1
   0   6   1 13218.7 898.447   3
   0   6   2 955.586 430.987   1
   0   6   2 925.065 450.778   3
   0  -6  -2 496.831 284.268   2
   0  -6  -3 19230.9 846.838   2
   0   6   3 20002.6 1193.78   3
   0   6   3 20068.3 946.893   1
   0   6   4 2837.19 590.418   3
   0   6   4 3552.55 447.081   1
   0   6   5 9717.31 985.825   3
   0   6   6 489.843 497.424   3
   0   6   7 3872.48 800.128   3
   0  -7  13 1849.58 584.824   3
   0   7 -11 1423.93 506.131   1
   0   7 -10 3884.81 696.133   1
   0   7  -9 1750.95 610.197   1
   0   7  -8 16824.4 1126.15   1
   0   7  -7 18612.2 1166.22   1
   0   7  -6 13786.6 1041.15   1
   0   7  -5 20786.5 1197.10   1
   0   7  -4 68811.6 2011.58   1
   0   7  -3 25817.0 1273.50   1
   0   7  -2 5340.21 751.185   1
   0   7  -1 3511.71 640.747   1
   0   7   0 771.963 504.856   1
   0   7   1 16264.2 1013.56   1
   0   7   1 16375.2 1084.58   3
   0   7   2 315.292 398.144   1
   0   7   2 639.105 437.986   3
   0   7   3 1118.06 396.821   1
   0   7   3 70.3420 360.993   3
   0   7   4 13880.7 840.885   1
   0   7   4 12499.1 1113.96   3
   0   7   5 1556.64 578.902   3
   0   7   6 824.076 518.524   3
   0   8 -12 895.286 471.057   1
   0   8 -11 131.378 486.568   1
   0   8 -10 1289.62 563.319   1
   0   8  -9 2489.21 650.517   1
   0   8  -8 13629.6 1097.98   1
   0   8  -7 9739.35 980.267   1
   0   8  -6 5033.39 786.164   1
   0   8  -5 6640.20 877.697   1
   0   8  -4 2719.78 680.768   1
   0   8  -3 46134.7 1777.67   1
   0   8  -2 1008.82 621.980   1
   0   8  -1 14359.9 1099.92   1
   0   8   0 251.396 507.492   1
   0   8   1 748.571 501.703   1
   0   8   2 5552.89 788.338   3
   0   8   2 5186.81 693.717   1
   0   8   3 5743.23 837.823   3
   0   8   3 4882.58 608.058   1
   0   8   4 192.833 443.497   3
   0   8   5 2467.93 644.706   3
   0   9 -12 174.284 447.242   1
   0   9 -11 2546.03 709.416   1
   0   9 -10 6203.58 887.387   1
   0   9  -9 1177.13 684.188   1
   0   9  -8 13900.1 1196.54   1
   0   9  -7 20701.3 1399.57   1
   0   9  -6 1833.59 751.311   1
   0   9  -5 1398.10 679.737   1
   0   9  -4 1252.39 726.804   1
   0   9  -3 2405.99 730.163   1
   0   9  -2 1405.23 616.124   1
   0   9  -1 2449.51 687.445   1
   0   9   0-101.441 468.939   1
   0   9   1 1962.31 584.830   1
   0   9   2 3562.91 602.873   1
   0   9   3 4666.30 819.018   3
   0  10 -12 342.285 512.441   1
   0  10 -11-145.101 570.394   1
   0  10 -10 17353.8 1420.45   1
   0  10  -9 271.698 619.547   1
   0  10  -8 1270.10 673.624   1
   0  10  -7 10741.4 1164.71   1
   0  10  -6 12821.8 1249.09   1
   0  10  -5 592.858 704.997   1
   0  10  -4 10756.3 1165.98   1
   0  10  -3 2066.36 735.125   1
   0  10  -2 826.526 643.151   1
   0  10  -1 4288.58 813.017   1
   0  10   0 1202.92 587.642   1
   0  10   1 2718.62 624.384   1
   0  11 -10 5027.95 970.132   1
   0  11  -9 1313.03 676.680   1
   0  11  -8 452.932 716.227   1
   0  11  -7 1147.08 614.881   1
   0  11  -6 2426.26 825.720   1
   0  11  -5 2171.81 812.707   1
   0  11  -4 3460.48 848.460   1
   0  11  -3 3116.95 760.950   1
   0  11  -2 1927.18 710.255   1
   0  11  -1 535.524 615.575   1
   0  11   0 1582.68 578.026   1
   0  11   1 859.384 481.403   1
  -1  11   1 902.161 478.509   1
  -1  11   0 689.313 451.722   1
  -1  11  -1 635.532 520.674   1
  -1  11  -2 1128.32 584.245   1
  -1  11  -3 1055.08 568.633   1
  -1  11  -4 350.226 497.671   1
  -1  11  -5 4954.65 912.172   1
  -1  11  -6 15512.8 1372.64   1
  -1  11  -7 713.636 607.402   1
  -1  11  -8 6546.33 939.142   1
  -1  11  -9 4948.21 879.684   1
  -1  10   2 1273.25 482.178   1
  -1  10   1 514.127 445.609   1
  -1  10   0 2337.77 622.451   1
  -1  10  -1 1610.99 623.728   1
  -1  10  -2 807.988 525.118   1
  -1  10  -3 5790.76 888.207   1
  -1  10  -4 1108.51 627.865   1
  -1  10  -5 14002.1 1218.30   1
  -1  10  -6 10565.7 1155.54   1
  -1  10  -7 4018.52 772.599   1
  -1  10  -8 1086.29 574.769   1
  -1  10  -9 6716.95 942.838   1
  -1  10 -10 4397.08 824.028   1
  -1  10 -11 7401.45 967.143   1
  -1  10 -12 3655.86 734.893   1
  -1   9   4-110.235 509.266   3
  -1   9   3 159.736 348.151   1
  -1   9   2 2615.34 555.746   1
  -1   9   1 1765.26 546.557   1
  -1   9   0 1881.65 582.610   1
  -1   9  -1 830.984 571.599   1
  -1   9  -2-133.452 517.299   1
  -1   9  -3 1715.28 607.645   1
  -1   9  -4 9621.25 1058.62   1
  -1   9  -5 319.907 638.749   1
  -1   9  -6 12734.8 1129.03   1
  -1   9  -7 7911.52 947.419   1
  -1   9  -8 961.609 587.710   1
  -1   9  -9 3064.19 701.800   1
  -1   9 -10 3286.99 686.353   1
  -1   9 -11 2431.46 654.638   1
  -1   9 -12 3401.16 686.249   1
  -1   8   5 8433.76 1046.25   3
  -1   8   4 292.802 460.025   3
  -1   8   3 2738.43 523.568   1
  -1   8   3 3288.22 699.319   3
  -1   8   2 1418.11 457.365   1
  -1   8   1 2935.96 580.768   1
  -1   8   0 2305.27 596.299   1
  -1   8  -1 103.604 538.854   1
  -1   8  -2 48158.8 1827.92   1
  -1   8  -3 4833.14 806.573   1
  -1   8  -4 6130.21 838.795   1
  -1   8  -5 271.830 608.406   1
  -1   8  -6 9217.17 973.195   1
  -1   8  -7 3914.28 761.109   1
  -1   8  -8 835.681 541.113   1
  -1   8  -9 1538.96 568.569   1
  -1   8 -10 1307.59 531.618   1
  -1   8 -11 414.393 441.516   1
  -1   7   6 3868.27 744.516   3
  -1   7   5 13577.6 1197.89   3
  -1   7   4 4076.60 710.799   3
  -1   7   4 3954.97 503.494   1
  -1   7   3 3847.55 654.127   3
  -1   7   3 3930.14 540.238   1
  -1   7   2 464.189 373.986   1
  -1   7   2 10.0778 381.093   3
  -1   7   1 39081.1 1479.16   1
  -1   7   0 12639.6 937.772   1
  -1   7  -1 32462.4 1405.39   1
  -1   7  -2 911.159 489.106   1
  -1   7  -3 7409.23 817.523   1
  -1   7  -4 464.134 549.332   1
  -1   7  -5 1103.42 530.583   1
  -1   7  -6 15372.5 1080.13   1
  -1   7  -7 13544.2 1025.24   1
  -1   7  -8 5919.12 746.810   1
  -1   7  -9 4192.78 656.292   1
  -1   7 -10 583.967 443.048   1
  -1   7 -11 4.61297 357.413   1
  -1   6   7 3196.03 703.312   3
  -1   6   6-15.7849 454.998   3
  -1   6   5 9284.72 619.357   1
  -1   6   5 8898.83 912.465   3
  -1   6   4 1661.49 544.552   3
   1  -6  -4 2022.46 350.716   2
  -1   6   4 1503.72 340.487   1
  -1   6   3 7435.00 782.801   3
   1  -6  -3 7287.76 582.076   2
  -1   6   3 7662.43 635.747   1
  -1   6   2 13532.8 966.567   3
   1  -6  -2 13532.1 806.844   2
  -1   6   2 14094.7 829.049   1
  -1   6   1 986.909 404.030   1
   1  -6  -1 190.604 364.932   2
  -1   6   0 10279.1 786.352   1
  -1   6  -1 42355.1 1461.22   1
  -1   6  -2 7377.13 730.662   1
  -1   6  -3 1165.80 559.773   1
  -1   6  -4 38213.4 1437.58   1
  -1   6  -5 373.970 454.155   1
  -1   6  -6 6367.86 730.212   1
  -1   6  -7 32508.3 1388.65   1
  -1   6  -8 7285.11 744.191   1
  -1   6  -9 21310.5 1135.27   1
  -1   6 -10 7047.29 704.741   1
  -1   6 -11 7081.11 704.058   1
   1  -6  12 253.351 463.974   3
  -1   5   8 6333.77 887.173   3
  -1   5   7 3548.24 711.977   3
  -1   5   6 1452.85 569.089   3
   1  -5  -5 3421.31 315.633   2
  -1   5   5 3348.11 614.482   3
  -1   5   5 3506.79 359.765   1
   1  -5  -4 3699.64 376.966   2
  -1   5   4 2730.76 369.557   1
  -1   5   4 3213.10 554.992   3
   1  -5  -3 7317.43 531.685   2
  -1   5   3 8069.30 751.370   3
  -1   5   3 8339.24 580.112   1
   1  -5  -2 20457.3 871.163   2
  -1   5   2 18320.1 1008.09   3
  -1   5   2 20318.2 901.075   1
   1  -5  -1 12260.4 736.536   2
  -1   5   1 11013.4 768.162   3
  -1   5   1 11921.7 749.823   1
   1  -5   0 1533.66 486.933   2
   1  -5   0 1432.51 323.303   3
  -1   5   0 1396.36 497.789   1
  -1   5  -1 3010.74 611.181   1
   1  -5   1 2096.95 345.516   3
   1  -5   1 2652.14 576.052   2
  -1   5  -2 4668.21 668.640   1
   1  -5   2 4586.46 669.952   2
  -1   5  -3 10352.8 825.883   1
   1  -5   3 10471.1 773.533   2
  -1   5  -4 8643.63 762.307   1
   1  -5   4 8505.80 772.788   2
  -1   5  -5 8192.99 712.914   1
  -1   5  -6 469.912 406.378   1
  -1   5  -7 2296.57 470.406   1
  -1   5  -8 40054.4 1402.94   1
  -1   5  -9 58920.2 1688.93   1
  -1   5 -10 23125.8 1089.55   1
   1  -5  11 107.677 437.384   3
   1  -5  12 384.489 472.219   3
  -1   4   9 2193.24 660.239   3
  -1   4   8 1581.54 575.135   3
  -1   4   7 202.592 444.647   3
  -1   4   6 6005.65 334.833   1
  -1   4   6 5037.36 715.391   3
  -1   4   5 13077.0 563.296   1
  -1   4   5 13462.7 962.628   3
   1  -4  -5 13315.0 469.965   2
  -1   4   4 724.459 393.598   3
  -1   4   4 827.418 227.801   1
   1  -4  -3 11453.3 587.208   2
  -1   4   3 10094.8 570.062   1
  -1   4   3 10501.0 776.768   3
   1  -4  -2 27.3051 257.533   3
  -1   4   2 637.723 326.632   1
   1  -4  -2-82.6484 329.997   2
  -1   4   2-127.118 360.392   3
  -1   4   1 1116.10 409.057   1
   1  -4  -1 769.710 426.267   2
  -1   4   1 195.078 331.558   3
   1  -4  -1 410.480 277.798   3
   1  -4   0 8848.08 565.844   3
  -1   4   0 8509.61 656.695   1
   1  -4   0 9892.12 680.721   2
  -1   4  -1 18895.1 889.418   1
   1  -4   1 18850.1 850.129   2
  -1   4  -2 137643. 2178.62   1
   1  -4   2 140350. 2177.21   2
  -1   4  -3 48048.4 1337.55   1
   1  -4   3 46703.8 1318.61   2
  -1   4  -4 55945.7 1438.62   1
   1  -4   4 56068.6 1489.04   2
  -1   4  -5 14542.9 811.599   1
   1  -4   5 15648.2 867.614   2
   1  -4   6 3121.26 517.070   2
  -1   4  -6 3503.71 462.177   1
   1  -4   7 1466.19 424.035   2
  -1   4  -7 1946.92 374.737   1
  -1   4  -8 1524.06 336.118   1
  -1   4  -9 1781.86 344.836   1
  -1   4 -10 22956.8 949.862   1
   1  -4  10 20624.2 1336.89   3
   1  -4  11 1093.77 509.502   3
   1  -4  12 7796.78 993.950   3
  -1   3  10 16518.0 1383.44   3
  -1   3   9 299.037 461.233   3
  -1   3   8-242.976 467.741   3
  -1   3   7 2332.55 569.232   3
  -1   3   6 6639.48 726.120   3
  -1   3   6 5193.55 222.095   1
   1  -3  -5 8020.68 286.187   2
  -1   3   5 9463.02 780.678   3
  -1   3   5 8115.96 374.828   1
  -1   3   4 31992.1 1248.38   3
  -1   3   4 33197.8 792.807   1
   1  -3  -4 30493.3 687.810   2
   1  -3  -3 34020.4 809.319   2
  -1   3   3 34749.6 1186.60   3
   1  -3  -3 33914.3 1158.89   3
  -1   3   3 35656.3 866.423   1
  -1   3   2 7079.21 462.571   1
   1  -3  -2 6008.79 441.650   2
  -1   3   2 6278.64 552.818   3
   1  -3  -2 6798.98 517.624   3
  -1   3   1 3972.49 472.434   3
   1  -3  -1 4224.57 438.999   3
  -1   3   1 4769.23 449.954   1
   1  -3   0 11574.7 602.452   1
  -1   3   0 11229.8 644.999   1
   1  -3   0 10803.3 575.651   3
   1  -3   1 7795.55 561.983   1
  -1   3  -1 6561.86 552.926   1
  -1   3  -2 18499.4 803.817   1
   1  -3   2 20002.4 794.140   2
   1  -3   3 165549. 2157.47   2
  -1   3  -3 165818. 2103.75   1
  -1   3  -4 2719.04 449.503   1
   1  -3   4 538.478 398.860   2
  -1   3  -5 2441.64 392.239   1
   1  -3   5 2307.93 470.793   2
   1  -3   6 3361.41 479.869   2
  -1   3  -6 3195.72 393.729   1
  -1   3  -7 6720.30 497.820   1
   1  -3   7 7079.38 568.638   2
  -1   3  -8 25980.3 902.800   1
   1  -3   8 24689.6 935.568   2
   1  -3   9 5644.60 742.356   3
   1  -3   9 5297.00 487.119   2
  -1   3  -9 4719.84 400.592   1
   1  -3  10 8320.22 896.760   3
   1  -3  11 16135.4 1281.00   3
   1  -3  12 929.998 544.144   3
  -1   2  11 110.543 434.589   3
  -1   2  10 3883.62 713.060   3
  -1   2   9 873.963 461.672   3
  -1   2   8 1484.03 519.791   3
  -1   2   7 12665.8 971.475   3
  -1   2   6 1040.03 441.699   3
  -1   2   5 769.094 357.199   3
  -1   2   5 501.253 95.9875   1
   1  -2  -4 64481.4 798.895   2
  -1   2   4 65364.2 1604.01   3
   1  -2  -4 66208.1 1607.34   3
  -1   2   4 65250.2 902.108   1
   1  -2  -3 24628.4 615.342   1
   1  -2  -3 23785.8 890.464   3
  -1   2   3 24322.3 921.463   3
  -1   2   3 23898.5 591.654   1
  -1   2   2 345800. 2283.24   1
  -1   2   2 350627. 2951.29   3
   1  -2  -2 346573. 2287.82   1
   1  -2  -2 351591. 2936.46   3
   1  -2  -1 742235. 3446.47   1
   1  -2  -1 747623. 3823.57   3
  -1   2   1 739419. 3430.74   1
  -1   2   1 741756. 3876.50   3
  -1   2   0 409732. 2599.79   1
   1  -2   0 411413. 2654.84   3
   1  -2   0 409187. 2622.73   1
   1  -2   1 304501. 2311.01   1
  -1   2  -1 302972. 2288.43   1
   1  -2   2 485823. 2968.49   1
  -1   2  -2 485754. 2979.07   1
  -1   2  -3 4439.31 394.845   1
   1  -2   3 4937.79 404.687   1
  -1   2  -4 34546.2 856.453   1
   1  -2   4 33651.1 905.784   2
  -1   2  -5 3258.37 329.683   1
   1  -2   5 3064.45 426.336   2
   1  -2   6 6122.61 465.685   2
  -1   2  -6 5418.11 380.234   1
   1  -2   7 146.873 346.483   3
   1  -2   7 76.1428 259.841   2
  -1   2  -7 174.417 158.646   1
   1  -2   8 13674.5 986.342   3
  -1   2  -8 13344.5 520.373   1
   1  -2   8 12879.8 600.350   2
   1  -2   9-50.2065 437.012   3
  -1   2  -9 149.178 100.043   1
   1  -2  10 1795.10 511.521   3
   1  -2  11 4653.94 807.643   3
  -1   1  11 2453.34 616.028   3
  -1   1  10 5691.90 826.643   3
  -1   1   9 11758.6 1005.04   3
  -1   1   8 809.556 414.890   3
  -1   1   7 629.919 384.874   3
  -1   1   6 1468.57 412.464   3
   1  -1  -5 569.052 250.960   3
  -1   1   5 264.026 347.764   3
  -1   1   4 20614.4 414.692   1
   1  -1  -4 20798.3 428.602   1
   1  -1  -4 22133.8 860.974   3
   1  -1  -4 20515.3 387.859   2
  -1   1   4 20104.4 847.299   3
   1  -1  -3 340665. 2864.11   3
  -1   1   3 328938. 2851.55   3
   1  -1  -3 336590. 1765.22   1
  -1   1   3 337840. 1744.70   1
   1  -1  -2 999999. 4161.60   3
  -1   1   2 995923. 4158.13   3
  -1   1   2 991946. 3128.82   1
   1  -1  -2 985586. 3151.75   1
  -1   1   1 23847.4 529.168   1
   1  -1  -1 24190.4 530.001   1
   1  -1  -1 23955.1 561.328   3
  -1   1   1 24238.1 577.824   3
  -1   1   0 911.219 189.220   1
   1  -1   0 1235.82 206.604   1
   1  -1   1 31339.0 628.760   1
  -1   1  -1 30248.1 632.853   1
  -1   1  -2 78670.9 1011.14   1
   1  -1   2 78883.6 990.509   1
  -1   1  -3 26970.2 626.031   1
   1  -1   3 26373.1 601.539   1
  -1   1  -4 25928.0 623.365   1
   1  -1   4 27787.2 631.069   1
   1  -1   5 314.372 279.117   2
   1  -1   5 161.812 294.463   3
  -1   1  -5 6.81726 131.578   1
   1  -1   6 1432.54 273.339   2
  -1   1  -6 1393.85 169.388   1
   1  -1   6 1593.44 444.785   3
  -1   1  -7 9438.79 302.567   1
   1  -1   7 9425.78 419.118   2
   1  -1   7 10413.1 850.595   3
   1  -1   8 5493.19 691.206   3
   1  -1   8 5102.79 295.868   2
   1  -1   9 4522.51 711.149   3
   1  -1  10 361.205 463.382   3
   1  -1  11 4231.96 775.813   3
  -1   0  12 479.287 541.167   3
  -1   0  11-185.486 477.887   3
  -1   0  10 3104.53 654.113   3
  -1   0   9 14773.6 1063.97   3
  -1   0   8 213.199 316.631   3
  -1   0   7 2458.44 490.109   3
  -1   0   6 9889.79 708.439   3
   1   0  -6 10332.4 339.881   2
   1   0  -5 6132.84 234.076   1
   1   0  -5 7586.15 318.732   2
  -1   0   5 6520.34 559.683   3
   1   0  -5 6616.84 528.194   3
   1   0  -4 20440.3 760.881   3
  -1   0   4 19976.7 782.107   3
   1   0  -4 19917.4 421.124   1
   1   0  -4 19085.8 459.720   2
   1   0  -3 381773. 2647.03   3
   1   0  -3 375574. 1782.23   1
   1   0  -3 385752. 1851.14   2
  -1   0   3 378272. 2625.20   3
   1   0  -2 43.2416 169.351   3
  -1   0   2 157.977 181.472   3
   1   0  -2 120.566 141.858   2
   1   0  -2 151.373 140.677   1
   1   0  -1 25370.2 464.522   1
  -1   0   1 8922.47 303.846   1
   1   0   0 45014.8 648.310   1
  -1   0   0 67228.5 728.536   1
   1   0   1 369181. 1777.27   1
  -1   0  -1 370110. 1756.64   1
   1   0   2 20879.0 443.839   1
  -1   0  -2 20289.3 428.422   1
   1   0   2 20329.4 678.555   3
  -1   0  -3 78677.8 809.200   1
   1   0   3 81245.2 1490.54   3
   1   0   3 81313.0 849.315   1
  -1   0  -4 16983.6 378.158   1
   1   0   4 17657.2 389.788   1
   1   0   4 17127.0 821.724   3
   1   0   5 133.551 329.432   3
   1   0   5 133.216 151.875   2
   1   0   6 3782.60 181.018   2
   1   0   6 4005.17 544.949   3
   1   0   7 16017.8 1044.76   3
   1   0   8 795.377 456.175   3
   1   0   9 2551.86 590.340   3
   1   0  10 201.097 529.377   3
   1   0  11 14.5746 485.992   3
  -1  -1  12 5823.34 875.599   3
  -1  -1  11 9916.39 1008.81   3
  -1  -1  10 22215.1 1350.17   3
  -1  -1   9 96.0701 326.277   3
   1   1  -8 2798.42 174.783   1
  -1  -1   8 3132.00 257.073   2
  -1  -1   8 2789.56 515.543   3
   1   1  -8 3273.49 201.716   1
  -1  -1   7 779.081 356.928   3
  -1  -1   7 781.301 176.408   2
   1   1  -7 911.271 249.075   2
   1   1  -6 260.028 291.069   2
  -1  -1   6 262.625 292.468   3
  -1  -1   6 90.4534 139.178   2
  -1  -1   5 16750.6 753.903   3
  -1  -1   5 15563.5 518.801   2
   1   1  -4 41207.2 804.686   2
  -1  -1   4 41595.5 994.411   3
  -1  -1   4 43632.5 832.607   2
  -1  -1   3 949.393 228.692   2
   1   1  -3 757.261 249.883   2
  -1  -1   3 924.241 230.724   3
  -1  -1   2 387573. 2214.13   2
   1   1  -2 394446. 2198.22   2
  -1  -1   1 222444. 1584.99   2
   1   1  -1 225368. 1593.37   2
  -1  -1   0 205397. 1467.45   2
  -1  -1   0 201675. 1300.31   3
   1   1   0 205383. 1273.86   3
   1   1   0 203491. 1432.81   2
  -1  -1  -1 284.695 146.614   2
  -1  -1  -1 341.577 206.978   3
   1   1   1 439.755 176.845   2
   1   1   1 603.165 265.441   3
  -1  -1  -2 45083.6 1032.58   3
   1   1   2 44797.3 635.016   2
   1   1   2 45539.3 1065.13   3
   1   1   2 45821.0 671.543   1
   1   1   3 61866.4 681.413   2
   1   1   3 62328.8 1416.51   3
   1   1   3 63236.5 746.648   1
  -1  -1  -3 62437.8 1384.68   3
  -1  -1  -4 44427.0 1314.90   3
   1   1   4 44232.1 524.161   1
   1   1   4 43844.3 1343.09   3
   1   1   5 65797.4 1791.26   3
   1   1   6 40044.7 1523.80   3
   1   1   7 5501.82 710.283   3
   1   1   8 3548.93 636.348   3
   1   1   9 2118.71 555.658   3
   1   1  10 672.787 499.149   3
  -1  -2  13 12808.7 1241.19   3
  -1  -2  12 22179.6 1481.37   3
  -1  -2  11 17324.7 1244.80   3
  -1  -2  10-165.622 374.221   3
   1   2  -9 13163.9 528.346   1
  -1  -2   9 12686.7 934.845   3
  -1  -2   9 12474.5 588.401   2
  -1  -2   8 5701.79 411.710   2
  -1  -2   8 6906.93 672.221   3
   1   2  -8 6028.82 482.924   2
  -1  -2   7 1518.45 387.728   3
  -1  -2   7 1794.57 268.571   2
   1   2  -7 2096.04 390.672   2
  -1  -2   6 11977.5 697.902   3
   1   2  -6 12670.9 653.976   2
  -1  -2   6 13135.2 580.772   2
   1   2  -5 25197.6 842.073   2
  -1  -2   5 25194.1 776.794   2
   1   2  -4 14590.8 622.629   2
  -1  -2   4 13080.6 572.511   2
  -1  -2   3 2902.43 367.383   2
   1   2  -3 4508.72 438.736   2
  -1  -2   2 26692.9 733.860   2
   1   2  -2 26904.1 755.978   2
  -1  -2   1 267.703 148.206   3
   1   2  -1 431.837 320.968   2
  -1  -2   1 498.570 222.361   2
   1   2   0 11718.2 481.588   3
  -1  -2   0 12329.0 474.488   2
  -1  -2   0 12629.9 461.694   3
   1   2   0 12572.7 492.902   2
   1   2   1 29084.6 645.139   2
  -1  -2  -1 28787.9 802.720   3
   1   2   1 29420.1 843.218   3
  -1  -2  -1 28252.0 637.211   2
  -1  -2  -2 1887.57 333.857   3
  -1  -2  -2 1975.28 199.596   2
   1   2   2 2337.61 234.108   2
   1   2   2 2165.70 378.019   3
  -1  -2  -3 2176.17 350.655   3
   1   2   3 2917.88 237.283   2
   1   2   3 2249.47 408.436   3
   1   2   4 3719.75 206.914   1
   1   2   4 3592.52 505.736   3
   1   2   4 3599.98 171.787   2
   1   2   5 25504.1 1196.92   3
   1   2   6 36791.8 1529.68   3
   1   2   7 86.2685 426.595   3
   1   2   8 346.949 444.425   3
   1   2   9 589.446 493.151   3
   1   2  10 1476.97 601.731   3
  -1  -3  13 6201.11 896.709   3
  -1  -3  12-71.9297 444.162   3
  -1  -3  11 5921.05 761.346   3
  -1  -3  10 18539.7 1167.28   3
   1   3 -10 17979.4 757.747   1
   1   3  -9 20042.8 807.571   1
  -1  -3   9 21869.5 1165.08   3
  -1  -3   9 20441.7 860.452   2
  -1  -3   8 421.145 328.947   3
   1   3  -8-43.7333 380.315   2
  -1  -3   8 269.383 224.326   2
  -1  -3   7 11181.0 633.558   2
   1   3  -7 11551.0 716.492   2
  -1  -3   6 1492.56 303.753   2
   1   3  -6 2759.19 529.939   2
   1   3  -5 2019.65 558.695   2
  -1  -3   5 774.281 341.153   2
  -1  -3   4 110728. 1752.21   2
   1   3  -4 108660. 1759.61   2
  -1  -3   3 60296.3 1268.14   2
   1   3  -3 59141.4 1265.58   2
   1   3  -2 73343.1 1351.38   2
  -1  -3   2 75452.1 1388.04   2
  -1  -3   1 1651.02 318.390   2
   1   3  -1 2754.47 452.118   2
   1   3  -1 2008.89 316.324   3
  -1  -3   1 1883.73 275.962   3
   1   3   0 46146.7 1007.87   2
  -1  -3   0 48290.1 1030.03   2
  -1  -3   0 46087.6 1027.91   3
   1   3   0 46852.4 1053.55   3
   1   3   1 1665.91 358.449   3
  -1  -3  -1 2063.01 271.364   2
  -1  -3  -1 2016.23 323.129   3
  -1  -3  -2 40734.8 846.644   2
  -1  -3  -2 41168.7 1221.18   3
   1   3   2 39726.7 889.290   2
   1   3   2 41158.0 1219.30   3
  -1  -3  -3 30579.2 685.739   2
   1   3   3 30080.9 1152.46   3
   1   3   3 31232.0 725.784   2
  -1  -3  -3 32258.3 1186.81   3
   1   3   4 16904.7 965.651   3
   1   3   5 11441.8 368.883   1
   1   3   5 11857.7 377.793   1
   1   3   5 11762.9 896.332   3
   1   3   6 24095.8 1337.82   3
   1   3   7 2051.52 589.057   3
   1   3   8 3310.47 663.303   3
   1   3   9 1441.15 557.647   3
  -1  -4  13 1772.98 607.163   3
  -1  -4  12 4541.91 724.943   3
  -1  -4  11 6595.04 795.470   3
   1   4 -10 690.342 376.892   1
  -1  -4  10 54.4793 365.164   3
   1   4  -9 13298.5 867.281   2
   1   4  -8 16716.5 929.085   2
  -1  -4   8 16009.3 863.903   2
   1   4  -7 11671.4 816.512   2
  -1  -4   7 11088.1 717.198   2
   1   4  -6 24965.4 1089.11   2
  -1  -4   6 24320.3 996.463   2
  -1  -4   5 660.934 348.460   2
   1   4  -5 1369.54 624.324   2
   1   4  -4 4686.25 701.713   2
  -1  -4   4 5474.27 544.887   2
  -1  -4   3 28367.7 1007.97   2
   1   4  -3 29398.0 1127.00   2
  -1  -4   2-69.2110 344.912   2
   1   4  -2 41.8976 534.577   2
  -1  -4   2 167.582 206.161   3
  -1  -4   1-145.273 322.592   2
  -1  -4   1 268.523 224.356   3
   1   4  -1 228.106 506.195   2
   1   4   0 33107.6 1057.59   2
  -1  -4   0 32554.3 980.325   2
   1   4   0 31942.5 1014.15   3
  -1  -4   0 32527.3 1007.90   3
   1   4   1 4410.75 516.473   2
  -1  -4  -1 4341.99 442.763   3
   1   4   1 3588.06 445.842   3
  -1  -4  -1 3969.02 364.938   2
   1   4   2 12045.1 766.198   3
   1   4   2 12055.2 613.362   2
  -1  -4  -2 12266.2 568.631   2
  -1  -4  -2 12465.3 754.025   3
  -1  -4  -3 38599.7 904.978   2
   1   4   3 38412.8 924.127   2
   1   4   3 37978.1 1404.40   3
   1   4   4 10044.9 523.253   1
   1   4   4 9895.67 830.683   3
  -1  -4  -4 9084.11 400.211   2
   1   4   5 741.298 187.911   1
   1   4   5 556.486 379.250   3
   1   4   6 1239.77 517.964   3
   1   4   7 24437.6 1510.15   3
   1   4   8 172.223 425.506   3
  -1  -5  13 8368.96 991.160   3
  -1  -5  12 4091.81 717.408   3
   1   5 -11 1517.93 445.406   1
  -1  -5  11 1325.80 438.030   3
   1   5 -10 456.930 451.801   1
   1   5  -9 470.780 507.410   2
   1   5  -8 19190.8 1090.64   2
   1   5  -7 11719.3 894.562   2
   1   5  -6 66880.9 1818.08   2
   1   5  -5 89246.6 2034.02   2
   1   5  -4 63016.4 1716.67   2
  -1  -5   4 63175.9 1635.02   2
   1   5  -3 6846.30 767.231   2
  -1  -5   3 5810.65 592.358   2
   1   5  -2 2646.71 646.155   2
  -1  -5   2 2898.53 359.849   3
  -1  -5   2 2784.62 458.619   2
  -1  -5   1 399.649 247.542   3
  -1  -5   1 358.443 279.871   2
   1   5  -1 295.622 528.813   2
   1   5   0 6266.28 558.282   3
  -1  -5   0 4592.43 480.988   2
   1   5   0 6129.49 656.221   2
  -1  -5   0 6857.91 553.337   3
  -1  -5  -1 1135.99 274.061   2
   1   5   1 1338.68 412.756   2
   1   5   1 1174.82 358.429   3
   1   5   2 100.037 304.311   3
  -1  -5  -2 312.064 216.739   2
   1   5   2 286.084 347.615   2
   1   5   3 45707.1 1653.99   3
  -1  -5  -3 45457.1 1122.60   2
   1   5   4 806.698 326.105   1
   1   5   4 298.686 388.060   3
  -1  -5  -4 374.403 162.907   2
   1   5   5 1416.73 516.728   3
   1   5   6-287.904 487.273   3
   1   5   7 3896.39 733.638   3
  -1  -6  13 5894.62 831.496   3
  -1  -6  12 1358.04 521.989   3
   1   6 -11 3092.16 575.370   1
   1   6 -10 3143.87 634.971   1
   1   6  -9 3693.43 721.531   2
   1   6  -8 25582.3 1337.19   2
   1   6  -7 3748.94 712.789   2
   1   6  -6 14895.9 1042.62   2
   1   6  -5 26039.4 1290.91   2
   1   6  -4 9281.07 904.976   2
  -1  -6   3 340.676 236.489   3
   1   6  -3 898.935 580.660   2
  -1  -6   2 190.885 207.796   3
   1   6  -2 613.978 539.770   2
   1   6  -1 510.889 501.792   2
   1   6   0 3037.45 567.830   2
  -1  -6   0 3182.41 433.251   2
   1   6   0 2989.68 501.389   3
   1   6   1 4079.35 566.763   2
  -1  -6  -1 3889.76 456.947   2
   1   6   1 4110.90 546.738   3
  -1  -6  -2 3415.09 406.569   2
   1   6   2 3548.72 578.665   3
   1   6   3 899.163 418.465   3
  -1  -6  -3 590.057 219.341   2
   1   6   4 693.233 456.107   3
   1   6   4 220.757 308.244   1
   1   6   5 551.539 417.373   3
   1   6   6 2663.91 625.275   3
   1   6   7 2603.45 692.044   3
  -1  -7  13 1087.62 509.002   3
   1   7 -12 1927.98 565.143   1
   1   7 -11 5849.70 781.146   1
   1   7 -10 1069.44 572.228   1
   1   7  -9 4001.46 759.511   2
   1   7  -8 35427.6 1642.61   2
   1   7  -7 32582.1 1546.86   2
   1   7  -6 2769.48 728.012   2
   1   7  -5 50655.7 1827.54   2
   1   7  -4 4751.04 720.162   2
   1   7  -3-70.4340 558.129   2
   1   7  -2 3751.94 671.107   2
   1   7  -1 3390.75 664.457   2
   1   7   0 8134.99 752.610   3
   1   7   0 8026.34 772.171   2
   1   7   1 31654.4 1441.49   3
   1   7   2 4457.33 622.153   1
   1   7   2 2917.43 569.497   3
   1   7   3 1160.75 414.755   1
   1   7   3 1043.23 448.292   3
   1   7   4 1209.80 545.919   3
   1   7   5-141.647 411.808   3
   1   7   6 1182.64 542.486   3
   1   8 -12 937.672 541.218   1
   1   8 -11 1112.52 594.020   1
   1   8 -10 726.098 566.897   1
   1   8  -9 2524.91 749.840   1
   1   8  -8 11590.9 1152.19   2
   1   8  -7 3006.67 753.063   2
   1   8  -6 15716.4 1206.28   2
   1   8  -5 4407.34 858.227   2
   1   8  -4 25850.5 1430.74   2
   1   8  -3-11.2676 590.312   2
   1   8  -2 8937.05 914.593   2
   1   8  -1 1745.79 618.149   2
   1   8   0 2991.19 657.032   1
   1   8   1 9498.48 878.083   1
   1   8   1 8451.13 874.233   3
   1   8   2 8108.39 799.377   1
   1   8   2 6788.78 832.403   3
   1   8   3 2385.33 626.418   3
   1   8   4 3702.85 738.196   3
   1   9 -12 355.365 528.698   1
   1   9 -11 859.344 585.553   1
   1   9 -10 5284.40 884.042   1
   1   9  -9 4131.20 801.454   1
   1   9  -8 20130.2 1394.67   1
   1   9  -7 1063.38 750.104   2
   1   9  -6-532.917 833.532   2
   1   9  -5-749.319 825.044   2
   1   9  -4 9179.71 1059.61   2
   1   9  -3 46.6660 747.645   2
   1   9  -2 3402.70 752.813   1
   1   9  -1 1586.79 635.696   1
   1   9   0 1239.72 593.475   1
   1   9   1 112.057 478.460   1
   1   9   2 96.9738 422.003   1
   1   9   2 642.524 519.575   3
   1   9   3 393.156 417.508   3
   1  10 -13 1054.92 605.559   1
   1  10 -12 344.755 616.293   1
   1  10 -11 921.032 652.961   1
   1  10 -10 16421.7 1394.46   1
   1  10  -9 905.397 631.151   1
   1  10  -8 2286.24 811.225   1
   1  10  -7 2118.32 846.833   1
   1  10  -6 2245.02 751.833   1
   1  10  -5 8648.03 1031.65   1
   1  10  -4 11614.4 1170.37   1
   1  10  -3 1693.58 755.896   1
   1  10  -2 2828.53 768.536   1
   1  10  -1 5300.19 873.435   1
   1  10   0 707.951 553.731   1
   1  10   1 100.603 496.205   1
   1  11 -10 8428.78 1114.93   1
   1  11  -9 1321.80 735.793   1
   1  11  -8 752.966 677.450   1
   1  11  -7 1402.41 698.215   1
   1  11  -6 3013.49 801.821   1
   1  11  -5 1613.49 675.129   1
   1  11  -4 2379.35 804.690   1
   1  11  -3 3832.42 860.957   1
   1  11  -2 2203.06 730.431   1
   1  11  -1 10016.9 1102.72   1
   1  11   0 4337.15 796.507   1
  -2  11   1 545.731 420.768   1
  -2  11   0 57.9185 448.428   1
  -2  11  -1-132.350 487.034   1
  -2  11  -2 1207.06 588.057   1
  -2  11  -3 1475.08 625.317   1
  -2  11  -4 2051.11 615.759   1
  -2  11  -5 14023.1 1317.68   1
  -2  11  -6 3054.37 720.512   1
  -2  11  -7 3129.90 796.437   1
  -2  11  -8 1321.22 642.229   1
  -2  10   2 187.952 406.045   1
  -2  10   1 249.969 406.210   1
  -2  10   0 469.846 496.531   1
  -2  10  -1 893.995 513.754   1
  -2  10  -2 5666.48 853.666   1
  -2  10  -3 5178.72 828.816   1
  -2  10  -4 2118.00 618.579   1
  -2  10  -5 8732.44 1011.62   1
  -2  10  -6 2736.57 688.113   1
  -2  10  -7 652.480 491.769   1
  -2  10  -8 5576.96 873.807   1
  -2  10  -9 1095.69 553.979   1
  -2  10 -10-193.437 469.670   1
  -2  10 -11 2950.37 732.697   1
  -2   9   3 2926.12 554.461   1
  -2   9   2 765.163 438.774   1
  -2   9   1-22.1936 398.297   1
  -2   9   0 5553.82 766.523   1
  -2   9  -1 29726.1 1547.07   1
  -2   9  -2 871.501 478.848   1
  -2   9  -3 8703.67 947.910   1
  -2   9  -4 162.983 422.434   1
  -2   9  -5 6877.48 879.205   1
  -2   9  -6 6704.05 886.170   1
  -2   9  -7 13034.9 1125.76   1
  -2   9  -8 1237.37 596.999   1
  -2   9  -9 6534.89 880.510   1
  -2   9 -10-288.369 458.234   1
  -2   9 -11 7187.83 929.273   1
  -2   8   5 1942.96 609.064   3
  -2   8   4 623.088 349.632   1
  -2   8   4 612.102 538.024   3
  -2   8   3 9629.84 837.858   1
  -2   8   2 5563.11 689.456   1
  -2   8   1 6573.63 745.851   1
  -2   8   0 7257.31 798.757   1
  -2   8  -1 1018.86 539.946   1
  -2   8  -2 800.481 552.302   1
  -2   8  -3 2035.12 611.195   1
  -2   8  -4 1663.31 600.226   1
  -2   8  -5 3600.19 641.481   1
  -2   8  -6 25508.7 1409.15   1
  -2   8  -7 1471.72 558.344   1
  -2   8  -8 247.322 451.043   1
  -2   8  -9 5389.60 781.924   1
  -2   8 -10 1966.13 557.863   1
  -2   8 -11 6839.18 825.238   1
  -2   7   6 10556.9 1100.09   3
  -2   7   5 3526.55 680.507   3
  -2   7   4 40.3026 450.469   3
  -2   7   4-39.1463 321.830   1
  -2   7   3 6399.31 656.052   1
  -2   7   3 7838.63 874.943   3
  -2   7   2 4270.88 580.813   1
  -2   7   1-96.5691 391.589   1
  -2   7   0 63697.6 1912.39   1
  -2   7  -1 2570.19 555.481   1
  -2   7  -2 16536.4 1056.33   1
  -2   7  -3 2024.42 588.103   1
  -2   7  -4 1292.40 531.788   1
  -2   7  -5 1346.65 541.135   1
  -2   7  -6 2426.99 571.334   1
  -2   7  -7 24675.7 1319.20   1
  -2   7  -8 28868.9 1436.59   1
  -2   7  -9 23849.1 1326.39   1
  -2   7 -10 228.939 369.307   1
  -2   6   8 592.747 530.236   3
  -2   6   7 310.410 503.499   3
  -2   6   6 5572.16 798.540   3
  -2   6   5 4580.73 719.322   3
  -2   6   5 4325.71 474.338   1
  -2   6   4 1733.33 498.877   3
   2  -6  -4 1346.61 404.349   2
  -2   6   4 1139.26 324.768   1
  -2   6   3 86.5250 330.442   3
   2  -6  -3-161.411 371.828   2
  -2   6   3-1.39120 344.033   1
  -2   6   2 12855.0 946.652   3
  -2   6   2 11069.8 776.430   1
  -2   6   1 146.118 357.730   1
  -2   6   0 21266.7 1067.73   1
  -2   6  -1 27098.3 1204.10   1
  -2   6  -2 644.720 447.276   1
  -2   6  -3 1427.69 514.584   1
  -2   6  -4 50571.8 1659.44   1
  -2   6  -5 25113.9 1216.61   1
  -2   6  -6 6072.44 696.570   1
  -2   6  -7 5941.68 675.974   1
  -2   6  -8 7858.49 752.827   1
  -2   6  -9 6819.17 726.257   1
  -2   6 -10 1800.53 450.071   1
  -2   5   9-336.376 541.535   3
  -2   5   8 1249.52 493.989   3
  -2   5   7 589.863 416.884   3
  -2   5   6-107.340 197.785   1
  -2   5   6-21.5920 430.165   3
  -2   5   5 6349.51 506.403   1
  -2   5   5 5551.25 706.591   3
   2  -5  -5 5534.12 496.668   2
  -2   5   4 23657.5 957.461   1
   2  -5  -4 22128.3 905.486   2
  -2   5   4 22949.8 1243.80   3
  -2   5   3 2721.48 542.342   3
  -2   5   3 2635.54 409.714   1
   2  -5  -3 3124.20 451.247   2
   2  -5  -2 439.503 335.793   2
  -2   5   2 695.278 392.400   3
  -2   5   2 907.875 324.507   1
   2  -5  -1-116.205 363.790   2
  -2   5   1 62.8082 322.649   1
  -2   5   0 37806.5 1284.99   1
  -2   5  -1 16045.1 893.995   1
  -2   5  -2 3200.28 532.039   1
  -2   5  -3 850.048 427.657   1
  -2   5  -4 233.399 351.276   1
  -2   5  -5 4829.82 592.696   1
  -2   5  -6 11338.2 798.642   1
  -2   5  -7 5887.41 614.980   1
  -2   5  -8 5190.97 583.735   1
  -2   5  -9-502.654 364.552   1
  -2   5 -10 1386.02 360.124   1
   2  -5  11 2020.30 616.657   3
  -2   4   9 1558.19 535.237   3
  -2   4   8 5021.99 777.723   3
  -2   4   7 302.063 418.902   3
  -2   4   6 5916.71 410.290   1
   2  -4  -6 6242.74 398.556   2
  -2   4   6 6797.03 748.576   3
   2  -4  -5 6090.31 457.430   2
  -2   4   5 5496.68 673.250   3
  -2   4   5 5870.43 445.584   1
   2  -4  -4 1791.49 329.808   2
  -2   4   4 2144.52 321.949   1
  -2   4   4 2264.74 444.717   3
  -2   4   3 23507.5 1087.99   3
   2  -4  -3 23498.3 893.444   1
  -2   4   3 22970.6 877.212   1
   2  -4  -2 204808. 2575.10   1
  -2   4   2 208006. 2611.39   1
   2  -4  -2 206867. 2937.02   3
  -2   4   2 209610. 2955.81   3
   2  -4  -1 123505. 2053.36   1
  -2   4   1 121084. 2028.76   1
   2  -4  -1 124877. 2178.04   3
   2  -4   0 1191.87 315.872   3
  -2   4   0 1716.58 431.209   1
   2  -4   0 1947.17 427.552   1
   2  -4   1 156223. 2352.37   1
  -2   4  -1 160924. 2389.27   1
   2  -4   2 30837.7 1124.51   1
  -2   4  -2 29370.7 1086.85   1
  -2   4  -3 1889.38 452.086   1
   2  -4   3 2437.87 513.097   1
   2  -4   4 43214.3 1311.09   1
  -2   4  -4 41387.6 1300.53   1
   2  -4   5 4765.75 571.335   2
  -2   4  -5 3870.43 488.384   1
  -2   4  -6 3535.36 456.266   1
  -2   4  -7 17662.6 884.295   1
  -2   4  -8 3979.06 469.732   1
  -2   4  -9 19352.5 922.422   1
   2  -4  10 1068.01 518.014   3
   2  -4  11 4682.95 767.256   3
  -2   3  10 3929.73 759.051   3
  -2   3   9 1404.73 500.939   3
  -2   3   8 1078.82 468.736   3
  -2   3   7 7652.43 786.236   3
   2  -3  -6 2117.59 248.270   2
  -2   3   6 1590.87 466.498   3
  -2   3   6 2558.08 259.985   1
  -2   3   5 373.981 184.996   1
  -2   3   5 600.207 351.542   3
   2  -3  -4 117695. 1711.07   1
  -2   3   4 114615. 1682.46   1
  -2   3   4 111126. 2221.57   3
   2  -3  -3 167668. 2106.80   1
  -2   3   3 166783. 2527.05   3
  -2   3   3 168242. 2074.93   1
   2  -3  -3 166795. 2524.02   3
   2  -3  -2 267973. 2686.91   1
  -2   3   2 270824. 2678.88   1
   2  -3  -2 271905. 2993.47   3
  -2   3   2 268464. 2985.79   3
  -2   3   1-263.165 357.071   1
   2  -3  -1 78.7637 253.216   3
   2  -3   0 1379.91 375.687   1
  -2   3   0 346.275 384.583   1
  -2   3  -1 4622.85 522.558   1
   2  -3   1 5028.38 503.715   1
   2  -3   2 86784.4 1653.27   1
  -2   3  -2 90313.9 1674.19   1
   2  -3   3 11054.0 698.166   1
  -2   3  -3 10179.7 631.725   1
   2  -3   4 82524.3 1639.26   1
  -2   3  -4 81798.2 1625.75   1
   2  -3   5 2108.29 415.291   1
  -2   3  -5 929.730 304.324   1
  -2   3  -6 336.350 246.148   1
   2  -3   6 246.219 335.611   2
   2  -3   7 8906.48 666.635   2
  -2   3  -7 9251.55 587.489   1
   2  -3   8 20438.4 964.362   2
  -2   3  -8 22141.3 876.897   1
  -2   3  -9 9291.61 574.019   1
   2  -3   9 9788.67 940.139   3
   2  -3  10 14377.5 1208.67   3
   2  -3  11-218.952 471.847   3
  -2   2  11 7400.11 950.693   3
  -2   2  10 2246.68 609.059   3
  -2   2   9 374.291 436.711   3
  -2   2   8 231.213 393.611   3
   2  -2  -7 6788.37 247.253   2
  -2   2   7 8692.96 788.151   3
   2  -2  -6 523.535 186.627   1
   2  -2  -6 202.989 110.045   2
  -2   2   6 48.1675 122.855   1
  -2   2   6 293.314 361.365   3
   2  -2  -5 2040.09 263.137   1
  -2   2   5 1686.26 229.638   1
  -2   2   5 1213.77 362.641   3
  -2   2   4 19012.8 874.135   3
  -2   2   4 18742.3 632.104   1
   2  -2  -4 18835.6 646.080   1
   2  -2  -4 18869.1 854.729   3
   2  -2  -3 2584.35 336.653   3
  -2   2   3 2285.86 299.938   1
   2  -2  -3 2294.84 302.062   1
  -2   2   3 1918.12 370.808   3
  -2   2   2 7888.32 493.995   1
   2  -2  -2 7959.74 470.164   1
  -2   2   2 7927.22 560.052   3
   2  -2  -2 8133.79 511.291   3
   2  -2  -1 1815.24 342.330   1
  -2   2   1 2011.53 378.857   1
   2  -2  -1 1642.86 330.924   3
   2  -2   0 7149.23 503.066   1
  -2   2   0 7560.62 529.019   1
   2  -2   1 74807.0 1339.81   1
  -2   2  -1 71961.9 1333.64   1
  -2   2  -2 272899. 2575.99   1
   2  -2   2 275190. 2547.06   1
  -2   2  -3 4154.39 408.942   1
   2  -2   3 5945.06 447.702   1
  -2   2  -4 57797.1 1233.39   1
   2  -2   4 55450.2 1224.85   1
   2  -2   5 1173.35 315.848   1
  -2   2  -5 736.310 235.684   1
   2  -2   6 3067.82 410.105   2
  -2   2  -6 3533.91 354.287   1
  -2   2  -7 5651.29 415.162   1
   2  -2   7 6260.38 523.691   2
   2  -2   7 5529.64 651.669   3
  -2   2  -8 11722.0 548.806   1
   2  -2   8 12161.7 669.465   2
   2  -2   9-233.823 449.140   3
   2  -2  10 1476.05 554.185   3
   2  -2  11 1062.56 555.141   3
  -2   1  12 4571.02 833.206   3
  -2   1  11 89.1380 368.983   3
  -2   1  10-278.973 405.854   3
  -2   1   9 113.304 344.139   3
  -2   1   8-223.565 376.254   3
  -2   1   7 412.818 361.794   3
   2  -1  -7 332.255 114.421   1
   2  -1  -7 156.953 117.518   2
   2  -1  -6 2844.60 235.289   2
   2  -1  -6 2907.72 237.907   1
  -2   1   6 2926.34 464.755   3
  -2   1   5 42484.6 1259.97   3
   2  -1  -5 41498.7 825.690   2
   2  -1  -5 40824.5 847.638   1
   2  -1  -5 42477.7 1260.05   3
  -2   1   4 6855.89 532.123   3
   2  -1  -4 6520.97 370.519   1
   2  -1  -4 6661.56 494.652   3
  -2   1   4 7119.39 390.375   1
  -2   1   3 98308.2 1515.64   3
   2  -1  -3 99947.6 1350.12   1
  -2   1   3 103086. 1393.15   1
   2  -1  -3 99495.3 1508.65   3
   2  -1  -2-90.4218 242.389   1
  -2   1   2-219.801 247.901   3
  -2   1   2 135.383 282.918   1
   2  -1  -2 192.743 235.233   3
   2  -1  -1 219.923 255.930   1
  -2   1   1 306.921 299.349   1
   2  -1  -1 215.061 204.989   3
  -2   1   0 114264. 1491.57   1
   2  -1   0 112799. 1463.84   1
   2  -1   1 316154. 2463.95   1
  -2   1  -1 314434. 2466.30   1
  -2   1  -2 54863.9 1066.28   1
   2  -1   2 55262.5 1053.51   1
   2  -1   3 3117.30 302.515   1
  -2   1  -3 2890.81 323.583   1
  -2   1  -4 162.618 184.868   1
   2  -1   4 336.749 221.316   1
   2  -1   5 14832.9 583.577   1
  -2   1  -5 14385.7 565.678   1
   2  -1   5 14414.3 873.379   3
   2  -1   6 31345.1 787.786   1
  -2   1  -6 31448.7 772.629   1
   2  -1   6 32616.9 1359.76   3
   2  -1   7 13893.7 995.431   3
  -2   1  -7 13928.9 500.823   1
   2  -1   7 12671.8 588.610   2
   2  -1   8 9125.69 907.871   3
   2  -1   9 3617.66 670.494   3
   2  -1  10 1712.43 610.998   3
   2  -1  11 649.171 565.828   3
  -2   0  12 14527.0 1260.39   3
  -2   0  11 431.612 457.953   3
  -2   0  10 10647.6 953.355   3
  -2   0   9 10035.0 865.816   3
   2   0  -9 8323.93 344.567   2
   2   0  -8 663.784 213.444   2
  -2   0   8 884.972 367.856   3
   2   0  -8 701.171 118.463   1
   2   0  -7 26034.9 680.202   2
   2   0  -7 26276.7 647.406   1
  -2   0   7 25367.5 1114.14   3
   2   0  -6 77236.0 1139.01   1
   2   0  -6 76071.6 1177.97   2
  -2   0   6 76662.2 1721.79   3
   2   0  -6 79375.5 1743.28   3
   2   0  -5 22009.6 647.717   2
   2   0  -5 21448.9 640.152   1
   2   0  -5 21988.4 839.973   3
  -2   0   5 23245.4 873.303   3
   2   0  -4 153729. 1674.42   2
   2   0  -4 157329. 1887.52   3
   2   0  -4 158685. 1675.61   1
  -2   0   4 156927. 1894.86   3
   2   0  -3 8773.90 421.580   3
   2   0  -3 8269.05 450.059   2
  -2   0   3 8634.99 423.965   3
   2   0  -3 8554.71 424.655   1
  -2   0   2 191704. 1825.05   1
   2   0  -2 187377. 1769.39   1
  -2   0   2 189382. 1352.65   3
   2   0  -2 188409. 1358.63   3
  -2   0   1 1523.01 315.663   1
   2   0  -1 1470.98 290.223   1
   2   0   0 8723.72 433.595   1
  -2   0   0 8725.48 457.511   1
   2   0   1 124846. 1452.62   1
  -2   0  -1 117215. 1420.78   1
  -2   0  -2 2481.11 292.133   1
   2   0   2 2842.51 305.027   1
  -2   0  -3 75704.7 1157.22   1
   2   0   3 73407.5 1544.05   3
   2   0   3 75865.1 1155.55   1
   2   0   4 94688.4 1941.78   3
   2   0   4 94236.4 1274.16   1
  -2   0  -4 93492.0 1249.34   1
   2   0   5 28958.2 1221.22   3
   2   0   5 28417.9 672.178   1
   2   0   6 1122.92 178.757   1
   2   0   6 1092.29 404.579   3
   2   0   7 1212.69 189.547   2
   2   0   7 1007.57 140.385   2
   2   0   7 843.663 394.509   3
   2   0   8 8034.44 879.763   3
   2   0   9 4681.87 771.519   3
   2   0  10 116.043 457.285   3
  -2  -1  13 2288.80 656.398   3
  -2  -1  12 43.7336 395.588   3
  -2  -1  11 2038.59 542.381   3
  -2  -1  10 1079.69 428.025   3
   2   1  -9 18328.4 696.423   2
   2   1  -9 16746.8 534.534   1
  -2  -1   9 18109.1 1082.67   3
   2   1  -8 7436.17 379.949   1
   2   1  -8 7437.18 485.390   2
  -2  -1   8 7998.98 706.097   3
   2   1  -7 169.541 238.406   2
  -2  -1   7-202.704 310.532   3
  -2  -1   7 117.254 162.343   2
   2   1  -7 118.152 147.872   1
   2   1  -6 1478.07 292.424   2
  -2  -1   6 2209.34 273.943   2
  -2  -1   6 2028.41 376.373   3
  -2  -1   5 973.965 227.447   2
   2   1  -5 1036.59 286.675   2
  -2  -1   5 878.167 290.643   3
  -2  -1   4 95310.7 1419.62   2
   2   1  -4 93162.1 1404.18   2
  -2  -1   4 95325.3 1311.99   3
  -2  -1   3 327295. 2534.59   2
   2   1  -3 322451. 2537.32   2
  -2  -1   3 322657. 1813.37   3
  -2  -1   2 9378.15 485.897   2
   2   1  -2 9500.21 513.696   2
  -2  -1   1 52612.8 1004.53   2
   2   1  -1 52154.4 1018.80   2
   2   1   0-17.9229 148.230   3
   2   1   0-24.6929 211.190   2
   2   1   0-34.5392 180.502   1
   2   1   1 1061.31 258.966   1
   2   1   1 1287.29 289.722   2
   2   1   1 938.222 296.399   3
   2   1   2 60449.6 1025.63   2
   2   1   2 58714.4 1276.22   3
   2   1   2 57135.1 987.690   1
   2   1   3 5513.43 335.265   2
   2   1   3 5835.41 339.189   1
   2   1   3 5690.82 508.887   3
   2   1   4 22690.5 603.174   2
   2   1   4 23140.8 618.939   1
   2   1   4 21320.2 1001.24   3
   2   1   5 47762.3 1609.97   3
   2   1   5 47436.0 805.787   2
   2   1   5 48132.8 813.268   1
   2   1   6 5458.91 223.595   2
   2   1   6 4946.05 203.676   1
   2   1   6 5133.20 234.482   2
   2   1   6 5060.58 689.055   3
   2   1   7 551.721 438.093   3
   2   1   8 5649.67 778.434   3
   2   1   9 1249.25 510.362   3
   2   1  10 509.755 464.255   3
  -2  -2  13 1922.86 618.449   3
  -2  -2  12 748.937 474.582   3
  -2  -2  11-96.4466 362.874   3
  -2  -2  10 2291.90 535.066   3
   2   2 -10 2208.18 413.260   2
  -2  -2   9 12727.1 646.333   2
  -2  -2   9 13516.8 919.184   3
   2   2  -9 13964.3 736.115   2
   2   2  -8 1703.84 371.620   2
  -2  -2   8 2151.63 302.572   2
  -2  -2   8 1925.02 404.990   3
  -2  -2   7 241.705 290.695   3
   2   2  -7 705.855 350.460   2
  -2  -2   7 233.207 201.605   2
  -2  -2   6 17601.1 726.157   2
  -2  -2   6 18531.1 779.189   3
   2   2  -6 18298.8 755.319   2
  -2  -2   5 13611.0 631.365   2
   2   2  -5 12119.2 651.767   2
  -2  -2   5 13746.4 584.401   3
  -2  -2   4 1522.44 328.339   2
   2   2  -4 734.197 371.999   2
  -2  -2   3 825.951 299.756   2
   2   2  -3 2748.72 411.880   2
  -2  -2   2 2476.91 138.549   3
  -2  -2   2 2526.53 379.871   2
   2   2  -2 2761.78 442.761   2
   2   2  -1 11888.0 369.722   3
  -2  -2   1 12311.7 362.927   3
  -2  -2   1 11726.6 568.871   2
   2   2  -1 12184.2 598.137   2
   2   2   0 17373.8 582.357   3
  -2  -2   0 17306.3 635.790   2
   2   2   0 18372.5 657.341   2
  -2  -2   0 17685.9 559.256   3
  -2  -2  -1 84005.2 1296.37   2
   2   2   1 84823.0 1309.92   2
   2   2   1 85511.7 1425.96   3
  -2  -2  -1 82890.4 1412.42   3
   2   2   2 5310.19 484.067   3
   2   2   2 4995.65 354.078   2
  -2  -2  -2 4878.93 439.786   3
  -2  -2  -3 6710.31 560.713   3
   2   2   3 6771.61 375.543   2
   2   2   3 6579.99 383.106   1
   2   2   3 6440.53 576.135   3
   2   2   4 13418.6 505.714   1
   2   2   4 13185.6 467.841   2
   2   2   4 14485.4 880.065   3
   2   2   5 22413.3 1167.78   3
   2   2   5 21949.4 487.819   2
   2   2   5 22575.8 570.868   1
   2   2   6 7905.50 815.855   3
   2   2   7 2001.95 554.940   3
   2   2   8-49.1959 456.558   3
   2   2   9 658.572 464.430   3
  -2  -3  13 3303.67 698.579   3
  -2  -3  12 216.124 395.055   3
  -2  -3  11 3072.45 579.705   3
  -2  -3  10 31473.1 1418.10   3
  -2  -3  10 27094.6 1050.49   2
   2   3 -10 29860.3 1148.86   2
  -2  -3   9 2893.26 471.875   3
  -2  -3   9 3179.65 408.413   2
   2   3  -9 2986.40 539.552   2
  -2  -3   8 1846.96 385.398   3
   2   3  -8 1762.47 476.727   2
  -2  -3   8 2018.79 335.993   2
  -2  -3   7 25144.2 971.604   2
   2   3  -7 24408.7 962.015   2
  -2  -3   7 24752.4 960.996   3
  -2  -3   6 80698.8 1671.54   2
   2   3  -6 84459.6 1667.43   2
  -2  -3   5 102902. 1844.61   2
   2   3  -5 103610. 1846.37   2
  -2  -3   4 7637.23 549.765   2
   2   3  -4 8264.61 624.783   2
  -2  -3   3 32375.4 1007.31   2
   2   3  -3 32490.3 1044.76   2
  -2  -3   2 46787.6 783.194   3
   2   3  -2 48724.2 1221.20   2
  -2  -3   2 47842.7 1183.77   2
  -2  -3   1 27211.4 701.008   3
  -2  -3   1 28539.5 901.994   2
   2   3  -1 27468.8 923.714   2
   2   3  -1 28651.1 719.345   3
  -2  -3   0 16734.6 685.565   2
  -2  -3   0 16840.7 642.529   3
   2   3   0 15940.5 642.225   3
  -2  -3  -1 38843.3 1091.50   3
  -2  -3  -1 36095.9 948.549   2
   2   3   1 37836.0 983.306   2
   2   3   1 35158.1 1050.69   3
   2   3   2 24504.8 982.725   3
  -2  -3  -2 23545.0 963.190   3
  -2  -3  -2 23388.2 745.013   2
   2   3   2 22960.2 746.218   2
   2   3   3 24216.9 720.493   2
   2   3   3 24477.2 1092.44   3
   2   3   4 165.809 149.151   1
   2   3   4-287.374 370.821   3
   2   3   5 52662.3 1847.03   3
   2   3   5 53488.9 962.742   1
   2   3   6 192.555 428.916   3
   2   3   7 96.4627 445.867   3
   2   3   8-81.3147 466.796   3
   2   3   9-77.9811 471.857   3
  -2  -4  14 455.048 480.219   3
  -2  -4  13 228.006 388.441   3
  -2  -4  12 4411.52 685.779   3
  -2  -4  11 1860.16 471.017   3
   2   4 -11 1760.53 507.199   2
   2   4 -10 18457.4 1046.28   2
  -2  -4  10 17882.0 1075.28   3
   2   4  -9 23130.5 1118.03   2
  -2  -4   9 23427.3 1115.88   3
   2   4  -8 5406.68 688.375   2
  -2  -4   7 13414.3 786.464   2
   2   4  -7 11509.3 809.396   2
  -2  -4   6 60896.9 1586.22   2
   2   4  -6 64048.4 1612.39   2
  -2  -4   5 8333.07 621.155   2
   2   4  -5 11128.4 809.979   2
  -2  -4   4 15125.1 785.949   2
   2   4  -4 16701.2 905.957   2
  -2  -4   3 40.1756 165.788   3
  -2  -4   3 232.024 291.601   2
  -2  -4   2 43088.8 1235.81   2
   2   4  -2 45199.5 1290.03   2
  -2  -4   2 43843.5 956.976   3
  -2  -4   1 338.677 202.594   3
  -2  -4   1 66.0949 243.904   2
   2   4  -1 225.259 231.430   3
   2   4   0 3274.47 393.414   3
  -2  -4   0 3487.17 372.941   2
  -2  -4   0 3402.66 370.560   3
  -2  -4  -1 1710.06 317.263   3
  -2  -4  -1 1538.55 277.449   2
   2   4   1 1646.91 350.080   3
   2   4   2 3906.90 500.931   3
  -2  -4  -2 4007.47 369.712   2
   2   4   2 5159.09 478.038   2
  -2  -4  -3 16704.7 662.640   2
   2   4   3 16823.3 709.900   2
   2   4   3 16511.3 975.464   3
   2   4   4 1653.17 490.782   3
   2   4   4 1780.95 314.289   2
   2   4   5 13257.8 1029.39   3
   2   4   6 16938.4 1238.31   3
   2   4   7 531.731 481.516   3
   2   4   8 3647.47 767.723   3
  -2  -5  14 1220.75 521.989   3
  -2  -5  13 616.636 416.172   3
  -2  -5  12 4078.62 648.353   3
   2   5 -11-351.156 557.365   2
  -2  -5  11-87.7428 327.928   3
   2   5 -10 5588.03 756.652   2
  -2  -5  10 5967.39 666.713   3
   2   5  -9 25697.6 1290.52   2
   2   5  -8 15693.1 1027.01   2
   2   5  -7 5561.21 741.438   2
   2   5  -6 55890.2 1678.10   2
   2   5  -5 18617.4 1017.95   2
   2   5  -4 1482.48 602.652   2
  -2  -5   3 758.400 331.109   2
  -2  -5   3 546.670 197.297   3
  -2  -5   2 1192.81 349.703   2
  -2  -5   2 963.497 245.193   3
  -2  -5   1 5840.50 476.643   3
   2   5  -1 5932.53 505.290   3
  -2  -5   1 5093.26 502.450   2
  -2  -5   0 20320.8 891.767   2
   2   5   0 22069.9 947.123   2
   2   5   0 19904.1 904.308   3
  -2  -5   0 21106.8 915.750   3
   2   5   1 28609.0 1054.19   2
   2   5   1 28285.2 1151.88   3
  -2  -5  -1 26989.9 996.820   2
   2   5   2 2218.81 443.087   3
   2   5   2 2313.53 436.876   2
  -2  -5  -2 1922.82 308.719   2
   2   5   3-3.38808 341.306   2
  -2  -5  -3-20.7544 156.143   2
   2   5   3-10.5809 318.085   3
   2   5   4 1692.88 486.986   3
   2   5   4 1278.42 320.661   2
   2   5   5 2981.87 598.376   3
   2   5   6 11493.0 1106.64   3
   2   5   7 4176.61 800.805   3
  -2  -6  14-108.127 419.857   3
  -2  -6  13 52.2302 348.924   3
   2   6 -12 4016.59 639.628   1
  -2  -6  12 2229.85 536.415   3
   2   6 -11-106.141 597.787   2
   2   6 -10 6303.42 843.935   2
   2   6  -9 11659.2 1037.17   2
   2   6  -8 10334.6 981.105   2
   2   6  -7 623.828 630.488   2
   2   6  -6 21192.1 1226.28   2
   2   6  -5 6644.04 799.820   2
  -2  -6   4 1066.29 268.255   3
   2   6  -4 1177.94 561.280   2
   2   6  -3 10853.2 899.350   2
  -2  -6   3 10458.5 629.931   3
  -2  -6   2 2482.57 362.630   3
   2   6  -2 1646.58 569.669   2
   2   6  -1 12356.4 753.902   3
  -2  -6   1 12813.4 752.922   3
   2   6  -1 12252.6 885.014   2
   2   6   0 24531.0 1133.12   2
   2   6   0 24848.0 1114.64   3
   2   6   1 9702.48 776.777   3
   2   6   1 10087.6 789.157   2
   2   6   2 8679.56 787.202   3
  -2  -6  -2 7848.89 592.694   2
   2   6   3 2699.29 534.927   3
   2   6   3 2170.15 442.150   2
   2   6   4-45.7441 348.678   3
   2   6   5 832.541 469.324   3
   2   6   6 971.179 519.132   3
  -2  -7  14 1599.04 554.872   3
  -2  -7  13-21.5137 397.305   3
   2   7 -12 4892.15 738.369   1
   2   7 -11-29.6117 648.803   2
   2   7 -10 15.8948 648.334   2
   2   7  -9 11187.4 1103.06   2
   2   7  -8 40783.6 1788.75   2
   2   7  -7 539.577 696.556   2
   2   7  -6 39591.5 1676.71   2
   2   7  -5 6104.42 829.854   2
  -2  -7   5 5716.52 532.485   3
   2   7  -4 315.202 653.891   2
  -2  -7   4 125.440 225.868   3
   2   7  -3 2311.53 694.475   2
   2   7  -2 8436.09 886.786   2
   2   7  -1 535.368 585.786   2
   2   7   0 5563.43 732.658   2
   2   7   0 5807.77 646.382   3
   2   7   1 186.176 347.963   3
   2   7   1 196.365 482.156   2
   2   7   2 116.539 454.231   2
   2   7   2 582.250 418.746   3
   2   7   3 103.999 396.691   3
   2   7   3 920.463 443.189   1
   2   7   4 596.255 475.965   3
   2   7   5 230.934 430.926   3
  -2  -8  14 776.191 491.263   3
   2   8 -13 1114.43 571.421   1
   2   8 -12 2148.36 681.827   1
   2   8 -11 5.73075 665.047   2
   2   8 -10 1157.38 655.588   2
   2   8  -9 9015.47 1069.32   2
   2   8  -8 8846.50 1041.86   2
   2   8  -7-123.460 755.709   2
   2   8  -6 7901.37 1043.24   2
   2   8  -5 21345.0 1361.42   2
   2   8  -4 2941.55 748.283   2
   2   8  -3 1129.50 707.069   2
   2   8  -2 10697.5 1023.02   2
   2   8  -1 938.826 619.294   2
   2   8   0 4839.38 727.967   2
   2   8   1 11871.4 952.359   2
   2   8   1 11900.9 1000.88   3
   2   8   2 481.557 446.890   3
   2   8   2 1972.78 564.646   1
   2   8   3 805.632 460.374   3
   2   8   4 1153.58 532.422   3
  -2  -9  14 1264.78 515.465   3
   2   9 -13 1093.28 609.996   1
   2   9 -12 3283.34 793.016   1
   2   9 -11 4529.04 871.592   2
   2   9 -10 2493.75 770.056   2
   2   9  -9 261.077 613.919   2
   2   9  -8-488.171 760.272   2
   2   9  -7 278.529 767.707   2
   2   9  -6 1181.32 700.066   2
   2   9  -5 5287.74 908.500   2
   2   9  -4 3157.79 771.473   2
   2   9  -3 4464.31 837.436   2
   2   9  -2 6140.32 894.354   2
   2   9  -1 10746.5 1031.09   2
   2   9   0 790.809 535.566   2
   2   9   1 3677.27 696.662   1
   2   9   2 147.825 459.063   3
   2   9   3 574.315 523.846   3
   2  10 -13 1798.17 721.334   1
   2  10 -12 2012.33 760.185   1
   2  10 -11 5917.87 962.333   1
   2  10 -10 6459.57 1007.33   2
   2  10  -9 8741.73 1171.11   2
   2  10  -8 3657.32 927.218   2
   2  10  -7-707.376 816.311   2
   2  10  -6 155.957 737.255   2
   2  10  -5 4540.10 948.668   2
   2  10  -4 618.987 666.644   2
   2  10  -3 25177.7 1579.92   2
   2  10  -2 23099.8 1495.16   2
   2  10  -1 10898.9 1101.39   1
   2  10   0 1270.44 603.538   1
   2  11  -9 1121.12 671.707   1
   2  11  -8-737.351 832.233   2
   2  11  -7-180.231 689.967   2
   2  11  -6-550.655 788.855   2
   2  11  -5 756.070 671.378   2
   2  11  -3 2506.48 818.209   1
   2  11  -2 4511.89 901.949   1
   2  11  -1 1313.89 668.403   1
   2  11   0 36.6229 483.726   1
  -3  11   2 85.6901 417.398   1
  -3  11   1 682.634 479.234   1
  -3  11   0-208.824 481.905   1
  -3  11  -1 1227.91 518.679   1
  -3  11  -2-458.867 582.101   1
  -3  11  -3 1296.13 597.613   1
  -3  11  -4 9255.58 1088.01   1
  -3  11  -5 3969.49 759.254   1
  -3  11  -6 361.324 543.765   1
  -3  10   3 804.180 436.508   1
  -3  10   2 1164.31 456.565   1
  -3  10   1 10408.1 1045.53   1
  -3  10   0-92.6744 488.227   1
  -3  10  -1 28.3771 413.246   1
  -3  10  -2 2035.99 631.953   1
  -3  10  -3 138.616 444.699   1
  -3  10  -4 13227.2 1214.92   1
  -3  10  -5 24697.6 1623.12   1
  -3  10  -6 740.400 455.417   1
  -3  10  -7 446.213 474.136   1
  -3  10  -8 4713.43 831.726   1
  -3  10  -9-629.262 513.407   1
  -3  10 -10 5041.47 830.391   1
  -3   9   3-393.506 426.300   1
  -3   9   2-116.087 412.671   1
  -3   9   1 1549.39 504.097   1
  -3   9   0 657.939 404.307   1
  -3   9  -1 4086.39 729.436   1
  -3   9  -2 21085.4 1376.92   1
  -3   9  -3 177.900 494.004   1
  -3   9  -4 1735.20 615.646   1
  -3   9  -5 567.169 531.278   1
  -3   9  -6-44.3031 530.122   1
  -3   9  -7 9557.47 1030.11   1
  -3   9  -8 19554.5 1393.95   1
  -3   9  -9-254.914 469.536   1
  -3   9 -10 3165.69 702.517   1
  -3   9 -11 5580.91 846.977   1
  -3   8   5 764.661 542.884   3
  -3   8   4 7251.70 747.500   1
  -3   8   3-62.9182 381.851   1
  -3   8   2 17728.2 1152.08   1
  -3   8   1 6488.30 763.312   1
  -3   8   0 3053.99 604.829   1
  -3   8  -1 772.669 482.694   1
  -3   8  -2 6371.39 793.949   1
  -3   8  -3 13281.6 1084.17   1
  -3   8  -4 3881.69 700.505   1
  -3   8  -5 30011.9 1571.43   1
  -3   8  -6 1975.17 573.763   1
  -3   8  -7 4164.78 714.386   1
  -3   8  -8 7209.74 874.326   1
  -3   8  -9 5058.67 751.990   1
  -3   8 -10 9.42608 444.233   1
  -3   7   6 9304.80 1027.74   3
  -3   7   5 3647.84 741.723   3
  -3   7   5 3762.52 517.688   1
  -3   7   4 472.912 325.328   1
  -3   7   4 635.541 453.877   3
  -3   7   3 3471.69 546.557   1
  -3   7   2 5374.68 649.134   1
  -3   7   1 18634.2 1122.75   1
  -3   7   0 13163.6 971.086   1
  -3   7  -1 119.468 436.806   1
  -3   7  -2 10637.3 899.762   1
  -3   7  -3 11937.6 973.029   1
  -3   7  -4 3419.10 616.555   1
  -3   7  -5 1571.21 550.629   1
  -3   7  -6 915.214 427.599   1
  -3   7  -7-77.8360 426.162   1
  -3   7  -8 2620.99 546.955   1
  -3   7  -9 5021.03 704.643   1
  -3   7 -10 1180.50 441.277   1
  -3   6   8 1376.21 534.888   3
  -3   6   7 3219.55 722.749   3
  -3   6   6 11035.0 1068.92   3
  -3   6   6 11804.0 761.079   1
  -3   6   5 1487.09 367.598   1
  -3   6   5 1639.02 536.672   3
  -3   6   4 2995.42 457.815   1
  -3   6   4 2715.07 594.736   3
  -3   6   3 31352.0 1306.15   1
  -3   6   2 28187.6 1254.41   1
  -3   6   1 8551.89 754.916   1
  -3   6   0 37964.7 1468.46   1
  -3   6  -1 17759.4 1037.97   1
  -3   6  -2-166.298 432.654   1
  -3   6  -3 9768.39 843.960   1
  -3   6  -4 1976.20 498.439   1
  -3   6  -5 2694.13 525.115   1
  -3   6  -6 10116.0 858.537   1
  -3   6  -7-408.505 446.794   1
  -3   6  -8 3364.33 549.905   1
  -3   6  -9 6108.37 699.207   1
  -3   6 -10 1012.58 384.124   1
  -3   5   9 930.159 510.153   3
  -3   5   8 2348.09 605.300   3
  -3   5   7-29.8030 420.770   3
  -3   5   6 3543.57 671.198   3
  -3   5   6 3572.78 429.330   1
   3  -5  -5 8495.09 648.138   2
  -3   5   5 9219.32 651.001   1
  -3   5   5 7820.72 823.391   3
  -3   5   4 62466.7 1649.77   1
  -3   5   4 61193.5 1981.14   3
  -3   5   3 69025.1 1757.96   1
  -3   5   3 68721.0 2001.54   3
  -3   5   2 4780.58 523.796   1
  -3   5   1 8580.38 688.501   1
  -3   5   0 46535.4 1506.52   1
  -3   5  -1 5999.30 633.948   1
  -3   5  -2 660.539 371.402   1
  -3   5  -3 4979.88 599.233   1
  -3   5  -4 9521.86 777.115   1
  -3   5  -5 2156.29 455.091   1
  -3   5  -6 6353.22 662.309   1
  -3   5  -7 6328.04 637.822   1
  -3   5  -8 315.839 306.787   1
  -3   5  -9-83.9338 279.045   1
  -3   4  10 314.105 543.704   3
  -3   4   9 4409.33 743.108   3
  -3   4   8 248.226 434.439   3
  -3   4   7 716.952 423.726   3
  -3   4   7 421.343 182.489   1
   3  -4  -6 6108.06 535.231   1
  -3   4   6 6616.17 763.714   3
  -3   4   6 6424.66 502.898   1
   3  -4  -5 515.835 311.831   1
  -3   4   5 367.150 237.548   1
  -3   4   5 76.8353 373.063   3
   3  -4  -4 3782.25 483.678   1
  -3   4   4 2988.97 510.862   3
  -3   4   4 3640.43 439.118   1
  -3   4   3 6.04020 301.943   3
  -3   4   3 273.473 286.392   1
   3  -4  -3 72.1052 302.957   1
   3  -4  -2 44091.7 1338.93   1
  -3   4   2 44743.4 1353.43   1
   3  -4  -1 10753.9 723.299   1
  -3   4   1 10545.9 708.499   1
   3  -4  -1 9827.62 655.095   3
   3  -4   0 44214.4 1362.07   1
  -3   4   0 40795.6 1321.43   1
   3  -4   1 6346.92 583.797   1
  -3   4  -1 5162.91 552.526   1
   3  -4   2 2725.73 532.291   1
  -3   4  -2 2606.91 484.647   1
   3  -4   3 33224.8 1239.23   1
  -3   4  -3 30478.6 1193.49   1
  -3   4  -4 31711.0 1225.75   1
  -3   4  -5 61428.7 1681.39   1
  -3   4  -6 18885.1 969.249   1
  -3   4  -7 532.370 293.628   1
  -3   4  -8 7500.18 638.173   1
  -3   4  -9-194.848 249.390   1
   3  -4  10 789.555 454.053   3
  -3   3  11 1723.65 617.933   3
  -3   3  10 644.095 430.101   3
  -3   3   9 5653.99 810.153   3
  -3   3   8 176.076 367.586   3
   3  -3  -7 579.297 264.964   1
  -3   3   7 275.079 185.545   1
   3  -3  -7 124.054 140.553   2
  -3   3   7 94.5966 369.850   3
   3  -3  -6 11507.5 629.353   1
  -3   3   6 11698.3 874.667   3
  -3   3   6 12222.1 619.596   1
  -3   3   5 2257.24 473.531   3
   3  -3  -5 2981.71 370.339   1
  -3   3   5 2652.64 346.333   1
  -3   3   4 708.768 355.382   3
  -3   3   4 520.589 251.868   1
   3  -3  -4 626.212 259.762   1
  -3   3   3 936.669 360.205   3
  -3   3   3 1177.77 301.997   1
   3  -3  -3 1283.98 318.771   1
   3  -3  -3 1318.59 282.598   3
   3  -3  -2 52049.2 1361.28   3
   3  -3  -2 52823.9 1365.90   1
  -3   3   2 51747.5 1348.73   1
  -3   3   1 327.923 315.889   1
   3  -3  -1 258.683 269.372   1
   3  -3  -1 225.385 246.894   3
   3  -3   0 61947.9 1500.01   1
  -3   3   0 59931.4 1473.66   1
   3  -3   1 122528. 2100.93   1
  -3   3  -1 126164. 2128.95   1
   3  -3   2 113280. 2026.37   1
  -3   3  -2 112248. 2031.10   1
   3  -3   3 20478.4 916.645   1
  -3   3  -3 19018.7 887.216   1
   3  -3   4 20264.2 919.492   1
  -3   3  -4 19138.8 898.012   1
  -3   3  -5 2643.91 403.937   1
   3  -3   5 2086.36 404.197   1
   3  -3   6 18329.7 885.693   1
  -3   3  -6 17922.0 878.804   1
  -3   3  -7 34822.1 1200.50   1
  -3   3  -8 904.727 279.936   1
   3  -3   9 9351.48 990.532   3
   3  -3  10 320.944 498.869   3
  -3   2  11 5648.31 847.856   3
  -3   2  10 938.759 489.975   3
  -3   2   9-103.345 403.359   3
   3  -2  -8 10269.0 502.854   1
   3  -2  -8 9865.35 448.943   2
  -3   2   8 9855.65 873.443   3
   3  -2  -7 8558.83 487.528   1
   3  -2  -7 7483.86 440.459   2
  -3   2   7 8242.29 776.666   3
  -3   2   6 768.235 219.024   1
  -3   2   6 759.507 362.525   3
   3  -2  -6 733.661 208.383   2
   3  -2  -6 821.926 218.862   1
   3  -2  -5-135.235 212.650   1
  -3   2   5 138.559 197.824   1
  -3   2   5 219.219 300.578   3
   3  -2  -4 11073.0 660.003   3
   3  -2  -4 9651.34 564.469   1
  -3   2   4 11102.6 679.724   3
  -3   2   4 10832.4 597.023   1
   3  -2  -3 39176.8 1096.20   1
  -3   2   3 38114.5 1072.40   1
  -3   2   3 39719.0 1123.31   3
   3  -2  -3 40240.2 1121.57   3
  -3   2   2 774.803 335.393   1
   3  -2  -2 619.380 253.452   3
   3  -2  -2 371.276 278.483   1
  -3   2   1 1070.80 379.930   1
   3  -2  -1 1298.52 324.488   1
   3  -2  -1 1203.28 276.236   3
   3  -2   0 2094.44 345.972   1
  -3   2   0 2370.29 449.891   1
  -3   2  -1 425.774 354.158   1
   3  -2   1-295.887 328.277   1
   3  -2   2 5787.87 484.492   1
  -3   2  -2 6114.95 527.113   1
   3  -2   3 205806. 2589.17   1
  -3   2  -3 206015. 2574.50   1
  -3   2  -4 12923.6 684.097   1
   3  -2   4 13077.0 681.311   1
   3  -2   5 4748.92 456.986   1
  -3   2  -5 4228.25 435.403   1
   3  -2   6 3789.60 443.796   1
  -3   2  -6 4150.86 408.490   1
   3  -2   7 26903.0 965.343   1
   3  -2   7 29661.4 1448.67   3
  -3   2  -7 29349.5 1004.39   1
   3  -2   8 6796.45 828.006   3
  -3   2  -8 6340.11 455.218   1
   3  -2   9 577.561 490.146   3
   3  -2  10-349.707 484.528   3
  -3   1  12 2167.61 611.530   3
  -3   1  11 8237.05 927.301   3
  -3   1  10 180.236 374.741   3
   3  -1  -9 3922.52 305.096   2
  -3   1   9 4588.06 648.786   3
  -3   1   8 4630.01 623.280   3
   3  -1  -8 4975.18 365.361   2
   3  -1  -8 4713.66 358.434   1
  -3   1   7 133.574 312.193   3
   3  -1  -7 73.8121 161.028   2
   3  -1  -7-3.16606 160.498   1
   3  -1  -6 61587.8 1251.48   2
  -3   1   6 62045.1 1631.72   3
   3  -1  -6 63232.6 1634.73   3
   3  -1  -6 62986.3 1290.62   1
   3  -1  -5 10226.5 543.800   2
  -3   1   5 10328.7 546.834   1
   3  -1  -5 10774.2 571.171   1
  -3   1   5 11737.6 686.208   3
   3  -1  -5 10890.2 645.822   3
  -3   1   4 416.306 267.530   3
   3  -1  -4 359.767 230.944   1
  -3   1   4 354.198 260.386   1
   3  -1  -4 338.469 206.801   3
  -3   1   3 566.134 266.118   3
   3  -1  -3 401.193 245.400   1
   3  -1  -3 539.225 216.847   3
  -3   1   3 529.291 297.471   1
   3  -1  -2 1532.55 255.216   3
  -3   1   2 1403.60 399.790   1
   3  -1  -2 1839.62 317.781   1
  -3   1   1 1971.94 438.758   1
   3  -1  -1 2116.91 362.678   1
   3  -1   0 865.878 319.384   1
  -3   1   0 816.962 359.566   1
  -3   1  -1 10653.5 615.039   1
   3  -1   1 11511.3 604.170   1
   3  -1   2 27710.4 898.919   1
  -3   1  -2 25782.4 877.354   1
  -3   1  -3 4526.65 422.855   1
   3  -1   3 4070.94 378.156   1
   3  -1   4 39244.0 1080.43   1
  -3   1  -4 40517.6 1110.63   1
  -3   1  -5 10902.3 555.989   1
   3  -1   5 11284.1 593.157   1
   3  -1   5 11864.0 838.973   3
   3  -1   6-20.3651 355.188   3
   3  -1   6-75.0156 214.162   1
  -3   1  -6 183.112 176.463   1
   3  -1   7 25979.5 1380.31   3
   3  -1   8 4488.95 723.119   3
   3  -1   9 162.046 387.077   3
   3  -1  10 664.592 474.148   3
  -3   0  13 3770.26 750.757   3
  -3   0  12 193.027 354.673   3
  -3   0  11 7275.40 849.766   3
  -3   0  10 3501.23 603.188   3
  -3   0   9 12628.2 936.564   3
   3   0  -9 11702.5 569.907   2
   3   0  -9 11624.2 522.519   1
  -3   0   8 421.113 331.377   3
   3   0  -8 413.249 168.055   1
   3   0  -8-126.623 266.705   2
   3   0  -7 14600.8 651.073   2
   3   0  -7 14341.9 635.901   1
  -3   0   7 14211.0 836.903   3
   3   0  -6 35433.6 989.665   2
   3   0  -6 36780.6 997.118   1
  -3   0   6 36891.9 1166.10   3
   3   0  -6 37642.2 1163.49   3
   3   0  -5 98768.2 1651.23   3
   3   0  -5 97079.4 1623.62   2
  -3   0   5 98637.0 1649.71   3
   3   0  -5 99454.6 1632.16   1
   3   0  -4 14103.9 561.943   3
   3   0  -4 13235.8 638.291   2
  -3   0   4 13887.8 565.489   3
   3   0  -4 14188.0 655.181   1
  -3   0   3 271.838 190.707   3
   3   0  -3 89.1145 172.499   3
   3   0  -3-42.3126 255.152   1
   3   0  -3 11.9639 312.333   2
  -3   0   3-91.4999 325.020   1
   3   0  -2 572.938 167.097   3
   3   0  -2 484.426 257.573   1
  -3   0   2 458.962 360.373   1
  -3   0   1 1253.44 418.567   1
   3   0  -1 1247.98 318.478   1
  -3   0   0 90307.4 1559.37   1
   3   0   0 90740.9 1539.33   1
  -3   0  -1 52668.1 1205.36   1
   3   0   1 51450.4 1162.02   1
  -3   0  -2 22594.6 814.984   1
   3   0   2 21550.1 775.339   1
  -3   0  -3 69644.0 1363.31   1
   3   0   3 69896.9 1616.46   3
   3   0   3 68159.7 1349.39   1
   3   0   4 8756.47 501.399   1
   3   0   4 9281.74 705.589   3
   3   0   5 15033.8 638.493   1
   3   0   5 15091.7 947.930   3
   3   0   6 517.719 417.495   3
   3   0   6 592.144 205.434   1
   3   0   7 8532.51 875.117   3
   3   0   7 7479.32 437.698   2
   3   0   8 8159.84 920.713   3
   3   0   9 6466.36 894.952   3
  -3  -1  13 1816.85 608.045   3
  -3  -1  12 242.129 383.602   3
  -3  -1  11 6621.49 785.656   3
   3   1 -10 995.988 335.725   2
  -3  -1  10 634.838 364.241   3
   3   1  -9 15932.9 730.049   2
   3   1  -9 15959.5 678.534   1
  -3  -1   9 16175.9 984.886   3
  -3  -1   8 15022.9 869.285   3
   3   1  -8 13673.3 695.243   2
   3   1  -8 14368.2 648.949   1
   3   1  -7 54203.0 1301.48   2
  -3  -1   7 53896.0 1429.26   3
   3   1  -7 54190.8 1251.52   1
   3   1  -6 97342.7 1713.08   2
   3   1  -6 98451.0 1720.00   1
  -3  -1   6 95495.8 1670.29   3
   3   1  -5 19809.9 796.310   2
  -3  -1   5 18762.8 657.712   3
   3   1  -5 19849.7 782.466   1
   3   1  -5 19831.5 663.587   3
   3   1  -4 111214. 1778.15   1
   3   1  -4 109680. 1231.02   3
   3   1  -4 111595. 1782.63   2
  -3  -1   4 110962. 1234.06   3
   3   1  -3 54223.6 1267.46   2
  -3  -1   3 53389.7 602.665   3
   3   1  -3 54124.3 1243.14   1
   3   1  -3 53398.5 601.334   3
   3   1  -2-6.92174 380.920   2
   3   1  -2 76.6021 209.780   1
   3   1  -1 4742.04 451.689   1
   3   1  -1 4316.19 238.644   3
   3   1  -1 4358.63 485.875   2
   3   1   0 156.523 183.433   3
   3   1   0-59.2680 211.832   1
   3   1   0-63.7096 292.093   2
   3   1   1 75013.2 1336.72   3
   3   1   1 76482.0 1428.80   2
   3   1   1 75777.7 1406.69   1
   3   1   2 11911.2 581.862   1
   3   1   2 10829.5 559.090   2
   3   1   2 11035.9 646.280   3
   3   1   3 17532.4 687.975   2
   3   1   3 17527.3 694.101   1
   3   1   3 17872.8 884.012   3
   3   1   4 14251.7 621.119   2
   3   1   4 13974.8 616.851   1
   3   1   4 15803.1 911.826   3
   3   1   5 7653.09 454.371   2
   3   1   5 7149.71 435.289   1
   3   1   5 8055.55 741.157   3
   3   1   6 2374.73 540.475   3
   3   1   6 2394.27 258.566   2
   3   1   7 753.802 452.893   3
   3   1   8 241.252 391.360   3
   3   1   9 250.202 479.066   3
  -3  -2  13 470.289 436.361   3
  -3  -2  12 1498.13 505.820   3
   3   2 -11 241.187 343.716   2
  -3  -2  11-7.55761 350.626   3
   3   2 -10 6152.01 465.349   1
   3   2 -10 6254.04 603.675   2
  -3  -2  10 6492.05 689.956   3
  -3  -2   9 668.533 326.963   3
   3   2  -9 1331.16 270.628   1
  -3  -2   9 1370.58 298.538   2
   3   2  -9 1885.91 418.206   2
  -3  -2   8 32155.2 1103.00   2
   3   2  -8 33063.1 1121.72   2
  -3  -2   8 34224.0 1224.20   3
  -3  -2   7 13046.8 703.631   2
   3   2  -7 12909.5 729.821   2
  -3  -2   7 14744.2 734.268   3
  -3  -2   6 4978.18 465.221   2
   3   2  -6 5943.86 513.471   2
  -3  -2   6 5255.83 407.740   3
  -3  -2   5 21182.3 862.230   2
   3   2  -5 21346.0 883.860   2
  -3  -2   5 21125.8 618.726   3
  -3  -2   4 49446.3 1282.15   2
   3   2  -4 48783.8 1272.33   2
  -3  -2   4 49605.5 678.486   3
  -3  -2   3 1395.24 319.922   2
   3   2  -3 918.376 375.956   2
  -3  -2   2 24278.4 892.643   2
   3   2  -2 25798.0 945.971   2
  -3  -2   1 48701.3 1207.30   2
   3   2  -1 47718.7 1214.19   2
   3   2  -1 48734.2 760.118   3
   3   2   0 12306.5 632.739   2
   3   2   0 12407.2 508.568   3
   3   2   1 62361.9 1321.11   2
   3   2   1 61345.7 1349.72   1
   3   2   1 61198.6 1301.86   3
   3   2   2 2521.05 382.301   3
   3   2   2 2775.20 333.138   2
   3   2   2 2219.82 306.636   1
   3   2   3 25.5504 281.303   3
   3   2   3 162.437 179.851   1
   3   2   3 102.121 186.869   2
   3   2   4 9256.86 507.781   2
   3   2   4 8798.45 501.391   1
   3   2   4 9867.10 776.576   3
   3   2   5 14877.7 584.203   2
   3   2   5 14300.5 596.639   1
   3   2   5 15339.3 1017.55   3
   3   2   6 2391.65 547.559   3
   3   2   7 1974.45 585.656   3
   3   2   8-7.42078 467.406   3
   3   2   9 1687.58 633.673   3
  -3  -3  14 186.521 425.182   3
  -3  -3  13 2249.08 562.320   3
  -3  -3  12 2023.20 543.232   3
   3   3 -11 1143.59 467.841   2
  -3  -3  11 843.791 417.060   3
   3   3 -10 22769.8 1087.64   2
  -3  -3  10 21488.2 1146.91   3
   3   3  -9 1228.21 457.180   2
  -3  -3   9 247.539 301.050   3
  -3  -3   8 12999.9 749.585   3
  -3  -3   8 12004.6 743.257   2
   3   3  -8 12085.4 773.673   2
  -3  -3   7 28053.4 1093.62   2
   3   3  -7 28094.1 1107.94   2
  -3  -3   7 28188.0 935.508   3
  -3  -3   6 48595.7 1048.56   3
  -3  -3   6 48292.2 1393.80   2
   3   3  -6 49752.3 1437.20   2
   3   3  -5 5252.78 555.704   2
  -3  -3   5 5373.61 510.660   2
  -3  -3   4 58833.2 1489.14   2
   3   3  -4 59858.2 1496.11   2
  -3  -3   3 12869.4 722.076   2
   3   3  -3 12801.1 759.610   2
  -3  -3   3 12565.5 307.609   3
   3   3  -2 158.758 322.473   2
  -3  -3   2 26.0448 245.727   2
  -3  -3   2 97.0893 112.736   3
  -3  -3   1 32274.6 1047.83   2
   3   3  -1 31542.1 1061.40   2
   3   3  -1 30381.6 742.513   3
  -3  -3   1 30043.3 729.842   3
  -3  -3   0 6178.64 486.063   2
   3   3   0 6242.41 437.012   3
   3   3   0 6751.84 514.434   2
  -3  -3   0 6017.85 415.041   3
   3   3   1 4382.88 437.592   3
   3   3   1 3585.67 379.270   2
  -3  -3  -1 4843.27 432.871   3
   3   3   2 6149.54 474.819   2
   3   3   2 4738.33 502.260   3
  -3  -3  -2 5225.34 504.496   3
   3   3   3 1354.37 258.885   1
   3   3   3 1007.96 251.544   2
   3   3   3 1000.90 379.306   3
   3   3   4 18633.6 719.539   2
   3   3   4 18143.7 740.091   1
   3   3   4 19032.2 1095.27   3
   3   3   5 9919.83 481.103   2
   3   3   5 9763.31 889.282   3
   3   3   6 3327.08 648.848   3
   3   3   7 32.1023 462.659   3
   3   3   8 1814.32 618.178   3
  -3  -4  14-258.018 446.788   3
  -3  -4  13 761.238 459.031   3
   3   4 -12 1838.57 563.770   2
  -3  -4  12 2114.09 542.330   3
   3   4 -11 8131.72 810.548   2
  -3  -4  11 7373.62 743.340   3
   3   4 -10 23247.6 1192.13   2
  -3  -4  10 20754.9 1084.90   3
   3   4  -9 2864.17 575.015   2
  -3  -4   9 309.595 286.259   3
  -3  -4   8 8426.34 589.655   3
   3   4  -8 8876.11 782.362   2
   3   4  -7 3793.41 576.573   2
   3   4  -6 24402.4 1087.62   2
   3   4  -5 5048.34 608.225   2
  -3  -4   4 11233.3 735.153   2
   3   4  -4 10565.0 764.060   2
  -3  -4   4 10651.5 406.835   3
  -3  -4   3 18620.9 901.508   2
   3   4  -3 17845.5 963.758   2
  -3  -4   3 18146.7 535.532   3
   3   4  -2 37979.2 1281.83   2
  -3  -4   2 39379.4 870.536   3
  -3  -4   1 91237.7 1878.46   2
   3   4  -1 91844.4 1894.33   2
   3   4  -1 91134.9 1510.64   3
  -3  -4   1 89147.4 1496.27   3
  -3  -4   0 14969.9 768.625   2
   3   4   0 13395.5 761.623   2
   3   4   0 14408.4 698.181   3
  -3  -4   0 13586.3 674.752   3
  -3  -4  -1 3078.50 398.720   3
   3   4   1 3375.64 429.585   3
  -3  -4  -1 3312.48 389.157   2
   3   4   1 3042.18 419.830   2
   3   4   2 23920.8 927.139   2
   3   4   2 25692.6 1136.48   3
   3   4   3 29071.2 1023.93   1
   3   4   3 30229.3 1331.08   3
   3   4   3 31460.2 1014.69   2
   3   4   4 26542.3 870.823   2
   3   4   4 25091.3 1314.46   3
   3   4   5 16926.8 1183.04   3
   3   4   6 115.937 384.591   3
   3   4   7 4298.50 759.064   3
  -3  -5  14-71.5589 368.526   3
  -3  -5  13 176.171 396.841   3
   3   5 -12 3501.73 669.307   2
  -3  -5  12 3818.08 616.098   3
   3   5 -11 1826.96 609.055   2
  -3  -5  11 817.144 374.624   3
  -3  -5  10 25229.3 1165.46   3
   3   5 -10 25055.0 1332.20   2
   3   5  -9 11400.4 955.603   2
  -3  -5   9 11499.0 740.320   3
   3   5  -8 1691.29 570.671   2
   3   5  -7 12441.6 903.594   2
   3   5  -6 9754.18 826.336   2
   3   5  -5 1276.87 525.084   2
   3   5  -4 613.989 462.757   2
  -3  -5   4 419.546 165.706   3
  -3  -5   3 297.384 156.393   3
   3   5  -3 396.380 426.001   2
  -3  -5   2 322.419 195.763   3
   3   5  -2 217.843 411.069   2
   3   5  -1-10.8741 220.751   3
  -3  -5   1 163.541 186.039   3
   3   5   0 638.220 394.395   2
   3   5   0 201.076 259.674   3
  -3  -5   0 527.798 247.408   3
   3   5   1 998.145 414.790   2
   3   5   1 316.898 295.003   3
  -3  -5  -1 138.577 216.966   2
   3   5   2 337.874 334.516   3
  -3  -5  -2 178.591 201.320   2
   3   5   3 2125.38 444.125   2
   3   5   3 2067.42 497.621   3
   3   5   4 3766.86 635.357   3
   3   5   5 895.148 514.209   3
   3   5   6 1856.11 619.769   3
   3   5   7 9619.70 1110.72   3
  -3  -6  15 531.877 451.539   3
  -3  -6  14-97.6259 397.635   3
  -3  -6  13 48.4433 375.871   3
   3   6 -13 287.706 542.444   2
   3   6 -12 2215.07 652.993   2
  -3  -6  12 2314.46 529.413   3
   3   6 -11 321.669 623.700   2
  -3  -6  11-49.9048 290.137   3
   3   6 -10 2519.47 724.121   2
   3   6  -9 381.658 579.339   2
   3   6  -8 1830.16 681.648   2
   3   6  -7 10759.8 927.106   2
   3   6  -6 33872.2 1445.10   2
   3   6  -5 4320.89 694.446   2
  -3  -6   5 3047.11 335.638   3
   3   6  -4 9248.40 818.375   2
  -3  -6   4 8027.13 510.409   3
   3   6  -3 2772.24 581.649   2
  -3  -6   3 1216.29 250.818   3
  -3  -6   2 130.532 177.656   3
   3   6  -2 1068.64 522.001   2
   3   6  -1 7194.59 593.978   3
  -3  -6   1 6695.21 558.928   3
   3   6   0 23252.6 1083.51   3
   3   6   0 26671.4 1173.23   2
   3   6   1 2443.88 541.140   2
   3   6   1 2294.35 446.311   3
   3   6   2 542.981 388.057   3
   3   6   2 130.510 403.591   2
   3   6   3 594.965 391.358   3
   3   6   3 168.288 378.948   2
   3   6   4 8728.59 930.879   3
   3   6   5 760.863 518.222   3
   3   6   6 387.948 473.964   3
  -3  -7  14 1070.58 473.600   3
   3   7 -13 649.299 570.201   2
  -3  -7  13 538.526 398.970   3
  -3  -7  12 15100.1 1068.31   3
   3   7 -12 13308.2 1196.66   2
   3   7 -11 10986.6 1106.66   2
   3   7 -10 392.311 708.631   2
   3   7  -9 4595.70 827.657   2
   3   7  -8 2140.66 779.245   2
   3   7  -7 9136.43 965.477   2
   3   7  -6 13069.6 1134.49   2
  -3  -7   6 12688.1 703.587   3
  -3  -7   5 580.918 236.206   3
   3   7  -5 1151.26 661.996   2
   3   7  -4 2356.64 733.813   2
  -3  -7   4 2057.17 322.301   3
   3   7  -3 12144.5 1023.47   2
  -3  -7   3 11621.2 702.462   3
   3   7  -2 2445.09 698.778   2
   3   7  -1 5949.98 790.423   2
   3   7   0 7784.19 843.434   2
   3   7   0 7049.81 700.330   3
   3   7   1 813.780 529.533   2
   3   7   1 532.638 362.678   3
   3   7   2 50.0400 383.617   3
   3   7   2 478.977 487.434   2
   3   7   3 2331.92 554.573   3
   3   7   4 434.731 440.102   3
   3   7   5 1392.45 527.422   3
   3   8 -13-128.341 608.178   2
  -3  -8  13 492.852 389.693   3
   3   8 -12 954.583 685.594   2
   3   8 -11 3007.94 838.840   2
   3   8 -10 4293.77 863.700   2
   3   8  -9 8768.32 1069.95   2
   3   8  -8 28106.8 1620.48   2
   3   8  -7 10361.9 1133.93   2
   3   8  -6 4851.33 880.595   2
   3   8  -5 1037.33 774.911   2
   3   8  -4 23093.0 1441.64   2
   3   8  -3 73942.9 2331.93   2
   3   8  -2 35611.5 1652.69   2
   3   8  -1 735.601 609.196   2
   3   8   0 3578.46 715.319   2
   3   8   0 2615.50 530.940   3
   3   8   1 445.819 367.139   3
   3   8   1 865.977 536.971   2
   3   8   2 1717.88 517.986   3
   3   8   3-104.298 439.310   3
   3   8   4 191.806 444.045   3
   3   9 -13 978.936 712.492   2
   3   9 -12 1501.95 770.981   2
   3   9 -11-36.6152 681.852   2
   3   9 -10 2401.77 877.020   2
   3   9  -9 1008.98 701.397   2
   3   9  -8 278.140 788.609   2
   3   9  -7-296.743 781.946   2
   3   9  -6 1056.76 715.503   2
   3   9  -5 6144.23 931.515   2
   3   9  -4 7885.91 1060.05   2
   3   9  -3 11524.1 1160.98   2
   3   9  -2 4236.04 845.640   2
   3   9  -1 573.896 620.113   2
   3   9   0 4943.09 780.237   2
   3   9   1 797.807 440.104   3
   3   9   2 411.609 439.068   3
   3   9   3-1098.41 539.260   3
   3  10 -11 3205.05 854.353   2
   3  10 -10-572.726 735.388   2
   3  10  -9 1196.09 702.491   2
   3  10  -8 131.248 663.960   2
   3  10  -7 33.0302 733.432   2
   3  10  -6 3052.49 802.846   2
   3  10  -5 5759.36 978.236   2
   3  10  -4 760.385 657.312   2
   3  10  -3 164.990 618.058   2
   3  10  -2 327.994 604.025   2
   3  10  -1 38.4621 596.649   2
   3  11  -8 1603.45 790.791   2
   3  11  -7 1509.81 779.644   2
   3  11  -6 1236.93 681.171   2
   3  11  -5 7812.30 1099.74   2
   3  11  -4 430.338 689.352   2
   3  11  -3 1323.50 774.467   2
   3  11  -2 2849.68 797.901   2
   3  11  -1 2723.98 752.301   1
  -4  11   0-89.6490 546.120   1
  -4  11  -1 3224.88 760.998   1
  -4  11  -2 4508.90 853.789   1
  -4  10   3 57.2167 379.571   1
  -4  10   2 3853.87 696.366   1
  -4  10   1 1705.10 600.653   1
  -4  10   0 3841.16 743.665   1
  -4  10  -1-105.323 415.591   1
  -4  10  -2 16910.6 1332.91   1
  -4  10  -3 1345.89 632.002   1
  -4  10  -4-443.882 522.329   1
  -4  10  -5 3399.52 761.745   1
  -4  10  -6 7646.34 1011.70   1
  -4  10  -7 1170.84 571.660   1
  -4  10  -8 2857.21 689.440   1
  -4   9   4 549.917 369.763   1
  -4   9   3 391.062 376.919   1
  -4   9   2 1932.10 524.578   1
  -4   9   1 6756.44 869.863   1
  -4   9   0-506.102 542.725   1
  -4   9  -1 1047.20 484.017   1
  -4   9  -2 29338.3 1654.60   1
  -4   9  -3 6981.15 922.700   1
  -4   9  -4-384.489 574.184   1
  -4   9  -5 671.731 471.335   1
  -4   9  -6-607.976 613.426   1
  -4   9  -7 5422.58 824.544   1
  -4   9  -8 2500.17 667.052   1
  -4   9  -9 1353.16 587.473   1
  -4   9 -10 4376.12 771.725   1
  -4   8   4 504.734 367.423   1
  -4   8   3 96.5473 342.858   1
  -4   8   2 78.1451 349.392   1
  -4   8   1 442.586 434.586   1
  -4   8   0 13708.8 1099.77   1
  -4   8  -1 6086.55 814.540   1
  -4   8  -2 3111.87 678.870   1
  -4   8  -3 81.9652 507.009   1
  -4   8  -4-372.973 544.360   1
  -4   8  -5 1173.07 469.882   1
  -4   8  -6 3596.49 663.759   1
  -4   8  -7 4143.82 712.623   1
  -4   8  -8 5637.61 801.006   1
  -4   8  -9 2438.59 580.724   1
  -4   8 -10 15633.2 1250.00   1
  -4   7   7 821.643 564.652   3
  -4   7   6-259.470 496.658   3
  -4   7   5 36336.5 1532.55   1
  -4   7   4 25156.4 1321.98   1
  -4   7   3 284.315 332.685   1
  -4   7   2 7938.96 791.278   1
  -4   7   1 6299.05 728.214   1
  -4   7   0 576.198 403.003   1
  -4   7  -1 4213.08 653.345   1
  -4   7  -2 21780.1 1287.37   1
  -4   7  -3 527.557 416.508   1
  -4   7  -4-263.400 518.280   1
  -4   7  -5-81.8777 454.215   1
  -4   7  -6-829.948 540.987   1
  -4   7  -7-68.9366 390.268   1
  -4   7  -8 5059.01 721.642   1
  -4   7  -9-111.191 348.632   1
  -4   6   8 984.046 546.020   3
  -4   6   7 508.514 425.164   3
  -4   6   6 345.314 450.297   3
  -4   6   6 965.889 342.472   1
  -4   6   5 1837.93 404.234   1
  -4   6   5 2042.95 546.577   3
  -4   6   4 6103.27 652.756   1
  -4   6   3 6460.68 677.441   1
  -4   6   2 3423.49 539.872   1
  -4   6   1 1347.27 449.922   1
  -4   6   0 15875.2 1027.80   1
  -4   6  -1-415.380 496.679   1
  -4   6  -2 4756.02 646.817   1
  -4   6  -3 8.48361 475.387   1
  -4   6  -4 2778.87 537.733   1
  -4   6  -5 320.511 372.900   1
  -4   6  -6 20056.6 1206.19   1
  -4   6  -7 6311.69 737.246   1
  -4   6  -8 7705.48 800.896   1
  -4   6  -9 1504.66 462.750   1
  -4   5   9 2112.72 658.939   3
  -4   5   8 1834.29 610.736   3
  -4   5   7 3611.36 703.756   3
  -4   5   7 4367.70 504.322   1
  -4   5   6 953.701 419.618   3
  -4   5   6 750.660 316.278   1
  -4   5   5 3002.39 603.826   3
  -4   5   5 2820.89 446.855   1
  -4   5   4 8477.23 792.060   3
  -4   5   4 6754.71 652.989   1
  -4   5   3 3388.64 513.930   1
  -4   5   2 4340.01 553.139   1
  -4   5   1 9755.13 789.179   1
  -4   5   0 57479.9 1777.96   1
  -4   5  -1 10885.6 818.236   1
  -4   5  -2 93.3557 368.735   1
  -4   5  -3-87.8273 321.520   1
  -4   5  -4 320.180 342.344   1
  -4   5  -5 4000.34 586.312   1
  -4   5  -6 6858.75 712.526   1
  -4   5  -7 4909.86 625.332   1
  -4   5  -8 29.2562 303.786   1
  -4   5  -9 3609.53 545.867   1
  -4   4  10 556.716 493.460   3
  -4   4   9 2047.46 609.491   3
  -4   4   8-119.260 392.239   3
  -4   4   7 183.622 225.249   1
  -4   4   7 342.584 370.433   3
  -4   4   6 2874.96 543.107   3
  -4   4   6 2866.77 415.669   1
  -4   4   5 2368.20 397.517   1
  -4   4   5 2025.30 481.584   3
  -4   4   4 16450.4 894.740   1
  -4   4   4 16130.7 978.809   3
  -4   4   3 8556.92 693.875   1
  -4   4   2 459.597 334.364   1
  -4   4   1 108280. 2276.72   1
  -4   4   0 2422.84 494.895   1
  -4   4  -1 5113.53 599.444   1
  -4   4  -2 36170.2 1369.98   1
  -4   4  -3 23252.6 1120.62   1
  -4   4  -4 1012.30 397.797   1
  -4   4  -5 116457. 2468.66   1
  -4   4  -6 449.815 329.655   1
  -4   4  -7 631.701 335.868   1
  -4   4  -8 3707.38 506.302   1
   4  -4  10-101.157 414.086   3
  -4   3  11 697.648 491.344   3
  -4   3  10 3611.66 702.173   3
  -4   3   9 9246.50 945.140   3
   4  -3  -8 643.552 224.490   2
  -4   3   8 704.343 412.162   3
  -4   3   7 3109.28 555.472   3
   4  -3  -7 3022.63 410.163   1
   4  -3  -7 2824.44 360.657   2
  -4   3   7 3232.64 403.802   1
  -4   3   6 6329.79 514.688   1
   4  -3  -6 6434.71 549.326   1
  -4   3   6 6131.23 673.663   3
  -4   3   5 4015.50 544.608   3
   4  -3  -5 3874.48 454.028   1
  -4   3   5 3788.14 451.918   1
   4  -3  -4 162.419 264.176   1
  -4   3   4 367.545 269.893   1
  -4   3   4 239.132 306.949   3
  -4   3   3 18575.4 906.145   1
   4  -3  -3 19129.0 926.941   1
   4  -3  -3 18028.6 870.547   3
   4  -3  -2 33941.3 1216.15   1
   4  -3  -2 35267.4 1152.53   3
  -4   3   2 36298.2 1259.11   1
   4  -3  -1 6659.69 588.082   1
   4  -3  -1 5991.68 512.406   3
  -4   3   1 7102.90 622.169   1
  -4   3   0 2131.65 444.196   1
   4  -3   0 2306.40 385.418   1
  -4   3  -1 9594.51 715.033   1
  -4   3  -2 256.645 339.726   1
  -4   3  -3 113626. 2266.83   1
  -4   3  -4 4667.99 544.314   1
  -4   3  -5 25236.4 1115.74   1
  -4   3  -6 41413.8 1407.86   1
  -4   3  -7 1123.06 324.853   1
  -4   3  -8 748.575 286.665   1
   4  -3   9 1943.24 568.707   3
   4  -3  10-253.463 533.742   3
  -4   2  12 1478.98 591.842   3
  -4   2  11 5530.39 815.593   3
  -4   2  10 255.705 408.355   3
  -4   2   9 234.255 346.967   3
  -4   2   8 1104.57 431.014   3
   4  -2  -8 1793.28 322.298   1
   4  -2  -8 1357.88 272.801   2
  -4   2   7 1915.41 437.652   3
   4  -2  -7 1494.39 298.962   2
   4  -2  -7 1533.45 310.159   1
  -4   2   6 9144.18 627.303   1
   4  -2  -6 8650.96 604.616   1
  -4   2   6 9142.76 718.926   3
  -4   2   5 7221.84 543.277   1
   4  -2  -5 8893.19 618.591   1
  -4   2   5 7309.47 608.581   3
   4  -2  -5 7501.96 591.326   3
  -4   2   4 75.7533 268.124   3
   4  -2  -4 331.676 228.273   3
  -4   2   4 5.88812 259.136   1
   4  -2  -4 229.600 239.824   1
   4  -2  -3 1716.93 296.006   3
   4  -2  -3 1875.65 345.168   1
  -4   2   3 1287.61 335.056   1
  -4   2   2 2003.38 393.444   1
   4  -2  -2 2253.82 354.774   1
   4  -2  -2 1907.95 301.538   3
   4  -2  -1 261.990 266.133   1
  -4   2   1 121.151 302.028   1
   4  -2   0 5795.10 529.759   1
  -4   2   0 5152.94 535.558   1
  -4   2  -1-223.446 340.574   1
   4  -2   1-398.990 352.888   1
   4  -2   2 26266.7 1058.31   1
  -4   2  -2 26112.9 1052.07   1
   4  -2   3 51247.7 1461.26   1
  -4   2  -3 49469.9 1436.11   1
   4  -2   4 6312.89 544.362   1
  -4   2  -4 6553.90 570.255   1
  -4   2  -5 1442.30 352.863   1
   4  -2   5 1382.40 320.749   1
   4  -2   6 23039.0 997.350   1
  -4   2  -6 25162.4 1040.76   1
   4  -2   7 9373.15 901.600   3
  -4   2  -7 9506.78 645.411   1
   4  -2   8 2954.06 643.187   3
   4  -2   9 6110.41 893.388   3
  -4   1  12 3639.27 691.011   3
  -4   1  11 5765.57 804.634   3
  -4   1  10 250.084 403.105   3
   4  -1  -9 8012.70 545.781   2
  -4   1   9 8286.91 803.132   3
   4  -1  -8-36.9237 177.876   1
  -4   1   8 283.244 344.322   3
   4  -1  -8-38.4350 196.228   2
   4  -1  -7 3975.83 428.616   2
   4  -1  -7 4257.22 433.017   1
  -4   1   7 5091.71 572.249   3
   4  -1  -6 6054.92 503.714   2
   4  -1  -6 6206.70 509.909   1
  -4   1   6 6639.52 571.182   3
   4  -1  -6 6157.51 541.764   3
   4  -1  -5 9493.03 589.166   3
  -4   1   5 9056.69 615.488   1
   4  -1  -5 9768.56 627.911   2
   4  -1  -5 10077.9 635.064   1
  -4   1   5 9584.62 608.341   3
   4  -1  -4 20550.5 768.097   3
   4  -1  -4 20236.6 886.751   1
  -4   1   4 19212.1 757.967   3
  -4   1   4 19947.9 878.314   1
  -4   1   3 1111.99 358.048   1
   4  -1  -3 1017.45 221.016   3
   4  -1  -3 953.048 296.883   1
   4  -1  -2 10467.4 653.467   1
   4  -1  -2 10600.0 497.582   3
  -4   1   2 9654.41 636.666   1
   4  -1  -1 62.5817 275.099   1
  -4   1   1-60.9333 311.291   1
   4  -1   0 164.550 281.303   1
  -4   1   0 198.201 329.318   1
   4  -1   1 502.670 285.296   1
  -4   1  -1 235.059 298.853   1
   4  -1   2 6325.17 527.292   1
  -4   1  -2 5676.64 522.612   1
   4  -1   3 19649.7 875.317   1
  -4   1  -3 18963.6 848.992   1
   4  -1   4 15016.6 778.737   1
  -4   1  -4 15373.1 783.999   1
   4  -1   5 189.838 326.823   3
   4  -1   5 52.0963 214.680   1
  -4   1  -5-4.63250 212.529   1
  -4   1  -6 1018.52 275.711   1
   4  -1   6 1861.17 509.824   3
   4  -1   6 1392.06 311.261   1
   4  -1   7-58.2573 401.846   3
   4  -1   8 5359.63 784.448   3
   4  -1   9 3646.73 764.119   3
  -4   0  13 859.873 542.207   3
  -4   0  12 2216.44 599.767   3
  -4   0  11 4703.82 699.831   3
  -4   0  10 1107.28 421.953   3
   4   0 -10 727.852 286.612   2
   4   0  -9 13660.5 721.230   2
   4   0  -9 12915.5 692.036   1
  -4   0   9 13874.1 938.241   3
   4   0  -8 67775.6 1569.81   1
   4   0  -8 70753.5 1609.12   2
  -4   0   8 70554.0 1858.53   3
   4   0  -7 1078.29 289.493   3
   4   0  -7 1061.21 311.138   2
  -4   0   7 1256.68 356.604   3
   4   0  -7 1393.21 295.171   1
   4   0  -6 53190.6 1403.90   2
  -4   0   6 55415.8 1352.61   3
   4   0  -6 53960.7 1408.57   1
   4   0  -6 56058.9 1356.66   3
   4   0  -5 4532.48 377.230   3
   4   0  -5 3788.39 448.339   2
  -4   0   5 4148.72 373.026   3
   4   0  -5 4359.86 454.251   1
   4   0  -4 2153.19 370.205   1
   4   0  -4 1961.05 385.607   2
  -4   0   4 2442.27 276.389   3
   4   0  -4 2269.55 246.186   3
  -4   0   3 27615.4 1025.49   1
   4   0  -3 25908.5 992.501   1
   4   0  -3 26239.8 636.053   3
   4   0  -2-2.11530 227.076   1
  -4   0   2 144.100 303.677   1
   4   0  -2 41.8110 126.742   3
  -4   0   1 95448.2 1861.28   1
   4   0  -1 95430.5 1844.73   1
  -4   0   0 52560.8 1397.08   1
   4   0   0 53095.9 1376.63   1
  -4   0  -1 1116.72 340.126   1
   4   0   1 1144.85 279.960   1
  -4   0  -2 395.729 256.019   1
   4   0   2 500.488 213.089   1
   4   0   3 23295.0 933.683   1
  -4   0  -3 21434.1 895.655   1
   4   0   3 22465.2 1009.80   3
   4   0   4 13788.8 724.119   1
   4   0   4 13334.7 865.625   3
   4   0   5 10856.8 646.071   1
   4   0   5 12190.0 910.589   3
   4   0   6 3202.04 594.232   3
   4   0   6 2244.32 340.594   2
   4   0   7 10646.6 1002.34   3
   4   0   8 323.832 484.372   3
   4   0   9 5681.68 906.607   3
  -4  -1  13 152.913 365.670   3
  -4  -1  12 142.091 353.481   3
  -4  -1  11 2825.36 553.652   3
  -4  -1  10 171.668 374.189   3
   4   1 -10-163.679 301.762   2
   4   1  -9 4367.90 451.586   1
  -4  -1   9 4623.62 562.984   3
   4   1  -9 3580.53 462.253   2
   4   1  -8 95427.1 1960.59   2
  -4  -1   8 98198.4 2041.24   3
   4   1  -8 96251.2 1926.59   1
   4   1  -7 38335.1 1252.94   2
  -4  -1   7 37667.7 1136.99   3
   4   1  -7 37343.5 1168.77   1
   4   1  -6 6350.43 549.468   2
   4   1  -6 6487.00 529.792   1
  -4  -1   6 6342.12 437.693   3
   4   1  -6 6720.45 436.362   3
   4   1  -5 29972.8 1063.43   1
   4   1  -5 31830.4 1119.13   2
  -4  -1   5 28568.0 730.098   3
   4   1  -5 30436.3 748.628   3
   4   1  -4 53065.8 1409.32   1
   4   1  -4 52391.7 1418.78   2
  -4  -1   4 51126.5 758.189   3
   4   1  -4 50706.1 752.158   3
   4   1  -3 40293.1 1244.19   2
   4   1  -3 41163.0 1231.89   1
   4   1  -3 39275.7 487.768   3
   4   1  -2 29596.2 1071.49   2
   4   1  -2 31145.9 1068.16   1
   4   1  -1 7250.95 585.237   2
   4   1  -1 7242.66 525.802   1
   4   1   0 1034.51 214.040   3
   4   1   0 959.708 281.089   1
   4   1   0 946.266 307.750   2
   4   1   1 10343.6 638.110   2
   4   1   1 11200.7 659.992   1
   4   1   1 10143.5 564.680   3
   4   1   2 15901.1 775.958   2
   4   1   2 15234.2 759.093   1
   4   1   2 15654.1 792.968   3
   4   1   3 9143.38 602.413   2
   4   1   3 9114.25 596.851   1
   4   1   3 9648.61 712.485   3
   4   1   4 6886.07 533.198   2
   4   1   4 6971.82 523.362   1
   4   1   4 7625.97 706.965   3
   4   1   5 2869.92 543.124   3
   4   1   5 2603.92 342.012   1
   4   1   5 2660.41 356.479   2
   4   1   6 363.821 414.359   3
   4   1   7 10686.4 1025.01   3
   4   1   8 270.258 406.912   3
  -4  -2  14 140.659 408.579   3
  -4  -2  13 372.491 429.577   3
  -4  -2  12 4078.87 640.422   3
   4   2 -11 1125.99 397.497   2
  -4  -2  11 401.359 376.975   3
  -4  -2  10 1131.32 387.340   3
   4   2 -10 1287.99 409.235   2
  -4  -2   9 2690.24 434.306   3
   4   2  -9 3107.56 486.101   2
   4   2  -8 14654.7 809.262   1
  -4  -2   8 13516.5 733.448   3
   4   2  -8 11974.6 783.062   2
   4   2  -7 13977.1 788.559   1
   4   2  -7 14714.7 840.034   2
  -4  -2   7 15247.8 675.916   3
  -4  -2   6 836.237 192.578   3
   4   2  -6 1097.37 300.426   1
  -4  -2   6 1032.33 290.685   2
   4   2  -6 1145.21 351.400   2
  -4  -2   5 3068.64 406.020   2
   4   2  -5 3360.00 483.086   2
  -4  -2   5 3246.62 210.222   3
  -4  -2   4 8760.71 635.746   2
   4   2  -4 9198.31 675.906   2
   4   2  -3 41215.0 1306.17   2
   4   2  -2 73262.5 1696.48   2
   4   2  -2 70804.6 651.502   3
   4   2  -1 65312.8 1589.21   1
   4   2  -1 65683.7 1593.08   2
   4   2  -1 65584.4 985.291   3
   4   2   0 726.026 188.413   3
   4   2   0 740.605 289.224   2
   4   2   0 1135.93 265.144   1
   4   2   1 23578.5 952.043   2
   4   2   1 22098.1 855.745   3
   4   2   1 22516.9 930.164   1
   4   2   2 128.860 253.800   3
   4   2   2 332.286 227.021   1
   4   2   2 218.608 246.607   2
   4   2   3 1327.90 294.035   1
   4   2   3 1407.55 384.737   3
   4   2   3 1346.50 300.975   2
   4   2   4 13221.7 695.218   2
   4   2   4 13291.5 711.451   1
   4   2   4 13797.5 943.485   3
   4   2   5 9187.31 568.615   2
   4   2   5 8551.56 820.950   3
   4   2   6 4463.64 713.221   3
   4   2   7 602.087 484.366   3
   4   2   8-77.5802 474.460   3
  -4  -3  14 198.733 409.534   3
  -4  -3  13 509.820 443.399   3
  -4  -3  12 4628.14 659.135   3
   4   3 -11 3156.49 565.324   2
  -4  -3  11 2534.88 486.784   3
   4   3 -10 13757.5 915.616   2
  -4  -3  10 14227.1 883.446   3
  -4  -3   9 848.549 288.674   3
   4   3  -9 597.740 412.500   2
   4   3  -8 13137.6 866.523   2
  -4  -3   8 14709.0 717.514   3
  -4  -3   7 12285.0 563.904   3
   4   3  -7 11344.6 816.309   2
   4   3  -6 2152.65 446.628   2
  -4  -3   6 2261.97 212.258   3
   4   3  -5 7633.57 676.840   2
  -4  -3   5 7010.42 220.335   3
   4   3  -4 29.0712 297.434   2
   4   3  -3 8524.51 673.954   2
  -4  -3   2 2381.90 377.013   2
   4   3  -2 2422.74 183.538   3
   4   3  -2 2341.26 432.194   2
   4   3  -1 150.847 145.800   3
  -4  -3   1 287.805 271.404   2
   4   3  -1-53.5714 295.690   2
   4   3   0 29418.3 1105.97   2
   4   3   0 29353.7 916.401   3
   4   3   1 8184.48 582.197   3
   4   3   1 7542.73 595.139   1
   4   3   1 8570.48 611.876   2
   4   3   2 1830.75 382.716   3
   4   3   2 1801.80 342.608   1
   4   3   2 1915.82 360.443   2
   4   3   3 2836.14 492.765   3
   4   3   3 2577.34 373.104   2
   4   3   3 2424.14 361.927   1
   4   3   4 1924.43 467.073   3
   4   3   4 1104.88 288.245   2
   4   3   5 8971.03 872.030   3
   4   3   6 21079.7 1383.81   3
   4   3   7 4923.75 782.460   3
  -4  -4  15 97.5171 404.404   3
  -4  -4  14 764.978 406.315   3
  -4  -4  13 214.612 357.010   3
   4   4 -12 1276.29 550.454   2
  -4  -4  12 1536.11 457.890   3
  -4  -4  11 3341.99 524.474   3
   4   4 -11 4224.10 664.266   2
  -4  -4  10 1844.85 393.352   3
   4   4 -10 2918.79 612.653   2
   4   4  -9 4014.96 633.224   2
  -4  -4   9 3094.18 393.670   3
   4   4  -8 7284.62 755.343   2
  -4  -4   8 7698.38 511.637   3
   4   4  -7 11181.1 847.459   2
  -4  -4   7 12193.1 530.506   3
   4   4  -6 15217.4 963.746   2
  -4  -4   6 16618.1 499.282   3
   4   4  -5 7845.76 732.204   2
  -4  -4   5 7327.50 257.156   3
   4   4  -4 49367.5 1580.60   2
  -4  -4   4 46436.8 556.537   3
  -4  -4   3 920.807 123.472   3
   4   4  -3 1650.18 452.355   2
   4   4  -2 9141.81 714.506   2
   4   4  -2 8321.81 412.775   3
  -4  -4   2 8328.84 398.292   3
   4   4  -1 34462.7 1262.19   2
   4   4  -1 34539.4 954.417   3
  -4  -4   1 31856.4 911.375   3
   4   4   0 41195.0 1362.60   2
   4   4   0 39222.8 1166.55   3
  -4  -4   0 39454.0 1159.50   3
   4   4   1 4073.32 494.992   2
   4   4   1 5346.99 526.311   3
  -4  -4  -1 5064.85 496.278   3
   4   4   2 49041.5 1461.97   2
   4   4   2 48311.0 1590.43   3
   4   4   3 6412.46 696.288   3
   4   4   3 6319.96 562.937   2
   4   4   4 216.328 334.371   3
   4   4   5 8456.97 915.196   3
   4   4   6 3.33690 445.932   3
   4   4   7 3093.77 730.967   3
  -4  -5  14 708.672 425.762   3
  -4  -5  13 7737.45 827.795   3
   4   5 -12 10762.8 996.169   2
  -4  -5  12 10688.6 863.993   3
  -4  -5  11 111.649 266.660   3
   4   5 -11-83.6965 561.789   2
  -4  -5  10 2960.22 426.983   3
   4   5 -10 3666.11 693.059   2
   4   5  -9 2528.58 632.496   2
  -4  -5   9 1438.51 304.843   3
   4   5  -8 3339.95 644.689   2
  -4  -5   8 3196.22 352.863   3
   4   5  -7 803.603 519.565   2
   4   5  -6 6852.72 736.520   2
  -4  -5   5 1526.26 173.277   3
   4   5  -5 1206.12 507.127   2
   4   5  -4 5728.97 664.582   2
  -4  -5   4 6483.10 331.286   3
  -4  -5   3 1820.39 227.546   3
   4   5  -3 1361.22 503.136   2
   4   5  -2 14123.7 942.312   2
   4   5  -2 13224.1 614.757   3
  -4  -5   2 13923.1 623.809   3
   4   5  -1 9201.38 763.277   2
   4   5  -1 9737.85 600.539   3
  -4  -5   1 8968.07 570.586   3
   4   5   0 15354.3 926.074   2
   4   5   0 15570.0 822.149   3
  -4  -5   0 15110.6 805.192   3
   4   5   1 726.166 408.732   2
   4   5   1 344.451 313.927   3
   4   5   2 22970.7 1052.11   2
   4   5   2 21520.2 1159.18   3
   4   5   3 3048.51 466.437   2
   4   5   3 2487.95 513.810   3
   4   5   4 5272.53 726.889   3
   4   5   5 9439.47 982.127   3
   4   5   6 1526.72 591.424   3
   4   6 -13 3356.66 768.382   2
  -4  -6  13 2837.82 547.033   3
   4   6 -12 5472.27 869.635   2
  -4  -6  12 5422.21 641.397   3
   4   6 -11 2733.85 769.274   2
  -4  -6  11 2727.70 456.873   3
   4   6 -10 8469.85 961.149   2
  -4  -6  10 8492.83 666.262   3
   4   6  -9 2530.11 640.719   2
   4   6  -8 3897.03 745.744   2
   4   6  -7 7516.90 849.668   2
   4   6  -6 670.125 581.711   2
  -4  -6   6-139.578 168.735   3
   4   6  -5 55994.4 1887.27   2
  -4  -6   5 54091.6 1105.21   3
   4   6  -4 41753.5 1623.99   2
  -4  -6   4 38406.3 980.250   3
   4   6  -3 22362.6 1218.95   2
  -4  -6   3 22051.2 808.914   3
  -4  -6   2 124.580 183.713   3
   4   6  -2 624.101 480.958   2
   4   6  -1 7730.87 768.549   2
   4   6  -1 7437.09 600.335   3
  -4  -6   1 5798.38 522.463   3
   4   6   0 1498.82 516.329   2
   4   6   0 1689.51 408.858   3
   4   6   1 849.177 445.594   2
   4   6   1-107.516 302.419   3
   4   6   2 1701.75 490.091   2
   4   6   2-35.1306 324.105   3
   4   6   3 344.308 367.070   3
   4   6   4 2298.41 587.568   3
   4   6   5 868.707 475.327   3
   4   7 -13 2667.89 747.601   2
   4   7 -12 5861.63 941.674   2
   4   7 -11 1546.13 726.203   2
  -4  -7  11 1550.08 380.663   3
   4   7 -10 4382.82 843.906   2
   4   7  -9-844.901 757.537   2
   4   7  -8 4319.09 840.680   2
   4   7  -7 2094.10 738.864   2
   4   7  -6 19904.9 1274.98   2
   4   7  -5 67468.2 2158.06   2
  -4  -7   5 65700.7 1428.55   3
   4   7  -4 34066.7 1557.07   2
  -4  -7   4 29882.0 1019.17   3
  -4  -7   3 4498.01 444.966   3
   4   7  -3 6308.42 793.463   2
   4   7  -2 2444.32 655.017   2
   4   7  -1 10739.2 920.368   2
   4   7  -1 9622.18 732.710   3
   4   7   0 1360.43 406.223   3
   4   7   0 2145.50 600.455   2
   4   7   1-1.99863 320.663   3
   4   7   1 431.974 522.357   2
   4   7   2 1638.66 484.772   3
   4   7   3 3556.35 661.401   3
   4   7   4 269.008 456.714   3
   4   8 -14 417.194 624.576   2
   4   8 -13 851.100 725.930   2
   4   8 -12 11110.5 1207.39   2
   4   8 -11 11596.6 1256.47   2
   4   8 -10 1178.45 722.276   2
   4   8  -9 6259.28 951.377   2
   4   8  -8 3919.62 938.796   2
   4   8  -7 2297.23 786.338   2
   4   8  -6 1299.21 780.388   2
   4   8  -5 3543.05 783.243   2
   4   8  -4 513.759 633.761   2
   4   8  -3 2951.36 734.960   2
   4   8  -2 767.401 622.731   2
   4   8  -1 3963.35 791.822   2
   4   8   0 891.768 588.622   2
   4   8   0 697.566 376.134   3
   4   8   1 454.561 397.400   3
   4   8   2-11.4127 386.822   3
   4   8   3 181.283 433.591   3
   4   9 -13 356.116 680.893   2
   4   9 -12 668.046 779.322   2
   4   9 -11 2017.14 777.857   2
   4   9 -10 1561.51 754.162   2
   4   9  -9 4141.74 983.563   2
   4   9  -8 841.688 781.261   2
   4   9  -7 4903.70 1006.97   2
   4   9  -6 3868.31 813.807   2
   4   9  -5 4499.60 884.174   2
   4   9  -4 357.608 710.753   2
   4   9  -3 12637.6 1203.56   2
   4   9  -2 828.724 660.457   2
   4   9  -1 4538.80 829.499   2
   4   9   0 6482.69 896.288   2
   4   9   1 51.0017 385.944   3
   4  10 -10 1071.33 804.252   2
   4  10  -9 4237.88 904.190   2
   4  10  -8 528.713 697.464   2
   4  10  -7 2713.37 938.707   2
   4  10  -6 790.321 760.479   2
   4  10  -5-326.426 725.924   2
   4  10  -4 2494.76 824.702   2
   4  10  -3 3721.40 891.483   2
   4  10  -2 488.049 647.222   2
   4  10  -1 2345.85 706.765   2
   4  11  -5 3300.73 875.223   2
   4  11  -4 1205.28 725.687   2
   4  11  -3 1542.78 757.896   2
   4  11  -2 519.932 636.622   2
  -5  10   3 1707.88 550.748   1
  -5  10   2 2830.69 696.304   1
  -5  10   1 266.970 427.494   1
  -5  10   0 10464.5 1111.02   1
  -5  10  -1 1981.71 588.087   1
  -5  10  -2 4086.88 774.315   1
  -5  10  -3 6198.60 938.651   1
  -5  10  -4 1731.06 643.872   1
  -5  10  -5 252.528 451.277   1
  -5   9   4 6427.99 826.054   1
  -5   9   3 2486.26 612.527   1
  -5   9   2 5029.90 780.251   1
  -5   9   1 132.888 420.827   1
  -5   9   0 841.909 515.212   1
  -5   9  -1 6303.95 870.053   1
  -5   9  -2 7037.90 931.267   1
  -5   9  -3 2831.30 672.973   1
  -5   9  -4 7960.80 1015.70   1
  -5   9  -5 515.723 512.278   1
  -5   9  -6 705.262 517.527   1
  -5   9  -7 281.331 383.955   1
  -5   9  -8 516.653 463.412   1
  -5   9  -9 1078.13 508.102   1
  -5   8   5 209.725 309.789   1
  -5   8   4-14.1395 336.804   1
  -5   8   3 389.211 413.562   1
  -5   8   2 599.271 427.858   1
  -5   8   1 734.139 420.511   1
  -5   8   0 281.404 457.839   1
  -5   8  -1 1307.52 532.754   1
  -5   8  -2 2512.36 625.581   1
  -5   8  -3 410.987 501.749   1
  -5   8  -4 4871.37 760.891   1
  -5   8  -5 1637.10 581.314   1
  -5   8  -6 2027.82 615.294   1
  -5   8  -7 6568.98 880.562   1
  -5   8  -8 1138.19 525.021   1
  -5   8  -9 1600.53 531.441   1
  -5   7   5 8344.88 826.566   1
  -5   7   4 2502.55 546.638   1
  -5   7   3 178.974 356.669   1
  -5   7   2 9876.61 926.814   1
  -5   7   1 15866.5 1150.21   1
  -5   7   0 316.618 379.875   1
  -5   7  -1 105.935 355.670   1
  -5   7  -2 2371.19 600.028   1
  -5   7  -3 3051.32 650.482   1
  -5   7  -4 1271.43 465.909   1
  -5   7  -5 3870.31 649.706   1
  -5   7  -6 955.341 498.230   1
  -5   7  -7 4348.77 724.560   1
  -5   7  -8 9427.74 982.618   1
  -5   7  -9 1494.69 504.927   1
  -5   6   8 814.565 500.314   3
  -5   6   7 6298.25 863.347   3
  -5   6   6 260.959 313.848   1
  -5   6   5 3776.66 576.687   1
  -5   6   4 3337.18 559.219   1
  -5   6   3 422.780 385.830   1
  -5   6   2 23015.8 1280.40   1
  -5   6   1 12021.1 950.861   1
  -5   6   0 7636.97 811.270   1
  -5   6  -1 24570.2 1351.73   1
  -5   6  -2 4107.78 641.554   1
  -5   6  -3-158.615 393.287   1
  -5   6  -4 14050.1 1065.36   1
  -5   6  -5 10846.1 974.964   1
  -5   6  -6 11316.7 990.607   1
  -5   6  -7 9949.40 940.897   1
  -5   6  -8 184.500 360.523   1
  -5   5   9 543.754 479.622   3
  -5   5   8 522.636 429.474   3
  -5   5   7 6292.61 841.645   3
  -5   5   7 5540.17 604.416   1
  -5   5   6 283.519 304.021   1
  -5   5   6-133.491 409.621   3
  -5   5   5 328.861 322.646   1
  -5   5   4 6519.55 692.558   1
  -5   5   3 302.728 337.443   1
  -5   5   2 1043.11 413.799   1
  -5   5   1 480.345 367.150   1
  -5   5   0 228.315 393.293   1
  -5   5  -1 25053.3 1285.85   1
  -5   5  -2 1938.01 471.060   1
  -5   5  -3 2254.81 533.993   1
  -5   5  -4 2235.26 523.749   1
  -5   5  -5 38044.8 1629.62   1
  -5   5  -6 18458.4 1170.56   1
  -5   5  -7-228.550 349.992   1
  -5   5  -8 1030.63 424.682   1
  -5   4  10-509.710 471.007   3
  -5   4   9 371.313 422.153   3
  -5   4   8 3300.60 653.717   3
  -5   4   7 5552.77 734.522   3
  -5   4   7 4421.47 541.095   1
  -5   4   6 6275.90 732.408   3
  -5   4   6 6284.40 634.808   1
  -5   4   5 787.209 344.201   1
  -5   4   4 18056.7 1021.55   1
  -5   4   3-89.9469 327.597   1
  -5   4   2 1169.67 386.965   1
  -5   4   1 7124.83 708.826   1
  -5   4   0 3754.28 573.082   1
  -5   4  -1 26975.7 1276.57   1
  -5   4  -2 33185.2 1419.86   1
  -5   4  -3 3580.56 571.032   1
  -5   4  -4 17732.4 1075.01   1
  -5   4  -5 13336.7 952.409   1
  -5   4  -6 761.244 390.111   1
  -5   4  -7 565.678 339.946   1
  -5   4  -8 5665.61 661.477   1
   5  -4   9 1384.82 560.916   3
  -5   3  11 290.803 410.662   3
  -5   3  10 891.591 462.094   3
  -5   3   9 276.517 399.244   3
  -5   3   8-117.492 376.919   3
   5  -3  -8 247.225 264.626   2
  -5   3   7 2340.40 518.462   3
  -5   3   7 2052.47 427.829   1
  -5   3   6 6730.95 683.356   3
  -5   3   6 7093.26 611.378   1
  -5   3   5 18070.8 972.384   1
  -5   3   5 17780.9 994.306   3
  -5   3   4 6808.26 653.547   1
  -5   3   3 13951.2 886.433   1
   5  -3  -2 1182.89 292.375   3
  -5   3   2 985.864 397.849   1
  -5   3   1 1779.19 431.562   1
  -5   3   0 377.929 334.018   1
  -5   3  -1 842.376 361.725   1
  -5   3  -2 33652.4 1372.02   1
  -5   3  -3 39759.1 1480.19   1
  -5   3  -4 32906.0 1373.13   1
  -5   3  -5 5338.33 615.327   1
  -5   3  -6 882.885 360.567   1
  -5   3  -7 4252.43 550.814   1
   5  -3   8 5829.34 858.042   3
   5  -3   9 3457.01 763.168   3
  -5   2  12 1651.41 553.078   3
  -5   2  11-132.007 409.510   3
  -5   2  10 7033.58 840.681   3
   5  -2  -9 7272.40 592.282   2
  -5   2   9 7107.06 779.210   3
  -5   2   8 184.942 318.999   3
   5  -2  -8 201.067 239.150   2
  -5   2   7 1559.50 414.814   3
   5  -2  -7 1352.59 341.154   2
  -5   2   6 18995.1 975.394   1
  -5   2   6 17725.2 956.460   3
  -5   2   5 14110.2 850.909   1
  -5   2   5 13657.5 798.564   3
   5  -2  -5 15445.5 829.298   3
   5  -2  -4 2038.30 340.082   3
  -5   2   4 2032.92 401.291   1
   5  -2  -3 208.941 209.230   3
  -5   2   3 68.0972 323.008   1
  -5   2   2 3770.02 556.115   1
   5  -2  -2 3497.99 380.764   3
  -5   2   1 3164.30 498.393   1
  -5   2   0 4498.01 581.184   1
  -5   2  -1 145.917 335.129   1
  -5   2  -2 21731.5 1076.95   1
  -5   2  -3 35650.9 1385.64   1
  -5   2  -4 7350.81 661.856   1
  -5   2  -5 5512.20 565.404   1
  -5   2  -6 2517.95 435.312   1
   5  -2   7 2926.29 647.327   3
  -5   2  -7 2461.58 428.023   1
   5  -2   8 562.125 534.520   3
   5  -2   9 3711.43 786.493   3
  -5   1  12 2745.19 626.210   3
  -5   1  11 905.416 484.041   3
  -5   1  10 8033.78 821.754   3
  -5   1   9 3494.14 554.256   3
   5  -1  -9 3753.55 451.453   2
  -5   1   8 123.164 296.134   3
   5  -1  -8 284.890 257.932   2
   5  -1  -7 4497.52 517.123   2
  -5   1   7 4602.84 520.718   3
   5  -1  -6 48684.5 1491.94   2
  -5   1   6 49059.6 1394.62   3
   5  -1  -6 50577.0 1407.10   3
  -5   1   5 14871.6 862.311   1
  -5   1   5 14619.2 730.910   3
   5  -1  -5 15320.2 727.316   3
  -5   1   4 10446.2 755.853   1
   5  -1  -4 9441.62 540.230   3
  -5   1   3 7026.27 648.227   1
   5  -1  -3 6674.05 431.507   3
  -5   1   2 790.568 365.436   1
   5  -1  -2 998.498 216.452   3
  -5   1   1 8084.92 675.710   1
  -5   1   0 6818.41 606.060   1
  -5   1  -1 1304.98 397.255   1
  -5   1  -2 11240.4 776.639   1
  -5   1  -3 22129.1 1051.88   1
  -5   1  -4 188.841 296.078   1
  -5   1  -5 7560.82 644.397   1
   5  -1   5 8033.65 797.346   3
   5  -1   6 4358.04 683.412   3
   5  -1   7 80.5592 439.980   3
   5  -1   8 1664.16 543.643   3
  -5   0  13 59.6602 437.503   3
  -5   0  12 6627.26 837.189   3
  -5   0  11 3116.01 601.169   3
   5   0 -10 22863.2 1036.20   2
  -5   0  10 23064.3 1249.57   3
   5   0  -9 10576.8 735.972   2
  -5   0   9 11923.4 847.462   3
  -5   0   8 3454.34 464.514   3
   5   0  -8 2638.66 440.787   2
   5   0  -7 10614.7 750.905   2
  -5   0   7 11039.9 674.662   3
   5   0  -7 10614.0 658.814   3
   5   0  -6 20573.0 1003.86   2
  -5   0   6 21728.6 836.388   3
   5   0  -6 20430.4 806.091   3
   5   0  -5 1569.68 390.132   2
   5   0  -5 2152.14 270.311   3
   5   0  -4 46597.9 1468.59   2
   5   0  -4 46986.7 957.608   3
   5   0  -3 41974.7 1393.94   2
   5   0  -3 43393.1 867.092   3
  -5   0   2 24814.0 1091.70   1
  -5   0   1 1896.86 405.535   1
  -5   0   0 118.744 302.978   1
  -5   0  -1 1855.00 404.557   1
   5   0   3 37635.7 1376.96   3
   5   0   4 6931.00 712.811   3
   5   0   5 299.975 400.100   3
   5   0   5 408.572 290.120   2
   5   0   6 5558.70 552.786   2
   5   0   6 6470.86 803.791   3
   5   0   7 390.295 463.657   3
   5   0   8 7911.92 1001.05   3
  -5  -1  14 1226.21 520.567   3
  -5  -1  13 270.295 421.880   3
  -5  -1  12 1822.69 512.471   3
   5   1 -11 8057.82 694.947   2
  -5  -1  11 9203.02 837.775   3
  -5  -1  10 660.350 331.471   3
   5   1 -10 29.7473 414.161   2
   5   1  -9 9628.95 740.033   2
  -5  -1   9 10555.7 753.722   3
   5   1  -8 44519.0 1495.71   2
  -5  -1   8 44871.5 1321.08   3
   5   1  -7 2898.81 465.553   2
  -5  -1   7 2806.81 339.971   3
   5   1  -7 2749.61 323.587   3
   5   1  -6 2661.39 440.514   2
  -5  -1   6 2893.61 286.867   3
   5   1  -6 2968.53 287.466   3
   5   1  -5 560.935 140.552   3
   5   1  -5 253.920 314.497   2
   5   1  -4 854.437 111.596   3
   5   1  -4 707.839 368.789   2
   5   1  -3 22978.3 1054.14   2
   5   1  -3 25188.3 454.924   3
   5   1  -2 420.036 304.057   2
   5   1  -1 39003.2 1350.16   2
   5   1   0 5360.96 562.430   2
   5   1   0 4800.53 390.251   3
   5   1   1-57.8913 178.487   3
   5   1   1-118.405 261.166   2
   5   1   2 12588.6 791.847   2
   5   1   2 10680.6 706.561   3
   5   1   3 61.6968 300.825   3
   5   1   3 219.098 269.240   2
   5   1   4 2479.89 500.963   3
   5   1   4 2337.04 420.598   2
   5   1   5 5479.97 542.652   2
   5   1   5 5255.85 706.370   3
   5   1   6 14243.0 1136.37   3
   5   1   7 4477.91 752.373   3
   5   1   8 3900.77 775.074   3
  -5  -2  14 474.019 424.398   3
  -5  -2  13 672.182 424.149   3
  -5  -2  12 1479.49 454.459   3
  -5  -2  11 300.760 321.820   3
   5   2 -11 61.3553 340.101   2
  -5  -2  10 488.492 297.169   3
   5   2 -10-123.564 421.103   2
   5   2  -9 5256.97 618.149   2
  -5  -2   9 4823.90 500.324   3
   5   2  -8 19635.5 1061.00   2
  -5  -2   8 19905.2 812.314   3
  -5  -2   7 314.431 158.334   3
   5   2  -7 721.349 369.769   2
   5   2  -6 4704.05 573.453   2
  -5  -2   6 4619.82 266.200   3
   5   2  -5 5960.01 631.362   2
   5   2  -4 22992.4 1092.19   2
   5   2  -3 1747.30 420.866   2
   5   2  -2 24902.6 1125.62   2
   5   2  -2 25398.6 502.040   3
   5   2  -1 13781.9 866.033   2
   5   2  -1 13459.1 520.223   3
   5   2   0 1833.10 275.438   3
   5   2   0 2048.82 411.885   2
   5   2   1 17340.2 920.218   2
   5   2   1 17347.5 819.359   3
   5   2   2 43915.2 1433.89   2
   5   2   2 42209.0 1410.21   3
   5   2   3 31528.5 1221.17   2
   5   2   3 31866.1 1345.76   3
   5   2   4 7085.36 602.157   2
   5   2   4 7588.47 761.237   3
   5   2   5 1895.07 490.195   3
   5   2   6 3475.81 675.429   3
   5   2   7 203.625 442.627   3
  -5  -3  13 3734.07 609.510   3
   5   3 -12 665.007 451.317   2
  -5  -3  12-57.2513 304.940   3
  -5  -3  11 71.5539 293.672   3
   5   3 -11 528.159 444.015   2
  -5  -3  10 433.731 268.785   3
   5   3 -10 26.8702 460.468   2
  -5  -3   9 5936.96 493.541   3
   5   3  -9 4735.77 654.822   2
   5   3  -8 15696.6 982.874   2
  -5  -3   8 17017.4 673.610   3
  -5  -3   7 672.613 148.384   3
   5   3  -7 396.571 383.097   2
   5   3  -6 1564.58 444.385   2
   5   3  -5 17.4363 351.413   2
   5   3  -4 5445.69 629.307   2
   5   3  -3 52515.3 1654.19   2
   5   3  -2 79110.6 1987.57   2
   5   3  -2 76042.1 969.956   3
   5   3  -1-2.41354 139.333   3
   5   3  -1 7.67909 299.066   2
   5   3   0 27918.3 1193.82   2
   5   3   0 26485.3 920.769   3
   5   3   1 6979.89 615.164   2
   5   3   1 7170.45 569.638   3
   5   3   2 4955.65 557.648   3
   5   3   2 5012.33 558.118   2
   5   3   3 471.991 347.094   3
   5   3   3 533.027 300.502   2
   5   3   4 13357.9 804.221   2
   5   3   4 11494.1 949.019   3
   5   3   5-171.523 378.616   3
   5   3   6 1146.60 494.003   3
   5   3   7 1072.45 557.487   3
   5   4 -12 2029.07 595.903   2
  -5  -4  12 1555.11 411.032   3
   5   4 -11 2360.13 583.711   2
  -5  -4  11 2241.84 412.090   3
  -5  -4  10 4990.45 482.364   3
   5   4 -10 6330.45 762.387   2
  -5  -4   9 1103.34 252.533   3
   5   4  -9 612.984 466.503   2
   5   4  -8 17549.6 1124.04   2
  -5  -4   8 18855.7 642.207   3
   5   4  -7 8547.96 811.533   2
  -5  -4   7 8383.86 317.919   3
   5   4  -6 11019.1 891.461   2
   5   4  -5 36210.2 1466.06   2
   5   4  -4 27695.9 1294.14   2
   5   4  -3 1932.31 484.173   2
   5   4  -2 33308.0 1379.42   2
   5   4  -2 33627.0 790.647   3
   5   4  -1 20210.8 1075.00   2
   5   4  -1 19305.4 740.256   3
   5   4   0 6252.57 637.618   2
   5   4   0 5050.55 477.479   3
   5   4   1 6273.09 633.730   2
   5   4   1 6789.37 610.188   3
   5   4   2 3333.10 505.251   3
   5   4   2 3527.02 503.777   2
   5   4   3 9529.28 735.283   2
   5   4   3 11000.3 894.624   3
   5   4   4 1989.26 519.088   3
   5   4   5 364.767 384.409   3
   5   4   6 4146.48 771.063   3
   5   5 -13 686.095 574.759   2
   5   5 -12 1792.72 613.547   2
   5   5 -11 3449.31 685.765   2
  -5  -5  11 2481.44 399.147   3
   5   5 -10 800.653 530.010   2
  -5  -5  10 482.668 224.569   3
  -5  -5   9 56.3846 163.433   3
   5   5  -9 148.578 451.230   2
   5   5  -8 12877.1 1031.74   2
  -5  -5   8 13277.8 518.714   3
   5   5  -7 34332.2 1570.89   2
  -5  -5   7 33846.9 593.990   3
  -5  -5   7 33122.4 592.013   3
   5   5  -6 35627.6 1583.69   2
   5   5  -5 70672.5 2151.23   2
   5   5  -4 7485.01 781.779   2
   5   5  -3 1617.76 500.479   2
   5   5  -2 1239.46 458.031   2
   5   5  -2 1361.28 246.804   3
   5   5  -1 18767.3 1114.30   2
   5   5  -1 19833.6 842.701   3
   5   5   0 3844.45 471.233   3
   5   5   0 3235.67 556.916   2
   5   5   1 18051.9 1058.21   2
   5   5   1 17274.9 970.242   3
   5   5   2 7203.06 694.020   2
   5   5   2 5954.79 681.685   3
   5   5   3 480.592 403.635   3
   5   5   4 75.1523 380.923   3
   5   5   5 687.391 500.665   3
   5   6 -13 5377.53 890.826   2
   5   6 -12 2428.71 744.597   2
   5   6 -11 2636.23 690.105   2
   5   6 -10 3969.12 751.984   2
   5   6  -9 2455.64 653.698   2
  -5  -6   8 3700.37 290.927   3
   5   6  -8 4253.40 757.796   2
   5   6  -7 1616.08 620.351   2
   5   6  -6 421.184 591.254   2
   5   6  -5 3698.96 695.290   2
   5   6  -4 620.813 511.807   2
   5   6  -3 1343.72 525.530   2
   5   6  -2 485.039 487.469   2
   5   6  -1 701.664 290.508   3
   5   6  -1 827.424 498.445   2
   5   6   0 1220.37 355.816   3
   5   6   0 1713.48 512.945   2
   5   6   1 365.877 329.423   3
   5   6   1 750.898 490.294   2
   5   6   2 159.397 318.281   3
   5   6   3 659.152 419.147   3
   5   6   4 2292.86 614.098   3
   5   6   5 79.9504 402.221   3
   5   7 -14 1697.20 737.430   2
   5   7 -13 4771.80 929.049   2
   5   7 -12 909.285 660.641   2
   5   7 -11 2165.11 711.825   2
   5   7 -10 3882.90 822.589   2
   5   7  -9 1468.05 654.693   2
   5   7  -8 8436.17 993.625   2
   5   7  -7 24383.6 1453.46   2
   5   7  -6 430.628 610.112   2
   5   7  -5 6088.47 802.319   2
   5   7  -4 6361.21 824.800   2
   5   7  -3 1470.28 615.529   2
   5   7  -2 5903.77 795.254   2
   5   7  -1 13593.0 1049.98   2
   5   7  -1 13217.5 846.432   3
   5   7   0 2653.16 477.485   3
   5   7   0 4201.73 690.357   2
   5   7   1 781.009 416.914   3
   5   7   1 1725.26 548.222   2
   5   7   2 4168.59 661.793   3
   5   7   3 51.0117 393.361   3
   5   8 -14 1993.53 779.254   2
   5   8 -13 4045.15 973.408   2
   5   8 -12 6066.57 1044.66   2
   5   8 -11 132.110 650.018   2
   5   8 -10 6760.65 989.878   2
   5   8  -9 3727.95 764.413   2
   5   8  -8 3807.87 845.315   2
   5   8  -7 8881.10 1042.02   2
   5   8  -6 1143.12 656.066   2
   5   8  -5 11661.1 1110.45   2
   5   8  -4 5624.16 861.375   2
   5   8  -3 1733.22 662.042   2
   5   8  -2 5680.93 814.918   2
   5   8  -1 197.665 532.292   2
   5   8   0-106.868 511.256   2
   5   9 -11 118.387 701.700   2
   5   9 -10 3045.15 951.128   2
   5   9  -9 1473.08 769.317   2
   5   9  -8-45.0199 694.177   2
   5   9  -7 3226.17 819.006   2
   5   9  -6 4129.13 940.647   2
   5   9  -5-181.167 662.594   2
   5   9  -4 2308.30 814.978   2
   5   9  -3 761.990 692.971   2
   5   9  -2 397.316 611.348   2
   5   9  -1 455.061 579.585   2
   5  10  -8 1474.79 798.820   2
   5  10  -7 2654.84 906.261   2
   5  10  -6 2029.06 895.710   2
   5  10  -5 2297.03 857.036   2
   5  10  -4 581.377 733.159   2
   5  10  -3 164.305 646.837   2
   5  10  -2 1572.52 732.170   2
  -6   9   4 105.368 407.600   1
  -6   9   3 4100.90 744.329   1
  -6   9   2 1637.35 549.811   1
  -6   9   1 1334.41 506.839   1
  -6   9   0 816.978 538.469   1
  -6   9  -1 4500.60 826.806   1
  -6   9  -2 311.021 450.289   1
  -6   9  -3 2827.43 720.840   1
  -6   9  -4 2625.28 679.836   1
  -6   9  -5 2198.81 673.671   1
  -6   8   5 461.546 407.708   1
  -6   8   4 357.918 405.786   1
  -6   8   3 5358.18 778.485   1
  -6   8   2 4313.69 724.850   1
  -6   8   1 3092.96 625.016   1
  -6   8   0 566.180 495.102   1
  -6   8  -1 2380.47 630.799   1
  -6   8  -2 1899.13 584.058   1
  -6   8  -3 12978.9 1202.76   1
  -6   8  -4 6989.67 947.661   1
  -6   8  -5 356.216 490.648   1
  -6   8  -6 4781.93 788.872   1
  -6   8  -7 1.25708 442.079   1
  -6   8  -8 402.933 462.189   1
  -6   7   6 930.553 408.522   1
  -6   7   5 272.039 348.739   1
  -6   7   4 1576.56 519.430   1
  -6   7   3 298.444 410.400   1
  -6   7   2 4472.65 734.640   1
  -6   7   1 2585.98 605.246   1
  -6   7   0 2154.81 598.460   1
  -6   7  -1 788.755 468.894   1
  -6   7  -2 362.806 475.698   1
  -6   7  -3 11237.4 1074.62   1
  -6   7  -4 13047.3 1142.34   1
  -6   7  -5 5007.02 777.664   1
  -6   7  -6-184.848 426.300   1
  -6   7  -7 9164.94 997.592   1
  -6   7  -8-384.208 447.576   1
  -6   6   6 4866.08 680.512   1
  -6   6   5 2036.00 487.034   1
  -6   6   4 2943.52 580.840   1
  -6   6   3 114.055 373.238   1
  -6   6   2 5054.37 734.409   1
  -6   6   1 282.186 384.906   1
  -6   6   0 1829.37 516.468   1
  -6   6  -1 16589.0 1197.20   1
  -6   6  -2 338.576 434.520   1
  -6   6  -3 13780.7 1116.52   1
  -6   6  -4 25679.6 1486.24   1
  -6   6  -5 5589.14 766.802   1
  -6   6  -6-140.775 417.965   1
  -6   6  -7 14218.8 1177.92   1
  -6   6  -8 562.621 425.473   1
  -6   5   9-134.799 485.593   3
  -6   5   8 3070.99 665.247   3
  -6   5   7 2927.24 494.961   1
  -6   5   6 467.767 373.216   1
  -6   5   5 345.712 347.722   1
  -6   5   4 1689.87 506.812   1
  -6   5   3 1168.46 437.936   1
  -6   5   2-88.6005 349.760   1
  -6   5   1 410.380 407.358   1
  -6   5   0 5146.94 718.662   1
  -6   5  -1 1177.07 439.908   1
  -6   5  -2 298.704 393.596   1
  -6   5  -3 364.046 403.984   1
  -6   5  -4 2243.68 561.834   1
  -6   5  -5 14404.3 1107.24   1
  -6   5  -6 11538.7 1009.46   1
  -6   5  -7 2911.26 599.381   1
  -6   4  10 2372.01 626.492   3
  -6   4   9 1527.06 518.169   3
  -6   4   8 7449.64 725.198   1
   6  -4  -8 7864.88 709.481   2
  -6   4   8 6877.04 834.558   3
  -6   4   7 8397.46 774.350   1
  -6   4   7 9208.56 893.503   3
  -6   4   6-145.686 297.640   1
  -6   4   5 1761.63 480.168   1
  -6   4   4 490.167 397.585   1
  -6   4   3 292.575 326.088   1
  -6   4   2 4656.44 629.505   1
  -6   4   1 4168.96 643.866   1
  -6   4   0 25296.7 1320.48   1
  -6   4  -1 16922.8 1105.69   1
  -6   4  -2 583.722 376.332   1
  -6   4  -3 1542.62 467.314   1
  -6   4  -4 916.402 456.954   1
  -6   4  -5 3276.19 586.763   1
  -6   4  -6 160.732 351.573   1
  -6   4  -7 989.451 439.559   1
  -6   3  11 435.834 498.380   3
  -6   3  10 3135.96 648.911   3
  -6   3   9 580.431 408.254   3
  -6   3   8 1998.89 495.459   3
   6  -3  -8 1710.97 419.204   2
  -6   3   7 20722.8 1138.79   1
  -6   3   7 21238.5 1209.82   3
  -6   3   6 13050.2 916.683   1
  -6   3   5 5544.97 618.900   1
  -6   3   4 10944.3 859.880   1
  -6   3   3 50.6809 347.500   1
  -6   3   2 913.248 399.705   1
  -6   3   1 6102.85 685.989   1
  -6   3   0-267.695 402.694   1
  -6   3  -1 35316.9 1510.55   1
  -6   3  -2 30830.4 1429.97   1
  -6   3  -3 4421.18 635.432   1
  -6   3  -4 12815.4 987.017   1
  -6   3  -5 4780.99 632.366   1
  -6   3  -6 742.689 349.770   1
   6  -3   8 3126.19 722.840   3
  -6   2  12 11.9309 404.368   3
  -6   2  11 719.931 465.682   3
  -6   2  10 5512.30 734.736   3
  -6   2   9 1193.47 441.870   3
   6  -2  -9 1220.02 353.816   2
   6  -2  -8 5524.10 623.607   2
  -6   2   8 5795.68 675.822   3
   6  -2  -7 1380.23 379.329   2
  -6   2   7 1745.38 423.494   3
  -6   2   6 17612.0 1044.16   1
  -6   2   5 1520.05 443.011   1
  -6   2   4 44988.4 1609.28   1
   6  -2  -4 45269.2 1328.54   3
   6  -2  -3 16530.9 797.587   3
  -6   2   3 15092.1 953.518   1
  -6   2   2 25.5269 322.259   1
   6  -2  -2 145.265 190.508   3
  -6   2   1 91.1711 347.457   1
  -6   2   0 8332.12 744.440   1
  -6   2  -1 9472.46 796.518   1
  -6   2  -2 41667.4 1553.09   1
  -6   2  -3 5390.61 632.953   1
  -6   2  -4 317.215 320.303   1
  -6   2  -5 1857.60 452.571   1
   6  -2   6 518.817 450.248   3
  -6   2  -6 486.016 358.027   1
   6  -2   7 2475.54 654.322   3
   6  -2   8 4819.36 842.556   3
  -6   1  13 477.216 434.027   3
  -6   1  12 1326.59 508.544   3
  -6   1  11 1480.05 498.389   3
  -6   1  10 2007.17 517.408   3
   6  -1 -10 1810.91 404.968   2
  -6   1   9 1468.45 422.260   3
   6  -1  -9 1044.83 365.460   2
  -6   1   8-9.14822 285.748   3
   6  -1  -8 172.479 307.990   2
  -6   1   7 1104.02 331.565   3
   6  -1  -7 923.113 349.661   2
   6  -1  -6 939.127 263.099   3
   6  -1  -6 778.529 382.478   2
  -6   1   5 14867.7 944.322   1
   6  -1  -5 15423.1 981.745   2
   6  -1  -5 14054.6 702.590   3
  -6   1   4 3032.44 529.622   1
   6  -1  -4 3193.19 349.106   3
   6  -1  -3-3.59319 160.986   3
  -6   1   3-16.0965 349.126   1
  -6   1   2 204.126 357.551   1
  -6   1   1 3953.78 595.669   1
  -6   1   0 207.880 367.314   1
  -6   1  -1 15787.7 1003.89   1
  -6   1  -2 6589.07 694.724   1
  -6   1  -3-174.584 292.574   1
  -6   1  -4 14124.7 946.850   1
   6  -1   4 15995.0 1056.10   3
   6  -1   5 1156.84 462.491   3
   6  -1   6 79.6175 401.176   3
   6  -1   7 792.629 468.197   3
   6  -1   8 3780.92 779.668   3
  -6   0  13 3352.01 654.421   3
  -6   0  12 3530.69 639.173   3
  -6   0  11 3793.18 595.516   3
   6   0 -10 14075.8 934.032   2
  -6   0  10 12947.5 926.515   3
  -6   0   9-109.950 285.473   3
   6   0  -9 229.247 321.245   2
  -6   0   8 1941.74 370.090   3
   6   0  -8 1057.34 395.412   2
   6   0  -7 8040.65 750.845   2
  -6   0   7 9427.93 613.329   3
   6   0  -7 7900.46 556.425   3
   6   0  -6 10854.1 833.465   2
   6   0  -6 11887.4 609.245   3
   6   0  -5 126.785 149.993   3
   6   0  -5 381.772 359.662   2
   6   0  -4 237.217 138.035   3
   6   0  -4 194.228 313.317   2
   6   0  -3 897.131 179.972   3
   6   0  -3 108.454 362.420   2
   6   0   2 13922.5 839.561   3
   6   0   3 7412.25 693.489   2
   6   0   3 6181.44 646.741   3
   6   0   4 12635.6 897.917   2
   6   0   4 13175.1 969.300   3
   6   0   5 4971.89 705.285   3
   6   0   5 4861.24 582.530   2
   6   0   6 528.953 431.384   3
   6   0   7 211.027 420.950   3
  -6  -1  12 1829.96 482.951   3
  -6  -1  11 1527.48 417.486   3
   6   1 -11 323.680 412.848   2
   6   1 -10 10673.8 854.229   2
  -6  -1  10 9806.40 746.791   3
   6   1  -9 8654.02 772.565   2
  -6  -1   9 8294.24 624.308   3
   6   1  -8 5245.17 634.453   2
  -6  -1   8 5768.92 482.624   3
   6   1  -7 2870.54 510.549   2
  -6  -1   7 2822.87 312.090   3
   6   1  -7 3372.20 323.800   3
   6   1  -6 7465.59 740.321   2
   6   1  -6 8311.47 403.523   3
   6   1  -5 6010.16 674.495   2
   6   1  -5 5249.11 264.715   3
   6   1  -4 49696.1 1688.95   2
   6   1  -4 49931.1 669.640   3
   6   1  -3 44514.6 1594.32   2
   6   1  -3 45688.6 711.213   3
   6   1  -2-146.483 359.097   2
   6   1  -1 25856.2 1228.11   2
   6   1  -1 25693.3 795.956   3
   6   1   0 64792.1 1905.63   2
   6   1   0 65334.9 1444.04   3
   6   1   1 27783.8 1269.76   2
   6   1   1 26497.2 1049.11   3
   6   1   2-58.2190 252.169   3
   6   1   2 27.9715 267.026   2
   6   1   3 5765.87 639.937   2
   6   1   3 5424.44 624.891   3
   6   1   4 6281.87 644.853   2
   6   1   4 6134.80 727.284   3
   6   1   5 3313.81 634.812   3
   6   1   6 8197.34 931.936   3
   6   1   7-188.461 435.715   3
  -6  -2  11 1846.70 420.136   3
   6   2 -11 998.669 419.592   2
  -6  -2  10 1821.52 339.347   3
   6   2 -10 2301.28 508.380   2
   6   2  -9 17242.4 1082.73   2
  -6  -2   9 17147.2 785.255   3
   6   2  -8 10355.9 869.820   2
  -6  -2   8 10541.2 533.129   3
   6   2  -7 38.8980 335.198   2
   6   2  -6 4688.39 627.478   2
   6   2  -5 2238.82 492.619   2
   6   2  -4 5160.87 627.126   2
   6   2  -3 17928.1 1077.30   2
   6   2  -2 5633.09 669.456   2
   6   2  -2 5948.33 299.230   3
   6   2  -1 981.220 208.384   3
   6   2  -1 669.182 393.066   2
   6   2   0 2657.63 353.101   3
   6   2   0 2944.26 518.672   2
   6   2   1 2773.24 388.150   3
   6   2   1 2129.41 424.166   2
   6   2   2 5312.04 608.091   2
   6   2   2 6074.94 602.947   3
   6   2   3 1209.08 410.047   3
   6   2   3 1807.56 409.880   2
   6   2   4-23.4587 364.419   3
   6   2   4 266.889 271.178   2
   6   2   5 2414.11 548.772   3
   6   2   6 2431.22 607.725   3
   6   3 -12 3218.24 614.333   2
   6   3 -11-83.9144 443.573   2
  -6  -3  10 33.2585 187.997   3
   6   3 -10-751.143 565.024   2
  -6  -3   9 191.021 161.992   3
   6   3  -9 523.455 422.607   2
   6   3  -8 17122.4 1122.05   2
  -6  -3   8 17345.5 531.709   3
   6   3  -7 70581.5 2153.16   2
   6   3  -6 42329.3 1663.75   2
   6   3  -5 5484.03 670.408   2
   6   3  -4 8240.11 783.424   2
   6   3  -3 38465.3 1550.47   2
   6   3  -2 3291.99 556.650   2
   6   3  -2 3395.94 238.221   3
   6   3  -1 3408.65 539.871   2
   6   3  -1 3439.48 328.467   3
   6   3   0 42.7502 179.289   3
   6   3   0 319.132 322.460   2
   6   3   1 2924.11 476.813   2
   6   3   1 3971.09 471.053   3
   6   3   2 2394.67 442.338   3
   6   3   2 2497.51 455.157   2
   6   3   3 22.1986 314.472   3
   6   3   3 89.2175 269.710   2
   6   3   4-7.72351 375.226   3
   6   3   5 1242.89 514.842   3
   6   3   6 188.065 427.924   3
   6   4 -13 2142.06 590.508   2
   6   4 -12 885.478 523.996   2
   6   4 -11 7938.48 874.176   2
   6   4 -10 23014.9 1372.40   2
   6   4  -9 3105.19 641.992   2
   6   4  -8 186.749 458.869   2
   6   4  -7 3415.80 599.910   2
   6   4  -6 679.984 412.816   2
   6   4  -5 2853.19 596.267   2
   6   4  -4 1138.20 472.779   2
   6   4  -3 37923.4 1600.75   2
   6   4  -2 5525.71 694.717   2
   6   4  -2 5329.73 337.047   3
   6   4  -1 8694.10 812.820   2
   6   4  -1 8034.86 517.847   3
   6   4   0 5602.46 659.716   2
   6   4   0 5977.04 533.719   3
   6   4   1 398.757 286.585   3
   6   4   1 263.015 311.724   2
   6   4   2 537.918 347.121   3
   6   4   2 207.269 281.446   2
   6   4   3 7374.27 783.686   3
   6   4   4 1408.99 472.212   3
   6   4   5 872.249 496.759   3
   6   5 -13 2289.41 660.683   2
   6   5 -12 1155.19 576.196   2
   6   5 -11 1330.02 580.719   2
   6   5 -10 1008.43 538.011   2
   6   5  -9 3403.66 711.655   2
   6   5  -8 13692.6 1142.15   2
   6   5  -7 4016.85 739.285   2
   6   5  -6-411.502 546.203   2
   6   5  -5 11238.5 1000.54   2
   6   5  -4 4057.93 643.005   2
   6   5  -3 3029.32 612.765   2
   6   5  -2 36039.6 1606.76   2
   6   5  -2 36579.6 961.671   3
   6   5  -1 15983.0 1103.95   2
   6   5  -1 16662.6 785.918   3
   6   5   0 1894.88 362.812   3
   6   5   0 1202.79 478.022   2
   6   5   1 4146.89 543.398   3
   6   5   1 2916.41 582.933   2
   6   5   2-26.9772 317.412   3
   6   5   2-137.862 363.962   2
   6   5   3 1780.15 495.717   3
   6   5   4 5733.65 792.773   3
   6   6 -13 1495.36 644.744   2
   6   6 -12 1365.72 601.667   2
   6   6 -11 2900.16 699.785   2
   6   6 -10-19.1731 491.259   2
   6   6  -9 618.821 592.828   2
   6   6  -8-26.5250 555.097   2
   6   6  -7 600.016 545.440   2
   6   6  -6 6453.11 894.619   2
   6   6  -5 3280.26 691.349   2
   6   6  -4 4619.58 761.354   2
   6   6  -3 922.938 534.605   2
   6   6  -2 513.351 479.911   2
   6   6  -1-355.394 501.075   2
   6   6   0 6481.17 777.431   2
   6   6   1 4254.32 665.767   2
   6   7 -14 5305.24 970.747   2
   6   7 -13 779.051 720.703   2
   6   7 -12 2575.81 733.287   2
   6   7 -11 6497.56 953.766   2
   6   7 -10 2351.75 711.331   2
   6   7  -9 1402.36 627.946   2
   6   7  -8 3125.46 715.246   2
   6   7  -7 1617.95 611.838   2
   6   7  -6 405.307 474.613   2
   6   7  -5 2261.56 715.172   2
   6   7  -4 861.891 595.698   2
   6   7  -3 197.411 476.440   2
   6   7  -2 274.183 489.713   2
   6   7  -1 615.794 480.466   2
   6   7   0 3225.47 668.028   2
   6   8 -12 1172.54 705.830   2
   6   8 -11 1248.36 695.293   2
   6   8 -10 2852.54 809.990   2
   6   8  -9 1894.26 649.468   2
   6   8  -8 11578.6 1184.89   2
   6   8  -7 7447.96 987.283   2
   6   8  -6 645.020 589.661   2
   6   8  -5 1333.61 619.130   2
   6   8  -4 1610.83 683.962   2
   6   8  -3 1749.39 662.579   2
   6   8  -2 2226.01 666.402   2
   6   8  -1 3203.59 701.357   2
   6   9  -9 3997.64 822.347   2
   6   9  -8 2101.49 728.288   2
   6   9  -7 13633.1 1284.90   2
   6   9  -6 4530.46 873.580   2
   6   9  -5 2275.92 763.186   2
   6   9  -4 1792.82 698.297   2
   6   9  -3 1940.64 668.931   2
   6   9  -2 1038.63 618.586   2
  -7   8   5 1440.11 523.356   1
  -7   8   4-130.173 451.177   1
  -7   8   3-284.597 379.694   1
  -7   8   2 574.861 429.894   1
  -7   8   1-16.0395 471.490   1
  -7   8   0 5189.65 853.881   1
  -7   8  -1 510.831 546.074   1
  -7   8  -2 6919.16 960.313   1
  -7   8  -3 26759.7 1743.86   1
  -7   8  -4 179.567 382.960   1
  -7   8  -5 1327.27 515.209   1
  -7   7   6 1118.60 496.322   1
  -7   7   5 1535.04 502.748   1
  -7   7   4 462.249 385.478   1
  -7   7   3 258.508 438.771   1
  -7   7   2 56.1940 414.073   1
  -7   7   1 465.132 477.892   1
  -7   7   0-94.5344 456.043   1
  -7   7  -1 1019.30 505.492   1
  -7   7  -2 1656.34 609.166   1
  -7   7  -3 10666.8 1094.56   1
  -7   7  -4 872.348 533.794   1
  -7   7  -5 5938.79 851.953   1
  -7   7  -6 4836.11 834.521   1
  -7   7  -7 2632.75 663.505   1
  -7   6   7 341.144 358.291   1
  -7   6   6 2101.65 556.610   1
  -7   6   5 891.572 408.577   1
  -7   6   4 142.670 415.096   1
  -7   6   3 2987.26 615.211   1
  -7   6   2 570.343 421.683   1
  -7   6   1 1043.09 487.504   1
  -7   6   0 4504.26 707.851   1
  -7   6  -1 11185.9 1079.02   1
  -7   6  -2 926.778 516.531   1
  -7   6  -3 523.918 445.730   1
  -7   6  -4 570.864 454.771   1
  -7   6  -5 952.995 508.386   1
  -7   6  -6 5783.48 845.801   1
  -7   6  -7 7403.72 911.792   1
  -7   5   7 2227.55 523.547   1
  -7   5   6 153.136 322.453   1
  -7   5   5 556.766 420.337   1
  -7   5   4 159.732 372.231   1
  -7   5   3 416.722 407.686   1
  -7   5   2 726.257 466.868   1
  -7   5   1 91.9850 363.195   1
  -7   5   0 1840.99 575.155   1
  -7   5  -1 8146.11 913.046   1
  -7   5  -2 2577.70 626.815   1
  -7   5  -3 5640.53 783.579   1
  -7   5  -4 9317.28 972.614   1
  -7   5  -5 2098.56 565.754   1
  -7   5  -6 4455.84 760.627   1
  -7   5  -7 3390.46 644.938   1
  -7   4  10 163.678 406.835   3
  -7   4   8 12884.0 1007.56   1
   7  -4  -8 12757.1 977.516   2
  -7   4   7 838.660 431.146   1
  -7   4   6 6102.87 738.520   1
  -7   4   5 2505.14 546.238   1
  -7   4   4 7517.40 835.042   1
  -7   4   3 779.144 459.974   1
  -7   4   2 6371.91 781.271   1
  -7   4   1 11432.0 987.772   1
  -7   4   0 15461.7 1151.09   1
  -7   4  -1 107.780 413.176   1
  -7   4  -2 4960.25 744.253   1
  -7   4  -3 928.518 480.013   1
  -7   4  -4 5221.44 766.206   1
  -7   4  -5 1915.14 554.000   1
  -7   4  -6 1783.18 474.854   1
  -7   3  11-204.996 432.302   3
  -7   3  10 3194.19 657.721   3
  -7   3   9 250.429 373.443   3
   7  -3  -8 3886.81 597.454   2
  -7   3   7 331.623 362.273   1
   7  -3  -7 402.670 361.092   2
  -7   3   6 11638.9 971.997   1
  -7   3   5 4139.77 629.953   1
  -7   3   4 13860.3 997.594   1
  -7   3   3 1983.27 506.060   1
  -7   3   2 10036.0 893.129   1
  -7   3   1 1377.80 460.234   1
  -7   3   0 46299.0 1850.27   1
  -7   3  -1 13726.1 1047.45   1
  -7   3  -2 80.1392 376.904   1
  -7   3  -3 1754.51 481.938   1
  -7   3  -4 1003.19 430.780   1
  -7   3  -5 133.687 340.160   1
  -7   3  -6 7338.16 808.821   1
   7  -3   7 601.002 464.534   3
  -7   2  11 1217.66 489.313   3
  -7   2  10 3004.02 602.190   3
   7  -2  -9 793.310 398.523   2
  -7   2   9 703.968 376.242   3
   7  -2  -8 1740.43 466.467   2
   7  -2  -7 901.895 429.223   2
  -7   2   6 9938.12 891.475   1
   7  -2  -6 9920.92 882.608   2
  -7   2   5 2636.82 563.130   1
  -7   2   4 4403.96 639.196   1
   7  -2  -3 1276.75 281.177   3
  -7   2   3 1599.22 498.398   1
  -7   2   2-73.2580 388.733   1
   7  -2  -2 221.419 209.542   3
  -7   2   1 15851.2 1094.02   1
  -7   2   0 26679.1 1396.61   1
  -7   2  -1 1173.34 449.906   1
  -7   2  -2 6047.07 733.449   1
  -7   2  -3 1687.67 490.333   1
  -7   2  -4 2151.59 538.294   1
  -7   2  -5 1721.67 488.922   1
   7  -2   6 2570.19 614.487   3
   7  -2   7 2802.99 652.740   3
  -7   1  11 1081.52 466.479   3
  -7   1  10 2008.86 471.554   3
   7  -1 -10 1255.77 416.993   2
   7  -1  -9 230.574 342.788   2
  -7   1   9-4.57865 304.433   3
   7  -1  -8 204.209 328.671   2
   7  -1  -7 82.9923 371.299   2
   7  -1  -6 1526.19 297.624   3
   7  -1  -6 1662.44 484.334   2
   7  -1  -5 13990.6 1011.51   2
   7  -1  -5 13311.2 691.675   3
  -7   1   4 16544.8 1094.96   1
   7  -1  -4 17305.3 754.764   3
   7  -1  -3-41.4907 179.850   3
  -7   1   3 511.215 441.919   1
  -7   1   2 24714.2 1330.81   1
  -7   1   1 82102.1 2374.93   1
  -7   1   0 38831.7 1648.18   1
  -7   1  -1 400.503 365.257   1
  -7   1  -2 1496.03 468.482   1
   7  -1   4 2043.64 508.203   3
   7  -1   5 2031.06 561.416   3
   7  -1   6 462.441 424.594   3
   7  -1   7 2072.86 635.749   3
   7   0 -10 8727.03 837.783   2
  -7   0  10 9769.73 782.698   3
   7   0  -9 2462.08 527.013   2
  -7   0   9 3404.70 462.647   3
   7   0  -8-363.671 405.686   2
   7   0  -7 1264.25 475.676   2
   7   0  -6 2734.94 552.277   2
   7   0  -5 7936.06 792.071   2
   7   0  -5 7947.15 447.526   3
   7   0  -4 2273.05 495.000   2
   7   0  -4 2469.82 256.509   3
   7   0  -3 290.425 147.002   3
   7   0  -3 614.048 394.435   2
   7   0  -2 2754.27 530.436   2
   7   0  -1 12879.3 975.475   2
   7   0   0 105.092 318.009   2
   7   0   1 14016.6 1022.65   2
   7   0   1 14091.2 826.991   3
   7   0   2 15159.6 1045.97   2
   7   0   2 15882.6 957.870   3
   7   0   3 4586.08 609.596   3
   7   0   3 4221.35 597.653   2
   7   0   4 5191.90 661.360   2
   7   0   4 5651.67 718.616   3
   7   0   5 646.152 431.111   3
   7   0   6 414.405 448.002   3
   7   1 -11 1544.85 474.485   2
   7   1 -10 1595.00 477.389   2
   7   1  -9 2056.22 500.911   2
   7   1  -8 17417.2 1140.93   2
   7   1  -7 38275.5 1653.52   2
   7   1  -6 2335.53 555.685   2
   7   1  -5 20106.1 1205.24   2
   7   1  -5 19116.8 415.901   3
   7   1  -4 15073.9 1051.48   2
   7   1  -4 14492.6 361.677   3
   7   1  -3 4463.49 654.365   2
   7   1  -3 4197.96 255.956   3
   7   1  -2-30.8011 142.278   3
   7   1  -2 254.135 354.773   2
   7   1  -1 3450.83 594.475   2
   7   1  -1 2831.44 331.853   3
   7   1   0 11458.0 932.137   2
   7   1   0 11584.8 686.718   3
   7   1   1 1072.82 300.658   3
   7   1   1 881.754 386.828   2
   7   1   2 600.432 294.056   3
   7   1   2 252.358 304.901   2
   7   1   3 306.880 319.487   3
   7   1   3 539.402 352.938   2
   7   1   4 363.191 378.804   3
   7   1   4 130.579 293.802   2
   7   1   5 235.590 396.614   3
   7   1   6 347.552 446.215   3
   7   2 -12 6558.22 808.030   2
   7   2 -11 12405.9 1022.20   2
   7   2 -10 7725.52 835.971   2
   7   2  -9 7243.13 810.791   2
   7   2  -8 522.499 402.673   2
   7   2  -7 3119.69 598.162   2
   7   2  -6 655.881 406.334   2
   7   2  -5 1936.13 515.072   2
   7   2  -4 4320.62 671.660   2
   7   2  -3 1315.23 500.962   2
   7   2  -2 113.032 111.090   3
   7   2  -2-108.885 382.193   2
   7   2  -1 13694.2 1024.68   2
   7   2  -1 14114.1 642.171   3
   7   2   0 3192.04 559.984   2
   7   2   0 3342.73 396.419   3
   7   2   1-726.326 274.465   3
   7   2   1 65.4095 331.541   2
   7   2   2 380.292 303.962   3
   7   2   2 217.560 285.586   2
   7   2   3 3678.18 573.231   3
   7   2   3 3546.62 562.592   2
   7   2   4 162.012 380.025   3
   7   2   5 3974.24 693.284   3
   7   2   6 3087.86 697.208   3
   7   3 -12 7266.77 864.274   2
   7   3 -11 633.107 477.667   2
   7   3 -10 2675.11 606.766   2
   7   3  -9 8345.33 877.729   2
   7   3  -8 2349.07 577.819   2
   7   3  -7 3357.13 639.325   2
   7   3  -6 6320.45 743.598   2
   7   3  -5 857.637 485.221   2
   7   3  -4 4933.61 681.205   2
   7   3  -3 12037.9 984.990   2
   7   3  -2 4096.82 630.997   2
   7   3  -1 201.571 188.754   3
   7   3  -1 112.780 388.189   2
   7   3   0 59.2410 186.600   3
   7   3   0 75.2990 314.692   2
   7   3   1 519.799 276.792   3
   7   3   1 124.679 303.973   2
   7   3   2 2613.91 484.697   3
   7   3   2 2616.61 510.481   2
   7   3   3 1518.32 459.144   3
   7   4 -13-184.146 440.126   2
   7   4 -12 3977.49 731.801   2
   7   4 -11 135.357 503.890   2
   7   4 -10 1157.07 591.063   2
   7   4  -9 5804.95 809.209   2
   7   4  -8 534.609 483.241   2
   7   4  -7 6994.80 854.023   2
   7   4  -6 11044.1 1010.22   2
   7   4  -5 91.0626 443.006   2
   7   4  -4 40028.2 1768.78   2
   7   4  -3 22436.1 1340.97   2
   7   4  -2 7631.64 830.535   2
   7   4  -1 9004.14 871.457   2
   7   4   0 5122.58 697.954   2
   7   4   1 134.318 317.775   2
   7   4   2 11007.2 922.636   2
   7   5 -13 610.801 568.998   2
   7   5 -12 2594.30 670.593   2
   7   5 -11 3783.47 785.994   2
   7   5 -10 568.208 576.614   2
   7   5  -9 48.5257 584.335   2
   7   5  -8-507.332 643.032   2
   7   5  -7-21.7369 521.496   2
   7   5  -6 382.847 471.986   2
   7   5  -5 17270.2 1232.07   2
   7   5  -4 1613.70 501.660   2
   7   5  -3 2927.25 608.900   2
   7   5  -2 612.594 466.579   2
   7   5  -1 4550.45 691.406   2
   7   5   0 1872.96 500.255   2
   7   5   1-95.5156 507.349   2
   7   6 -14 2617.98 733.941   2
   7   6 -13 1272.61 661.560   2
   7   6 -12 885.533 550.134   2
   7   6 -11 433.943 518.644   2
   7   6 -10 865.230 587.710   2
   7   6  -9 3407.54 751.120   2
   7   6  -8 2482.67 728.490   2
   7   6  -7-1394.74 593.624   2
   7   6  -6 429.974 491.650   2
   7   6  -5-814.281 680.989   2
   7   6  -4-101.383 537.001   2
   7   6  -3-604.508 609.620   2
   7   6  -2 771.560 527.008   2
   7   6  -1-654.356 564.673   2
   7   6   0 1314.46 551.863   2
   7   7 -12 1848.92 676.288   2
   7   7 -11 3036.21 802.354   2
   7   7 -10 434.474 673.864   2
   7   7  -9 3759.31 839.061   2
   7   7  -8 5648.05 865.665   2
   7   7  -7 2423.70 669.611   2
   7   7  -6 315.363 546.873   2
   7   7  -5 478.686 488.593   2
   7   7  -4 16.7190 487.177   2
   7   7  -3 1853.46 650.567   2
   7   7  -2 805.116 511.788   2
   7   7  -1 1486.21 601.569   2
   7   8  -9 8281.86 1073.39   2
   7   8  -8 9840.50 1144.81   2
   7   8  -7 2972.57 761.529   2
   7   8  -6 1454.03 694.795   2
   7   8  -5 857.488 623.864   2
   7   8  -4 795.429 605.838   2
   7   8  -3 494.591 519.133   2
   7   8  -2 1783.08 668.589   2
   7   8  -1 1485.27 599.546   2
  -8   7   6 566.380 409.227   1
  -8   7   5 294.036 419.572   1
  -8   7   4 780.626 518.754   1
  -8   7   3-289.289 472.758   1
  -8   7   2-199.055 453.920   1
  -8   7   1 610.808 520.418   1
  -8   7   0 4225.52 754.747   1
  -8   7  -1 490.346 530.687   1
  -8   7  -2 8298.88 1039.08   1
  -8   7  -3 5474.08 848.432   1
  -8   6   7 213.152 422.853   1
  -8   6   6 6325.38 810.791   1
  -8   6   5 458.767 408.695   1
  -8   6   4 758.305 472.580   1
  -8   6   3 353.012 444.468   1
  -8   6   2 107.144 423.766   1
  -8   6   1 3643.01 738.955   1
  -8   6   0 10642.2 1121.82   1
  -8   6  -1 164.203 490.862   1
  -8   6  -2 3584.93 740.840   1
  -8   6  -3 2842.32 683.394   1
  -8   6  -4 87.9861 447.437   1
  -8   6  -5 2408.98 640.035   1
  -8   5   8-170.846 371.686   1
  -8   5   7 1352.80 508.595   1
  -8   5   6 5027.33 755.275   1
  -8   5   5 2531.60 603.506   1
  -8   5   4 289.491 458.696   1
  -8   5   3 3202.55 707.880   1
  -8   5   2 51.1208 435.577   1
  -8   5   1 5162.08 830.866   1
  -8   5   0 16187.7 1292.48   1
  -8   5  -1 4738.34 759.003   1
  -8   5  -2 40.5684 476.650   1
  -8   5  -3-395.475 483.621   1
  -8   5  -4 1752.15 618.676   1
  -8   5  -5 16.1285 432.291   1
  -8   5  -6 1539.27 536.512   1
   8  -4  -8 555.029 378.217   2
  -8   4   8 505.351 398.069   1
  -8   4   7 174.202 399.330   1
  -8   4   6 3365.41 649.104   1
  -8   4   5-33.7887 372.139   1
  -8   4   4 226.456 395.811   1
  -8   4   3-69.2289 356.440   1
  -8   4   2 331.485 371.084   1
  -8   4   1 1641.09 560.437   1
  -8   4   0 5564.35 777.085   1
  -8   4  -1 710.261 447.903   1
  -8   4  -2 557.252 468.883   1
  -8   4  -3 835.438 441.353   1
  -8   4  -4 400.522 415.480   1
  -8   4  -5 62.6080 400.998   1
  -8   4  -6-58.9689 361.112   1
   8  -3  -9 2574.72 563.798   2
   8  -3  -8 3820.19 632.438   2
   8  -3  -7 154.494 394.811   2
  -8   3   7 462.478 387.612   1
  -8   3   6 4610.95 699.563   1
  -8   3   5 8107.43 911.071   1
  -8   3   4 897.540 478.104   1
  -8   3   3 67300.4 2361.01   1
  -8   3   2 41613.3 1874.95   1
  -8   3   1 3274.87 646.816   1
  -8   3   0 2679.21 615.714   1
  -8   3  -1-48.1139 362.455   1
  -8   3  -2 268.753 368.945   1
  -8   3  -3 6958.78 883.586   1
  -8   3  -4 622.304 410.152   1
  -8   3  -5 184.213 401.967   1
   8  -3   6 836.959 473.137   3
   8  -2  -9 454.063 409.838   2
   8  -2  -8 1279.74 466.017   2
   8  -2  -7 351.204 368.228   2
   8  -2  -6-175.640 400.985   2
  -8   2   5 7450.95 836.310   1
  -8   2   4 69.6670 424.666   1
  -8   2   3 14992.9 1157.22   1
  -8   2   2 26888.0 1545.15   1
  -8   2   1 384.650 400.035   1
  -8   2   0 8363.17 908.712   1
  -8   2  -1 8489.56 924.555   1
  -8   2  -2 66.3788 348.522   1
  -8   2  -3 2587.95 597.853   1
  -8   2  -4 5097.38 753.389   1
   8  -2   5 3631.38 676.474   3
   8  -2   6 5194.16 809.092   3
   8  -1 -10-122.304 372.890   2
   8  -1  -9 1842.00 530.096   2
   8  -1  -8 3025.25 609.224   2
   8  -1  -7 1027.13 445.823   2
   8  -1  -6 1225.73 467.619   2
   8  -1  -5 12500.0 1052.42   2
   8  -1  -4 2890.66 604.358   2
  -8   1   2 2117.22 555.457   1
  -8   1   1 2844.90 625.826   1
   8  -1   3-233.052 360.630   3
   8  -1   4-109.567 369.839   3
   8  -1   4 195.582 324.217   2
   8  -1   5 3157.57 654.391   3
   8  -1   6 2326.73 646.786   3
   8   0 -11 3607.55 637.589   2
   8   0 -10 5467.69 751.215   2
   8   0  -9 4561.39 708.590   2
   8   0  -8 882.036 487.682   2
   8   0  -7 305.615 422.623   2
   8   0  -6 276.744 421.765   2
   8   0  -5 2421.34 576.819   2
   8   0  -4 1317.97 529.864   2
   8   0  -3 1597.52 504.550   2
   8   0  -2 17130.1 1206.45   2
   8   0  -1 12412.5 1033.95   2
   8   0   0 32.6260 221.439   3
   8   0   0-212.684 382.651   2
   8   0   1 4917.41 714.564   2
   8   0   1 5189.62 564.503   3
   8   0   2 443.889 278.466   3
   8   0   2 589.156 378.433   2
   8   0   3 1111.40 418.474   3
   8   0   3 1223.11 427.684   2
   8   0   4 3085.24 601.116   3
   8   0   4 3537.57 613.936   2
   8   0   5 3445.63 682.716   3
   8   1 -11 370.522 431.375   2
   8   1 -10 6162.38 798.137   2
   8   1  -9 347.174 451.656   2
   8   1  -8 2477.89 568.550   2
   8   1  -7 2646.51 593.746   2
   8   1  -6 356.307 440.826   2
   8   1  -5 5754.69 779.184   2
   8   1  -4 5638.07 748.597   2
   8   1  -3 4435.70 678.827   2
   8   1  -2 57.3020 387.606   2
   8   1  -1 6808.41 806.918   2
   8   1   0 542.603 432.640   2
   8   1   1 10369.2 976.473   2
   8   1   2 1173.64 381.851   2
   8   1   3 492.037 364.961   2
   8   2 -12-529.604 544.995   2
   8   2 -11 895.026 477.196   2
   8   2 -10 4660.38 759.240   2
   8   2  -9-86.5941 421.888   2
   8   2  -8 2668.02 616.735   2
   8   2  -7 4574.34 716.987   2
   8   2  -6 3184.86 634.361   2
   8   2  -5 19667.8 1303.86   2
   8   2  -4 12054.2 1040.14   2
   8   2  -3 1026.20 462.688   2
   8   2  -2 2171.14 570.220   2
   8   2  -1 7104.22 842.461   2
   8   2   0-58.0502 367.004   2
   8   2   1 3262.87 594.398   2
   8   2   2 7501.04 823.844   2
   8   3 -12 1183.61 551.910   2
   8   3 -11 451.698 458.274   2
   8   3 -10 119.939 411.370   2
   8   3  -9 317.054 478.141   2
   8   3  -8 719.472 441.178   2
   8   3  -7 1953.69 542.622   2
   8   3  -6 439.050 429.081   2
   8   3  -5 127.024 406.965   2
   8   3  -4 2414.05 583.625   2
   8   3  -3-236.007 463.152   2
   8   3  -2 3905.14 685.757   2
   8   3  -1 634.793 434.186   2
   8   3   0 2042.12 538.131   2
   8   3   1 4322.67 660.155   2
   8   3   2 5231.18 707.431   2
   8   4 -13-2.97577 481.481   2
   8   4 -12 899.145 547.336   2
   8   4 -11-179.139 619.282   2
   8   4 -10 3647.87 752.345   2
   8   4  -9 5614.58 794.220   2
   8   4  -8 651.615 503.411   2
   8   4  -7 15375.9 1227.64   2
   8   4  -6 6564.60 860.913   2
   8   4  -5 1732.20 592.141   2
   8   4  -4 3881.55 704.132   2
   8   4  -3 455.221 476.591   2
   8   4  -2 2435.56 577.069   2
   8   4  -1 1979.83 556.104   2
   8   4   0-84.6113 332.242   2
   8   4   1 5960.41 778.472   2
   8   5 -13 297.557 489.738   2
   8   5 -12 1310.23 653.475   2
   8   5 -11 6.80892 554.083   2
   8   5 -10 772.812 582.773   2
   8   5  -9 3929.05 809.508   2
   8   5  -8 6878.10 940.667   2
   8   5  -7 626.783 438.569   2
   8   5  -6 8503.81 956.000   2
   8   5  -5 510.186 469.499   2
   8   5  -4 6005.44 825.857   2
   8   5  -3 91.7184 419.627   2
   8   5  -2 1375.85 538.943   2
   8   5  -1 2378.16 582.045   2
   8   5   0 1253.72 484.045   2
   8   6 -11 78.1521 527.390   2
   8   6 -10 2921.51 777.149   2
   8   6  -9 4581.45 852.188   2
   8   6  -8 2776.66 721.387   2
   8   6  -7 963.984 539.857   2
   8   6  -6-2493.36 746.091   2
   8   6  -5 558.985 541.307   2
   8   6  -4-40.5737 592.955   2
   8   6  -3 307.987 541.892   2
   8   6  -2-554.756 588.916   2
   8   6  -1 382.909 517.955   2
   8   7  -8 3649.12 801.651   2
   8   7  -7 278.030 503.167   2
   8   7  -6-774.104 709.103   2
   8   7  -5 409.769 586.045   2
   8   7  -4 123.636 591.749   2
   8   7  -3-34.2050 585.233   2
   8   7  -2 1339.79 640.738   2
   8   7  -1 3513.59 768.202   2
  -9   5   7 1038.12 521.172   1
  -9   5   6 1548.62 574.206   1
  -9   5   5 298.304 427.773   1
  -9   5   4 4948.11 795.699   1
  -9   5   3 14367.2 1222.14   1
  -9   5   2 24696.7 1600.40   1
  -9   5   1 200.382 432.966   1
  -9   5   0 1126.95 475.363   1
  -9   5  -1-139.553 411.752   1
  -9   5  -2 304.087 448.228   1
   9  -4  -8 51.6698 359.970   2
   9  -4  -7 2813.98 664.195   2
  -9   4   7 2505.51 615.458   1
  -9   4   6 936.396 541.792   1
  -9   4   5 13167.9 1207.48   1
  -9   4   4 3552.81 732.236   1
  -9   4   3 5578.38 840.813   1
  -9   4   2 2355.87 661.415   1
  -9   4   1 1289.46 528.756   1
  -9   4   0 3308.47 695.602   1
  -9   4  -1 110.247 413.495   1
  -9   4  -2 564.071 417.618   1
  -9   4  -3 910.023 491.405   1
  -9   4  -4-284.898 479.730   1
   9  -3  -9 3435.41 665.707   2
   9  -3  -8 30.0111 378.587   2
   9  -3  -7 3184.88 675.876   2
  -9   3   6 6116.73 849.202   1
   9  -3  -6 6306.48 846.063   2
  -9   3   5 88.9967 427.102   1
  -9   3   4 7459.54 947.189   1
  -9   3   3 3173.46 666.181   1
  -9   3   2 1653.01 596.693   1
  -9   3   1 425.922 430.207   1
  -9   3   0 96.8299 428.362   1
  -9   3  -1 62.7481 433.632   1
  -9   3  -2 305.903 454.249   1
  -9   3  -3 1829.54 608.599   1
  -9   3  -4 3225.02 682.770   1
   9  -2  -9 2386.03 610.387   2
   9  -2  -8-287.560 428.658   2
   9  -2  -7 533.365 479.669   2
   9  -2  -6 693.076 490.510   2
   9  -2  -5 5186.48 798.287   2
  -9   2   4 2894.65 676.530   1
  -9   2   3 17687.9 1351.78   1
  -9   2   2 6398.23 849.203   1
  -9   2   1 318.910 434.961   1
  -9   2   0 1647.42 587.896   1
  -9   2  -1 4463.31 730.385   1
   9  -1 -10-66.9347 407.252   2
   9  -1  -9 90.8221 401.969   2
   9  -1  -8 2095.91 584.842   2
   9  -1  -7 333.152 408.902   2
   9  -1  -6 1339.95 558.040   2
   9  -1  -5 4090.17 754.783   2
   9  -1  -4 250.461 449.820   2
   9  -1  -3 3581.41 719.191   2
   9  -1  -2 1158.53 530.209   2
   9  -1  -1 357.347 448.630   2
   9  -1   0 328.204 416.405   2
   9  -1   1 947.323 473.720   2
   9  -1   2 150.049 439.094   2
   9  -1   3 6549.75 849.235   2
   9  -1   4 300.711 349.401   2
   9   0 -11 1081.44 470.286   2
   9   0 -10 59.0450 386.185   2
   9   0  -9 198.649 380.756   2
   9   0  -8 674.091 465.211   2
   9   0  -7 529.863 413.043   2
   9   0  -6 10685.0 1059.04   2
   9   0  -5 18904.7 1340.81   2
   9   0  -4 1084.59 548.715   2
   9   0  -3 5417.26 806.150   2
   9   0  -2 3637.20 671.567   2
   9   0  -1 1934.35 597.034   2
   9   0   0 3234.26 658.180   2
   9   0   1 4841.38 784.257   2
   9   0   2-228.145 402.528   2
   9   0   3 3041.25 614.240   2
   9   1 -11 903.179 489.399   2
   9   1 -10-152.900 405.656   2
   9   1  -9 1200.72 499.427   2
   9   1  -8-264.651 414.720   2
   9   1  -7 528.050 489.778   2
   9   1  -6 152.287 455.532   2
   9   1  -5-258.039 445.946   2
   9   1  -4-41.3203 446.734   2
   9   1  -3 1738.04 573.719   2
   9   1  -2 1837.34 595.222   2
   9   1  -1 293.477 465.641   2
   9   1   0 12551.3 1128.54   2
   9   1   1 9006.01 978.817   2
   9   1   2 2112.63 563.325   2
   9   2 -12 97.1346 392.089   2
   9   2 -11 1328.39 516.827   2
   9   2 -10 1771.14 590.033   2
   9   2  -9 182.764 465.141   2
   9   2  -8 4052.73 722.368   2
   9   2  -7 5372.03 794.934   2
   9   2  -6 187.787 396.694   2
   9   2  -5 804.067 506.843   2
   9   2  -4 406.456 468.993   2
   9   2  -3 358.584 441.302   2
   9   2  -2 274.474 409.674   2
   9   2  -1-56.5693 423.375   2
   9   2   0 7242.01 924.070   2
   9   2   1 8044.21 929.254   2
   9   2   2 3020.30 604.256   2
   9   3 -12-875.440 665.799   2
   9   3 -11 1960.26 603.699   2
   9   3 -10 2104.70 637.442   2
   9   3  -9 423.352 525.334   2
   9   3  -8 1306.46 528.258   2
   9   3  -7 79.1172 488.215   2
   9   3  -6-40.4809 405.275   2
   9   3  -5 225.832 392.941   2
   9   3  -4-58.7425 443.177   2
   9   3  -3 405.442 420.836   2
   9   3  -2 1210.90 528.845   2
   9   3  -1 754.610 463.883   2
   9   3   0 1641.26 531.774   2
   9   3   1 1205.43 492.350   2
   9   4 -10 12162.3 1196.36   2
   9   4  -9 1922.14 664.344   2
   9   4  -8 4410.88 797.971   2
   9   4  -7 1599.68 614.870   2
   9   4  -6 188.776 398.032   2
   9   4  -5 377.081 464.168   2
   9   4  -4 1265.18 544.554   2
   9   4  -3 284.910 424.906   2
   9   4  -2 3817.23 737.176   2
   9   4  -1 1438.60 560.869   2
   9   4   0 251.719 440.728   2
   9   5  -8 348.564 478.548   2
   9   5  -7 5226.68 833.112   2
   9   5  -6 1549.58 614.618   2
   9   5  -5 2805.33 705.055   2
   9   5  -4 1676.54 634.027   2
   9   5  -3 414.892 442.355   2
   9   5  -2 6813.08 933.676   2
   9   5  -1 7449.04 953.728   2
   9   5   0-27.8419 463.384   2
  10  -2  -7 6180.07 885.050   2
  10  -2  -6 14478.1 1303.13   2
  10  -2  -5 106.405 430.413   2
  10  -2  -4 3855.27 769.648   2
  10  -2  -3 2688.00 660.686   2
  10  -2  -2 331.400 495.714   2
  10  -1  -8-71.9632 414.113   2
  10  -1  -7 692.297 533.803   2
  10  -1  -6 1159.93 564.196   2
  10  -1  -5 383.419 514.939   2
  10  -1  -4 1036.40 539.879   2
  10  -1  -3 109.092 464.933   2
  10  -1  -2 729.786 531.776   2
  10  -1  -1 2245.84 645.330   2
  10   0  -8 3800.05 772.468   2
  10   0  -7 202.936 426.258   2
  10   0  -6 1376.30 577.741   2
  10   0  -5 1561.89 577.868   2
  10   0  -4 1524.91 630.442   2
  10   0  -3 435.001 486.534   2
  10   0  -2 2608.22 668.344   2
  10   0  -1 6451.56 924.463   2
  10   1  -8 937.342 538.314   2
  10   1  -7 190.124 424.017   2
  10   1  -6 1007.46 563.182   2
  10   1  -5 3399.49 721.424   2
  10   1  -4 178.095 445.998   2
  10   1  -3 603.244 484.097   2
  10   1  -2 684.278 527.450   2
  10   2  -6 236.980 416.192   2
  10   2  -5 512.542 502.007   2
  10   2  -4 845.719 488.456   2
  10   2  -3 92.9150 419.744   2
   0   0   0    0.00    0.00   0
 
TITL PDL1807 in P-1
REM P-1 (#2 in standard setting)
CELL 0.71073   8.568572   9.833114  11.357915 112.4784 108.6223  91.0909
ZERR    1.00   0.000559   0.001015   0.000848   0.0083   0.0063   0.0067
LATT  1
SFAC C H B O Si
UNIT 40.00 38.00 2.00 4.00 2.00
TREF
HKLF 4
END
;
_shelx_hkl_checksum              39915
loop_
_space_group_symop_operation_xyz
'x, y, z'
'-x, -y, -z'
loop_
_atom_site_label
_atom_site_type_symbol
_atom_site_fract_x
_atom_site_fract_y
_atom_site_fract_z
_atom_site_U_iso_or_equiv
_atom_site_adp_type
_atom_site_occupancy
_atom_site_site_symmetry_order
_atom_site_calc_flag
_atom_site_refinement_flags_posn
_atom_site_refinement_flags_adp
_atom_site_refinement_flags_occupancy
_atom_site_disorder_assembly
_atom_site_disorder_group
C1 C 0.2875(3) 0.6785(2) 0.27996(19) 0.0253(5) Uani 1 1 d . . . . .
C2 C 0.3614(3) 0.8253(3) 0.3250(2) 0.0308(6) Uani 1 1 d . . . . .
H2 H 0.474493 0.857037 0.384551 0.037 Uiso 1 1 calc R U . . .
C3 C 0.2726(3) 0.9258(3) 0.2843(2) 0.0386(6) Uani 1 1 d . . . . .
H3 H 0.325050 1.025545 0.316290 0.046 Uiso 1 1 calc R U . . .
C4 C 0.1085(3) 0.8816(3) 0.1976(2) 0.0457(7) Uani 1 1 d . . . . .
H4 H 0.047549 0.950927 0.170603 0.055 Uiso 1 1 calc R U . . .
C5 C 0.0330(3) 0.7358(3) 0.1501(2) 0.0463(7) Uani 1 1 d . . . . .
H5 H -0.079782 0.704705 0.089907 0.056 Uiso 1 1 calc R U . . .
C6 C 0.1218(3) 0.6355(3) 0.1904(2) 0.0374(6) Uani 1 1 d . . . . .
H6 H 0.069136 0.535423 0.156487 0.045 Uiso 1 1 calc R U . . .
C7 C 0.4183(3) 0.3843(3) 0.1807(2) 0.0378(6) Uani 1 1 d . . . . .
C8 C 0.3297(3) 0.2413(3) 0.1267(2) 0.0486(7) Uani 1 1 d . . . . .
H8 H 0.258066 0.220337 0.168598 0.058 Uiso 1 1 calc R U . . .
C9 C 0.3437(4) 0.1288(3) 0.0128(3) 0.0712(10) Uani 1 1 d . . . . .
H9 H 0.282540 0.031528 -0.022826 0.085 Uiso 1 1 calc R U . . .
C10 C 0.4467(5) 0.1592(4) -0.0479(3) 0.0840(13) Uani 1 1 d . . . . .
H10 H 0.456181 0.082207 -0.126112 0.101 Uiso 1 1 calc R U . . .
C11 C 0.5357(5) 0.2980(4) 0.0020(3) 0.0825(12) Uani 1 1 d . . . . .
H11 H 0.607551 0.317492 -0.040322 0.099 Uiso 1 1 calc R U . . .
C12 C 0.5202(4) 0.4108(3) 0.1155(3) 0.0598(9) Uani 1 1 d . . . . .
H12 H 0.580496 0.507981 0.149239 0.072 Uiso 1 1 calc R U . . .
C13 C 0.8960(3) 0.6913(2) 0.56254(19) 0.0250(5) Uani 1 1 d . . . . .
C14 C 1.0382(3) 0.6877(3) 0.6644(2) 0.0336(6) Uani 1 1 d . . . . .
H14 H 1.027313 0.637306 0.718722 0.040 Uiso 1 1 calc R U . . .
C15 C 1.1946(3) 0.7562(3) 0.6878(2) 0.0410(7) Uani 1 1 d . . . . .
H15 H 1.290490 0.754412 0.757843 0.049 Uiso 1 1 calc R U . . .
C16 C 1.2069(3) 0.8261(3) 0.6076(2) 0.0377(6) Uani 1 1 d . . . . .
C17 C 1.0733(3) 0.8346(3) 0.5065(2) 0.0383(6) Uani 1 1 d . . . . .
H17 H 1.086690 0.885064 0.453002 0.046 Uiso 1 1 calc R U . . .
C18 C 0.9180(3) 0.7667(3) 0.4854(2) 0.0323(6) Uani 1 1 d . . . . .
H18 H 0.823246 0.771532 0.416157 0.039 Uiso 1 1 calc R U . . .
B1 B 0.7212(3) 0.6111(3) 0.5340(2) 0.0260(6) Uani 1 1 d . . . . .
O1 O 0.58490(17) 0.62336(17) 0.43746(14) 0.0316(4) Uani 1 1 d . . . . .
O2 O 0.29226(17) 0.46863(17) 0.39382(14) 0.0338(4) Uani 1 1 d . . . . .
SI1 Si 0.39916(7) 0.53924(7) 0.33041(5) 0.02542(19) Uani 1 1 d . . . . .
F1 F 1.36180(16) 0.89092(19) 0.62884(14) 0.0607(5) Uani 1 1 d . . . . .
loop_
_atom_site_aniso_label
_atom_site_aniso_U_11
_atom_site_aniso_U_22
_atom_site_aniso_U_33
_atom_site_aniso_U_23
_atom_site_aniso_U_13
_atom_site_aniso_U_12
C1 0.0289(12) 0.0278(13) 0.0216(11) 0.0120(9) 0.0097(9) 0.0068(10)
C2 0.0283(13) 0.0337(14) 0.0327(12) 0.0156(10) 0.0111(9) 0.0048(10)
C3 0.0408(15) 0.0304(14) 0.0522(15) 0.0232(12) 0.0179(12) 0.0091(11)
C4 0.0469(16) 0.0445(17) 0.0525(15) 0.0296(13) 0.0133(12) 0.0212(13)
C5 0.0378(15) 0.0463(18) 0.0445(15) 0.0211(13) -0.0019(11) 0.0097(13)
C6 0.0361(14) 0.0311(14) 0.0350(13) 0.0131(11) 0.0006(10) 0.0047(11)
C7 0.0491(16) 0.0358(15) 0.0317(13) 0.0205(11) 0.0095(11) 0.0224(12)
C8 0.0428(16) 0.0403(17) 0.0438(15) 0.0111(13) -0.0017(11) 0.0194(13)
C9 0.075(2) 0.0448(19) 0.0517(19) 0.0017(15) -0.0102(16) 0.0318(16)
C10 0.136(4) 0.075(3) 0.0374(17) 0.0222(18) 0.025(2) 0.074(3)
C11 0.152(4) 0.082(3) 0.065(2) 0.054(2) 0.071(2) 0.076(3)
C12 0.107(3) 0.0515(18) 0.0544(17) 0.0374(14) 0.0505(17) 0.0412(17)
C13 0.0248(12) 0.0238(12) 0.0251(11) 0.0090(9) 0.0084(9) 0.0055(9)
C14 0.0297(13) 0.0376(15) 0.0333(12) 0.0170(11) 0.0080(10) 0.0041(11)
C15 0.0253(14) 0.0531(18) 0.0365(13) 0.0167(12) 0.0028(10) 0.0031(12)
C16 0.0257(13) 0.0445(16) 0.0365(13) 0.0089(12) 0.0130(11) -0.0047(11)
C17 0.0381(15) 0.0415(16) 0.0398(14) 0.0184(12) 0.0175(11) 0.0008(12)
C18 0.0266(13) 0.0390(15) 0.0332(12) 0.0178(11) 0.0092(9) 0.0053(10)
B1 0.0265(14) 0.0248(14) 0.0268(13) 0.0107(11) 0.0093(10) 0.0061(11)
O1 0.0228(9) 0.0377(10) 0.0378(8) 0.0233(7) 0.0057(7) 0.0035(7)
O2 0.0261(9) 0.0407(10) 0.0390(9) 0.0248(8) 0.0069(7) 0.0021(7)
SI1 0.0256(4) 0.0282(4) 0.0250(3) 0.0155(3) 0.0065(2) 0.0053(3)
F1 0.0309(9) 0.0869(13) 0.0569(9) 0.0240(8) 0.0144(7) -0.0146(8)
loop_
_atom_type_symbol
_atom_type_description
_atom_type_scat_dispersion_real
_atom_type_scat_dispersion_imag
_atom_type_scat_source
C C 0.0033 0.0016 'International Tables Vol C Tables 4.2.6.8 and 6.1.1.4'
H H 0.0000 0.0000 'International Tables Vol C Tables 4.2.6.8 and 6.1.1.4'
B B 0.0013 0.0007 'International Tables Vol C Tables 4.2.6.8 and 6.1.1.4'
O O 0.0106 0.0060 'International Tables Vol C Tables 4.2.6.8 and 6.1.1.4'
Si Si 0.0817 0.0704 'International Tables Vol C Tables 4.2.6.8 and 6.1.1.4'
F F 0.0171 0.0103 'International Tables Vol C Tables 4.2.6.8 and 6.1.1.4'
loop_
_geom_angle_atom_site_label_1
_geom_angle_atom_site_label_2
_geom_angle_atom_site_label_3
_geom_angle
_geom_angle_site_symmetry_1
_geom_angle_site_symmetry_3
_geom_angle_publ_flag
C2 C1 C6 117.6(2) . . ?
C2 C1 SI1 123.15(17) . . ?
C6 C1 SI1 119.19(17) . . ?
C3 C2 C1 121.1(2) . . ?
C3 C2 H2 119.5 . . ?
C1 C2 H2 119.5 . . ?
C4 C3 C2 120.3(2) . . ?
C4 C3 H3 119.9 . . ?
C2 C3 H3 119.9 . . ?
C3 C4 C5 119.7(2) . . ?
C3 C4 H4 120.2 . . ?
C5 C4 H4 120.2 . . ?
C6 C5 C4 120.0(2) . . ?
C6 C5 H5 120.0 . . ?
C4 C5 H5 120.0 . . ?
C5 C6 C1 121.3(2) . . ?
C5 C6 H6 119.4 . . ?
C1 C6 H6 119.4 . . ?
C8 C7 C12 117.5(2) . . ?
C8 C7 SI1 122.7(2) . . ?
C12 C7 SI1 119.8(2) . . ?
C9 C8 C7 121.3(3) . . ?
C9 C8 H8 119.4 . . ?
C7 C8 H8 119.4 . . ?
C10 C9 C8 119.4(3) . . ?
C10 C9 H9 120.3 . . ?
C8 C9 H9 120.3 . . ?
C11 C10 C9 121.1(3) . . ?
C11 C10 H10 119.5 . . ?
C9 C10 H10 119.5 . . ?
C10 C11 C12 119.3(3) . . ?
C10 C11 H11 120.3 . . ?
C12 C11 H11 120.3 . . ?
C11 C12 C7 121.4(3) . . ?
C11 C12 H12 119.3 . . ?
C7 C12 H12 119.3 . . ?
C18 C13 C14 117.3(2) . . ?
C18 C13 B1 121.4(2) . . ?
C14 C13 B1 121.3(2) . . ?
C15 C14 C13 121.3(2) . . ?
C15 C14 H14 119.4 . . ?
C13 C14 H14 119.4 . . ?
C16 C15 C14 118.2(2) . . ?
C16 C15 H15 120.9 . . ?
C14 C15 H15 120.9 . . ?
C15 C16 F1 118.1(2) . . ?
C15 C16 C17 123.7(2) . . ?
F1 C16 C17 118.2(2) . . ?
C16 C17 C18 117.4(2) . . ?
C16 C17 H17 121.3 . . ?
C18 C17 H17 121.3 . . ?
C17 C18 C13 122.1(2) . . ?
C17 C18 H18 118.9 . . ?
C13 C18 H18 118.9 . . ?
O2 B1 O1 121.7(2) 2_666 . ?
O2 B1 C13 119.2(2) 2_666 . ?
O1 B1 C13 119.1(2) . . ?
B1 O1 SI1 143.08(16) . . ?
B1 O2 SI1 151.03(16) 2_666 . ?
O2 SI1 O1 113.21(8) . . ?
O2 SI1 C1 108.57(9) . . ?
O1 SI1 C1 107.54(9) . . ?
O2 SI1 C7 107.58(10) . . ?
O1 SI1 C7 108.89(10) . . ?
C1 SI1 C7 111.08(10) . . ?
loop_
_geom_bond_atom_site_label_1
_geom_bond_atom_site_label_2
_geom_bond_distance
_geom_bond_site_symmetry_2
_geom_bond_publ_flag
C1 C2 1.392(3) . ?
C1 C6 1.399(3) . ?
C1 SI1 1.849(2) . ?
C2 C3 1.387(3) . ?
C2 H2 0.9500 . ?
C3 C4 1.378(3) . ?
C3 H3 0.9500 . ?
C4 C5 1.384(4) . ?
C4 H4 0.9500 . ?
C5 C6 1.383(3) . ?
C5 H5 0.9500 . ?
C6 H6 0.9500 . ?
C7 C8 1.389(4) . ?
C7 C12 1.389(4) . ?
C7 SI1 1.856(2) . ?
C8 C9 1.387(4) . ?
C8 H8 0.9500 . ?
C9 C10 1.371(5) . ?
C9 H9 0.9500 . ?
C10 C11 1.364(5) . ?
C10 H10 0.9500 . ?
C11 C12 1.389(4) . ?
C11 H11 0.9500 . ?
C12 H12 0.9500 . ?
C13 C18 1.396(3) . ?
C13 C14 1.399(3) . ?
C13 B1 1.556(3) . ?
C14 C15 1.387(3) . ?
C14 H14 0.9500 . ?
C15 C16 1.360(3) . ?
C15 H15 0.9500 . ?
C16 F1 1.368(2) . ?
C16 C17 1.368(3) . ?
C17 C18 1.383(3) . ?
C17 H17 0.9500 . ?
C18 H18 0.9500 . ?
B1 O2 1.360(3) 2_666 ?
B1 O1 1.367(3) . ?
O1 SI1 1.6250(14) . ?
O2 B1 1.360(3) 2_666 ?
O2 SI1 1.6184(16) . ?
loop_
_geom_torsion_atom_site_label_1
_geom_torsion_atom_site_label_2
_geom_torsion_atom_site_label_3
_geom_torsion_atom_site_label_4
_geom_torsion
_geom_torsion_site_symmetry_1
_geom_torsion_site_symmetry_2
_geom_torsion_site_symmetry_3
_geom_torsion_site_symmetry_4
_geom_torsion_publ_flag
C6 C1 C2 C3 1.2(3) . . . . ?
SI1 C1 C2 C3 179.98(16) . . . . ?
C1 C2 C3 C4 -0.2(3) . . . . ?
C2 C3 C4 C5 -0.6(4) . . . . ?
C3 C4 C5 C6 0.4(4) . . . . ?
C4 C5 C6 C1 0.6(4) . . . . ?
C2 C1 C6 C5 -1.4(3) . . . . ?
SI1 C1 C6 C5 179.75(18) . . . . ?
C12 C7 C8 C9 0.7(4) . . . . ?
SI1 C7 C8 C9 178.5(2) . . . . ?
C7 C8 C9 C10 -0.2(4) . . . . ?
C8 C9 C10 C11 0.2(5) . . . . ?
C9 C10 C11 C12 -0.7(5) . . . . ?
C10 C11 C12 C7 1.2(5) . . . . ?
C8 C7 C12 C11 -1.2(4) . . . . ?
SI1 C7 C12 C11 -179.1(2) . . . . ?
C18 C13 C14 C15 0.0(3) . . . . ?
B1 C13 C14 C15 178.5(2) . . . . ?
C13 C14 C15 C16 -0.8(4) . . . . ?
C14 C15 C16 F1 -178.66(19) . . . . ?
C14 C15 C16 C17 1.1(4) . . . . ?
C15 C16 C17 C18 -0.5(4) . . . . ?
F1 C16 C17 C18 179.20(19) . . . . ?
C16 C17 C18 C13 -0.3(3) . . . . ?
C14 C13 C18 C17 0.6(3) . . . . ?
B1 C13 C18 C17 -177.9(2) . . . . ?
C18 C13 B1 O2 175.9(2) . . . 2_666 ?
C14 C13 B1 O2 -2.5(3) . . . 2_666 ?
C18 C13 B1 O1 -4.5(3) . . . . ?
C14 C13 B1 O1 177.1(2) . . . . ?
O2 B1 O1 SI1 -27.2(4) 2_666 . . . ?
C13 B1 O1 SI1 153.21(18) . . . . ?
B1 O2 SI1 O1 -45.8(3) 2_666 . . . ?
B1 O2 SI1 C1 -165.2(3) 2_666 . . . ?
B1 O2 SI1 C7 74.6(3) 2_666 . . . ?
B1 O1 SI1 O2 43.2(3) . . . . ?
B1 O1 SI1 C1 163.2(2) . . . . ?
B1 O1 SI1 C7 -76.4(3) . . . . ?
C2 C1 SI1 O2 125.76(17) . . . . ?
C6 C1 SI1 O2 -55.45(18) . . . . ?
C2 C1 SI1 O1 2.92(19) . . . . ?
C6 C1 SI1 O1 -178.29(16) . . . . ?
C2 C1 SI1 C7 -116.15(18) . . . . ?
C6 C1 SI1 C7 62.7(2) . . . . ?
C8 C7 SI1 O2 9.4(2) . . . . ?
C12 C7 SI1 O2 -172.9(2) . . . . ?
C8 C7 SI1 O1 132.5(2) . . . . ?
C12 C7 SI1 O1 -49.8(2) . . . . ?
C8 C7 SI1 C1 -109.3(2) . . . . ?
C12 C7 SI1 C1 68.4(2) . . . . ?
