#------------------------------------------------------------------------------
#$Date: 2021-06-05 21:47:25 +0300 (Sat, 05 Jun 2021) $
#$Revision: 266063 $
#$URL: file:///home/coder/svn-repositories/cod/cif/7/70/68/7706854.cif $
#------------------------------------------------------------------------------
#
# This file is available in the Crystallography Open Database (COD),
# http://www.crystallography.net/
#
# All data on this site have been placed in the public domain by the
# contributors.
#
data_7706854
loop_
_publ_author_name
'Hu, Lei'
'Mahaut, Damien'
'Tumanov, Nikolay'
'Wouters, Johan'
'Collard, Laurent'
'Robiette, Rapha\"el'
'Berionni, Guillaume'
_publ_section_title
;
 Sterically hindered ortho-substituted phosphatriptycenes as
 configurationally stable P-chirogenic triarylphosphines.
;
_journal_issue                   14
_journal_name_full
'Dalton transactions (Cambridge, England : 2003)'
_journal_page_first              4772
_journal_page_last               4777
_journal_paper_doi               10.1039/d1dt00816a
_journal_volume                  50
_journal_year                    2021
_chemical_formula_moiety         'C19 H12 Cl P'
_chemical_formula_sum            'C19 H12 Cl P'
_chemical_formula_weight         306.71
_chemical_name_common            4-chloro-10H-5,10-[1,2]benzenoacridophosphine
_chemical_name_systematic        4-chloro-10H-5,10-[1,2]benzenoacridophosphine
_space_group_crystal_system      monoclinic
_space_group_IT_number           11
_space_group_name_Hall           '-P 2yb'
_space_group_name_H-M_alt        'P 1 21/m 1'
_atom_sites_solution_hydrogens   mixed
_atom_sites_solution_primary     dual
_atom_sites_solution_secondary   difmap
_audit_creation_method           SHELXL-2018/3
_audit_update_record
;
2021-02-08 deposited with the CCDC.	2021-03-15 downloaded from the CCDC.
;
_cell_angle_alpha                90
_cell_angle_beta                 113.053(4)
_cell_angle_gamma                90
_cell_formula_units_Z            2
_cell_length_a                   7.2135(3)
_cell_length_b                   13.7539(4)
_cell_length_c                   8.1944(3)
_cell_measurement_reflns_used    1486
_cell_measurement_temperature    295(2)
_cell_measurement_theta_max      66.3840
_cell_measurement_theta_min      7.3900
_cell_volume                     748.07(5)
_computing_cell_refinement       'CrysAlisPro 1.171.40.16b (Rigaku OD, 2018)'
_computing_data_collection       'CrysAlisPro 1.171.39.46 (Rigaku OD, 2018)'
_computing_data_reduction        'CrysAlisPro 1.171.40.16b (Rigaku OD, 2018)'
_computing_structure_refinement  'SHELXL-2018/3 (Sheldrick, 2018)'
_computing_structure_solution    'SHELXT (Sheldrick, 2015)'
_diffrn_ambient_temperature      295(2)
_diffrn_detector_area_resol_mean 5.1856
_diffrn_measured_fraction_theta_full 0.988
_diffrn_measured_fraction_theta_max 0.987
_diffrn_measurement_device_type
;
Oxford Diffraction Xcalibur, Ruby, Gemini Ultra
;
_diffrn_measurement_method       '\w scans'
_diffrn_radiation_monochromator  'multilayer mirror'
_diffrn_radiation_type           CuK\a
_diffrn_radiation_wavelength     1.54184
_diffrn_reflns_av_unetI/netI     0.0341
_diffrn_reflns_Laue_measured_fraction_full 0.988
_diffrn_reflns_Laue_measured_fraction_max 0.987
_diffrn_reflns_limit_h_max       8
_diffrn_reflns_limit_h_min       -7
_diffrn_reflns_limit_k_max       16
_diffrn_reflns_limit_k_min       -16
_diffrn_reflns_limit_l_max       9
_diffrn_reflns_limit_l_min       -8
_diffrn_reflns_number            2755
_diffrn_reflns_point_group_measured_fraction_full 0.988
_diffrn_reflns_point_group_measured_fraction_max 0.987
_diffrn_reflns_theta_full        67.188
_diffrn_reflns_theta_max         67.188
_diffrn_reflns_theta_min         5.868
_diffrn_source                   'fine-focus sealed tube'
_exptl_absorpt_coefficient_mu    3.164
_exptl_absorpt_correction_T_max  0.941
_exptl_absorpt_correction_T_min  0.662
_exptl_absorpt_correction_type   analytical
_exptl_absorpt_process_details
;
CrysAlisPro 1.171.40.16b (Rigaku Oxford Diffraction, 2018)
Analytical numeric absorption correction using a multifaceted crystal
model based on expressions derived by R.C. Clark & J.S. Reid.
(Clark, R. C. & Reid, J. S. (1995). Acta Cryst. A51, 887-897)
Empirical absorption correction using spherical harmonics,
 implemented in SCALE3 ABSPACK scaling algorithm.
;
_exptl_crystal_colour            colourless
_exptl_crystal_density_diffrn    1.362
_exptl_crystal_description       plate
_exptl_crystal_F_000             316
_exptl_crystal_size_max          0.190
_exptl_crystal_size_mid          0.150
_exptl_crystal_size_min          0.018
_refine_diff_density_max         0.311
_refine_diff_density_min         -0.258
_refine_diff_density_rms         0.057
_refine_ls_extinction_method     none
_refine_ls_goodness_of_fit_ref   1.080
_refine_ls_hydrogen_treatment    constr
_refine_ls_matrix_type           full
_refine_ls_number_parameters     120
_refine_ls_number_reflns         2755
_refine_ls_number_restraints     1
_refine_ls_restrained_S_all      1.081
_refine_ls_R_factor_all          0.0852
_refine_ls_R_factor_gt           0.0664
_refine_ls_shift/su_max          0.000
_refine_ls_shift/su_mean         0.000
_refine_ls_structure_factor_coef Fsqd
_refine_ls_weighting_details
'w=1/[\s^2^(Fo^2^)+(0.0875P)^2^+0.3746P] where P=(Fo^2^+2Fc^2^)/3'
_refine_ls_weighting_scheme      calc
_refine_ls_wR_factor_gt          0.2007
_refine_ls_wR_factor_ref         0.2080
_reflns_Friedel_coverage         0.000
_reflns_number_gt                1966
_reflns_number_total             2755
_reflns_threshold_expression     'I > 2\s(I)'
_cod_data_source_file            d1dt00816a2.cif
_cod_data_source_block           nt0589_Lei_trip-Cl
_cod_depositor_comments
'Adding full bibliography for 7706848--7706861.cif.'
_cod_original_sg_symbol_H-M      'P 21/m'
_cod_database_code               7706854
_shelx_shelxl_version_number     2018/3
_shelx_space_group_comment
;
The symmetry employed for this shelxl refinement is uniquely defined
by the following loop, which should always be used as a source of
symmetry information in preference to the above space-group names.
They are only intended as comments.
;
_shelx_estimated_absorpt_t_min   0.585
_shelx_estimated_absorpt_t_max   0.945
_shelx_res_file
;
TITL nt0589_lei_trip-cl_a.res in P2(1)/m
    nt0589_Lei_trip-Cl.res
    created by SHELXL-2018/3 at 12:50:13 on 20-May-2019
REM Old TITL nt0589_lei_trip-cl_a.res in Pm
REM SHELXT solution in P2(1)/m
REM R1 0.138, Rweak 0.018, Alpha 0.140, Orientation as input
REM Formula found by SHELXT: C21 P
CELL 1.54184   7.213473  13.753856   8.194399  90.0000 113.0530  90.0000
ZERR    2.00   0.000282   0.000392   0.000298   0.0000   0.0044   0.0000
LATT 1
SYMM -X,0.5+Y,-Z
SFAC C H P Cl
UNIT 38 24 2 2
L.S. 10
PLAN  20
BOND $H
list 4
fmap 2
ACTA
CONF
TEMP 22
MERG 0
SIZE 0.018 0.15 0.19
DELU 0.005 0.005 C12 Cl2
WGHT    0.087500    0.374600
BASF   0.26622
FVAR       8.75400   0.89352
PART 1
CL1   4    0.889886    0.453255    0.825340    20.50000    0.07532    0.08094 =
         0.07859   -0.01481    0.02164   -0.00844
PART 0
P1    3    0.695668    0.250000    0.568266    10.50000    0.06488    0.07515 =
         0.05141    0.00000    0.02563    0.00000
PART 3
CL2   4    0.773607    0.250000    0.179668   -20.50000    0.08404    0.15932 =
         0.08821    0.00000    0.04691    0.00000
PART 0
C1    1    0.561999    0.347092    0.628847    11.00000    0.08129    0.05246 =
         0.04230    0.00046    0.02700   -0.00885
C2    1    0.650566    0.427359    0.736914    11.00000    0.10908    0.07286 =
         0.05289   -0.00366    0.02958   -0.03013
PART 2
AFIX  43
H2    2    0.789621    0.435254    0.780550    10.55317   -1.20000
AFIX   0
PART 0
C3    1    0.535559    0.494631    0.779566    11.00000    0.15801    0.05305 =
         0.06613   -0.00910    0.05365   -0.01420
AFIX  43
H3    2    0.597592    0.546688    0.853116    11.00000   -1.20000
AFIX   0
C4    1    0.330581    0.485349    0.714393    11.00000    0.15394    0.05432 =
         0.08514    0.00027    0.06781    0.01426
AFIX  43
H4    2    0.253501    0.531496    0.742439    11.00000   -1.20000
AFIX   0
C5    1    0.237887    0.407511    0.606956    11.00000    0.10312    0.06058 =
         0.07130    0.00901    0.04954    0.01499
AFIX  43
H5    2    0.098551    0.400901    0.563359    11.00000   -1.20000
AFIX   0
C6    1    0.351951    0.339928    0.564687    11.00000    0.07824    0.05407 =
         0.04387    0.00567    0.03106    0.00006
C7    1    0.258574    0.250000    0.452114    10.50000    0.05969    0.05820 =
         0.04813    0.00000    0.02318    0.00000
AFIX  13
H7    2    0.111602    0.250000    0.412883    10.50000   -1.20000
AFIX   0
C8    1    0.321077    0.250000    0.293659    10.50000    0.07510    0.04964 =
         0.04380    0.00000    0.02265    0.00000
C9    1    0.187869    0.250000    0.118672    10.50000    0.08921    0.06581 =
         0.04896    0.00000    0.01961    0.00000
AFIX  43
H9    2    0.049854    0.250000    0.090671    10.50000   -1.20000
AFIX   0
C10   1    0.259308    0.250000   -0.015414    10.50000    0.10975    0.06968 =
         0.04073    0.00000    0.01945    0.00000
AFIX  43
H10   2    0.168248    0.250000   -0.133060    10.50000   -1.20000
AFIX   0
C11   1    0.457410    0.250000    0.021394    10.50000    0.13030    0.06366 =
         0.04908    0.00000    0.04523    0.00000
AFIX  43
H11   2    0.503131    0.250000   -0.070126    10.50000   -1.20000
AFIX   0
C12   1    0.595082    0.250000    0.197990    10.50000    0.10725    0.05673 =
         0.06687    0.00000    0.05281    0.00000
PART 4
AFIX  43
H12   2    0.732673    0.250000    0.223977    20.50000   -1.20000
AFIX   0
PART 0
C13   1    0.527646    0.250000    0.333100    10.50000    0.07462    0.05016 =
         0.04597    0.00000    0.02720    0.00000
HKLF 5




REM  nt0589_lei_trip-cl_a.res in P2(1)/m
REM wR2 = 0.2080, GooF = S = 1.080, Restrained GooF = 1.081 for all data
REM R1 = 0.0664 for 1966 Fo > 4sig(Fo) and 0.0852 for all 2755 data
REM 120 parameters refined using 1 restraints

END

WGHT      0.0854      0.3870

REM Highest difference peak  0.311,  deepest hole -0.258,  1-sigma level  0.057
Q1    1   0.8865  0.2500  0.6164  10.50000  0.05    0.31
Q2    1   0.5488  0.2500 -0.2376  10.50000  0.05    0.21
Q3    1   0.6369  0.3324  0.5857  11.00000  0.05    0.20
Q4    1   0.5358  0.1990 -0.1798  11.00000  0.05    0.18
Q5    1   0.7764  0.4013  0.7337  11.00000  0.05    0.18
Q6    1  -0.0342  0.2500  0.1768  10.50000  0.05    0.17
Q7    1   0.2807  0.2500  0.3662  10.50000  0.05    0.16
Q8    1   0.8918  0.3686  0.7897  11.00000  0.05    0.16
Q9    1   0.0983  0.3778  0.7440  11.00000  0.05    0.16
Q10   1   0.1485  0.6352  0.6390  11.00000  0.05    0.15
Q11   1  -0.1246  0.2500  0.0404  10.50000  0.05    0.15
Q12   1  -0.0158  0.2012 -0.2858  11.00000  0.05    0.15
Q13   1   0.3582  0.3757  0.7872  11.00000  0.05    0.15
Q14   1   0.3957  0.2080 -0.1718  11.00000  0.05    0.15
Q15   1   0.6022  0.2900  0.6137  11.00000  0.05    0.15
Q16   1   0.8257  0.5800  0.7393  11.00000  0.05    0.14
Q17   1  -0.1660  0.1936 -0.0253  11.00000  0.05    0.14
Q18   1  -0.0163  0.2213 -0.2264  11.00000  0.05    0.14
Q19   1   0.1231  0.2227  0.1165  11.00000  0.05    0.14
Q20   1   0.4244  0.2500  0.3137  10.50000  0.05    0.14
;
_shelx_res_checksum              47608
_shelx_hkl_file
;
   0   0   1 185497. 2213.81  -2
   0   0   1 185497. 2213.81   1
   0   0   2 43991.4 595.331   1
   0   0   3 614.346 168.079   1
   0   0   4 357.091 187.494   1
   0   0   5 28473.8 813.433   1
   0   0   6 2174.71 140.650   1
   0   0   7 7547.60 238.370   1
   0   0   8 977.750 113.102   1
   0   1   1 15381.5 240.139   1
   0  -1   2 109869. 620.001   1
   0  -1   3 50043.3 789.349   1
   0  -1   4 29983.9 517.987   1
   0  -1   5 6234.90 118.864   1
   0  -1  -6 350.327 74.3270   1
   0   1   7 1174.34 83.2261   1
   0  -1  -8 1010.39 72.3300   1
   0   2   0 78784.4 1779.19   1
   0   2   1 27810.6 372.652   1
   0   2   2 280832. 4217.53   1
   0   2   3 11337.4 277.738   1
   0  -2   4 4997.71 340.824   1
   0   2   5 520.050 57.2031   1
   0  -2   6 259.622 72.7915   1
   0   2   7 4527.64 115.549   1
   0  -2  -8 1111.38 93.9219   1
   0   3   1 344045. 3387.30   1
   0  -3   2 718.126 122.715   1
   0   3   3 11183.2 290.983   1
   0  -3   4 407.124 84.6244   1
   0  -3   5 4707.02 95.1084   1
   0   3   6 324.875 72.5671   1
   0  -3   7 53.7200 84.8037   1
   0  -3  -8 12.4729 72.3067   1
   0   4   0 447862. 6143.20   1
   0   4   1 33131.4 303.625   1
   0   4  -2 14406.2 229.859   1
   0   4   3 6465.57 250.495   1
   0  -4  -4 17556.0 151.118   1
   0  -4   5 155.595 61.3426   1
   0   4   6 844.339 91.1657   1
   0  -4  -7 3015.70 201.594   1
   0  -4  -8 2268.04 106.527   1
   0   5   1 364.888 79.1671   1
   0   5   2 12975.1 224.227   1
   0   5   3 7655.79 386.497   1
   0  -5  -4 6070.53 134.217   1
   0  -5  -5 1904.31 109.419   1
   0  -5  -6 37.8288 135.415   1
   0  -5  -7 53.0355 135.012   1
   0   5   8 1316.46 89.4497   1
   0   6   0 108145. 960.978   1
   0   6   1 754.462 98.3479   1
   0   6   2 10569.9 417.643   1
   0   6   3 1107.34 73.2433   1
   0  -6  -4 105.750 71.4633   1
   0  -6  -5 325.536 132.614   1
   0  -6  -6 55.0598 132.301   1
   0  -6  -7 4329.52 214.419   1
   0   6   8 234.515 66.0361   1
   0   7   1 44104.2 473.226   1
   0   7   2 7707.07 172.783   1
   0   7   3 7009.48 128.871   1
   0  -7  -4 492.627 82.8687   1
   0  -7  -5 2936.43 193.656   1
   0  -7  -6 208.573 140.269   1
   0  -7  -7 1891.18 162.474   1
   0  -7  -8 211.695 60.4799   1
   0  -8   0 80371.8 356.045   1
   0  -8   1 3526.75 68.7570   1
   0   8   2 1968.02 71.6722   1
   0  -8   3 2163.17 91.4609   1
   0  -8  -4 1171.69 147.552   1
   0  -8  -5 565.821 142.219   1
   0  -8  -6 498.013 143.043   1
   0  -8  -7 448.030 127.882   1
   0  -9   1 666.402 49.2831   1
   0  -9  -2 1801.94 76.0082   1
   0  -9  -3 1812.85 96.2005   1
   0  -9  -4 4297.17 138.618   1
   0  -9  -5 453.202 143.148   1
   0  -9  -6 221.555 74.0628   1
   0  -9  -7 105.147 108.460   1
   0 -10   0 49336.6 359.443   1
   0 -10   1 1121.59 59.5048   1
   0 -10  -2 4019.28 102.021   1
   0 -10  -3 339.803 77.8695   1
   0 -10  -4 1540.73 105.196   1
   0 -10  -5 1164.72 97.8348   1
   0 -10  -6 357.759 71.6621   1
   0 -10  -7 1576.29 121.130   1
   0 -11  -1 1290.00 83.5262   1
   0 -11  -2 3847.60 105.787   1
   0 -11  -3 5044.98 146.749   1
   0 -11  -4 2228.05 113.607   1
   0 -11  -5 592.317 83.7186   1
   0 -11  -6 25.9886 104.454   1
   0 -12   0 36676.4 344.700   1
   0 -12   1 6021.85 131.315   1
   0 -12  -2 370.086 84.6461   1
   0 -12  -3 1402.46 104.349   1
   0 -12  -4 203.643 76.5074   1
   0 -12  -5 324.098 68.8596   1
   0 -12  -6 1037.36 113.733   1
   0 -13   1 58.6559 66.8046   1
   0 -13  -2 2310.09 115.129   1
   0 -13  -3 751.108 86.3293   1
   0 -13  -4 681.240 79.4455   1
   0 -13  -5 782.158 65.3893   1
   0 -14   0 2505.38 169.745   1
   0 -14  -1 139.755 113.234   1
   0 -14  -2 1406.96 96.8217   1
   0 -14  -3 186.148 70.4131   1
   0 -14  -4 49.7739 56.1174   1
   0 -15  -1 2301.95 148.988   1
   0 -15  -2 883.317 119.081   1
   0 -15  -3 116.489 90.7028   1
   0  16   0 1118.33 104.803   1
   0  16  -1 331.825 87.3755   1
  -1   0   9 587.984 97.5222   1
   1   0  -8 35.1666 77.8905   1
  -1   0   7 28.5418 126.438   1
  -1   0   6 125.445 67.8246   1
  -1   0   5 157.397 72.4617   1
  -1   0   4 36144.7 818.194   1
  -1   0   3 42476.1 728.898   1
  -1   0   2 65366.1 697.558   1
  -1   0   1 175734. 2961.40   1
   1   0   0 339376. 3951.28   1
   1   0   1 3105.32 97.3335   1
   1   0   2 80.6017 76.6887   1
   1   0   3 31692.9 615.782   1
   1   0   4 294.062 170.986   1
   1   0   5 3117.68 96.2813   1
  -1   0  -6 8829.51 174.601   1
  -1   0  -7 96.7778 114.369   1
  -1   1   9 0.90223 86.0302   1
  -1  -1   8 690.031 77.3005   1
  -1  -1   7 5044.50 158.010   1
  -1  -1   6 2328.26 95.5050   1
  -1  -1   5 10116.6 114.790   1
  -1  -1   4 5945.84 260.880   1
  -1  -1   3 6119.93 303.287   1
  -1  -1   2 157147. 3765.00  -2
  -1  -1   2 157147. 3765.00   1
  -1  -1   1 4380.73 154.935   1
   1   1   0 11871.8 252.968   1
   1   1   1 8238.47 103.195   1
   1   1   2 936.534 103.454   1
   1   1   3 31983.2 357.026   1
   1  -1   4 2616.93 105.132   1
   1  -1   5 199.274 80.7982   1
   1   1   6 269.753 86.0663   1
  -1  -1  -7 784.384 98.8788   1
  -1  -1  -8 371.161 106.803   1
  -1   2   9 483.802 95.0808   1
  -1   2   8 2321.94 94.1235   1
  -1   2   7 1982.91 97.6191   1
  -1  -2   6 28613.3 258.473   1
  -1   2   5 94.2122 40.6426   1
  -1  -2   4 11007.5 485.531   1
  -1  -2   3 34824.2 824.362  -2
  -1  -2   3 34824.2 824.362   1
  -1  -2   2 308210. 4754.28  -2
  -1  -2   2 308210. 4754.28   1
   1   2  -1 19257.6 349.567   1
   1   2   0 38087.5 476.690   1
   1   2   1 408.798 142.206   1
   1   2   2 21894.5 322.782   1
   1   2   3 28968.1 433.015   1
   1  -2   4 2648.31 90.6120   1
   1  -2   5 12741.1 178.594   1
  -1  -2  -6 771.948 149.842   1
  -1   2  -7-3.09614 83.9035   1
  -1  -2  -8 755.438 115.406   1
  -1   3   9-47.7229 81.6390   1
   1  -3  -8 1259.94 100.604   1
   1  -3  -7 112.330 89.2262   1
   1  -3  -6 8712.90 163.846   1
  -1  -3   5 5469.85 94.5409   1
  -1  -3   5 8063.68 207.872  -2
  -1  -3   5 8063.68 207.872   1
  -1  -3   4 58328.2 1104.46   1
  -1  -3   3 19070.7 598.783  -2
  -1  -3   3 19070.7 598.783   1
  -1  -3   2 85268.7 1052.33  -2
  -1  -3   2 85268.7 1052.33   1
  -1   3   1 150172. 1010.23   1
   1   3   0 6484.71 248.773   1
   1   3   1 36904.0 569.321   1
   1   3   2 216.080 161.920   1
   1  -3   3 8560.92 265.574   1
   1  -3   4 548.040 75.0353   1
   1  -3   5 6600.39 143.022   1
  -1  -3  -6 1162.83 161.718   1
  -1  -3  -7 50.1932 72.7933   1
  -1  -3  -8 1055.71 118.175   1
  -1   4   9 2444.66 121.541   1
   1  -4  -8 762.603 91.0268   1
   1  -4  -7 119.703 126.891   1
  -1  -4   6 4062.84 103.351   1
  -1  -4   5 4539.27 117.462   1
  -1  -4   5 7085.72 246.153  -2
  -1  -4   5 7085.72 246.153   1
  -1  -4   4 102998. 1510.05   1
  -1  -4   4 139429. 512.904  -2
  -1  -4   4 139429. 512.904   1
  -1  -4   3 76053.5 1105.22  -2
  -1  -4   3 76053.5 1105.22   1
  -1   4   2 1649.09 124.108   1
   1   4  -1 5195.53 159.499   1
   1   4   0 39403.1 301.228   1
   1   4   1 13212.0 393.256   1
   1   4   2 36038.9 701.871   1
   1   4   3 53296.5 392.825   1
   1   4   4 3125.95 107.827   1
   1   4   5 3844.15 129.418   1
  -1  -4  -6 2659.01 140.105   1
  -1  -4  -7 244.338 76.3662   1
  -1  -4  -8 193.228 95.0678   1
  -1   5   8 3549.43 124.251   1
   1  -5  -7 201.404 125.343   1
   1  -5  -6 12090.5 192.672   1
   1  -5  -5 27562.2 271.059   1
   1  -5  -4 1978.39 129.445   1
   1   5  -4 2649.57 273.733  -2
   1   5  -4 2649.57 273.733   1
   1   5  -3 52994.5 788.784   1
   1   5  -2 142.934 91.9408   1
  -1   5   1 80499.1 577.703   1
  -1   5   0 9763.39 183.796   1
   1   5   1 2957.67 235.492   1
   1   5   2 4119.25 297.199   1
   1   5   3 9964.94 124.894   1
  -1  -5  -4 833.440 85.9518   1
   1  -5   5 86.8699 83.0421   1
  -1  -5  -6-52.1988 139.892   1
   1   5   7 2710.14 113.289   1
  -1  -5  -8 1666.47 110.604   1
   1  -6  -8 1085.72 89.8500   1
   1  -6  -7 220.196 120.932   1
  -1   6   6 28082.2 298.125   1
  -1   6   5 22745.1 260.451   1
   1  -6  -4 10088.9 236.899   1
   1  -6  -3 880.480 88.8636   1
   1   6  -2 11376.2 270.182   1
   1   6  -1 8010.15 214.319   1
   1   6   0 5127.46 158.746   1
   1   6   1 28908.3 670.268   1
   1   6   2 2979.71 291.509   1
  -1  -6  -3 6661.57 134.994   1
   1   6   4 158.081 78.0690   1
  -1  -6  -5 5343.32 153.456   1
  -1  -6  -6 7672.57 278.892   1
  -1  -6  -7 302.611 123.545   1
   1  -7  -8 788.950 78.8398   1
   1  -7  -7 157.105 122.676   1
   1  -7  -6 5094.14 145.952   1
  -1   7   5 357.327 87.8711   1
   1  -7  -4 1008.57 128.164   1
   1  -7  -3 183.314 61.4007   1
   1  -7  -2 12254.2 179.824   1
   1   7  -1 25325.3 386.571   1
   1   7   0 5136.70 315.348   1
   1   7   1 2999.33 124.607   1
  -1  -7  -2 4821.59 108.816   1
   1  -7   3 721.495 78.7527   1
   1   7   4 4034.21 131.098   1
   1  -7   5 65.7921 92.7901   1
  -1  -7  -6 1275.03 162.333   1
  -1  -7  -7 264.945 105.620   1
   1  -8  -8 25.4056 60.2440   1
   1  -8  -7-78.9404 114.796   1
  -1   8   6 4074.86 135.660   1
   1  -8  -5-11.1511 70.0713   1
   1  -8  -4 5505.23 210.197   1
   1  -8  -3 16917.8 203.088   1
  -1  -8   2 1320.22 49.8906   1
  -1  -8   1 1721.60 59.5841   1
   1  -8   0 31079.4 196.844   1
   1   8   1 125.993 63.8697   1
  -1  -8  -2 16811.8 162.026   1
   1   8   3 9070.01 162.790   1
  -1  -8  -4 1426.23 102.735   1
  -1  -8  -5 4541.79 231.632   1
  -1  -8  -6 54.8344 119.766   1
  -1  -8  -7 11.3228 89.4395   1
   1  -9  -7 2685.05 154.165   1
   1  -9  -6 317.268 80.5585   1
   1  -9  -5 7450.47 161.013   1
   1  -9  -4 8372.18 167.136   1
   1  -9  -3 277.132 71.5474   1
  -1  -9   2 1465.14 61.3521   1
   1  -9  -1 7796.17 98.4512   1
   1  -9   0 56.4783 42.1214   1
   1  -9   1 2968.11 86.0845   1
   1   9   2 4197.43 111.145   1
  -1  -9  -3 8642.41 165.572   1
   1  -9   4 1489.23 111.166   1
  -1  -9  -5 3001.82 201.869   1
  -1  -9  -6 61.6640 70.1405   1
  -1  -9  -7 47.2660 77.1096   1
   1 -10  -7 263.815 97.8695   1
   1 -10  -6 872.878 136.744   1
   1 -10  -5 227.764 75.1247   1
   1 -10  -4 51.6304 74.9497   1
   1 -10  -3 172.887 74.3652   1
   1 -10  -2 15364.6 174.549   1
  -1 -10   1 25865.6 186.677   1
   1  10   0 2338.42 71.8398   1
   1 -10   1 231.699 59.5048   1
  -1 -10  -2 74.5745 71.2112   1
  -1 -10  -3 12630.6 169.911   1
  -1 -10  -4 2264.31 122.135   1
  -1 -10  -5 108.742 81.5827   1
   0 -11  -6 703.308 98.6725  -2
  -1 -10  -6 703.308 98.6725   1
   1 -11  -7 489.859 86.9280   1
   1 -11  -6 458.162 113.934   1
   1 -11  -5 607.480 90.8327   1
   1 -11  -4 1254.07 95.3903   1
   1 -11  -3 2913.35 120.309   1
  -1 -11   2 6734.29 131.653   1
   1 -11  -1 1457.20 69.7235   1
   1 -11   0 1829.49 87.5979   1
   1 -11   1 996.739 75.2941   1
  -1 -11  -2 164.690 82.5270   1
  -1 -11  -3 1415.03 107.785   1
  -1 -11  -4 354.889 89.1277   1
  -1 -11  -5 58.2583 72.4885   1
   0 -12  -6 242.865 118.600  -2
  -1 -11  -6 242.865 118.600   1
   1 -12  -6 852.097 108.912   1
  -1  12   5 13.4382 69.1936   1
   1 -12  -4 210.290 75.5576   1
   1 -12  -3 143.388 76.3457   1
   1 -12  -2 253.296 79.3464   1
  -1 -12   1 422.794 59.6704   1
   1 -12   0 15714.2 195.050   1
   1 -12   1 227.339 72.2083   1
  -1 -12  -2 2454.01 122.602   1
  -1 -12  -3 121.327 82.9063   1
  -1 -12  -4 200.886 76.1859   1
  -1 -12  -5 1906.88 90.0900   1
   1 -13  -5 418.169 108.542   1
  -2  13   5 458.390 136.172  -2
  -1  13   5 458.390 136.172   1
   1 -13  -4 746.656 76.7464   1
   1 -13  -3 129.430 74.6250   1
   1 -13  -2 503.214 85.3286   1
  -1 -13   1 35.5137 82.7148   1
   1 -13   0 2545.02 96.6229   1
  -1 -13  -1 336.982 70.2803   1
  -1 -13  -2 178.981 78.5550   1
  -1  13  -3 732.561 68.5900   1
  -1 -13  -4 452.487 72.7437   1
   1 -14  -5 164.030 84.8445   1
   1 -14  -4 152.184 97.9328   1
   1 -14  -3 284.580 113.122   1
  -1  14   2 1708.63 101.872   1
   1 -14  -1 323.217 124.184   1
  -1 -14   0 217.802 81.7896   1
  -1 -14  -1 201.573 72.7534   1
  -1 -14  -2 311.376 74.1563   1
  -1  14  -3 772.462 60.4944   1
  -1 -14  -4 231.008 78.2320   1
   1 -15  -3-27.7139 90.1077   1
   1 -15  -2 0.38460 61.0982   1
   1 -15  -1 4531.18 128.495   1
  -1  15   0 557.397 108.331   1
  -1 -15  -1 393.119 69.2629   1
  -1  15  -2 12.6275 45.7002   1
  -1 -15  -3 160.627 71.0484   1
   1 -16  -2 18.3829 80.8721   1
  -1  16   1 110.616 77.4462   1
  -1  16   0 265.544 85.0053   1
  -1  16  -1 689.734 88.9913   1
  -2   0   9 1038.10 135.424   1
  -2   0   8 850.061 84.4782   1
  -2   0   7 5210.09 142.530   1
  -2   0   6 6563.07 141.216   1
  -2   0   5 3694.57 98.4636   1
  -2   0   4 10698.6 447.556   1
  -2   0   3 195.114 158.036   1
  -2   0   2 4112.65 195.698   1
  -2   0   1 69854.0 423.307   1
   2   0   0 45995.2 507.153   1
   2   0   1 17639.1 191.984   1
   2   0   2 79922.7 539.787   1
   2   0   3 838.392 106.711   1
   2   0   4 1600.95 91.5780   1
   2   0   5 2547.40 152.693   1
  -2   0  -6 3218.57 202.453   1
  -2   0  -7 9242.52 237.609   1
  -2   1   9 464.848 119.757   1
  -2  -1   8 220.999 93.9009   1
  -2  -1   7 2431.73 81.7892   1
  -2   1   6 3162.05 77.1834   1
  -2  -1   5 3049.01 69.0635   1
  -2   1   4 1490.64 156.895   1
  -2   1   3 11519.0 271.235   1
  -2  -1   2 7716.13 259.725   1
   2   1  -1 11149.5 326.155   1
   2  -1   0 14646.0 208.247   1
   2  -1   1 3496.85 124.181   1
   2   1   2 9194.17 137.925   1
   2   1   3 5886.87 106.380   1
   2   1   4 5300.48 110.082   1
   2  -1   5 4128.63 141.230   1
  -2   1  -6 857.659 106.647   1
  -2  -1  -7 79.0236 73.5996   1
  -2   2   9 627.195 124.580   1
  -2  -2   8 111.981 95.8185   1
  -2   2   7 8897.42 110.526   1
  -2   2   6 7015.66 99.7786   1
  -2   2   5 2852.47 68.3467   1
  -2  -2   4 1708.51 236.815   1
  -2  -2   3 46333.4 726.563  -2
  -2  -2   3 46333.4 726.563   1
  -2  -2   2 2167.72 181.412   1
   2   2  -1 2386.18 206.951   1
   2   2   0 20853.8 222.110   1
   2   2   1 11985.5 399.114   1
   2   2   2 12718.0 433.227   1
   2  -2   3 18343.9 171.851   1
  -2  -2  -4 3505.79 100.632   1
   2  -2   5 1615.96 115.095   1
  -2  -2  -6 421.845 136.689   1
  -2  -2  -7 237.937 62.1081   1
  -2   3   9 799.194 123.415   1
  -2   3   8 2779.34 195.418   1
  -2   3   7 1746.79 75.3891   1
  -2  -3   6 285.829 46.8407   1
   2  -3  -5 2093.28 72.0589   1
  -2  -3   5 2893.75 122.513  -2
  -2  -3   5 2893.75 122.513   1
  -2  -3   4 12135.6 603.572  -2
  -2  -3   4 12135.6 603.572   1
  -2  -3   3 82947.6 1032.95  -2
  -2  -3   3 82947.6 1032.95   1
   2   3  -2 712.583 171.707   1
   2   3  -1 3755.20 238.711   1
   2  -3   0 16470.4 163.344   1
   2   3   1 454.046 192.414   1
   2   3   2 360.658 186.834   1
   2  -3   3 7490.91 109.968   1
   2  -3   4 7476.88 124.617   1
   2  -3   5 2936.43 134.883   1
  -2  -3  -6 733.522 99.3136   1
  -2  -3  -7 1167.17 92.7020   1
  -2   4   9 138.593 103.559   1
  -2   4   8 106.784 78.7896   1
   2  -4  -7 8446.09 158.396   1
  -2   4   6 4171.94 100.902   1
  -2  -4   6 5934.11 241.724  -2
  -2  -4   6 5934.11 241.724   1
   2  -4  -5 4487.31 97.8080   1
  -2  -4   5 6238.03 181.363  -2
  -2  -4   5 6238.03 181.363   1
  -2   4   4 9907.16 216.285   1
  -2  -4   4 12499.2 215.679  -2
  -2  -4   4 12499.2 215.679   1
   2   4  -3 6040.63 332.088   1
   2   4  -2 4137.75 274.509   1
   2   4  -1 40961.8 704.263   1
   2   4   0 8202.25 372.820   1
   2   4   1 1331.43 238.834   1
   2   4   2 23640.6 685.400   1
   2   4   3 4281.37 81.6494   1
   2  -4   4 908.406 73.3080   1
   2  -4   5 4827.49 159.371   1
  -2  -4  -6 185.134 128.632   1
  -2   4  -7 674.606 81.3227   1
  -2   5   9 1123.13 120.374   1
  -2   5   8 2375.95 108.648   1
   2  -5  -7 1704.08 143.647   1
  -2   5   6 24331.9 214.602   1
  -2   5   5 91.0913 59.9760   1
   2   5  -5 213.074 268.112  -2
   2   5  -5 213.074 268.112   1
   2  -5  -4 155.307 85.3780   1
   2   5  -4 284.449 116.782  -2
   2   5  -4 284.449 116.782   1
   2   5  -3 15267.7 516.918   1
   2   5  -2 52775.9 864.204   1
   2   5  -1 36190.9 733.376   1
   2   5   0 732.037 227.440   1
   2   5   1 2761.99 291.610   1
   2   5   2 1237.53 120.197   1
  -2  -5  -3 1182.12 75.2348   1
  -2  -5  -4 796.795 76.2116   1
   2  -5   5 40.3061 91.5115   1
  -2  -5  -6 1111.03 146.220   1
  -2   5  -7 414.654 71.9779   1
  -2   6   9 230.656 95.3414   1
  -2   6   8 2967.07 111.353   1
   2  -6  -7 826.563 128.568   1
  -2   6   6 27019.7 230.322   1
   2  -6  -5 48710.3 303.878   1
   2   6  -4 2402.93 118.460   1
   2  -6  -3 175.188 79.0176   1
   2   6  -2 13849.8 510.684   1
   2   6  -1 6003.86 372.617   1
   2   6   0 49507.0 960.461   1
   2   6   1 22082.4 279.723   1
   2   6   2 16736.6 187.771   1
  -2  -6  -3 767.956 85.6171   1
   2  -6   4 442.575 89.2613   1
   2  -6   5 1658.61 117.648   1
  -2  -6  -6-23.4829 111.414   1
  -2  -6  -7 140.128 84.8458   1
  -2   7   8 3141.39 109.095   1
   2  -7  -7 1007.90 93.6415   1
  -2   7   6 6462.93 129.665   1
  -2   7   5 1445.68 100.787   1
   2   7  -4 380.061 93.0104   1
   2   7  -3 34082.3 346.690   1
   2   7  -2 4498.81 142.764   1
   2  -7  -1 11902.6 205.083   1
   2  -7   0 33277.8 334.225   1
   2  -7   1 653.130 71.2720   1
   2   7   2 3024.37 107.517   1
   2   7   3 1911.07 105.381   1
   2  -7   4 2179.00 124.783   1
   2  -7   5 1570.96 117.389   1
  -2  -7  -6 335.038 109.634   1
  -2   8   8 280.339 65.8949   1
  -2   8   7 7926.49 161.306   1
   2  -8  -6 405.168 70.4108   1
  -2   8   5 33.1595 80.7133   1
   2  -8  -4 8200.36 237.100   1
   2   8  -3 1363.92 80.5903   1
   2  -8  -2 3942.82 81.9163   1
   2   8  -1 1834.28 64.6303   1
   2  -8   0 2168.09 90.0752   1
   2   8   1 2729.53 82.7167   1
   2   8   2 4613.59 127.174   1
   2   8   3 5857.32 149.670   1
   2  -8   4 1948.95 120.850   1
   2  -8   5 207.205 88.6122   1
  -2  -8  -6 209.928 94.4004   1
  -3   9   8 127.380 124.306  -2
  -2   9   8 127.380 124.306   1
  -2   9   7 3039.33 108.875   1
  -2   9   6 192.726 87.2653   1
   2  -9  -5 122.087 81.2600   1
   2  -9  -4 3770.56 188.425   1
  -2   9   3 1984.62 77.4413   1
  -2  -9   2 2693.41 78.6532   1
   2  -9  -1 123.410 63.9832   1
   2  -9   0 981.012 80.6276   1
   2   9   1 2348.23 85.6405   1
   2  -9   2 1867.34 98.8493   1
  -2  -9  -3 112.388 64.0341   1
   2  -9   4 1600.60 112.258   1
  -2  -9  -5 641.712 121.480   1
  -2  -9  -6 37.2742 55.6657   1
   2 -10  -7 352.105 99.4689   1
  -2  10   6 2757.63 119.585   1
  -2  10   5 377.418 83.5465   1
   2 -10  -4 11169.9 292.471   1
   2 -10  -3 3354.92 95.9748   1
   2 -10  -2 2270.94 83.0008   1
   2  10  -1 1029.73 83.8924   1
   2  10   0 413.596 77.0053   1
  -2 -10  -1 131.872 63.2366   1
  -2 -10  -2 7809.74 119.930   1
  -2 -10  -3 1780.90 84.4517   1
  -2 -10  -4 46.8372 66.3374   1
  -2 -10  -5 323.231 72.4887   1
   2 -11  -7 659.450 92.0301   1
  -2  11   6 570.439 80.3466   1
  -2  11   5 850.555 90.7284   1
   2 -11  -4 610.767 136.773   1
  -2  11   3 223.762 59.3527   1
   2 -11  -2 1481.15 155.670   1
   2 -11  -1 525.141 88.2657   1
   2  11   0 1755.20 104.129   1
  -2 -11  -1 254.818 82.4190   1
  -2  11  -2 874.185 76.9924   1
   2 -11   3 496.901 58.9481   1
  -2 -11  -4 132.009 105.967   1
  -1 -12  -4 222.678 143.420  -2
  -2 -11  -4 222.678 143.420   1
  -2 -11  -5 281.448 62.6374   1
   2 -12  -6 223.962 64.9656   1
  -2  12   5 84.9073 81.6977   1
   2 -12  -4 726.649 136.691   1
  -2  12   3 478.496 88.3357   1
  -2  12   2 1490.43 108.297   1
   2 -12  -1 79.0524 78.0921   1
   2 -12   0 2099.06 120.694   1
  -2 -12  -1 4020.28 141.450   1
  -2  12  -2 786.386 74.4843   1
  -2  12  -3 27.2598 56.9344   1
  -1 -13  -4 173.686 90.1345  -2
  -2 -12  -4 173.686 90.1345   1
  -2  13   5 358.905 76.1919   1
  -2  13   4 539.477 81.7553   1
   2 -13  -3 4460.82 202.633   1
   2 -13  -2 1792.64 109.359   1
  -2 -13   1 514.516 70.8799   1
  -2 -13   0 360.601 71.4948   1
  -2 -13  -1 992.347 96.3332   1
  -2  13  -2 477.035 79.6165   1
  -2 -13  -3 67.2774 50.5604   1
  -1 -14  -4 809.530 120.324  -2
  -2 -13  -4 809.530 120.324   1
   2 -14  -5 627.436 89.9660   1
   2 -14  -4 163.588 96.1891   1
   2 -14  -3 94.6815 104.675   1
   2 -14  -2 293.504 76.6345   1
   2 -14  -1 1668.99 105.434   1
  -2  14   0 1530.34 96.2456   1
  -2  14  -1 58.5462 68.8457   1
  -2  14  -2 765.633 77.2055   1
  -2 -14  -3 532.725 88.2750   1
   2 -15  -3 207.464 86.8551   1
  -2  15   2 386.873 69.7494   1
   2 -15  -1 335.533 73.3057   1
  -2  15   0 47.0409 92.5416   1
  -2  15  -1 453.925 95.5300   1
  -2 -15  -2-22.4948 71.8463   1
  -3   0   9 1635.39 143.163   1
  -3   0   8 572.884 87.6345   1
  -3   0   7 10030.8 193.770   1
  -3   0   6 163.210 71.5423   1
  -3   0   5 28673.1 244.387   1
  -3   0   4 22793.7 604.487   1
  -3   0   3 472.759 143.518   1
  -3   0   2 8209.35 222.477   1
   3   0  -1 3252.76 229.830   1
   3   0   0 7470.87 270.403   1
   3   0   1 86659.1 872.018   1
   3   0   2 342.906 119.559   1
   3   0   3 1861.63 154.040   1
   3   0   4 1853.07 112.931   1
  -3   0  -5 2106.09 177.742   1
  -3   0  -6 10864.7 281.744   1
  -3   0  -7 1828.68 80.5744   1
  -3   1   9 103.669 110.882   1
  -3   1   8 683.703 64.2192   1
  -3   1   7 4720.56 103.194   1
  -3  -1   6 13363.4 137.943   1
  -3   1   5 6094.16 81.7118   1
  -3  -1   4 1868.16 161.281   1
  -3   1   3 9879.99 244.608   1
  -3   1   2 640.539 77.1729   1
   3  -1  -1 7220.15 209.844   1
   3   1   0 19299.8 288.325   1
   3   1   1 3494.69 237.421   1
   3   1   2 9915.49 149.766   1
   3   1   3 10415.2 189.022   1
   3   1   4 4289.98 103.451   1
   3  -1   5 2219.15 117.665   1
  -3   1  -6 30.6417 84.1887   1
  -3  -1  -7 212.553 59.4219   1
  -3   2   9 4426.17 183.831   1
  -3  -2   8 2598.09 82.8368   1
  -3   2   7 22.0802 58.9300   1
  -3  -2   6 317.355 62.7002   1
  -3  -2   5 8428.00 106.287   1
  -3  -2   4 31119.5 194.074   1
  -3   2   3 25471.1 386.066   1
   3   2  -2 7361.34 363.018   1
   3   2  -1 97477.0 1064.20   1
   3  -2   0 5862.82 159.028   1
   3   2   1 4868.76 293.926   1
   3   2   2 1474.13 71.9829   1
   3   2   3 2705.19 99.3956   1
  -3  -2  -4 6338.51 120.460   1
  -3  -2  -5 3432.85 134.489   1
  -3  -2  -6 1293.02 100.059   1
  -3   3   9 1288.31 129.629   1
  -3   3   8 36.8560 74.8218   1
  -3   3   7 3294.17 93.3052   1
  -3  -3   6 257.885 55.7139   1
  -3   3   5 2771.91 74.7419   1
  -3  -3   4 36295.4 191.907   1
   3   3  -3 17999.9 700.475   1
   3   3  -2 963.263 205.685   1
   3   3  -1 1087.84 210.903   1
   3   3   0 10525.5 414.306   1
   3   3   1 3370.52 288.171   1
   3   3   2 607.511 63.4952   1
   3   3   3 15512.2 172.288   1
   3  -3   4 571.146 81.2725   1
   3  -3   5 1838.99 115.574   1
  -3   3  -6 164.450 76.6094   1
  -3   4   9 244.063 100.083   1
  -3   4   8 255.636 75.0063   1
  -3   4   7 5592.73 151.592   1
  -3   4   6 534.900 89.0388   1
  -3  -4   6 703.216 169.854  -2
  -3  -4   6 703.216 169.854   1
  -3   4   5 421.417 78.0272   1
  -3  -4   5 588.405 153.045  -2
  -3  -4   5 588.405 153.045   1
  -3   4   4 1367.50 90.0039   1
   3   4  -3 3960.45 325.113   1
   3   4  -2 32101.2 723.171   1
   3   4  -1 26915.0 659.999   1
   3   4   0 697.549 200.807   1
  -3  -4  -1 5279.17 112.982   1
   3   4   2 5605.55 104.841   1
   3   4   3 8538.90 136.786   1
   3  -4   4 546.077 79.3961   1
   3  -4   5 13.8478 71.5205   1
  -3  -4  -6 780.483 117.524   1
  -3   5   9 259.428 98.1258   1
  -3   5   8 1012.35 82.7623   1
  -3   5   7 1191.91 103.514   1
  -3   5   6 2157.50 120.004   1
   3   5  -6 2506.60 449.783  -2
   3   5  -6 2506.60 449.783   1
  -3   5   5 377.731 88.5155   1
   3   5  -5 807.625 152.616  -2
   3   5  -5 807.625 152.616   1
  -3  -5   4 3.54953 83.6032   1
  -3  -5   3 14976.0 227.708   1
   3   5  -2 298.720 188.401   1
   3   5  -1 345.381 189.190   1
   3   5   0 8566.12 187.637   1
  -3   5  -1 6832.62 124.618   1
  -3   5  -2 9678.67 100.764   1
   3  -5   3 569.919 64.0191   1
  -3  -5  -4 872.183 85.5402   1
   3  -5   5 157.494 83.6786   1
  -3  -5  -6 257.596 100.563   1
  -3   6   9 62.1137 49.4898   1
  -3   6   8 1880.44 139.812   1
  -3   6   7 389.642 88.9391   1
   3  -6  -6 1609.04 89.5299   1
   3  -6  -5 1000.05 73.5574   1
   3   6  -4 8597.33 181.039   1
  -3   6   3 396.062 60.5740   1
  -3   6   2 1230.15 73.8585   1
   3   6  -1 8589.97 134.748   1
   3   6   0 1108.60 76.1097   1
   3   6   1 973.062 102.902   1
  -3   6  -2 3905.69 111.191   1
  -3  -6  -3 270.776 81.6770   1
   3  -6   4-3.84890 85.2692   1
   3  -6   5 471.068 86.6458   1
  -3  -6  -6 482.283 93.5634   1
  -3   7   8 178.433 101.581   1
  -3   7   7 383.399 87.1011   1
  -3   7   6 625.832 76.3625   1
   3   7  -5 104.144 77.1762   1
   3  -7  -4 2173.83 122.552   1
  -3   7   3 614.245 69.3033   1
  -3   7   2 162.668 62.2463   1
  -3  -7   1 2405.28 73.2167   1
  -3   7   0 468.706 73.7752   1
  -3   7  -1 551.885 104.448   1
  -3   7  -2 2007.95 133.493   1
  -3  -7  -3 4136.97 141.708   1
  -3  -7  -4 365.610 87.8245   1
   3  -7   5 404.452 78.1520   1
  -3   8   8 1317.76 116.010   1
  -3   8   7 996.037 92.7853   1
  -3   8   6 741.997 77.3738   1
   3  -8  -5 137.367 86.3858   1
   3   8  -4 2728.88 141.377   1
  -3   8   3 1930.28 92.3905   1
  -3   8   2 1443.32 85.5337   1
  -3   8   1 12941.8 151.022   1
  -3   8   0 178.971 74.2292   1
  -3   8  -1 475.212 104.555   1
  -3   8  -2 280.709 79.7558   1
   3  -8   3 50.1073 81.0993   1
  -3  -8  -4 1475.08 106.741   1
   3  -8   5 69.7867 64.1739   1
  -3   9   8 56.8761 69.0071   1
  -3   9   7 1541.10 93.0451   1
  -3   9   6 4529.55 117.690   1
   3  -9  -5 864.160 97.6478   1
   3  -9  -4 878.906 133.605   1
  -3   9   3 7744.66 157.192   1
  -3   9   2 54.4947 56.1405   1
  -3   9   1 859.669 69.3502   1
  -3   9   0 1457.89 81.2735   1
   3   9   1 530.728 82.0381   1
  -3   9  -2 2754.18 121.946   1
  -3  -9  -3 2428.18 116.696   1
   3  -9   4 136.954 73.1893   1
  -3  -9  -5 178.926 74.1474   1
   3 -10  -7 954.619 78.1643   1
  -3  10   6 1048.16 76.8231   1
   3 -10  -5 117.287 84.7905   1
   3 -10  -4 3793.76 189.022   1
  -3  10   3 3198.78 125.903   1
  -3  10   2 5960.59 120.689   1
  -3  10   1 3470.91 103.262   1
   3  10   0 647.924 74.4160   1
  -3  10  -1 3064.86 131.098   1
  -3  10  -2 230.309 67.7638   1
  -3 -10  -3 112.728 80.3500   1
  -3 -10  -4 54.1608 67.4675   1
  -3 -10  -5 961.663 91.4831   1
  -3  11   7 344.334 97.8514   1
  -3  11   6 921.165 55.7495   1
   3 -11  -5 1801.99 110.554   1
   3 -11  -4 1608.18 151.671   1
   3 -11  -3 1747.04 110.634   1
  -3  11   2 27.6007 61.0402   1
  -3  11   1 271.387 69.7497   1
  -3  11   0 620.725 93.8134   1
  -3  11  -1 768.471 98.3152   1
  -3  11  -2 1152.62 98.9526   1
  -3 -11  -3 1901.66 99.9146   1
  -3 -11  -4 884.098 102.769   1
   3 -12  -6 102.025 63.2958   1
  -3  12   5 32.8966 60.1278   1
   3 -12  -4 2063.97 154.464   1
   3 -12  -3 188.710 79.9554   1
  -3  12   2 171.101 81.8862   1
  -3  12   1 4089.73 115.440   1
  -3  12   0 2096.37 116.714   1
  -3  12  -1 218.663 82.2289   1
  -3 -12  -2 224.894 75.1092   1
  -3 -12  -3 34.0110 85.4716   1
  -3  13   5 85.3282 52.1095   1
  -3  13   4 105.417 75.0903   1
  -3  13   3 399.506 78.2339   1
  -3  13   2 321.471 82.4784   1
  -3  13   1 732.807 72.5365   1
  -3  13   0 158.440 74.9110   1
  -3  13  -1 170.853 71.6579   1
  -3  13  -2 78.6217 92.2275   1
  -2 -14  -2 332.645 128.007  -2
  -3 -13  -2 332.645 128.007   1
  -3 -13  -3 861.150 89.2963   1
   3 -14  -4 117.112 60.7602   1
   3 -14  -3 200.313 104.438   1
  -3  14   2 852.799 85.2837   1
  -3  14   1 1346.67 138.832   1
  -3  14   0 76.2052 62.4479   1
  -3 -14  -1 36.5136 59.3715   1
  -2 -15  -2-43.5545 96.1438  -2
  -3 -14  -2-43.5545 96.1438   1
   3 -15  -3 1995.32 115.862   1
  -3  15   2 77.8760 78.6413   1
  -3  15   1 525.366 99.6344   1
  -3  15   0 69.8856 80.7260   1
  -4   0   9 411.244 96.5582   1
  -4   0   8 2138.27 116.097   1
  -4   0   7 33.1896 59.9213   1
  -4   0   6 3267.84 95.3735   1
  -4   0   5 4403.78 92.3343   1
  -4   0   4 9853.51 144.160   1
  -4   0   3 13456.4 171.797   1
   4   0  -2 6165.39 353.319   1
  -4   0   1 15.4429 61.4272   1
   4   0   0 715.243 73.8337   1
  -4   0  -1 3760.72 107.071   1
   4   0   2 7402.24 230.358   1
   4   0   3 1865.71 160.122   1
   4   0   4 1453.72 112.509   1
  -4   0  -5 541.936 127.740   1
  -4   0  -6 177.944 59.5994   1
  -4   1   9 1231.41 84.8316   1
  -4  -1   8 620.338 55.6373   1
  -4   1   7 9348.12 120.487   1
  -4  -1   6 10462.0 112.716   1
  -4  -1   5 1626.62 49.1010   1
  -4   1   4 903.133 40.0873   1
  -4  -1   3 3419.34 79.8090   1
  -4   1   2 6188.57 115.068   1
   4  -1  -1 3135.06 73.4002   1
  -4   1   0 245.014 43.3397   1
   4   1   1 795.349 55.6664   1
   4  -1   2 2781.58 97.2714   1
   4   1   3 1693.00 92.4533   1
  -4  -1  -4 112.601 58.4717   1
  -4   1  -5 270.012 85.7366   1
  -4   1  -6 91.3702 83.7999   1
  -4   2   9 2516.08 76.0263   1
  -4   2   8 190.919 54.5089   1
  -4  -2   7 4147.40 102.046   1
  -4   2   6 86.3424 53.5226   1
  -4   2   5 3596.88 62.9146   1
  -4  -2   4 873.104 41.5943   1
   4   2  -3 1126.99 59.1797   1
  -4   2   2 9873.10 147.954   1
   4  -2  -1 10764.8 149.093   1
   4   2   0 10909.6 124.502   1
   4   2   1 1076.35 55.9746   1
   4   2   2 3722.07 105.561   1
   4  -2   3 678.995 76.9380   1
   4  -2   4 651.783 75.3776   1
   4  -2   5 397.431 65.4933   1
  -4   2  -6 747.581 96.8937   1
  -4   3   9 1934.93 69.4420   1
  -4   3   8 828.503 71.0198   1
  -4   3   7 810.567 78.9877   1
  -4   3   6 1491.55 71.5375   1
  -4  -3   5 171.517 60.2924   1
  -4   3   4 317.726 42.7052   1
  -4   3   3 3541.01 71.1620   1
   4   3  -2 1258.80 76.0793   1
   4  -3  -1 9124.41 149.810   1
   4   3   0 385.903 55.3931   1
  -4  -3  -1 41.4081 45.4153   1
   4  -3   2 13975.6 171.304   1
   4   3   3 1371.12 88.4655   1
  -4  -3  -4 1098.14 82.1849   1
   4  -3   5 332.956 61.4481   1
  -4   3  -6 426.612 86.7294   1
  -4   4   9 374.519 48.2546   1
  -4   4   8 361.811 80.0970   1
  -4   4   7 2437.66 98.5511   1
  -4   4   6 685.292 64.3369   1
   4   4  -6 1113.84 373.075  -2
   4   4  -6 1113.84 373.075   1
  -4   4   5 462.545 62.9055   1
   4   4  -4 2027.95 58.3446   1
   4   4  -3 13551.3 174.121   1
   4   4  -2 3300.06 100.755   1
   4   4  -1 481.824 72.4049   1
   4   4   0 2739.14 80.6202   1
   4   4   1 3950.20 81.0275   1
   4   4   2 13990.2 163.677   1
   4   4   3 1263.71 74.6588   1
   4  -4   4 2523.69 81.1057   1
   4  -4   5 103.456 66.1104   1
  -4   5   9 1543.11 75.8270   1
  -4   5   8 56.9769 68.9226   1
  -4   5   7 3068.05 126.398   1
  -4  -5   6 2734.61 88.2821   1
  -4  -5   5 1151.95 79.4185   1
  -4   5   4 2312.16 63.4016   1
  -4   5   3 8657.75 149.547   1
  -4   5   2 19332.5 215.002   1
  -4   5   1 253.396 70.4551   1
   4   5   0 10266.4 163.493   1
   4   5   1 9501.17 131.871   1
   4  -5   2 242.001 76.7072   1
   4  -5   3 70.8583 81.6323   1
   4  -5   4 446.951 80.7432   1
   4  -5   5 1719.77 126.228   1
  -4   6   9 83.1283 64.7720   1
  -4   6   8 138.620 54.1889   1
  -4   6   7 1496.62 87.3714   1
  -4   6   6 974.183 80.1698   1
  -4   6   5 6173.07 157.054   1
  -4   6   4 9635.49 162.126   1
   4   6  -3 5072.21 125.111   1
   4   6  -2 1236.74 85.6351   1
  -4   6   1 4192.28 120.019   1
  -4   6   0 4213.10 122.253   1
   4   6   1 22002.2 236.617   1
   4   6   2 17510.9 208.162   1
   4  -6   3 169.443 130.855   1
   4  -6   4 659.819 129.557   1
   4  -6   5 32.5637 87.2142   1
  -4   7   8 602.297 55.0420   1
  -4   7   7 2420.08 93.8935   1
  -4   7   6 6114.57 177.147   1
   4   7  -5 575.154 92.8835   1
  -4   7   4 2151.46 99.2969   1
  -4   7   3 268.581 66.9715   1
   4  -7  -2 3184.82 89.2496   1
  -4   7   1 13053.8 199.586   1
  -4   7   0 3801.41 176.029   1
  -4   7  -1 712.154 123.470   1
  -4   7  -2 2841.74 162.381   1
   4  -7   3 54.0210 118.940   1
   4  -7   4 1713.64 145.230   1
   4  -7   5 204.880 83.3677   1
  -4   8   8-11.7493 53.1929   1
  -4   8   7 1170.52 78.1748   1
  -4   8   6 357.011 69.1032   1
  -4   8   5 2343.02 97.2014   1
  -4   8   4 817.282 80.0638   1
  -4   8   3 1213.03 70.3695   1
  -4   8   2 3969.60 125.974   1
  -4   8   1 61.0204 77.7073   1
   4   8   0 6218.87 150.281   1
  -4   8  -1-10.4574 117.015   1
   4  -8   2 2235.02 117.462   1
   4  -8   3 1672.48 155.301   1
   4  -8   4 427.241 106.109   1
  -4   9   7 1136.95 70.2474   1
  -4   9   6 252.655 65.5305   1
  -4   9   5 110.946 63.3713   1
   4  -9  -4 1185.82 72.0933   1
  -4   9   3 463.928 88.4836   1
  -4   9   2 2639.10 117.085   1
  -4   9   1 1831.07 87.4383   1
  -4   9   0 203.181 79.5650   1
  -4   9  -1 429.601 73.3798   1
   4  -9   2 2117.85 112.482   1
   4  -9   3 928.379 130.714   1
   4  -9   4 135.758 85.5159   1
  -4  10   7 973.133 60.4797   1
  -4  10   6 294.210 61.7830   1
  -4  10   5 20.3454 61.7356   1
  -4  10   4 294.132 75.1149   1
  -4  10   3 560.529 87.8870   1
  -4  10   2 859.091 98.9714   1
  -4  10   1 710.430 86.3516   1
  -4  10   0 812.271 90.9619   1
  -4  10  -1 619.604 71.5395   1
  -4 -10  -2 748.599 68.0630   1
   4 -10   3 822.992 74.8076   1
  -4  11   6 1702.11 132.564   1
  -4  11   5 66.4325 59.0944   1
   4 -11  -4 163.437 96.2763   1
  -4  11   3 190.307 79.1369   1
  -4  11   2 198.011 88.1041   1
  -4  11   1 403.324 80.1623   1
  -4  11   0 110.857 71.3333   1
  -4  11  -1 151.019 71.2761   1
   4 -11   2 527.302 56.2325   1
  -4 -11  -3 529.761 59.4764   1
  -4  12   6 40.2781 60.4219   1
  -4  12   5 1403.03 93.2038   1
   4 -12  -4 261.651 75.9334   1
  -4  12   3 74.1751 73.2398   1
  -4  12   2 639.385 93.1782   1
  -4  12   1 178.735 125.197   1
  -4  12   0 821.571 81.0854   1
  -4  12  -1 96.9134 63.2449   1
  -4  12  -2 233.498 52.6577   1
  -4  13   5 612.571 69.4474   1
  -4  13   4 129.662 54.1482   1
  -4  13   3 15.5450 64.3151   1
  -4  13   2 388.144 112.110   1
  -4  13   1 555.288 122.514   1
  -4  13   0 4.50291 55.2951   1
  -4  13  -1 38.5449 48.7922   1
  -4  14   3 753.764 100.450   1
  -4  14   2 339.580 92.2891   1
  -4  14   1 197.613 90.7640   1
  -4  14   0 133.650 80.1390   1
  -5   0   9 79.5112 94.6716   1
  -5   0   8 1087.21 89.0444   1
  -5   0   7 2399.19 116.096   1
  -5   0   6 87.8804 74.1945   1
  -5   0   5 468.180 80.8364   1
  -5   0   4 2517.25 99.7327   1
   5   0  -3 4872.40 167.068   1
   5   0  -2 1513.24 86.6925   1
  -5   0   1 400.663 76.2456   1
  -5   0   0 11575.6 188.313   1
   5   0   1 3049.34 119.629   1
   5   0   2 318.122 91.1614   1
   5   0   3-18.4323 62.5571   1
  -5   0  -4 147.198 103.290   1
  -5   0  -5 334.510 82.6197   1
  -5   1   9 533.688 105.495   1
  -5  -1   8 61.3484 62.5980   1
  -5   1   7 95.8384 49.2602   1
  -5  -1   6 234.661 55.6954   1
  -5  -1   5 795.183 61.6036   1
  -5   1   4 21965.1 167.087   1
   5   1  -3 3621.47 136.324   1
   5   1  -2 1052.10 70.5791   1
  -5   1   1 515.108 63.2412   1
   5   1   0 208.795 61.8648   1
  -5  -1  -1 2260.00 76.0455   1
  -5  -1  -2 603.629 67.1266   1
   5   1   3 568.421 56.4864   1
  -5   1  -4 418.897 79.1530   1
  -5   1  -5 221.682 78.0623   1
  -5   2   9 124.397 58.3419   1
  -5   2   8 906.896 61.7358   1
  -5  -2   7 3189.72 105.279   1
  -5  -2   6 3873.56 110.233   1
  -5  -2   5 518.621 65.3308   1
  -5  -2   4 2471.97 63.5927   1
   5   2  -3 638.640 66.6115   1
   5   2  -2 8920.68 132.648   1
   5   2  -1 7885.84 124.464   1
   5   2   0 276.279 65.0082   1
   5   2   1 5246.53 98.0137   1
   5   2   2 1901.18 90.5986   1
   5   2   3 1525.88 65.8471   1
   5  -2   4 170.510 56.0974   1
  -5   3   9 1984.73 84.2952   1
  -5   3   8 80.3906 49.0388   1
  -5  -3   7 716.615 76.5184   1
  -5  -3   6 121.893 67.2254   1
  -5  -3   5 1739.29 62.0764   1
  -5   3   4 7864.66 96.4004   1
  -5   3   3 5646.30 95.0249   1
   5   3  -2 13947.5 156.532   1
   5   3  -1 429.480 65.2831   1
  -5   3   0 626.951 66.7716   1
   5   3   1 247.427 57.3647   1
  -5  -3  -2 190.081 67.2770   1
  -5  -3  -3 1353.83 70.1493   1
  -5   3  -4 232.094 69.2936   1
  -5   4   9 102.370 54.3599   1
  -5   4   8 1557.66 96.8543   1
  -5  -4   7 3329.13 105.420   1
  -5  -4   6 1025.62 71.4097   1
   5   4  -5 108.040 52.2013   1
  -5   4   4 237.188 50.8145   1
   5   4  -3 2726.15 89.3539   1
   5   4  -2 205.693 77.7337   1
   5   4  -1 3213.06 93.2320   1
   5   4   0 8021.75 128.517   1
   5   4   1 5567.26 119.090   1
   5   4   2 655.927 87.1623   1
   5  -4   3 178.157 78.7215   1
   5  -4   4 13.4227 65.6966   1
  -5   5   8 58.2105 67.0740   1
  -5   5   7 77.1603 74.2184   1
  -5   5   6 500.201 72.9976   1
  -5   5   5 2493.94 98.6686   1
   5   5  -4 10123.1 128.885   1
   5   5  -3 3375.83 98.6400   1
  -5   5   2 894.100 90.5127   1
   5  -5  -1 9273.20 170.766   1
   5   5   0 4581.15 133.472   1
   5   5   1 640.336 70.0723   1
   5   5   2 1046.80 90.0918   1
   5  -5   3 665.976 81.8153   1
   5  -5   4 1528.30 85.2568   1
  -5   6   8 100.933 65.5395   1
  -5   6   7 309.999 77.8538   1
  -5   6   6 233.883 67.5203   1
  -5   6   5 411.877 70.3796   1
   5   6  -4 458.508 58.9958   1
   5   6  -3 821.681 121.356   1
  -5   6   2 222.452 79.3885   1
   5   6  -1 630.132 85.4641   1
   5  -6   0 2733.38 121.108   1
   5  -6   1 8319.08 166.589   1
   5  -6   2 2972.93 152.946   1
   5  -6   3 130.331 108.704   1
   5  -6   4 60.3284 58.2320   1
  -5   7   8 62.0761 59.2893   1
  -5   7   7 1448.71 96.0208   1
  -5   7   6 413.603 70.0995   1
  -5   7   5 160.448 66.6995   1
  -5   7   4 2436.61 82.1258   1
  -5   7   3 1073.03 79.6891   1
   5  -7  -2 5676.26 147.928   1
  -5   7   1 646.489 91.0128   1
  -5   7   0 580.520 86.3030   1
   5  -7   2 235.942 122.333   1
   5  -7   3 708.774 112.437   1
   5  -7   4 79.5132 74.4098   1
  -5   8   8 532.092 83.6145   1
  -5   8   7 1761.89 93.6246   1
  -5   8   6 1691.30 85.5491   1
  -5   8   5 466.832 72.7765   1
  -5   8   4 602.825 62.9247   1
   5  -8  -3 2875.53 120.005   1
  -5   8   2 617.076 149.336   1
  -5   8   1 4422.65 220.369   1
  -5   8   0 881.899 141.736   1
  -5   8  -1 953.058 126.416   1
   5  -8   2 356.073 114.986   1
   5  -8   3 60.2925 88.4354   1
  -5   9   7 35.8324 58.7654   1
  -5   9   6 293.152 62.7725   1
  -5   9   5 374.221 65.4841   1
  -5   9   4 5675.94 124.514   1
  -5   9   3 3246.61 189.618   1
  -5   9   2 1265.38 159.007   1
  -5   9   1 74.7421 117.016   1
  -5   9   0 428.239 122.094   1
  -5   9  -1 897.991 66.8920   1
   5  -9   2 286.713 63.9838   1
   5  -9   3 80.0605 74.0081   1
  -5  10   7 1438.22 104.324   1
  -5  10   6 230.318 54.8419   1
  -5  10   5 208.131 77.6464   1
  -5  10   4 80.3136 60.2820   1
  -5  10   3 2550.36 169.966   1
  -5  10   2 2424.12 172.767   1
  -5  10   1 74.2179 116.077   1
   5 -10   0 1232.03 94.8372   1
  -5  10  -1 539.704 55.3327   1
   5 -10   2 86.8326 49.9243   1
  -5  11   6 28.2373 57.3756   1
  -5  11   5 247.735 70.9232   1
  -5  11   4 5195.66 107.789   1
  -5  11   3 884.808 84.7813   1
  -5  11   2-34.3607 105.493   1
  -5  11   1 54.8936 100.578   1
  -5  11   0 47.8904 91.8156   1
  -5  11  -1 216.370 79.3903   1
  -5  12   5 342.095 62.2232   1
  -5  12   4 962.377 79.3133   1
  -5  12   3 153.516 52.1521   1
  -5  12   2 32.0792 95.0626   1
  -5  12   1 470.820 103.697   1
  -5  12   0 62.0713 82.2315   1
  -5  13   3 11.6633 80.2936   1
  -5  13   2 601.250 90.0055   1
  -5  13   1 59.0256 71.9697   1
  -6   0   9 1802.97 108.204   1
  -6   0   8 1732.25 135.041   1
  -6   0   7 834.086 131.747   1
  -6   0   6 3318.85 173.026   1
  -6   0   5 7073.88 219.033   1
   6   0  -4 21053.0 750.229   1
   6   0  -3 2143.72 167.881   1
   6   0  -2 821.099 137.232   1
   6   0  -1 6145.22 224.517   1
   6   0   0 60.9826 123.610   1
   6   0   1 543.941 126.114   1
   6   0   2 70.3311 108.109   1
   6   0   3 1145.48 115.844   1
  -6   1   9 96.5840 75.9944   1
  -6  -1   8 955.194 84.7546   1
  -6  -1   7 1867.71 104.686   1
  -6  -1   6 4215.15 131.468   1
  -6  -1   5 7627.48 156.172   1
   6   1  -4 13877.8 283.214   1
   6   1  -3 369.303 88.7087   1
  -6   1   2 368.315 73.9769   1
   6   1  -1 2859.49 127.923   1
   6   1   0 2757.94 125.570   1
   6   1   1 1139.77 99.5381   1
   6   1   2 705.241 88.2700   1
   6  -1   3 340.011 100.892   1
  -6   2   9 381.356 78.4282   1
  -6  -2   8 1404.16 88.9122   1
  -6  -2   7 325.128 66.0538   1
  -6   2   6 543.420 73.7626   1
  -6  -2   5 3409.21 113.818   1
   6   2  -4 134.702 61.5440   1
   6   2  -3 2637.48 96.3869   1
   6   2  -2 5116.54 120.697   1
   6   2  -1 414.621 71.9599   1
  -6   2   0 487.021 70.7937   1
   6   2   1 10.8493 83.2125   1
   6   2   2 1063.61 91.8321   1
   6  -2   3 155.488 61.7994   1
  -6   3   8 351.894 70.5758   1
  -6  -3   7 1192.65 77.2063   1
  -6   3   6 562.838 71.1774   1
  -6   3   5 571.464 87.6012   1
   6   3  -4 5865.01 119.805   1
   6   3  -3 3506.02 103.043   1
   6   3  -2 89.5682 62.8365   1
  -6   3   1 403.432 69.3894   1
  -6   3   0 15.9813 63.2078   1
   6   3   1 1587.69 103.275   1
   6   3   2 302.691 76.0560   1
   6  -3   3 121.899 58.5080   1
  -6   4   8 20.8496 61.8602   1
  -6   4   7 210.837 77.3075   1
  -6   4   6 73.0291 78.3468   1
  -6   4   5 3598.42 124.472   1
  -6   4   4 1125.60 95.1672   1
   6  -4  -3 773.357 98.7214   1
   6  -4  -2 223.030 66.4258   1
  -6   4   1 991.045 75.4826   1
  -6   4   0 446.823 68.1384   1
  -6   4  -1-23.6100 54.4137   1
   6   4   2 66.3721 56.0492   1
   6  -4   3 257.983 82.1818   1
  -6   5   8 1344.05 82.9630   1
  -6   5   7 41.5042 71.6494   1
  -6   5   6-16.9085 78.5601   1
  -6   5   5 656.356 85.1043   1
  -6   5   4 1316.10 97.3331   1
  -6   5   3 973.407 102.903   1
  -6   5   2 287.066 91.1337   1
  -6   5   1 179.564 85.2221   1
  -6   5   0 303.472 81.3731   1
  -6   5  -1 48.6543 51.8651   1
   6  -5   2 347.901 69.0963   1
   6  -5   3 399.547 87.9502   1
  -6   6   8 69.1529 76.4742   1
  -6   6   7 329.836 74.2894   1
  -6   6   6 130.274 78.5054   1
  -6   6   5 2213.95 86.4299   1
  -6   6   4 986.728 80.6681   1
  -6   6   3 40.2074 61.7751   1
  -6   6   2 27.0330 83.0581   1
   6  -6  -1 109.423 79.2271   1
  -6   6   0 102.194 71.6797   1
  -6   6  -1-7.89157 59.4590   1
   6  -6   2 263.269 100.665   1
  -6   7   7 563.505 100.955   1
  -6   7   6 555.086 115.270   1
  -6   7   5 47.2955 55.3481   1
   6  -7  -4 2825.38 96.9356   1
  -6   7   3 401.531 67.2779   1
  -6   7   2 571.522 87.3015   1
  -6   7   1 713.254 86.0174   1
  -6   7   0 75.5722 68.1981   1
  -6   7  -1 748.517 95.2585   1
   6  -7   2 106.817 86.4568   1
  -6   8   7 371.093 89.1712   1
   6  -8  -6 35.6361 69.9957   1
   6  -8  -5 2281.17 84.5895   1
  -6   8   4 165.268 61.2153   1
  -6   8   3 151.876 58.4916   1
  -6   8   2 446.502 80.6901   1
  -6   8   1 271.186 110.872   1
  -6   8   0 356.683 100.299   1
  -6   8  -1 26.7853 55.6154   1
   6  -8   2 500.934 84.0548   1
  -6   9   6 308.507 89.7137   1
  -6   9   5 825.946 112.413   1
  -6   9   4 2822.76 108.549   1
  -6   9   3 312.670 72.1239   1
  -6   9   2 402.230 118.918   1
  -6   9   1 433.823 107.719   1
  -6   9   0 633.206 71.3707   1
   6  -9   1 220.572 84.5194   1
  -6  10   6 185.369 74.2843   1
  -6  10   5 148.313 90.9780   1
  -6  10   4 681.552 72.5405   1
  -6  10   3 292.125 67.1539   1
  -6  10   2 673.606 111.640   1
  -6  10   1 867.574 108.431   1
  -6  10   0-17.3920 71.6769   1
  -6  11   4 2654.58 125.196   1
  -6  11   3 95.1882 54.0340   1
  -6  11   2 89.5286 78.4678   1
  -6  11   1 437.478 84.6859   1
  -7   0   8 53.8832 68.0287   1
   7   0  -7 860.147 77.0775   1
   7   0  -6 471.734 129.239   1
   7   0  -5 1534.23 154.019   1
   7   0  -4 366.062 128.892   1
   7   0  -3 715.504 137.909   1
   7   0  -2 148.598 118.479   1
   7   0  -1 98.5724 114.260   1
   7   0   0 64.9670 109.729   1
   7   0   1 157.853 97.5851   1
   7   0   2 428.677 81.4597   1
   7  -1  -8 57.8836 55.1002   1
  -7  -1   7 159.968 49.8913   1
   7   1  -6 720.245 68.7380   1
   7   1  -5 479.892 93.7930   1
   7  -1  -4 63.8698 81.0054   1
   7  -1  -3 146.720 83.0151   1
   7   1  -2 1707.70 107.409   1
   7   1  -1 2073.11 111.518   1
   7   1   0 308.971 81.5298   1
   7   1   1 360.104 71.6578   1
   7  -1   2 136.688 76.6378   1
   7  -2  -8 629.881 64.9500   1
  -7   2   7 809.685 101.972   1
  -7   2   6 1104.79 70.2370   1
   7   2  -5 425.902 86.6119   1
   7   2  -4 517.497 89.4242   1
   7  -2  -3 92.6312 81.9386   1
   7   2  -2 667.334 91.6765   1
   7   2  -1 134.185 78.0038   1
   7   2   0 343.391 77.4476   1
   7   2   1 1397.25 84.7938   1
   7  -2   2-2.93687 68.1326   1
   7  -3  -8 2185.87 121.780   1
  -7   3   7 511.461 94.8491   1
   7  -3  -6 145.610 72.8465   1
   7  -3  -5 194.675 128.717   1
   7   3  -4 363.879 82.9704   1
   7   3  -3 1864.13 103.411   1
   7   3  -2 1054.28 92.0651   1
   7   3  -1 1016.87 88.6551   1
   7   3   0 624.493 79.4331   1
   7   3   1 21.4074 57.8553   1
  -7   4   7 1283.54 82.9041   1
  -7   4   6 1085.94 85.3653   1
   7  -4  -5 2357.97 164.955   1
   7  -4  -4 374.811 133.994   1
   7  -4  -3 69.0334 80.1923   1
  -7   4   2 597.034 87.7726   1
   7  -4  -1 431.728 116.334   1
   7   4   0 510.637 67.9989   1
   7  -4   1 406.145 88.2073   1
   7  -5  -7-25.5569 58.1647   1
  -7   5   6 17.5476 67.0257   1
  -7   5   5 440.640 77.1361   1
   7  -5  -4 1010.43 91.5216   1
  -7   5   3 212.885 77.5592   1
   7  -5  -2 2192.97 109.300   1
   7  -5  -1 1409.84 92.3440   1
   7  -5   0 24.7043 87.8061   1
   7  -5   1 434.186 61.3360   1
   7  -6  -7 704.078 98.6459   1
   7  -6  -6 916.435 74.7881   1
   7  -6  -5 1057.01 80.3512   1
  -7   6   4-11.9555 70.5972   1
  -7   6   3-8.22894 72.1503   1
  -7   6   2 150.761 72.4795   1
  -7   6   1 142.764 64.8353   1
   7  -6   0 85.4992 77.6236   1
   7  -6   1 298.269 78.3913   1
   7  -7  -6 80.8883 55.2682   1
   7  -7  -5 57.2308 58.2050   1
  -7   7   4 90.4380 64.1191   1
   7  -7  -3 784.207 78.3694   1
  -7   7   2 304.039 66.4225   1
  -7   7   1 458.249 64.0043   1
   7  -7   0 717.711 94.4442   1
   7  -8  -5 303.700 81.0692   1
  -7   8   4 447.076 62.6261   1
  -7   8   3 63.1604 86.1259   1
  -7   8   2 270.058 91.5230   1
  -7   8   1 42.4860 70.1895   1
  -7   9   4 28.1233 66.1737   1
  -7   9   3 113.715 75.8854   1
  -7   9   2 843.030 94.7543   1
   8   0  -6-40.8878 83.4880   1
   8   0  -5 370.828 96.0073   1
   8   0  -4 20.5399 93.5129   1
   8   0  -3 269.405 98.0208   1
   8   0  -2 1548.39 120.565   1
   8   0  -1 107.150 82.2114   1
   8  -1  -6 684.799 94.9149   1
   8   1  -5 850.553 75.9518   1
   8   1  -4 728.283 76.3498   1
   8  -1  -3 584.946 73.5349   1
   8   1  -2 88.6828 62.1344   1
   8   1  -1 164.317 57.1776   1
   8  -2  -6 54.1457 83.0394   1
   8  -2  -5 133.135 96.1867   1
   8   2  -4 77.3163 61.0201   1
   8  -2  -3 296.834 65.4540   1
   8   2  -2 172.446 61.1443   1
   8  -2  -1 466.444 94.2730   1
   8  -3  -6 135.815 84.8071   1
   8  -3  -5 770.582 109.284   1
   8  -3  -4 1059.07 114.454   1
   8  -3  -3 181.450 98.8461   1
   8  -3  -2 219.265 93.3269   1
   8  -3  -1 189.467 80.6895   1
   8  -4  -6 119.011 79.5123   1
   8  -4  -5 71.5907 84.0426   1
   8  -4  -4 108.045 86.8581   1
   8  -4  -3 50.3681 87.7278   1
   8  -4  -2 400.024 86.7634   1
   8  -5  -5 1048.93 97.8290   1
   8  -5  -4 355.878 85.9819   1
   8  -5  -3 726.850 93.6533   1
   8  -5  -2 54.4488 72.4442   1
   0   0   2 19382.5 406.687   2
   0   0   3 250.691 181.276   2
   0   0   4 62.2942 199.143   2
   0   0   5 11034.9 154.229   2
   0   0   6 942.648 124.855   2
   0   0  -7 3166.10 135.639   2
   0   1   1 5813.01 164.604   2
   0   1   2 45439.8 407.617   2
   0  -1   3 20768.3 373.250   2
   0  -1   4 12282.5 343.286   2
   0  -1   5 2368.56 86.9474   2
   0   1   6 137.423 75.6867   2
   0  -1  -7 415.380 77.6408   2
   0   2   0 26998.4 286.723   2
   0   2   1 9947.93 248.361   2
   0   2   2 113880. 679.262   2
   0  -2   3 4605.44 210.107   2
   0  -2   4 2171.91 195.892   2
   0  -2   5 207.243 61.5193   2
   0  -2   6 113.996 87.6133   2
   0   2   7 1855.17 96.7442   2
   0  -2  -8 414.094 133.877   2
   0   3   1 132241. 855.831   2
   0  -3   2 254.592 127.355   2
   0  -3   3 4529.81 216.427   2
   0  -3   4 101.004 80.6961   2
   0  -3   5 1872.00 79.6988   2
   0  -3   6 85.9298 89.7404   2
   0   3   7 77.4374 96.7205   2
   0  -3  -8-48.2566 126.290   2
   0   4   0 150199. 3753.45   2
   0   4   1 11668.8 209.613   2
   0   4   2 5418.22 162.356   2
   0   4  -3 2308.82 141.290   2
   0  -4   4 6514.65 125.735   2
   0  -4   5 86.7960 65.1237   2
   0   4   6 358.548 131.875   2
   0   4   7 1174.68 110.612   2
   0   4   8 658.952 83.8979   2
   0   5  -1 145.786 97.6963   2
   0   5   2 4644.65 158.285   2
   0   5   3 2918.98 296.386   2
   0  -5   4 2385.52 95.5125   2
   0  -5  -5 712.905 94.9897   2
   0  -5  -6-37.9394 146.673   2
   0  -5  -7-2.37476 146.842   2
   0   5   8 410.666 77.1831   2
   0   6   0 33814.4 578.649   2
   0   6  -1 229.962 110.563   2
   0   6   2 4029.82 163.830   2
   0  -6   3 440.772 63.2971   2
   0  -6   4 64.6480 70.4573   2
   0  -6  -5 136.647 134.500   2
   0  -6  -6 8.80123 147.246   2
   0  -6  -7 1370.14 171.133   2
   0   6   8 102.294 65.7396   2
   0   7   1 14571.4 306.369   2
   0   7   2 2698.02 125.210   2
   0   7   3 2604.22 90.7776   2
   0  -7   4 117.797 68.5849   2
   0  -7  -5 1070.62 165.899   2
   0  -7  -6 149.543 151.670   2
   0  -7  -7 677.506 152.567   2
   0  -7  -8-10.7155 89.2385   2
   0   8   0 27062.5 214.788   2
   0   8  -1 1293.46 54.3457   2
   0   8   2 638.636 74.4168   2
   0   8   3 679.677 116.061   2
   0   8   4 417.448 124.394   2
   0  -8  -5 225.150 146.887   2
   0  -8  -6 223.357 155.657   2
   0  -8  -7 95.4153 126.341   2
   0  -9   1 189.765 50.0871   2
   0   9   2 726.559 81.3182   2
   0   9   3 719.495 121.729   2
   0  -9  -4 1512.87 156.098   2
   0  -9  -5 149.778 148.857   2
   0  -9  -6 79.1142 133.243   2
   0  -9  -7 58.1618 68.4382   2
   0  10   0 16029.9 202.177   2
   0 -10   1 408.353 57.6030   2
   0 -10  -2 1370.35 80.1022   2
   0 -10  -3 190.734 93.2693   2
   0 -10  -4 582.261 151.330   2
   0 -10  -5 416.076 153.305   2
   0 -10  -6 80.2208 82.2927   2
   0 -10  -7 403.592 101.423   2
   0 -11   1 373.151 63.1186   2
   0  11   2 1318.05 87.3863   2
   0 -11  -3 1904.80 124.817   2
   0 -11  -4 883.821 112.396   2
   0 -11  -5 227.232 90.7353   2
   0 -12   0 11753.3 213.657   2
   0 -12  -1 1913.57 97.7130   2
   0 -12  -2 111.399 71.8084   2
   0 -12  -3 607.121 99.5221   2
   0 -12  -4 148.576 89.6268   2
   0 -12  -5 96.7925 75.7777   2
   0 -13  -1-1.29884 71.7294   2
   0 -13  -2 862.116 104.988   2
   0 -13  -3 322.317 93.0838   2
   0 -13  -4 275.095 87.3569   2
   0 -13  -5 294.707 71.9912   2
   0 -14   0 649.108 129.622   2
   0 -14  -1 94.7778 66.4237   2
   0 -14  -2 513.270 90.4345   2
   0 -14  -3 24.6086 75.5664   2
   0 -14  -4 62.4819 65.6453   2
   0 -15  -1 608.823 119.530   2
   0 -15  -2 273.969 73.2581   2
   0 -15  -3 6.42951 64.4068   2
  -1   0   8 77.9059 124.971   2
  -1   0   7 82.9652 141.614   2
  -1   0   6 2.21727 118.033   2
  -1   0   5 116.346 84.6596   2
  -1   0   4 15133.5 549.266   2
  -1   0   3 17488.4 490.710   2
   1   0   0 160618. 2590.26   2
   1   0   1 1113.96 79.9344   2
   1   0   2 41.6334 89.4500   2
   1   0   3 12639.7 398.323   2
   1   0   4 78.6559 57.0661   2
   1   0   5 1001.92 104.111   2
  -1   0  -7 12.7152 148.028   2
  -1   0  -8 16.2416 106.717   2
  -1   1   9-0.16157 65.1157   2
  -1   1   8 303.129 96.7008   2
  -1   1   7 2433.31 134.103   2
  -1  -1   6 917.810 84.5298   2
  -1  -1   5 4201.93 104.549   2
  -1  -1   4 2796.14 221.017   2
  -1  -1   3 2128.81 226.708   2
  -1  -1   1 1400.61 129.734   2
   1   1   0 4854.52 193.532   2
   1   1   1 3099.07 70.4655   2
   1   1   2 302.591 82.1278   2
   1  -1   3 12670.7 230.303   2
   1   1   4 873.876 56.8093   2
   1   1   5 33.8151 60.9844   2
   1  -1   6 120.967 87.8667   2
  -1  -1  -7 219.815 106.617   2
  -1  -1  -8 158.283 77.6293   2
  -1   2   9 228.814 74.2361   2
  -1   2   8 929.004 101.675   2
  -1   2   7 829.576 110.400   2
  -1  -2   6 12758.2 256.683   2
  -1  -2   5 44.0281 66.7455   2
  -1  -2   4 4470.80 369.059   2
   1   2   0 16221.1 347.894   2
   1   2   1 87.2026 163.243   2
   1   2   2 8047.12 220.638   2
   1   2   3 11243.7 232.706   2
   1   2   4 941.901 57.2174   2
   1  -2   5 4138.16 160.190   2
   1  -2   6 295.875 95.5811   2
  -1  -2  -7 3.30191 149.270   2
  -1   2  -8 198.259 75.8718   2
  -1   3   9-10.2761 66.4557   2
  -1   3   8 600.771 97.3394   2
  -1   3   7 90.0886 100.287   2
  -1   3   6 3804.00 173.403   2
  -1   3   5 2348.91 101.190   2
  -1  -3   4 25100.3 733.362   2
  -1   3   2 22725.9 459.042   2
   1   3  -1 62807.9 450.726   2
   1   3   0 2524.65 102.791   2
   1   3   1 13791.1 376.463   2
   1   3   2 192.862 173.237   2
   1   3   3 3067.79 282.178   2
   1  -3   4 196.233 68.6077   2
   1  -3   5 2235.11 120.644   2
   1  -3   6 586.320 103.407   2
  -1  -3  -7-31.0727 142.079   2
  -1   3  -8 253.514 76.2224   2
  -1   4   8 304.485 92.7662   2
   1  -4  -7 46.2847 133.748   2
  -1   4   6 1555.08 112.688   2
  -1   4   5 1748.62 95.0362   2
  -1  -4   4 42709.1 988.340   2
  -1   4   3 23122.8 568.713   2
   1   4  -2 674.380 118.823   2
  -1   4   1 2092.56 140.346   2
  -1   4   0 13835.2 209.455   2
   1   4   1 4591.12 283.904   2
   1   4   2 13610.1 460.964   2
   1   4   3 20664.0 631.528   2
   1  -4   4 1165.86 90.4267   2
   1  -4   5 1312.50 109.881   2
   1  -4   6 956.842 111.764   2
  -1  -4  -7 11.5137 133.827   2
  -1  -4  -8 108.833 93.3517   2
  -1   5   8 1349.09 106.431   2
   1  -5  -7 90.2495 131.641   2
  -1   5   6 4823.70 199.730   2
  -1   5   5 11074.2 182.224   2
   1  -5  -4 706.883 112.734   2
   1   5  -3 22613.4 404.996   2
   1   5  -2 12.6705 112.895   2
  -1   5   1 28750.3 373.987   2
  -1   5   0 3269.44 137.371   2
   1   5   1 1187.71 213.554   2
   1   5   2 1200.95 247.533   2
   1   5   3 3674.00 106.956   2
   1  -5   4 264.683 81.8089   2
   1  -5   5 8.48125 91.5392   2
  -1  -5  -6 39.2390 108.966   2
  -1  -5  -7 828.244 139.638   2
  -1  -5  -8 426.302 95.0735   2
  -1   6   8 505.841 89.5993   2
   1  -6  -7 17.2734 137.377   2
   1  -6  -6 10749.5 302.798   2
  -1   6   5 9160.40 174.851   2
   1  -6  -4 4003.68 169.173   2
   1   6  -3 311.287 79.0927   2
  -1   6   2 3819.36 194.665   2
  -1   6   1 2906.99 165.426   2
  -1   6   0 1592.65 129.926   2
   1   6   1 9679.31 425.856   2
   1   6   2 1003.35 252.414   2
   1   6   3 2363.43 83.5728   2
   1  -6   4 25.5347 68.1213   2
   1  -6   5 1748.83 115.231   2
  -1  -6  -6 2172.20 188.397   2
  -1  -6  -7 61.5258 118.585   2
  -1   7   8 331.497 80.6365   2
   1  -7  -7 51.1692 138.858   2
   1  -7  -6 1989.02 181.445   2
  -1   7   5 87.5497 91.6594   2
   1  -7  -4 363.925 113.021   2
   1   7  -3 93.2093 75.5694   2
  -1   7   2 4249.89 125.215   2
  -1   7   1 8536.75 258.343   2
  -1   7   0 1686.51 139.298   2
   1   7   1 668.100 229.159   2
   1   7   2 1700.41 69.0338   2
   1  -7   3 210.736 74.6547   2
   1  -7   4 1340.98 98.0779   2
   1  -7   5 11.9186 87.1531   2
  -1  -7  -6 365.431 141.576   2
  -1  -7  -7 77.5723 107.173   2
  -1   8   8 19.2857 70.3688   2
   1  -8  -7 26.8966 132.004   2
   1  -8  -6 1614.01 169.878   2
  -1   8   5 58.7305 94.4226   2
   1  -8  -4 2140.97 165.118   2
   1  -8  -3 5885.64 183.045   2
   1   8  -2 433.241 55.0504   2
   1   8  -1 559.882 54.7116   2
   1   8   0 10900.2 125.895   2
   1   8   1 51.4050 68.8385   2
   1   8   2 5938.52 104.305   2
   1   8   3 3123.76 112.949   2
   1  -8   4 503.561 90.6198   2
  -1  -8  -5 1408.61 174.093   2
  -1  -8  -6 115.323 123.230   2
  -1  -8  -7 90.2212 89.5455   2
   1  -9  -7 1134.86 144.056   2
   1  -9  -6 134.627 83.7541   2
   1  -9  -5 3126.44 198.438   2
   1  -9  -4 3158.77 126.979   2
   1  -9  -3 115.023 74.9106   2
   1   9  -2 455.505 60.9662   2
  -1   9   1 2531.32 68.8005   2
   1   9   0-13.6779 52.0330   2
   1   9   1 983.233 71.6144   2
   1  -9   2 1333.17 95.6828   2
   1   9   3 3076.64 114.741   2
  -1  -9  -4 432.284 147.102   2
  -1  -9  -5 937.195 162.992   2
  -1  -9  -6-4.60254 117.858   2
   1 -10  -7 70.2099 111.772   2
   1 -10  -6 207.551 80.6116   2
   1 -10  -5 19.9681 83.6440   2
   1 -10  -4 18.6994 89.4124   2
   1 -10  -3 86.3253 88.0941   2
  -1 -10   2 5048.66 109.899   2
   1  10  -1 8885.02 116.298   2
   1  10   0 812.837 61.4853   2
  -1 -10  -1 47.9662 65.7080   2
   1 -10   2 10.9149 85.0387   2
  -1 -10  -3 4465.66 216.430   2
  -1 -10  -4 723.082 152.075   2
  -1 -10  -5 51.9181 120.468   2
  -1 -10  -6 241.826 73.4763   2
   1 -11  -7 158.379 97.9985   2
   1 -11  -6 254.200 123.171   2
   1 -11  -5 267.757 88.0548   2
   1 -11  -4 388.045 95.5932   2
   1 -11  -3 982.713 103.383   2
   1 -11  -2 2188.05 119.978   2
   1 -11  -1 508.328 74.8964   2
  -1 -11   0 624.264 65.9607   2
   1 -11   1 286.738 71.7926   2
  -1 -11  -2 123.586 93.8752   2
  -1 -11  -3 513.786 104.038   2
  -1 -11  -4 177.301 92.1731   2
  -1 -11  -5-7.96697 81.6098   2
  -1 -11  -6 64.5518 58.6347   2
   1 -12  -6 342.947 113.078   2
   1 -12  -5 9.53597 75.6940   2
   1 -12  -4 78.7936 88.9551   2
   1 -12  -3 72.6014 89.5163   2
   1 -12  -2 66.0484 94.3022   2
   1 -12  -1 167.376 75.2308   2
   1 -12   0 5091.93 127.100   2
  -1 -12  -1 103.760 74.1298   2
  -1 -12  -2 888.848 108.070   2
  -1 -12  -3 50.5917 86.1929   2
  -1  12  -4 110.289 82.5126   2
  -1 -12  -5 575.415 79.3254   2
   1 -13  -5 154.777 71.8700   2
   1 -13  -4 366.295 83.7784   2
   1 -13  -3 69.5779 82.8037   2
   1 -13  -2 130.112 92.9360   2
  -1 -13   1 18.7840 70.6006   2
  -1 -13   0 643.806 99.0387   2
  -1 -13  -1 95.1296 73.5475   2
  -1 -13  -2 49.9426 86.9068   2
  -1 -13  -3 249.868 85.6141   2
  -1  13  -4 179.448 100.066   2
   1 -14  -5 2.81973 90.1806   2
   1 -14  -4 68.2541 68.5538   2
   1 -14  -3 104.195 78.7656   2
   1 -14  -2 605.132 90.6543   2
   1 -14  -1 64.2058 119.532   2
  -1 -14   0 123.670 85.6464   2
  -1 -14  -1 123.040 124.806   2
  -1 -14  -2 84.5446 124.812   2
  -1  14  -3 309.404 83.4784   2
   1 -15  -3 7.43530 94.7453   2
   1 -15  -2 20.7854 107.642   2
   1 -15  -1 1250.61 142.278   2
   1 -15   0 204.508 112.008   2
  -1 -15  -1 123.819 104.567   2
  -1  15  -2 6.00692 73.2152   2
  -1 -15  -3 49.2880 85.0384   2
   1 -16  -1-63.0559 93.2281   2
  -1  16   0 42.0907 100.845   2
  -1  16  -1 272.000 98.9135   2
  -2   0   9 358.302 128.221   2
  -2   0   8 338.918 153.359   2
  -2   0   7 1986.81 113.392   2
  -2   0   6 2672.18 113.190   2
  -2   0   5 1427.72 84.3198   2
  -2   0   4 3956.01 318.669   2
  -2   0   3 147.395 168.815   2
  -2   0   2 1481.41 173.987   2
  -2   0   1 23239.3 281.268   2
   2   0   0 21600.6 356.739   2
   2   0   1 8036.61 253.935   2
   2   0   2 31017.3 311.435   2
   2   0   3 265.529 111.387   2
   2   0   4 508.996 85.3870   2
   2   0   5 877.803 134.015   2
   2   0   6 1018.84 133.781   2
  -2   0  -7 3030.86 190.301   2
  -2   1   9 173.008 122.432   2
  -2  -1   8 137.764 108.349   2
  -2   1   7 997.832 73.7963   2
  -2  -1   6 1209.69 67.4094   2
  -2  -1   5 1221.61 66.4054   2
  -2  -1   4 632.749 158.083   2
  -2  -1   3 4108.21 268.252   2
  -2  -1   2 2609.09 188.998   2
  -2  -1   1 3737.51 142.175   2
   2   1   0 6175.26 150.123   2
   2   1   1 1244.64 59.8136   2
   2   1   2 3463.76 142.417   2
   2   1   3 2227.31 100.816   2
   2   1   4 1696.93 69.4502   2
   2   1   5 1415.79 100.455   2
   2  -1   6 340.258 96.7481   2
  -2  -1  -7-42.1476 94.5790   2
  -2   2   9 296.987 120.472   2
  -2  -2   8 9.72208 77.7699   2
  -2   2   7 3647.96 98.8721   2
  -2  -2   6 2850.48 90.0373   2
  -2  -2   5 1148.36 61.3567   2
  -2  -2   4 609.017 223.213   2
  -2  -2   2 744.215 163.077   2
   2   2  -1 954.436 197.646   2
   2   2   0 8947.01 309.594   2
   2   2   1 4365.89 283.438   2
   2   2   2 5097.43 181.292   2
   2   2   3 6856.79 126.067   2
   2   2   4 1299.96 78.0962   2
   2  -2   5 603.753 104.762   2
   2  -2   6 154.887 98.4359   2
  -2   2  -7 67.4367 92.4648   2
  -2   3   9 325.633 118.507   2
  -2   3   8 1162.59 106.203   2
  -2   3   7 775.982 90.0004   2
  -2  -3   6 176.755 55.1958   2
  -2   3   5 863.185 69.7413   2
   2   3  -2 348.386 180.344   2
   2   3  -1 1669.51 215.438   2
   2   3   0 6728.49 313.846   2
   2   3   1 229.527 206.031   2
   2   3   2-12.6591 213.170   2
   2   3   3 2492.63 81.7894   2
   2   3   4 2555.45 84.4929   2
   2  -3   5 995.652 116.621   2
   2  -3   6 256.832 100.722   2
  -2  -3  -7 302.979 72.1742   2
  -2   4   9 45.0781 105.561   2
  -2   4   8 92.2024 88.9025   2
   2  -4  -7 3128.77 183.350   2
  -2   4   6 1743.62 84.0686   2
  -2   4   5 1756.79 80.0032   2
   2   4  -3 2320.46 268.598   2
   2   4  -2 1873.63 231.048   2
   2   4  -1 16131.9 466.792   2
   2   4   0 2859.61 261.473   2
   2   4   1 535.264 208.553   2
   2   4   2 9541.07 464.860   2
   2   4   3 1517.99 97.2301   2
   2  -4   4 333.581 66.8197   2
   2  -4   5 1696.31 125.662   2
   2  -4   6 98.5525 96.5048   2
  -2  -4  -7 139.475 105.628   2
  -2   5   9 470.724 109.490   2
  -2   5   8 957.904 102.729   2
   2  -5  -7 603.147 132.132   2
  -2   5   6 9750.74 184.149   2
  -2   5   5-24.8023 71.9572   2
   2  -5  -4 88.1020 93.2445   2
   2   5  -3 6306.40 369.631   2
   2   5  -2 21381.5 578.006   2
   2   5  -1 12761.2 462.118   2
   2   5   0 391.437 224.781   2
   2   5   1 1010.69 252.944   2
   2   5   2 611.126 126.517   2
   2   5   3 468.716 65.1388   2
   2  -5   4 219.804 87.6408   2
   2  -5   5 21.1941 95.9905   2
   2  -5   6 354.710 91.5453   2
  -2  -5  -7 26.9524 95.9740   2
  -2   6   8 1261.87 105.512   2
   2  -6  -7 346.304 126.394   2
  -2   6   6 10773.2 198.097   2
  -2   6   5 19401.3 195.893   2
   2   6  -4 823.921 104.580   2
   2   6  -3 102.276 85.7233   2
   2   6  -2 4733.26 346.536   2
   2   6  -1 2124.70 295.296   2
   2   6   0 18082.8 603.846   2
   2   6   1 7195.99 175.428   2
   2   6   2 5698.44 174.699   2
  -2   6  -3 324.223 60.4940   2
   2  -6   4 181.571 73.5739   2
   2  -6   5 497.711 96.3370   2
  -2  -6  -6 74.4245 111.370   2
  -2  -6  -7 29.1806 86.1043   2
  -2   7   8 1266.44 99.4783   2
   2  -7  -7 418.353 129.022   2
  -2   7   6 2676.62 132.367   2
  -2   7   5 502.248 77.2745   2
   2   7  -4 159.649 98.3851   2
   2   7  -3 12058.4 154.200   2
   2   7  -2 1652.89 115.754   2
   2   7  -1 4097.16 140.696   2
   2   7   0 11434.2 212.056   2
   2   7   1 250.558 96.0915   2
   2   7   2 903.058 78.3488   2
   2  -7   3 607.173 83.6905   2
   2  -7   4 638.314 95.7577   2
   2  -7   5 467.148 94.4414   2
  -2  -7  -6 28.4098 110.432   2
  -2   8   8 136.291 74.5544   2
   2  -8  -7 3299.52 180.770   2
  -2   8   6 133.474 97.7752   2
   2  -8  -5 73.7143 130.472   2
   2  -8  -4 2879.56 174.005   2
   2   8  -3 497.468 74.9729   2
   2   8  -2 1375.90 66.8421   2
   2   8  -1 651.990 61.0318   2
   2   8   0 681.699 111.253   2
   2   8   1 922.711 119.149   2
   2  -8   2 1657.55 90.0143   2
  -2   8  -3 2005.66 86.7331   2
   2  -8   4 614.218 93.1694   2
   2  -8   5 110.404 84.0898   2
  -2  -8  -6 140.505 103.237   2
  -2   9   8 61.1759 98.6081   2
   2  -9  -7 1259.44 139.055   2
  -2   9   6 88.3565 95.7743   2
   2  -9  -5 43.2375 134.298   2
   2  -9  -4 1450.82 101.706   2
   2   9  -3 719.692 79.9518   2
   2   9  -2 862.474 66.0134   2
   2   9  -1 67.8669 57.7995   2
   2   9   0 318.853 76.5790   2
   2   9   1 676.278 121.115   2
   2  -9   2 568.241 79.1015   2
  -2   9  -3-18.5315 66.8981   2
   2  -9   4 455.956 87.3773   2
  -2  -9  -5 291.676 105.718   2
  -2  -9  -6-26.2334 83.4490   2
   2 -10  -7 122.380 104.746   2
  -2  10   6 1076.06 105.416   2
   2 -10  -5 208.377 126.587   2
   2 -10  -4 3927.16 132.169   2
   2 -10  -3 1151.81 98.9556   2
   2  10  -2 788.768 69.6206   2
   2  10  -1 356.033 66.1457   2
   2  10   0 129.297 83.7646   2
  -2 -10  -1 56.7739 85.9608   2
  -2 -10  -2 2635.71 156.223   2
  -2  10  -3 574.400 71.1289   2
  -2 -10  -4 40.1195 108.921   2
  -2 -10  -5 65.1446 95.3154   2
   2 -11  -7 397.733 100.325   2
   2 -11  -6 201.727 118.543   2
  -2  11   5 281.973 100.729   2
   2 -11  -4 213.749 81.1221   2
   2 -11  -3 42.3177 81.8934   2
  -2 -11   2 463.488 74.5872   2
   2  11  -1 165.196 86.8165   2
   2  11   0 524.008 95.7314   2
  -2 -11  -1 26.5615 91.7555   2
  -2 -11  -2 426.467 156.503   2
  -2  11  -3 235.385 71.9473   2
  -2 -11  -4 42.3091 75.7854   2
  -2 -11  -5 122.083 94.5677   2
   2 -12  -6 47.9297 102.736   2
  -2  12   5 12.0685 87.0542   2
   2 -12  -4 146.389 81.0710   2
   2 -12  -3 117.353 84.2885   2
   2 -12  -2 513.872 90.9041   2
  -2 -12   1-24.8927 91.3920   2
   2 -12   0 667.982 103.820   2
  -2 -12  -1 1355.60 117.540   2
  -2 -12  -2 225.755 143.411   2
  -2  12  -3 2.93958 89.0033   2
  -2 -12  -4 52.5173 106.169   2
   2 -13  -5 186.389 108.609   2
   2 -13  -4 197.917 76.9814   2
   2 -13  -3 1331.81 101.573   2
  -2  13   2 608.278 101.969   2
  -2 -13   1 189.679 92.7061   2
  -2 -13   0 137.499 93.6621   2
  -2 -13  -1 350.322 134.811   2
  -2  13  -2 206.193 88.6292   2
  -2  13  -3 36.8181 77.5305   2
  -2 -13  -4 203.747 88.9459   2
   2 -14  -5 217.232 90.1864   2
   2 -14  -4 48.4956 106.090   2
   2 -14  -3 29.0977 118.719   2
  -2  14   2 104.948 85.0527   2
  -2  14   1 466.275 95.1237   2
  -2  14   0 463.029 76.1008   2
  -2  14  -1-6.21237 85.2915   2
  -2  14  -2 294.653 119.951   2
  -2 -14  -3 150.819 94.9749   2
   2 -15  -3 54.8262 95.8115   2
   2 -15  -2 202.515 105.223   2
  -2  15   1 117.295 80.5362   2
  -2  15   0 3.77754 106.829   2
  -2  15  -1 157.331 69.3283   2
  -2  15  -2-3.07512 94.5236   2
  -3   0   9 714.723 150.421   2
  -3   0   8 239.093 90.8928   2
  -3   0   7 4080.70 148.538   2
  -3   0   6 49.3592 83.1215   2
  -3   0   5 11489.4 165.942   2
  -3   0   4 8375.15 415.734   2
  -3   0   3 81.3738 160.920   2
  -3   0   2 2682.81 171.486   2
   3   0  -1 1270.46 198.059   2
   3   0   0 3155.18 207.587   2
   3   0   1 34821.1 515.155   2
   3   0   2 138.752 112.266   2
   3   0   3 808.136 135.673   2
   3   0   4 612.058 94.1671   2
   3   0   5 581.660 116.837   2
  -3   0  -6 3852.68 214.345   2
  -3   0  -7 502.812 108.532   2
  -3   1   9 22.2871 136.640   2
  -3  -1   8 346.803 65.9376   2
  -3   1   7 1942.92 85.5621   2
  -3   1   6 5463.27 100.929   2
  -3   1   5 2450.42 66.4301   2
  -3  -1   4 576.655 148.669   2
  -3  -1   3 3434.17 176.380   2
  -3   1   2 256.062 86.8766   2
   3   1  -1 2957.23 260.249   2
   3   1   0 8190.55 192.248   2
   3   1   1 1338.65 187.362   2
   3   1   2 3823.19 118.354   2
   3   1   3 3778.66 131.641   2
   3   1   4 1345.10 75.3213   2
   3  -1   5 657.531 98.5182   2
   3  -1   6 0.20916 65.3851   2
  -3  -1  -7 37.0110 70.3407   2
  -3   2   9 1758.06 166.271   2
  -3   2   8 1069.15 88.5074   2
  -3  -2   7 20.7137 66.8702   2
  -3  -2   6 98.5032 66.6472   2
  -3  -2   5 3445.61 83.1165   2
  -3  -2   4 12142.1 132.778   2
  -3  -2   3 8895.64 349.857   2
   3   2  -1 39997.8 687.115   2
   3   2   0 2443.58 243.313   2
   3   2   1 1925.54 222.090   2
   3   2   2 551.169 73.9043   2
   3   2   3 955.625 100.081   2
   3   2   4 2178.30 88.5582   2
   3  -2   5 889.284 108.373   2
   3  -2   6 409.521 82.1322   2
  -3   2  -7 274.279 103.945   2
  -3   3   9 573.279 139.243   2
  -3   3   8 145.427 139.418   2
  -3   3   7 1298.16 81.6983   2
  -3  -3   6 98.7472 64.5397   2
  -3  -3   5 1044.51 66.4752   2
  -3  -3   4 14090.7 128.898   2
  -3  -3   3 10176.4 419.877   2
   3   3  -2 357.861 213.088   2
   3   3  -1 448.063 210.022   2
   3   3   0 4257.17 289.811   2
   3   3   1 1157.70 235.576   2
  -3   3  -2 258.685 54.8137   2
   3   3   3 5707.74 124.820   2
   3   3   4 207.277 68.7791   2
   3  -3   5 480.986 104.910   2
   3  -3   6 85.4678 75.0393   2
  -3   4   9 70.8434 119.680   2
  -3   4   8 44.9949 140.747   2
  -3   4   7 2526.60 160.985   2
  -3   4   6 187.898 70.9403   2
  -3   4   5 170.004 69.5747   2
  -3  -4   4 547.354 88.9002   2
   3   4  -3 1735.91 282.355   2
   3   4  -2 13618.9 506.301   2
   3   4  -1 11074.3 448.316   2
   3   4   0 288.477 208.484   2
  -3   4  -1 2141.48 125.818   2
  -3   4  -2 2093.39 70.3353   2
   3   4   3 2990.58 104.531   2
   3   4   4 169.142 66.3398   2
   3  -4   5 30.0457 87.5366   2
   3  -4   6 186.217 71.3332   2
  -3   5   9 144.865 115.761   2
  -3   5   8 382.096 144.191   2
  -3   5   7 555.848 83.1241   2
  -3   5   6 817.209 82.4750   2
  -3   5   5 227.787 72.6374   2
   3   5  -4 4.64991 64.0265   2
  -3  -5   3 5826.26 160.258   2
   3   5  -2 304.816 225.881   2
   3   5  -1-33.7207 210.135   2
  -3   5   0 3309.86 144.575   2
  -3   5  -1 2634.77 83.6655   2
  -3   5  -2 3516.11 98.1263   2
   3   5   3 191.943 74.5711   2
   3  -5   4 261.049 100.966   2
   3  -5   5 19.1626 71.2605   2
  -3  -5  -6 48.6710 95.3390   2
  -3   6   9 108.130 106.146   2
  -3   6   8 674.121 146.311   2
  -3   6   7 179.863 78.4638   2
  -3   6   6 632.143 84.9128   2
  -3   6   5 420.351 75.9291   2
   3   6  -4 3303.40 138.344   2
  -3   6   3 154.349 67.9743   2
  -3   6   2 553.310 70.7200   2
  -3   6   1 2993.48 99.1512   2
  -3   6   0 407.979 76.5362   2
  -3   6  -1 440.405 112.947   2
  -3   6  -2 1537.39 97.1648   2
   3   6   3 79.3980 60.8228   2
   3  -6   4 72.2492 85.6903   2
   3  -6   5 285.734 81.1828   2
  -3  -6  -6 148.370 90.3831   2
  -3   7   8 42.3270 127.067   2
  -3   7   7 134.059 87.9343   2
  -3   7   6 186.502 79.5035   2
   3   7  -5 44.4555 83.0281   2
   3   7  -4 789.824 111.809   2
  -3   7   3 268.195 75.7503   2
  -3   7   2 57.5528 68.9564   2
  -3   7   1 834.607 83.2748   2
   3   7   0 118.500 72.2591   2
   3   7   1 194.099 113.511   2
  -3   7  -2 743.376 90.5604   2
  -3   7  -3 1580.00 113.446   2
   3  -7   4 133.306 81.1548   2
   3  -7   5 118.426 73.5245   2
  -3   8   8 564.998 74.0382   2
  -3   8   7 417.173 98.0267   2
  -3   8   6 251.773 76.3345   2
   3  -8  -5 73.8644 89.2852   2
   3   8  -4 1002.75 124.842   2
  -3   8   3 711.514 85.4654   2
  -3   8   2 469.384 83.1748   2
  -3   8   1 4723.58 106.013   2
   3   8   0 87.1304 103.370   2
   3   8   1 244.108 120.209   2
  -3   8  -2 49.5439 79.2139   2
  -3   8  -3 27.9973 87.1850   2
   3  -8   4 482.124 130.337   2
   3  -8   5 0.17503 101.161   2
  -3   9   7 583.181 91.1881   2
  -3   9   6 1750.65 93.4673   2
   3  -9  -5 234.242 92.2209   2
   3   9  -4 274.708 119.112   2
  -3   9   3 2847.65 119.594   2
  -3   9   2 25.4258 81.0102   2
   3   9  -1 344.383 82.0586   2
   3   9   0 532.211 78.3293   2
   3   9   1 185.968 125.179   2
  -3   9  -2 898.778 100.601   2
  -3   9  -3 697.028 99.9682   2
   3  -9   4 23.7316 107.925   2
   3 -10  -7 305.779 111.654   2
  -3  10   6 411.991 97.1641   2
   3 -10  -5 65.3990 88.6204   2
   3 -10  -4 1150.56 152.467   2
  -3  10   3 1226.69 101.262   2
  -3  10   2 2144.20 118.192   2
  -3  10   1 1149.14 85.3777   2
   3  10   0 201.191 75.4440   2
  -3  10  -1 1089.46 115.961   2
  -3  10  -2 73.1334 139.494   2
  -3  10  -3 28.0905 79.6758   2
  -3 -10  -5 295.471 88.0915   2
  -3  11   6 313.679 85.5502   2
   3 -11  -5 611.111 91.0623   2
   3 -11  -4 573.297 142.387   2
  -3  11   3 590.712 98.4895   2
  -3  11   2 73.1299 93.6767   2
  -3  11   1 102.091 74.5402   2
  -3  11   0 225.036 80.5544   2
  -3  11  -1 232.005 101.755   2
  -3  11  -2 338.488 99.2763   2
  -3  11  -3 634.102 90.5068   2
  -3 -11  -4 252.113 100.447   2
  -3  12   6 78.6719 71.9746   2
  -3  12   5 55.9307 90.1016   2
   3 -12  -4 539.017 100.495   2
   3 -12  -3 111.854 127.543   2
  -3  12   2 136.002 94.9765   2
  -3  12   1 1317.36 88.0460   2
  -3  12   0 682.015 86.6090   2
  -3  12  -1 49.9285 85.1670   2
  -3  12  -2 37.2777 85.7568   2
  -3  12  -3 3.06135 73.4399   2
  -3  13   5 69.5744 77.8317   2
   3 -13  -4 79.2216 76.0196   2
   3 -13  -3 79.4361 120.384   2
  -3  13   2 114.925 84.3627   2
  -3  13   1 215.713 70.4311   2
  -3  13   0 92.5873 81.3048   2
  -3  13  -1 24.5885 80.4641   2
  -3  13  -2 30.3320 69.4052   2
  -3 -13  -3 247.114 82.5480   2
   3 -14  -4 37.4224 94.2363   2
   3 -14  -3 91.8203 103.511   2
  -3  14   2 325.183 82.9272   2
  -3  14   1 531.098 92.5731   2
  -3  14   0 67.6361 68.9140   2
  -3  14  -1 96.4175 68.5615   2
   3 -15  -3 541.678 96.5224   2
   3 -15  -2 39.3441 93.0083   2
  -3  15   1 188.286 109.708   2
  -3  15   0 6.01627 98.9668   2
  -4   0   9 165.646 127.471   2
  -4   0   8 842.863 106.615   2
  -4   0   7 3.68627 97.0084   2
  -4   0   6 1341.86 105.433   2
  -4   0   5 1765.59 99.9364   2
  -4   0   4 3688.10 106.076   2
  -4   0   3 4519.69 160.887   2
   4   0  -1 50.2032 72.8559   2
  -4   0   0 207.796 74.9621   2
   4   0   1 1391.97 91.7970   2
   4   0   2 2949.54 173.662   2
   4   0   3 633.398 143.716   2
   4   0   4 466.504 86.5601   2
   4   0   5 151.191 72.1014   2
  -4   0  -6-23.6742 101.317   2
  -4   1   9 402.113 81.5114   2
  -4  -1   8 257.143 58.1984   2
  -4  -1   7 3757.93 104.954   2
  -4   1   6 4150.80 83.8015   2
  -4   1   5 637.197 49.1381   2
  -4   1   4 333.548 51.6850   2
  -4   1   3 1262.45 61.4264   2
  -4   1   2 2162.36 122.462   2
   4   1  -1 1131.12 65.9857   2
   4  -1   0 110.692 52.2757   2
   4   1   1 255.175 55.8647   2
   4   1   2 886.483 99.3236   2
   4   1   3 623.619 99.3965   2
   4   1   4 53.0704 52.4386   2
   4  -1   5 107.575 68.9522   2
  -4  -1  -6 81.2430 70.5187   2
  -4   2   9 850.793 82.7238   2
  -4   2   8 87.6531 73.2248   2
  -4  -2   7 1609.47 85.8693   2
  -4  -2   6 13.8866 62.3053   2
  -4   2   5 1296.49 54.8784   2
  -4  -2   4 337.186 47.2902   2
  -4   2   3 390.278 53.7731   2
  -4   2   2 3471.93 106.486   2
   4   2  -1 4129.32 91.8608   2
   4   2   0 4057.71 80.7177   2
  -4   2  -1 347.589 58.6619   2
   4   2   2 1335.52 73.9925   2
   4   2   3 287.267 80.2048   2
   4  -2   4 158.016 63.8305   2
   4  -2   5 114.178 79.9206   2
  -4   2  -6 326.406 105.935   2
  -4   3   9 623.411 77.7264   2
  -4   3   8 324.632 89.1423   2
  -4   3   7 285.415 81.5214   2
  -4   3   6 568.686 69.2950   2
  -4   3   5 46.1906 69.0976   2
  -4   3   4 128.726 52.0938   2
  -4  -3   3 1280.83 65.4393   2
  -4   3   2 534.208 78.5229   2
   4   3  -1 3694.28 108.118   2
   4   3   0 168.697 62.3084   2
   4   3   1-21.5882 54.4757   2
   4   3   2 5026.03 101.393   2
   4  -3   3 461.072 80.3025   2
   4   3   4 389.901 65.7999   2
   4  -3   5 144.040 59.8909   2
  -4   3  -6 79.2074 97.3351   2
  -4   4   9 161.408 66.8926   2
  -4   4   8 125.420 85.2900   2
  -4   4   7 879.507 89.0266   2
  -4   4   6 283.006 83.1293   2
  -4   4   5 218.836 72.6400   2
  -4  -4   4 775.554 74.2658   2
  -4  -4   3 4741.93 95.6914   2
   4   4  -2 1053.74 86.7891   2
  -4   4   1 124.773 73.8123   2
   4   4   0 1132.32 73.7522   2
   4   4   1 1426.96 67.8195   2
   4   4   2 4963.14 103.791   2
   4   4   3 486.448 76.6346   2
   4  -4   4 753.643 79.5396   2
   4  -4   5-22.4831 94.4381   2
  -4   5   9 475.038 72.7520   2
  -4   5   8 22.3070 79.1773   2
  -4   5   7 1183.37 108.163   2
  -4  -5   6 1042.37 101.835   2
  -4   5   5 425.850 76.6270   2
  -4  -5   4 859.814 90.2873   2
  -4   5   3 3247.36 110.832   2
  -4   5   2 6853.81 139.879   2
  -4   5   1 110.371 60.4307   2
  -4   5   0 4006.20 96.4558   2
   4   5   1 3424.17 97.5403   2
   4   5   2 96.8939 64.6946   2
   4   5   3-7.87733 74.9754   2
   4  -5   4 151.407 111.489   2
   4  -5   5 583.127 105.399   2
  -4   6   9 5.40034 78.7975   2
  -4   6   8 63.7859 72.6004   2
  -4   6   7 574.873 88.1435   2
  -4   6   6 433.914 118.263   2
  -4   6   5 2422.57 137.730   2
   4   6  -4 3618.26 406.545   2
  -4   6   3 1919.34 76.2494   2
  -4   6   2 433.986 61.2626   2
  -4   6   1 1541.45 77.8094   2
  -4   6   0 1521.48 149.094   2
  -4   6  -1 7996.78 159.185   2
   4   6   2 5913.30 158.079   2
   4   6   3 82.4828 81.9385   2
   4  -6   4 331.820 112.926   2
   4  -6   5 17.9945 85.1273   2
  -4   7   8 152.123 108.775   2
  -4   7   7 911.166 88.4819   2
  -4   7   6 2379.57 146.693   2
  -4   7   5 234.973 80.5330   2
   4   7  -4 787.883 110.588   2
  -4   7   3 120.666 60.4226   2
  -4   7   2 1078.32 92.4962   2
  -4   7   1 4525.58 135.960   2
  -4   7   0 1423.35 157.524   2
  -4   7  -1 339.068 130.504   2
  -4   7  -2 969.153 110.400   2
   4  -7   3 15.6249 116.928   2
   4  -7   4 473.423 112.213   2
   4  -7   5 49.9149 74.8728   2
  -4   8   8-5.83451 98.9876   2
  -4   8   7 375.493 95.7945   2
  -4   8   6 157.870 77.1635   2
  -4   8   5 755.168 87.7479   2
   4   8  -4 322.105 111.978   2
  -4   8   3 439.847 66.7989   2
  -4   8   2 1362.30 101.946   2
  -4   8   1-12.8179 85.6473   2
  -4   8   0 2366.33 184.212   2
  -4   8  -1-30.6476 147.123   2
  -4   8  -2 896.366 105.160   2
   4  -8   3 590.129 124.219   2
   4  -8   4 142.159 100.134   2
  -4   9   8 100.755 76.2374   2
  -4   9   7 339.466 67.4191   2
  -4   9   6 114.228 72.7398   2
  -4   9   5-19.4544 81.7447   2
  -4   9   4 453.078 84.7833   2
  -4   9   3 157.341 95.0082   2
  -4   9   2 916.570 98.8064   2
  -4   9   1 601.466 105.159   2
  -4   9   0 25.1593 156.411   2
  -4   9  -1 245.095 87.9371   2
  -4   9  -2 804.345 99.8373   2
   4  -9   3 338.215 101.311   2
   4  -9   4 20.9377 81.5500   2
  -4  10   7 276.867 77.6850   2
  -4  10   6 88.0423 67.9423   2
  -4  10   5 15.7649 63.2940   2
   4 -10  -4 141.056 112.917   2
  -4  10   3 153.495 93.8219   2
  -4  10   2 244.701 95.9189   2
  -4  10   1 223.456 102.417   2
  -4  10   0 446.784 156.761   2
  -4  10  -1 145.302 90.3834   2
  -4  10  -2 246.014 87.9010   2
   4 -10   3 213.981 65.5529   2
  -4  11   6 541.512 55.3543   2
  -4  11   5-20.6804 71.4112   2
   4 -11  -4-18.8768 111.689   2
  -4  11   3 47.8700 88.5240   2
  -4  11   2 79.7976 90.8159   2
  -4  11   1 167.974 102.537   2
  -4  11   0 51.9144 153.772   2
  -4  11  -1 74.0771 78.7870   2
  -4  11  -2 180.863 78.1652   2
  -4 -11  -3 149.089 83.4505   2
  -4  12   6 80.9894 117.530   2
  -4  12   5 433.636 69.7017   2
   4 -12  -4 80.2467 83.1468   2
  -4  12   3 17.3926 83.9779   2
  -4  12   2 273.408 96.5771   2
  -4  12   1 56.2012 93.0984   2
  -4  12   0 359.941 150.598   2
  -4  12  -1 89.1711 72.2864   2
  -4  12  -2 124.687 62.2212   2
  -4  13   5 179.011 118.120   2
   4 -13  -4 49.4839 71.7292   2
   4 -13  -3-6.01647 106.251   2
  -4  13   2 110.030 83.6083   2
  -4  13   1 311.855 136.685   2
  -4  13   0-38.3686 128.304   2
  -4  13  -1 12.0745 109.234   2
   4 -14  -3 195.753 67.7078   2
  -4  14   2 142.288 103.419   2
  -4  14   1 118.470 108.455   2
  -4  14   0 121.746 103.324   2
  -5   0   9 17.5941 100.638   2
  -5   0   8 348.404 72.1974   2
  -5   0   7 878.255 86.0414   2
  -5   0   6 13.4355 74.3905   2
  -5   0   5 178.338 88.4848   2
  -5   0   4 873.408 94.5746   2
  -5   0   3 1721.37 94.7191   2
   5   0  -2 504.485 106.062   2
  -5   0   1 183.275 86.1311   2
   5   0   0 4247.82 138.364   2
   5   0   1 958.331 101.811   2
   5   0   2 196.628 93.0332   2
   5   0   3-40.7899 90.4654   2
   5   0   4 1.36406 56.8044   2
  -5   1   9 94.6785 100.105   2
  -5  -1   8 22.2733 61.2607   2
  -5   1   7 53.8877 57.6072   2
  -5   1   6 76.1333 56.0952   2
  -5  -1   5 256.594 63.8420   2
  -5  -1   4 7698.22 101.768   2
  -5   1   3 1354.96 77.2555   2
   5   1  -2 449.591 69.7554   2
  -5  -1   1 228.068 61.5779   2
  -5   1   0 114.940 60.1816   2
   5   1   1 831.009 81.7199   2
   5  -1   2 247.375 78.2417   2
   5  -1   3 148.595 65.3722   2
   5   1   4 92.6742 47.0211   2
  -5   2   9 15.2108 62.3556   2
  -5   2   8 343.417 65.2593   2
  -5  -2   7 1299.29 78.4433   2
  -5  -2   6 1437.37 78.8439   2
  -5  -2   5 230.241 57.9406   2
  -5  -2   4 845.545 59.9823   2
  -5   2   3 200.447 64.1512   2
   5   2  -2 3572.34 121.275   2
   5   2  -1 2987.71 95.4385   2
  -5   2   0 105.759 71.7140   2
   5   2   1 1755.63 94.9209   2
   5   2   2 710.390 82.9802   2
   5  -2   3 528.770 78.5113   2
   5  -2   4 32.4715 51.2962   2
  -5   3   9 644.576 60.6565   2
  -5   3   8 49.6737 58.3629   2
  -5   3   7 304.814 68.8561   2
  -5  -3   6 48.2398 76.6275   2
  -5   3   5 607.219 69.2321   2
  -5  -3   4 2676.89 72.7180   2
   5   3  -3 1867.44 86.9549   2
   5   3  -2 4814.80 108.492   2
   5   3  -1 142.940 68.5086   2
   5   3   0 177.351 73.4144   2
   5   3   1 90.9930 74.0040   2
   5   3   2 57.0719 70.3027   2
   5   3   3 423.557 62.3623   2
   5  -3   4 22.6630 92.5506   2
  -5   4   9 15.9152 84.5174   2
  -5   4   8 558.495 72.3993   2
  -5  -4   7 1177.77 76.4036   2
  -5   4   6 407.605 73.0804   2
  -5  -4   5 51.2109 63.7915   2
  -5  -4   4 107.585 51.4144   2
   5   4  -3 825.298 58.6391   2
  -5   4   2-2.59425 80.6189   2
   5   4  -1 1081.02 80.4444   2
   5   4   0 2799.97 101.789   2
   5   4   1 1902.57 95.0948   2
  -5   4  -2 231.122 62.6539   2
   5   4   3 52.3551 61.5649   2
   5  -4   4 33.1444 86.3492   2
  -5   5   8 24.5788 62.4423   2
  -5   5   7 73.0290 94.2103   2
  -5  -5   6 144.058 69.7079   2
  -5  -5   5 902.959 76.3166   2
  -5  -5   4 3348.78 81.0865   2
   5   5  -3 1133.27 97.9567   2
  -5   5   2 269.835 129.329   2
   5   5  -1 3460.01 102.789   2
   5   5   0 1587.55 85.5787   2
   5   5   1 227.332 70.9560   2
  -5   5  -2 398.535 70.6601   2
   5   5   3 239.699 77.3913   2
   5  -5   4 496.099 97.1015   2
  -5   6   8 28.2936 71.5342   2
  -5   6   7 72.2668 88.4564   2
  -5   6   6 52.0904 80.1778   2
  -5   6   5 185.491 80.1038   2
  -5   6   4 194.424 65.5004   2
   5   6  -3 301.027 88.6168   2
   5   6  -2 87.7664 92.5073   2
  -5   6   1 213.142 92.6266   2
  -5   6   0 965.095 106.344   2
   5   6   1 2878.30 159.516   2
  -5   6  -2 905.694 91.8313   2
   5  -6   3 14.0286 103.011   2
   5  -6   4-63.3334 76.1629   2
  -5   7   8-4.43280 66.9524   2
  -5   7   7 441.987 97.3329   2
  -5   7   6 116.771 79.6401   2
  -5   7   5 163.270 82.4002   2
  -5   7   4 826.846 75.7387   2
  -5   7   3 304.761 95.9350   2
   5   7  -2 2292.76 120.538   2
  -5   7   1 258.578 161.488   2
  -5   7   0 306.634 164.385   2
  -5   7  -1 232.578 140.437   2
  -5   7  -2 106.875 78.5183   2
   5  -7   3 207.081 98.5215   2
  -5   8   8 97.3799 83.9953   2
  -5   8   7 681.837 91.3586   2
  -5   8   6 634.233 83.9697   2
  -5   8   5 165.510 80.0913   2
  -5   8   4 123.378 74.7050   2
  -5   8   3 924.158 105.885   2
   5  -8  -2 361.572 96.6253   2
  -5   8   1 1549.53 198.819   2
  -5   8   0 375.602 154.172   2
  -5   8  -1 290.596 89.0665   2
  -5   8  -2 157.865 76.1633   2
   5  -8   3 126.953 81.2464   2
  -5   9   7 66.5836 70.9215   2
  -5   9   6 115.763 72.0733   2
  -5   9   5 111.130 73.9371   2
  -5   9   4 1876.13 117.236   2
  -5   9   3 1126.18 164.143   2
   5  -9  -2 528.320 97.0098   2
  -5   9   1-42.3934 153.237   2
  -5   9   0 233.132 161.468   2
  -5   9  -1 342.653 83.5408   2
  -5   9  -2 97.0926 62.9991   2
  -5  10   6 104.661 62.3416   2
  -5  10   5 152.916 95.6960   2
  -5  10   4 44.8175 137.892   2
  -5  10   3 947.163 98.6944   2
  -5  10   2 813.555 166.163   2
  -5  10   1 150.452 150.100   2
  -5  10   0 412.069 155.677   2
  -5  10  -1 231.777 119.279   2
  -5  10  -2 25.0585 93.4051   2
  -5  11   6-5.01110 110.916   2
  -5  11   5 64.5827 86.6869   2
  -5  11   4 1559.61 117.766   2
  -5  11   3 386.401 84.3855   2
  -5  11   2 35.1868 136.052   2
  -5  11   1 66.6326 131.645   2
  -5  11   0 8.99107 121.833   2
  -5  11  -1-3.43367 107.752   2
  -5  12   5 157.610 74.3522   2
  -5  12   4 302.653 86.3596   2
  -5  12   3 74.2474 103.698   2
  -5  12   2 46.2303 114.778   2
  -5  12   1 226.776 124.306   2
  -5  12   0-4.02723 110.181   2
  -5  13   3-7.85856 69.9642   2
  -5  13   2 172.323 93.4623   2
  -5  13   1 52.8693 91.7683   2
  -6   0   9 554.723 103.059   2
  -6   0   8 514.566 128.789   2
  -6   0   7 266.909 95.2103   2
  -6   0   6 1123.36 115.384   2
  -6   0   5 2517.70 169.023   2
  -6   0   4 7449.50 205.678   2
   6   0  -3 818.254 168.709   2
  -6   0   2 349.445 98.9080   2
   6   0  -1 2001.06 122.826   2
   6   0   0 19.0086 131.676   2
   6   0   1 234.629 130.107   2
   6   0   2 41.0923 118.834   2
   6   0   3 337.492 66.5084   2
  -6   1   9 39.8088 89.9252   2
  -6  -1   8 373.502 69.8862   2
  -6  -1   7 675.578 82.6247   2
  -6  -1   6 1562.94 96.4717   2
  -6  -1   5 2530.15 105.053   2
  -6   1   4 4551.56 177.455   2
   6   1  -3 111.840 85.6739   2
   6  -1  -2 153.273 80.5602   2
   6   1  -1 968.601 90.9039   2
  -6   1   0 999.091 88.1723   2
   6   1   1 366.942 95.1111   2
   6   1   2 204.418 83.3234   2
   6   1   3 68.5434 52.6426   2
  -6   2   9 65.9018 90.7340   2
  -6  -2   8 463.819 70.1362   2
  -6  -2   7 104.651 72.0279   2
  -6  -2   6 229.240 76.1854   2
  -6  -2   5 1163.47 89.0241   2
  -6   2   4 58.5019 83.8728   2
   6   2  -3 1044.41 105.694   2
   6   2  -2 1844.46 100.352   2
  -6   2   1 151.402 77.7610   2
  -6   2   0 139.586 77.1227   2
   6   2   1 36.0242 69.8862   2
   6   2   2 388.580 86.7410   2
   6   2   3 25.4107 50.1168   2
  -6   3   8 153.249 76.7860   2
  -6  -3   7 352.511 77.0494   2
  -6  -3   6 244.407 75.3961   2
  -6  -3   5 161.933 74.9424   2
   6   3  -4 2096.15 99.8662   2
   6   3  -3 1188.87 82.9618   2
  -6   3   2 35.3877 75.1395   2
  -6   3   1 140.921 76.4543   2
  -6   3   0 37.6508 71.9152   2
  -6   3  -1 558.711 76.7363   2
   6   3   2 160.111 77.7906   2
   6   3   3 30.4405 47.7606   2
  -6   4   8-24.6529 71.3424   2
  -6   4   7 78.8203 86.1561   2
  -6  -4   6 19.4094 69.6840   2
  -6  -4   5 1202.90 78.1497   2
   6   4  -4 467.918 68.6123   2
  -6   4   3 287.742 65.7804   2
  -6   4   2 111.478 75.3247   2
  -6   4   1 384.166 76.3206   2
  -6   4   0 184.213 72.5821   2
  -6   4  -1 39.6951 66.6322   2
   6   4   2 78.5717 66.4830   2
   6  -4   3 70.8395 80.7104   2
  -6   5   8 438.355 77.1583   2
  -6   5   7 3.06059 85.0418   2
  -6   5   6-10.8393 86.8077   2
  -6   5   5 212.395 81.1061   2
  -6   5   4 439.248 71.9965   2
  -6   5   3 357.844 80.8859   2
  -6   5   2 90.1282 69.3668   2
  -6   5   1 71.3267 70.5011   2
  -6   5   0 144.393 70.4823   2
  -6   5  -1 10.7299 58.3481   2
   6   5   2 121.349 69.9494   2
   6  -5   3 52.5399 75.0914   2
  -6   6   8 4.55453 64.0917   2
  -6   6   7 84.8167 81.6817   2
  -6   6   6 62.5917 75.9011   2
  -6   6   5 695.306 87.6483   2
  -6   6   4 372.215 79.2373   2
  -6   6   3 33.5613 75.0241   2
  -6   6   2 21.3426 72.2674   2
  -6   6   1 34.4134 86.7367   2
  -6   6   0-7.63227 81.0860   2
  -6   6  -1 14.3741 68.5379   2
   6  -6   2 87.3591 93.3815   2
  -6   7   7 228.795 74.8245   2
  -6   7   6 170.518 73.2341   2
  -6   7   5 13.8387 75.3908   2
  -6   7   4 1001.79 75.5201   2
  -6   7   3 121.931 76.4686   2
  -6   7   2 175.163 72.8126   2
  -6   7   1 299.655 154.180   2
  -6   7   0 44.2558 131.546   2
  -6   7  -1 295.685 113.028   2
   6  -7   2 27.0965 81.1395   2
  -6   8   7 140.529 68.4453   2
  -6   8   6-2.79099 66.3336   2
  -6   8   5 722.600 101.973   2
  -6   8   4 58.0199 73.5887   2
  -6   8   3 64.3863 90.9060   2
  -6   8   2 115.168 89.0554   2
  -6   8   1-19.3243 132.086   2
  -6   8   0 52.8156 122.276   2
  -6   8  -1-19.6835 59.5406   2
  -6   9   6 45.0621 76.6875   2
  -6   9   5 267.847 88.7212   2
  -6   9   4 977.680 79.7772   2
  -6   9   3 76.1868 87.5181   2
  -6   9   2 129.800 85.2310   2
  -6   9   1 224.656 127.235   2
  -6   9   0 202.989 114.962   2
  -6   9  -1 34.0025 91.5158   2
  -6  10   6 128.612 88.4729   2
  -6  10   5 78.2962 75.7100   2
  -6  10   4 286.551 88.3061   2
  -6  10   3 91.4092 81.0875   2
  -6  10   2 202.570 81.0889   2
  -6  10   1 116.935 72.9039   2
  -6  10   0-55.0941 100.354   2
  -6  11   5 142.004 90.4164   2
  -6  11   4 789.801 115.594   2
  -6  11   3 66.4923 66.3830   2
  -6  11   2 23.6574 66.6203   2
  -6  11   1 185.840 96.5201   2
  -7   0   8 127.042 90.3779   2
  -7   0   7 227.229 108.619   2
  -7   0   6 159.079 105.927   2
   7   0  -5 584.662 156.320   2
   7   0  -4 38.3620 134.719   2
   7   0  -3 238.153 136.860   2
   7   0  -2 88.4718 126.397   2
   7   0  -1 81.6544 125.198   2
   7   0   0-9.60314 109.426   2
   7   0   1 18.8381 100.831   2
   7   0   2 64.9871 77.9135   2
  -7  -1   8 27.6478 59.6067   2
  -7   1   7 102.280 71.8923   2
  -7   1   6 246.670 68.4217   2
   7   1  -5 184.124 72.7578   2
   7   1  -4-27.8248 92.2128   2
   7   1  -3 34.3644 93.6870   2
   7   1  -2 578.374 100.737   2
   7   1  -1 551.422 96.0241   2
   7   1   0 92.3381 78.7374   2
   7   1   1 149.550 70.8207   2
   7   1   2 68.7275 53.6020   2
  -7   2   8 188.678 92.3209   2
  -7  -2   7 303.126 62.5385   2
   7   2  -6 426.667 66.7294   2
   7   2  -5 157.647 83.9806   2
   7   2  -4 190.160 94.3551   2
   7   2  -3 22.6810 91.7365   2
   7   2  -2 274.185 76.0567   2
   7   2  -1 16.0623 84.2923   2
   7   2   0 193.735 80.2685   2
   7   2   1 463.411 76.3281   2
  -7   3   8 431.209 95.9767   2
  -7   3   7 273.413 108.098   2
  -7   3   6 89.2744 111.939   2
   7   3  -5 31.7846 79.7707   2
   7   3  -4 154.617 89.0737   2
  -7   3   3 628.396 80.0419   2
  -7   3   2 384.401 76.6951   2
  -7   3   1 282.955 70.6083   2
   7   3   0 136.609 75.7191   2
   7   3   1-6.21938 61.9629   2
  -7   4   7 484.204 109.186   2
  -7   4   6 355.737 113.544   2
  -7   4   5 633.156 127.144   2
   7   4  -4 61.8472 56.8141   2
  -7   4   3 38.7320 66.7928   2
  -7   4   2 199.204 68.4049   2
   7   4  -1 122.937 66.9319   2
  -7   4   0 135.612 59.6181   2
   7   4   1 175.778 58.6947   2
  -7   5   7 46.0949 92.1498   2
  -7   5   6 69.1266 108.137   2
  -7   5   5 187.070 83.7619   2
  -7   5   4 292.160 70.6954   2
  -7   5   3 85.5090 87.3568   2
  -7   5   2 695.819 95.0596   2
  -7   5   1 486.145 65.5919   2
  -7   5   0 15.6102 52.1293   2
   7  -5   1 169.868 82.3770   2
  -7   6   7 141.213 85.5787   2
   7  -6  -6 320.784 77.2336   2
   7  -6  -5 452.277 82.9103   2
  -7   6   4 16.1491 62.6648   2
  -7   6   3 98.4197 77.6945   2
   7  -6  -2 109.029 78.7008   2
  -7   6   1 83.1573 68.2723   2
  -7   6   0 118.057 103.021   2
   7  -7  -6-5.42657 64.6823   2
   7  -7  -5 81.5989 68.0431   2
  -7   7   4 66.5171 58.5882   2
  -7   7   3 269.545 74.8407   2
  -7   7   2 122.402 112.560   2
  -7   7   1 114.007 112.861   2
  -7   7   0 257.113 59.7485   2
  -7   8   5 25.6764 92.7387   2
  -7   8   4 89.0182 67.6195   2
  -7   8   3-60.2395 103.834   2
  -7   8   2 34.4760 102.602   2
  -7   8   1 14.3135 94.9299   2
  -7   9   3-33.2172 90.5543   2
  -7   9   2 318.828 96.2017   2
   8   0  -6 16.9209 90.9100   2
   8   0  -5 180.357 103.099   2
   8   0  -4 40.8366 102.357   2
   8   0  -3 112.245 105.845   2
   8   0  -2 508.522 112.172   2
   8   0  -1 83.7761 85.8042   2
   8   1  -6 212.330 65.5306   2
   8   1  -5 272.494 74.2598   2
   8   1  -4 289.824 76.8718   2
   8   1  -3 157.924 74.1343   2
   8   1  -2 11.6166 68.8618   2
   8   1  -1 43.1363 62.7591   2
   8  -2  -6 79.5968 94.8348   2
   8   2  -5 6.09033 68.2796   2
   8  -2  -4 62.1293 68.7030   2
   8  -2  -3 134.375 69.4372   2
   8   2  -2 79.3065 68.3665   2
   8   2  -1 148.129 61.7155   2
   8  -3  -6 42.8500 88.5221   2
   8  -3  -5 200.553 101.771   2
   8   3  -4 363.542 71.4863   2
   8   3  -3 57.2973 64.5870   2
   8  -3  -2 76.5619 65.1010   2
   8  -3  -1 118.106 81.6553   2
   8  -4  -6 13.2584 82.8133   2
   8  -4  -5 49.1098 94.7438   2
   8  -4  -4 4.79675 91.0810   2
   8  -4  -3 7.69144 88.9205   2
   8  -4  -2 118.974 85.9264   2
   8  -5  -5 357.205 89.3673   2
   8  -5  -4 130.244 83.9335   2
   8  -5  -3 162.023 87.8684   2
;
_shelx_hkl_checksum              13995
loop_
_space_group_symop_operation_xyz
'x, y, z'
'-x, y+1/2, -z'
'-x, -y, -z'
'x, -y-1/2, z'
loop_
_atom_site_label
_atom_site_type_symbol
_atom_site_fract_x
_atom_site_fract_y
_atom_site_fract_z
_atom_site_U_iso_or_equiv
_atom_site_adp_type
_atom_site_occupancy
_atom_site_site_symmetry_order
_atom_site_calc_flag
_atom_site_refinement_flags_posn
_atom_site_refinement_flags_adp
_atom_site_refinement_flags_occupancy
_atom_site_disorder_assembly
_atom_site_disorder_group
Cl1 Cl 0.8899(4) 0.4533(2) 0.8253(4) 0.0809(10) Uani 0.447(3) 1 d . . P A 1
P1 P 0.6957(3) 0.250000 0.5683(2) 0.0629(6) Uani 1 2 d S T P A .
Cl2 Cl 0.774(3) 0.250000 0.180(3) 0.106(9) Uani 0.106(6) 2 d S TU P A 3
C1 C 0.5620(7) 0.3471(3) 0.6288(5) 0.0578(11) Uani 1 1 d . . . . .
C2 C 0.6506(9) 0.4274(4) 0.7369(6) 0.0789(15) Uani 1 1 d . . . . .
H2 H 0.789621 0.435254 0.780550 0.095 Uiso 0.5532 1 calc R U P A 2
C3 C 0.5356(12) 0.4946(4) 0.7796(7) 0.0894(18) Uani 1 1 d . . . . .
H3 H 0.597592 0.546688 0.853116 0.107 Uiso 1 1 calc R U . . .
C4 C 0.3306(12) 0.4853(4) 0.7144(8) 0.0913(18) Uani 1 1 d . . . . .
H4 H 0.253501 0.531496 0.742439 0.110 Uiso 1 1 calc R U . . .
C5 C 0.2379(9) 0.4075(3) 0.6070(6) 0.0736(13) Uani 1 1 d . . . . .
H5 H 0.098551 0.400901 0.563359 0.088 Uiso 1 1 calc R U . . .
C6 C 0.3520(7) 0.3399(3) 0.5647(5) 0.0565(10) Uani 1 1 d . . . . .
C7 C 0.2586(9) 0.250000 0.4521(7) 0.0547(14) Uani 1 2 d S T P . .
H7 H 0.111602 0.250000 0.412883 0.066 Uiso 1 2 calc R U P . .
C8 C 0.3211(10) 0.250000 0.2937(7) 0.0564(14) Uani 1 2 d S T P A .
C9 C 0.1879(11) 0.250000 0.1187(8) 0.0703(18) Uani 1 2 d S T P . .
H9 H 0.049854 0.250000 0.090671 0.084 Uiso 1 2 calc R U P . .
C10 C 0.2593(13) 0.250000 -0.0154(9) 0.076(2) Uani 1 2 d S T P A .
H10 H 0.168248 0.250000 -0.133060 0.092 Uiso 1 2 calc R U P . .
C11 C 0.4574(14) 0.250000 0.0214(9) 0.078(2) Uani 1 2 d S T P . .
H11 H 0.503131 0.250000 -0.070126 0.093 Uiso 1 2 calc R U P A 3
C12 C 0.5951(12) 0.250000 0.1980(9) 0.0712(18) Uani 1 2 d S TU P A .
H12 H 0.732673 0.250000 0.223977 0.085 Uiso 0.894(6) 2 calc R U P A 4
C13 C 0.5276(9) 0.250000 0.3331(7) 0.0558(14) Uani 1 2 d S T P . .
loop_
_atom_site_aniso_label
_atom_site_aniso_U_11
_atom_site_aniso_U_22
_atom_site_aniso_U_33
_atom_site_aniso_U_23
_atom_site_aniso_U_13
_atom_site_aniso_U_12
Cl1 0.0753(17) 0.0809(19) 0.0786(17) -0.0148(14) 0.0216(13) -0.0084(14)
P1 0.0649(10) 0.0752(11) 0.0514(9) 0.000 0.0256(7) 0.000
Cl2 0.084(10) 0.16(2) 0.088(14) 0.000 0.047(10) 0.000
C1 0.081(3) 0.052(2) 0.042(2) 0.0005(17) 0.0270(19) -0.009(2)
C2 0.109(4) 0.073(3) 0.053(3) -0.004(2) 0.030(3) -0.030(3)
C3 0.158(6) 0.053(3) 0.066(3) -0.009(2) 0.054(4) -0.014(3)
C4 0.154(6) 0.054(3) 0.085(4) 0.000(3) 0.068(4) 0.014(3)
C5 0.103(4) 0.061(3) 0.071(3) 0.009(2) 0.050(3) 0.015(3)
C6 0.078(3) 0.054(2) 0.044(2) 0.0057(17) 0.0311(19) 0.000(2)
C7 0.060(3) 0.058(3) 0.048(3) 0.000 0.023(3) 0.000
C8 0.075(4) 0.050(3) 0.044(3) 0.000 0.023(3) 0.000
C9 0.089(5) 0.066(4) 0.049(4) 0.000 0.020(3) 0.000
C10 0.110(6) 0.070(4) 0.041(3) 0.000 0.019(3) 0.000
C11 0.130(7) 0.064(4) 0.049(4) 0.000 0.045(4) 0.000
C12 0.107(5) 0.057(4) 0.067(4) 0.000 0.053(4) 0.000
C13 0.075(4) 0.050(3) 0.046(3) 0.000 0.027(3) 0.000
loop_
_atom_type_symbol
_atom_type_description
_atom_type_scat_dispersion_real
_atom_type_scat_dispersion_imag
_atom_type_scat_source
C C 0.0181 0.0091 'International Tables Vol C Tables 4.2.6.8 and 6.1.1.4'
H H 0.0000 0.0000 'International Tables Vol C Tables 4.2.6.8 and 6.1.1.4'
P P 0.2955 0.4335 'International Tables Vol C Tables 4.2.6.8 and 6.1.1.4'
Cl Cl 0.3639 0.7018 'International Tables Vol C Tables 4.2.6.8 and 6.1.1.4'
loop_
_geom_angle_atom_site_label_1
_geom_angle_atom_site_label_2
_geom_angle_atom_site_label_3
_geom_angle
_geom_angle_site_symmetry_1
_geom_angle_site_symmetry_3
_geom_angle_publ_flag
C1 P1 C1 94.0(3) 4_565 . ?
C1 P1 C13 94.80(19) 4_565 . ?
C1 P1 C13 94.80(19) . . ?
C12 Cl2 C11 39.8(7) . . ?
C6 C1 C2 116.8(4) . . ?
C6 C1 P1 117.1(3) . . ?
C2 C1 P1 126.1(4) . . ?
C3 C2 C1 121.2(5) . . ?
C3 C2 Cl1 112.3(5) . . ?
C1 C2 Cl1 126.5(5) . . ?
C3 C2 H2 119.4 . . ?
C1 C2 H2 119.4 . . ?
C4 C3 C2 120.4(5) . . ?
C4 C3 H3 119.8 . . ?
C2 C3 H3 119.8 . . ?
C3 C4 C5 120.1(5) . . ?
C3 C4 H4 120.0 . . ?
C5 C4 H4 120.0 . . ?
C6 C5 C4 119.8(5) . . ?
C6 C5 H5 120.1 . . ?
C4 C5 H5 120.1 . . ?
C5 C6 C1 121.7(4) . . ?
C5 C6 C7 122.2(4) . . ?
C1 C6 C7 116.0(4) . . ?
C8 C7 C6 107.7(3) . . ?
C8 C7 C6 107.7(3) . 4_565 ?
C6 C7 C6 107.6(4) . 4_565 ?
C8 C7 H7 111.2 . . ?
C6 C7 H7 111.2 . . ?
C6 C7 H7 111.2 4_565 . ?
C9 C8 C13 119.1(6) . . ?
C9 C8 C7 124.4(6) . . ?
C13 C8 C7 116.5(5) . . ?
C8 C9 C10 120.1(7) . . ?
C8 C9 H9 120.0 . . ?
C10 C9 H9 120.0 . . ?
C11 C10 C9 121.1(6) . . ?
C11 C10 H10 119.4 . . ?
C9 C10 H10 119.4 . . ?
C10 C11 C12 119.7(6) . . ?
C10 C11 Cl2 158.0(7) . . ?
C12 C11 Cl2 38.3(6) . . ?
C10 C11 H11 120.1 . . ?
C12 C11 H11 120.1 . . ?
Cl2 C11 H11 81.8 . . ?
Cl2 C12 C13 137.9(11) . . ?
Cl2 C12 C11 101.9(10) . . ?
C13 C12 C11 120.2(7) . . ?
C13 C12 H12 119.9 . . ?
C11 C12 H12 119.9 . . ?
C12 C13 C8 119.8(6) . . ?
C12 C13 P1 123.5(5) . . ?
C8 C13 P1 116.8(4) . . ?
loop_
_geom_bond_atom_site_label_1
_geom_bond_atom_site_label_2
_geom_bond_distance
_geom_bond_site_symmetry_2
_geom_bond_publ_flag
Cl1 C2 1.629(6) . ?
P1 C1 1.826(5) 4_565 ?
P1 C1 1.826(5) . ?
P1 C13 1.831(6) . ?
Cl2 C12 1.35(2) . ?
Cl2 C11 2.14(2) . ?
C1 C6 1.399(6) . ?
C1 C2 1.403(6) . ?
C2 C3 1.376(8) . ?
C2 H2 0.9300 . ?
C3 C4 1.367(9) . ?
C3 H3 0.9300 . ?
C4 C5 1.381(8) . ?
C4 H4 0.9300 . ?
C5 C6 1.373(6) . ?
C5 H5 0.9300 . ?
C6 C7 1.532(5) . ?
C7 C8 1.532(8) . ?
C7 H7 0.9800 . ?
C8 C9 1.379(9) . ?
C8 C13 1.396(9) . ?
C9 C10 1.384(10) . ?
C9 H9 0.9300 . ?
C10 C11 1.340(11) . ?
C10 H10 0.9300 . ?
C11 C12 1.398(11) . ?
C11 H11 0.9300 . ?
C12 C13 1.373(8) . ?
C12 H12 0.9300 . ?
loop_
_geom_torsion_atom_site_label_1
_geom_torsion_atom_site_label_2
_geom_torsion_atom_site_label_3
_geom_torsion_atom_site_label_4
_geom_torsion
_geom_torsion_site_symmetry_1
_geom_torsion_site_symmetry_2
_geom_torsion_site_symmetry_3
_geom_torsion_site_symmetry_4
_geom_torsion_publ_flag
C1 P1 C1 C6 -48.3(4) 4_565 . . . ?
C13 P1 C1 C6 46.8(3) . . . . ?
C1 P1 C1 C2 130.3(3) 4_565 . . . ?
C13 P1 C1 C2 -134.6(4) . . . . ?
C6 C1 C2 C3 1.1(6) . . . . ?
P1 C1 C2 C3 -177.6(4) . . . . ?
C6 C1 C2 Cl1 -179.0(4) . . . . ?
P1 C1 C2 Cl1 2.4(6) . . . . ?
C1 C2 C3 C4 -1.1(8) . . . . ?
Cl1 C2 C3 C4 178.9(4) . . . . ?
C2 C3 C4 C5 0.8(8) . . . . ?
C3 C4 C5 C6 -0.5(7) . . . . ?
C4 C5 C6 C1 0.5(6) . . . . ?
C4 C5 C6 C7 177.6(4) . . . . ?
C2 C1 C6 C5 -0.7(6) . . . . ?
P1 C1 C6 C5 178.0(3) . . . . ?
C2 C1 C6 C7 -178.0(4) . . . . ?
P1 C1 C6 C7 0.7(5) . . . . ?
C5 C6 C7 C8 124.5(5) . . . . ?
C1 C6 C7 C8 -58.3(5) . . . . ?
C5 C6 C7 C6 -119.6(4) . . . 4_565 ?
C1 C6 C7 C6 57.6(5) . . . 4_565 ?
C6 C7 C8 C9 -122.1(3) . . . . ?
C6 C7 C8 C9 122.1(3) 4_565 . . . ?
C6 C7 C8 C13 57.9(3) . . . . ?
C6 C7 C8 C13 -57.9(3) 4_565 . . . ?
C13 C8 C9 C10 0.000(1) . . . . ?
C7 C8 C9 C10 180.000(1) . . . . ?
C8 C9 C10 C11 0.000(1) . . . . ?
C9 C10 C11 C12 0.000(1) . . . . ?
C9 C10 C11 Cl2 0.000(3) . . . . ?
C11 Cl2 C12 C13 180.000(1) . . . . ?
C10 C11 C12 Cl2 180.000(1) . . . . ?
C10 C11 C12 C13 0.000(1) . . . . ?
Cl2 C11 C12 C13 180.000(1) . . . . ?
Cl2 C12 C13 C8 180.000(1) . . . . ?
C11 C12 C13 C8 0.000(1) . . . . ?
Cl2 C12 C13 P1 0.000(1) . . . . ?
C11 C12 C13 P1 180.000(0) . . . . ?
C9 C8 C13 C12 0.000(1) . . . . ?
C7 C8 C13 C12 180.000(1) . . . . ?
C9 C8 C13 P1 180.000(1) . . . . ?
C7 C8 C13 P1 0.000(1) . . . . ?
C1 P1 C13 C12 -132.79(13) 4_565 . . . ?
C1 P1 C13 C12 132.79(13) . . . . ?
C1 P1 C13 C8 47.21(13) 4_565 . . . ?
C1 P1 C13 C8 -47.21(13) . . . . ?
