#------------------------------------------------------------------------------
#$Date: 2021-03-05 04:04:50 +0200 (Fri, 05 Mar 2021) $
#$Revision: 262642 $
#$URL: file:///home/coder/svn-repositories/cod/cif/7/70/65/7706501.cif $
#------------------------------------------------------------------------------
#
# This file is available in the Crystallography Open Database (COD),
# http://www.crystallography.net/
#
# All data on this site have been placed in the public domain by the
# contributors.
#
data_7706501
loop_
_publ_author_name
'Khalaniya, R. A.'
'Sobolev, A. V.'
'Verchenko, V. Yu'
'Tsirlin, A. A.'
'Senyshyn, A.'
'Damay, F.'
'Presniakov, I. A.'
'Shevelkov, A. V.'
_publ_section_title
;
 Magnetic structures of Fe<sub>32+\d</sub>Ge<sub>33</sub>As<sub>2</sub>
 and Fe<sub>32+\d'</sub>Ge<sub>35-x</sub>P<sub>x</sub> intermetallic
 compounds: a neutron diffraction and <sup>57</sup>Fe M\"ossbauer
 spectroscopy study.
;
_journal_issue                   6
_journal_name_full
'Dalton transactions (Cambridge, England : 2003)'
_journal_page_first              2210
_journal_page_last               2220
_journal_paper_doi               10.1039/d0dt03923c
_journal_volume                  50
_journal_year                    2021
_chemical_formula_moiety         'Fe32.417 Ge32.513 P2.487'
_chemical_formula_sum            'Fe32.417 Ge32.513 P2.487'
_chemical_formula_weight         4247.5
_space_group_IT_number           191
_space_group_name_Hall           '-P 6 2'
_space_group_name_H-M_alt        'P 6/m m m'
_symmetry_cell_setting           hexagonal
_symmetry_Int_Tables_number      191
_symmetry_space_group_name_Hall  '-P 6 2'
_symmetry_space_group_name_H-M   'P 6/m m m'
_audit_creation_method           'Jana2006 Version : 25/04/2020'
_audit_update_record
;
2020-11-10 deposited with the CCDC.	2021-01-11 downloaded from the CCDC.
;
_cell_angle_alpha                90
_cell_angle_beta                 90
_cell_angle_gamma                120
_cell_formula_units_Z            1
_cell_length_a                   11.88035(9)
_cell_length_b                   11.88035(9)
_cell_length_c                   7.48750(8)
_cell_measurement_temperature    4
_cell_volume                     915.221(14)
_diffrn_ambient_temperature      4
_diffrn_detector_type            '80 position-sensitive 3He tubes'
_diffrn_measurement_device       'high resolution powder diffractometer'
_diffrn_measurement_device_type  'SPODI high resolution powder diffractometer'
_diffrn_radiation_monochromator  'Ge (551) monochromator'
_diffrn_radiation_probe          neutron
_diffrn_radiation_type           neutron
_diffrn_radiation_wavelength     1.5482
_exptl_absorpt_coefficient_mu    0.015
_exptl_crystal_density_diffrn    7.7066
_exptl_crystal_description       powder
_exptl_crystal_F_000             585.209
_pd_instr_location               ' ?'
_pd_meas_2theta_range_inc        0.05
_pd_meas_2theta_range_max        151.900
_pd_meas_2theta_range_min        0.950
_pd_meas_number_of_points        3020
_pd_proc_2theta_range_inc        0.05
_pd_proc_2theta_range_max        151.9
_pd_proc_2theta_range_min        6.05
_pd_proc_ls_background_function  '10 Legendre polynoms'
_pd_proc_ls_pref_orient_corr     none
_pd_proc_ls_profile_function     Gaussian
_pd_proc_ls_prof_R_factor        0.0327
_pd_proc_ls_prof_wR_expected     0.0145
_pd_proc_ls_prof_wR_factor       0.0398
_refine_ls_goodness_of_fit_all   2.74
_refine_ls_number_constraints    0
_refine_ls_number_parameters     60
_refine_ls_number_restraints     0
_refine_ls_R_factor_all          0.0201
_refine_ls_R_factor_gt           0.0199
_refine_ls_shift/su_max          0.0135
_refine_ls_shift/su_mean         0.0033
_refine_ls_weighting_scheme      sigma
_refine_ls_wR_factor_all         0.0273
_refine_ls_wR_factor_gt          0.0273
_cod_data_source_file            d0dt03923c2.cif
_cod_data_source_block           Fe32p5Ge32P3_4K
_cod_depositor_comments
'Adding full bibliography for 7706499--7706504.cif.'
_cod_original_cell_volume        915.220(14)
_cod_original_sg_symbol_Hall     '-P 6;-2'
_cod_database_code               7706501
loop_
_space_group_symop_id
_space_group_symop_operation_xyz
1 x,y,z
2 -y,x-y,z
3 -x+y,-x,z
4 -x,-y,z
5 y,-x+y,z
6 x-y,x,z
7 y,x,-z
8 x-y,-y,-z
9 -x,-x+y,-z
10 -y,-x,-z
11 -x+y,y,-z
12 x,x-y,-z
13 -x,-y,-z
14 y,-x+y,-z
15 x-y,x,-z
16 x,y,-z
17 -y,x-y,-z
18 -x+y,-x,-z
19 -y,-x,z
20 -x+y,y,z
21 x,x-y,z
22 y,x,z
23 x-y,-y,z
24 -x,-x+y,z
loop_
_atom_site_label
_atom_site_type_symbol
_atom_site_fract_x
_atom_site_fract_y
_atom_site_fract_z
_atom_site_adp_type
_atom_site_U_iso_or_equiv
_atom_site_site_symmetry_multiplicity
_atom_site_occupancy
_atom_site_calc_flag
_atom_site_refinement_flags
_atom_site_disorder_assembly
_atom_site_disorder_group
Ge0 Ge 0 0 0.1626(5) Uani 0.0107(10) 2 1 d . . .
Ge1 Ge 0.232404 0 0.5 Uani 0.0046(8) 6 0.59(2) d . . .
P1 P 0.232404 0 0.5 Uani 0.0046(8) 6 0.41(2) d . . .
Fe1 Fe 0.21101(7) 0.42202(14) 0.5 Uani 0.0027(5) 6 1 d . . .
Ge2 Ge 0.43138(9) 0.56862(9) 0.5 Uani 0.0058(6) 6 1 d . . .
Ge3 Ge 0.24422(6) 0.48845(12) 0.19586(16) Uani 0.0093(4) 12 1 d . . .
Ge4 Ge 0.27061(14) 0 0 Uani 0.0062(6) 6 1 d . . .
Fe2 Fe 0.333333 0.666667 0 Uani 0.0065(7) 2 1 d . . .
Fe3 Fe 0.38452(8) 0.38452(8) 0.28101(16) Uani 0.0052(3) 12 1 d . . .
Ge5 Ge -0.0464(4) 0.4768(2) 0 Uani 0.0213 6 0.5 d . . .
Fe4 Fe 0.12290(5) 0.24580(10) 0.24128(18) Uani 0.0077(4) 12 1 d . . .
Fe5 Fe 0 0 0.5 Uani 0.028(4) 1 0.42(2) d . . .
loop_
_atom_site_aniso_label
_atom_site_aniso_type_symbol
_atom_site_aniso_U_11
_atom_site_aniso_U_22
_atom_site_aniso_U_33
_atom_site_aniso_U_12
_atom_site_aniso_U_13
_atom_site_aniso_U_23
Ge0 Ge 0.0077(10) 0.0077(10) 0.017(2) 0.0038(5) 0 0
Ge1 Ge 0.0063(9) 0.0039(11) 0.0029(10) 0.0020(6) 0 0
P1 P 0.0063(9) 0.0039(11) 0.0029(10) 0.0020(6) 0 0
Fe1 Fe 0.0022(5) 0.0023(7) 0.0037(8) 0.0012(3) 0 0
Ge2 Ge 0.0030(6) 0.0030(6) 0.0072(9) -0.0016(8) 0 0
Ge3 Ge 0.0162(5) 0.0037(6) 0.0038(6) 0.0018(3) 0.0007(2) 0.0015(4)
Ge4 Ge 0.0085(7) 0.0087(9) 0.0015(9) 0.0043(4) 0 0
Fe2 Fe 0.0082(9) 0.0082(9) 0.0031(14) 0.0041(4) 0 0
Fe3 Fe 0.0037(4) 0.0037(4) 0.0086(6) 0.0020(4) 0.0024(4) 0.0024(4)
Ge5 Ge 0.05 0.02 0.004 0.025 0 0
Fe4 Fe 0.0045(3) 0.0066(5) 0.0126(6) 0.0033(3) -0.0012(2) -0.0024(5)
Fe5 Fe 0.039(6) 0.039(6) 0.006(6) 0.019(3) 0 0
loop_
_atom_type_symbol
_atom_type_scat_length_neutron
_atom_type_scat_source
Fe 9.450 International_Tables_Vol_C
Ge 8.185 International_Tables_Vol_C
P 5.130 International_Tables_Vol_C
loop_
_exptl_crystal_face_index_h
_exptl_crystal_face_index_k
_exptl_crystal_face_index_l
_exptl_crystal_face_perp_dist
? ? ? ?
loop_
_geom_angle_atom_site_label_1
_geom_angle_atom_site_label_2
_geom_angle_atom_site_label_3
_geom_angle_site_symmetry_1
_geom_angle_site_symmetry_2
_geom_angle_site_symmetry_3
_geom_angle
_geom_angle_publ_flag
Ge0 Ge0 Fe4 7_555 . . 103.11(8) ?
Ge0 Ge0 Fe4 7_555 . 2_555 103.11(8) ?
Ge0 Ge0 Fe4 7_555 . 3_555 103.11(8) ?
Ge0 Ge0 Fe4 7_555 . 4_555 103.11(8) ?
Ge0 Ge0 Fe4 7_555 . 5_555 103.11(8) ?
Ge0 Ge0 Fe4 7_555 . 6_555 103.11(8) ?
Ge0 Ge0 Fe5 7_555 . . 180 ?
Fe4 Ge0 Fe4 . . 2_555 115.01(6) ?
Fe4 Ge0 Fe4 . . 3_555 115.01(6) ?
Fe4 Ge0 Fe4 . . 4_555 153.78(15) ?
Fe4 Ge0 Fe4 . . 5_555 58.28(4) ?
Fe4 Ge0 Fe4 . . 6_555 58.28(3) ?
Fe4 Ge0 Fe5 . . . 76.89(8) ?
Fe4 Ge0 Fe4 2_555 . 3_555 115.01(7) ?
Fe4 Ge0 Fe4 2_555 . 4_555 58.28(4) ?
Fe4 Ge0 Fe4 2_555 . 5_555 153.78(15) ?
Fe4 Ge0 Fe4 2_555 . 6_555 58.28(4) ?
Fe4 Ge0 Fe5 2_555 . . 76.89(8) ?
Fe4 Ge0 Fe4 3_555 . 4_555 58.28(3) ?
Fe4 Ge0 Fe4 3_555 . 5_555 58.28(4) ?
Fe4 Ge0 Fe4 3_555 . 6_555 153.78(15) ?
Fe4 Ge0 Fe5 3_555 . . 76.89(8) ?
Fe4 Ge0 Fe4 4_555 . 5_555 115.01(6) ?
Fe4 Ge0 Fe4 4_555 . 6_555 115.01(6) ?
Fe4 Ge0 Fe5 4_555 . . 76.89(8) ?
Fe4 Ge0 Fe4 5_555 . 6_555 115.01(7) ?
Fe4 Ge0 Fe5 5_555 . . 76.89(8) ?
Fe4 Ge0 Fe5 6_555 . . 76.89(8) ?
Ge1 Ge1 Ge1 5_555 . 6_555 120.0000(6) ?
Ge1 Ge1 P1 5_555 . . 0 ?
Ge1 Ge1 P1 5_555 . 5_555 0 ?
Ge1 Ge1 P1 5_555 . 6_555 120.0000(6) ?
Ge1 Ge1 Fe1 5_555 . 3_555 54.71(4) ?
Ge1 Ge1 Fe1 5_555 . 5_555 174.71(5) ?
Ge1 Ge1 Fe3 5_555 . 5_555 111.73(2) ?
Ge1 Ge1 Fe3 5_555 . 12_556 111.73(2) ?
Ge1 Ge1 Fe4 5_555 . 3_555 54.59(2) ?
Ge1 Ge1 Fe4 5_555 . 5_555 109.86(2) ?
Ge1 Ge1 Fe4 5_555 . 7_556 109.86(2) ?
Ge1 Ge1 Fe4 5_555 . 12_556 54.59(2) ?
Ge1 Ge1 Fe5 5_555 . . 60.0000(6) ?
Ge1 Ge1 P1 6_555 . . 0 ?
Ge1 Ge1 P1 6_555 . 5_555 120.0000(6) ?
Ge1 Ge1 P1 6_555 . 6_555 0 ?
Ge1 Ge1 Fe1 6_555 . 3_555 174.71(4) ?
Ge1 Ge1 Fe1 6_555 . 5_555 54.71(5) ?
Ge1 Ge1 Fe3 6_555 . 5_555 111.73(3) ?
Ge1 Ge1 Fe3 6_555 . 12_556 111.73(3) ?
Ge1 Ge1 Fe4 6_555 . 3_555 109.86(3) ?
Ge1 Ge1 Fe4 6_555 . 5_555 54.59(3) ?
Ge1 Ge1 Fe4 6_555 . 7_556 54.59(3) ?
Ge1 Ge1 Fe4 6_555 . 12_556 109.86(3) ?
Ge1 Ge1 Fe5 6_555 . . 60.0000(5) ?
P1 Ge1 P1 . . 5_555 0 ?
P1 Ge1 P1 . . 6_555 0 ?
P1 Ge1 Fe1 . . 3_555 0 ?
P1 Ge1 Fe1 . . 5_555 0 ?
P1 Ge1 Fe3 . . 5_555 0 ?
P1 Ge1 Fe3 . . 12_556 0 ?
P1 Ge1 Fe4 . . 3_555 0 ?
P1 Ge1 Fe4 . . 5_555 0 ?
P1 Ge1 Fe4 . . 7_556 0 ?
P1 Ge1 Fe4 . . 12_556 0 ?
P1 Ge1 Fe5 . . . 0 ?
P1 Ge1 P1 5_555 . 6_555 120.0000(6) ?
P1 Ge1 Fe1 5_555 . 3_555 54.71(4) ?
P1 Ge1 Fe1 5_555 . 5_555 174.71(5) ?
P1 Ge1 Fe3 5_555 . 5_555 111.73(2) ?
P1 Ge1 Fe3 5_555 . 12_556 111.73(2) ?
P1 Ge1 Fe4 5_555 . 3_555 54.59(2) ?
P1 Ge1 Fe4 5_555 . 5_555 109.86(2) ?
P1 Ge1 Fe4 5_555 . 7_556 109.86(2) ?
P1 Ge1 Fe4 5_555 . 12_556 54.59(2) ?
P1 Ge1 Fe5 5_555 . . 60.0000(6) ?
P1 Ge1 Fe1 6_555 . 3_555 174.71(4) ?
P1 Ge1 Fe1 6_555 . 5_555 54.71(5) ?
P1 Ge1 Fe3 6_555 . 5_555 111.73(3) ?
P1 Ge1 Fe3 6_555 . 12_556 111.73(3) ?
P1 Ge1 Fe4 6_555 . 3_555 109.86(3) ?
P1 Ge1 Fe4 6_555 . 5_555 54.59(3) ?
P1 Ge1 Fe4 6_555 . 7_556 54.59(3) ?
P1 Ge1 Fe4 6_555 . 12_556 109.86(3) ?
P1 Ge1 Fe5 6_555 . . 60.0000(5) ?
Fe1 Ge1 Fe1 3_555 . 5_555 130.57(7) ?
Fe1 Ge1 Fe3 3_555 . 5_555 71.96(4) ?
Fe1 Ge1 Fe3 3_555 . 12_556 71.96(4) ?
Fe1 Ge1 Fe4 3_555 . 3_555 67.55(3) ?
Fe1 Ge1 Fe4 3_555 . 5_555 125.61(3) ?
Fe1 Ge1 Fe4 3_555 . 7_556 125.61(2) ?
Fe1 Ge1 Fe4 3_555 . 12_556 67.55(4) ?
Fe1 Ge1 Fe5 3_555 . . 114.71(4) ?
Fe1 Ge1 Fe3 5_555 . 5_555 71.96(4) ?
Fe1 Ge1 Fe3 5_555 . 12_556 71.96(4) ?
Fe1 Ge1 Fe4 5_555 . 3_555 125.61(2) ?
Fe1 Ge1 Fe4 5_555 . 5_555 67.55(3) ?
Fe1 Ge1 Fe4 5_555 . 7_556 67.55(3) ?
Fe1 Ge1 Fe4 5_555 . 12_556 125.61(2) ?
Fe1 Ge1 Fe5 5_555 . . 114.71(5) ?
Fe3 Ge1 Fe3 5_555 . 12_556 84.44(4) ?
Fe3 Ge1 Fe4 5_555 . 3_555 68.35(4) ?
Fe3 Ge1 Fe4 5_555 . 5_555 68.35(5) ?
Fe3 Ge1 Fe4 5_555 . 7_556 136.36(3) ?
Fe3 Ge1 Fe4 5_555 . 12_556 136.36(5) ?
Fe3 Ge1 Fe5 5_555 . . 137.78(3) ?
Fe3 Ge1 Fe4 12_556 . 3_555 136.36(4) ?
Fe3 Ge1 Fe4 12_556 . 5_555 136.36(3) ?
Fe3 Ge1 Fe4 12_556 . 7_556 68.35(4) ?
Fe3 Ge1 Fe4 12_556 . 12_556 68.35(3) ?
Fe3 Ge1 Fe5 12_556 . . 137.78(3) ?
Fe4 Ge1 Fe4 3_555 . 5_555 64.10(3) ?
Fe4 Ge1 Fe4 3_555 . 7_556 152.27(4) ?
Fe4 Ge1 Fe4 3_555 . 12_556 108.78(3) ?
Fe4 Ge1 Fe5 3_555 . . 76.14(3) ?
Fe4 Ge1 Fe4 5_555 . 7_556 108.78(4) ?
Fe4 Ge1 Fe4 5_555 . 12_556 152.27(4) ?
Fe4 Ge1 Fe5 5_555 . . 76.14(3) ?
Fe4 Ge1 Fe4 7_556 . 12_556 64.10(4) ?
Fe4 Ge1 Fe5 7_556 . . 76.14(3) ?
Fe4 Ge1 Fe5 12_556 . . 76.14(2) ?
Ge1 P1 Ge1 . . 5_555 0 ?
Ge1 P1 Ge1 . . 6_555 0 ?
Ge1 P1 P1 . . 5_555 0 ?
Ge1 P1 P1 . . 6_555 0 ?
Ge1 P1 Fe1 . . 3_555 0 ?
Ge1 P1 Fe1 . . 5_555 0 ?
Ge1 P1 Fe3 . . 5_555 0 ?
Ge1 P1 Fe3 . . 12_556 0 ?
Ge1 P1 Fe4 . . 3_555 0 ?
Ge1 P1 Fe4 . . 5_555 0 ?
Ge1 P1 Fe4 . . 7_556 0 ?
Ge1 P1 Fe4 . . 12_556 0 ?
Ge1 P1 Fe5 . . . 0 ?
Ge1 P1 Ge1 5_555 . 6_555 120.0000(6) ?
Ge1 P1 P1 5_555 . 5_555 0 ?
Ge1 P1 P1 5_555 . 6_555 120.0000(6) ?
Ge1 P1 Fe1 5_555 . 3_555 54.71(4) ?
Ge1 P1 Fe1 5_555 . 5_555 174.71(5) ?
Ge1 P1 Fe3 5_555 . 5_555 111.73(2) ?
Ge1 P1 Fe3 5_555 . 12_556 111.73(2) ?
Ge1 P1 Fe4 5_555 . 3_555 54.59(2) ?
Ge1 P1 Fe4 5_555 . 5_555 109.86(2) ?
Ge1 P1 Fe4 5_555 . 7_556 109.86(2) ?
Ge1 P1 Fe4 5_555 . 12_556 54.59(2) ?
Ge1 P1 Fe5 5_555 . . 60.0000(6) ?
Ge1 P1 P1 6_555 . 5_555 120.0000(6) ?
Ge1 P1 P1 6_555 . 6_555 0 ?
Ge1 P1 Fe1 6_555 . 3_555 174.71(4) ?
Ge1 P1 Fe1 6_555 . 5_555 54.71(5) ?
Ge1 P1 Fe3 6_555 . 5_555 111.73(3) ?
Ge1 P1 Fe3 6_555 . 12_556 111.73(3) ?
Ge1 P1 Fe4 6_555 . 3_555 109.86(3) ?
Ge1 P1 Fe4 6_555 . 5_555 54.59(3) ?
Ge1 P1 Fe4 6_555 . 7_556 54.59(3) ?
Ge1 P1 Fe4 6_555 . 12_556 109.86(3) ?
Ge1 P1 Fe5 6_555 . . 60.0000(5) ?
P1 P1 P1 5_555 . 6_555 120.0000(6) ?
P1 P1 Fe1 5_555 . 3_555 54.71(4) ?
P1 P1 Fe1 5_555 . 5_555 174.71(5) ?
P1 P1 Fe3 5_555 . 5_555 111.73(2) ?
P1 P1 Fe3 5_555 . 12_556 111.73(2) ?
P1 P1 Fe4 5_555 . 3_555 54.59(2) ?
P1 P1 Fe4 5_555 . 5_555 109.86(2) ?
P1 P1 Fe4 5_555 . 7_556 109.86(2) ?
P1 P1 Fe4 5_555 . 12_556 54.59(2) ?
P1 P1 Fe5 5_555 . . 60.0000(6) ?
P1 P1 Fe1 6_555 . 3_555 174.71(4) ?
P1 P1 Fe1 6_555 . 5_555 54.71(5) ?
P1 P1 Fe3 6_555 . 5_555 111.73(3) ?
P1 P1 Fe3 6_555 . 12_556 111.73(3) ?
P1 P1 Fe4 6_555 . 3_555 109.86(3) ?
P1 P1 Fe4 6_555 . 5_555 54.59(3) ?
P1 P1 Fe4 6_555 . 7_556 54.59(3) ?
P1 P1 Fe4 6_555 . 12_556 109.86(3) ?
P1 P1 Fe5 6_555 . . 60.0000(5) ?
Fe1 P1 Fe1 3_555 . 5_555 130.57(7) ?
Fe1 P1 Fe3 3_555 . 5_555 71.96(4) ?
Fe1 P1 Fe3 3_555 . 12_556 71.96(4) ?
Fe1 P1 Fe4 3_555 . 3_555 67.55(3) ?
Fe1 P1 Fe4 3_555 . 5_555 125.61(3) ?
Fe1 P1 Fe4 3_555 . 7_556 125.61(2) ?
Fe1 P1 Fe4 3_555 . 12_556 67.55(4) ?
Fe1 P1 Fe5 3_555 . . 114.71(4) ?
Fe1 P1 Fe3 5_555 . 5_555 71.96(4) ?
Fe1 P1 Fe3 5_555 . 12_556 71.96(4) ?
Fe1 P1 Fe4 5_555 . 3_555 125.61(2) ?
Fe1 P1 Fe4 5_555 . 5_555 67.55(3) ?
Fe1 P1 Fe4 5_555 . 7_556 67.55(3) ?
Fe1 P1 Fe4 5_555 . 12_556 125.61(2) ?
Fe1 P1 Fe5 5_555 . . 114.71(5) ?
Fe3 P1 Fe3 5_555 . 12_556 84.44(4) ?
Fe3 P1 Fe4 5_555 . 3_555 68.35(4) ?
Fe3 P1 Fe4 5_555 . 5_555 68.35(5) ?
Fe3 P1 Fe4 5_555 . 7_556 136.36(3) ?
Fe3 P1 Fe4 5_555 . 12_556 136.36(5) ?
Fe3 P1 Fe5 5_555 . . 137.78(3) ?
Fe3 P1 Fe4 12_556 . 3_555 136.36(4) ?
Fe3 P1 Fe4 12_556 . 5_555 136.36(3) ?
Fe3 P1 Fe4 12_556 . 7_556 68.35(4) ?
Fe3 P1 Fe4 12_556 . 12_556 68.35(3) ?
Fe3 P1 Fe5 12_556 . . 137.78(3) ?
Fe4 P1 Fe4 3_555 . 5_555 64.10(3) ?
Fe4 P1 Fe4 3_555 . 7_556 152.27(4) ?
Fe4 P1 Fe4 3_555 . 12_556 108.78(3) ?
Fe4 P1 Fe5 3_555 . . 76.14(3) ?
Fe4 P1 Fe4 5_555 . 7_556 108.78(4) ?
Fe4 P1 Fe4 5_555 . 12_556 152.27(4) ?
Fe4 P1 Fe5 5_555 . . 76.14(3) ?
Fe4 P1 Fe4 7_556 . 12_556 64.10(4) ?
Fe4 P1 Fe5 7_556 . . 76.14(3) ?
Fe4 P1 Fe5 12_556 . . 76.14(2) ?
Ge1 Fe1 Ge1 2_555 . 6_555 70.57(4) ?
Ge1 Fe1 P1 2_555 . 2_555 0 ?
Ge1 Fe1 P1 2_555 . 6_555 70.57(4) ?
Ge1 Fe1 Ge2 2_555 . . 166.09(9) ?
Ge1 Fe1 Ge2 2_555 . 3_565 95.52(5) ?
Ge1 Fe1 Ge3 2_555 . . 103.57(2) ?
Ge1 Fe1 Ge3 2_555 . 11_556 103.57(3) ?
Ge1 Fe1 Fe3 2_555 . . 110.73(5) ?
Ge1 Fe1 Fe3 2_555 . 6_555 54.84(2) ?
Ge1 Fe1 Fe3 2_555 . 7_556 110.73(5) ?
Ge1 Fe1 Fe3 2_555 . 11_556 54.84(2) ?
Ge1 Fe1 Fe4 2_555 . . 56.10(3) ?
Ge1 Fe1 Fe4 2_555 . 11_556 56.10(3) ?
Ge1 Fe1 P1 6_555 . 2_555 70.57(4) ?
Ge1 Fe1 P1 6_555 . 6_555 0 ?
Ge1 Fe1 Ge2 6_555 . . 95.52(6) ?
Ge1 Fe1 Ge2 6_555 . 3_565 166.09(4) ?
Ge1 Fe1 Ge3 6_555 . . 103.57(5) ?
Ge1 Fe1 Ge3 6_555 . 11_556 103.57(6) ?
Ge1 Fe1 Fe3 6_555 . . 54.84(4) ?
Ge1 Fe1 Fe3 6_555 . 6_555 110.73(4) ?
Ge1 Fe1 Fe3 6_555 . 7_556 54.84(4) ?
Ge1 Fe1 Fe3 6_555 . 11_556 110.73(4) ?
Ge1 Fe1 Fe4 6_555 . . 56.10(4) ?
Ge1 Fe1 Fe4 6_555 . 11_556 56.10(5) ?
P1 Fe1 P1 2_555 . 6_555 70.57(4) ?
P1 Fe1 Ge2 2_555 . . 166.09(9) ?
P1 Fe1 Ge2 2_555 . 3_565 95.52(5) ?
P1 Fe1 Ge3 2_555 . . 103.57(2) ?
P1 Fe1 Ge3 2_555 . 11_556 103.57(3) ?
P1 Fe1 Fe3 2_555 . . 110.73(5) ?
P1 Fe1 Fe3 2_555 . 6_555 54.84(2) ?
P1 Fe1 Fe3 2_555 . 7_556 110.73(5) ?
P1 Fe1 Fe3 2_555 . 11_556 54.84(2) ?
P1 Fe1 Fe4 2_555 . . 56.10(3) ?
P1 Fe1 Fe4 2_555 . 11_556 56.10(3) ?
P1 Fe1 Ge2 6_555 . . 95.52(6) ?
P1 Fe1 Ge2 6_555 . 3_565 166.09(4) ?
P1 Fe1 Ge3 6_555 . . 103.57(5) ?
P1 Fe1 Ge3 6_555 . 11_556 103.57(6) ?
P1 Fe1 Fe3 6_555 . . 54.84(4) ?
P1 Fe1 Fe3 6_555 . 6_555 110.73(4) ?
P1 Fe1 Fe3 6_555 . 7_556 54.84(4) ?
P1 Fe1 Fe3 6_555 . 11_556 110.73(4) ?
P1 Fe1 Fe4 6_555 . . 56.10(4) ?
P1 Fe1 Fe4 6_555 . 11_556 56.10(5) ?
Ge2 Fe1 Ge2 . . 3_565 98.40(7) ?
Ge2 Fe1 Ge3 . . . 79.17(3) ?
Ge2 Fe1 Ge3 . . 11_556 79.17(4) ?
Ge2 Fe1 Fe3 . . . 58.64(4) ?
Ge2 Fe1 Fe3 . . 6_555 134.27(5) ?
Ge2 Fe1 Fe3 . . 7_556 58.64(4) ?
Ge2 Fe1 Fe3 . . 11_556 134.27(5) ?
Ge2 Fe1 Fe4 . . . 116.52(4) ?
Ge2 Fe1 Fe4 . . 11_556 116.52(5) ?
Ge2 Fe1 Ge3 3_565 . . 79.17(5) ?
Ge2 Fe1 Ge3 3_565 . 11_556 79.17(6) ?
Ge2 Fe1 Fe3 3_565 . . 134.27(4) ?
Ge2 Fe1 Fe3 3_565 . 6_555 58.64(4) ?
Ge2 Fe1 Fe3 3_565 . 7_556 134.27(4) ?
Ge2 Fe1 Fe3 3_565 . 11_556 58.64(4) ?
Ge2 Fe1 Fe4 3_565 . . 116.52(4) ?
Ge2 Fe1 Fe4 3_565 . 11_556 116.52(5) ?
Ge3 Fe1 Ge3 . . 11_556 146.59(8) ?
Ge3 Fe1 Fe3 . . . 59.05(4) ?
Ge3 Fe1 Fe3 . . 6_555 59.05(3) ?
Ge3 Fe1 Fe3 . . 7_556 126.33(5) ?
Ge3 Fe1 Fe3 . . 11_556 126.33(6) ?
Ge3 Fe1 Fe4 . . . 59.81(4) ?
Ge3 Fe1 Fe4 . . 11_556 153.60(7) ?
Ge3 Fe1 Fe3 11_556 . . 126.33(6) ?
Ge3 Fe1 Fe3 11_556 . 6_555 126.33(7) ?
Ge3 Fe1 Fe3 11_556 . 7_556 59.05(5) ?
Ge3 Fe1 Fe3 11_556 . 11_556 59.05(4) ?
Ge3 Fe1 Fe4 11_556 . . 153.60(7) ?
Ge3 Fe1 Fe4 11_556 . 11_556 59.81(4) ?
Fe3 Fe1 Fe3 . . 6_555 107.18(4) ?
Fe3 Fe1 Fe3 . . 7_556 70.59(5) ?
Fe3 Fe1 Fe3 . . 11_556 164.37(6) ?
Fe3 Fe1 Fe4 . . . 59.02(3) ?
Fe3 Fe1 Fe4 . . 11_556 109.20(7) ?
Fe3 Fe1 Fe3 6_555 . 7_556 164.37(6) ?
Fe3 Fe1 Fe3 6_555 . 11_556 70.59(4) ?
Fe3 Fe1 Fe4 6_555 . . 59.02(3) ?
Fe3 Fe1 Fe4 6_555 . 11_556 109.20(4) ?
Fe3 Fe1 Fe3 7_556 . 11_556 107.18(4) ?
Fe3 Fe1 Fe4 7_556 . . 109.20(7) ?
Fe3 Fe1 Fe4 7_556 . 11_556 59.02(4) ?
Fe3 Fe1 Fe4 11_556 . . 109.20(3) ?
Fe3 Fe1 Fe4 11_556 . 11_556 59.02(4) ?
Fe4 Fe1 Fe4 . . 11_556 93.79(6) ?
Fe1 Ge2 Fe1 . . 2_665 141.60(9) ?
Fe1 Ge2 Ge2 . . 4_665 109.20(6) ?
Fe1 Ge2 Ge3 . . . 51.44(2) ?
Fe1 Ge2 Ge3 . . 2_665 112.39(5) ?
Fe1 Ge2 Ge3 . . 10_666 112.39(5) ?
Fe1 Ge2 Ge3 . . 11_556 51.44(3) ?
Fe1 Ge2 Fe3 . . . 71.07(4) ?
Fe1 Ge2 Fe3 . . 4_665 133.39(4) ?
Fe1 Ge2 Fe3 . . 7_556 71.07(4) ?
Fe1 Ge2 Fe3 . . 10_666 133.39(4) ?
Fe1 Ge2 Ge2 2_665 . 4_665 109.20(7) ?
Fe1 Ge2 Ge3 2_665 . . 112.39(5) ?
Fe1 Ge2 Ge3 2_665 . 2_665 51.44(3) ?
Fe1 Ge2 Ge3 2_665 . 10_666 51.44(3) ?
Fe1 Ge2 Ge3 2_665 . 11_556 112.39(5) ?
Fe1 Ge2 Fe3 2_665 . . 133.39(4) ?
Fe1 Ge2 Fe3 2_665 . 4_665 71.07(5) ?
Fe1 Ge2 Fe3 2_665 . 7_556 133.39(4) ?
Fe1 Ge2 Fe3 2_665 . 10_666 71.07(5) ?
Ge2 Ge2 Ge3 4_665 . . 111.63(4) ?
Ge2 Ge2 Ge3 4_665 . 2_665 111.63(4) ?
Ge2 Ge2 Ge3 4_665 . 10_666 111.63(4) ?
Ge2 Ge2 Ge3 4_665 . 11_556 111.63(4) ?
Ge2 Ge2 Fe3 4_665 . . 56.56(4) ?
Ge2 Ge2 Fe3 4_665 . 4_665 56.56(4) ?
Ge2 Ge2 Fe3 4_665 . 7_556 56.56(4) ?
Ge2 Ge2 Fe3 4_665 . 10_666 56.56(4) ?
Ge3 Ge2 Ge3 . . 2_665 64.24(3) ?
Ge3 Ge2 Ge3 . . 10_666 136.74(6) ?
Ge3 Ge2 Ge3 . . 11_556 99.37(4) ?
Ge3 Ge2 Fe3 . . . 55.28(4) ?
Ge3 Ge2 Fe3 . . 4_665 89.99(3) ?
Ge3 Ge2 Fe3 . . 7_556 113.98(4) ?
Ge3 Ge2 Fe3 . . 10_666 167.38(6) ?
Ge3 Ge2 Ge3 2_665 . 10_666 99.37(4) ?
Ge3 Ge2 Ge3 2_665 . 11_556 136.74(7) ?
Ge3 Ge2 Fe3 2_665 . . 89.99(4) ?
Ge3 Ge2 Fe3 2_665 . 4_665 55.28(4) ?
Ge3 Ge2 Fe3 2_665 . 7_556 167.38(6) ?
Ge3 Ge2 Fe3 2_665 . 10_666 113.98(4) ?
Ge3 Ge2 Ge3 10_666 . 11_556 64.24(3) ?
Ge3 Ge2 Fe3 10_666 . . 167.38(6) ?
Ge3 Ge2 Fe3 10_666 . 4_665 113.98(4) ?
Ge3 Ge2 Fe3 10_666 . 7_556 89.99(3) ?
Ge3 Ge2 Fe3 10_666 . 10_666 55.28(4) ?
Ge3 Ge2 Fe3 11_556 . . 113.98(4) ?
Ge3 Ge2 Fe3 11_556 . 4_665 167.38(6) ?
Ge3 Ge2 Fe3 11_556 . 7_556 55.28(4) ?
Ge3 Ge2 Fe3 11_556 . 10_666 89.99(4) ?
Fe3 Ge2 Fe3 . . 4_665 64.75(3) ?
Fe3 Ge2 Fe3 . . 7_556 79.58(5) ?
Fe3 Ge2 Fe3 . . 10_666 113.12(6) ?
Fe3 Ge2 Fe3 4_665 . 7_556 113.12(6) ?
Fe3 Ge2 Fe3 4_665 . 10_666 79.58(5) ?
Fe3 Ge2 Fe3 7_556 . 10_666 64.75(3) ?
Fe1 Ge3 Ge2 . . . 49.39(3) ?
Fe1 Ge3 Ge2 . . 3_565 49.39(5) ?
Fe1 Ge3 Ge3 . . 11_555 163.29(7) ?
Fe1 Ge3 Fe2 . . . 145.36(6) ?
Fe1 Ge3 Fe3 . . . 69.33(6) ?
Fe1 Ge3 Fe3 . . 6_555 69.33(4) ?
Fe1 Ge3 Ge5 . . 4_565 120.52(6) ?
Fe1 Ge3 Ge5 . . 5_555 120.52(8) ?
Fe1 Ge3 Fe4 . . . 65.54(5) ?
Ge2 Ge3 Ge2 . . 3_565 71.61(4) ?
Ge2 Ge3 Ge3 . . 11_555 139.69(4) ?
Ge2 Ge3 Fe2 . . . 105.10(3) ?
Ge2 Ge3 Fe3 . . . 54.05(4) ?
Ge2 Ge3 Fe3 . . 6_555 116.13(5) ?
Ge2 Ge3 Ge5 . . 4_565 147.91(7) ?
Ge2 Ge3 Ge5 . . 5_555 80.77(3) ?
Ge2 Ge3 Fe4 . . . 99.83(5) ?
Ge2 Ge3 Ge3 3_565 . 11_555 139.69(6) ?
Ge2 Ge3 Fe2 3_565 . . 105.10(5) ?
Ge2 Ge3 Fe3 3_565 . . 116.13(6) ?
Ge2 Ge3 Fe3 3_565 . 6_555 54.05(4) ?
Ge2 Ge3 Ge5 3_565 . 4_565 80.77(6) ?
Ge2 Ge3 Ge5 3_565 . 5_555 147.90(6) ?
Ge2 Ge3 Fe4 3_565 . . 99.83(5) ?
Ge3 Ge3 Fe2 11_555 . . 51.35(3) ?
Ge3 Ge3 Fe3 11_555 . . 104.19(6) ?
Ge3 Ge3 Fe3 11_555 . 6_555 104.19(5) ?
Ge3 Ge3 Ge5 11_555 . 4_565 60.40(6) ?
Ge3 Ge3 Ge5 11_555 . 5_555 60.40(5) ?
Ge3 Ge3 Fe4 11_555 . . 97.76(5) ?
Fe2 Ge3 Fe3 . . . 118.30(4) ?
Fe2 Ge3 Fe3 . . 6_555 118.30(6) ?
Fe2 Ge3 Ge5 . . 4_565 66.26(5) ?
Fe2 Ge3 Ge5 . . 5_555 66.26(9) ?
Fe2 Ge3 Fe4 . . . 149.11(6) ?
Fe3 Ge3 Fe3 . . 6_555 122.81(6) ?
Fe3 Ge3 Ge5 . . 4_565 157.92(7) ?
Fe3 Ge3 Ge5 . . 5_555 54.16(8) ?
Fe3 Ge3 Fe4 . . . 63.87(4) ?
Fe3 Ge3 Ge5 6_555 . 4_565 54.16(5) ?
Fe3 Ge3 Ge5 6_555 . 5_555 157.92(8) ?
Fe3 Ge3 Fe4 6_555 . . 63.87(4) ?
Ge5 Ge3 Ge5 4_565 . 5_555 118.88(8) ?
Ge5 Ge3 Fe4 4_565 . . 100.72(5) ?
Ge5 Ge3 Fe4 5_555 . . 100.72(11) ?
Fe3 Ge4 Fe3 5_555 . 12_555 114.50(8) ?
Fe3 Ge4 Ge5 5_555 . 3_555 57.80(4) ?
Fe3 Ge4 Ge5 5_555 . 6_655 57.80(4) ?
Fe3 Ge4 Fe4 5_555 . 3_555 66.62(4) ?
Fe3 Ge4 Fe4 5_555 . 5_555 66.62(5) ?
Fe3 Ge4 Fe4 5_555 . 7_555 148.52(4) ?
Fe3 Ge4 Fe4 5_555 . 12_555 148.52(5) ?
Fe3 Ge4 Ge5 12_555 . 3_555 57.80(4) ?
Fe3 Ge4 Ge5 12_555 . 6_655 57.80(4) ?
Fe3 Ge4 Fe4 12_555 . 3_555 148.52(4) ?
Fe3 Ge4 Fe4 12_555 . 5_555 148.52(4) ?
Fe3 Ge4 Fe4 12_555 . 7_555 66.62(4) ?
Fe3 Ge4 Fe4 12_555 . 12_555 66.62(3) ?
Ge5 Ge4 Ge5 3_555 . 6_655 19.89(12) ?
Ge5 Ge4 Fe4 3_555 . 3_555 120.33(7) ?
Ge5 Ge4 Fe4 3_555 . 5_555 108.98(7) ?
Ge5 Ge4 Fe4 3_555 . 7_555 108.98(7) ?
Ge5 Ge4 Fe4 3_555 . 12_555 120.33(7) ?
Ge5 Ge4 Fe4 6_655 . 3_555 108.98(7) ?
Ge5 Ge4 Fe4 6_655 . 5_555 120.33(6) ?
Ge5 Ge4 Fe4 6_655 . 7_555 120.33(6) ?
Ge5 Ge4 Fe4 6_655 . 12_555 108.98(6) ?
Fe4 Ge4 Fe4 3_555 . 5_555 62.67(4) ?
Fe4 Ge4 Fe4 3_555 . 7_555 130.15(8) ?
Fe4 Ge4 Fe4 3_555 . 12_555 95.97(5) ?
Fe4 Ge4 Fe4 5_555 . 7_555 95.97(6) ?
Fe4 Ge4 Fe4 5_555 . 12_555 130.15(8) ?
Fe4 Ge4 Fe4 7_555 . 12_555 62.67(4) ?
Ge3 Fe2 Ge3 . . 2_665 85.11(4) ?
Ge3 Fe2 Ge3 . . 3_565 85.11(4) ?
Ge3 Fe2 Ge3 . . 10_665 134.03(4) ?
Ge3 Fe2 Ge3 . . 11_555 77.30(4) ?
Ge3 Fe2 Ge3 . . 12_565 134.03(3) ?
Ge3 Fe2 Ge5 . . 4_565 67.02(5) ?
Ge3 Fe2 Ge5 . . 5_555 67.02(5) ?
Ge3 Fe2 Ge5 . . 6_665 141.35(3) ?
Ge3 Fe2 Ge3 2_665 . 3_565 85.12(5) ?
Ge3 Fe2 Ge3 2_665 . 10_665 77.30(4) ?
Ge3 Fe2 Ge3 2_665 . 11_555 134.03(6) ?
Ge3 Fe2 Ge3 2_665 . 12_565 134.03(5) ?
Ge3 Fe2 Ge5 2_665 . 4_565 141.35(3) ?
Ge3 Fe2 Ge5 2_665 . 5_555 67.02(6) ?
Ge3 Fe2 Ge5 2_665 . 6_665 67.02(9) ?
Ge3 Fe2 Ge3 3_565 . 10_665 134.03(3) ?
Ge3 Fe2 Ge3 3_565 . 11_555 134.03(5) ?
Ge3 Fe2 Ge3 3_565 . 12_565 77.30(5) ?
Ge3 Fe2 Ge5 3_565 . 4_565 67.02(5) ?
Ge3 Fe2 Ge5 3_565 . 5_555 141.35(3) ?
Ge3 Fe2 Ge5 3_565 . 6_665 67.02(8) ?
Ge3 Fe2 Ge3 10_665 . 11_555 85.11(4) ?
Ge3 Fe2 Ge3 10_665 . 12_565 85.12(4) ?
Ge3 Fe2 Ge5 10_665 . 4_565 141.35(3) ?
Ge3 Fe2 Ge5 10_665 . 5_555 67.02(5) ?
Ge3 Fe2 Ge5 10_665 . 6_665 67.02(9) ?
Ge3 Fe2 Ge3 11_555 . 12_565 85.12(5) ?
Ge3 Fe2 Ge5 11_555 . 4_565 67.02(6) ?
Ge3 Fe2 Ge5 11_555 . 5_555 67.02(6) ?
Ge3 Fe2 Ge5 11_555 . 6_665 141.35(3) ?
Ge3 Fe2 Ge5 12_565 . 4_565 67.02(5) ?
Ge3 Fe2 Ge5 12_565 . 5_555 141.35(3) ?
Ge3 Fe2 Ge5 12_565 . 6_665 67.02(9) ?
Ge5 Fe2 Ge5 4_565 . 5_555 120.00(9) ?
Ge5 Fe2 Ge5 4_565 . 6_665 120.00(13) ?
Ge5 Fe2 Ge5 5_555 . 6_665 120.00(13) ?
Ge1 Fe3 P1 6_555 . 6_555 0 ?
Ge1 Fe3 Fe1 6_555 . . 53.20(4) ?
Ge1 Fe3 Fe1 6_555 . 5_555 53.20(4) ?
Ge1 Fe3 Ge2 6_555 . . 88.08(4) ?
Ge1 Fe3 Ge2 6_555 . 4_665 88.08(4) ?
Ge1 Fe3 Ge3 6_555 . . 95.92(4) ?
Ge1 Fe3 Ge3 6_555 . 5_555 95.92(4) ?
Ge1 Fe3 Ge4 6_555 . 6_555 99.47(3) ?
Ge1 Fe3 Fe3 6_555 . 4_665 137.78(5) ?
Ge1 Fe3 Ge5 6_555 . 2_665 161.87(11) ?
Ge1 Fe3 Ge5 6_555 . 5_555 161.87(7) ?
Ge1 Fe3 Fe4 6_555 . . 54.82(3) ?
Ge1 Fe3 Fe4 6_555 . 5_555 54.82(3) ?
P1 Fe3 Fe1 6_555 . . 53.20(4) ?
P1 Fe3 Fe1 6_555 . 5_555 53.20(4) ?
P1 Fe3 Ge2 6_555 . . 88.08(4) ?
P1 Fe3 Ge2 6_555 . 4_665 88.08(4) ?
P1 Fe3 Ge3 6_555 . . 95.92(4) ?
P1 Fe3 Ge3 6_555 . 5_555 95.92(4) ?
P1 Fe3 Ge4 6_555 . 6_555 99.47(3) ?
P1 Fe3 Fe3 6_555 . 4_665 137.78(5) ?
P1 Fe3 Ge5 6_555 . 2_665 161.87(11) ?
P1 Fe3 Ge5 6_555 . 5_555 161.87(7) ?
P1 Fe3 Fe4 6_555 . . 54.82(3) ?
P1 Fe3 Fe4 6_555 . 5_555 54.82(3) ?
Fe1 Fe3 Fe1 . . 5_555 99.81(5) ?
Fe1 Fe3 Ge2 . . . 50.29(4) ?
Fe1 Fe3 Ge2 . . 4_665 101.79(5) ?
Fe1 Fe3 Ge3 . . . 51.62(4) ?
Fe1 Fe3 Ge3 . . 5_555 148.97(6) ?
Fe1 Fe3 Ge4 . . 6_555 109.39(5) ?
Fe1 Fe3 Fe3 . . 4_665 106.54(5) ?
Fe1 Fe3 Ge5 . . 2_665 140.46(13) ?
Fe1 Fe3 Ge5 . . 5_555 119.03(12) ?
Fe1 Fe3 Fe4 . . . 57.09(4) ?
Fe1 Fe3 Fe4 . . 5_555 99.82(5) ?
Fe1 Fe3 Ge2 5_555 . . 101.78(5) ?
Fe1 Fe3 Ge2 5_555 . 4_665 50.29(4) ?
Fe1 Fe3 Ge3 5_555 . . 148.97(5) ?
Fe1 Fe3 Ge3 5_555 . 5_555 51.62(4) ?
Fe1 Fe3 Ge4 5_555 . 6_555 109.39(6) ?
Fe1 Fe3 Fe3 5_555 . 4_665 106.54(5) ?
Fe1 Fe3 Ge5 5_555 . 2_665 119.03(12) ?
Fe1 Fe3 Ge5 5_555 . 5_555 140.46(12) ?
Fe1 Fe3 Fe4 5_555 . . 99.82(5) ?
Fe1 Fe3 Fe4 5_555 . 5_555 57.09(4) ?
Ge2 Fe3 Ge2 . . 4_665 66.88(4) ?
Ge2 Fe3 Ge3 . . . 70.67(5) ?
Ge2 Fe3 Ge3 . . 5_555 137.19(6) ?
Ge2 Fe3 Ge4 . . 6_555 145.89(7) ?
Ge2 Fe3 Fe3 . . 4_665 57.62(3) ?
Ge2 Fe3 Ge5 . . 2_665 110.02(10) ?
Ge2 Fe3 Ge5 . . 5_555 97.83(10) ?
Ge2 Fe3 Fe4 . . . 106.44(5) ?
Ge2 Fe3 Fe4 . . 5_555 142.88(5) ?
Ge2 Fe3 Ge3 4_665 . . 137.19(6) ?
Ge2 Fe3 Ge3 4_665 . 5_555 70.67(5) ?
Ge2 Fe3 Ge4 4_665 . 6_555 145.89(7) ?
Ge2 Fe3 Fe3 4_665 . 4_665 57.62(3) ?
Ge2 Fe3 Ge5 4_665 . 2_665 97.83(6) ?
Ge2 Fe3 Ge5 4_665 . 5_555 110.02(5) ?
Ge2 Fe3 Fe4 4_665 . . 142.88(5) ?
Ge2 Fe3 Fe4 4_665 . 5_555 106.44(5) ?
Ge3 Fe3 Ge3 . . 5_555 150.01(6) ?
Ge3 Fe3 Ge4 . . 6_555 75.46(6) ?
Ge3 Fe3 Fe3 . . 4_665 94.76(4) ?
Ge3 Fe3 Ge5 . . 2_665 91.34(11) ?
Ge3 Fe3 Ge5 . . 5_555 70.27(10) ?
Ge3 Fe3 Fe4 . . . 56.60(4) ?
Ge3 Fe3 Fe4 . . 5_555 110.55(5) ?
Ge3 Fe3 Ge4 5_555 . 6_555 75.46(6) ?
Ge3 Fe3 Fe3 5_555 . 4_665 94.76(5) ?
Ge3 Fe3 Ge5 5_555 . 2_665 70.27(13) ?
Ge3 Fe3 Ge5 5_555 . 5_555 91.34(12) ?
Ge3 Fe3 Fe4 5_555 . . 110.55(5) ?
Ge3 Fe3 Fe4 5_555 . 5_555 56.60(4) ?
Ge4 Fe3 Fe3 6_555 . 4_665 122.75(5) ?
Ge4 Fe3 Ge5 6_555 . 2_665 66.31(6) ?
Ge4 Fe3 Ge5 6_555 . 5_555 66.31(7) ?
Ge4 Fe3 Fe4 6_555 . . 55.45(5) ?
Ge4 Fe3 Fe4 6_555 . 5_555 55.45(5) ?
Fe3 Fe3 Ge5 4_665 . 2_665 57.55(7) ?
Fe3 Fe3 Ge5 4_665 . 5_555 57.55(6) ?
Fe3 Fe3 Fe4 4_665 . . 151.35(6) ?
Fe3 Fe3 Fe4 4_665 . 5_555 151.35(6) ?
Ge5 Fe3 Ge5 2_665 . 5_555 21.54(16) ?
Ge5 Fe3 Fe4 2_665 . . 117.89(6) ?
Ge5 Fe3 Fe4 2_665 . 5_555 107.06(11) ?
Ge5 Fe3 Fe4 5_555 . . 107.06(7) ?
Ge5 Fe3 Fe4 5_555 . 5_555 117.89(10) ?
Fe4 Fe3 Fe4 . . 5_555 55.63(4) ?
Ge3 Ge5 Ge3 4_565 . 6_555 64.68(8) ?
Ge3 Ge5 Ge3 4_565 . 8_565 59.21(10) ?
Ge3 Ge5 Ge3 4_565 . 9_555 93.46(12) ?
Ge3 Ge5 Ge4 4_565 . 2_555 130.18(7) ?
Ge3 Ge5 Ge4 4_565 . 5_565 65.89(9) ?
Ge3 Ge5 Fe2 4_565 . 4_565 46.73(7) ?
Ge3 Ge5 Fe3 4_565 . 3_565 55.57(8) ?
Ge3 Ge5 Fe3 4_565 . 6_555 90.49(7) ?
Ge3 Ge5 Fe3 4_565 . 8_565 104.33(15) ?
Ge3 Ge5 Fe3 4_565 . 11_555 145.25(14) ?
Ge3 Ge5 Ge5 4_565 . 4_565 133.3(2) ?
Ge3 Ge5 Ge3 6_555 . 8_565 93.46(12) ?
Ge3 Ge5 Ge3 6_555 . 9_555 59.21(5) ?
Ge3 Ge5 Ge4 6_555 . 2_555 65.89(6) ?
Ge3 Ge5 Ge4 6_555 . 5_565 130.18(15) ?
Ge3 Ge5 Fe2 6_555 . 4_565 46.73(6) ?
Ge3 Ge5 Fe3 6_555 . 3_565 90.49(5) ?
Ge3 Ge5 Fe3 6_555 . 6_555 55.57(5) ?
Ge3 Ge5 Fe3 6_555 . 8_565 145.25(14) ?
Ge3 Ge5 Fe3 6_555 . 11_555 104.33(7) ?
Ge3 Ge5 Ge5 6_555 . 4_565 133.3(3) ?
Ge3 Ge5 Ge3 8_565 . 9_555 64.68(8) ?
Ge3 Ge5 Ge4 8_565 . 2_555 130.18(7) ?
Ge3 Ge5 Ge4 8_565 . 5_565 65.89(9) ?
Ge3 Ge5 Fe2 8_565 . 4_565 46.73(7) ?
Ge3 Ge5 Fe3 8_565 . 3_565 104.33(15) ?
Ge3 Ge5 Fe3 8_565 . 6_555 145.25(14) ?
Ge3 Ge5 Fe3 8_565 . 8_565 55.57(8) ?
Ge3 Ge5 Fe3 8_565 . 11_555 90.49(7) ?
Ge3 Ge5 Ge5 8_565 . 4_565 133.3(2) ?
Ge3 Ge5 Ge4 9_555 . 2_555 65.89(6) ?
Ge3 Ge5 Ge4 9_555 . 5_565 130.18(15) ?
Ge3 Ge5 Fe2 9_555 . 4_565 46.73(5) ?
Ge3 Ge5 Fe3 9_555 . 3_565 145.25(14) ?
Ge3 Ge5 Fe3 9_555 . 6_555 104.33(8) ?
Ge3 Ge5 Fe3 9_555 . 8_565 90.49(6) ?
Ge3 Ge5 Fe3 9_555 . 11_555 55.57(4) ?
Ge3 Ge5 Ge5 9_555 . 4_565 133.3(3) ?
Ge4 Ge5 Ge4 2_555 . 5_565 160.11(17) ?
Ge4 Ge5 Fe2 2_555 . 4_565 99.95(6) ?
Ge4 Ge5 Fe3 2_555 . 3_565 119.75(11) ?
Ge4 Ge5 Fe3 2_555 . 6_555 55.89(8) ?
Ge4 Ge5 Fe3 2_555 . 8_565 119.75(11) ?
Ge4 Ge5 Fe3 2_555 . 11_555 55.89(8) ?
Ge4 Ge5 Ge5 2_555 . 4_565 80.1(3) ?
Ge4 Ge5 Fe2 5_565 . 4_565 99.95(15) ?
Ge4 Ge5 Fe3 5_565 . 3_565 55.89(6) ?
Ge4 Ge5 Fe3 5_565 . 6_555 119.75(5) ?
Ge4 Ge5 Fe3 5_565 . 8_565 55.89(6) ?
Ge4 Ge5 Fe3 5_565 . 11_555 119.75(5) ?
Ge4 Ge5 Ge5 5_565 . 4_565 80.1(2) ?
Fe2 Ge5 Fe3 4_565 . 3_565 100.77(13) ?
Fe2 Ge5 Fe3 4_565 . 6_555 100.77(7) ?
Fe2 Ge5 Fe3 4_565 . 8_565 100.77(13) ?
Fe2 Ge5 Fe3 4_565 . 11_555 100.77(7) ?
Fe2 Ge5 Ge5 4_565 . 4_565 180 ?
Fe3 Ge5 Fe3 3_565 . 6_555 64.90(4) ?
Fe3 Ge5 Fe3 3_565 . 8_565 110.75(9) ?
Fe3 Ge5 Fe3 3_565 . 11_555 158.46(19) ?
Fe3 Ge5 Ge5 3_565 . 4_565 79.23(14) ?
Fe3 Ge5 Fe3 6_555 . 8_565 158.46(19) ?
Fe3 Ge5 Fe3 6_555 . 11_555 110.75(16) ?
Fe3 Ge5 Ge5 6_555 . 4_565 79.2(2) ?
Fe3 Ge5 Fe3 8_565 . 11_555 64.90(4) ?
Fe3 Ge5 Ge5 8_565 . 4_565 79.23(14) ?
Fe3 Ge5 Ge5 11_555 . 4_565 79.2(2) ?
Ge0 Fe4 Ge1 . . 2_555 97.36(7) ?
Ge0 Fe4 Ge1 . . 6_555 97.36(7) ?
Ge0 Fe4 P1 . . 2_555 97.36(7) ?
Ge0 Fe4 P1 . . 6_555 97.36(7) ?
Ge0 Fe4 Fe1 . . . 146.21(9) ?
Ge0 Fe4 Ge3 . . . 159.13(10) ?
Ge0 Fe4 Ge4 . . 2_555 86.20(7) ?
Ge0 Fe4 Ge4 . . 6_555 86.20(8) ?
Ge0 Fe4 Fe3 . . . 122.54(5) ?
Ge0 Fe4 Fe3 . . 6_555 122.54(3) ?
Ge0 Fe4 Fe4 . . 5_555 60.86(4) ?
Ge0 Fe4 Fe4 . . 6_555 60.86(3) ?
Ge1 Fe4 Ge1 2_555 . 6_555 70.81(4) ?
Ge1 Fe4 P1 2_555 . 2_555 0 ?
Ge1 Fe4 P1 2_555 . 6_555 70.81(4) ?
Ge1 Fe4 Fe1 2_555 . . 56.35(3) ?
Ge1 Fe4 Ge3 2_555 . . 99.62(5) ?
Ge1 Fe4 Ge4 2_555 . 2_555 103.13(4) ?
Ge1 Fe4 Ge4 2_555 . 6_555 173.26(5) ?
Ge1 Fe4 Fe3 2_555 . . 115.44(5) ?
Ge1 Fe4 Fe3 2_555 . 6_555 56.83(3) ?
Ge1 Fe4 Fe4 2_555 . 5_555 118.22(6) ?
Ge1 Fe4 Fe4 2_555 . 6_555 57.95(3) ?
Ge1 Fe4 P1 6_555 . 2_555 70.81(4) ?
Ge1 Fe4 P1 6_555 . 6_555 0 ?
Ge1 Fe4 Fe1 6_555 . . 56.35(4) ?
Ge1 Fe4 Ge3 6_555 . . 99.62(4) ?
Ge1 Fe4 Ge4 6_555 . 2_555 173.26(6) ?
Ge1 Fe4 Ge4 6_555 . 6_555 103.13(5) ?
Ge1 Fe4 Fe3 6_555 . . 56.83(3) ?
Ge1 Fe4 Fe3 6_555 . 6_555 115.44(6) ?
Ge1 Fe4 Fe4 6_555 . 5_555 57.95(4) ?
Ge1 Fe4 Fe4 6_555 . 6_555 118.22(5) ?
P1 Fe4 P1 2_555 . 6_555 70.81(4) ?
P1 Fe4 Fe1 2_555 . . 56.35(3) ?
P1 Fe4 Ge3 2_555 . . 99.62(5) ?
P1 Fe4 Ge4 2_555 . 2_555 103.13(4) ?
P1 Fe4 Ge4 2_555 . 6_555 173.26(5) ?
P1 Fe4 Fe3 2_555 . . 115.44(5) ?
P1 Fe4 Fe3 2_555 . 6_555 56.83(3) ?
P1 Fe4 Fe4 2_555 . 5_555 118.22(6) ?
P1 Fe4 Fe4 2_555 . 6_555 57.95(3) ?
P1 Fe4 Fe1 6_555 . . 56.35(4) ?
P1 Fe4 Ge3 6_555 . . 99.62(4) ?
P1 Fe4 Ge4 6_555 . 2_555 173.26(6) ?
P1 Fe4 Ge4 6_555 . 6_555 103.13(5) ?
P1 Fe4 Fe3 6_555 . . 56.83(3) ?
P1 Fe4 Fe3 6_555 . 6_555 115.44(6) ?
P1 Fe4 Fe4 6_555 . 5_555 57.95(4) ?
P1 Fe4 Fe4 6_555 . 6_555 118.22(5) ?
Fe1 Fe4 Ge3 . . . 54.65(4) ?
Fe1 Fe4 Ge4 . . 2_555 118.08(7) ?
Fe1 Fe4 Ge4 . . 6_555 118.08(4) ?
Fe1 Fe4 Fe3 . . . 63.89(4) ?
Fe1 Fe4 Fe3 . . 6_555 63.89(5) ?
Fe1 Fe4 Fe4 . . 5_555 109.98(5) ?
Fe1 Fe4 Fe4 . . 6_555 109.98(5) ?
Ge3 Fe4 Ge4 . . 2_555 78.21(5) ?
Ge3 Fe4 Ge4 . . 6_555 78.21(5) ?
Ge3 Fe4 Fe3 . . . 59.53(3) ?
Ge3 Fe4 Fe3 . . 6_555 59.53(4) ?
Ge3 Fe4 Fe4 . . 5_555 119.70(4) ?
Ge3 Fe4 Fe4 . . 6_555 119.70(5) ?
Ge4 Fe4 Ge4 2_555 . 6_555 82.76(6) ?
Ge4 Fe4 Fe3 2_555 . . 125.70(5) ?
Ge4 Fe4 Fe3 2_555 . 6_555 57.93(5) ?
Ge4 Fe4 Fe4 2_555 . 5_555 128.68(7) ?
Ge4 Fe4 Fe4 2_555 . 6_555 58.67(3) ?
Ge4 Fe4 Fe3 6_555 . . 57.93(4) ?
Ge4 Fe4 Fe3 6_555 . 6_555 125.70(7) ?
Ge4 Fe4 Fe4 6_555 . 5_555 58.67(6) ?
Ge4 Fe4 Fe4 6_555 . 6_555 128.68(6) ?
Fe3 Fe4 Fe3 . . 6_555 114.90(5) ?
Fe3 Fe4 Fe4 . . 5_555 62.18(4) ?
Fe3 Fe4 Fe4 . . 6_555 173.39(7) ?
Fe3 Fe4 Fe4 6_555 . 5_555 173.39(7) ?
Fe3 Fe4 Fe4 6_555 . 6_555 62.18(3) ?
Fe4 Fe4 Fe4 5_555 . 6_555 120.00(5) ?
Ge0 Fe5 Ge0 . . 7_556 180 ?
Ge0 Fe5 Ge1 . . . 90 ?
Ge0 Fe5 Ge1 . . 2_555 90 ?
Ge0 Fe5 Ge1 . . 3_555 90 ?
Ge0 Fe5 Ge1 . . 4_555 90 ?
Ge0 Fe5 Ge1 . . 5_555 90 ?
Ge0 Fe5 Ge1 . . 6_555 90 ?
Ge0 Fe5 P1 . . . 90 ?
Ge0 Fe5 P1 . . 2_555 90 ?
Ge0 Fe5 P1 . . 3_555 90 ?
Ge0 Fe5 P1 . . 4_555 90 ?
Ge0 Fe5 P1 . . 5_555 90 ?
Ge0 Fe5 P1 . . 6_555 90 ?
Ge0 Fe5 Ge1 7_556 . . 90 ?
Ge0 Fe5 Ge1 7_556 . 2_555 90 ?
Ge0 Fe5 Ge1 7_556 . 3_555 90 ?
Ge0 Fe5 Ge1 7_556 . 4_555 90 ?
Ge0 Fe5 Ge1 7_556 . 5_555 90 ?
Ge0 Fe5 Ge1 7_556 . 6_555 90 ?
Ge0 Fe5 P1 7_556 . . 90 ?
Ge0 Fe5 P1 7_556 . 2_555 90 ?
Ge0 Fe5 P1 7_556 . 3_555 90 ?
Ge0 Fe5 P1 7_556 . 4_555 90 ?
Ge0 Fe5 P1 7_556 . 5_555 90 ?
Ge0 Fe5 P1 7_556 . 6_555 90 ?
Ge1 Fe5 Ge1 . . 2_555 120.0000(5) ?
Ge1 Fe5 Ge1 . . 3_555 120.0000(6) ?
Ge1 Fe5 Ge1 . . 4_555 180 ?
Ge1 Fe5 Ge1 . . 5_555 60.0000(5) ?
Ge1 Fe5 Ge1 . . 6_555 60.0000(6) ?
Ge1 Fe5 P1 . . . 0 ?
Ge1 Fe5 P1 . . 2_555 120.0000(5) ?
Ge1 Fe5 P1 . . 3_555 120.0000(6) ?
Ge1 Fe5 P1 . . 4_555 180 ?
Ge1 Fe5 P1 . . 5_555 60.0000(5) ?
Ge1 Fe5 P1 . . 6_555 60.0000(6) ?
Ge1 Fe5 Ge1 2_555 . 3_555 120.0000(6) ?
Ge1 Fe5 Ge1 2_555 . 4_555 60.0000(5) ?
Ge1 Fe5 Ge1 2_555 . 5_555 180 ?
Ge1 Fe5 Ge1 2_555 . 6_555 60.0000(6) ?
Ge1 Fe5 P1 2_555 . . 120.0000(5) ?
Ge1 Fe5 P1 2_555 . 2_555 0 ?
Ge1 Fe5 P1 2_555 . 3_555 120.0000(6) ?
Ge1 Fe5 P1 2_555 . 4_555 60.0000(5) ?
Ge1 Fe5 P1 2_555 . 5_555 180 ?
Ge1 Fe5 P1 2_555 . 6_555 60.0000(6) ?
Ge1 Fe5 Ge1 3_555 . 4_555 60.0000(6) ?
Ge1 Fe5 Ge1 3_555 . 5_555 60.0000(6) ?
Ge1 Fe5 Ge1 3_555 . 6_555 180 ?
Ge1 Fe5 P1 3_555 . . 120.0000(6) ?
Ge1 Fe5 P1 3_555 . 2_555 120.0000(6) ?
Ge1 Fe5 P1 3_555 . 3_555 0 ?
Ge1 Fe5 P1 3_555 . 4_555 60.0000(6) ?
Ge1 Fe5 P1 3_555 . 5_555 60.0000(6) ?
Ge1 Fe5 P1 3_555 . 6_555 180 ?
Ge1 Fe5 Ge1 4_555 . 5_555 120.0000(5) ?
Ge1 Fe5 Ge1 4_555 . 6_555 120.0000(6) ?
Ge1 Fe5 P1 4_555 . . 180 ?
Ge1 Fe5 P1 4_555 . 2_555 60.0000(5) ?
Ge1 Fe5 P1 4_555 . 3_555 60.0000(6) ?
Ge1 Fe5 P1 4_555 . 4_555 0 ?
Ge1 Fe5 P1 4_555 . 5_555 120.0000(5) ?
Ge1 Fe5 P1 4_555 . 6_555 120.0000(6) ?
Ge1 Fe5 Ge1 5_555 . 6_555 120.0000(6) ?
Ge1 Fe5 P1 5_555 . . 60.0000(5) ?
Ge1 Fe5 P1 5_555 . 2_555 180 ?
Ge1 Fe5 P1 5_555 . 3_555 60.0000(6) ?
Ge1 Fe5 P1 5_555 . 4_555 120.0000(5) ?
Ge1 Fe5 P1 5_555 . 5_555 0 ?
Ge1 Fe5 P1 5_555 . 6_555 120.0000(6) ?
Ge1 Fe5 P1 6_555 . . 60.0000(6) ?
Ge1 Fe5 P1 6_555 . 2_555 60.0000(6) ?
Ge1 Fe5 P1 6_555 . 3_555 180 ?
Ge1 Fe5 P1 6_555 . 4_555 120.0000(6) ?
Ge1 Fe5 P1 6_555 . 5_555 120.0000(6) ?
Ge1 Fe5 P1 6_555 . 6_555 0 ?
P1 Fe5 P1 . . 2_555 120.0000(5) ?
P1 Fe5 P1 . . 3_555 120.0000(6) ?
P1 Fe5 P1 . . 4_555 180 ?
P1 Fe5 P1 . . 5_555 60.0000(5) ?
P1 Fe5 P1 . . 6_555 60.0000(6) ?
P1 Fe5 P1 2_555 . 3_555 120.0000(6) ?
P1 Fe5 P1 2_555 . 4_555 60.0000(5) ?
P1 Fe5 P1 2_555 . 5_555 180 ?
P1 Fe5 P1 2_555 . 6_555 60.0000(6) ?
P1 Fe5 P1 3_555 . 4_555 60.0000(6) ?
P1 Fe5 P1 3_555 . 5_555 60.0000(6) ?
P1 Fe5 P1 3_555 . 6_555 180 ?
P1 Fe5 P1 4_555 . 5_555 120.0000(5) ?
P1 Fe5 P1 4_555 . 6_555 120.0000(6) ?
P1 Fe5 P1 5_555 . 6_555 120.0000(6) ?
loop_
_geom_bond_atom_site_label_1
_geom_bond_atom_site_label_2
_geom_bond_site_symmetry_1
_geom_bond_site_symmetry_2
_geom_bond_distance
_geom_bond_publ_flag
Ge0 Ge0 . 7_555 2.435(5) ?
Ge0 Fe4 . . 2.5966(13) ?
Ge0 Fe4 . 2_555 2.5966(13) ?
Ge0 Fe4 . 3_555 2.5966(15) ?
Ge0 Fe4 . 4_555 2.5966(13) ?
Ge0 Fe4 . 5_555 2.5966(13) ?
Ge0 Fe4 . 6_555 2.5966(15) ?
Ge0 Fe5 . . 2.526(3) ?
Ge1 Ge1 . 5_555 2.76104(6) ?
Ge1 Ge1 . 6_555 2.76104(4) ?
Ge1 P1 . . 0 ?
Ge1 P1 . 5_555 2.76104(6) ?
Ge1 P1 . 6_555 2.76104(4) ?
Ge1 Fe1 . 3_555 2.3899(12) ?
Ge1 Fe1 . 5_555 2.3899(13) ?
Ge1 Fe3 . 5_555 2.4402(12) ?
Ge1 Fe3 . 12_556 2.4402(12) ?
Ge1 Fe4 . 3_555 2.3828(11) ?
Ge1 Fe4 . 5_555 2.3828(14) ?
Ge1 Fe4 . 7_556 2.3828(12) ?
Ge1 Fe4 . 12_556 2.3828(12) ?
Ge1 Fe5 . . 2.76104(4) ?
P1 P1 . 5_555 2.76104(6) ?
P1 P1 . 6_555 2.76104(4) ?
P1 Fe1 . 3_555 2.3899(12) ?
P1 Fe1 . 5_555 2.3899(13) ?
P1 Fe3 . 5_555 2.4402(12) ?
P1 Fe3 . 12_556 2.4402(12) ?
P1 Fe4 . 3_555 2.3828(11) ?
P1 Fe4 . 5_555 2.3828(14) ?
P1 Fe4 . 7_556 2.3828(12) ?
P1 Fe4 . 12_556 2.3828(12) ?
P1 Fe5 . . 2.76104(4) ?
Fe1 Ge2 . . 2.3083(11) ?
Fe1 Ge2 . 3_565 2.308(2) ?
Fe1 Ge3 . . 2.3776(13) ?
Fe1 Ge3 . 11_556 2.3776(13) ?
Fe1 Fe3 . . 2.8381(16) ?
Fe1 Fe3 . 6_555 2.8381(16) ?
Fe1 Fe3 . 7_556 2.8381(16) ?
Fe1 Fe3 . 11_556 2.8381(16) ?
Fe1 Fe4 . . 2.6533(16) ?
Fe1 Fe4 . 11_556 2.6533(16) ?
Ge2 Ge2 . 4_665 2.8239(19) ?
Ge2 Ge3 . . 2.9865(12) ?
Ge2 Ge3 . 2_665 2.9865(14) ?
Ge2 Ge3 . 10_666 2.9865(12) ?
Ge2 Ge3 . 11_556 2.9865(14) ?
Ge2 Fe3 . . 2.5622(14) ?
Ge2 Fe3 . 4_665 2.5622(14) ?
Ge2 Fe3 . 7_556 2.5622(14) ?
Ge2 Fe3 . 10_666 2.5622(14) ?
Ge3 Ge3 . 11_555 2.9329(17) ?
Ge3 Fe2 . . 2.3479(12) ?
Ge3 Fe3 . . 2.6014(17) ?
Ge3 Fe3 . 6_555 2.6013(14) ?
Ge3 Ge5 . 4_565 2.969(4) ?
Ge3 Ge5 . 5_555 2.969(3) ?
Ge3 Fe4 . . 2.5196(16) ?
Ge4 Fe3 . 5_555 2.5017(15) ?
Ge4 Fe3 . 12_555 2.5017(15) ?
Ge4 Ge5 . 3_555 2.767(6) ?
Ge4 Ge5 . 6_655 2.767(6) ?
Ge4 Fe4 . 3_555 2.4316(13) ?
Ge4 Fe4 . 5_555 2.4316(16) ?
Ge4 Fe4 . 7_555 2.4316(14) ?
Ge4 Fe4 . 12_555 2.4316(13) ?
Fe2 Ge5 . 4_565 2.952(4) ?
Fe2 Ge5 . 5_555 2.952(5) ?
Fe2 Ge5 . 6_665 2.952(4) ?
Fe3 Fe3 . 4_665 2.7440(10) ?
Fe3 Ge5 . 2_665 2.5569(16) ?
Fe3 Ge5 . 5_555 2.557(3) ?
Fe3 Fe4 . . 2.7097(10) ?
Fe3 Fe4 . 5_555 2.7097(14) ?
Ge5 Ge5 . 4_565 0.956(6) ?
Fe4 Fe4 . 5_555 2.5290(19) ?
Fe4 Fe4 . 6_555 2.5290(13) ?
loop_
_geom_hbond_atom_site_label_D
_geom_hbond_atom_site_label_H
_geom_hbond_atom_site_label_A
_geom_hbond_site_symmetry_D
_geom_hbond_site_symmetry_H
_geom_hbond_site_symmetry_A
_geom_hbond_distance_DH
_geom_hbond_distance_HA
_geom_hbond_distance_DA
_geom_hbond_angle_DHA
_geom_hbond_publ_flag
? ? ? ? ? ? ? ? ? ? ?
loop_
_geom_torsion_atom_site_label_1
_geom_torsion_atom_site_label_2
_geom_torsion_atom_site_label_3
_geom_torsion_atom_site_label_4
_geom_torsion_site_symmetry_1
_geom_torsion_site_symmetry_2
_geom_torsion_site_symmetry_3
_geom_torsion_site_symmetry_4
_geom_torsion
_geom_torsion_publ_flag
? ? ? ? ? ? ? ? ? ?
loop_
_pd_proc_point_id
_pd_proc_2theta_corrected
_pd_proc_d_spacing
_pd_proc_intensity_net
_pd_calc_intensity_net
_pd_proc_ls_weight
1 6.0000 14.790978 4215.00 3872.52 320.00
2 6.0500 14.668851 4109.00 3868.57 315.00
3 6.1000 14.548727 4092.00 3864.56 313.00
4 6.1500 14.430556 4159.00 3860.50 314.00
5 6.2000 14.314295 4119.00 3856.38 311.00
6 6.2500 14.199891 4073.00 3852.20 308.00
7 6.3000 14.087306 4075.00 3847.97 307.00
8 6.3500 13.976495 3898.00 3843.68 299.00
9 6.4000 13.867415 3869.00 3839.34 297.00
10 6.4500 13.760029 4131.00 3834.94 305.00
11 6.5000 13.654295 3969.00 3830.50 298.00
12 6.5500 13.550175 3917.00 3826.00 295.00
13 6.6000 13.447636 4042.00 3821.46 298.00
14 6.6500 13.346637 3941.00 3816.87 293.00
15 6.7000 13.247148 4059.00 3812.23 296.00
16 6.7500 13.149133 4071.00 3807.54 296.00
17 6.8000 13.052560 3782.00 3802.81 284.00
18 6.8500 12.957398 3983.00 3798.03 290.00
19 6.9000 12.863616 3908.00 3793.22 286.00
20 6.9500 12.771185 3691.00 3788.35 277.00
21 7.0000 12.680075 3718.00 3783.45 277.00
22 7.0500 12.590257 3743.00 3778.51 277.00
23 7.1000 12.501706 4131.00 3773.52 290.00
24 7.1500 12.414393 3771.00 3768.50 276.00
25 7.2000 12.328294 3763.00 3763.44 274.00
26 7.2500 12.243384 3804.00 3758.34 275.00
27 7.3000 12.159636 3841.00 3753.21 275.00
28 7.3500 12.077032 3645.00 3748.04 267.00
29 7.4000 11.995542 3777.00 3742.84 271.00
30 7.4500 11.915148 3957.00 3737.60 276.00
31 7.5000 11.835826 3517.00 3732.33 259.00
32 7.5500 11.757554 3551.00 3727.03 260.00
33 7.6000 11.680315 3622.00 3721.70 261.00
34 7.6500 11.604085 3773.00 3716.33 266.00
35 7.7000 11.528847 3410.00 3710.94 252.00
36 7.7500 11.454578 3572.00 3705.52 256.00
37 7.8000 11.381264 3442.00 3700.07 251.00
38 7.8500 11.308885 3479.00 3694.59 251.00
39 7.9000 11.237422 3316.00 3689.09 244.00
40 7.9500 11.166860 3434.00 3683.57 248.00
41 8.0000 11.097178 3632.00 3678.04 254.00
42 8.0500 11.028363 3450.00 3672.60 247.00
43 8.1000 10.960400 3608.00 3667.57 251.00
44 8.1500 10.893271 3733.00 3664.07 255.00
45 8.2000 10.826962 3641.00 3665.24 251.00
46 8.2500 10.761456 3835.00 3678.59 256.00
47 8.3000 10.696739 4172.00 3718.58 266.00
48 8.3500 10.632798 4061.00 3807.06 262.00
49 8.4000 10.569622 3987.00 3966.83 259.00
50 8.4500 10.507193 4203.00 4205.90 265.00
51 8.5000 10.445498 4854.00 4498.33 283.00
52 8.5500 10.384524 5034.00 4777.41 287.00
53 8.6000 10.324261 5158.00 4955.58 290.00
54 8.6500 10.264696 4905.00 4967.01 282.00
55 8.7000 10.205816 4683.00 4805.19 274.00
56 8.7500 10.147610 4193.00 4526.90 259.00
57 8.8000 10.090065 4186.00 4219.17 258.00
58 8.8500 10.033172 3807.00 3955.11 245.00
59 8.9000 9.976918 3539.00 3768.54 235.00
60 8.9500 9.921294 3464.00 3656.52 232.00
61 9.0000 9.866288 3596.00 3597.61 235.00
62 9.0500 9.811890 3525.00 3568.99 232.00
63 9.1000 9.758091 3473.00 3554.70 230.00
64 9.1500 9.704881 3210.00 3546.10 220.00
65 9.2000 9.652249 3588.00 3539.43 232.00
66 9.2500 9.600187 3540.00 3533.31 230.00
67 9.3000 9.548686 3271.00 3527.33 220.00
68 9.3500 9.497736 3374.00 3521.36 223.00
69 9.4000 9.447329 3395.00 3515.40 223.00
70 9.4500 9.397455 3456.00 3509.44 224.00
71 9.5000 9.348107 3443.00 3503.46 223.00
72 9.5500 9.299276 3273.00 3497.49 216.00
73 9.6000 9.250956 3138.00 3491.51 211.00
74 9.6500 9.203135 3423.00 3485.53 220.00
75 9.7000 9.155809 3179.00 3479.54 211.00
76 9.7500 9.108969 3290.00 3473.55 214.00
77 9.8000 9.062607 3324.00 3467.56 215.00
78 9.8500 9.016716 3435.00 3461.57 217.00
79 9.9000 8.971291 3375.00 3455.58 215.00
80 9.9500 8.926321 3269.00 3449.59 211.00
81 10.0000 8.881802 3332.00 3443.60 212.00
82 10.0500 8.837727 3238.00 3437.61 208.00
83 10.1000 8.794087 3325.00 3431.62 211.00
84 10.1500 8.750879 3542.00 3425.64 217.00
85 10.2000 8.708096 3712.00 3419.66 221.00
86 10.2500 8.665730 3718.00 3413.67 221.00
87 10.3000 8.623775 4214.00 3407.70 234.00
88 10.3500 8.582227 4400.00 3401.72 238.00
89 10.4000 8.541080 4551.00 3395.75 242.00
90 10.4500 8.500325 4583.00 3389.79 242.00
91 10.5000 8.459960 4700.00 3383.83 244.00
92 10.5500 8.419978 4543.00 3377.88 239.00
93 10.6000 8.380373 4043.00 3371.93 225.00
94 10.6500 8.341142 3661.00 3365.99 213.00
95 10.7000 8.302277 3589.00 3360.05 211.00
96 10.7500 8.263774 3339.00 3354.13 203.00
97 10.8000 8.225628 3020.00 3348.21 192.00
98 10.8500 8.187835 3230.00 3342.30 198.00
99 10.9000 8.150389 3056.00 3336.40 192.00
100 10.9500 8.113285 3137.00 3330.50 194.00
101 11.0000 8.076519 3131.00 3324.62 193.00
102 11.0500 8.040086 3116.00 3318.74 192.00
103 11.1000 8.003982 3153.00 3312.88 193.00
104 11.1500 7.968203 3060.00 3307.03 189.00
105 11.2000 7.932743 3227.00 3301.20 194.00
106 11.2500 7.897598 3087.00 3295.44 189.00
107 11.3000 7.862766 2940.00 3289.93 184.00
108 11.3500 7.828240 3150.00 3285.43 190.00
109 11.4000 7.794019 3177.00 3284.27 190.00
110 11.4500 7.760097 3427.00 3292.84 197.00
111 11.5000 7.726470 3224.00 3325.48 190.00
112 11.5500 7.693134 3551.00 3408.37 199.00
113 11.6000 7.660087 3833.00 3578.09 206.00
114 11.6500 7.627324 3948.00 3867.86 209.00
115 11.7000 7.594841 4542.00 4279.85 223.00
116 11.7500 7.562635 5008.00 4756.95 234.00
117 11.8000 7.530702 5397.00 5180.75 242.00
118 11.8500 7.499040 5471.00 5413.69 243.00
119 11.9000 7.467644 5303.00 5369.14 238.00
120 11.9500 7.436512 4882.00 5061.66 228.00
121 12.0000 7.405638 4429.00 4598.32 217.00
122 12.0500 7.375022 3939.00 4117.95 204.00
123 12.1000 7.344660 3545.00 3724.73 193.00
124 12.1500 7.314548 3325.00 3458.04 186.00
125 12.2000 7.284682 3065.00 3304.18 178.00
126 12.2500 7.255062 2918.00 3226.79 173.00
127 12.3000 7.225682 2963.00 3191.37 174.00
128 12.3500 7.196541 2914.00 3175.13 172.00
129 12.4000 7.167635 2961.00 3166.31 173.00
130 12.4500 7.138963 2949.00 3159.95 172.00
131 12.5000 7.110519 3009.00 3154.30 173.00
132 12.5500 7.082303 2913.00 3148.83 170.00
133 12.6000 7.054311 2866.00 3143.42 168.00
134 12.6500 7.026542 2982.00 3138.04 171.00
135 12.7000 6.998991 3002.00 3132.68 171.00
136 12.7500 6.971656 3027.00 3127.34 172.00
137 12.8000 6.944536 3042.00 3122.01 171.00
138 12.8500 6.917627 2967.00 3116.71 169.00
139 12.9000 6.890927 3152.00 3111.43 174.00
140 12.9500 6.864434 3131.00 3106.18 173.00
141 13.0000 6.838145 2768.00 3100.94 162.00
142 13.0500 6.812058 2911.00 3095.72 165.00
143 13.1000 6.786170 2828.00 3090.53 163.00
144 13.1500 6.760480 2833.00 3085.36 162.00
145 13.2000 6.734985 2840.00 3080.21 162.00
146 13.2500 6.709683 3020.00 3075.08 167.00
147 13.3000 6.684571 2957.00 3069.98 164.00
148 13.3500 6.659648 3006.00 3064.90 165.00
149 13.4000 6.634912 2895.00 3059.84 162.00
150 13.4500 6.610359 2893.00 3054.80 161.00
151 13.5000 6.585989 2855.00 3049.79 160.00
152 13.5500 6.561799 2931.00 3044.81 162.00
153 13.6000 6.537787 2870.00 3039.84 159.00
154 13.6500 6.513953 2734.00 3034.90 155.00
155 13.7000 6.490292 2987.00 3029.99 162.00
156 13.7500 6.466803 2759.00 3025.09 155.00
157 13.8000 6.443486 2967.00 3020.23 160.00
158 13.8500 6.420337 2829.00 3015.38 156.00
159 13.9000 6.397355 3114.00 3010.57 163.00
160 13.9500 6.374538 2957.00 3005.77 159.00
161 14.0000 6.351885 3064.00 3001.00 161.00
162 14.0500 6.329393 2665.00 2996.26 150.00
163 14.1000 6.307061 2684.00 2991.56 150.00
164 14.1500 6.284887 2797.00 2986.94 153.00
165 14.2000 6.262870 2676.00 2982.52 149.00
166 14.2500 6.241008 2816.00 2978.71 153.00
167 14.3000 6.219299 2684.00 2976.49 149.00
168 14.3500 6.197742 2826.00 2977.86 152.00
169 14.4000 6.176335 2844.00 2986.29 152.00
170 14.4500 6.155076 2800.00 3006.80 151.00
171 14.5000 6.133965 3049.00 3046.20 157.00
172 14.5500 6.112998 2997.00 3115.30 155.00
173 14.6000 6.092176 3286.00 3236.11 162.00
174 14.6500 6.071497 3370.00 3453.15 164.00
175 14.7000 6.050958 4079.00 3838.35 180.00
176 14.7500 6.030560 4644.00 4469.67 191.00
177 14.8000 6.010299 6031.00 5372.35 217.00
178 14.8500 5.990175 7114.00 6446.74 235.00
179 14.9000 5.970187 8268.00 7445.35 253.00
180 14.9500 5.950332 8708.00 8051.36 259.00
181 15.0000 5.930611 8038.00 8036.98 248.00
182 15.0500 5.911020 7140.00 7396.20 233.00
183 15.1000 5.891560 6088.00 6349.44 215.00
184 15.1500 5.872230 5046.00 5217.23 195.00
185 15.2000 5.853025 3999.00 4260.83 173.00
186 15.2500 5.833948 3326.00 3595.63 158.00
187 15.3000 5.814996 3014.00 3205.10 150.00
188 15.3500 5.796167 2785.00 3008.44 143.00
189 15.4000 5.777462 2886.00 2921.94 146.00
190 15.4500 5.758877 2752.00 2887.46 142.00
191 15.5000 5.740413 2853.00 2873.73 144.00
192 15.5500 5.722068 2885.00 2867.08 145.00
193 15.6000 5.703841 2705.00 2862.52 140.00
194 15.6500 5.685730 2767.00 2858.50 141.00
195 15.7000 5.667736 2779.00 2854.62 141.00
196 15.7500 5.649856 2928.00 2850.79 144.00
197 15.8000 5.632090 2841.00 2847.00 142.00
198 15.8500 5.614436 2786.00 2843.23 140.00
199 15.9000 5.596893 2980.00 2839.49 144.00
200 15.9500 5.579461 3127.00 2835.78 148.00
201 16.0000 5.562138 3204.00 2832.09 149.00
202 16.0500 5.544924 3457.00 2828.44 155.00
203 16.1000 5.527816 3627.00 2824.82 158.00
204 16.1500 5.510815 3570.00 2821.22 156.00
205 16.2000 5.493919 3254.00 2817.65 149.00
206 16.2500 5.477128 3188.00 2814.11 147.00
207 16.3000 5.460440 2901.00 2810.60 140.00
208 16.3500 5.443854 2915.00 2807.12 140.00
209 16.4000 5.427371 2719.00 2803.66 135.00
210 16.4500 5.410986 2776.00 2800.24 136.00
211 16.5000 5.394702 2671.00 2796.84 133.00
212 16.5500 5.378518 2717.00 2793.47 134.00
213 16.6000 5.362430 2728.00 2790.13 134.00
214 16.6500 5.346439 2853.00 2786.83 136.00
215 16.7000 5.330545 2682.00 2783.61 132.00
216 16.7500 5.314746 2756.00 2780.60 133.00
217 16.8000 5.299041 2646.00 2778.37 130.00
218 16.8500 5.283430 2859.00 2778.58 135.00
219 16.9000 5.267912 2763.00 2785.52 133.00
220 16.9500 5.252485 2717.00 2808.39 131.00
221 17.0000 5.237149 2965.00 2862.98 137.00
222 17.0500 5.221905 3023.00 2969.76 138.00
223 17.1000 5.206749 3198.00 3144.58 141.00
224 17.1500 5.191682 3517.00 3382.83 148.00
225 17.2000 5.176702 3725.00 3645.81 152.00
226 17.2500 5.161810 3955.00 3864.36 156.00
227 17.3000 5.147006 4032.00 3965.95 157.00
228 17.3500 5.132286 4119.00 3912.56 159.00
229 17.4000 5.117651 3684.00 3722.80 150.00
230 17.4500 5.103099 3268.00 3461.00 141.00
231 17.5000 5.088632 3049.00 3201.69 135.00
232 17.5500 5.074248 2927.00 2996.13 132.00
233 17.6000 5.059946 2777.00 2860.23 129.00
234 17.6500 5.045725 2800.00 2783.47 129.00
235 17.7000 5.031584 2891.00 2745.54 131.00
236 17.7500 5.017524 2800.00 2728.43 128.00
237 17.8000 5.003543 2701.00 2720.65 126.00
238 17.8500 4.989640 2761.00 2716.45 127.00
239 17.9000 4.975816 2724.00 2713.43 126.00
240 17.9500 4.962069 2771.00 2710.76 127.00
241 18.0000 4.948398 2750.00 2708.20 126.00
242 18.0500 4.934804 2778.00 2705.68 126.00
243 18.1000 4.921285 2653.00 2703.19 123.00
244 18.1500 4.907841 2812.00 2700.73 126.00
245 18.2000 4.894470 2965.00 2698.30 129.00
246 18.2500 4.881175 3055.00 2695.89 131.00
247 18.3000 4.867951 2939.00 2693.52 128.00
248 18.3500 4.854800 2928.00 2691.17 128.00
249 18.4000 4.841720 2859.00 2688.84 126.00
250 18.4500 4.828712 2891.00 2686.56 126.00
251 18.5000 4.815775 2805.00 2684.32 124.00
252 18.5500 4.802908 2789.00 2682.25 124.00
253 18.6000 4.790110 2695.00 2680.77 121.00
254 18.6500 4.777381 2614.00 2681.39 119.00
255 18.7000 4.764719 2670.00 2688.56 120.00
256 18.7500 4.752127 2713.00 2713.36 121.00
257 18.8000 4.739602 2991.00 2778.56 127.00
258 18.8500 4.727143 2946.00 2921.58 125.00
259 18.9000 4.714751 3409.00 3187.83 135.00
260 18.9500 4.702424 3877.00 3607.08 143.00
261 19.0000 4.690162 4359.00 4157.55 152.00
262 19.0500 4.677965 5065.00 4740.42 163.00
263 19.1000 4.665832 5357.00 5196.19 167.00
264 19.1500 4.653763 5387.00 5371.92 167.00
265 19.2000 4.641757 5206.00 5202.74 164.00
266 19.2500 4.629814 4747.00 4749.81 156.00
267 19.3000 4.617933 4131.00 4164.51 146.00
268 19.3500 4.606113 3513.00 3607.33 134.00
269 19.4000 4.594355 3116.00 3179.49 126.00
270 19.4500 4.582657 2860.00 2904.98 120.00
271 19.5000 4.571020 2806.00 2755.00 119.00
272 19.5500 4.559443 2828.00 2684.21 119.00
273 19.6000 4.547925 2807.00 2654.77 118.00
274 19.6500 4.536466 2691.00 2643.45 116.00
275 19.7000 4.525065 2695.00 2638.90 116.00
276 19.7500 4.513722 2618.00 2636.53 114.00
277 19.8000 4.502438 2677.00 2634.77 115.00
278 19.8500 4.491210 2717.00 2633.18 115.00
279 19.9000 4.480039 2591.00 2631.65 112.00
280 19.9500 4.468923 2623.00 2630.14 113.00
281 20.0000 4.457864 2653.00 2628.66 113.00
282 20.0500 4.446861 2648.00 2627.21 113.00
283 20.1000 4.435912 2767.00 2625.78 115.00
284 20.1500 4.425018 2642.00 2624.37 112.00
285 20.2000 4.414178 2713.00 2622.99 113.00
286 20.2500 4.403392 2596.00 2621.64 111.00
287 20.3000 4.392660 2522.00 2620.30 109.00
288 20.3500 4.381980 2528.00 2619.00 109.00
289 20.4000 4.371354 2458.00 2617.71 107.00
290 20.4500 4.360779 2721.00 2616.46 112.00
291 20.5000 4.350256 2663.00 2615.23 111.00
292 20.5500 4.339785 2680.00 2614.07 111.00
293 20.6000 4.329365 2744.00 2613.02 112.00
294 20.6500 4.318995 2635.00 2612.24 110.00
295 20.7000 4.308676 2655.00 2612.04 110.00
296 20.7500 4.298407 2693.00 2612.85 110.00
297 20.8000 4.288188 2626.00 2615.18 109.00
298 20.8500 4.278018 2646.00 2619.26 109.00
299 20.9000 4.267897 2701.00 2624.64 110.00
300 20.9500 4.257824 2615.00 2630.01 108.00
301 21.0000 4.247800 2571.00 2633.52 107.00
302 21.0500 4.237823 2689.00 2633.63 109.00
303 21.1000 4.227894 2574.00 2629.93 106.00
304 21.1500 4.218013 2573.00 2623.41 106.00
305 21.2000 4.208178 2603.00 2615.88 107.00
306 21.2500 4.198390 2669.00 2609.02 108.00
307 21.3000 4.188648 2599.00 2603.77 106.00
308 21.3500 4.178951 2632.00 2600.22 107.00
309 21.4000 4.169301 2635.00 2597.97 106.00
310 21.4500 4.159696 2639.00 2596.53 106.00
311 21.5000 4.150136 2570.00 2595.50 105.00
312 21.5500 4.140620 2689.00 2594.65 107.00
313 21.6000 4.131148 2678.00 2593.89 106.00
314 21.6500 4.121721 2611.00 2593.17 105.00
315 21.7000 4.112337 2629.00 2592.47 105.00
316 21.7500 4.102997 2593.00 2591.80 104.00
317 21.8000 4.093700 2570.00 2591.15 103.00
318 21.8500 4.084445 2742.00 2590.52 107.00
319 21.9000 4.075234 2621.00 2589.91 104.00
320 21.9500 4.066064 2525.00 2589.32 102.00
321 22.0000 4.056937 2536.00 2588.75 102.00
322 22.0500 4.047851 2494.00 2588.20 101.00
323 22.1000 4.038806 2495.00 2587.67 101.00
324 22.1500 4.029803 2591.00 2587.16 102.00
325 22.2000 4.020840 2745.00 2586.67 105.00
326 22.2500 4.011918 2717.00 2586.20 104.00
327 22.3000 4.003036 2683.00 2585.75 104.00
328 22.3500 3.994194 2651.00 2585.32 103.00
329 22.4000 3.985392 2606.00 2584.92 102.00
330 22.4500 3.976629 2569.00 2584.54 101.00
331 22.5000 3.967906 2559.00 2584.20 100.00
332 22.5500 3.959221 2642.00 2583.97 102.00
333 22.6000 3.950575 2682.00 2583.95 102.00
334 22.6500 3.941968 2602.00 2584.33 101.00
335 22.7000 3.933398 2662.00 2585.35 102.00
336 22.7500 3.924867 2400.00 2587.23 96.00
337 22.8000 3.916374 2475.00 2589.93 97.00
338 22.8500 3.907917 2528.00 2593.01 98.00
339 22.9000 3.899499 2536.00 2595.63 98.00
340 22.9500 3.891116 2559.00 2596.90 99.00
341 23.0000 3.882771 2595.00 2596.28 99.00
342 23.0500 3.874462 2588.00 2593.94 99.00
343 23.1000 3.866189 2605.00 2590.62 99.00
344 23.1500 3.857952 2443.00 2587.24 96.00
345 23.2000 3.849751 2551.00 2584.50 97.00
346 23.2500 3.841586 2563.00 2582.68 97.00
347 23.3000 3.833456 2415.00 2581.88 94.00
348 23.3500 3.825361 2428.00 2582.47 94.00
349 23.4000 3.817300 2510.00 2586.15 96.00
350 23.4500 3.809275 2576.00 2597.76 97.00
351 23.5000 3.801284 2724.00 2627.96 100.00
352 23.5500 3.793326 2784.00 2695.46 100.00
353 23.6000 3.785403 2871.00 2825.15 102.00
354 23.6500 3.777514 3163.00 3037.91 107.00
355 23.7000 3.769658 3656.00 3331.72 114.00
356 23.7500 3.761835 4055.00 3664.27 120.00
357 23.8000 3.754046 4322.00 3953.97 124.00
358 23.8500 3.746289 4365.00 4109.53 124.00
359 23.9000 3.738566 4118.00 4075.83 121.00
360 23.9500 3.730875 3789.00 3865.18 115.00
361 24.0000 3.723216 3452.00 3550.17 110.00
362 24.0500 3.715589 3213.00 3223.64 106.00
363 24.1000 3.707993 2817.00 2955.50 99.00
364 24.1500 3.700430 2702.00 2773.00 97.00
365 24.2000 3.692898 2486.00 2667.86 93.00
366 24.2500 3.685398 2437.00 2616.05 91.00
367 24.3000 3.677928 2605.00 2594.12 94.00
368 24.3500 3.670490 2569.00 2586.18 94.00
369 24.4000 3.663082 2502.00 2583.82 92.00
370 24.4500 3.655704 2480.00 2583.35 92.00
371 24.5000 3.648358 2639.00 2583.46 94.00
372 24.5500 3.641041 2615.00 2583.71 94.00
373 24.6000 3.633754 2533.00 2584.02 92.00
374 24.6500 3.626497 2550.00 2584.34 92.00
375 24.7000 3.619270 2462.00 2584.68 90.00
376 24.7500 3.612072 2588.00 2585.05 92.00
377 24.8000 3.604903 2723.00 2585.51 95.00
378 24.8500 3.597763 2726.00 2586.35 95.00
379 24.9000 3.590653 2752.00 2588.56 95.00
380 24.9500 3.583570 2749.00 2595.26 95.00
381 25.0000 3.576517 2748.00 2614.56 94.00
382 25.0500 3.569492 2873.00 2664.26 96.00
383 25.1000 3.562495 2897.00 2776.07 97.00
384 25.1500 3.555527 3113.00 2993.43 100.00
385 25.2000 3.548586 3669.00 3355.22 108.00
386 25.2500 3.541673 4123.00 3863.71 115.00
387 25.3000 3.534787 4954.00 4452.48 126.00
388 25.3500 3.527929 5553.00 4983.46 133.00
389 25.4000 3.521098 5771.00 5294.24 135.00
390 25.4500 3.514294 5563.00 5278.90 132.00
391 25.5000 3.507517 5056.00 4950.79 126.00
392 25.5500 3.500767 4512.00 4441.75 119.00
393 25.6000 3.494043 3963.00 3939.40 111.00
394 25.6500 3.487346 3604.00 3607.67 106.00
395 25.7000 3.480675 3492.00 3533.89 104.00
396 25.7500 3.474030 3803.00 3712.94 108.00
397 25.8000 3.467412 4424.00 4056.17 116.00
398 25.8500 3.460819 4793.00 4418.30 121.00
399 25.9000 3.454251 5066.00 4645.67 124.00
400 25.9500 3.447709 5021.00 4637.04 123.00
401 26.0000 3.441193 4595.00 4386.47 118.00
402 26.0500 3.434702 3953.00 3977.96 109.00
403 26.1000 3.428236 3427.00 3534.57 101.00
404 26.1500 3.421795 3028.00 3157.41 95.00
405 26.2000 3.415379 2851.00 2892.63 92.00
406 26.2500 3.408987 2618.00 2735.64 88.00
407 26.3000 3.402620 2562.00 2656.16 87.00
408 26.3500 3.396277 2577.00 2621.70 87.00
409 26.4000 3.389959 2528.00 2609.05 86.00
410 26.4500 3.383664 2594.00 2605.35 87.00
411 26.5000 3.377394 2632.00 2604.79 87.00
412 26.5500 3.371148 2771.00 2605.20 90.00
413 26.6000 3.364924 2855.00 2605.87 91.00
414 26.6500 3.358725 2868.00 2606.59 91.00
415 26.7000 3.352549 3007.00 2607.34 93.00
416 26.7500 3.346397 3032.00 2608.10 93.00
417 26.8000 3.340268 2978.00 2608.87 92.00
418 26.8500 3.334161 2977.00 2609.64 92.00
419 26.9000 3.328078 2908.00 2610.42 91.00
420 26.9500 3.322017 2714.00 2611.21 87.00
421 27.0000 3.315979 2661.00 2612.00 86.00
422 27.0500 3.309964 2581.00 2612.80 85.00
423 27.1000 3.303971 2498.00 2613.61 83.00
424 27.1500 3.298000 2616.00 2614.42 85.00
425 27.2000 3.292052 2565.00 2615.24 84.00
426 27.2500 3.286125 2565.00 2616.07 84.00
427 27.3000 3.280221 2543.00 2616.90 83.00
428 27.3500 3.274338 2559.00 2617.74 84.00
429 27.4000 3.268477 2543.00 2618.58 83.00
430 27.4500 3.262637 2524.00 2619.43 83.00
431 27.5000 3.256819 2439.00 2620.29 81.00
432 27.5500 3.251023 2510.00 2621.15 82.00
433 27.6000 3.245247 2485.00 2622.02 82.00
434 27.6500 3.239493 2506.00 2622.91 82.00
435 27.7000 3.233759 2515.00 2623.88 82.00
436 27.7500 3.228047 2611.00 2625.13 83.00
437 27.8000 3.222355 2643.00 2627.34 84.00
438 27.8500 3.216684 2612.00 2632.42 83.00
439 27.9000 3.211033 2618.00 2644.80 83.00
440 27.9500 3.205403 2664.00 2673.12 83.00
441 28.0000 3.199793 2662.00 2730.64 83.00
442 28.0500 3.194204 2915.00 2832.00 87.00
443 28.1000 3.188634 3090.00 2984.62 89.00
444 28.1500 3.183084 3183.00 3177.19 91.00
445 28.2000 3.177555 3549.00 3374.08 96.00
446 28.2500 3.172045 3526.00 3525.77 95.00
447 28.3000 3.166555 3700.00 3597.10 97.00
448 28.3500 3.161084 3713.00 3601.59 97.00
449 28.4000 3.155633 3778.00 3622.07 98.00
450 28.4500 3.150201 3927.00 3801.38 100.00
451 28.5000 3.144788 4379.00 4296.56 105.00
452 28.5500 3.139395 5247.00 5200.54 115.00
453 28.6000 3.134021 6705.00 6454.93 130.00
454 28.6500 3.128665 8257.00 7805.84 144.00
455 28.7000 3.123329 9606.00 8861.37 155.00
456 28.7500 3.118011 9515.00 9256.52 154.00
457 28.8000 3.112712 8895.00 8840.21 148.00
458 28.8500 3.107432 7899.00 7756.08 140.00
459 28.9000 3.102170 6307.00 6357.02 124.00
460 28.9500 3.096926 4885.00 5018.58 109.00
461 29.0000 3.091701 3635.00 3981.93 94.00
462 29.0500 3.086494 3042.00 3309.34 86.00
463 29.1000 3.081304 2831.00 2937.71 83.00
464 29.1500 3.076133 2810.00 2761.43 82.00
465 29.2000 3.070980 2597.00 2689.73 79.00
466 29.2500 3.065845 2617.00 2665.65 79.00
467 29.3000 3.060727 2566.00 2661.06 78.00
468 29.3500 3.055627 2550.00 2665.00 78.00
469 29.4000 3.050545 2645.00 2674.32 79.00
470 29.4500 3.045480 2680.00 2688.09 79.00
471 29.5000 3.040432 2601.00 2704.62 78.00
472 29.5500 3.035402 2621.00 2720.52 78.00
473 29.6000 3.030389 2840.00 2731.43 81.00
474 29.6500 3.025393 2686.00 2733.99 79.00
475 29.7000 3.020414 2616.00 2727.64 78.00
476 29.7500 3.015452 2615.00 2714.92 78.00
477 29.8000 3.010507 2561.00 2700.11 77.00
478 29.8500 3.005578 2539.00 2687.04 76.00
479 29.9000 3.000666 2546.00 2677.78 76.00
480 29.9500 2.995771 2652.00 2672.49 78.00
481 30.0000 2.990893 2500.00 2670.24 75.00
482 30.0500 2.986031 2525.00 2669.85 76.00
483 30.1000 2.981184 2597.00 2670.40 76.00
484 30.1500 2.976355 2573.00 2671.32 76.00
485 30.2000 2.971542 2627.00 2672.31 77.00
486 30.2500 2.966744 2544.00 2673.26 75.00
487 30.3000 2.961963 2641.00 2674.13 77.00
488 30.3500 2.957198 2804.00 2674.95 79.00
489 30.4000 2.952448 2678.00 2675.76 77.00
490 30.4500 2.947715 2728.00 2676.60 77.00
491 30.5000 2.942997 2691.00 2677.49 77.00
492 30.5500 2.938295 2673.00 2678.41 76.00
493 30.6000 2.933608 2711.00 2679.35 77.00
494 30.6500 2.928936 2693.00 2680.31 76.00
495 30.7000 2.924280 2810.00 2681.28 78.00
496 30.7500 2.919640 2853.00 2682.25 78.00
497 30.8000 2.915015 2834.00 2683.22 78.00
498 30.8500 2.910405 2752.00 2684.23 77.00
499 30.9000 2.905810 2608.00 2685.39 75.00
500 30.9500 2.901230 2745.00 2687.10 76.00
501 31.0000 2.896665 2661.00 2690.65 75.00
502 31.0500 2.892115 2645.00 2699.36 75.00
503 31.1000 2.887580 2553.00 2720.60 73.00
504 31.1500 2.883059 2640.00 2767.60 74.00
505 31.2000 2.878553 2677.00 2858.98 75.00
506 31.2500 2.874062 2894.00 3012.40 78.00
507 31.3000 2.869586 3079.00 3231.53 80.00
508 31.3500 2.865123 3395.00 3491.51 84.00
509 31.4000 2.860675 3697.00 3735.71 87.00
510 31.4500 2.856242 3840.00 3892.62 89.00
511 31.5000 2.851823 3852.00 3909.37 89.00
512 31.5500 2.847418 3651.00 3780.31 86.00
513 31.6000 2.843027 3617.00 3550.30 86.00
514 31.6500 2.838650 3307.00 3289.89 82.00
515 31.7000 2.834287 3230.00 3060.99 81.00
516 31.7500 2.829938 3021.00 2895.34 78.00
517 31.8000 2.825603 2967.00 2794.15 77.00
518 31.8500 2.821282 2925.00 2741.44 77.00
519 31.9000 2.816974 2854.00 2718.03 75.00
520 31.9500 2.812680 2802.00 2709.44 75.00
521 32.0000 2.808400 2898.00 2707.42 76.00
522 32.0500 2.804134 2783.00 2708.73 74.00
523 32.1000 2.799881 2785.00 2713.99 74.00
524 32.1500 2.795640 2898.00 2728.12 75.00
525 32.2000 2.791414 2804.00 2762.35 74.00
526 32.2500 2.787201 2807.00 2835.87 74.00
527 32.3000 2.783001 2865.00 2973.38 75.00
528 32.3500 2.778814 3161.00 3194.46 78.00
529 32.4000 2.774641 3311.00 3495.15 80.00
530 32.4500 2.770480 3750.00 3831.92 85.00
531 32.5000 2.766332 4139.00 4123.62 89.00
532 32.5500 2.762198 4316.00 4280.75 91.00
533 32.6000 2.758076 4100.00 4249.29 88.00
534 32.6500 2.753966 3795.00 4040.72 85.00
535 32.7000 2.749870 3514.00 3725.44 82.00
536 32.7500 2.745787 3154.00 3394.85 77.00
537 32.8000 2.741716 2894.00 3119.68 74.00
538 32.8500 2.737658 2714.00 2929.73 71.00
539 32.9000 2.733611 2728.00 2819.92 71.00
540 32.9500 2.729578 2674.00 2769.57 70.00
541 33.0000 2.725557 2656.00 2759.83 70.00
542 33.0500 2.721549 2706.00 2781.82 71.00
543 33.1000 2.717552 2641.00 2835.81 70.00
544 33.1500 2.713567 2813.00 2924.16 72.00
545 33.2000 2.709596 2943.00 3042.00 73.00
546 33.2500 2.705636 3011.00 3170.56 74.00
547 33.3000 2.701688 3184.00 3279.65 76.00
548 33.3500 2.697753 3091.00 3341.19 75.00
549 33.4000 2.693829 3200.00 3347.34 76.00
550 33.4500 2.689917 3173.00 3320.74 76.00
551 33.5000 2.686017 3161.00 3306.77 75.00
552 33.5500 2.682128 3169.00 3349.48 75.00
553 33.6000 2.678252 3328.00 3463.83 77.00
554 33.6500 2.674387 3503.00 3621.11 79.00
555 33.7000 2.670534 3796.00 3758.85 82.00
556 33.7500 2.666693 3849.00 3811.71 82.00
557 33.8000 2.662863 3675.00 3746.11 80.00
558 33.8500 2.659044 3608.00 3576.57 80.00
559 33.9000 2.655237 3287.00 3354.25 76.00
560 33.9500 2.651441 3017.00 3137.72 72.00
561 34.0000 2.647657 2752.00 2966.86 69.00
562 34.0500 2.643884 2550.00 2853.85 66.00
563 34.1000 2.640122 2610.00 2790.22 67.00
564 34.1500 2.636371 2534.00 2759.52 66.00
565 34.2000 2.632632 2529.00 2746.91 66.00
566 34.2500 2.628904 2432.00 2742.67 64.00
567 34.3000 2.625187 2493.00 2741.74 65.00
568 34.3500 2.621480 2528.00 2742.01 65.00
569 34.4000 2.617785 2588.00 2742.95 66.00
570 34.4500 2.614100 2618.00 2745.43 66.00
571 34.5000 2.610427 2588.00 2753.30 66.00
572 34.5500 2.606764 2605.00 2778.40 66.00
573 34.6000 2.603112 2858.00 2851.21 69.00
574 34.6500 2.599470 3049.00 3037.64 71.00
575 34.7000 2.595840 3586.00 3454.34 77.00
576 34.7500 2.592220 4424.00 4261.89 86.00
577 34.8000 2.588610 5958.00 5608.35 99.00
578 34.8500 2.585011 7910.00 7516.20 114.00
579 34.9000 2.581423 10306.00 9762.16 130.00
580 34.9500 2.577845 12256.00 11854.80 142.00
581 35.0000 2.574277 13637.00 13183.80 149.00
582 35.0500 2.570720 13446.00 13303.10 148.00
583 35.1000 2.567173 12390.00 12170.90 142.00
584 35.1500 2.563636 10240.00 10173.30 129.00
585 35.2000 2.560109 7811.00 7913.16 112.00
586 35.2500 2.556593 5723.00 5920.15 96.00
587 35.3000 2.553087 4386.00 4468.87 84.00
588 35.3500 2.549591 3441.00 3573.92 74.00
589 35.4000 2.546105 3011.00 3100.54 69.00
590 35.4500 2.542629 2842.00 2884.45 67.00
591 35.5000 2.539163 2696.00 2799.39 65.00
592 35.5500 2.535707 2778.00 2771.17 66.00
593 35.6000 2.532260 2786.00 2764.88 66.00
594 35.6500 2.528823 2742.00 2768.79 65.00
595 35.7000 2.525397 2708.00 2785.19 65.00
596 35.7500 2.521980 2823.00 2828.81 66.00
597 35.8000 2.518573 2937.00 2928.76 67.00
598 35.8500 2.515175 3058.00 3127.10 69.00
599 35.9000 2.511787 3402.00 3465.63 72.00
600 35.9500 2.508409 4051.00 3957.44 79.00
601 36.0000 2.505040 4724.00 4553.88 85.00
602 36.0500 2.501681 5150.00 5132.77 89.00
603 36.1000 2.498331 5420.00 5531.22 91.00
604 36.1500 2.494991 5366.00 5617.95 90.00
605 36.2000 2.491660 5238.00 5362.76 89.00
606 36.2500 2.488338 4601.00 4853.24 83.00
607 36.3000 2.485026 3960.00 4246.76 77.00
608 36.3500 2.481723 3368.00 3692.64 71.00
609 36.4000 2.478429 2956.00 3276.90 66.00
610 36.4500 2.475145 2740.00 3013.41 64.00
611 36.5000 2.471869 2624.00 2870.54 62.00
612 36.5500 2.468603 2525.00 2804.75 61.00
613 36.6000 2.465346 2558.00 2782.61 61.00
614 36.6500 2.462098 2550.00 2789.50 61.00
615 36.7000 2.458859 2603.00 2832.37 62.00
616 36.7500 2.455628 2715.00 2942.37 63.00
617 36.8000 2.452407 2929.00 3175.18 65.00
618 36.8500 2.449195 3505.00 3599.37 71.00
619 36.9000 2.445992 4304.00 4261.96 79.00
620 36.9500 2.442797 5107.00 5136.94 86.00
621 37.0000 2.439611 6080.00 6086.29 93.00
622 37.0500 2.436434 6934.00 6876.06 100.00
623 37.1000 2.433266 7334.00 7264.52 102.00
624 37.1500 2.430106 7035.00 7120.89 100.00
625 37.2000 2.426955 6319.00 6496.18 95.00
626 37.2500 2.423813 5559.00 5594.34 89.00
627 37.3000 2.420680 4532.00 4665.31 80.00
628 37.3500 2.417554 3718.00 3896.26 72.00
629 37.4000 2.414437 3210.00 3362.45 67.00
630 37.4500 2.411329 2970.00 3045.12 64.00
631 37.5000 2.408229 2761.00 2881.65 62.00
632 37.5500 2.405138 2701.00 2808.11 61.00
633 37.6000 2.402055 2621.00 2779.12 60.00
634 37.6500 2.398981 2642.00 2769.44 60.00
635 37.7000 2.395914 2538.00 2768.38 59.00
636 37.7500 2.392857 2708.00 2775.52 61.00
637 37.8000 2.389807 2782.00 2802.45 61.00
638 37.8500 2.386765 2886.00 2883.26 62.00
639 37.9000 2.383732 3093.00 3093.95 65.00
640 37.9500 2.380707 3736.00 3573.01 71.00
641 38.0000 2.377690 4632.00 4518.91 79.00
642 38.0500 2.374681 6326.00 6130.11 92.00
643 38.1000 2.371680 9184.00 8472.90 111.00
644 38.1500 2.368687 11958.00 11323.60 126.00
645 38.2000 2.365702 14725.00 14109.60 140.00
646 38.2500 2.362725 16695.00 16059.10 149.00
647 38.3000 2.359756 16909.00 16537.30 150.00
648 38.3500 2.356795 15833.00 15378.80 145.00
649 38.4000 2.353842 13316.00 12979.90 132.00
650 38.4500 2.350896 9973.00 10083.60 114.00
651 38.5000 2.347959 7174.00 7415.28 97.00
652 38.5500 2.345029 5248.00 5411.03 83.00
653 38.6000 2.342107 4002.00 4165.03 72.00
654 38.6500 2.339192 3524.00 3542.51 67.00
655 38.7000 2.336286 3276.00 3329.72 65.00
656 38.7500 2.333387 3416.00 3331.52 66.00
657 38.8000 2.330495 3527.00 3405.71 67.00
658 38.8500 2.327612 3568.00 3466.99 67.00
659 38.9000 2.324735 3776.00 3488.00 69.00
660 38.9500 2.321867 3743.00 3501.25 69.00
661 39.0000 2.319006 3697.00 3591.44 68.00
662 39.0500 2.316152 4042.00 3867.80 71.00
663 39.1000 2.313306 4669.00 4414.18 76.00
664 39.1500 2.310467 5482.00 5227.88 83.00
665 39.2000 2.307636 6431.00 6177.51 90.00
666 39.2500 2.304812 7357.00 7018.03 96.00
667 39.3000 2.301995 7848.00 7482.07 99.00
668 39.3500 2.299186 7735.00 7411.41 98.00
669 39.4000 2.296384 7171.00 6852.68 94.00
670 39.4500 2.293589 6395.00 6061.82 89.00
671 39.5000 2.290801 5862.00 5430.32 85.00
672 39.5500 2.288021 5779.00 5396.53 84.00
673 39.6000 2.285248 6992.00 6374.06 92.00
674 39.6500 2.282481 9333.00 8659.93 106.00
675 39.7000 2.279722 13242.00 12271.80 127.00
676 39.7500 2.276971 17500.00 16752.30 145.00
677 39.8000 2.274226 21913.00 21119.50 163.00
678 39.8500 2.271488 24799.00 24125.90 173.00
679 39.9000 2.268757 25073.00 24796.80 173.00
680 39.9500 2.266034 22504.00 22937.90 164.00
681 40.0000 2.263317 18948.00 19250.20 150.00
682 40.0500 2.260607 14774.00 14962.00 132.00
683 40.1000 2.257904 10930.00 11230.60 114.00
684 40.1500 2.255208 8427.00 8693.70 100.00
685 40.2000 2.252519 7242.00 7373.03 92.00
686 40.2500 2.249837 6892.00 6873.10 90.00
687 40.3000 2.247161 6727.00 6681.51 88.00
688 40.3500 2.244493 6645.00 6408.92 88.00
689 40.4000 2.241830 6294.00 5895.47 85.00
690 40.4500 2.239175 5703.00 5187.47 81.00
691 40.5000 2.236527 4993.00 4436.06 76.00
692 40.5500 2.233885 4656.00 3786.96 73.00
693 40.6000 2.231250 4062.00 3315.82 68.00
694 40.6500 2.228621 3705.00 3023.43 65.00
695 40.7000 2.225999 3261.00 2866.52 61.00
696 40.7500 2.223384 2985.00 2793.11 58.00
697 40.8000 2.220775 2879.00 2762.90 57.00
698 40.8500 2.218173 2798.00 2751.76 56.00
699 40.9000 2.215577 2658.00 2747.87 54.00
700 40.9500 2.212987 2575.00 2746.36 53.00
701 41.0000 2.210405 2662.00 2745.53 54.00
702 41.0500 2.207828 2568.00 2744.87 53.00
703 41.1000 2.205258 2577.00 2744.23 53.00
704 41.1500 2.202695 2620.00 2743.59 54.00
705 41.2000 2.200137 2563.00 2742.94 53.00
706 41.2500 2.197587 2497.00 2742.29 52.00
707 41.3000 2.195042 2553.00 2741.62 53.00
708 41.3500 2.192504 2497.00 2740.94 52.00
709 41.4000 2.189972 2593.00 2740.26 53.00
710 41.4500 2.187446 2566.00 2739.56 52.00
711 41.5000 2.184927 2578.00 2738.86 53.00
712 41.5500 2.182414 2592.00 2738.15 53.00
713 41.6000 2.179907 2652.00 2737.43 53.00
714 41.6500 2.177406 2619.00 2736.72 53.00
715 41.7000 2.174911 2605.00 2736.06 52.00
716 41.7500 2.172422 2627.00 2735.54 53.00
717 41.8000 2.169940 2648.00 2735.39 53.00
718 41.8500 2.167464 2679.00 2736.00 53.00
719 41.9000 2.164993 2544.00 2737.95 52.00
720 41.9500 2.162529 2537.00 2741.83 51.00
721 42.0000 2.160070 2544.00 2747.86 51.00
722 42.0500 2.157618 2571.00 2755.46 52.00
723 42.1000 2.155172 2471.00 2763.03 50.00
724 42.1500 2.152731 2550.00 2768.36 51.00
725 42.2000 2.150297 2551.00 2769.70 51.00
726 42.2500 2.147868 2625.00 2767.09 52.00
727 42.3000 2.145446 2563.00 2763.85 51.00
728 42.3500 2.143029 2665.00 2768.85 52.00
729 42.4000 2.140618 2865.00 2801.04 54.00
730 42.4500 2.138213 2994.00 2897.07 55.00
731 42.5000 2.135813 3223.00 3118.09 57.00
732 42.5500 2.133420 3688.00 3545.45 61.00
733 42.6000 2.131032 4388.00 4251.97 66.00
734 42.6500 2.128650 5408.00 5246.76 74.00
735 42.7000 2.126274 6485.00 6419.19 80.00
736 42.7500 2.123903 7482.00 7532.69 86.00
737 42.8000 2.121538 8393.00 8308.93 91.00
738 42.8500 2.119179 8653.00 8582.74 93.00
739 42.9000 2.116825 8448.00 8442.33 91.00
740 42.9500 2.114477 8323.00 8250.58 91.00
741 43.0000 2.112135 8649.00 8502.80 93.00
742 43.0500 2.109798 9830.00 9571.94 99.00
743 43.1000 2.107467 11793.00 11463.30 108.00
744 43.1500 2.105141 13794.00 13720.30 117.00
745 43.2000 2.102821 15631.00 15569.10 125.00
746 43.2500 2.100506 16306.00 16265.50 127.00
747 43.3000 2.098197 15528.00 15462.00 124.00
748 43.3500 2.095894 13259.00 13368.80 115.00
749 43.4000 2.093595 10287.00 10613.40 101.00
750 43.4500 2.091302 7785.00 7904.77 88.00
751 43.5000 2.089015 5571.00 5734.97 74.00
752 43.5500 2.086733 4145.00 4269.14 64.00
753 43.6000 2.084456 3399.00 3419.93 58.00
754 43.6500 2.082185 3150.00 2996.41 56.00
755 43.7000 2.079919 2911.00 2821.59 53.00
756 43.7500 2.077658 2817.00 2786.57 53.00
757 43.8000 2.075403 2932.00 2858.20 54.00
758 43.8500 2.073153 3191.00 3068.43 56.00
759 43.9000 2.070908 3586.00 3495.36 59.00
760 43.9500 2.068669 4076.00 4226.89 63.00
761 44.0000 2.066435 5211.00 5297.70 72.00
762 44.0500 2.064205 6553.00 6616.97 80.00
763 44.1000 2.061982 7770.00 7936.30 88.00
764 44.1500 2.059763 8715.00 8906.29 93.00
765 44.2000 2.057549 9306.00 9222.27 96.00
766 44.2500 2.055341 8846.00 8777.32 94.00
767 44.3000 2.053138 8079.00 7720.08 89.00
768 44.3500 2.050940 6982.00 6374.99 83.00
769 44.4000 2.048747 5806.00 5082.49 76.00
770 44.4500 2.046559 4828.00 4065.59 69.00
771 44.5000 2.044376 4226.00 3390.17 65.00
772 44.5500 2.042198 3918.00 3009.70 62.00
773 44.6000 2.040025 3653.00 2842.46 60.00
774 44.6500 2.037857 3474.00 2837.10 58.00
775 44.7000 2.035694 3509.00 3016.27 59.00
776 44.7500 2.033536 4075.00 3503.46 63.00
777 44.8000 2.031383 4910.00 4525.30 70.00
778 44.8500 2.029235 6713.00 6357.58 81.00
779 44.9000 2.027092 9531.00 9180.75 97.00
780 44.9500 2.024954 13358.00 12873.80 115.00
781 45.0000 2.022821 17493.00 16865.50 132.00
782 45.0500 2.020692 20883.00 20214.80 144.00
783 45.1000 2.018569 22587.00 21987.20 150.00
784 45.1500 2.016450 22452.00 21792.10 149.00
785 45.2000 2.014336 21108.00 20190.40 145.00
786 45.2500 2.012227 19549.00 18750.30 139.00
787 45.3000 2.010123 20171.00 19725.50 142.00
788 45.3500 2.008024 25699.00 25437.10 160.00
789 45.4000 2.005929 37295.00 37402.70 193.00
790 45.4500 2.003839 55960.00 55328.10 236.00
791 45.5000 2.001753 78109.00 76400.60 279.00
792 45.5500 1.999673 98301.00 95610.90 313.00
793 45.6000 1.997597 110533.00 107540.00 332.00
794 45.6500 1.995526 111957.00 108949.00 334.00
795 45.7000 1.993459 102407.00 100578.00 320.00
796 45.7500 1.991398 87574.00 86793.30 295.00
797 45.8000 1.989340 73056.00 73192.10 270.00
798 45.8500 1.987288 63345.00 63721.10 251.00
799 45.9000 1.985240 58831.00 59090.40 242.00
800 45.9500 1.983196 57325.00 57188.30 239.00
801 46.0000 1.981158 55418.00 54884.50 235.00
802 46.0500 1.979123 50981.00 49935.30 225.00
803 46.1000 1.977094 42335.00 41963.20 205.00
804 46.1500 1.975069 32389.00 32231.10 179.00
805 46.2000 1.973048 22823.00 22648.60 151.00
806 46.2500 1.971032 14826.00 14751.10 121.00
807 46.3000 1.969020 9322.00 9186.54 96.00
808 46.3500 1.967013 6014.00 5794.09 77.00
809 46.4000 1.965011 4337.00 3993.01 65.00
810 46.4500 1.963012 3516.00 3161.26 59.00
811 46.5000 1.961018 3159.00 2841.06 56.00
812 46.5500 1.959029 2995.00 2774.87 54.00
813 46.6000 1.957044 2987.00 2857.53 54.00
814 46.6500 1.955063 3076.00 3069.80 55.00
815 46.7000 1.953087 3407.00 3419.17 58.00
816 46.7500 1.951115 3857.00 3891.52 62.00
817 46.8000 1.949148 4352.00 4419.95 65.00
818 46.8500 1.947185 4735.00 4886.19 68.00
819 46.9000 1.945226 5137.00 5162.85 71.00
820 46.9500 1.943271 5088.00 5181.48 71.00
821 47.0000 1.941321 4916.00 4987.98 70.00
822 47.0500 1.939375 4673.00 4752.01 68.00
823 47.1000 1.937434 4786.00 4721.44 69.00
824 47.1500 1.935496 5335.00 5137.81 73.00
825 47.2000 1.933563 6399.00 6134.67 79.00
826 47.2500 1.931634 8016.00 7646.17 89.00
827 47.3000 1.929709 9641.00 9368.39 98.00
828 47.3500 1.927789 11229.00 10826.00 105.00
829 47.4000 1.925872 11952.00 11551.80 109.00
830 47.4500 1.923960 11466.00 11302.40 107.00
831 47.5000 1.922052 9921.00 10175.10 99.00
832 47.5500 1.920148 8197.00 8545.08 90.00
833 47.6000 1.918248 6512.00 6866.43 80.00
834 47.6500 1.916352 5172.00 5471.31 71.00
835 47.7000 1.914461 4284.00 4481.04 65.00
836 47.7500 1.912573 3623.00 3846.98 60.00
837 47.8000 1.910690 3327.00 3450.11 57.00
838 47.8500 1.908811 3189.00 3184.10 56.00
839 47.9000 1.906935 2955.00 2988.06 54.00
840 47.9500 1.905064 2829.00 2838.81 53.00
841 48.0000 1.903197 2709.00 2730.41 52.00
842 48.0500 1.901334 2629.00 2659.28 51.00
843 48.1000 1.899475 2567.00 2620.11 50.00
844 48.1500 1.897620 2633.00 2608.92 51.00
845 48.2000 1.895768 2757.00 2628.76 52.00
846 48.2500 1.893921 2803.00 2695.36 52.00
847 48.3000 1.892078 3036.00 2841.31 55.00
848 48.3500 1.890239 3267.00 3118.90 57.00
849 48.4000 1.888403 3732.00 3603.22 61.00
850 48.4500 1.886572 4615.00 4400.89 67.00
851 48.5000 1.884744 6251.00 5665.39 79.00
852 48.5500 1.882921 8294.00 7601.87 91.00
853 48.6000 1.881101 11097.00 10420.30 105.00
854 48.6500 1.879285 15072.00 14195.90 122.00
855 48.7000 1.877473 19124.00 18664.70 138.00
856 48.7500 1.875665 23002.00 23089.80 151.00
857 48.8000 1.873860 25971.00 26380.30 161.00
858 48.8500 1.872060 26877.00 27504.50 163.00
859 48.9000 1.870263 25243.00 26005.00 158.00
860 48.9500 1.868470 21595.00 22267.70 146.00
861 49.0000 1.866681 17011.00 17343.60 130.00
862 49.0500 1.864896 12375.00 12445.80 111.00
863 49.1000 1.863114 8373.00 8456.75 91.00
864 49.1500 1.861336 5923.00 5723.42 76.00
865 49.2000 1.859562 4268.00 4151.35 65.00
866 49.2500 1.857792 3493.00 3442.69 59.00
867 49.3000 1.856025 3315.00 3291.48 57.00
868 49.3500 1.854262 3530.00 3463.90 59.00
869 49.4000 1.852503 3687.00 3789.02 60.00
870 49.4500 1.850747 4028.00 4126.53 63.00
871 49.5000 1.848996 4330.00 4356.85 65.00
872 49.5500 1.847247 4369.00 4400.84 66.00
873 49.6000 1.845503 4193.00 4243.93 64.00
874 49.6500 1.843762 3897.00 3937.09 62.00
875 49.7000 1.842025 3463.00 3567.96 58.00
876 49.7500 1.840291 3074.00 3219.96 55.00
877 49.8000 1.838561 2865.00 2944.03 53.00
878 49.8500 1.836835 2753.00 2753.45 52.00
879 49.9000 1.835112 2615.00 2636.03 51.00
880 49.9500 1.833392 2592.00 2570.18 50.00
881 50.0000 1.831677 2522.00 2535.87 50.00
882 50.0500 1.829965 2483.00 2518.85 49.00
883 50.1000 1.828256 2486.00 2510.47 49.00
884 50.1500 1.826551 2541.00 2506.06 50.00
885 50.2000 1.824849 2480.00 2503.36 49.00
886 50.2500 1.823151 2498.00 2501.44 49.00
887 50.3000 1.821457 2506.00 2500.18 50.00
888 50.3500 1.819766 2583.00 2500.33 50.00
889 50.4000 1.818078 2494.00 2504.02 49.00
890 50.4500 1.816394 2541.00 2515.78 50.00
891 50.5000 1.814713 2603.00 2543.44 51.00
892 50.5500 1.813036 2626.00 2597.78 51.00
893 50.6000 1.811363 2710.00 2689.43 52.00
894 50.6500 1.809692 2772.00 2822.99 52.00
895 50.7000 1.808025 3029.00 2992.08 55.00
896 50.7500 1.806362 3204.00 3181.77 56.00
897 50.8000 1.804702 3321.00 3384.00 57.00
898 50.8500 1.803045 3582.00 3622.28 59.00
899 50.9000 1.801392 4009.00 3968.50 63.00
900 50.9500 1.799742 4366.00 4530.36 66.00
901 51.0000 1.798095 5272.00 5398.83 72.00
902 51.0500 1.796452 6430.00 6574.20 80.00
903 51.1000 1.794812 7963.00 7917.02 89.00
904 51.1500 1.793176 9350.00 9167.24 96.00
905 51.2000 1.791543 10149.00 10037.90 100.00
906 51.2500 1.789913 10537.00 10330.20 102.00
907 51.3000 1.788286 9934.00 10004.50 99.00
908 51.3500 1.786663 8982.00 9168.96 94.00
909 51.4000 1.785043 7774.00 8014.36 88.00
910 51.4500 1.783426 6382.00 6743.45 79.00
911 51.5000 1.781813 5232.00 5527.30 72.00
912 51.5500 1.780202 4224.00 4487.05 64.00
913 51.6000 1.778595 3513.00 3686.45 59.00
914 51.6500 1.776991 2963.00 3133.22 54.00
915 51.7000 1.775391 2652.00 2791.83 51.00
916 51.7500 1.773794 2586.00 2605.96 50.00
917 51.8000 1.772200 2466.00 2521.22 49.00
918 51.8500 1.770609 2501.00 2499.59 50.00
919 51.9000 1.769021 2483.00 2522.87 49.00
920 51.9500 1.767437 2489.00 2588.08 49.00
921 52.0000 1.765855 2583.00 2698.84 50.00
922 52.0500 1.764277 2837.00 2857.12 53.00
923 52.1000 1.762702 2868.00 3060.27 53.00
924 52.1500 1.761130 3132.00 3306.14 55.00
925 52.2000 1.759561 3430.00 3603.28 58.00
926 52.2500 1.757996 3744.00 3973.39 61.00
927 52.3000 1.756433 4232.00 4433.91 65.00
928 52.3500 1.754874 4795.00 4963.34 69.00
929 52.4000 1.753318 5450.00 5474.71 73.00
930 52.4500 1.751765 5969.00 5829.34 77.00
931 52.5000 1.750214 6077.00 5895.78 77.00
932 52.5500 1.748667 5758.00 5621.72 75.00
933 52.6000 1.747123 5134.00 5067.64 71.00
934 52.6500 1.745582 4386.00 4378.13 66.00
935 52.7000 1.744045 3611.00 3711.88 60.00
936 52.7500 1.742510 3138.00 3178.38 56.00
937 52.8000 1.740978 2769.00 2814.98 52.00
938 52.8500 1.739449 2562.00 2603.10 50.00
939 52.9000 1.737923 2358.00 2501.34 48.00
940 52.9500 1.736401 2366.00 2472.63 48.00
941 53.0000 1.734881 2375.00 2495.91 48.00
942 53.0500 1.733364 2497.00 2564.27 49.00
943 53.1000 1.731850 2722.00 2675.35 52.00
944 53.1500 1.730339 2712.00 2820.30 52.00
945 53.2000 1.728831 2897.00 2977.86 53.00
946 53.2500 1.727327 3029.00 3119.02 55.00
947 53.3000 1.725825 3060.00 3222.26 55.00
948 53.3500 1.724326 3096.00 3290.95 55.00
949 53.4000 1.722829 3331.00 3358.52 57.00
950 53.4500 1.721336 3362.00 3472.26 57.00
951 53.5000 1.719846 3462.00 3660.57 58.00
952 53.5500 1.718359 3910.00 3903.98 62.00
953 53.6000 1.716874 4203.00 4131.80 64.00
954 53.6500 1.715393 4481.00 4252.25 66.00
955 53.7000 1.713914 4389.00 4200.24 66.00
956 53.7500 1.712438 4226.00 3972.18 65.00
957 53.8000 1.710965 3874.00 3626.24 62.00
958 53.8500 1.709495 3529.00 3250.03 59.00
959 53.9000 1.708028 3120.00 2920.18 55.00
960 53.9500 1.706563 2959.00 2677.22 54.00
961 54.0000 1.705102 2813.00 2525.47 53.00
962 54.0500 1.703643 2873.00 2449.21 53.00
963 54.1000 1.702187 2766.00 2431.39 52.00
964 54.1500 1.700734 2697.00 2466.22 51.00
965 54.2000 1.699284 2787.00 2563.66 52.00
966 54.2500 1.697836 2922.00 2747.56 54.00
967 54.3000 1.696391 3234.00 3048.88 56.00
968 54.3500 1.694949 3550.00 3494.22 59.00
969 54.4000 1.693510 4056.00 4088.76 63.00
970 54.4500 1.692074 4698.00 4796.52 68.00
971 54.5000 1.690640 5321.00 5525.71 72.00
972 54.5500 1.689209 5853.00 6134.27 76.00
973 54.6000 1.687781 6113.00 6467.85 78.00
974 54.6500 1.686356 6221.00 6422.15 78.00
975 54.7000 1.684933 5895.00 5998.03 76.00
976 54.7500 1.683513 5237.00 5313.15 72.00
977 54.8000 1.682096 4559.00 4559.03 67.00
978 54.8500 1.680681 3922.00 3929.93 62.00
979 54.9000 1.679269 3498.00 3562.32 59.00
980 54.9500 1.677860 3434.00 3506.69 58.00
981 55.0000 1.676453 3662.00 3728.15 60.00
982 55.0500 1.675050 3905.00 4120.93 62.00
983 55.1000 1.673648 4477.00 4534.53 66.00
984 55.1500 1.672250 4758.00 4814.45 68.00
985 55.2000 1.670854 4752.00 4853.33 68.00
986 55.2500 1.669461 4585.00 4629.09 67.00
987 55.3000 1.668070 4115.00 4206.97 64.00
988 55.3500 1.666682 3490.00 3702.70 59.00
989 55.4000 1.665297 3048.00 3229.57 55.00
990 55.4500 1.663914 2770.00 2859.14 52.00
991 55.5000 1.662534 2555.00 2612.72 50.00
992 55.5500 1.661157 2429.00 2476.71 49.00
993 55.6000 1.659782 2312.00 2426.07 48.00
994 55.6500 1.658409 2403.00 2441.60 49.00
995 55.7000 1.657040 2373.00 2515.43 48.00
996 55.7500 1.655673 2515.00 2645.92 50.00
997 55.8000 1.654308 2851.00 2826.51 53.00
998 55.8500 1.652946 3035.00 3035.53 55.00
999 55.9000 1.651586 3185.00 3233.98 56.00
1000 55.9500 1.650230 3331.00 3375.14 57.00
1001 56.0000 1.648875 3373.00 3422.39 58.00
1002 56.0500 1.647523 3387.00 3364.96 58.00
1003 56.1000 1.646174 3283.00 3221.82 57.00
1004 56.1500 1.644827 3061.00 3031.61 55.00
1005 56.2000 1.643483 2753.00 2835.51 52.00
1006 56.2500 1.642141 2625.00 2663.41 51.00
1007 56.3000 1.640802 2461.00 2529.13 49.00
1008 56.3500 1.639465 2457.00 2433.33 49.00
1009 56.4000 1.638131 2327.00 2369.67 48.00
1010 56.4500 1.636799 2309.00 2329.83 48.00
1011 56.5000 1.635470 2330.00 2306.22 48.00
1012 56.5500 1.634143 2227.00 2292.87 47.00
1013 56.6000 1.632819 2296.00 2285.53 47.00
1014 56.6500 1.631497 2240.00 2281.39 47.00
1015 56.7000 1.630177 2346.00 2278.81 48.00
1016 56.7500 1.628860 2396.00 2276.90 48.00
1017 56.8000 1.627545 2353.00 2275.25 48.00
1018 56.8500 1.626233 2288.00 2273.72 47.00
1019 56.9000 1.624923 2246.00 2272.30 47.00
1020 56.9500 1.623616 2248.00 2271.16 47.00
1021 57.0000 1.622311 2305.00 2270.82 48.00
1022 57.0500 1.621009 2286.00 2272.63 47.00
1023 57.1000 1.619709 2313.00 2279.45 48.00
1024 57.1500 1.618411 2214.00 2296.41 47.00
1025 57.2000 1.617115 2325.00 2330.98 48.00
1026 57.2500 1.615823 2344.00 2391.20 48.00
1027 57.3000 1.614532 2344.00 2481.43 48.00
1028 57.3500 1.613244 2592.00 2596.69 50.00
1029 57.4000 1.611958 2656.00 2718.95 51.00
1030 57.4500 1.610674 2726.00 2819.87 52.00
1031 57.5000 1.609393 2852.00 2870.63 53.00
1032 57.5500 1.608114 2851.00 2855.06 53.00
1033 57.6000 1.606838 2794.00 2777.63 52.00
1034 57.6500 1.605564 2664.00 2661.22 51.00
1035 57.7000 1.604292 2619.00 2536.03 51.00
1036 57.7500 1.603022 2468.00 2427.13 49.00
1037 57.8000 1.601755 2368.00 2347.43 48.00
1038 57.8500 1.600490 2300.00 2298.68 47.00
1039 57.9000 1.599228 2343.00 2277.49 48.00
1040 57.9500 1.597967 2262.00 2282.30 47.00
1041 58.0000 1.596709 2413.00 2318.19 49.00
1042 58.0500 1.595454 2495.00 2397.58 49.00
1043 58.1000 1.594200 2589.00 2535.57 50.00
1044 58.1500 1.592949 2667.00 2739.45 51.00
1045 58.2000 1.591700 3074.00 2996.01 55.00
1046 58.2500 1.590453 3341.00 3264.17 57.00
1047 58.3000 1.589209 3619.00 3481.53 60.00
1048 58.3500 1.587967 3653.00 3587.00 60.00
1049 58.4000 1.586727 3636.00 3548.10 60.00
1050 58.4500 1.585489 3562.00 3377.14 59.00
1051 58.5000 1.584254 3201.00 3124.70 56.00
1052 58.5500 1.583021 2847.00 2855.79 53.00
1053 58.6000 1.581789 2630.00 2623.51 51.00
1054 58.6500 1.580561 2537.00 2455.89 50.00
1055 58.7000 1.579334 2427.00 2358.32 49.00
1056 58.7500 1.578110 2326.00 2325.88 48.00
1057 58.8000 1.576888 2343.00 2354.85 48.00
1058 58.8500 1.575668 2469.00 2446.93 49.00
1059 58.9000 1.574450 2501.00 2604.07 50.00
1060 58.9500 1.573234 2704.00 2817.45 52.00
1061 59.0000 1.572021 2958.00 3057.91 54.00
1062 59.0500 1.570809 3322.00 3276.42 57.00
1063 59.1000 1.569600 3412.00 3418.28 58.00
1064 59.1500 1.568393 3428.00 3445.91 58.00
1065 59.2000 1.567189 3377.00 3356.25 58.00
1066 59.2500 1.565986 3311.00 3182.21 57.00
1067 59.3000 1.564785 3143.00 2977.38 56.00
1068 59.3500 1.563587 2877.00 2795.22 53.00
1069 59.4000 1.562391 2792.00 2676.24 52.00
1070 59.4500 1.561197 2699.00 2650.40 51.00
1071 59.5000 1.560005 2838.00 2751.40 53.00
1072 59.5500 1.558815 3128.00 3029.74 55.00
1073 59.6000 1.557627 3582.00 3548.41 59.00
1074 59.6500 1.556441 4340.00 4349.62 65.00
1075 59.7000 1.555258 5193.00 5401.62 72.00
1076 59.7500 1.554076 6343.00 6556.75 79.00
1077 59.8000 1.552897 7565.00 7563.27 86.00
1078 59.8500 1.551720 8166.00 8151.65 90.00
1079 59.9000 1.550544 8154.00 8158.04 90.00
1080 59.9500 1.549371 7470.00 7614.88 86.00
1081 60.0000 1.548200 6477.00 6744.68 80.00
1082 60.0500 1.547031 5548.00 5856.68 74.00
1083 60.1000 1.545864 4811.00 5209.19 69.00
1084 60.1500 1.544699 4558.00 4914.70 67.00
1085 60.2000 1.543536 4659.00 4929.26 68.00
1086 60.2500 1.542376 4904.00 5115.35 70.00
1087 60.3000 1.541217 5155.00 5328.93 71.00
1088 60.3500 1.540060 5173.00 5478.44 71.00
1089 60.4000 1.538905 5252.00 5531.55 72.00
1090 60.4500 1.537753 5203.00 5483.03 72.00
1091 60.5000 1.536602 5088.00 5322.87 71.00
1092 60.5500 1.535453 4840.00 5033.60 69.00
1093 60.6000 1.534307 4410.00 4614.33 66.00
1094 60.6500 1.533162 3993.00 4102.36 63.00
1095 60.7000 1.532019 3484.00 3568.70 59.00
1096 60.7500 1.530879 3044.00 3089.66 55.00
1097 60.8000 1.529740 2602.00 2716.64 51.00
1098 60.8500 1.528603 2427.00 2462.85 49.00
1099 60.9000 1.527468 2229.00 2311.20 47.00
1100 60.9500 1.526336 2179.00 2231.37 46.00
1101 61.0000 1.525205 2269.00 2194.86 47.00
1102 61.0500 1.524076 2290.00 2182.40 47.00
1103 61.1000 1.522949 2183.00 2185.09 46.00
1104 61.1500 1.521824 2289.00 2202.81 47.00
1105 61.2000 1.520701 2272.00 2241.73 47.00
1106 61.2500 1.519580 2226.00 2311.41 47.00
1107 61.3000 1.518461 2426.00 2420.53 49.00
1108 61.3500 1.517344 2564.00 2572.46 50.00
1109 61.4000 1.516229 2641.00 2762.74 51.00
1110 61.4500 1.515116 2934.00 2981.52 54.00
1111 61.5000 1.514005 3136.00 3219.30 56.00
1112 61.5500 1.512895 3329.00 3469.77 57.00
1113 61.6000 1.511788 3510.00 3724.05 59.00
1114 61.6500 1.510682 3798.00 3958.90 61.00
1115 61.7000 1.509578 3997.00 4130.01 63.00
1116 61.7500 1.508476 4140.00 4183.24 64.00
1117 61.8000 1.507377 3978.00 4081.18 63.00
1118 61.8500 1.506279 3750.00 3828.21 61.00
1119 61.9000 1.505182 3300.00 3474.72 57.00
1120 61.9500 1.504088 2995.00 3095.97 54.00
1121 62.0000 1.502996 2687.00 2760.45 51.00
1122 62.0500 1.501905 2479.00 2507.31 49.00
1123 62.1000 1.500817 2405.00 2342.22 49.00
1124 62.1500 1.499730 2326.00 2248.50 48.00
1125 62.2000 1.498645 2280.00 2202.23 47.00
1126 62.2500 1.497562 2164.00 2183.66 46.00
1127 62.3000 1.496481 2286.00 2183.25 47.00
1128 62.3500 1.495401 2272.00 2205.15 47.00
1129 62.4000 1.494324 2251.00 2271.37 47.00
1130 62.4500 1.493248 2473.00 2427.09 49.00
1131 62.5000 1.492174 2689.00 2741.83 51.00
1132 62.5500 1.491102 3072.00 3296.84 55.00
1133 62.6000 1.490032 3887.00 4149.86 62.00
1134 62.6500 1.488963 4819.00 5281.59 69.00
1135 62.7000 1.487897 6288.00 6551.51 79.00
1136 62.7500 1.486832 7640.00 7702.93 87.00
1137 62.8000 1.485769 8296.00 8438.42 91.00
1138 62.8500 1.484708 8436.00 8542.22 91.00
1139 62.9000 1.483648 7661.00 7982.57 87.00
1140 62.9500 1.482591 6746.00 6927.11 82.00
1141 63.0000 1.481535 5431.00 5662.10 73.00
1142 63.0500 1.480481 4267.00 4469.48 65.00
1143 63.1000 1.479429 3351.00 3531.66 57.00
1144 63.1500 1.478379 2811.00 2909.04 53.00
1145 63.2000 1.477330 2557.00 2574.53 50.00
1146 63.2500 1.476283 2482.00 2468.99 49.00
1147 63.3000 1.475238 2541.00 2540.12 50.00
1148 63.3500 1.474194 2764.00 2753.03 52.00
1149 63.4000 1.473153 3111.00 3079.24 55.00
1150 63.4500 1.472113 3538.00 3479.97 59.00
1151 63.5000 1.471075 3971.00 3896.62 63.00
1152 63.5500 1.470038 4404.00 4256.16 66.00
1153 63.6000 1.469004 4661.00 4487.60 68.00
1154 63.6500 1.467971 4649.00 4542.36 68.00
1155 63.7000 1.466940 4718.00 4410.00 68.00
1156 63.7500 1.465910 4426.00 4123.10 66.00
1157 63.8000 1.464882 4031.00 3749.91 63.00
1158 63.8500 1.463856 3492.00 3376.75 59.00
1159 63.9000 1.462832 3224.00 3085.94 56.00
1160 63.9500 1.461810 3019.00 2935.79 54.00
1161 64.0000 1.460789 2979.00 2948.86 54.00
1162 64.0500 1.459769 3003.00 3110.94 54.00
1163 64.1000 1.458752 3387.00 3379.88 58.00
1164 64.1500 1.457736 3793.00 3701.11 61.00
1165 64.2000 1.456722 4119.00 4023.81 64.00
1166 64.2500 1.455710 4446.00 4308.20 66.00
1167 64.3000 1.454699 4515.00 4522.41 67.00
1168 64.3500 1.453690 4527.00 4634.46 67.00
1169 64.4000 1.452682 4505.00 4612.25 67.00
1170 64.4500 1.451677 4417.00 4437.32 66.00
1171 64.5000 1.450673 4171.00 4122.76 64.00
1172 64.5500 1.449670 3741.00 3718.78 61.00
1173 64.6000 1.448670 3390.00 3297.64 58.00
1174 64.6500 1.447670 3023.00 2927.90 54.00
1175 64.7000 1.446673 2876.00 2654.06 53.00
1176 64.7500 1.445677 2548.00 2493.59 50.00
1177 64.8000 1.444683 2437.00 2447.13 49.00
1178 64.8500 1.443691 2547.00 2510.61 50.00
1179 64.9000 1.442700 2721.00 2678.80 52.00
1180 64.9500 1.441711 2921.00 2937.34 54.00
1181 65.0000 1.440723 3167.00 3250.14 56.00
1182 65.0500 1.439737 3470.00 3554.48 58.00
1183 65.1000 1.438753 3658.00 3773.30 60.00
1184 65.1500 1.437770 3750.00 3842.13 61.00
1185 65.2000 1.436789 3672.00 3737.71 60.00
1186 65.2500 1.435810 3430.00 3489.06 58.00
1187 65.3000 1.434832 3159.00 3163.82 56.00
1188 65.3500 1.433856 2742.00 2838.13 52.00
1189 65.4000 1.432881 2525.00 2568.83 50.00
1190 65.4500 1.431908 2465.00 2380.30 49.00
1191 65.5000 1.430936 2305.00 2268.98 48.00
1192 65.5500 1.429966 2329.00 2215.60 48.00
1193 65.6000 1.428998 2324.00 2197.34 48.00
1194 65.6500 1.428031 2267.00 2194.97 47.00
1195 65.7000 1.427066 2297.00 2195.48 47.00
1196 65.7500 1.426103 2361.00 2192.12 48.00
1197 65.8000 1.425141 2346.00 2183.51 48.00
1198 65.8500 1.424180 2343.00 2172.50 48.00
1199 65.9000 1.423221 2382.00 2165.48 48.00
1200 65.9500 1.422264 2315.00 2173.02 48.00
1201 66.0000 1.421308 2357.00 2212.45 48.00
1202 66.0500 1.420354 2546.00 2310.98 50.00
1203 66.1000 1.419402 2548.00 2505.63 50.00
1204 66.1500 1.418450 2849.00 2834.25 53.00
1205 66.2000 1.417501 3326.00 3315.38 57.00
1206 66.2500 1.416553 3888.00 3921.81 62.00
1207 66.3000 1.415606 4542.00 4564.50 67.00
1208 66.3500 1.414661 5216.00 5105.09 72.00
1209 66.4000 1.413718 5382.00 5401.26 73.00
1210 66.4500 1.412776 5286.00 5367.50 72.00
1211 66.5000 1.411836 4968.00 5016.53 70.00
1212 66.5500 1.410897 4517.00 4456.41 67.00
1213 66.6000 1.409960 3846.00 3846.31 62.00
1214 66.6500 1.409024 3323.00 3341.91 57.00
1215 66.7000 1.408090 2903.00 3058.42 53.00
1216 66.7500 1.407157 2956.00 3062.91 54.00
1217 66.8000 1.406225 3145.00 3377.67 56.00
1218 66.8500 1.405296 3756.00 3977.16 61.00
1219 66.9000 1.404367 4547.00 4773.56 67.00
1220 66.9500 1.403441 5411.00 5610.45 73.00
1221 67.0000 1.402515 6120.00 6287.06 78.00
1222 67.0500 1.401591 6394.00 6618.94 79.00
1223 67.1000 1.400669 6420.00 6509.90 80.00
1224 67.1500 1.399748 5874.00 5992.05 76.00
1225 67.2000 1.398829 5122.00 5208.46 71.00
1226 67.2500 1.397911 4254.00 4348.97 65.00
1227 67.3000 1.396994 3590.00 3576.82 59.00
1228 67.3500 1.396080 3007.00 2983.20 54.00
1229 67.4000 1.395166 2619.00 2585.75 51.00
1230 67.4500 1.394254 2480.00 2353.85 49.00
1231 67.5000 1.393343 2397.00 2242.76 48.00
1232 67.5500 1.392434 2361.00 2218.49 48.00
1233 67.6000 1.391526 2408.00 2269.81 49.00
1234 67.6500 1.390620 2522.00 2408.93 50.00
1235 67.7000 1.389715 2599.00 2663.13 50.00
1236 67.7500 1.388812 3065.00 3059.00 55.00
1237 67.8000 1.387910 3560.00 3603.80 59.00
1238 67.8500 1.387010 4230.00 4273.10 65.00
1239 67.9000 1.386110 4844.00 5012.88 69.00
1240 67.9500 1.385213 5533.00 5758.39 74.00
1241 68.0000 1.384317 6151.00 6451.87 78.00
1242 68.0500 1.383422 6682.00 7045.78 81.00
1243 68.1000 1.382528 7011.00 7487.17 83.00
1244 68.1500 1.381637 7288.00 7703.82 85.00
1245 68.2000 1.380746 7308.00 7619.21 85.00
1246 68.2500 1.379857 7064.00 7195.77 84.00
1247 68.3000 1.378969 6451.00 6476.59 80.00
1248 68.3500 1.378083 5473.00 5588.47 73.00
1249 68.4000 1.377198 4699.00 4698.43 68.00
1250 68.4500 1.376314 3951.00 3949.06 62.00
1251 68.5000 1.375432 3474.00 3414.84 58.00
1252 68.5500 1.374551 3228.00 3097.01 56.00
1253 68.6000 1.373672 3232.00 2950.08 56.00
1254 68.6500 1.372794 3113.00 2916.86 55.00
1255 68.7000 1.371918 3172.00 2951.29 56.00
1256 68.7500 1.371042 3254.00 3025.41 57.00
1257 68.8000 1.370168 3232.00 3127.60 56.00
1258 68.8500 1.369296 3296.00 3264.80 57.00
1259 68.9000 1.368425 3542.00 3475.71 59.00
1260 68.9500 1.367555 3803.00 3851.49 61.00
1261 69.0000 1.366687 4318.00 4547.43 65.00
1262 69.0500 1.365820 5250.00 5763.54 72.00
1263 69.1000 1.364954 6769.00 7678.23 82.00
1264 69.1500 1.364090 9225.00 10336.40 96.00
1265 69.2000 1.363227 12137.00 13538.50 110.00
1266 69.2500 1.362366 15487.00 16788.90 124.00
1267 69.3000 1.361505 18568.00 19384.40 136.00
1268 69.3500 1.360646 20315.00 20644.00 142.00
1269 69.4000 1.359789 20173.00 20185.10 142.00
1270 69.4500 1.358933 18257.00 18101.80 135.00
1271 69.5000 1.358078 14544.00 14930.50 120.00
1272 69.5500 1.357224 10949.00 11418.50 104.00
1273 69.6000 1.356372 7817.00 8236.86 88.00
1274 69.6500 1.355521 5375.00 5788.39 73.00
1275 69.7000 1.354672 4017.00 4173.65 63.00
1276 69.7500 1.353824 3208.00 3286.22 56.00
1277 69.8000 1.352977 3042.00 2936.28 55.00
1278 69.8500 1.352131 2970.00 2937.48 54.00
1279 69.9000 1.351287 3080.00 3137.02 55.00
1280 69.9500 1.350444 3365.00 3409.93 58.00
1281 70.0000 1.349602 3606.00 3650.53 60.00
1282 70.0500 1.348762 3673.00 3778.39 60.00
1283 70.1000 1.347923 3812.00 3755.00 61.00
1284 70.1500 1.347085 3499.00 3594.98 59.00
1285 70.2000 1.346249 3285.00 3358.54 57.00
1286 70.2500 1.345413 3095.00 3125.79 55.00
1287 70.3000 1.344580 2872.00 2964.50 53.00
1288 70.3500 1.343747 2779.00 2906.78 52.00
1289 70.4000 1.342916 2954.00 2943.35 54.00
1290 70.4500 1.342086 3138.00 3034.57 56.00
1291 70.5000 1.341257 3339.00 3131.63 57.00
1292 70.5500 1.340429 3308.00 3198.48 57.00
1293 70.6000 1.339603 3285.00 3225.84 57.00
1294 70.6500 1.338778 3301.00 3232.38 57.00
1295 70.7000 1.337955 3238.00 3253.95 56.00
1296 70.7500 1.337132 3288.00 3326.26 57.00
1297 70.8000 1.336311 3595.00 3468.99 59.00
1298 70.8500 1.335492 3672.00 3678.56 60.00
1299 70.9000 1.334673 3846.00 3933.70 62.00
1300 70.9500 1.333856 4024.00 4213.05 63.00
1301 71.0000 1.333040 4395.00 4513.31 66.00
1302 71.0500 1.332225 4678.00 4852.76 68.00
1303 71.1000 1.331411 4835.00 5250.43 69.00
1304 71.1500 1.330599 5402.00 5689.41 73.00
1305 71.2000 1.329788 5856.00 6093.83 76.00
1306 71.2500 1.328978 6170.00 6342.95 78.00
1307 71.3000 1.328169 6244.00 6323.72 79.00
1308 71.3500 1.327362 6035.00 5990.42 77.00
1309 71.4000 1.326556 5431.00 5392.81 73.00
1310 71.4500 1.325751 4596.00 4654.54 67.00
1311 71.5000 1.324947 3865.00 3920.38 62.00
1312 71.5500 1.324145 3149.00 3303.78 56.00
1313 71.6000 1.323344 2799.00 2863.04 52.00
1314 71.6500 1.322544 2602.00 2610.26 51.00
1315 71.7000 1.321745 2673.00 2536.98 51.00
1316 71.7500 1.320947 2796.00 2639.01 52.00
1317 71.8000 1.320151 2987.00 2926.13 54.00
1318 71.8500 1.319356 3447.00 3412.41 58.00
1319 71.9000 1.318562 3952.00 4090.08 62.00
1320 71.9500 1.317769 4717.00 4900.30 68.00
1321 72.0000 1.316978 5486.00 5718.33 74.00
1322 72.0500 1.316187 6296.00 6372.43 79.00
1323 72.1000 1.315398 6686.00 6698.02 81.00
1324 72.1500 1.314610 6611.00 6602.56 81.00
1325 72.2000 1.313824 6192.00 6108.29 78.00
1326 72.2500 1.313038 5299.00 5343.71 72.00
1327 72.3000 1.312253 4550.00 4489.13 67.00
1328 72.3500 1.311471 3790.00 3706.63 61.00
1329 72.4000 1.310688 3236.00 3094.39 56.00
1330 72.4500 1.309908 2907.00 2676.55 53.00
1331 72.5000 1.309128 2624.00 2425.28 51.00
1332 72.5500 1.308349 2577.00 2291.46 50.00
1333 72.6000 1.307572 2495.00 2228.46 49.00
1334 72.6500 1.306796 2509.00 2203.25 50.00
1335 72.7000 1.306021 2453.00 2197.66 49.00
1336 72.7500 1.305247 2428.00 2206.20 49.00
1337 72.8000 1.304475 2409.00 2234.94 49.00
1338 72.8500 1.303703 2410.00 2303.13 49.00
1339 72.9000 1.302933 2536.00 2446.83 50.00
1340 72.9500 1.302164 2842.00 2720.85 53.00
1341 73.0000 1.301396 3223.00 3193.88 56.00
1342 73.0500 1.300629 3851.00 3932.31 62.00
1343 73.1000 1.299863 4830.00 4974.66 69.00
1344 73.1500 1.299099 6013.00 6302.32 77.00
1345 73.2000 1.298336 7454.00 7822.72 86.00
1346 73.2500 1.297573 9111.00 9370.37 95.00
1347 73.3000 1.296812 10448.00 10731.80 102.00
1348 73.3500 1.296052 11158.00 11688.30 105.00
1349 73.4000 1.295294 11593.00 12064.30 107.00
1350 73.4500 1.294536 11430.00 11781.70 106.00
1351 73.5000 1.293779 10766.00 10901.90 103.00
1352 73.5500 1.293024 9767.00 9643.14 98.00
1353 73.6000 1.292270 8288.00 8357.70 91.00
1354 73.6500 1.291516 7197.00 7470.11 84.00
1355 73.7000 1.290765 6819.00 7386.35 82.00
1356 73.7500 1.290013 7588.00 8385.97 87.00
1357 73.8000 1.289264 9139.00 10509.30 95.00
1358 73.8500 1.288515 12009.00 13473.10 109.00
1359 73.9000 1.287767 15405.00 16664.80 124.00
1360 73.9500 1.287021 18291.00 19279.80 135.00
1361 74.0000 1.286276 19754.00 20577.30 140.00
1362 74.0500 1.285531 19751.00 20168.40 140.00
1363 74.1000 1.284788 17797.00 18172.40 133.00
1364 74.1500 1.284046 14881.00 15152.20 121.00
1365 74.2000 1.283305 11654.00 11864.00 107.00
1366 74.2500 1.282565 8928.00 8969.67 94.00
1367 74.3000 1.281827 7016.00 6857.26 83.00
1368 74.3500 1.281089 6120.00 5617.97 78.00
1369 74.4000 1.280352 5338.00 5139.49 73.00
1370 74.4500 1.279617 5262.00 5216.11 72.00
1371 74.5000 1.278883 5709.00 5620.51 75.00
1372 74.5500 1.278149 6175.00 6129.46 78.00
1373 74.6000 1.277417 6654.00 6537.47 81.00
1374 74.6500 1.276686 6864.00 6682.06 82.00
1375 74.7000 1.275956 6626.00 6481.90 81.00
1376 74.7500 1.275227 6175.00 5960.46 78.00
1377 74.8000 1.274499 5329.00 5234.90 73.00
1378 74.8500 1.273772 4499.00 4471.48 67.00
1379 74.9000 1.273047 3834.00 3833.07 61.00
1380 74.9500 1.272322 3408.00 3444.54 58.00
1381 75.0000 1.271598 3434.00 3385.00 58.00
1382 75.0500 1.270876 3650.00 3693.90 60.00
1383 75.1000 1.270154 4261.00 4371.80 65.00
1384 75.1500 1.269434 4925.00 5365.60 70.00
1385 75.2000 1.268715 6067.00 6551.25 77.00
1386 75.2500 1.267996 7387.00 7732.45 85.00
1387 75.3000 1.267279 8277.00 8677.48 90.00
1388 75.3500 1.266563 8835.00 9184.79 93.00
1389 75.4000 1.265848 9055.00 9148.21 95.00
1390 75.4500 1.265134 8589.00 8590.46 92.00
1391 75.5000 1.264420 7547.00 7647.81 86.00
1392 75.5500 1.263708 6449.00 6517.11 80.00
1393 75.6000 1.262997 5274.00 5394.08 72.00
1394 75.6500 1.262287 4437.00 4428.07 66.00
1395 75.7000 1.261579 3750.00 3702.23 61.00
1396 75.7500 1.260871 3171.00 3238.46 56.00
1397 75.8000 1.260164 3088.00 3012.63 55.00
1398 75.8500 1.259458 3039.00 2971.81 55.00
1399 75.9000 1.258753 3151.00 3048.68 56.00
1400 75.9500 1.258049 3240.00 3172.63 56.00
1401 76.0000 1.257347 3206.00 3280.53 56.00
1402 76.0500 1.256645 3346.00 3327.39 57.00
1403 76.1000 1.255944 3386.00 3293.94 58.00
1404 76.1500 1.255245 3318.00 3187.90 57.00
1405 76.2000 1.254546 3180.00 3038.08 56.00
1406 76.2500 1.253849 2974.00 2884.32 54.00
1407 76.3000 1.253152 2925.00 2767.32 54.00
1408 76.3500 1.252456 2860.00 2721.21 53.00
1409 76.4000 1.251762 2897.00 2768.24 53.00
1410 76.4500 1.251068 2933.00 2913.60 54.00
1411 76.5000 1.250376 3090.00 3140.60 55.00
1412 76.5500 1.249684 3391.00 3410.00 58.00
1413 76.6000 1.248994 3475.00 3669.15 58.00
1414 76.6500 1.248304 3692.00 3871.51 60.00
1415 76.7000 1.247615 3973.00 4000.34 63.00
1416 76.7500 1.246928 3927.00 4081.79 62.00
1417 76.8000 1.246241 4030.00 4176.19 63.00
1418 76.8500 1.245556 4140.00 4347.05 64.00
1419 76.9000 1.244871 4341.00 4623.02 65.00
1420 76.9500 1.244188 4948.00 4975.95 70.00
1421 77.0000 1.243505 5266.00 5330.07 72.00
1422 77.0500 1.242823 5591.00 5599.35 74.00
1423 77.1000 1.242143 5698.00 5730.66 75.00
1424 77.1500 1.241463 5747.00 5724.82 75.00
1425 77.2000 1.240784 5552.00 5624.77 74.00
1426 77.2500 1.240107 5372.00 5481.05 73.00
1427 77.3000 1.239430 5206.00 5320.15 72.00
1428 77.3500 1.238754 5040.00 5135.56 70.00
1429 77.4000 1.238079 4901.00 4903.05 70.00
1430 77.4500 1.237406 4729.00 4604.36 68.00
1431 77.5000 1.236733 4381.00 4243.91 66.00
1432 77.5500 1.236061 4044.00 3849.32 63.00
1433 77.6000 1.235390 3603.00 3460.10 60.00
1434 77.6500 1.234720 3253.00 3113.62 57.00
1435 77.7000 1.234051 2996.00 2833.95 54.00
1436 77.7500 1.233383 2892.00 2628.99 53.00
1437 77.8000 1.232716 2732.00 2492.54 52.00
1438 77.8500 1.232050 2652.00 2410.22 51.00
1439 77.9000 1.231385 2534.00 2365.70 50.00
1440 77.9500 1.230720 2403.00 2344.92 49.00
1441 78.0000 1.230057 2446.00 2338.11 49.00
1442 78.0500 1.229395 2583.00 2339.69 50.00
1443 78.1000 1.228733 2503.00 2347.28 50.00
1444 78.1500 1.228073 2495.00 2360.46 49.00
1445 78.2000 1.227414 2689.00 2379.81 51.00
1446 78.2500 1.226755 2679.00 2406.51 51.00
1447 78.3000 1.226097 2636.00 2442.60 51.00
1448 78.3500 1.225441 2719.00 2491.49 52.00
1449 78.4000 1.224785 2905.00 2558.36 53.00
1450 78.4500 1.224130 3004.00 2651.21 54.00
1451 78.5000 1.223476 3160.00 2784.44 56.00
1452 78.5500 1.222823 3413.00 2989.14 58.00
1453 78.6000 1.222172 3671.00 3332.46 60.00
1454 78.6500 1.221520 4012.00 3940.29 63.00
1455 78.7000 1.220870 4777.00 5007.41 69.00
1456 78.7500 1.220221 6193.00 6764.97 78.00
1457 78.8000 1.219573 8271.00 9388.59 90.00
1458 78.8500 1.218925 11534.00 12861.60 107.00
1459 78.9000 1.218279 15530.00 16852.70 124.00
1460 78.9500 1.217633 19920.00 20712.40 141.00
1461 79.0000 1.216989 23487.00 23640.40 153.00
1462 79.0500 1.216345 24774.00 24993.20 157.00
1463 79.1000 1.215702 24709.00 24591.90 157.00
1464 79.1500 1.215060 22625.00 22844.30 150.00
1465 79.2000 1.214419 19946.00 20595.00 141.00
1466 79.2500 1.213779 17715.00 18760.60 133.00
1467 79.3000 1.213140 16824.00 17930.10 129.00
1468 79.3500 1.212502 17066.00 18129.80 130.00
1469 79.4000 1.211864 18374.00 18859.20 135.00
1470 79.4500 1.211228 19446.00 19361.60 139.00
1471 79.5000 1.210592 19431.00 18986.00 139.00
1472 79.5500 1.209958 17935.00 17463.70 133.00
1473 79.6000 1.209324 15376.00 14976.80 124.00
1474 79.6500 1.208691 12416.00 12025.10 111.00
1475 79.7000 1.208059 9405.00 9185.09 96.00
1476 79.7500 1.207428 7072.00 6906.96 84.00
1477 79.8000 1.206798 5628.00 5419.66 75.00
1478 79.8500 1.206169 5107.00 4747.42 71.00
1479 79.9000 1.205540 4999.00 4777.81 70.00
1480 79.9500 1.204913 5391.00 5320.26 73.00
1481 80.0000 1.204286 6055.00 6137.87 77.00
1482 80.0500 1.203660 7036.00 6968.98 83.00
1483 80.1000 1.203035 7699.00 7565.00 87.00
1484 80.1500 1.202411 7868.00 7746.29 88.00
1485 80.2000 1.201788 7693.00 7454.94 87.00
1486 80.2500 1.201166 6944.00 6768.97 83.00
1487 80.3000 1.200544 5789.00 5866.41 76.00
1488 80.3500 1.199924 4863.00 4953.26 69.00
1489 80.4000 1.199304 4195.00 4193.71 64.00
1490 80.4500 1.198685 3577.00 3669.05 59.00
1491 80.5000 1.198067 3463.00 3377.09 58.00
1492 80.5500 1.197450 3405.00 3258.00 58.00
1493 80.6000 1.196834 3470.00 3229.97 58.00
1494 80.6500 1.196219 3516.00 3220.23 59.00
1495 80.7000 1.195604 3462.00 3184.28 58.00
1496 80.7500 1.194991 3320.00 3113.16 57.00
1497 80.8000 1.194378 3247.00 3031.40 56.00
1498 80.8500 1.193766 3135.00 2990.70 55.00
1499 80.9000 1.193155 3181.00 3064.28 56.00
1500 80.9500 1.192545 3504.00 3341.80 59.00
1501 81.0000 1.191935 3868.00 3918.36 62.00
1502 81.0500 1.191327 4608.00 4868.39 67.00
1503 81.1000 1.190719 5903.00 6203.07 76.00
1504 81.1500 1.190112 7378.00 7823.05 85.00
1505 81.2000 1.189506 9104.00 9501.73 95.00
1506 81.2500 1.188901 10783.00 10918.70 103.00
1507 81.3000 1.188297 11617.00 11755.00 107.00
1508 81.3500 1.187693 11720.00 11808.60 108.00
1509 81.4000 1.187091 11166.00 11072.70 105.00
1510 81.4500 1.186489 9622.00 9735.28 98.00
1511 81.5000 1.185888 7984.00 8100.90 89.00
1512 81.5500 1.185288 6534.00 6479.73 80.00
1513 81.6000 1.184689 5129.00 5095.66 71.00
1514 81.6500 1.184090 4139.00 4052.11 64.00
1515 81.7000 1.183493 3391.00 3346.79 58.00
1516 81.7500 1.182896 2993.00 2916.03 54.00
1517 81.8000 1.182300 2750.00 2677.25 52.00
1518 81.8500 1.181705 2674.00 2556.97 51.00
1519 81.9000 1.181111 2648.00 2502.21 51.00
1520 81.9500 1.180517 2572.00 2479.97 50.00
1521 82.0000 1.179924 2509.00 2472.38 50.00
1522 82.0500 1.179332 2470.00 2471.29 49.00
1523 82.1000 1.178741 2447.00 2474.43 49.00
1524 82.1500 1.178151 2453.00 2482.95 49.00
1525 82.2000 1.177562 2459.00 2499.98 49.00
1526 82.2500 1.176973 2479.00 2529.34 49.00
1527 82.3000 1.176386 2543.00 2573.86 50.00
1528 82.3500 1.175799 2565.00 2633.21 50.00
1529 82.4000 1.175212 2620.00 2702.08 51.00
1530 82.4500 1.174627 2731.00 2769.94 52.00
1531 82.5000 1.174042 2768.00 2823.17 52.00
1532 82.5500 1.173459 2892.00 2849.63 53.00
1533 82.6000 1.172876 2944.00 2843.56 54.00
1534 82.6500 1.172294 2856.00 2808.88 53.00
1535 82.7000 1.171712 2775.00 2759.57 52.00
1536 82.7500 1.171132 2839.00 2718.35 53.00
1537 82.8000 1.170552 2722.00 2715.85 52.00
1538 82.8500 1.169973 2792.00 2791.84 52.00
1539 82.9000 1.169395 3008.00 2996.61 54.00
1540 82.9500 1.168818 3321.00 3387.51 57.00
1541 83.0000 1.168241 3863.00 4014.29 62.00
1542 83.0500 1.167665 4783.00 4892.22 69.00
1543 83.1000 1.167090 5925.00 5972.77 76.00
1544 83.1500 1.166516 7088.00 7125.57 84.00
1545 83.2000 1.165943 8363.00 8155.37 91.00
1546 83.2500 1.165370 9030.00 8852.22 95.00
1547 83.3000 1.164798 9207.00 9062.28 95.00
1548 83.3500 1.164227 8900.00 8743.74 94.00
1549 83.4000 1.163657 8003.00 7980.24 89.00
1550 83.4500 1.163088 6910.00 6946.35 83.00
1551 83.5000 1.162519 5585.00 5845.34 74.00
1552 83.5500 1.161951 4595.00 4849.31 67.00
1553 83.6000 1.161384 3820.00 4065.50 61.00
1554 83.6500 1.160818 3497.00 3535.16 59.00
1555 83.7000 1.160252 3176.00 3250.65 56.00
1556 83.7500 1.159687 3219.00 3178.95 56.00
1557 83.8000 1.159123 3328.00 3276.15 57.00
1558 83.8500 1.158560 3567.00 3492.65 59.00
1559 83.9000 1.157997 3861.00 3771.58 62.00
1560 83.9500 1.157435 4095.00 4048.68 63.00
1561 84.0000 1.156874 4593.00 4258.38 67.00
1562 84.0500 1.156314 4671.00 4347.74 68.00
1563 84.1000 1.155755 4540.00 4291.42 67.00
1564 84.1500 1.155196 4118.00 4100.05 64.00
1565 84.2000 1.154638 3848.00 3815.81 62.00
1566 84.2500 1.154081 3519.00 3496.82 59.00
1567 84.3000 1.153524 3215.00 3197.57 56.00
1568 84.3500 1.152969 2940.00 2954.23 54.00
1569 84.4000 1.152414 2720.00 2780.84 52.00
1570 84.4500 1.151860 2738.00 2673.93 52.00
1571 84.5000 1.151306 2709.00 2622.29 52.00
1572 84.5500 1.150753 2644.00 2615.98 51.00
1573 84.6000 1.150202 2742.00 2652.36 52.00
1574 84.6500 1.149650 2825.00 2738.78 53.00
1575 84.7000 1.149100 2932.00 2893.35 54.00
1576 84.7500 1.148550 3265.00 3144.73 57.00
1577 84.8000 1.148001 3702.00 3531.59 60.00
1578 84.8500 1.147453 4109.00 4099.22 64.00
1579 84.9000 1.146906 4852.00 4888.26 69.00
1580 84.9500 1.146359 5925.00 5913.31 76.00
1581 85.0000 1.145813 7030.00 7133.17 83.00
1582 85.0500 1.145268 8365.00 8426.54 91.00
1583 85.1000 1.144723 9469.00 9595.65 97.00
1584 85.1500 1.144179 10457.00 10407.30 102.00
1585 85.2000 1.143636 10636.00 10668.20 103.00
1586 85.2500 1.143094 10305.00 10298.60 101.00
1587 85.3000 1.142553 9394.00 9368.61 96.00
1588 85.3500 1.142012 7959.00 8074.43 89.00
1589 85.4000 1.141472 6490.00 6667.92 80.00
1590 85.4500 1.140932 5219.00 5373.10 72.00
1591 85.5000 1.140393 4207.00 4331.38 64.00
1592 85.5500 1.139856 3608.00 3588.21 60.00
1593 85.6000 1.139318 3178.00 3115.82 56.00
1594 85.6500 1.138782 2961.00 2852.30 54.00
1595 85.7000 1.138246 2744.00 2733.95 52.00
1596 85.7500 1.137711 2705.00 2715.36 52.00
1597 85.8000 1.137177 2835.00 2775.89 53.00
1598 85.8500 1.136643 2873.00 2917.91 53.00
1599 85.9000 1.136110 3044.00 3160.33 55.00
1600 85.9500 1.135578 3326.00 3528.56 57.00
1601 86.0000 1.135047 3711.00 4039.60 60.00
1602 86.0500 1.134516 4380.00 4685.48 66.00
1603 86.1000 1.133986 5187.00 5420.93 72.00
1604 86.1500 1.133457 5944.00 6162.52 77.00
1605 86.2000 1.132928 6544.00 6806.17 80.00
1606 86.2500 1.132400 7064.00 7255.81 84.00
1607 86.3000 1.131873 7245.00 7451.24 85.00
1608 86.3500 1.131346 7313.00 7381.84 85.00
1609 86.4000 1.130821 6741.00 7081.01 82.00
1610 86.4500 1.130296 6440.00 6609.12 80.00
1611 86.5000 1.129771 5885.00 6036.87 76.00
1612 86.5500 1.129248 5356.00 5435.93 73.00
1613 86.6000 1.128725 4855.00 4876.35 69.00
1614 86.6500 1.128202 4499.00 4429.51 67.00
1615 86.7000 1.127681 4360.00 4171.42 66.00
1616 86.7500 1.127160 4461.00 4189.39 66.00
1617 86.8000 1.126640 4695.00 4585.80 68.00
1618 86.8500 1.126120 5642.00 5470.67 75.00
1619 86.9000 1.125601 6913.00 6927.78 83.00
1620 86.9500 1.125083 8487.00 8955.89 92.00
1621 87.0000 1.124566 10819.00 11401.40 104.00
1622 87.0500 1.124049 12901.00 13928.30 113.00
1623 87.1000 1.123533 14966.00 16065.60 122.00
1624 87.1500 1.123018 16551.00 17335.10 128.00
1625 87.2000 1.122503 17049.00 17420.50 130.00
1626 87.2500 1.121989 16121.00 16289.00 126.00
1627 87.3000 1.121476 14089.00 14206.70 118.00
1628 87.3500 1.120963 11460.00 11632.40 107.00
1629 87.4000 1.120451 8686.00 9052.54 93.00
1630 87.4500 1.119940 6610.00 6833.07 81.00
1631 87.5000 1.119429 4994.00 5152.38 70.00
1632 87.5500 1.118919 4035.00 4017.61 63.00
1633 87.6000 1.118410 3439.00 3328.65 58.00
1634 87.6500 1.117902 2987.00 2950.87 54.00
1635 87.7000 1.117394 2903.00 2763.17 53.00
1636 87.7500 1.116887 2781.00 2678.74 52.00
1637 87.8000 1.116380 2707.00 2644.73 52.00
1638 87.8500 1.115874 2641.00 2633.17 51.00
1639 87.9000 1.115369 2697.00 2631.31 51.00
1640 87.9500 1.114865 2613.00 2634.49 51.00
1641 88.0000 1.114361 2638.00 2642.19 51.00
1642 88.0500 1.113858 2588.00 2655.99 50.00
1643 88.1000 1.113355 2599.00 2678.44 50.00
1644 88.1500 1.112853 2706.00 2712.21 52.00
1645 88.2000 1.112352 2824.00 2759.13 53.00
1646 88.2500 1.111852 2898.00 2819.70 53.00
1647 88.3000 1.111352 2907.00 2893.55 53.00
1648 88.3500 1.110852 3129.00 2981.58 55.00
1649 88.4000 1.110354 3325.00 3089.12 57.00
1650 88.4500 1.109856 3579.00 3229.56 59.00
1651 88.5000 1.109359 3847.00 3425.69 62.00
1652 88.5500 1.108862 4144.00 3708.12 64.00
1653 88.6000 1.108366 4545.00 4110.81 67.00
1654 88.6500 1.107871 5253.00 4666.09 72.00
1655 88.7000 1.107376 6008.00 5404.12 77.00
1656 88.7500 1.106883 6945.00 6356.70 83.00
1657 88.8000 1.106389 7911.00 7559.58 88.00
1658 88.8500 1.105897 9087.00 9043.72 95.00
1659 88.9000 1.105405 10479.00 10802.90 102.00
1660 88.9500 1.104913 12067.00 12750.40 109.00
1661 89.0000 1.104423 13716.00 14684.30 117.00
1662 89.0500 1.103932 15288.00 16302.20 123.00
1663 89.1000 1.103443 16441.00 17276.30 128.00
1664 89.1500 1.102954 16816.00 17361.50 129.00
1665 89.2000 1.102466 15886.00 16492.30 126.00
1666 89.2500 1.101979 14905.00 14812.00 122.00
1667 89.3000 1.101492 12628.00 12623.10 112.00
1668 89.3500 1.101006 10097.00 10284.70 100.00
1669 89.4000 1.100520 8086.00 8110.06 89.00
1670 89.4500 1.100035 6356.00 6300.89 79.00
1671 89.5000 1.099551 4966.00 4935.11 70.00
1672 89.5500 1.099067 4102.00 3991.99 64.00
1673 89.6000 1.098584 3604.00 3394.82 60.00
1674 89.6500 1.098102 3199.00 3051.63 56.00
1675 89.7000 1.097620 3047.00 2881.10 55.00
1676 89.7500 1.097139 2959.00 2825.46 54.00
1677 89.8000 1.096658 2984.00 2850.87 54.00
1678 89.8500 1.096179 3007.00 2941.18 54.00
1679 89.9000 1.095699 3143.00 3088.44 56.00
1680 89.9500 1.095221 3430.00 3283.88 58.00
1681 90.0000 1.094743 3565.00 3511.98 59.00
1682 90.0500 1.094265 3799.00 3750.36 61.00
1683 90.1000 1.093789 4000.00 3974.61 63.00
1684 90.1500 1.093313 4132.00 4164.89 64.00
1685 90.2000 1.092837 4247.00 4310.19 65.00
1686 90.2500 1.092362 4410.00 4406.49 66.00
1687 90.3000 1.091888 4585.00 4451.16 67.00
1688 90.3500 1.091414 4494.00 4438.30 67.00
1689 90.4000 1.090941 4409.00 4359.75 66.00
1690 90.4500 1.090469 4228.00 4211.94 65.00
1691 90.5000 1.089997 4113.00 4004.03 64.00
1692 90.5500 1.089526 3834.00 3761.50 61.00
1693 90.6000 1.089055 3611.00 3522.81 60.00
1694 90.6500 1.088585 3428.00 3332.39 58.00
1695 90.7000 1.088116 3361.00 3234.54 57.00
1696 90.7500 1.087647 3280.00 3271.37 57.00
1697 90.8000 1.087179 3577.00 3483.13 59.00
1698 90.8500 1.086712 3993.00 3906.12 63.00
1699 90.9000 1.086245 4595.00 4562.78 67.00
1700 90.9500 1.085779 5385.00 5444.95 73.00
1701 91.0000 1.085313 6411.00 6493.21 80.00
1702 91.0500 1.084848 7516.00 7587.57 86.00
1703 91.1000 1.084383 8583.00 8559.59 92.00
1704 91.1500 1.083920 9425.00 9229.36 97.00
1705 91.2000 1.083456 9585.00 9461.64 97.00
1706 91.2500 1.082994 9538.00 9216.39 97.00
1707 91.3000 1.082532 8715.00 8572.28 93.00
1708 91.3500 1.082070 7614.00 7708.30 87.00
1709 91.4000 1.081609 6725.00 6850.34 82.00
1710 91.4500 1.081149 5852.00 6201.74 76.00
1711 91.5000 1.080690 5608.00 5886.07 74.00
1712 91.5500 1.080230 5806.00 5917.53 76.00
1713 91.6000 1.079772 6086.00 6206.91 78.00
1714 91.6500 1.079314 6559.00 6597.21 80.00
1715 91.7000 1.078857 7083.00 6916.93 84.00
1716 91.7500 1.078400 7057.00 7033.08 84.00
1717 91.8000 1.077944 6701.00 6887.40 81.00
1718 91.8500 1.077489 6254.00 6502.86 79.00
1719 91.9000 1.077034 5712.00 5961.70 75.00
1720 91.9500 1.076579 5056.00 5366.04 71.00
1721 92.0000 1.076126 4460.00 4802.19 66.00
1722 92.0500 1.075672 4076.00 4319.86 63.00
1723 92.1000 1.075220 3917.00 3931.75 62.00
1724 92.1500 1.074768 3634.00 3627.20 60.00
1725 92.2000 1.074317 3385.00 3387.90 58.00
1726 92.2500 1.073866 3189.00 3199.01 56.00
1727 92.3000 1.073416 3127.00 3052.72 55.00
1728 92.3500 1.072966 2991.00 2946.55 54.00
1729 92.4000 1.072517 2922.00 2881.09 54.00
1730 92.4500 1.072068 2967.00 2859.35 54.00
1731 92.5000 1.071620 3036.00 2889.17 55.00
1732 92.5500 1.071173 3067.00 2987.10 55.00
1733 92.6000 1.070726 3190.00 3181.95 56.00
1734 92.6500 1.070280 3560.00 3514.94 59.00
1735 92.7000 1.069835 3950.00 4034.07 62.00
1736 92.7500 1.069390 4582.00 4780.66 67.00
1737 92.8000 1.068945 5550.00 5769.95 74.00
1738 92.8500 1.068501 6699.00 6972.48 81.00
1739 92.9000 1.068058 7901.00 8300.04 88.00
1740 92.9500 1.067615 9101.00 9610.09 95.00
1741 93.0000 1.067173 10447.00 10725.40 102.00
1742 93.0500 1.066731 11369.00 11470.70 106.00
1743 93.1000 1.066290 11897.00 11715.70 109.00
1744 93.1500 1.065850 11649.00 11410.80 107.00
1745 93.2000 1.065410 11041.00 10606.00 105.00
1746 93.2500 1.064971 9887.00 9445.49 99.00
1747 93.3000 1.064532 8394.00 8137.59 91.00
1748 93.3500 1.064094 7076.00 6911.78 84.00
1749 93.4000 1.063656 5984.00 5978.77 77.00
1750 93.4500 1.063219 5484.00 5499.80 74.00
1751 93.5000 1.062783 5684.00 5569.74 75.00
1752 93.5500 1.062347 6262.00 6203.75 79.00
1753 93.6000 1.061911 7137.00 7324.07 84.00
1754 93.6500 1.061476 8921.00 8751.38 94.00
1755 93.7000 1.061042 10575.00 10219.60 102.00
1756 93.7500 1.060609 11926.00 11423.70 109.00
1757 93.8000 1.060175 12903.00 12101.80 113.00
1758 93.8500 1.059743 12866.00 12119.90 113.00
1759 93.9000 1.059311 11778.00 11520.50 108.00
1760 93.9500 1.058879 10723.00 10509.20 103.00
1761 94.0000 1.058448 9202.00 9381.37 95.00
1762 94.0500 1.058018 8206.00 8421.24 90.00
1763 94.1000 1.057588 7649.00 7816.39 87.00
1764 94.1500 1.057159 7561.00 7620.32 86.00
1765 94.2000 1.056730 7745.00 7765.04 88.00
1766 94.2500 1.056302 8221.00 8107.06 90.00
1767 94.3000 1.055874 8385.00 8481.27 91.00
1768 94.3500 1.055447 8645.00 8744.28 92.00
1769 94.4000 1.055020 8503.00 8799.46 92.00
1770 94.4500 1.054594 8567.00 8607.61 92.00
1771 94.5000 1.054169 8273.00 8187.09 90.00
1772 94.5500 1.053744 7892.00 7606.71 88.00
1773 94.6000 1.053320 7050.00 6970.72 83.00
1774 94.6500 1.052896 6362.00 6398.30 79.00
1775 94.7000 1.052473 6044.00 5999.12 77.00
1776 94.7500 1.052050 5829.00 5851.86 76.00
1777 94.8000 1.051628 6032.00 5988.61 77.00
1778 94.8500 1.051206 6238.00 6388.14 78.00
1779 94.9000 1.050785 6753.00 6978.96 82.00
1780 94.9500 1.050364 7378.00 7652.87 85.00
1781 95.0000 1.049944 8156.00 8286.21 90.00
1782 95.0500 1.049525 8617.00 8766.08 92.00
1783 95.1000 1.049106 8917.00 9014.25 94.00
1784 95.1500 1.048687 8859.00 9000.62 94.00
1785 95.2000 1.048269 8443.00 8745.19 91.00
1786 95.2500 1.047852 8062.00 8308.33 89.00
1787 95.3000 1.047435 7444.00 7775.36 86.00
1788 95.3500 1.047019 6780.00 7240.11 82.00
1789 95.4000 1.046603 6537.00 6789.94 80.00
1790 95.4500 1.046188 6409.00 6491.08 80.00
1791 95.5000 1.045773 6416.00 6374.55 80.00
1792 95.5500 1.045359 6344.00 6425.67 79.00
1793 95.6000 1.044945 6473.00 6583.71 80.00
1794 95.6500 1.044532 6740.00 6755.78 82.00
1795 95.7000 1.044119 7065.00 6844.32 84.00
1796 95.7500 1.043707 7171.00 6779.48 84.00
1797 95.8000 1.043295 6922.00 6545.64 83.00
1798 95.8500 1.042884 6506.00 6190.88 80.00
1799 95.9000 1.042474 6148.00 5815.66 78.00
1800 95.9500 1.042064 5933.00 5543.78 77.00
1801 96.0000 1.041654 5690.00 5486.58 75.00
1802 96.0500 1.041245 5958.00 5712.64 77.00
1803 96.1000 1.040837 6509.00 6236.41 80.00
1804 96.1500 1.040429 7492.00 7032.04 86.00
1805 96.2000 1.040022 8640.00 8071.79 92.00
1806 96.2500 1.039615 9800.00 9370.75 98.00
1807 96.3000 1.039208 10937.00 11012.20 104.00
1808 96.3500 1.038802 12631.00 13127.00 112.00
1809 96.4000 1.038397 15011.00 15811.10 122.00
1810 96.4500 1.037992 18487.00 19020.00 135.00
1811 96.5000 1.037588 22046.00 22483.90 148.00
1812 96.5500 1.037184 26038.00 25716.60 161.00
1813 96.6000 1.036781 29011.00 28136.60 170.00
1814 96.6500 1.036378 29824.00 29261.20 172.00
1815 96.7000 1.035976 28994.00 28886.50 170.00
1816 96.7500 1.035574 26917.00 27164.60 164.00
1817 96.8000 1.035172 23514.00 24538.70 153.00
1818 96.8500 1.034772 20614.00 21569.00 143.00
1819 96.9000 1.034371 18123.00 18743.50 134.00
1820 96.9500 1.033972 16350.00 16344.50 127.00
1821 97.0000 1.033572 14950.00 14429.50 122.00
1822 97.0500 1.033174 13655.00 12892.50 116.00
1823 97.1000 1.032776 12300.00 11568.00 110.00
1824 97.1500 1.032378 10856.00 10321.20 104.00
1825 97.2000 1.031981 9541.00 9092.37 97.00
1826 97.2500 1.031584 8074.00 7895.14 89.00
1827 97.3000 1.031188 6851.00 6785.03 82.00
1828 97.3500 1.030792 6106.00 5823.61 78.00
1829 97.4000 1.030397 5265.00 5054.47 72.00
1830 97.4500 1.030002 4778.00 4495.04 69.00
1831 97.5000 1.029608 4519.00 4143.47 67.00
1832 97.5500 1.029214 4308.00 3989.76 65.00
1833 97.6000 1.028821 4207.00 4024.89 64.00
1834 97.6500 1.028428 4356.00 4242.75 66.00
1835 97.7000 1.028036 4553.00 4633.04 67.00
1836 97.7500 1.027644 5127.00 5169.42 71.00
1837 97.8000 1.027253 5727.00 5800.56 75.00
1838 97.8500 1.026862 6369.00 6452.04 79.00
1839 97.9000 1.026472 6919.00 7041.43 83.00
1840 97.9500 1.026082 7538.00 7502.04 86.00
1841 98.0000 1.025693 7510.00 7803.66 86.00
1842 98.0500 1.025304 7692.00 7960.87 87.00
1843 98.1000 1.024915 7892.00 8026.06 88.00
1844 98.1500 1.024528 7959.00 8073.85 89.00
1845 98.2000 1.024140 8429.00 8186.41 91.00
1846 98.2500 1.023753 8951.00 8442.29 94.00
1847 98.3000 1.023367 9079.00 8903.67 95.00
1848 98.3500 1.022981 9442.00 9595.67 97.00
1849 98.4000 1.022596 10039.00 10478.80 100.00
1850 98.4500 1.022211 10610.00 11431.20 103.00
1851 98.5000 1.021827 11441.00 12258.00 106.00
1852 98.5500 1.021443 11939.00 12739.60 109.00
1853 98.6000 1.021059 12209.00 12702.40 110.00
1854 98.6500 1.020676 11817.00 12083.10 108.00
1855 98.7000 1.020294 10938.00 10953.50 104.00
1856 98.7500 1.019912 9567.00 9495.56 97.00
1857 98.8000 1.019530 8025.00 7938.36 89.00
1858 98.8500 1.019149 6465.00 6487.04 80.00
1859 98.9000 1.018769 5288.00 5278.31 72.00
1860 98.9500 1.018389 4493.00 4365.54 67.00
1861 99.0000 1.018009 3895.00 3736.76 62.00
1862 99.0500 1.017630 3511.00 3343.90 59.00
1863 99.1000 1.017251 3219.00 3130.89 56.00
1864 99.1500 1.016873 3163.00 3051.77 56.00
1865 99.2000 1.016495 3041.00 3076.18 55.00
1866 99.2500 1.016118 3142.00 3186.50 56.00
1867 99.3000 1.015741 3275.00 3369.45 57.00
1868 99.3500 1.015365 3394.00 3607.18 58.00
1869 99.4000 1.014989 3762.00 3870.88 61.00
1870 99.4500 1.014614 4016.00 4120.65 63.00
1871 99.5000 1.014239 4141.00 4311.86 64.00
1872 99.5500 1.013864 4298.00 4406.49 65.00
1873 99.6000 1.013490 4202.00 4384.82 64.00
1874 99.6500 1.013117 4024.00 4251.71 63.00
1875 99.7000 1.012744 3848.00 4034.77 62.00
1876 99.7500 1.012372 3614.00 3775.21 60.00
1877 99.8000 1.011999 3393.00 3515.43 58.00
1878 99.8500 1.011628 3055.00 3288.92 55.00
1879 99.9000 1.011257 2990.00 3115.87 54.00
1880 99.9500 1.010886 2852.00 3004.58 53.00
1881 100.0000 1.010516 2920.00 2957.69 54.00
1882 100.0500 1.010146 2970.00 2979.36 54.00
1883 100.1000 1.009777 2963.00 3081.74 54.00
1884 100.1500 1.009408 3226.00 3287.95 56.00
1885 100.2000 1.009040 3519.00 3630.35 59.00
1886 100.2500 1.008672 4073.00 4141.96 63.00
1887 100.3000 1.008304 4684.00 4841.49 68.00
1888 100.3500 1.007937 5485.00 5715.67 74.00
1889 100.4000 1.007571 6416.00 6704.47 80.00
1890 100.4500 1.007205 7662.00 7702.74 87.00
1891 100.5000 1.006839 8641.00 8579.12 92.00
1892 100.5500 1.006474 9330.00 9215.89 96.00
1893 100.6000 1.006109 9603.00 9552.44 97.00
1894 100.6500 1.005745 9508.00 9612.31 97.00
1895 100.7000 1.005381 9205.00 9498.81 95.00
1896 100.7500 1.005018 8825.00 9355.10 93.00
1897 100.8000 1.004655 8834.00 9304.74 93.00
1898 100.8500 1.004293 9236.00 9398.20 96.00
1899 100.9000 1.003931 9665.00 9590.55 98.00
1900 100.9500 1.003569 9998.00 9760.46 99.00
1901 101.0000 1.003208 10024.00 9761.41 100.00
1902 101.0500 1.002847 9782.00 9482.11 98.00
1903 101.1000 1.002487 9093.00 8888.46 95.00
1904 101.1500 1.002128 8034.00 8032.74 89.00
1905 101.2000 1.001768 6834.00 7028.60 82.00
1906 101.2500 1.001410 5876.00 6009.62 76.00
1907 101.3000 1.001051 4918.00 5088.98 70.00
1908 101.3500 1.000693 4189.00 4335.51 64.00
1909 101.4000 1.000336 3824.00 3770.78 61.00
1910 101.4500 0.999979 3368.00 3380.01 58.00
1911 101.5000 0.999622 3176.00 3129.05 56.00
1912 101.5500 0.999266 2930.00 2978.98 54.00
1913 101.6000 0.998910 2810.00 2895.59 53.00
1914 101.6500 0.998555 2918.00 2853.50 54.00
1915 101.7000 0.998200 2944.00 2836.47 54.00
1916 101.7500 0.997846 2811.00 2836.02 53.00
1917 101.8000 0.997492 2744.00 2849.15 52.00
1918 101.8500 0.997138 2796.00 2875.99 52.00
1919 101.9000 0.996785 2823.00 2917.28 53.00
1920 101.9500 0.996433 2861.00 2972.16 53.00
1921 102.0000 0.996081 2995.00 3036.55 54.00
1922 102.0500 0.995729 2917.00 3102.83 54.00
1923 102.1000 0.995378 2934.00 3161.21 54.00
1924 102.1500 0.995027 3067.00 3202.37 55.00
1925 102.2000 0.994676 3027.00 3220.77 55.00
1926 102.2500 0.994326 2911.00 3217.05 53.00
1927 102.3000 0.993977 3008.00 3198.80 54.00
1928 102.3500 0.993628 3016.00 3179.36 54.00
1929 102.4000 0.993279 2909.00 3175.51 53.00
1930 102.4500 0.992931 2996.00 3204.88 54.00
1931 102.5000 0.992583 3148.00 3283.66 56.00
1932 102.5500 0.992236 3096.00 3424.42 55.00
1933 102.6000 0.991889 3415.00 3633.47 58.00
1934 102.6500 0.991542 3733.00 3907.44 61.00
1935 102.7000 0.991196 4215.00 4230.39 64.00
1936 102.7500 0.990850 4644.00 4573.07 68.00
1937 102.8000 0.990505 5162.00 4896.51 71.00
1938 102.8500 0.990160 5397.00 5159.89 73.00
1939 102.9000 0.989816 5647.00 5329.88 75.00
1940 102.9500 0.989472 5474.00 5388.95 73.00
1941 103.0000 0.989128 5384.00 5338.02 73.00
1942 103.0500 0.988785 5232.00 5193.95 72.00
1943 103.1000 0.988443 5023.00 4982.75 70.00
1944 103.1500 0.988100 4611.00 4732.62 67.00
1945 103.2000 0.987759 4266.00 4469.12 65.00
1946 103.2500 0.987417 4023.00 4214.16 63.00
1947 103.3000 0.987076 3930.00 3986.32 62.00
1948 103.3500 0.986736 3835.00 3801.29 61.00
1949 103.4000 0.986396 3573.00 3670.39 59.00
1950 103.4500 0.986056 3366.00 3597.48 58.00
1951 103.5000 0.985717 3407.00 3576.58 58.00
1952 103.5500 0.985378 3437.00 3592.02 58.00
1953 103.6000 0.985039 3374.00 3622.75 58.00
1954 103.6500 0.984701 3489.00 3649.62 59.00
1955 103.7000 0.984364 3555.00 3663.46 59.00
1956 103.7500 0.984027 3538.00 3670.58 59.00
1957 103.8000 0.983690 3511.00 3693.13 59.00
1958 103.8500 0.983354 3647.00 3763.60 60.00
1959 103.9000 0.983018 3927.00 3914.46 62.00
1960 103.9500 0.982682 4130.00 4166.09 64.00
1961 104.0000 0.982347 4441.00 4516.42 66.00
1962 104.0500 0.982012 4995.00 4936.13 70.00
1963 104.1000 0.981678 5430.00 5371.97 73.00
1964 104.1500 0.981344 5812.00 5757.21 76.00
1965 104.2000 0.981011 6240.00 6028.39 78.00
1966 104.2500 0.980678 6218.00 6141.18 78.00
1967 104.3000 0.980345 6086.00 6082.59 78.00
1968 104.3500 0.980013 5830.00 5874.36 76.00
1969 104.4000 0.979681 5620.00 5567.90 74.00
1970 104.4500 0.979350 5170.00 5232.83 71.00
1971 104.5000 0.979019 4888.00 4944.05 69.00
1972 104.5500 0.978688 4818.00 4769.67 69.00
1973 104.6000 0.978358 4718.00 4762.21 68.00
1974 104.6500 0.978028 4922.00 4951.71 70.00
1975 104.7000 0.977699 5338.00 5339.99 73.00
1976 104.7500 0.977370 6035.00 5895.72 77.00
1977 104.8000 0.977042 6730.00 6552.55 82.00
1978 104.8500 0.976714 7410.00 7214.95 86.00
1979 104.9000 0.976386 8084.00 7771.28 89.00
1980 104.9500 0.976059 8399.00 8117.42 91.00
1981 105.0000 0.975732 8350.00 8181.55 91.00
1982 105.0500 0.975405 8022.00 7944.09 89.00
1983 105.1000 0.975079 7429.00 7443.35 86.00
1984 105.1500 0.974753 6561.00 6765.04 81.00
1985 105.2000 0.974428 5789.00 6017.46 76.00
1986 105.2500 0.974103 5124.00 5304.34 71.00
1987 105.3000 0.973779 4514.00 4701.17 67.00
1988 105.3500 0.973455 4098.00 4243.71 64.00
1989 105.4000 0.973131 3914.00 3930.17 62.00
1990 105.4500 0.972808 3940.00 3731.68 62.00
1991 105.5000 0.972485 3797.00 3608.13 61.00
1992 105.5500 0.972163 3513.00 3521.93 59.00
1993 105.6000 0.971841 3421.00 3447.66 58.00
1994 105.6500 0.971519 3298.00 3375.93 57.00
1995 105.7000 0.971198 3222.00 3311.74 56.00
1996 105.7500 0.970877 3204.00 3269.23 56.00
1997 105.8000 0.970556 3167.00 3264.56 56.00
1998 105.8500 0.970236 3234.00 3309.13 56.00
1999 105.9000 0.969916 3204.00 3404.20 56.00
2000 105.9500 0.969597 3385.00 3538.43 58.00
2001 106.0000 0.969278 3579.00 3688.76 59.00
2002 106.0500 0.968960 3634.00 3824.96 60.00
2003 106.1000 0.968642 3707.00 3917.07 60.00
2004 106.1500 0.968324 3784.00 3943.10 61.00
2005 106.2000 0.968007 3704.00 3895.22 60.00
2006 106.2500 0.967690 3534.00 3781.47 59.00
2007 106.3000 0.967373 3393.00 3622.78 58.00
2008 106.3500 0.967057 3216.00 3446.45 56.00
2009 106.4000 0.966741 3236.00 3278.92 56.00
2010 106.4500 0.966426 3119.00 3139.93 55.00
2011 106.5000 0.966111 3121.00 3040.34 55.00
2012 106.5500 0.965796 3052.00 2982.49 55.00
2013 106.6000 0.965482 2976.00 2962.61 54.00
2014 106.6500 0.965168 2896.00 2973.57 53.00
2015 106.7000 0.964855 3097.00 3006.95 55.00
2016 106.7500 0.964542 3192.00 3054.19 56.00
2017 106.8000 0.964229 3210.00 3106.95 56.00
2018 106.8500 0.963917 3143.00 3157.18 56.00
2019 106.9000 0.963605 3043.00 3197.29 55.00
2020 106.9500 0.963294 3183.00 3220.77 56.00
2021 107.0000 0.962982 3250.00 3223.10 57.00
2022 107.0500 0.962672 3125.00 3202.71 55.00
2023 107.1000 0.962361 3054.00 3161.53 55.00
2024 107.1500 0.962051 3016.00 3104.75 54.00
2025 107.2000 0.961742 2890.00 3039.73 53.00
2026 107.2500 0.961433 2808.00 2974.33 52.00
2027 107.3000 0.961124 2813.00 2915.40 53.00
2028 107.3500 0.960815 2871.00 2867.66 53.00
2029 107.4000 0.960507 2754.00 2833.77 52.00
2030 107.4500 0.960200 2825.00 2815.01 53.00
2031 107.5000 0.959892 2749.00 2812.69 52.00
2032 107.5500 0.959585 2785.00 2829.83 52.00
2033 107.6000 0.959279 2985.00 2873.04 54.00
2034 107.6500 0.958973 2993.00 2954.53 54.00
2035 107.7000 0.958667 3246.00 3094.27 56.00
2036 107.7500 0.958362 3475.00 3321.41 58.00
2037 107.8000 0.958057 3893.00 3673.66 62.00
2038 107.8500 0.957752 4329.00 4192.90 65.00
2039 107.9000 0.957448 5063.00 4914.14 71.00
2040 107.9500 0.957144 5838.00 5849.55 76.00
2041 108.0000 0.956840 6997.00 6969.88 83.00
2042 108.0500 0.956537 8383.00 8190.84 91.00
2043 108.1000 0.956234 9401.00 9375.39 96.00
2044 108.1500 0.955932 10778.00 10353.60 103.00
2045 108.2000 0.955630 11657.00 10962.30 107.00
2046 108.2500 0.955328 11762.00 11089.30 108.00
2047 108.3000 0.955027 11438.00 10707.90 106.00
2048 108.3500 0.954726 10267.00 9885.95 101.00
2049 108.4000 0.954426 8867.00 8767.51 94.00
2050 108.4500 0.954125 7690.00 7531.67 87.00
2051 108.5000 0.953826 6332.00 6348.22 79.00
2052 108.5500 0.953526 5354.00 5342.38 73.00
2053 108.6000 0.953227 4611.00 4579.07 67.00
2054 108.6500 0.952928 4143.00 4066.83 64.00
2055 108.7000 0.952630 3889.00 3773.02 62.00
2056 108.7500 0.952332 3833.00 3642.76 61.00
2057 108.8000 0.952035 3806.00 3614.90 61.00
2058 108.8500 0.951737 3863.00 3633.52 62.00
2059 108.9000 0.951440 3907.00 3654.60 62.00
2060 108.9500 0.951144 3730.00 3649.41 61.00
2061 109.0000 0.950848 3606.00 3605.02 60.00
2062 109.0500 0.950552 3596.00 3522.47 59.00
2063 109.1000 0.950257 3543.00 3412.67 59.00
2064 109.1500 0.949962 3211.00 3291.11 56.00
2065 109.2000 0.949667 3119.00 3172.75 55.00
2066 109.2500 0.949373 3131.00 3068.46 55.00
2067 109.3000 0.949079 2985.00 2983.72 54.00
2068 109.3500 0.948785 2953.00 2919.14 54.00
2069 109.4000 0.948492 2966.00 2872.31 54.00
2070 109.4500 0.948199 2874.00 2839.71 53.00
2071 109.5000 0.947907 2857.00 2818.14 53.00
2072 109.5500 0.947615 2815.00 2805.53 53.00
2073 109.6000 0.947323 2711.00 2801.09 52.00
2074 109.6500 0.947031 2646.00 2805.27 51.00
2075 109.7000 0.946740 2734.00 2819.55 52.00
2076 109.7500 0.946450 2740.00 2846.29 52.00
2077 109.8000 0.946159 2846.00 2888.33 53.00
2078 109.8500 0.945869 2890.00 2948.50 53.00
2079 109.9000 0.945580 2944.00 3028.60 54.00
2080 109.9500 0.945291 2946.00 3128.29 54.00
2081 110.0000 0.945002 3196.00 3243.95 56.00
2082 110.0500 0.944713 3334.00 3368.32 57.00
2083 110.1000 0.944425 3434.00 3491.52 58.00
2084 110.1500 0.944137 3461.00 3603.45 58.00
2085 110.2000 0.943850 3595.00 3697.64 59.00
2086 110.2500 0.943562 3714.00 3774.43 60.00
2087 110.3000 0.943276 3754.00 3842.61 61.00
2088 110.3500 0.942989 3818.00 3917.66 61.00
2089 110.4000 0.942703 3878.00 4016.60 62.00
2090 110.4500 0.942418 4125.00 4151.25 64.00
2091 110.5000 0.942132 4190.00 4322.23 64.00
2092 110.5500 0.941847 4379.00 4516.94 66.00
2093 110.6000 0.941563 4810.00 4712.32 69.00
2094 110.6500 0.941278 4951.00 4881.53 70.00
2095 110.7000 0.940994 5115.00 5002.11 71.00
2096 110.7500 0.940711 5182.00 5061.45 71.00
2097 110.8000 0.940427 5151.00 5058.05 71.00
2098 110.8500 0.940145 5156.00 4998.53 71.00
2099 110.9000 0.939862 5212.00 4892.87 72.00
2100 110.9500 0.939580 5140.00 4750.78 71.00
2101 111.0000 0.939298 5051.00 4581.30 71.00
2102 111.0500 0.939016 4818.00 4395.10 69.00
2103 111.1000 0.938735 4729.00 4207.58 68.00
2104 111.1500 0.938454 4522.00 4040.54 67.00
2105 111.2000 0.938174 4307.00 3920.57 65.00
2106 111.2500 0.937894 4186.00 3874.54 64.00
2107 111.3000 0.937614 4129.00 3923.43 64.00
2108 111.3500 0.937335 4333.00 4076.64 65.00
2109 111.4000 0.937056 4238.00 4328.39 65.00
2110 111.4500 0.936777 4583.00 4657.73 67.00
2111 111.5000 0.936498 4766.00 5031.09 69.00
2112 111.5500 0.936220 5281.00 5407.84 72.00
2113 111.6000 0.935943 5525.00 5746.59 74.00
2114 111.6500 0.935665 6015.00 6010.56 77.00
2115 111.7000 0.935388 6511.00 6171.95 80.00
2116 111.7500 0.935112 6522.00 6214.27 80.00
2117 111.8000 0.934835 6461.00 6133.93 80.00
2118 111.8500 0.934559 6449.00 5940.91 80.00
2119 111.9000 0.934284 6095.00 5658.55 78.00
2120 111.9500 0.934008 5709.00 5321.22 75.00
2121 112.0000 0.933733 5212.00 4969.93 72.00
2122 112.0500 0.933459 4815.00 4645.58 69.00
2123 112.1000 0.933184 4498.00 4381.48 67.00
2124 112.1500 0.932910 4239.00 4198.32 65.00
2125 112.2000 0.932637 4043.00 4101.23 63.00
2126 112.2500 0.932364 3938.00 4081.10 62.00
2127 112.3000 0.932091 4019.00 4118.03 63.00
2128 112.3500 0.931818 3996.00 4186.17 63.00
2129 112.4000 0.931546 4074.00 4258.47 63.00
2130 112.4500 0.931274 4092.00 4311.05 63.00
2131 112.5000 0.931002 4387.00 4326.70 66.00
2132 112.5500 0.930731 4472.00 4297.87 66.00
2133 112.6000 0.930460 4293.00 4227.98 65.00
2134 112.6500 0.930189 4110.00 4130.62 64.00
2135 112.7000 0.929919 4038.00 4026.03 63.00
2136 112.7500 0.929649 3904.00 3935.64 62.00
2137 112.8000 0.929380 3851.00 3875.87 62.00
2138 112.8500 0.929110 3909.00 3853.46 62.00
2139 112.9000 0.928841 4153.00 3863.90 64.00
2140 112.9500 0.928573 3999.00 3893.51 63.00
2141 113.0000 0.928305 4110.00 3924.13 64.00
2142 113.0500 0.928037 4063.00 3939.04 63.00
2143 113.1000 0.927769 4020.00 3927.62 63.00
2144 113.1500 0.927502 3982.00 3887.81 63.00
2145 113.2000 0.927235 3713.00 3825.69 60.00
2146 113.2500 0.926968 3679.00 3753.08 60.00
2147 113.3000 0.926702 3636.00 3684.05 60.00
2148 113.3500 0.926436 3684.00 3631.62 60.00
2149 113.4000 0.926170 3710.00 3605.31 60.00
2150 113.4500 0.925905 3640.00 3609.57 60.00
2151 113.5000 0.925640 3639.00 3643.32 60.00
2152 113.5500 0.925375 3641.00 3700.26 60.00
2153 113.6000 0.925111 3660.00 3770.39 60.00
2154 113.6500 0.924847 3820.00 3842.33 61.00
2155 113.7000 0.924584 3886.00 3906.56 62.00
2156 113.7500 0.924320 3873.00 3958.36 62.00
2157 113.8000 0.924057 3890.00 3999.83 62.00
2158 113.8500 0.923795 4014.00 4039.62 63.00
2159 113.9000 0.923532 4054.00 4090.11 63.00
2160 113.9500 0.923270 4046.00 4162.77 63.00
2161 114.0000 0.923008 4029.00 4263.23 63.00
2162 114.0500 0.922747 4225.00 4388.01 65.00
2163 114.1000 0.922486 4418.00 4524.46 66.00
2164 114.1500 0.922225 4552.00 4653.86 67.00
2165 114.2000 0.921965 4659.00 4756.69 68.00
2166 114.2500 0.921705 4637.00 4817.63 68.00
2167 114.3000 0.921445 4594.00 4828.57 67.00
2168 114.3500 0.921186 4424.00 4788.69 66.00
2169 114.4000 0.920926 4528.00 4702.39 67.00
2170 114.4500 0.920668 4455.00 4576.42 66.00
2171 114.5000 0.920409 4363.00 4418.14 66.00
2172 114.5500 0.920151 4241.00 4235.22 65.00
2173 114.6000 0.919893 3935.00 4036.41 62.00
2174 114.6500 0.919636 3721.00 3832.68 61.00
2175 114.7000 0.919378 3666.00 3637.33 60.00
2176 114.7500 0.919122 3379.00 3465.56 58.00
2177 114.8000 0.918865 3342.00 3332.97 57.00
2178 114.8500 0.918609 3436.00 3254.74 58.00
2179 114.9000 0.918353 3289.00 3244.86 57.00
2180 114.9500 0.918097 3419.00 3315.56 58.00
2181 115.0000 0.917842 3676.00 3475.76 60.00
2182 115.0500 0.917587 3712.00 3728.46 60.00
2183 115.1000 0.917332 4084.00 4066.72 63.00
2184 115.1500 0.917078 4596.00 4469.89 67.00
2185 115.2000 0.916824 5017.00 4902.03 70.00
2186 115.2500 0.916570 5585.00 5313.77 74.00
2187 115.3000 0.916317 6024.00 5650.39 77.00
2188 115.3500 0.916064 6253.00 5862.37 79.00
2189 115.4000 0.915811 6326.00 5917.42 79.00
2190 115.4500 0.915559 6316.00 5809.17 79.00
2191 115.5000 0.915306 5884.00 5559.97 76.00
2192 115.5500 0.915055 5348.00 5216.18 73.00
2193 115.6000 0.914803 4834.00 4837.88 69.00
2194 115.6500 0.914552 4541.00 4486.89 67.00
2195 115.7000 0.914301 4246.00 4214.19 65.00
2196 115.7500 0.914050 3973.00 4053.46 63.00
2197 115.8000 0.913800 3989.00 4016.68 63.00
2198 115.8500 0.913550 4212.00 4095.22 64.00
2199 115.9000 0.913300 4359.00 4263.26 66.00
2200 115.9500 0.913051 4385.00 4483.89 66.00
2201 116.0000 0.912802 4822.00 4716.81 69.00
2202 116.0500 0.912553 5165.00 4926.86 71.00
2203 116.1000 0.912305 5274.00 5091.95 72.00
2204 116.1500 0.912057 5405.00 5207.87 73.00
2205 116.2000 0.911809 5463.00 5288.76 73.00
2206 116.2500 0.911561 5490.00 5361.32 74.00
2207 116.3000 0.911314 5606.00 5454.94 74.00
2208 116.3500 0.911067 5640.00 5590.71 75.00
2209 116.4000 0.910821 5708.00 5772.78 75.00
2210 116.4500 0.910575 5923.00 5986.46 76.00
2211 116.5000 0.910329 6109.00 6203.03 78.00
2212 116.5500 0.910083 6421.00 6389.82 80.00
2213 116.6000 0.909838 6672.00 6522.33 81.00
2214 116.6500 0.909593 6896.00 6592.75 83.00
2215 116.7000 0.909348 7236.00 6612.62 85.00
2216 116.7500 0.909103 7112.00 6608.93 84.00
2217 116.8000 0.908859 7061.00 6615.56 84.00
2218 116.8500 0.908616 7191.00 6664.00 84.00
2219 116.9000 0.908372 7013.00 6776.63 83.00
2220 116.9500 0.908129 7233.00 6964.45 85.00
2221 117.0000 0.907886 7581.00 7228.58 87.00
2222 117.0500 0.907643 7858.00 7562.57 88.00
2223 117.1000 0.907401 8152.00 7953.84 90.00
2224 117.1500 0.907159 8553.00 8381.49 92.00
2225 117.2000 0.906917 8970.00 8812.77 94.00
2226 117.2500 0.906676 9480.00 9200.45 97.00
2227 117.3000 0.906435 9976.00 9486.46 99.00
2228 117.3500 0.906194 9969.00 9610.97 99.00
2229 117.4000 0.905954 9700.00 9526.92 98.00
2230 117.4500 0.905713 9397.00 9214.04 96.00
2231 117.5000 0.905473 8466.00 8687.65 92.00
2232 117.5500 0.905234 7817.00 7996.59 88.00
2233 117.6000 0.904995 6964.00 7212.49 83.00
2234 117.6500 0.904756 6158.00 6413.02 78.00
2235 117.7000 0.904517 5540.00 5665.28 74.00
2236 117.7500 0.904278 5103.00 5015.56 71.00
2237 117.8000 0.904040 4646.00 4484.76 68.00
2238 117.8500 0.903803 4249.00 4072.70 65.00
2239 117.9000 0.903565 4026.00 3765.82 63.00
2240 117.9500 0.903328 3765.00 3544.05 61.00
2241 118.0000 0.903091 3546.00 3387.94 59.00
2242 118.0500 0.902854 3399.00 3280.82 58.00
2243 118.1000 0.902618 3368.00 3209.86 58.00
2244 118.1500 0.902382 3226.00 3165.48 56.00
2245 118.2000 0.902146 3157.00 3140.46 56.00
2246 118.2500 0.901911 3139.00 3129.65 56.00
2247 118.3000 0.901676 3157.00 3129.92 56.00
2248 118.3500 0.901441 3140.00 3140.45 56.00
2249 118.4000 0.901206 3251.00 3162.57 57.00
2250 118.4500 0.900972 3234.00 3199.21 56.00
2251 118.5000 0.900738 3286.00 3253.94 57.00
2252 118.5500 0.900504 3422.00 3329.52 58.00
2253 118.6000 0.900271 3486.00 3427.11 59.00
2254 118.6500 0.900038 3688.00 3545.46 60.00
2255 118.7000 0.899805 3929.00 3681.43 62.00
2256 118.7500 0.899573 4015.00 3830.91 63.00
2257 118.8000 0.899340 4117.00 3989.85 64.00
2258 118.8500 0.899108 4375.00 4155.81 66.00
2259 118.9000 0.898877 4268.00 4327.51 65.00
2260 118.9500 0.898645 4553.00 4504.61 67.00
2261 119.0000 0.898414 4630.00 4685.91 68.00
2262 119.0500 0.898184 4928.00 4867.41 70.00
2263 119.1000 0.897953 5119.00 5041.39 71.00
2264 119.1500 0.897723 5128.00 5196.33 71.00
2265 119.2000 0.897493 5245.00 5318.64 72.00
2266 119.2500 0.897263 5333.00 5395.51 73.00
2267 119.3000 0.897034 5225.00 5417.88 72.00
2268 119.3500 0.896805 5087.00 5382.71 71.00
2269 119.4000 0.896576 5064.00 5293.31 71.00
2270 119.4500 0.896348 4887.00 5158.01 69.00
2271 119.5000 0.896120 4934.00 4987.82 70.00
2272 119.5500 0.895892 4692.00 4794.36 68.00
2273 119.6000 0.895664 4533.00 4588.29 67.00
2274 119.6500 0.895437 4418.00 4379.64 66.00
2275 119.7000 0.895210 4234.00 4178.70 65.00
2276 119.7500 0.894983 4099.00 3997.54 64.00
2277 119.8000 0.894757 3982.00 3850.52 63.00
2278 119.8500 0.894531 3926.00 3754.42 62.00
2279 119.9000 0.894305 3737.00 3727.65 61.00
2280 119.9500 0.894079 3817.00 3788.93 61.00
2281 120.0000 0.893854 3907.00 3955.43 62.00
2282 120.0500 0.893629 4185.00 4240.74 64.00
2283 120.1000 0.893404 4600.00 4652.06 67.00
2284 120.1500 0.893179 5045.00 5186.75 71.00
2285 120.2000 0.892955 5566.00 5828.89 74.00
2286 120.2500 0.892731 6487.00 6545.56 80.00
2287 120.3000 0.892508 7247.00 7287.16 85.00
2288 120.3500 0.892284 8048.00 7989.86 89.00
2289 120.4000 0.892061 8851.00 8582.30 94.00
2290 120.4500 0.891839 9389.00 8998.85 96.00
2291 120.5000 0.891616 9529.00 9190.40 97.00
2292 120.5500 0.891394 9598.00 9136.99 97.00
2293 120.6000 0.891172 9069.00 8852.64 95.00
2294 120.6500 0.890950 8382.00 8383.58 91.00
2295 120.7000 0.890729 7745.00 7797.76 88.00
2296 120.7500 0.890508 6924.00 7170.12 83.00
2297 120.8000 0.890287 6245.00 6566.87 79.00
2298 120.8500 0.890066 5665.00 6033.58 75.00
2299 120.9000 0.889846 5272.00 5590.75 72.00
2300 120.9500 0.889626 5152.00 5235.31 71.00
2301 121.0000 0.889407 4747.00 4948.88 68.00
2302 121.0500 0.889187 4690.00 4707.94 68.00
2303 121.1000 0.888968 4445.00 4491.75 66.00
2304 121.1500 0.888749 4230.00 4288.60 65.00
2305 121.2000 0.888530 4140.00 4096.13 64.00
2306 121.2500 0.888312 4027.00 3919.36 63.00
2307 121.3000 0.888094 3781.00 3766.89 61.00
2308 121.3500 0.887876 3669.00 3646.62 60.00
2309 121.4000 0.887659 3600.00 3563.20 60.00
2310 121.4500 0.887442 3478.00 3516.87 58.00
2311 121.5000 0.887225 3426.00 3503.78 58.00
2312 121.5500 0.887008 3456.00 3517.21 58.00
2313 121.6000 0.886792 3538.00 3549.06 59.00
2314 121.6500 0.886576 3616.00 3591.36 60.00
2315 121.7000 0.886360 3778.00 3637.47 61.00
2316 121.7500 0.886144 3801.00 3683.01 61.00
2317 121.8000 0.885929 3779.00 3726.36 61.00
2318 121.8500 0.885714 3799.00 3768.78 61.00
2319 121.9000 0.885499 3847.00 3813.71 62.00
2320 121.9500 0.885285 3786.00 3865.39 61.00
2321 122.0000 0.885070 3903.00 3926.90 62.00
2322 122.0500 0.884856 3862.00 3998.22 62.00
2323 122.1000 0.884643 3852.00 4074.88 62.00
2324 122.1500 0.884429 3937.00 4147.90 62.00
2325 122.2000 0.884216 4036.00 4205.26 63.00
2326 122.2500 0.884003 3987.00 4234.53 63.00
2327 122.3000 0.883791 3982.00 4226.19 63.00
2328 122.3500 0.883579 4008.00 4176.27 63.00
2329 122.4000 0.883367 4005.00 4087.80 63.00
2330 122.4500 0.883155 3865.00 3970.36 62.00
2331 122.5000 0.882943 3790.00 3838.32 61.00
2332 122.5500 0.882732 3507.00 3707.90 59.00
2333 122.6000 0.882521 3369.00 3594.33 58.00
2334 122.6500 0.882310 3317.00 3509.53 57.00
2335 122.7000 0.882100 3315.00 3460.72 57.00
2336 122.7500 0.881890 3207.00 3449.94 56.00
2337 122.8000 0.881680 3324.00 3474.29 57.00
2338 122.8500 0.881470 3328.00 3526.71 57.00
2339 122.9000 0.881261 3353.00 3596.92 57.00
2340 122.9500 0.881052 3547.00 3673.00 59.00
2341 123.0000 0.880843 3624.00 3742.66 60.00
2342 123.0500 0.880635 3516.00 3795.10 59.00
2343 123.1000 0.880426 3590.00 3822.44 59.00
2344 123.1500 0.880218 3650.00 3820.73 60.00
2345 123.2000 0.880011 3538.00 3790.33 59.00
2346 123.2500 0.879803 3438.00 3735.50 58.00
2347 123.3000 0.879596 3430.00 3663.32 58.00
2348 123.3500 0.879389 3415.00 3582.40 58.00
2349 123.4000 0.879182 3422.00 3501.76 58.00
2350 123.4500 0.878976 3384.00 3429.99 58.00
2351 123.5000 0.878770 3303.00 3375.15 57.00
2352 123.5500 0.878564 3290.00 3345.41 57.00
2353 123.6000 0.878358 3358.00 3349.75 57.00
2354 123.6500 0.878153 3441.00 3399.01 58.00
2355 123.7000 0.877948 3699.00 3506.26 60.00
2356 123.7500 0.877743 3859.00 3686.31 62.00
2357 123.8000 0.877538 4084.00 3953.78 63.00
2358 123.8500 0.877334 4372.00 4320.11 66.00
2359 123.9000 0.877130 4902.00 4789.30 70.00
2360 123.9500 0.876926 5378.00 5353.54 73.00
2361 124.0000 0.876723 6094.00 5990.26 78.00
2362 124.0500 0.876519 6762.00 6660.60 82.00
2363 124.1000 0.876316 7472.00 7313.03 86.00
2364 124.1500 0.876113 7996.00 7888.98 89.00
2365 124.2000 0.875911 8482.00 8331.97 92.00
2366 124.2500 0.875709 8757.00 8597.79 93.00
2367 124.3000 0.875507 8648.00 8663.17 92.00
2368 124.3500 0.875305 8525.00 8531.91 92.00
2369 124.4000 0.875104 7935.00 8235.50 89.00
2370 124.4500 0.874902 7464.00 7828.92 86.00
2371 124.5000 0.874701 7064.00 7382.70 84.00
2372 124.5500 0.874501 6697.00 6970.81 81.00
2373 124.6000 0.874300 6522.00 6659.09 80.00
2374 124.6500 0.874100 6281.00 6494.12 79.00
2375 124.7000 0.873900 6469.00 6495.45 80.00
2376 124.7500 0.873701 6833.00 6651.99 82.00
2377 124.8000 0.873501 7097.00 6923.80 84.00
2378 124.8500 0.873302 7452.00 7249.03 86.00
2379 124.9000 0.873103 7822.00 7555.10 88.00
2380 124.9500 0.872905 7767.00 7772.25 88.00
2381 125.0000 0.872706 7914.00 7846.34 88.00
2382 125.0500 0.872508 7703.00 7749.00 87.00
2383 125.1000 0.872310 7226.00 7481.49 85.00
2384 125.1500 0.872113 6672.00 7073.25 81.00
2385 125.2000 0.871916 6268.00 6573.26 79.00
2386 125.2500 0.871718 5827.00 6040.89 76.00
2387 125.3000 0.871522 5553.00 5533.54 74.00
2388 125.3500 0.871325 5173.00 5098.34 71.00
2389 125.4000 0.871129 4881.00 4767.60 69.00
2390 125.4500 0.870933 4754.00 4557.17 68.00
2391 125.5000 0.870737 4686.00 4469.44 68.00
2392 125.5500 0.870541 4755.00 4497.41 68.00
2393 125.6000 0.870346 4912.00 4629.21 70.00
2394 125.6500 0.870151 4940.00 4851.56 70.00
2395 125.7000 0.869956 5206.00 5152.01 72.00
2396 125.7500 0.869762 5637.00 5519.46 75.00
2397 125.8000 0.869567 5932.00 5942.77 77.00
2398 125.8500 0.869373 6485.00 6410.44 80.00
2399 125.9000 0.869180 7045.00 6907.26 83.00
2400 125.9500 0.868986 7462.00 7414.24 86.00
2401 126.0000 0.868793 7877.00 7907.67 88.00
2402 126.0500 0.868600 8223.00 8359.56 90.00
2403 126.1000 0.868407 8652.00 8740.86 93.00
2404 126.1500 0.868214 8985.00 9024.48 94.00
2405 126.2000 0.868022 8971.00 9189.88 94.00
2406 126.2500 0.867830 9093.00 9227.32 95.00
2407 126.3000 0.867638 9002.00 9140.92 94.00
2408 126.3500 0.867447 8872.00 8949.96 94.00
2409 126.4000 0.867256 8756.00 8687.73 93.00
2410 126.4500 0.867065 8794.00 8398.42 93.00
2411 126.5000 0.866874 8534.00 8132.34 92.00
2412 126.5500 0.866683 8484.00 7940.33 92.00
2413 126.6000 0.866493 8686.00 7866.81 93.00
2414 126.6500 0.866303 8595.00 7943.43 92.00
2415 126.7000 0.866113 8758.00 8182.72 93.00
2416 126.7500 0.865924 9038.00 8573.52 95.00
2417 126.8000 0.865734 9325.00 9078.59 96.00
2418 126.8500 0.865545 9899.00 9637.67 99.00
2419 126.9000 0.865356 10684.00 10174.30 103.00
2420 126.9500 0.865168 10828.00 10607.50 104.00
2421 127.0000 0.864980 11125.00 10864.80 105.00
2422 127.0500 0.864792 11219.00 10895.90 105.00
2423 127.1000 0.864604 11067.00 10680.40 105.00
2424 127.1500 0.864416 10549.00 10230.90 102.00
2425 127.2000 0.864229 9669.00 9588.35 98.00
2426 127.2500 0.864042 8829.00 8813.91 93.00
2427 127.3000 0.863855 7815.00 7975.80 88.00
2428 127.3500 0.863669 7091.00 7138.80 84.00
2429 127.4000 0.863482 6350.00 6355.61 79.00
2430 127.4500 0.863296 5622.00 5662.16 74.00
2431 127.5000 0.863110 5185.00 5077.90 72.00
2432 127.5500 0.862925 4832.00 4607.02 69.00
2433 127.6000 0.862739 4449.00 4243.19 66.00
2434 127.6500 0.862554 4184.00 3974.09 64.00
2435 127.7000 0.862369 3894.00 3784.11 62.00
2436 127.7500 0.862185 3754.00 3658.03 61.00
2437 127.8000 0.862000 3711.00 3581.81 60.00
2438 127.8500 0.861816 3627.00 3543.39 60.00
2439 127.9000 0.861632 3461.00 3532.66 58.00
2440 127.9500 0.861449 3373.00 3541.05 58.00
2441 128.0000 0.861265 3502.00 3561.18 59.00
2442 128.0500 0.861082 3548.00 3586.58 59.00
2443 128.1000 0.860899 3606.00 3611.65 60.00
2444 128.1500 0.860716 3546.00 3631.97 59.00
2445 128.2000 0.860534 3564.00 3644.53 59.00
2446 128.2500 0.860352 3688.00 3648.27 60.00
2447 128.3000 0.860170 3554.00 3644.40 59.00
2448 128.3500 0.859988 3512.00 3636.77 59.00
2449 128.4000 0.859807 3538.00 3631.99 59.00
2450 128.4500 0.859625 3676.00 3639.76 60.00
2451 128.5000 0.859444 3623.00 3673.00 60.00
2452 128.5500 0.859264 3798.00 3748.03 61.00
2453 128.6000 0.859083 3973.00 3884.53 63.00
2454 128.6500 0.858903 4217.00 4105.07 64.00
2455 128.7000 0.858723 4525.00 4432.98 67.00
2456 128.7500 0.858543 4899.00 4889.96 69.00
2457 128.8000 0.858363 5439.00 5490.87 73.00
2458 128.8500 0.858184 6182.00 6239.04 78.00
2459 128.9000 0.858005 7030.00 7120.33 83.00
2460 128.9500 0.857826 7911.00 8099.27 88.00
2461 129.0000 0.857647 8977.00 9118.42 94.00
2462 129.0500 0.857469 10237.00 10100.70 101.00
2463 129.1000 0.857291 11317.00 10959.60 106.00
2464 129.1500 0.857113 12083.00 11609.70 109.00
2465 129.2000 0.856935 12389.00 11981.30 111.00
2466 129.2500 0.856758 12381.00 12032.00 111.00
2467 129.3000 0.856581 11867.00 11755.20 108.00
2468 129.3500 0.856404 10926.00 11181.40 104.00
2469 129.4000 0.856227 9805.00 10372.40 99.00
2470 129.4500 0.856051 8737.00 9410.59 93.00
2471 129.5000 0.855874 7809.00 8385.46 88.00
2472 129.5500 0.855698 6857.00 7378.89 82.00
2473 129.6000 0.855523 6220.00 6457.05 78.00
2474 129.6500 0.855347 5530.00 5662.02 74.00
2475 129.7000 0.855172 4987.00 5013.72 70.00
2476 129.7500 0.854997 4738.00 4512.67 68.00
2477 129.8000 0.854822 4380.00 4144.81 66.00
2478 129.8500 0.854647 4128.00 3888.95 64.00
2479 129.9000 0.854473 3939.00 3721.23 62.00
2480 129.9500 0.854299 3764.00 3619.91 61.00
2481 130.0000 0.854125 3637.00 3567.37 60.00
2482 130.0500 0.853951 3527.00 3550.81 59.00
2483 130.1000 0.853778 3618.00 3562.15 60.00
2484 130.1500 0.853605 3654.00 3597.05 60.00
2485 130.2000 0.853432 3561.00 3653.80 59.00
2486 130.2500 0.853259 3612.00 3731.93 60.00
2487 130.3000 0.853086 3643.00 3831.33 60.00
2488 130.3500 0.852914 3797.00 3951.30 61.00
2489 130.4000 0.852742 3998.00 4090.72 63.00
2490 130.4500 0.852570 4095.00 4247.99 63.00
2491 130.5000 0.852399 4370.00 4422.47 66.00
2492 130.5500 0.852227 4725.00 4615.92 68.00
2493 130.6000 0.852056 4864.00 4833.83 69.00
2494 130.6500 0.851885 5105.00 5087.21 71.00
2495 130.7000 0.851715 5342.00 5391.81 73.00
2496 130.7500 0.851544 5678.00 5767.42 75.00
2497 130.8000 0.851374 6203.00 6233.82 78.00
2498 130.8500 0.851204 6989.00 6806.72 83.00
2499 130.9000 0.851034 7621.00 7493.21 87.00
2500 130.9500 0.850865 8612.00 8286.02 92.00
2501 131.0000 0.850696 9684.00 9163.63 98.00
2502 131.0500 0.850527 10756.00 10089.80 103.00
2503 131.1000 0.850358 11806.00 11019.40 108.00
2504 131.1500 0.850189 12606.00 11906.00 112.00
2505 131.2000 0.850021 13186.00 12706.70 114.00
2506 131.2500 0.849853 13871.00 13391.40 117.00
2507 131.3000 0.849685 14207.00 13942.80 119.00
2508 131.3500 0.849517 14477.00 14357.40 120.00
2509 131.4000 0.849350 14670.00 14639.20 121.00
2510 131.4500 0.849182 14946.00 14794.80 123.00
2511 131.5000 0.849015 15172.00 14827.10 124.00
2512 131.5500 0.848849 15089.00 14733.60 124.00
2513 131.6000 0.848682 14920.00 14506.80 123.00
2514 131.6500 0.848516 14492.00 14139.40 122.00
2515 131.7000 0.848350 14004.00 13630.10 120.00
2516 131.7500 0.848184 13344.00 12990.10 117.00
2517 131.8000 0.848018 12586.00 12245.70 114.00
2518 131.8500 0.847853 11832.00 11438.10 111.00
2519 131.9000 0.847688 10948.00 10619.50 107.00
2520 131.9500 0.847523 10044.00 9845.28 102.00
2521 132.0000 0.847358 9396.00 9166.25 99.00
2522 132.0500 0.847193 8855.00 8619.54 96.00
2523 132.1000 0.847029 8463.00 8224.30 94.00
2524 132.1500 0.846865 8175.00 7977.74 93.00
2525 132.2000 0.846701 8032.00 7857.70 92.00
2526 132.2500 0.846538 8086.00 7826.52 93.00
2527 132.3000 0.846374 8043.00 7837.80 93.00
2528 132.3500 0.846211 7956.00 7844.33 92.00
2529 132.4000 0.846048 8041.00 7805.44 93.00
2530 132.4500 0.845886 8006.00 7692.75 93.00
2531 132.5000 0.845723 7780.00 7493.60 92.00
2532 132.5500 0.845561 7182.00 7211.30 88.00
2533 132.6000 0.845399 6604.00 6863.57 85.00
2534 132.6500 0.845237 6284.00 6477.48 83.00
2535 132.7000 0.845075 5887.00 6085.68 81.00
2536 132.7500 0.844914 5624.00 5720.22 79.00
2537 132.8000 0.844753 5178.00 5408.59 76.00
2538 132.8500 0.844592 5081.00 5170.80 75.00
2539 132.9000 0.844431 4854.00 5016.91 74.00
2540 132.9500 0.844271 4828.00 4947.58 74.00
2541 133.0000 0.844110 4948.00 4954.21 75.00
2542 133.0500 0.843950 5040.00 5020.93 75.00
2543 133.1000 0.843791 5022.00 5126.86 76.00
2544 133.1500 0.843631 5105.00 5249.03 76.00
2545 133.2000 0.843472 5226.00 5364.94 77.00
2546 133.2500 0.843313 5321.00 5455.62 78.00
2547 133.3000 0.843154 5293.00 5507.63 78.00
2548 133.3500 0.842995 5306.00 5514.61 78.00
2549 133.4000 0.842836 5275.00 5477.62 78.00
2550 133.4500 0.842678 5038.00 5404.49 77.00
2551 133.5000 0.842520 4874.00 5308.16 76.00
2552 133.5500 0.842362 4867.00 5204.69 76.00
2553 133.6000 0.842205 4860.00 5110.79 76.00
2554 133.6500 0.842047 4814.00 5041.80 76.00
2555 133.7000 0.841890 4765.00 5010.38 75.00
2556 133.7500 0.841733 4988.00 5025.38 77.00
2557 133.8000 0.841576 5158.00 5091.57 79.00
2558 133.8500 0.841420 5138.00 5209.53 79.00
2559 133.9000 0.841264 5290.00 5375.72 80.00
2560 133.9500 0.841107 5594.00 5582.50 82.00
2561 134.0000 0.840952 5804.00 5818.35 84.00
2562 134.0500 0.840796 6211.00 6067.87 87.00
2563 134.1000 0.840640 6477.00 6312.98 89.00
2564 134.1500 0.840485 6715.00 6533.87 91.00
2565 134.2000 0.840330 6789.00 6710.94 92.00
2566 134.2500 0.840176 6893.00 6826.78 93.00
2567 134.3000 0.840021 6877.00 6868.59 93.00
2568 134.3500 0.839867 6538.00 6829.67 91.00
2569 134.4000 0.839713 6259.00 6710.47 89.00
2570 134.4500 0.839559 6164.00 6518.45 88.00
2571 134.5000 0.839405 5867.00 6267.34 86.00
2572 134.5500 0.839251 5386.00 5974.88 83.00
2573 134.6000 0.839098 5101.00 5661.28 81.00
2574 134.6500 0.838945 4911.00 5346.00 79.00
2575 134.7000 0.838792 4705.00 5046.57 78.00
2576 134.7500 0.838640 4454.00 4777.13 76.00
2577 134.8000 0.838487 4235.00 4547.22 74.00
2578 134.8500 0.838335 4095.00 4362.33 73.00
2579 134.9000 0.838183 3973.00 4223.64 72.00
2580 134.9500 0.838031 3925.00 4129.35 72.00
2581 135.0000 0.837880 3889.00 4075.32 72.00
2582 135.0500 0.837728 3855.00 4055.88 71.00
2583 135.1000 0.837577 3914.00 4064.76 72.00
2584 135.1500 0.837426 4047.00 4095.71 73.00
2585 135.2000 0.837276 4020.00 4143.10 73.00
2586 135.2500 0.837125 4037.00 4202.37 74.00
2587 135.3000 0.836975 4275.00 4270.39 76.00
2588 135.3500 0.836825 4330.00 4345.49 77.00
2589 135.4000 0.836675 4382.00 4427.62 77.00
2590 135.4500 0.836526 4369.00 4517.73 77.00
2591 135.5000 0.836376 4611.00 4617.39 79.00
2592 135.5500 0.836227 4558.00 4727.73 79.00
2593 135.6000 0.836078 4779.00 4848.69 81.00
2594 135.6500 0.835929 4797.00 4978.28 82.00
2595 135.7000 0.835781 4724.00 5111.70 81.00
2596 135.7500 0.835632 4869.00 5241.75 82.00
2597 135.8000 0.835484 5007.00 5359.04 84.00
2598 135.8500 0.835336 5067.00 5453.35 84.00
2599 135.9000 0.835189 5172.00 5515.03 86.00
2600 135.9500 0.835041 5192.00 5536.48 86.00
2601 136.0000 0.834894 5205.00 5513.79 86.00
2602 136.0500 0.834747 5243.00 5447.63 87.00
2603 136.1000 0.834600 5183.00 5343.55 86.00
2604 136.1500 0.834453 5145.00 5211.67 86.00
2605 136.2000 0.834307 4891.00 5065.66 84.00
2606 136.2500 0.834161 4846.00 4921.31 84.00
2607 136.3000 0.834014 4662.00 4795.09 82.00
2608 136.3500 0.833869 4729.00 4702.34 83.00
2609 136.4000 0.833723 4674.00 4656.02 83.00
2610 136.4500 0.833578 4537.00 4665.50 82.00
2611 136.5000 0.833432 4761.00 4735.74 84.00
2612 136.5500 0.833287 4868.00 4866.64 85.00
2613 136.6000 0.833143 5140.00 5052.86 88.00
2614 136.6500 0.832998 5652.00 5283.98 92.00
2615 136.7000 0.832854 5789.00 5545.27 93.00
2616 136.7500 0.832710 5876.00 5818.65 94.00
2617 136.8000 0.832566 6455.00 6085.10 99.00
2618 136.8500 0.832422 6622.00 6326.23 101.00
2619 136.9000 0.832278 6702.00 6527.41 101.00
2620 136.9500 0.832135 6669.00 6679.15 101.00
2621 137.0000 0.831992 6684.00 6778.53 102.00
2622 137.0500 0.831849 6542.00 6829.52 101.00
2623 137.1000 0.831706 6658.00 6841.77 102.00
2624 137.1500 0.831564 6614.00 6828.53 102.00
2625 137.2000 0.831422 6586.00 6803.76 102.00
2626 137.2500 0.831280 6526.00 6779.34 101.00
2627 137.3000 0.831138 6651.00 6762.68 103.00
2628 137.3500 0.830996 6861.00 6755.47 104.00
2629 137.4000 0.830855 6761.00 6753.78 104.00
2630 137.4500 0.830713 6811.00 6749.50 104.00
2631 137.5000 0.830572 6868.00 6732.72 105.00
2632 137.5500 0.830432 6905.00 6694.62 106.00
2633 137.6000 0.830291 6932.00 6630.17 106.00
2634 137.6500 0.830151 6779.00 6539.93 105.00
2635 137.7000 0.830010 6600.00 6431.09 104.00
2636 137.7500 0.829870 6268.00 6316.93 101.00
2637 137.8000 0.829731 6297.00 6215.41 102.00
2638 137.8500 0.829591 6020.00 6147.12 100.00
2639 137.9000 0.829452 6159.00 6132.51 101.00
2640 137.9500 0.829312 6252.00 6189.56 102.00
2641 138.0000 0.829173 6361.00 6331.53 103.00
2642 138.0500 0.829035 6539.00 6565.05 105.00
2643 138.1000 0.828896 6902.00 6889.05 108.00
2644 138.1500 0.828758 7311.00 7294.46 111.00
2645 138.2000 0.828619 8016.00 7763.21 117.00
2646 138.2500 0.828481 8532.00 8269.96 121.00
2647 138.3000 0.828344 9118.00 8782.42 125.00
2648 138.3500 0.828206 9872.00 9264.39 130.00
2649 138.4000 0.828069 10279.00 9678.81 133.00
2650 138.4500 0.827932 10502.00 9990.22 135.00
2651 138.5000 0.827795 10369.00 10169.80 134.00
2652 138.5500 0.827658 10289.00 10198.00 134.00
2653 138.6000 0.827521 10027.00 10067.30 133.00
2654 138.6500 0.827385 9572.00 9783.31 130.00
2655 138.7000 0.827249 8687.00 9364.08 124.00
2656 138.7500 0.827113 8175.00 8837.69 120.00
2657 138.8000 0.826977 7742.00 8239.46 117.00
2658 138.8500 0.826842 7331.00 7606.95 115.00
2659 138.9000 0.826706 6614.00 6976.33 109.00
2660 138.9500 0.826571 6279.00 6378.65 106.00
2661 139.0000 0.826436 5755.00 5838.08 102.00
2662 139.0500 0.826302 5279.00 5369.87 98.00
2663 139.1000 0.826167 5138.00 4981.14 97.00
2664 139.1500 0.826033 5047.00 4671.89 96.00
2665 139.2000 0.825899 4792.00 4436.61 94.00
2666 139.2500 0.825765 4534.00 4266.51 91.00
2667 139.3000 0.825631 4324.00 4150.91 89.00
2668 139.3500 0.825498 4238.00 4079.10 89.00
2669 139.4000 0.825364 4346.00 4041.05 90.00
2670 139.4500 0.825231 4373.00 4028.21 91.00
2671 139.5000 0.825098 4300.00 4033.63 90.00
2672 139.5500 0.824965 4187.00 4051.82 89.00
2673 139.6000 0.824833 4190.00 4078.54 89.00
2674 139.6500 0.824701 4094.00 4110.50 88.00
2675 139.7000 0.824569 4187.00 4145.05 89.00
2676 139.7500 0.824437 4246.00 4179.92 90.00
2677 139.8000 0.824305 4319.00 4213.22 91.00
2678 139.8500 0.824173 4446.00 4243.34 93.00
2679 139.9000 0.824042 4389.00 4269.13 92.00
2680 139.9500 0.823911 4357.00 4289.86 92.00
2681 140.0000 0.823780 4513.00 4305.48 94.00
2682 140.0500 0.823649 4573.00 4316.57 95.00
2683 140.1000 0.823519 4516.00 4324.34 94.00
2684 140.1500 0.823388 4493.00 4330.51 94.00
2685 140.2000 0.823258 4479.00 4337.13 94.00
2686 140.2500 0.823128 4397.00 4346.31 94.00
2687 140.3000 0.822999 4444.00 4360.06 94.00
2688 140.3500 0.822869 4258.00 4380.02 93.00
2689 140.4000 0.822740 4353.00 4407.44 94.00
2690 140.4500 0.822611 4526.00 4443.00 96.00
2691 140.5000 0.822482 4557.00 4486.91 96.00
2692 140.5500 0.822353 4451.00 4538.84 96.00
2693 140.6000 0.822224 4667.00 4598.02 98.00
2694 140.6500 0.822096 4692.00 4663.27 98.00
2695 140.7000 0.821968 4736.00 4732.89 99.00
2696 140.7500 0.821840 4768.00 4804.82 100.00
2697 140.8000 0.821712 4818.00 4876.51 100.00
2698 140.8500 0.821585 5019.00 4945.09 103.00
2699 140.9000 0.821457 4987.00 5007.55 103.00
2700 140.9500 0.821330 5132.00 5060.79 104.00
2701 141.0000 0.821203 5225.00 5102.08 105.00
2702 141.0500 0.821076 5442.00 5129.31 108.00
2703 141.1000 0.820950 5261.00 5141.37 106.00
2704 141.1500 0.820823 5232.00 5138.42 106.00
2705 141.2000 0.820697 5192.00 5122.13 106.00
2706 141.2500 0.820571 5230.00 5095.69 107.00
2707 141.3000 0.820445 5438.00 5063.77 109.00
2708 141.3500 0.820320 5225.00 5032.18 107.00
2709 141.4000 0.820194 4962.00 5007.51 104.00
2710 141.4500 0.820069 5079.00 4996.59 106.00
2711 141.5000 0.819944 5046.00 5005.95 106.00
2712 141.5500 0.819819 4954.00 5041.36 105.00
2713 141.6000 0.819694 4961.00 5107.43 105.00
2714 141.6500 0.819570 5346.00 5207.47 110.00
2715 141.7000 0.819446 5507.00 5343.48 111.00
2716 141.7500 0.819322 5538.00 5516.26 112.00
2717 141.8000 0.819198 5799.00 5725.97 115.00
2718 141.8500 0.819074 6036.00 5972.07 117.00
2719 141.9000 0.818951 6456.00 6254.30 122.00
2720 141.9500 0.818827 6664.00 6572.41 124.00
2721 142.0000 0.818704 7057.00 6926.13 128.00
2722 142.0500 0.818581 7520.00 7315.62 132.00
2723 142.1000 0.818459 8041.00 7740.18 137.00
2724 142.1500 0.818336 8523.00 8199.00 141.00
2725 142.2000 0.818214 9109.00 8689.66 146.00
2726 142.2500 0.818092 9792.00 9207.69 152.00
2727 142.3000 0.817970 10599.00 9747.11 159.00
2728 142.3500 0.817848 11124.00 10299.20 163.00
2729 142.4000 0.817726 11700.00 10854.40 167.00
2730 142.4500 0.817605 12248.00 11401.10 172.00
2731 142.5000 0.817484 12647.00 11927.80 175.00
2732 142.5500 0.817363 12982.00 12423.50 178.00
2733 142.6000 0.817242 13253.00 12878.00 180.00
2734 142.6500 0.817121 13036.00 13283.80 179.00
2735 142.7000 0.817001 13687.00 13634.60 183.00
2736 142.7500 0.816881 13546.00 13926.20 183.00
2737 142.8000 0.816761 13902.00 14155.80 186.00
2738 142.8500 0.816641 13886.00 14321.40 186.00
2739 142.9000 0.816521 14491.00 14421.30 190.00
2740 142.9500 0.816402 14732.00 14453.40 192.00
2741 143.0000 0.816283 14944.00 14416.10 194.00
2742 143.0500 0.816163 14817.00 14308.30 194.00
2743 143.1000 0.816045 14856.00 14130.30 194.00
2744 143.1500 0.815926 14954.00 13884.60 195.00
2745 143.2000 0.815807 14683.00 13577.10 194.00
2746 143.2500 0.815689 14416.00 13216.60 193.00
2747 143.3000 0.815571 13772.00 12815.80 189.00
2748 143.3500 0.815453 13162.00 12389.50 185.00
2749 143.4000 0.815335 12823.00 11954.10 183.00
2750 143.4500 0.815218 12092.00 11525.80 178.00
2751 143.5000 0.815100 11664.00 11119.10 175.00
2752 143.5500 0.814983 11250.00 10745.80 172.00
2753 143.6000 0.814866 11047.00 10413.30 171.00
2754 143.6500 0.814749 10619.00 10124.70 168.00
2755 143.7000 0.814633 10471.00 9878.22 167.00
2756 143.7500 0.814516 10124.00 9668.19 165.00
2757 143.8000 0.814400 9779.00 9485.35 162.00
2758 143.8500 0.814284 9340.00 9318.23 159.00
2759 143.9000 0.814168 9240.00 9154.33 159.00
2760 143.9500 0.814052 9048.00 8981.32 157.00
2761 144.0000 0.813937 8664.00 8788.49 154.00
2762 144.0500 0.813822 8269.00 8567.35 151.00
2763 144.1000 0.813707 8170.00 8312.95 150.00
2764 144.1500 0.813592 7832.00 8023.60 147.00
2765 144.2000 0.813477 7583.00 7701.47 145.00
2766 144.2500 0.813362 7217.00 7352.35 142.00
2767 144.3000 0.813248 6987.00 6984.46 140.00
2768 144.3500 0.813134 6704.00 6608.42 138.00
2769 144.4000 0.813020 6281.00 6235.15 133.00
2770 144.4500 0.812906 5792.00 5875.81 128.00
2771 144.5000 0.812792 5549.00 5540.72 126.00
2772 144.5500 0.812679 5662.00 5238.11 128.00
2773 144.6000 0.812566 5244.00 4974.42 123.00
2774 144.6500 0.812453 4898.00 4753.21 119.00
2775 144.7000 0.812340 4712.00 4575.95 117.00
2776 144.7500 0.812227 4571.00 4441.99 116.00
2777 144.8000 0.812115 4388.00 4348.66 113.00
2778 144.8500 0.812002 4394.00 4291.98 114.00
2779 144.9000 0.811890 4285.00 4266.79 113.00
2780 144.9500 0.811778 4193.00 4267.28 112.00
2781 145.0000 0.811666 4316.00 4287.23 113.00
2782 145.0500 0.811555 4271.00 4320.35 113.00
2783 145.1000 0.811443 4336.00 4360.42 114.00
2784 145.1500 0.811332 4285.00 4401.72 114.00
2785 145.2000 0.811221 4323.00 4439.06 115.00
2786 145.2500 0.811110 4428.00 4468.15 116.00
2787 145.3000 0.811000 4361.00 4485.69 116.00
2788 145.3500 0.810889 4233.00 4489.54 114.00
2789 145.4000 0.810779 4157.00 4478.78 113.00
2790 145.4500 0.810669 4112.00 4453.67 113.00
2791 145.5000 0.810559 4126.00 4415.53 113.00
2792 145.5500 0.810449 4048.00 4366.59 113.00
2793 145.6000 0.810340 3922.00 4309.67 111.00
2794 145.6500 0.810230 3872.00 4247.86 111.00
2795 145.7000 0.810121 3783.00 4184.38 110.00
2796 145.7500 0.810012 3759.00 4122.13 109.00
2797 145.8000 0.809903 3748.00 4063.64 110.00
2798 145.8500 0.809795 3660.00 4010.81 108.00
2799 145.9000 0.809686 3596.00 3964.93 108.00
2800 145.9500 0.809578 3734.00 3926.64 110.00
2801 146.0000 0.809470 3636.00 3896.00 109.00
2802 146.0500 0.809362 3508.00 3872.61 107.00
2803 146.1000 0.809254 3465.00 3855.71 107.00
2804 146.1500 0.809147 3587.00 3844.29 109.00
2805 146.2000 0.809040 3595.00 3837.24 109.00
2806 146.2500 0.808932 3547.00 3833.48 109.00
2807 146.3000 0.808825 3725.00 3831.99 112.00
2808 146.3500 0.808719 3657.00 3831.95 111.00
2809 146.4000 0.808612 3744.00 3832.78 112.00
2810 146.4500 0.808506 3551.00 3834.18 110.00
2811 146.5000 0.808399 3574.00 3836.19 110.00
2812 146.5500 0.808293 3676.00 3839.22 112.00
2813 146.6000 0.808187 3809.00 3844.06 114.00
2814 146.6500 0.808082 3924.00 3851.95 116.00
2815 146.7000 0.807976 3714.00 3864.54 114.00
2816 146.7500 0.807871 3937.00 3883.91 117.00
2817 146.8000 0.807766 3936.00 3912.58 117.00
2818 146.8500 0.807661 3791.00 3953.39 115.00
2819 146.9000 0.807556 3890.00 4009.51 117.00
2820 146.9500 0.807451 4010.00 4084.27 119.00
2821 147.0000 0.807347 4162.00 4180.88 122.00
2822 147.0500 0.807243 4351.00 4302.38 125.00
2823 147.1000 0.807138 4441.00 4451.05 126.00
2824 147.1500 0.807035 4641.00 4628.55 130.00
2825 147.2000 0.806931 4790.00 4835.06 132.00
2826 147.2500 0.806827 5018.00 5069.39 135.00
2827 147.3000 0.806724 5573.00 5328.68 143.00
2828 147.3500 0.806621 5671.00 5607.96 145.00
2829 147.4000 0.806518 6152.00 5901.04 151.00
2830 147.4500 0.806415 6612.00 6199.70 157.00
2831 147.5000 0.806312 6936.00 6494.99 161.00
2832 147.5500 0.806210 7230.00 6777.16 165.00
2833 147.6000 0.806108 7535.00 7036.86 169.00
2834 147.6500 0.806005 7727.00 7265.83 171.00
2835 147.7000 0.805904 7735.00 7457.15 172.00
2836 147.7500 0.805802 7673.00 7606.50 171.00
2837 147.8000 0.805700 7784.00 7712.17 173.00
2838 147.8500 0.805599 7678.00 7775.55 172.00
2839 147.9000 0.805498 7798.00 7801.01 174.00
2840 147.9500 0.805397 7845.00 7795.48 175.00
2841 148.0000 0.805296 7695.00 7767.98 174.00
2842 148.0500 0.805195 7847.00 7728.82 176.00
2843 148.1000 0.805095 7624.00 7688.73 174.00
2844 148.1500 0.804994 7679.00 7657.83 175.00
2845 148.2000 0.804894 7805.00 7644.86 177.00
2846 148.2500 0.804794 7763.00 7656.35 177.00
2847 148.3000 0.804694 7932.00 7696.03 179.00
2848 148.3500 0.804595 7673.00 7764.58 176.00
2849 148.4000 0.804495 7728.00 7859.52 177.00
2850 148.4500 0.804396 7784.00 7975.52 178.00
2851 148.5000 0.804297 7947.00 8104.85 181.00
2852 148.5500 0.804198 7968.00 8237.98 181.00
2853 148.6000 0.804100 8212.00 8364.62 185.00
2854 148.6500 0.804001 8429.00 8474.49 187.00
2855 148.7000 0.803903 8456.00 8558.24 188.00
2856 148.7500 0.803805 8747.00 8608.21 192.00
2857 148.8000 0.803706 8922.00 8619.23 194.00
2858 148.8500 0.803609 9279.00 8588.95 199.00
2859 148.9000 0.803511 9013.00 8518.11 196.00
2860 148.9500 0.803414 9022.00 8410.57 197.00
2861 149.0000 0.803316 8533.00 8273.17 192.00
2862 149.0500 0.803219 8514.00 8115.21 192.00
2863 149.1000 0.803122 8496.00 7948.24 192.00
2864 149.1500 0.803025 8278.00 7785.02 190.00
2865 149.2000 0.802929 7563.00 7639.25 182.00
2866 149.2500 0.802832 7599.00 7524.84 183.00
2867 149.3000 0.802736 7775.00 7454.98 186.00
2868 149.3500 0.802640 7404.00 7441.71 182.00
2869 149.4000 0.802544 7447.00 7495.01 183.00
2870 149.4500 0.802449 7728.00 7622.33 187.00
2871 149.5000 0.802353 7971.00 7827.73 190.00
2872 149.5500 0.802258 8509.00 8111.64 197.00
2873 149.6000 0.802162 8945.00 8469.92 202.00
2874 149.6500 0.802067 9324.00 8894.60 207.00
2875 149.7000 0.801973 9617.00 9372.55 211.00
2876 149.7500 0.801878 10395.00 9886.98 220.00
2877 149.8000 0.801784 11070.00 10417.60 227.00
2878 149.8500 0.801689 11491.00 10941.00 232.00
2879 149.9000 0.801595 12017.00 11433.60 238.00
2880 149.9500 0.801501 12456.00 11870.70 243.00
2881 150.0000 0.801407 12643.00 12230.50 245.00
2882 150.0500 0.801314 12980.00 12493.40 249.00
2883 150.1000 0.801220 12991.00 12645.30 250.00
2884 150.1500 0.801127 12828.00 12677.20 249.00
2885 150.2000 0.801034 12412.00 12586.40 245.00
2886 150.2500 0.800941 12266.00 12376.50 245.00
2887 150.3000 0.800848 11631.00 12057.20 239.00
2888 150.3500 0.800756 10975.00 11643.10 232.00
2889 150.4000 0.800663 10331.00 11152.30 226.00
2890 150.4500 0.800571 9981.00 10605.90 223.00
2891 150.5000 0.800479 9168.00 10025.30 214.00
2892 150.5500 0.800387 8786.00 9431.68 210.00
2893 150.6000 0.800295 8084.00 8843.93 202.00
2894 150.6500 0.800204 7971.00 8278.12 201.00
2895 150.7000 0.800113 7519.00 7746.81 196.00
2896 150.7500 0.800021 7117.00 7258.66 191.00
2897 150.8000 0.799930 7171.00 6819.02 192.00
2898 150.8500 0.799840 7009.00 6429.56 190.00
2899 150.9000 0.799749 6540.00 6089.33 184.00
2900 150.9500 0.799658 6333.00 5795.26 182.00
2901 151.0000 0.799568 6155.00 5543.18 180.00
2902 151.0500 0.799478 5964.00 5327.95 177.00
2903 151.1000 0.799388 5772.00 5144.39 175.00
2904 151.1500 0.799298 5280.00 4987.60 168.00
2905 151.2000 0.799209 5138.00 4853.17 166.00
2906 151.2500 0.799119 4935.00 4737.50 163.00
2907 151.3000 0.799030 4686.00 4637.56 159.00
2908 151.3500 0.798941 4552.00 4551.13 157.00
2909 151.4000 0.798852 4409.00 4476.40 155.00
2910 151.4500 0.798763 4284.00 4412.08 153.00
2911 151.5000 0.798675 4036.00 4357.20 149.00
2912 151.5500 0.798586 3947.00 4310.93 148.00
2913 151.6000 0.798498 3866.00 4272.59 147.00
2914 151.6500 0.798410 3878.00 4241.47 147.00
2915 151.7000 0.798322 3777.00 4216.90 146.00
2916 151.7500 0.798234 3681.00 4198.22 144.00
2917 151.8000 0.798147 3733.00 4184.72 146.00
2918 151.8500 0.798059 3643.00 4175.74 144.00
loop_
_pd_proc_info_excluded_regions
'from 0 to 6.000'
loop_
_restr_angle_atom_site_label_1
_restr_angle_site_symmetry_1
_restr_angle_atom_site_label_2
_restr_angle_site_symmetry_2
_restr_angle_atom_site_label_3
_restr_angle_site_symmetry_3
_restr_angle_target
_restr_angle_target_weight_param
? ? ? ? ? ? ? ?
loop_
_restr_distance_atom_site_label_1
_restr_distance_site_symmetry_1
_restr_distance_atom_site_label_2
_restr_distance_site_symmetry_2
_restr_distance_target
_restr_distance_target_weight_param
? ? ? ? ? ?
loop_
_restr_equal_angle_atom_site_label_1
_restr_equal_angle_site_symmetry_1
_restr_equal_angle_atom_site_label_2
_restr_equal_angle_site_symmetry_2
_restr_equal_angle_atom_site_label_3
_restr_equal_angle_site_symmetry_3
_restr_equal_angle_class_class_id
_restr_equal_angle_class_target_weight_param
? ? ? ? ? ? ? ?
loop_
_restr_equal_distance_atom_site_label_1
_restr_equal_distance_site_symmetry_1
_restr_equal_distance_atom_site_label_2
_restr_equal_distance_site_symmetry_2
_restr_equal_distance_class_class_id
_restr_equal_distance_class_target_weight_param
? ? ? ? ? ?
loop_
_restr_equal_torsion_atom_site_label_1
_restr_equal_torsion_site_symmetry_1
_restr_equal_torsion_atom_site_label_2
_restr_equal_torsion_site_symmetry_2
_restr_equal_torsion_atom_site_label_3
_restr_equal_torsion_site_symmetry_3
_restr_equal_torsion_atom_site_label_4
_restr_equal_torsion_site_symmetry_4
_restr_equal_torsion_class_class_id
_restr_equal_torsion_class_target_weight_param
? ? ? ? ? ? ? ? ? ?
loop_
_restr_torsion_atom_site_label_1
_restr_torsion_site_symmetry_1
_restr_torsion_atom_site_label_2
_restr_torsion_site_symmetry_2
_restr_torsion_atom_site_label_3
_restr_torsion_site_symmetry_3
_restr_torsion_atom_site_label_4
_restr_torsion_site_symmetry_4
_restr_torsion_angle_target
_restr_torsion_weight_param
? ? ? ? ? ? ? ? ? ?
loop_
_jana_atom_site_adp_c_label
_jana_atom_site_adp_c_type_symbol
_jana_atom_site_adp_c_111
_jana_atom_site_adp_c_112
_jana_atom_site_adp_c_113
_jana_atom_site_adp_c_122
_jana_atom_site_adp_c_123
_jana_atom_site_adp_c_133
_jana_atom_site_adp_c_222
_jana_atom_site_adp_c_223
_jana_atom_site_adp_c_233
_jana_atom_site_adp_c_333
? ? ? ? ? ? ? ? ? ? ? ?
loop_
_jana_atom_site_adp_d_label
_jana_atom_site_adp_d_type_symbol
_jana_atom_site_adp_d_1111
_jana_atom_site_adp_d_1112
_jana_atom_site_adp_d_1113
_jana_atom_site_adp_d_1122
_jana_atom_site_adp_d_1123
_jana_atom_site_adp_d_1133
_jana_atom_site_adp_d_1222
_jana_atom_site_adp_d_1223
_jana_atom_site_adp_d_1233
_jana_atom_site_adp_d_1333
_jana_atom_site_adp_d_2222
_jana_atom_site_adp_d_2223
_jana_atom_site_adp_d_2233
_jana_atom_site_adp_d_2333
_jana_atom_site_adp_d_3333
? ? ? ? ? ? ? ? ? ? ? ? ? ? ? ? ?
loop_
_jana_atom_site_adp_e_label
_jana_atom_site_adp_e_type_symbol
_jana_atom_site_adp_e_11111
_jana_atom_site_adp_e_11112
_jana_atom_site_adp_e_11113
_jana_atom_site_adp_e_11122
_jana_atom_site_adp_e_11123
_jana_atom_site_adp_e_11133
_jana_atom_site_adp_e_11222
_jana_atom_site_adp_e_11223
_jana_atom_site_adp_e_11233
_jana_atom_site_adp_e_11333
_jana_atom_site_adp_e_12222
_jana_atom_site_adp_e_12223
_jana_atom_site_adp_e_12233
_jana_atom_site_adp_e_12333
_jana_atom_site_adp_e_13333
_jana_atom_site_adp_e_22222
_jana_atom_site_adp_e_22223
_jana_atom_site_adp_e_22233
_jana_atom_site_adp_e_22333
_jana_atom_site_adp_e_23333
_jana_atom_site_adp_e_33333
? ? ? ? ? ? ? ? ? ? ? ? ? ? ? ? ? ? ? ? ? ? ?
loop_
_jana_atom_site_adp_f_label
_jana_atom_site_adp_f_type_symbol
_jana_atom_site_adp_f_111111
_jana_atom_site_adp_f_111112
_jana_atom_site_adp_f_111113
_jana_atom_site_adp_f_111122
_jana_atom_site_adp_f_111123
_jana_atom_site_adp_f_111133
_jana_atom_site_adp_f_111222
_jana_atom_site_adp_f_111223
_jana_atom_site_adp_f_111233
_jana_atom_site_adp_f_111333
_jana_atom_site_adp_f_112222
_jana_atom_site_adp_f_112223
_jana_atom_site_adp_f_112233
_jana_atom_site_adp_f_112333
_jana_atom_site_adp_f_113333
_jana_atom_site_adp_f_122222
_jana_atom_site_adp_f_122223
_jana_atom_site_adp_f_122233
_jana_atom_site_adp_f_122333
_jana_atom_site_adp_f_123333
_jana_atom_site_adp_f_133333
_jana_atom_site_adp_f_222222
_jana_atom_site_adp_f_222223
_jana_atom_site_adp_f_222233
_jana_atom_site_adp_f_222333
_jana_atom_site_adp_f_223333
_jana_atom_site_adp_f_233333
_jana_atom_site_adp_f_333333
? ? ? ? ? ? ? ? ? ? ? ? ? ? ? ? ? ? ? ? ? ? ? ? ? ? ? ? ? ?
