#------------------------------------------------------------------------------
#$Date: 2021-09-06 14:11:36 +0300 (Mon, 06 Sep 2021) $
#$Revision: 268763 $
#$URL: file:///home/coder/svn-repositories/cod/cif/7/70/76/7707683.cif $
#------------------------------------------------------------------------------
#
# This file is available in the Crystallography Open Database (COD),
# http://www.crystallography.net/
#
# All data on this site have been placed in the public domain by the
# contributors.
#
data_7707683
loop_
_publ_author_name
'Vinogradova, Katerina A.'
'Shekhovtsov, Nikita A.'
'Berezin, Alexey S.'
'Sukhikh, Taisiya S.'
'Rogovoy, Maxim I.'
'Artem'ev, Alexander V.'
'Bushuev, Mark B.'
_publ_section_title
;
 Coordination-induced emission enhancement in copper(I) iodide
 coordination polymers supported by 2-(alkylsulfanyl)pyrimidines.
;
_journal_issue                   26
_journal_name_full
'Dalton transactions (Cambridge, England : 2003)'
_journal_page_first              9317
_journal_page_last               9330
_journal_paper_doi               10.1039/d1dt00826a
_journal_volume                  50
_journal_year                    2021
_chemical_formula_moiety         'C5 H6 Cu2 I2 N2 S'
_chemical_formula_sum            'C5 H6 Cu2 I2 N2 S'
_chemical_formula_weight         507.06
_space_group_crystal_system      triclinic
_space_group_IT_number           2
_space_group_name_Hall           '-P 1'
_space_group_name_H-M_alt        'P -1'
_atom_sites_solution_hydrogens   geom
_atom_sites_solution_primary     dual
_audit_creation_date             2020-07-14
_audit_creation_method
;
Olex2 1.2
(compiled 2018.05.29 svn.r3508 for OlexSys, GUI svn.r5506)
;
_audit_update_record
;
2020-07-18 deposited with the CCDC.	2021-06-16 downloaded from the CCDC.
;
_cell_angle_alpha                67.325(2)
_cell_angle_beta                 67.177(2)
_cell_angle_gamma                81.785(2)
_cell_formula_units_Z            2
_cell_length_a                   7.6410(4)
_cell_length_b                   8.5752(4)
_cell_length_c                   9.4222(5)
_cell_measurement_reflns_used    6068
_cell_measurement_temperature    150(2)
_cell_measurement_theta_max      27.21
_cell_measurement_theta_min      2.88
_cell_volume                     525.04(5)
_computing_molecular_graphics    'Olex2 (Dolomanov et al., 2009)'
_computing_publication_material  'Olex2 (Dolomanov et al., 2009)'
_computing_structure_refinement  'ShelXL (Sheldrick, 2015)'
_computing_structure_solution    'ShelXT (Sheldrick, 2015)'
_diffrn_ambient_temperature      150(2)
_diffrn_measured_fraction_theta_full 0.997
_diffrn_measured_fraction_theta_max 0.989
_diffrn_measurement_device_type  'Bruker APEX-II CCD'
_diffrn_measurement_method       '\f and \w scans'
_diffrn_radiation_type           MoK\a
_diffrn_radiation_wavelength     0.71073
_diffrn_reflns_av_R_equivalents  0.0283
_diffrn_reflns_av_unetI/netI     0.0280
_diffrn_reflns_Laue_measured_fraction_full 0.997
_diffrn_reflns_Laue_measured_fraction_max 0.989
_diffrn_reflns_limit_h_max       9
_diffrn_reflns_limit_h_min       -9
_diffrn_reflns_limit_k_max       10
_diffrn_reflns_limit_k_min       -9
_diffrn_reflns_limit_l_max       12
_diffrn_reflns_limit_l_min       -12
_diffrn_reflns_number            6767
_diffrn_reflns_point_group_measured_fraction_full 0.997
_diffrn_reflns_point_group_measured_fraction_max 0.989
_diffrn_reflns_theta_full        25.242
_diffrn_reflns_theta_max         27.210
_diffrn_reflns_theta_min         2.574
_diffrn_standards_number         0
_exptl_absorpt_coefficient_mu    10.076
_exptl_absorpt_correction_T_max  0.7455
_exptl_absorpt_correction_T_min  0.3573
_exptl_absorpt_correction_type   multi-scan
_exptl_absorpt_process_details
'SADABS-2012/1 (Bruker,2012) was used for absorption correction. wR2(int) was 0.1470 before and 0.0437 after correction. The Ratio of minimum to maximum transmission is 0.4793. The \l/2 correction factor is 0.0015.'
_exptl_crystal_colour            yellow
_exptl_crystal_colour_primary    yellow
_exptl_crystal_density_diffrn    3.207
_exptl_crystal_description       prism
_exptl_crystal_F_000             460
_exptl_crystal_preparation       Luminescent
_exptl_crystal_size_max          0.35
_exptl_crystal_size_mid          0.29
_exptl_crystal_size_min          0.1
_refine_diff_density_max         0.725
_refine_diff_density_min         -1.483
_refine_diff_density_rms         0.216
_refine_ls_extinction_method     none
_refine_ls_goodness_of_fit_ref   1.245
_refine_ls_hydrogen_treatment    constr
_refine_ls_matrix_type           full
_refine_ls_number_parameters     110
_refine_ls_number_reflns         2317
_refine_ls_number_restraints     0
_refine_ls_restrained_S_all      1.245
_refine_ls_R_factor_all          0.0221
_refine_ls_R_factor_gt           0.0215
_refine_ls_shift/su_max          0.001
_refine_ls_shift/su_mean         0.000
_refine_ls_structure_factor_coef Fsqd
_refine_ls_weighting_details
'w=1/[\s^2^(Fo^2^)+(0.0192P)^2^+0.6624P] where P=(Fo^2^+2Fc^2^)/3'
_refine_ls_weighting_scheme      calc
_refine_ls_wR_factor_gt          0.0538
_refine_ls_wR_factor_ref         0.0541
_reflns_Friedel_coverage         0.000
_reflns_number_gt                2260
_reflns_number_total             2317
_reflns_threshold_expression     'I > 2\s(I)'
_cod_data_source_file            d1dt00826a2.cif
_cod_data_source_block           mbb217
_cod_depositor_comments
'Adding full bibliography for 7707683--7707685.cif.'
_cod_database_code               7707683
_shelx_shelxl_version_number     2017/1
_shelx_space_group_comment
;
The symmetry employed for this shelxl refinement is uniquely defined
by the following loop, which should always be used as a source of
symmetry information in preference to the above space-group names.
They are only intended as comments.
;
_shelx_estimated_absorpt_t_max   0.432
_shelx_estimated_absorpt_t_min   0.126
_olex2_refinement_description
;
1. Fixed Uiso
 At 1.2 times of:
  All C(H) groups
 At 1.5 times of:
  All C(H,H,H) groups
2.a Aromatic/amide H refined with riding coordinates:
 C2(H2), C3(H3), C4(H4)
2.b Idealised Me refined as rotating group:
 C5(H5A,H5B,H5C)
;
_shelx_res_file
;
TITL mbb217_a.res in P-1
    mbb217.res
    created by SHELXL-2017/1 at 18:38:57 on 14-Jul-2020
REM Old TITL MBB217 in P-1
REM SHELXT solution in P-1
REM R1 0.183, Rweak 0.011, Alpha 0.024, Orientation as input
REM Formula found by SHELXT: C8 Cu3 I
CELL 0.71073 7.641 8.5752 9.4222 67.325 67.177 81.785
ZERR 2 0.0004 0.0004 0.0005 0.002 0.002 0.002
LATT 1
SFAC C H Cu I N S
UNIT 10 12 4 4 4 2

L.S. 6
PLAN  20
SIZE 0.35 0.29 0.1
TEMP -123(2)
list 4
fmap 2
ACTA
OMIT 0 0 1
OMIT 1 2 0
REM <olex2.extras>
REM <HklSrc "%.\\MBB217.hkl">
REM </olex2.extras>

WGHT    0.019200    0.662400
FVAR       0.43275
I1    4    0.480629    0.991755    0.266414    11.00000    0.00945    0.01562 =
         0.00851   -0.00610   -0.00234    0.00027
I2    4    0.944188    0.757185    0.468830    11.00000    0.01010    0.00984 =
         0.01041   -0.00467   -0.00440    0.00175
CU1   3    0.586880    0.847140    0.522916    11.00000    0.01242    0.01444 =
         0.01237   -0.00426   -0.00349   -0.00039
CU2   3    0.157405    0.925312    0.529611    11.00000    0.01315    0.01364 =
         0.00800   -0.00240   -0.00460    0.00044
S1    6    0.399744    0.597888    0.671542    11.00000    0.01047    0.01102 =
         0.00921   -0.00462   -0.00294    0.00140
N1    5    0.114812    0.788693    0.773175    11.00000    0.00772    0.01112 =
         0.01115   -0.00440   -0.00329    0.00033
N2    5    0.207516    0.575284    0.983036    11.00000    0.01238    0.01357 =
         0.00893   -0.00383   -0.00395    0.00038
C1    1    0.222008    0.658633    0.827875    11.00000    0.00812    0.01022 =
         0.00853   -0.00318   -0.00141   -0.00241
C2    1   -0.024032    0.837061    0.888862    11.00000    0.01053    0.01211 =
         0.01214   -0.00295   -0.00393    0.00018
AFIX  43
H2    2   -0.106123    0.926078    0.856231    11.00000   -1.20000
AFIX   0
C3    1   -0.049674    0.759155    1.055441    11.00000    0.01311    0.01763 =
         0.01010   -0.00717   -0.00196   -0.00190
AFIX  43
H3    2   -0.145208    0.794907    1.137228    11.00000   -1.20000
AFIX   0
C4    1    0.070362    0.627459    1.096099    11.00000    0.01563    0.01421 =
         0.00800   -0.00166   -0.00334   -0.00276
AFIX  43
H4    2    0.055197    0.571347    1.209017    11.00000   -1.20000
AFIX   0
C5    1    0.527624    0.444455    0.787074    11.00000    0.01593    0.01325 =
         0.01844   -0.00208   -0.00800    0.00533
AFIX 137
H5A   2    0.641793    0.410818    0.711001    11.00000   -1.50000
H5B   2    0.446578    0.345053    0.863543    11.00000   -1.50000
H5C   2    0.564294    0.493757    0.849732    11.00000   -1.50000
AFIX   0
HKLF 4




REM  mbb217_a.res in P-1
REM R1 =  0.0215 for    2260 Fo > 4sig(Fo)  and  0.0221 for all    2317 data
REM    110 parameters refined using      0 restraints

END

WGHT      0.0192      0.6704

REM Highest difference peak  0.725,  deepest hole -1.483,  1-sigma level  0.216
Q1    1   0.5000  1.0000  0.5000  10.50000  0.05    0.73
Q2    1   0.1104  0.6582  1.3211  11.00000  0.05    0.59
Q3    1  -0.1573  0.7262  1.2945  11.00000  0.05    0.57
Q4    1   0.5746  1.0594  0.3166  11.00000  0.05    0.56
Q5    1   0.7606  0.6281  0.5266  11.00000  0.05    0.55
Q6    1   0.9206  0.7212  0.3421  11.00000  0.05    0.55
Q7    1   1.0770  0.6193  0.4573  11.00000  0.05    0.53
Q8    1   0.6064  0.8615  0.2611  11.00000  0.05    0.52
Q9    1   0.7924  0.3635  0.7643  11.00000  0.05    0.52
Q10   1   0.8426  0.8083  0.3671  11.00000  0.05    0.52
Q11   1   0.3762  0.9413  0.3049  11.00000  0.05    0.52
Q12   1   0.2069  0.6761  0.6934  11.00000  0.05    0.52
Q13   1   0.3002  0.8197  0.3806  11.00000  0.05    0.52
Q14   1   0.5230  0.6637  0.6454  11.00000  0.05    0.50
Q15   1   0.8092  0.3545  0.5720  11.00000  0.05    0.49
Q16   1   0.6468  0.9781  0.4195  11.00000  0.05    0.48
Q17   1   0.4415  0.4955  0.5576  11.00000  0.05    0.48
Q18   1   0.6353  0.8764  0.6439  11.00000  0.05    0.48
Q19   1   0.5763  0.4547  0.5753  11.00000  0.05    0.47
Q20   1   1.0781  0.7486  0.2849  11.00000  0.05    0.47
;
_shelx_res_checksum              99906
_shelx_hkl_file
;
  -1   0   0   21.40    1.60
  -1   0   0   23.00    1.50
  -1   0   0   22.00    1.30
   1   0   0   21.60    1.60
  -2   0   0 5654.23  230.18
  -2   0   0 5490.65  214.08
  -2   0   0 5344.87  213.28
   2   0   0 5284.67  213.38
   2   0   0 5802.12  183.68
  -3   0   0 1163.08   46.40
  -3   0   0 1178.18   45.90
  -3   0   0 1218.38   39.50
   3   0   0 1172.08   45.80
   3   0   0 1177.18   39.40
  -4   0   0   70.49    4.40
  -4   0   0   81.69    4.10
  -4   0   0   68.09    3.60
  -4   0   0   64.29    5.70
   4   0   0   65.79    4.30
   4   0   0   76.29    3.60
  -5   0   0   16.20    1.80
  -5   0   0   12.50    1.60
  -5   0   0   16.20    3.10
   5   0   0   13.40    2.00
  -6   0   0    5.10    1.30
  -7   0   0  237.18   10.50
  -7   0   0  227.78   11.50
   7   0   0  228.58   12.30
  -8   0   0   75.69    5.40
   8   0   0   68.89    6.30
  -9   0   0  883.01   33.00
   9   0   0  858.11   38.50
   9  -1   0  248.48   14.70
  -9   1   0  247.38   12.20
   8  -1   0  304.07   16.30
  -8   1   0  320.77   13.80
   7  -1   0   81.19    6.30
  -7   1   0   83.89    5.30
  -7   1   0   83.19    5.60
   6  -1   0 2211.98   86.19
  -6   1   0 2165.08   73.99
  -6   1   0 2226.18   86.89
   5  -1   0  347.17   15.90
  -5   1   0  367.26   13.50
  -5   1   0  343.77   15.30
   4  -1   0 1974.70   63.59
   4  -1   0 1822.02   73.79
  -4   1   0 1964.30   73.89
  -4   1   0 1830.02   63.49
  -4   1   0 1954.00   74.79
   3  -1   0   17.00    1.90
   3  -1   0   15.50    1.50
  -3   1   0   19.40    1.90
  -3   1   0   19.60    1.60
  -3   1   0   18.10    1.70
   2  -1   0 1407.16   57.09
  -2   1   0 1447.96   57.29
  -2   1   0 1451.85   49.60
  -2   1   0 1394.66   55.39
   1  -1   0  625.44   25.40
   1  -1   0  633.74   21.60
  -1   1   0  638.94   25.30
  -1   1   0  610.44   21.30
   0  -1   0 2713.53  110.29
   0   1   0 2677.93  116.19
  -1  -1   0  865.21   35.00
  -1  -1   0  858.51   42.20
  -1  -1   0  891.51   34.50
  -1  -1   0  857.81   34.50
   1   1   0  877.91   35.00
   1   1   0  901.31   29.40
   1   1   0  920.01   34.50
   1   1   0  894.31   35.00
   1   1   0  886.01   34.50
  -2  -1   0 1175.48   46.60
  -2  -1   0 1160.88   45.80
  -2  -1   0 1154.58   40.60
  -2  -1   0 1204.18   45.80
   2   1   0 1196.68   40.40
   2   1   0 1169.98   45.90
   2   1   0 1179.78   46.00
   2   1   0 1169.58   47.00
  -3  -1   0 5427.46  230.58
  -3  -1   0 6345.67  230.58
  -3  -1   0 5961.30  199.38
  -3  -1   0 5552.64  232.88
   3   1   0 6020.10  230.28
   3   1   0 6100.19  197.28
  -4  -1   0  288.37   14.10
  -4  -1   0  280.17   10.90
  -4  -1   0  284.57   12.50
  -4  -1   0  292.17   12.90
  -4  -1   0  299.77   14.70
   4   1   0  294.37   10.80
   4   1   0  283.37   12.70
  -5  -1   0 2774.92   93.39
  -5  -1   0 2831.72  109.79
   5   1   0 2841.42  108.29
  -6  -1   0    2.70    1.10
  -6  -1   0    1.80    0.90
  -6  -1   0    1.70    1.40
   6   1   0    3.00    1.30
  -7  -1   0  113.89    6.80
  -7  -1   0  124.39    6.60
   7   1   0  112.39    7.60
  -8  -1   0   11.90    2.50
   8   1   0   11.40    2.80
  -9  -1   0   36.50    4.20
   8  -2   0  940.71   40.80
  -8   2   0  945.01   34.60
   7  -2   0   71.49    6.00
  -7   2   0   71.49    4.80
   6  -2   0 2724.93  106.09
  -6   2   0 2716.83  107.09
  -6   2   0 2735.13   91.19
   5  -2   0   31.70    3.20
  -5   2   0   27.70    2.90
  -5   2   0   35.60    2.80
  -5   2   0   31.40    2.50
   4  -2   0  193.28    9.40
  -4   2   0  187.28    8.90
  -4   2   0  197.58    7.90
  -4   2   0  195.48    9.20
   3  -2   0 1255.07   50.39
   3  -2   0 1281.37   43.30
  -3   2   0 1356.66   50.29
  -3   2   0 1335.67   43.40
  -3   2   0 1253.57   50.79
   2  -2   0 1249.47   50.29
  -2   2   0 1320.77   49.50
  -2   2   0 1289.07   44.70
   1  -2   0 3338.87  138.39
   1  -2   0 3757.72  120.29
  -1   2   0 3501.65  137.29
  -1   2   0 3601.64  119.49
   0  -2   0   17.90    0.90
   0   2   0   18.10    1.30
  -1  -2   0 5207.48  232.68
  -1  -2   0 5528.65  261.97
   1   2   0 5408.06  227.58
   1   2   0 5594.24  208.38
   1   2   0 5819.42  213.98
   1   2   0 5304.97  207.58
   1   2   0 4684.83  257.67
  -2  -2   0  941.51   36.60
  -2  -2   0  948.61   46.10
  -2  -2   0  873.71   37.10
   2   2   0  944.81   37.00
   2   2   0  951.30   31.50
   2   2   0  937.91   37.20
   2   2   0  930.01   36.20
   2   2   0  996.80   36.90
  -3  -2   0 5660.43  226.58
  -3  -2   0 5730.43  225.68
  -3  -2   0 5748.82  194.48
  -3  -2   0 5677.93  275.67
  -3  -2   0 6042.50  224.98
  -3  -2   0 5643.54  225.08
   3   2   0 5982.40  225.78
   3   2   0 5733.43  194.28
   3   2   0 5784.22  224.98
   3   2   0 5766.42  231.78
  -4  -2   0  407.26   19.10
  -4  -2   0  423.36   17.60
  -4  -2   0  444.06   19.70
  -4  -2   0  409.86   15.50
   4   2   0  421.46   17.80
   4   2   0  436.06   20.10
   4   2   0  433.56   15.30
  -5  -2   0 1261.27   50.29
  -5  -2   0 1222.48   52.49
  -5  -2   0 1291.97   43.40
   5   2   0 1285.97   50.09
  -6  -2   0  474.75   18.20
  -6  -2   0  494.65   20.50
  -6  -2   0  452.55   22.80
   6   2   0  483.05   21.00
  -7  -2   0  264.67   11.60
  -7  -2   0  251.17   12.40
   7   2   0  262.07   13.40
  -8  -2   0  392.66   16.60
   8   2   0  378.96   18.90
   8  -3   0    1.20    1.60
  -8   3   0   -0.50    1.30
   7  -3   0 1262.57   53.69
  -7   3   0 1341.37   45.80
   6  -3   0   46.90    4.50
  -6   3   0   44.90    3.40
  -6   3   0   42.40    3.60
   5  -3   0 1862.31   74.39
  -5   3   0 1863.91   74.79
  -5   3   0 1885.81   63.79
  -5   3   0 1967.20   73.99
   4  -3   0  228.08   11.20
  -4   3   0  241.38    9.50
  -4   3   0  233.78   10.90
  -4   3   0  243.28   10.70
   3  -3   0 4317.17  143.69
   3  -3   0 4102.99  165.38
  -3   3   0 4066.09  143.59
  -3   3   0 4138.29  163.38
  -3   3   0 4314.07  163.18
   2  -3   0  454.35   15.30
   2  -3   0  413.76   17.70
  -2   3   0  414.26   15.10
  -2   3   0  436.16   17.30
   1  -3   0 3541.35  119.19
  -1   3   0 3570.24  118.39
  -1   3   0 3381.86  135.09
   0  -3   0  191.98    6.60
   0   3   0  138.39   10.90
   0   3   0  158.98    7.20
   0   3   0  174.88    6.30
   1   3   0  136.49    9.90
   1   3   0  153.88    6.10
   1   3   0  153.08    6.20
  -2  -3   0 2010.30   83.29
  -2  -3   0 1837.12  100.59
   2   3   0 2211.98   82.29
   2   3   0 2049.09   83.19
   2   3   0 2295.27   70.29
   2   3   0 2194.68   84.19
   2   3   0 2096.29  101.49
   2   3   0 2223.48   82.69
  -3  -3   0    1.70    1.00
  -3  -3   0    3.10    0.90
  -3  -3   0    0.50    1.00
  -3  -3   0    0.70    0.30
  -3  -3   0    0.00    0.30
   3   3   0    1.40    0.70
   3   3   0    3.10    1.20
   3   3   0    2.00    0.60
   3   3   0    0.90    0.50
   3   3   0    0.40    0.50
  -4  -3   0 1456.75   63.69
  -4  -3   0 1676.43   78.89
  -4  -3   0 1639.24   62.59
   4   3   0 1609.94   62.09
   4   3   0 1623.54   64.09
   4   3   0 1615.94   53.69
  -5  -3   0  120.29    5.80
  -5  -3   0  100.49    6.90
   5   3   0  111.89    6.40
   5   3   0  120.69    8.70
  -6  -3   0 1651.53   72.59
  -6  -3   0 1853.41   70.49
   6   3   0 1842.62   70.29
   7   3   0    2.80    1.50
   8   3   0  521.45   24.20
   8  -4   0  195.58   12.70
  -8   4   0  182.08    9.70
   7  -4   0 1680.13   67.49
  -7   4   0 1611.84   56.99
   6  -4   0  178.48   10.60
  -6   4   0  175.38    8.40
   5  -4   0 1402.96   55.99
  -5   4   0 1338.27   55.39
  -5   4   0 1393.26   47.60
  -5   4   0 1417.36   54.99
   4  -4   0 2056.69   80.59
  -4   4   0 2092.39   80.99
  -4   4   0 2018.20   68.99
  -4   4   0 2091.99   79.79
   3  -4   0  450.05   21.10
  -3   4   0  547.75   20.60
  -3   4   0  507.25   17.90
  -3   4   0  495.55   20.40
   2  -4   0 1392.46   45.10
   2  -4   0 1263.27   52.59
  -2   4   0 1351.26   51.59
  -2   4   0 1361.26   45.00
   1  -4   0   18.50    1.60
  -1   4   0   17.80    1.40
  -1   4   0   21.10    1.60
   0   4   0 1242.68   38.70
   0   4   0 1202.88   44.80
   0   4   0 1006.90   58.29
   1   4   0  809.32   30.90
   1   4   0  805.32   30.70
   1   4   0  772.42   41.90
   1   4   0  792.52   31.80
  -2  -4   0 3069.79  119.59
  -2  -4   0 3138.99  144.79
   2   4   0 3019.30  117.89
   2   4   0 3047.60  119.09
   2   4   0 3026.30  119.79
   2   4   0 3046.50  118.49
   2   4   0 2956.20  145.49
  -3  -4   0   12.60    3.00
   3   4   0   11.70    1.50
   3   4   0   11.50    1.40
   3   4   0   12.50    2.40
   3   4   0   10.30    1.20
   3   4   0   10.40    1.30
   4   4   0  663.93   30.00
   4   4   0  701.93   24.70
   4   4   0  705.73   28.30
   4   4   0  727.03   29.50
  -5  -4   0 1373.46   51.89
  -5  -4   0 1252.37   50.89
   5   4   0 1297.37   54.09
   5   4   0 1278.87   51.29
  -6  -4   0  139.59    7.90
   6   4   0  134.09    7.90
   6   4   0  136.69   10.50
  -7  -4   0  500.85   22.00
   7   4   0  437.76   21.20
   8   4   0   19.60    3.50
  -7   5   0   70.19    5.20
   6  -5   0  482.35   23.10
  -6   5   0  478.25   18.80
   5  -5   0   76.59    6.10
  -5   5   0   73.99    5.20
  -5   5   0   74.09    4.80
  -5   5   0   68.79    4.50
   4  -5   0 3844.32  148.89
  -4   5   0 3758.12  130.49
  -4   5   0 3909.01  150.38
  -4   5   0 3931.01  149.99
   3  -5   0   22.40    2.90
  -3   5   0   21.10    2.00
  -3   5   0   24.00    1.90
  -3   5   0   21.30    2.00
   2  -5   0 3679.73  123.19
  -2   5   0 3586.94  125.19
  -2   5   0 3687.93  141.99
   1  -5   0 1282.27   51.19
  -1   5   0 1351.76   44.80
  -1   5   0 1369.36   51.99
   0   5   0 1444.26   45.50
   0   5   0 1391.46   52.29
   0   5   0 1368.06   52.19
   0   5   0 1199.98   68.89
   1   5   0  395.46   15.70
   1   5   0  397.96   17.50
   1   5   0  416.66   16.40
   1   5   0  412.76   25.10
   2   5   0  176.78    7.90
   2   5   0  174.48   13.30
   2   5   0  180.28    7.60
   2   5   0  175.88    7.60
   2   5   0  179.78    8.10
   3   5   0  153.68    7.40
   3   5   0  154.98    7.40
   3   5   0  157.38    7.90
   3   5   0  161.28    7.70
   3   5   0  166.18    7.50
   3   5   0  160.28   12.70
   3   5   0  179.98    9.30
   4   5   0  545.15   23.30
   4   5   0  540.45   22.30
   4   5   0  540.85   19.90
   4   5   0  539.45   24.50
   5   5   0 1098.09   46.20
   5   5   0 1075.39   43.30
   6   5   0  428.36   22.20
   6   5   0  399.66   18.50
   7   5   0  534.55   23.90
  -7   6   0   41.20    4.10
  -6   6   0  280.57   12.40
  -5   6   0   26.20    2.80
   4  -6   0 1061.29   46.70
  -4   6   0 1135.19   44.90
  -4   6   0 1148.79   38.90
   3  -6   0  612.44   29.50
  -3   6   0  698.63   24.30
  -3   6   0  723.23   27.30
  -3   6   0  667.23   27.40
   2  -6   0  381.06   15.90
  -2   6   0  353.96   15.20
  -2   6   0  372.86   14.00
  -2   6   0  374.56   15.20
  -1   6   0 4225.18  158.08
  -1   6   0 3982.60  140.49
   0   6   0   85.89    4.30
   0   6   0   91.29   10.10
   1   6   0 2173.28   74.49
   1   6   0 2212.38   86.09
   1   6   0 2411.26   85.79
   1   6   0 2227.18   86.79
   1   6   0 2191.78  111.99
   2   6   0   18.70    1.80
   2   6   0   15.10    1.60
   2   6   0   13.80    1.30
   2   6   0   11.50    4.20
   2   6   0   13.00    1.20
   2   6   0   16.70    2.50
   3   6   0  126.59    6.70
   3   6   0  125.89    6.50
   3   6   0  123.99    6.50
   3   6   0  124.59    6.00
   3   6   0  115.89    7.80
   3   6   0  125.39   11.60
   4   6   0   26.00    3.80
   4   6   0   31.70    3.10
   4   6   0   38.80    2.90
   5   6   0  147.99    7.70
   5   6   0  131.59    9.80
   6   6   0    8.20    2.00
   6   6   0    8.00    3.30
   7   6   0    6.40    2.10
   7   6   0    4.90    3.40
  -6   7   0   32.30    3.60
  -5   7   0  568.64   21.80
  -4   7   0   31.30    3.00
  -3   7   0  376.46   15.90
  -3   7   0  364.76   14.50
  -2   7   0   15.00    1.40
  -2   7   0   10.50    1.30
  -2   7   0   12.30    1.90
  -1   7   0 2074.49   67.79
  -1   7   0 1740.13  102.79
  -1   7   0 2245.08   77.59
  -1   7   0 2004.10   78.19
   0   7   0  150.18    6.70
   0   7   0  139.89   14.20
   1   7   0 1803.32   89.09
   1   7   0 1664.13   66.99
   1   7   0 1638.44   57.09
   2   7   0 1637.44   81.69
   2   7   0 1526.75   52.89
   2   7   0 1579.34   59.39
   2   7   0 1508.05   60.29
   2   7   0 1566.54   62.29
   2   7   0 1542.55   61.59
   3   7   0    2.20    1.70
   3   7   0    1.70    2.80
   3   7   0    1.70    1.00
   4   7   0 1218.38   47.80
   4   7   0 1212.28   51.09
   4   7   0 1229.08   49.70
   5   7   0  265.97   15.60
   5   7   0  263.37   12.40
   6   7   0   51.49    6.80
   6   7   0   56.49    4.60
  -5   8   0  518.35   20.50
  -4   8   0   51.09    4.10
  -3   8   0    1.60    1.10
  -3   8   0    3.70    1.10
  -2   8   0 1033.50   40.20
  -2   8   0 1049.59   35.50
  -2   8   0  937.81   58.19
  -1   8   0    1.40    0.90
  -1   8   0    2.40    3.00
  -1   8   0    1.30    0.50
   0   8   0  750.22   30.30
   0   8   0  779.82   46.80
   0   8   0  788.82   27.50
   1   8   0   60.49    3.80
   1   8   0   62.39    3.90
   1   8   0   59.99    9.50
   1   8   0   59.49    5.30
   2   8   0 1022.80   37.00
   2   8   0 1074.39   44.50
   2   8   0 1102.29   59.89
   2   8   0 1062.49   42.90
   3   8   0   38.20    3.30
   3   8   0   36.90    2.50
   3   8   0   37.50    7.50
   3   8   0   32.20    4.40
   4   8   0  687.83   27.50
   4   8   0  665.53   31.30
   5   8   0   21.00    2.70
   5   8   0   26.60    5.60
  -4   9   0  667.23   25.30
  -3   9   0  110.79    6.30
  -2   9   0  636.24   22.60
  -2   9   0  607.04   25.20
  -2   9   0  549.05   39.60
  -1   9   0  158.88    7.60
  -1   9   0  158.08   17.20
   0   9   0  104.39    7.60
   0   9   0  101.69    5.60
   0   9   0  115.29   14.00
   1   9   0  320.17   25.40
   1   9   0  328.67   16.60
   1   9   0  312.37   12.90
   2   9   0   10.60    5.20
   2   9   0   14.00    3.40
   3   9   0  832.22   48.40
   3   9   0  754.42   35.30
   4   9   0  150.78   11.40
  -1  10   0  250.97   23.30
   0  10   0   54.99    5.70
   0  10   0   61.09   13.20
   1  10   0  661.03   30.50
   1  10   0  675.43   44.10
   3   9  -1  493.15   32.60
   3   9  -1  484.25   24.60
   2   9  -1  140.69   14.80
   2   9  -1  150.38   10.30
   1   9  -1   66.79    4.80
   1   9  -1   75.79   10.80
   1   9  -1   79.69    6.80
   0   9  -1  102.99    7.60
   0   9  -1  114.79   13.80
   0   9  -1   98.39    6.00
  -1   9  -1  365.96   15.30
  -1   9  -1  379.56   18.50
  -1   9  -1  392.56   29.00
  -2   9  -1  265.27   23.20
  -2   9  -1  266.27   11.80
  -3   9  -1  517.65   38.00
  -3   9  -1  593.04   21.90
   4   8  -1 1166.88   47.30
   4   8  -1 1233.88   51.99
   3   8  -1    3.40    2.20
   3   8  -1    1.80    2.70
   2   8  -1  589.54   35.50
   2   8  -1  574.44   26.10
   2   8  -1  533.85   21.60
   1   8  -1    2.40    1.70
   1   8  -1    6.70    1.70
   1   8  -1    3.50    3.10
   0   8  -1  223.78   10.20
   0   8  -1  243.38   20.00
   0   8  -1  235.58   12.50
  -1   8  -1  155.18   15.70
  -1   8  -1  153.58    7.60
  -2   8  -1  102.49    5.80
  -2   8  -1  101.19   12.60
  -3   8  -1   22.00    2.20
  -3   8  -1   31.70    3.10
  -4   8  -1   63.99    4.70
  -5   8  -1  255.17   11.90
   5   7  -1   54.49    4.40
   5   7  -1   59.89    6.90
   4   7  -1  848.02   33.90
   4   7  -1  834.52   37.60
   3   7  -1    1.30    2.40
   3   7  -1    2.10    0.80
   3   7  -1    4.20    1.20
   3   7  -1   -0.60    1.20
   2   7  -1  719.13   40.40
   2   7  -1  688.93   30.30
   2   7  -1  680.93   28.00
   1   7  -1 1631.44   82.59
   1   7  -1 1602.54   54.19
   1   7  -1 1512.75   62.79
   0   7  -1    1.80    2.60
   0   7  -1    5.30    1.40
   0   7  -1    2.60    1.50
  -1   7  -1 1121.29   38.20
  -1   7  -1 1060.39   60.49
  -2   7  -1   44.20    3.40
  -3   7  -1   24.60    2.60
  -4   7  -1  825.72   29.80
  -4   7  -1  812.92   33.60
  -5   7  -1   25.90    3.10
  -6   7  -1  806.02   30.30
   6   6  -1    9.50    3.80
   6   6  -1    5.50    1.80
   5   6  -1  265.77   12.90
   5   6  -1  282.07   16.30
   4   6  -1   12.40    3.40
   4   6  -1    8.70    1.70
   3   6  -1  481.45   19.30
   3   6  -1  488.55   28.60
   3   6  -1  468.45   20.00
   3   6  -1  459.75   21.90
   3   6  -1  452.25   19.70
   2   6  -1    7.90    1.00
   2   6  -1   11.80    1.30
   2   6  -1   11.30    4.00
   2   6  -1    5.30    2.00
   2   6  -1    7.10    1.20
   2   6  -1    8.90    1.10
   1   6  -1 1966.60   94.89
   1   6  -1 1786.22   73.09
   0   6  -1  385.16   17.10
   0   6  -1  386.26   25.40
   0   6  -1  371.66   14.50
  -1   6  -1 1329.77   44.80
  -1   6  -1 1288.27   69.49
  -2   6  -1    7.60    0.90
  -2   6  -1    4.80    1.20
  -3   6  -1   90.19    4.60
  -3   6  -1   85.59    4.90
   3  -6   1   88.19    6.00
  -4   6  -1  247.48   10.60
  -5   6  -1  305.07   12.90
  -6   6  -1    0.70    1.00
  -7   6  -1  299.87   13.70
   7   5  -1 1220.28   50.19
   6   5  -1   87.19    6.10
   5   5  -1 1030.30   44.80
   5   5  -1 1016.40   41.30
   4   5  -1  109.49    6.20
   4   5  -1  109.99    8.10
   4   5  -1  116.59    6.30
   3   5  -1   12.20    1.50
   3   5  -1   11.80    1.60
   3   5  -1    5.90    2.00
   3   5  -1   12.20    1.50
   2   5  -1   42.70    3.90
   2   5  -1   41.00    5.60
   2   5  -1   46.10    2.70
   2   5  -1   42.60    2.50
   2   5  -1   41.40    2.50
   1   5  -1   68.39    4.50
   1   5  -1   46.50    6.40
   0   5  -1  200.08   15.00
   0   5  -1  187.78    8.10
   0   5  -1  204.78    9.70
  -1   5  -1  423.86   15.60
  -2   5  -1 1719.13   59.59
  -2   5  -1 1804.62   68.89
   2  -5   1 1808.42   68.49
  -3   5  -1  236.58    9.60
  -3   5  -1  245.78   10.20
   3  -5   1  212.48   11.10
  -4   5  -1 1730.93   64.09
  -4   5  -1 1628.64   56.09
   4  -5   1 1592.94   65.29
  -5   5  -1  746.43   27.90
  -5   5  -1  785.62   32.00
   5  -5   1  789.52   33.30
  -6   5  -1   32.00    3.30
  -7   5  -1  277.77   12.60
   7   4  -1  551.44   24.90
   6   4  -1   79.19    5.70
   5   4  -1  601.84   25.40
   5   4  -1  604.04   28.60
   4   4  -1  510.75   21.50
   4   4  -1  513.65   23.90
   4   4  -1  523.05   21.90
   3   4  -1  429.66   16.20
   3   4  -1  388.06   16.80
   3   4  -1  402.66   17.10
   3   4  -1  402.36   18.70
   3   4  -1  405.96   17.50
  -3  -4   1  414.86   22.80
   2   4  -1 2502.75   97.89
   2   4  -1 2440.96   96.89
   2   4  -1 2509.75   96.79
   2   4  -1 2440.96   95.99
   2   4  -1 2494.95  120.09
  -2  -4   1 2598.24  119.29
  -2  -4   1 2478.65  119.39
   1   4  -1 1734.73   69.79
   1   4  -1 1867.71   88.39
   0   4  -1  447.06   25.90
  -1   4  -1  103.99    4.20
  -1   4  -1  101.29    4.70
  -2   4  -1    1.60    0.60
  -2   4  -1    1.50    0.80
   2  -4   1    1.50    0.80
   2  -4   1    4.90    1.20
  -3   4  -1   21.90    2.00
  -3   4  -1   18.40    1.70
  -4   4  -1   95.49    5.20
  -4   4  -1   80.69    4.60
   4  -4   1   94.19    5.70
  -5   4  -1   32.60    2.90
  -5   4  -1   30.00    2.70
  -5   4  -1   33.60    3.10
   5  -4   1   31.80    3.50
  -6   4  -1  320.17   13.70
   6  -4   1  354.26   16.80
  -7   4  -1  385.36   15.90
   7  -4   1  381.36   19.30
  -8   4  -1  856.51   32.00
   8   3  -1 1151.38   48.40
   7   3  -1   20.70    3.20
   6   3  -1 2076.49   82.89
  -6  -3   1 2156.18   85.29
   5   3  -1  510.65   22.70
  -5  -3   1  558.54   23.60
  -5  -3   1  536.15   22.10
   4   3  -1 1348.57   55.89
   4   3  -1 1336.57   53.39
   4   3  -1 1367.16   54.39
  -4  -3   1 1429.56   67.39
  -4  -3   1 1401.26   54.29
  -4  -3   1 1309.17   53.39
   3   3  -1    5.30    1.80
   3   3  -1    3.80    0.90
   3   3  -1    3.50    0.90
  -3  -3   1    3.30    1.00
   2   3  -1  733.23   30.00
   2   3  -1  770.32   38.70
   2   3  -1  763.52   29.60
   2   3  -1  743.83   30.20
   2   3  -1  740.63   30.80
  -2  -3   1  793.12   31.20
  -2  -3   1  759.52   29.60
   1   3  -1  550.24   28.80
   1   3  -1  533.25   22.20
   1   3  -1  545.35   21.10
  -1  -3   1  554.84   21.10
   0   3  -1  509.25   28.10
   0   3  -1  526.55   20.90
  -1   3  -1  390.46   13.90
  -1   3  -1  399.66   14.90
   1  -3   1  396.36   14.80
   1  -3   1  364.66   15.20
  -2   3  -1 1505.65   49.30
  -2   3  -1 1519.65   58.09
   2  -3   1 1453.15   49.30
   2  -3   1 1422.66   56.99
  -3   3  -1 1096.99   37.70
  -3   3  -1 1135.29   43.20
   3  -3   1 1115.29   37.70
   3  -3   1 1098.49   43.50
  -4   3  -1   47.60    3.10
  -4   3  -1   51.59    3.50
   4  -3   1   56.69    3.90
  -5   3  -1  333.07   14.70
  -5   3  -1  331.57   14.80
  -5   3  -1  320.97   12.90
   5  -3   1  330.87   15.30
  -6   3  -1   47.10    3.80
  -6   3  -1   48.80    3.60
   6  -3   1   54.39    4.70
  -7   3  -1   50.59    4.00
   7  -3   1   47.90    4.90
  -8   3  -1  316.37   14.10
   8  -3   1  325.87   17.20
   8   2  -1  824.32   36.00
   7   2  -1   39.40    4.30
   6   2  -1  644.64   26.60
  -6  -2   1  628.04   25.80
  -6  -2   1  558.74   27.90
   5   2  -1  839.72   32.60
  -5  -2   1  838.12   32.20
  -5  -2   1  685.23   33.80
   4   2  -1   10.90    1.70
  -4  -2   1   14.10    2.80
  -4  -2   1   11.60    2.20
  -4  -2   1   10.90    1.40
   3   2  -1 3064.89  118.29
   3   2  -1 3062.29  117.69
   3   2  -1 3114.59  119.99
   3   2  -1 3187.78  103.89
  -3  -2   1 2984.10  118.39
  -3  -2   1 3197.28  121.89
  -3  -2   1 2840.22  118.79
  -3  -2   1 2940.21  146.79
   2   2  -1   80.59    4.10
   2   2  -1   82.79    4.10
   2   2  -1   75.39    5.00
   2   2  -1   89.89    4.30
  -2  -2   1   94.09    5.50
  -2  -2   1   86.99    5.90
  -2  -2   1   83.59    4.20
  -2  -2   1   83.59    3.70
  -2  -2   1   75.79    3.80
   1   2  -1 1126.19   54.49
   1   2  -1 1131.19   44.30
   1   2  -1 1138.99   43.70
   1   2  -1 1111.19   43.80
  -1  -2   1 1104.19   44.00
  -1  -2   1 1155.08   54.09
   0   2  -1  530.95   20.80
  -1   2  -1 1089.09   41.70
  -1   2  -1 1063.29   35.60
   1  -2   1 1045.00   41.80
  -2   2  -1 4143.19  134.49
  -2   2  -1 3825.42  151.98
   2  -2   1 3797.92  152.78
  -3   2  -1  169.48    7.60
   3  -2   1  162.18    7.70
  -4   2  -1  147.69    6.40
  -4   2  -1  150.08    7.40
   4  -2   1  148.99    7.60
  -5   2  -1 1702.83   55.89
  -5   2  -1 1631.94   65.39
  -5   2  -1 1696.03   64.59
   5  -2   1 1585.74   64.79
  -6   2  -1  152.18    6.80
  -6   2  -1  128.39    7.30
   6  -2   1  123.69    7.80
  -7   2  -1  330.67   13.90
   7  -2   1  349.77   16.90
  -8   2  -1   49.80    4.20
   8  -2   1   45.20    5.20
  -9   2  -1  158.88    9.10
   9  -2   1  166.18   11.20
   8   1  -1    0.40    1.60
  -8  -1   1    3.60    1.80
   7   1  -1  183.88   10.70
  -7  -1   1  181.08    9.80
  -7  -1   1  196.38    9.40
   6   1  -1    9.30    2.00
  -6  -1   1   10.50    1.90
  -6  -1   1   15.10    3.40
  -6  -1   1    9.70    1.80
   5   1  -1 2403.06   91.09
  -5  -1   1 2374.06   92.09
  -5  -1   1 2429.26   78.79
  -5  -1   1 2178.58   94.29
   4   1  -1   23.00    2.40
   4   1  -1   25.10    2.30
   4   1  -1   23.60    2.00
  -4  -1   1   24.80    2.20
  -4  -1   1   25.40    2.10
  -4  -1   1   25.10    3.00
   3   1  -1 3859.11  156.18
   3   1  -1 4269.77  161.18
   3   1  -1 4311.27  138.69
  -3  -1   1 4194.98  156.98
  -3  -1   1 4152.88  157.88
  -3  -1   1 3583.94  153.68
  -3  -1   1 4043.90  135.39
  -3  -1   1 3774.42  156.58
   2   1  -1  539.85   18.90
   2   1  -1  542.05   21.60
   2   1  -1  559.54   23.30
   2   1  -1  535.25   21.90
  -2  -1   1  540.85   21.70
   1   1  -1  264.57   11.60
   1   1  -1  259.57   10.80
  -1  -1   1  279.27   10.90
  -1  -1   1  255.07   10.80
  -1  -1   1  266.67   13.60
  -1  -1   1  275.17   11.70
  -1  -1   1  265.27   10.80
   0   1  -1 1228.48   51.19
   0   1  -1 1330.97   51.59
   0  -1   1 1297.67   50.89
   0  -1   1 1351.96   51.49
  -1   1  -1 1037.80   35.50
  -1   1  -1 1022.20   40.00
   1  -1   1  968.80   40.10
  -2   1  -1  101.89    4.40
  -2   1  -1  126.69    5.10
   2  -1   1  109.09    5.10
  -3   1  -1 1042.80   40.30
  -3   1  -1 1016.10   34.70
   3  -1   1 1045.20   34.80
   3  -1   1 1044.50   40.40
  -4   1  -1   30.60    2.50
  -4   1  -1   25.80    2.00
   4  -1   1   31.00    2.60
   4  -1   1   29.80    2.00
  -5   1  -1 2588.84   85.99
  -5   1  -1 2535.05  101.19
  -5   1  -1 2627.04   99.69
   5  -1   1 2610.54   99.79
  -6   1  -1  347.17   13.50
  -6   1  -1  347.37   15.60
   6  -1   1  343.77   16.10
  -7   1  -1  185.18    8.80
  -7   1  -1  197.18   10.10
  -7   1  -1  192.98   12.30
   7  -1   1  195.08   10.80
  -8   1  -1  241.28   11.10
   8  -1   1  229.18   13.10
  -9   1  -1   45.10    4.40
   9  -1   1   43.60    5.40
   8   0  -1    7.30    2.60
  -8   0   1    6.20    2.00
   7   0  -1  233.98   12.70
  -7   0   1  225.38   11.80
  -7   0   1  246.18   11.00
   6   0  -1   82.79    6.00
  -6   0   1   81.69    5.00
  -6   0   1   82.69    5.20
  -6   0   1   78.29    7.10
   5   0  -1   35.90    3.30
  -5   0   1   31.50    2.70
   4   0  -1   19.20    2.00
   4   0  -1   19.80    2.20
   4   0  -1   20.60    1.90
  -4   0   1   28.90    4.00
  -4   0   1   20.80    1.90
  -4   0   1   21.60    2.00
  -4   0   1   21.10    2.30
   3   0  -1   40.00    2.30
   3   0  -1   34.70    2.40
   3   0  -1   34.40    2.70
  -3   0   1   35.70    2.30
  -3   0   1   35.60    2.70
  -3   0   1   34.90    2.40
   2   0  -1 2184.88   86.19
   2   0  -1 2123.69   85.99
   2   0  -1 2229.88   75.59
  -2   0   1 2216.78   85.79
  -2   0   1 2213.88   76.09
   1   0  -1  470.95   18.50
   1   0  -1  480.55   18.40
  -1   0   1  486.35   15.90
  -1   0   1  428.46   18.40
   0   0  -1 4386.36  158.58
   0   0  -1 4079.89  159.18
   0   0   1 3634.74  157.98
   0   0   1 4174.78  158.58
  -1   0  -1    4.60    0.40
  -1   0  -1    2.80    0.40
   1   0   1    3.30    0.40
   1   0   1    3.60    0.70
   1   0   1    3.90    0.50
  -2   0  -1  257.77   10.30
  -2   0  -1  233.28    8.70
  -2   0  -1  237.78   10.70
   2   0   1  254.17    8.70
   2   0   1  250.57   10.30
  -3   0  -1    4.50    1.40
  -3   0  -1    4.20    1.00
  -3   0  -1    4.80    0.80
  -3   0  -1    7.80    2.00
   3   0   1    6.70    1.20
   3   0   1    7.10    0.90
  -4   0  -1 1157.08   48.70
  -4   0  -1 1232.98   48.10
  -4   0  -1 1216.38   40.80
  -4   0  -1 1227.78   47.60
  -4   0  -1 1244.08   49.60
   4   0   1 1201.98   47.50
  -5   0  -1  709.33   24.30
  -5   0  -1  717.93   28.50
  -5   0  -1  675.83   30.00
  -5   0  -1  692.13   30.30
   5   0   1  669.53   28.40
  -6   0  -1 1165.08   46.50
  -6   0  -1 1126.09   39.70
  -6   0  -1 1126.09   48.80
   6   0   1 1189.58   46.50
  -7   0  -1  444.36   17.00
  -7   0  -1  435.06   19.30
  -7   0  -1  411.66   21.90
   7   0   1  439.56   20.00
  -8   0  -1 1277.67   44.80
   8   0   1 1255.07   52.29
  -9   0  -1   87.79    6.30
   9   0   1   96.99    7.90
   8  -1  -1  292.37   15.50
  -8   1   1  260.37   12.70
   7  -1  -1   46.30    4.80
  -7   1   1   51.99    4.00
  -7   1   1   41.90    3.90
   6  -1  -1 1048.00   43.10
  -6   1   1 1077.39   42.80
  -6   1   1 1013.40   36.70
   5  -1  -1  903.91   37.00
  -5   1   1  902.91   31.60
  -5   1   1  901.21   36.80
   4  -1  -1  438.86   19.20
  -4   1   1  442.06   16.40
  -4   1   1  463.15   19.30
  -4   1   1  455.35   19.00
   3  -1  -1   12.30    1.60
   3  -1  -1   15.70    1.50
  -3   1   1   13.40    1.30
  -3   1   1   13.40    1.40
  -3   1   1   13.90    1.60
   2  -1  -1  185.18    8.60
   2  -1  -1  196.18    8.40
  -2   1   1  196.78    8.40
  -2   1   1  192.18    8.70
   1  -1  -1   12.50    1.80
   1  -1  -1    7.70    1.20
  -1   1   1    8.90    1.30
  -1   1   1    7.90    1.70
   0  -1  -1 2412.96   72.19
   0  -1  -1 1872.61   86.69
   0   1   1 2197.98   84.89
   0   1   1 1939.11   86.99
   0   1   1 2301.67   87.89
   0   1   1 2254.47  107.09
  -1  -1  -1  218.88    8.80
  -1  -1  -1  213.08    7.30
   1   1   1  219.48    8.90
   1   1   1  215.68    7.60
   1   1   1  224.38    8.90
   1   1   1  197.78    9.20
  -2  -1  -1 1343.07   52.69
  -2  -1  -1 1305.77   44.50
  -2  -1  -1 1188.28   52.19
   2   1   1 1353.46   53.29
   2   1   1 1327.17   52.89
   2   1   1 1329.17   51.59
   2   1   1 1331.17   44.90
  -3  -1  -1 2628.04   98.49
  -3  -1  -1 2358.66   85.29
  -3  -1  -1 2561.84   99.39
  -3  -1  -1 2514.95   97.09
   3   1   1 2517.25   83.39
   3   1   1 2438.06   97.19
   3   1   1 2323.97   96.69
  -4  -1  -1 2775.12  120.59
  -4  -1  -1 3189.38  119.29
  -4  -1  -1 3167.98  121.99
  -4  -1  -1 3195.68  117.89
  -4  -1  -1 2911.11  105.49
   4   1   1 3207.08  123.49
   4   1   1 3083.69  104.99
  -5  -1  -1   21.80    3.00
  -5  -1  -1   18.70    1.90
  -5  -1  -1   19.60    2.70
  -5  -1  -1   19.20    1.80
   5   1   1   19.30    2.20
  -6  -1  -1  843.82   29.20
  -6  -1  -1  806.42   33.80
   6   1   1  829.82   34.10
  -7  -1  -1  355.06   14.20
  -7  -1  -1  350.66   15.90
   7   1   1  340.97   16.60
  -8  -1  -1  214.58   11.40
  -8  -1  -1  225.78   10.50
   8   1   1  232.78   12.60
  -9  -1  -1  267.07   12.60
   9   1   1  265.37   15.00
   8  -2  -1 1159.28   49.30
  -8   2   1 1154.48   41.80
   7  -2  -1  103.69    7.70
  -7   2   1  112.89    6.40
   6  -2  -1 1619.64   65.49
  -6   2   1 1621.14   65.39
  -6   2   1 1664.83   56.09
   5  -2  -1   90.79    6.10
  -5   2   1  100.09    5.10
  -5   2   1   92.39    5.50
   4  -2  -1   20.90    2.40
  -4   2   1   21.60    2.30
  -4   2   1   21.80    2.10
  -4   2   1   19.60    1.80
   3  -2  -1  580.14   19.30
   3  -2  -1  560.44   22.90
  -3   2   1  554.74   22.70
  -3   2   1  512.75   22.40
   2  -2  -1 3874.91  153.18
  -2   2   1 3954.70  151.48
  -2   2   1 3681.93  147.99
  -2   2   1 3746.83  129.89
   1  -2  -1  683.73   22.60
   1  -2  -1  677.33   27.00
   1  -2  -1  687.93   26.50
  -1   2   1  687.33   26.70
  -1   2   1  675.33   22.60
  -1   2   1  652.43   26.60
   0  -2  -1  682.63   26.80
   0  -2  -1  721.03   26.50
   0  -2  -1  720.03   23.50
   0   2   1  688.23   23.60
   0   2   1  696.53   34.00
   0   2   1  676.93   26.60
   0   2   1  582.24   27.00
  -1  -2  -1   46.50    3.90
  -1  -2  -1   42.40    2.20
  -1  -2  -1   48.90    2.20
   1   2   1   41.30    3.80
   1   2   1   34.60    2.50
   1   2   1   39.40    2.20
   1   2   1   41.20    2.20
  -2  -2  -1  264.57   12.10
  -2  -2  -1  320.37   10.30
  -2  -2  -1  306.97   12.00
  -2  -2  -1  285.57   12.70
   2   2   1  292.87   12.10
   2   2   1  308.27   10.20
   2   2   1  298.27   12.50
   2   2   1  296.87   12.70
  -3  -2  -1  908.41   38.00
  -3  -2  -1  935.01   36.80
  -3  -2  -1  940.51   37.00
  -3  -2  -1  898.01   36.60
  -3  -2  -1  919.51   31.30
   3   2   1  945.81   37.80
   3   2   1  969.00   31.20
   3   2   1  967.10   36.60
   3   2   1  938.41   37.30
  -4  -2  -1  140.79    7.50
  -4  -2  -1  122.19    5.40
  -4  -2  -1  126.99    6.20
  -4  -2  -1  136.29    7.60
   4   2   1  127.79    6.60
   4   2   1  135.79    5.40
  -5  -2  -1   14.90    2.80
  -5  -2  -1   18.40    1.80
  -5  -2  -1   12.60    1.50
   5   2   1   14.90    1.50
   5   2   1   15.40    2.10
  -6  -2  -1   42.00    4.60
  -6  -2  -1   39.50    3.10
  -6  -2  -1   40.40    3.10
   6   2   1   45.20    3.80
  -7  -2  -1 2363.36   95.19
  -7  -2  -1 2449.16   81.49
   7   2   1 2439.46   94.59
  -8  -2  -1   33.30    3.40
   8   2   1   32.50    4.10
  -9  -2  -1 1234.08   44.80
   9   2   1 1241.48   51.99
   8  -3  -1   17.10    4.00
  -8   3   1   13.40    2.60
   7  -3  -1  870.61   37.70
  -7   3   1  856.41   31.60
   6  -3  -1  130.29    8.50
  -6   3   1  122.39    6.50
  -6   3   1  133.29    7.50
   5  -3  -1  343.87   16.50
  -5   3   1  351.56   15.60
  -5   3   1  349.07   13.60
   4  -3  -1  113.69    6.80
  -4   3   1  112.49    6.00
  -4   3   1  116.99    6.50
  -4   3   1  113.19    5.40
   3  -3  -1 1229.08   49.20
   3  -3  -1 1298.57   41.90
  -3   3   1 1239.28   48.70
  -3   3   1 1235.48   41.80
  -3   3   1 1215.98   49.10
   2  -3  -1 1660.23   66.09
   2  -3  -1 1672.23   56.39
  -2   3   1 1711.53   65.59
  -2   3   1 1737.23   66.39
  -2   3   1 1739.83   58.49
   1  -3  -1   33.70    1.80
   1  -3  -1   30.90    2.90
  -1   3   1   33.20    1.80
  -1   3   1   34.60    2.40
  -1   3   1   33.80    1.90
   0  -3  -1   41.30    2.00
   0  -3  -1   40.20    2.50
   0   3   1   40.60    1.90
   0   3   1   29.50    2.90
   0   3   1   48.00    5.00
   0   3   1   37.90    2.00
  -1  -3  -1 1787.62   64.99
   1   3   1 1661.13   64.59
   1   3   1 1669.43   65.19
   1   3   1 1617.14   64.29
   1   3   1 1517.85   79.69
  -2  -3  -1  554.04   31.40
  -2  -3  -1  614.04   23.80
  -2  -3  -1  652.33   24.10
   2   3   1  639.44   24.10
   2   3   1  626.14   24.00
   2   3   1  609.14   24.90
   2   3   1  524.35   31.60
   2   3   1  636.24   20.60
   2   3   1  625.74   24.60
  -3  -3  -1 1696.03   61.59
  -3  -3  -1 1557.44   77.59
  -3  -3  -1 1621.94   61.89
   3   3   1 1533.55   62.79
   3   3   1 1586.34   61.79
   3   3   1 1584.24   61.99
   3   3   1 1568.14   53.49
  -4  -3  -1  127.49    9.90
  -4  -3  -1  124.79    7.20
  -4  -3  -1  112.19    6.90
  -4  -3  -1  116.99    5.70
   4   3   1  119.99    5.10
   4   3   1  126.09    7.40
   4   3   1  121.29    6.80
   4   3   1  123.59    6.30
  -5  -3  -1  386.56   18.80
  -5  -3  -1  394.06   16.80
  -5  -3  -1  381.46   14.90
   5   3   1  437.56   19.90
   5   3   1  412.06   17.40
   5   3   1  391.96   14.50
  -6  -3  -1   33.70    2.70
  -6  -3  -1   34.00    2.90
  -6  -3  -1   31.20    4.00
   6   3   1   31.90    3.30
  -7  -3  -1  815.72   34.30
  -7  -3  -1  815.62   29.70
   7   3   1  817.02   34.30
  -8  -3  -1    1.60    1.20
   8   3   1    2.80    1.70
   8  -4  -1  149.59   11.10
  -8   4   1  149.49    8.60
   7  -4  -1 1184.58   49.30
  -7   4   1 1116.69   40.90
   6  -4  -1  177.78   10.90
  -6   4   1  179.58    8.60
   5  -4  -1  340.17   16.70
  -5   4   1  337.57   13.40
  -5   4   1  342.67   15.50
   4  -4  -1 2469.35   97.09
  -4   4   1 2417.06   82.79
  -4   4   1 2530.65   96.19
  -4   4   1 2552.54   97.59
   3  -4  -1   19.90    2.60
  -3   4   1   18.30    1.70
  -3   4   1   19.90    2.10
  -3   4   1   20.50    1.90
   2  -4  -1  299.67   10.50
   2  -4  -1  268.47   13.20
  -2   4   1  272.37   10.20
  -2   4   1  269.07   12.00
  -2   4   1  276.87   11.70
   1  -4  -1  416.36   19.50
  -1   4   1  466.45   18.10
  -1   4   1  472.65   18.40
  -1   4   1  448.36   15.60
   0  -4  -1   54.89    2.90
   0   4   1   50.19    6.00
   0   4   1   54.39    2.50
   0   4   1   49.80    3.60
   0   4   1   56.19    2.50
   1   4   1 4917.01  187.68
   1   4   1 4968.30  161.68
   1   4   1 4928.51  189.28
   1   4   1 4572.74  187.98
   2   4   1   28.30    2.60
   2   4   1   29.40    4.40
   2   4   1   33.00    2.20
   2   4   1   30.50    2.10
   2   4   1   33.70    2.50
  -3  -4  -1 1045.00   39.20
  -3  -4  -1 1009.70   50.79
   3   4   1 1019.20   38.80
   3   4   1  966.90   38.90
   3   4   1  970.60   40.00
   3   4   1  950.10   39.60
   3   4   1  984.10   33.30
  -4  -4  -1  302.67   12.50
  -4  -4  -1  301.77   13.50
   4   4   1  306.77   14.70
   4   4   1  312.17   11.30
   4   4   1  304.57   14.10
   4   4   1  306.57   13.30
  -5  -4  -1  172.38    8.20
  -5  -4  -1  208.68    9.90
   5   4   1  178.98    7.40
   5   4   1  169.58    8.90
   5   4   1  181.48   10.80
   5   4   1  184.08    9.90
  -6  -4  -1  266.47   11.90
  -6  -4  -1  257.27   13.70
   6   4   1  265.07   12.90
   6   4   1  280.27   15.70
  -7  -4  -1   89.49    7.10
   7   4   1   88.79    6.30
   8   4   1  341.67   17.10
   7  -5  -1   20.90    4.80
  -7   5   1   21.00    3.00
   6  -5  -1  465.75   22.40
  -6   5   1  430.56   17.50
   5  -5  -1  179.68   10.90
  -5   5   1  169.88    8.00
   4  -5  -1 1650.63   64.99
  -4   5   1 1578.54   63.69
  -4   5   1 1613.44   62.99
  -4   5   1 1585.24   54.39
   3  -5  -1  271.07   14.10
  -3   5   1  280.57   10.80
  -3   5   1  278.97   12.50
  -3   5   1  275.87   12.20
   2  -5  -1  419.76   14.60
   2  -5  -1  332.77   18.30
  -2   5   1  403.16   14.40
  -2   5   1  408.16   16.50
  -2   5   1  417.56   16.70
   1  -5  -1  131.79    5.50
   1  -5  -1  129.09    6.80
  -1   5   1  125.69    5.70
  -1   5   1  123.49    5.20
  -1   5   1  124.79    6.10
   0  -5  -1  318.27   12.50
   0   5   1  301.17   12.30
   0   5   1  307.37   11.00
   0   5   1  294.77   13.30
   1   5   1   15.60    4.40
   1   5   1   16.60    1.30
   1   5   1   16.70    1.90
   1   5   1   14.30    1.40
  -2  -5  -1  533.05   29.60
   2   5   1  510.65   22.00
   2   5   1  506.45   21.00
   2   5   1  517.15   20.70
   2   5   1  555.04   30.50
   2   5   1  516.15   22.00
   3   5   1  120.09    6.30
   3   5   1  120.29    7.00
   3   5   1  110.89   10.40
   3   5   1  118.49    5.20
   3   5   1  114.39    5.80
   3   5   1  118.79    6.10
   4   5   1 2484.05   95.79
   4   5   1 2614.24   82.79
   4   5   1 2442.66   97.19
   4   5   1 2413.36   96.19
   4   5   1 2549.54   98.49
   5   5   1   91.19    7.10
   5   5   1   92.99    6.20
   5   5   1   87.09    5.50
   5   5   1   92.39    4.50
  -6  -5  -1 1599.54   62.49
   6   5   1 1608.14   65.89
   6   5   1 1559.74   62.69
   7   5   1   31.80    6.40
   7   5   1   23.80    3.30
   8   5   1   69.89    6.00
  -7   6   1   36.60    3.90
  -6   6   1   10.40    2.10
   5  -6  -1   18.70    4.00
  -5   6   1   19.80    2.40
   4  -6  -1  264.87   14.60
  -4   6   1  242.08   10.40
  -4   6   1  248.58   11.80
   3  -6  -1  361.16   19.80
  -3   6   1  398.76   15.20
  -3   6   1  412.66   17.40
  -3   6   1  441.06   17.50
   2  -6  -1    9.30    2.20
  -2   6   1    7.00    1.30
   1  -6  -1 2312.77   92.09
  -1   6   1 2394.36   92.89
  -1   6   1 2380.16   91.59
  -1   6   1 2365.26   80.09
   0  -6  -1  849.12   31.80
   0   6   1  824.92   28.20
   0   6   1  800.42   32.50
   0   6   1  836.52   32.70
   1   6   1  435.56   16.70
   1   6   1  401.66   18.00
   1   6   1  380.16   26.40
   1   6   1  421.46   14.80
   1   6   1  437.46   17.30
   2   6   1  851.81   33.90
   2   6   1  877.31   35.10
   2   6   1  848.02   29.10
   2   6   1  833.82   35.10
   2   6   1  853.81   47.30
   2   6   1  859.31   33.20
   3   6   1  439.36   19.90
   3   6   1  439.76   18.00
   3   6   1  427.86   18.50
   3   6   1  461.95   16.30
   3   6   1  431.16   19.00
   3   6   1  438.16   27.70
   4   6   1  906.41   30.40
   4   6   1  885.71   35.00
   4   6   1  851.11   37.00
   4   6   1  832.72   35.50
   4   6   1  920.31   36.50
   5   6   1  318.87   16.60
   5   6   1  302.97   14.10
   5   6   1  317.37   15.50
   6   6   1  312.17   17.40
   6   6   1  306.37   14.60
   7   6   1  383.46   18.30
   7   6   1  399.26   22.20
  -6   7   1  243.58   11.40
  -5   7   1  422.16   16.90
  -4   7   1  255.37   10.90
  -3   7   1   23.50    2.40
  -3   7   1   32.90    2.70
   2  -7  -1  294.77   13.40
  -2   7   1  290.17   12.60
  -2   7   1  289.97   12.70
  -2   7   1  289.57   11.40
   1  -7  -1  232.28    9.60
  -1   7   1  231.38    9.90
  -1   7   1  223.78    9.00
  -1   7   1  219.78    9.90
   0   7   1  123.49    5.70
   0   7   1  123.59    5.40
   0   7   1  106.39   12.30
   0   7   1  121.59    5.80
   1   7   1    4.30    0.80
   1   7   1    3.90    0.90
   1   7   1    4.90    1.30
   1   7   1    5.80    1.20
   1   7   1    2.90    3.10
   2   7   1  403.26   17.40
   2   7   1  407.36   27.30
   2   7   1  390.16   14.50
   2   7   1  391.36   16.10
   2   7   1  403.16   18.10
   2   7   1  404.36   18.50
   3   7   1 1115.89   44.00
   3   7   1 1114.89   61.69
   3   7   1 1125.39   45.90
   3   7   1 1122.59   46.50
   3   7   1 1188.38   39.50
   4   7   1  167.38    8.30
   4   7   1  171.98   10.50
   4   7   1  176.18    9.30
   5   7   1  959.40   38.80
   5   7   1  972.40   42.00
   6   7   1  234.88   14.70
   6   7   1  229.88   11.60
   7   7   1  587.04   26.10
   7   7   1  603.94   31.00
  -5   8   1    8.60    2.10
  -4   8   1   13.20    2.20
  -3   8   1  458.95   17.50
  -2   8   1  146.89   16.40
  -2   8   1  192.88    8.20
  -2   8   1  193.78    8.90
  -1   8   1  216.58    8.70
  -1   8   1  176.18   17.90
  -1   8   1  217.18    9.50
   0   8   1  155.98    7.50
   0   8   1  160.38   15.90
   0   8   1  158.68    6.80
   0   8   1  156.28    6.80
   1   8   1   68.49    3.60
   1   8   1   65.09    3.20
   1   8   1   61.19    9.80
   1   8   1   58.49    4.40
   2   8   1  298.77   12.00
   2   8   1  315.77   13.00
   2   8   1  344.17   15.40
   2   8   1  316.57   15.90
   2   8   1  320.57   24.40
   3   8   1  616.54   38.10
   3   8   1  588.54   25.40
   3   8   1  602.84   27.00
   3   8   1  600.74   23.80
   3   8   1  566.84   21.20
   4   8   1   24.10    2.50
   4   8   1   29.30    4.20
   5   8   1  307.67   17.20
   5   8   1  293.37   13.70
   6   8   1  596.54   29.50
   6   8   1  563.64   24.80
  -4   9   1  426.56   17.20
  -3   9   1  644.24   23.90
  -2   9   1  189.68    8.20
  -2   9   1  147.29   17.00
  -1   9   1  649.04   26.40
  -1   9   1  572.54   41.10
  -1   9   1  656.23   22.90
   0   9   1  297.17   11.60
   0   9   1  300.07   25.00
   0   9   1  288.87   13.60
   1   9   1    0.20    1.30
   1   9   1   10.00    5.30
   1   9   1    3.50    1.70
   1   9   1    2.60    1.00
   2   9   1  433.76   30.90
   2   9   1  410.96   19.10
   2   9   1  402.46   20.20
   3   9   1   18.50    1.80
   3   9   1   28.60    4.30
   3   9   1   21.30    6.90
   4   9   1   81.19    4.80
   4   9   1   86.79    7.70
  -2  10   1   68.39   12.10
  -2  10   1   92.99    5.60
  -1  10   1    9.20    5.60
   0  10   1  569.64   40.60
   1  10   1  138.29    9.70
   1  10   1  149.29   17.10
   2  10   1  712.03   46.40
   2  10   1  707.73   32.30
   1   9  -2   49.00    8.40
   1   9  -2   35.70    4.00
   1   9  -2   45.80    5.30
   0   9  -2   23.60    4.30
   0   9  -2   21.00    3.00
   0   9  -2   27.10    7.60
  -1   9  -2 1224.48   44.00
  -1   9  -2 1221.58   68.69
  -1   9  -2 1243.08   50.79
  -2   9  -2   21.20    3.50
  -2   9  -2   28.20    8.50
  -2   9  -2   24.40    3.20
   3   8  -2  275.87   16.20
   2   8  -2  211.58   11.00
   2   8  -2  221.38   13.20
   2   8  -2  227.98   17.80
   1   8  -2  456.75   29.20
   1   8  -2  432.66   21.10
   1   8  -2  432.26   18.00
   0   8  -2   57.89    4.50
   0   8  -2   55.39    8.80
   0   8  -2   59.29    5.40
  -1   8  -2 1039.00   56.89
  -1   8  -2  956.20   40.60
  -1   8  -2  956.00   35.40
  -2   8  -2  135.29    7.50
  -2   8  -2  138.89   14.90
  -2   8  -2  147.19    8.70
  -3   8  -2  546.85   21.40
  -4   8  -2  697.63   26.50
  -5   8  -2   84.59    6.00
   5   7  -2  644.34   27.50
   5   7  -2  633.74   34.30
   4   7  -2   57.89    6.80
   4   7  -2   62.49    4.50
   3   7  -2  420.76   21.10
   3   7  -2  409.86   17.40
   2   7  -2   80.99    4.50
   2   7  -2   86.69    6.90
   2   7  -2   79.69    9.10
   1   7  -2   34.40    4.00
   1   7  -2   37.00    6.40
   1   7  -2   34.00    3.50
   0   7  -2  496.75   22.30
   0   7  -2  496.75   19.40
   0   7  -2  505.25   31.50
  -1   7  -2   32.60    3.10
  -1   7  -2   25.10    3.10
  -1   7  -2   29.10    7.30
  -2   7  -2  756.12   27.70
  -3   7  -2   85.49    5.40
  -4   7  -2 1392.96   48.70
  -5   7  -2   93.69    6.10
  -6   7  -2 1197.28   43.10
   5   6  -2   33.80    6.50
   5   6  -2   27.20    3.30
   4   6  -2  350.16   15.70
   4   6  -2  344.67   18.80
   3   6  -2   11.70    3.10
   3   6  -2    6.30    1.40
   2   6  -2  530.65   22.20
   2   6  -2  557.94   31.30
   2   6  -2  558.24   22.00
   2   6  -2  532.25   21.50
   2   6  -2  506.05   21.40
   2   6  -2  546.65   24.40
   1   6  -2  703.03   30.50
   1   6  -2  744.23   40.40
   0   6  -2 1493.15   58.29
   0   6  -2 1422.76   50.79
   0   6  -2 1514.95   76.19
  -1   6  -2   59.29    4.00
  -1   6  -2   56.99    8.00
  -1   6  -2   52.89    4.20
  -2   6  -2  220.48    9.70
  -3   6  -2 1202.18   45.80
  -3   6  -2 1174.98   41.50
  -4   6  -2  118.99    6.50
  -5   6  -2 1038.80   37.20
  -6   6  -2  112.49    6.70
  -7   6  -2  660.93   25.80
   6   5  -2  537.65   24.10
   5   5  -2   73.79    5.40
   5   5  -2   73.49    7.60
   4   5  -2 1017.50   40.80
   4   5  -2 1014.50   44.00
   3   5  -2  629.64   26.60
   3   5  -2  647.24   28.60
   3   5  -2  645.94   26.00
   2   5  -2  636.74   25.80
   2   5  -2  621.54   25.40
   2   5  -2  650.03   34.60
   2   5  -2  602.84   25.00
   2   5  -2  629.44   27.30
  -2  -5   2  634.84   24.70
   1   5  -2  991.60   41.40
   1   5  -2 1067.59   53.49
   0   5  -2  422.46   25.60
   0   5  -2  414.56   18.10
  -1   5  -2  427.46   18.00
  -1   5  -2  415.46   16.00
  -2   5  -2  232.28   10.10
  -2   5  -2  255.97    9.90
  -3   5  -2 1934.81   69.79
  -3   5  -2 1903.11   61.89
   3  -5   2 1888.01   69.39
   3  -5   2 1571.64   70.39
  -4   5  -2  481.65   19.30
  -4   5  -2  456.75   17.70
   4  -5   2  452.45   20.30
  -5   5  -2 1034.60   37.40
   5  -5   2 1082.39   44.50
  -6   5  -2  522.95   20.30
  -7   5  -2  265.27   12.30
   7   4  -2   44.60    5.00
   6   4  -2  236.68   12.50
   5   4  -2  115.39    7.20
   5   4  -2  124.89    7.50
   4   4  -2   52.69    5.70
   4   4  -2   56.49    4.20
   4   4  -2   60.29    4.30
   3   4  -2 3237.08  123.09
   3   4  -2 3079.19  121.49
   3   4  -2 3163.68  122.29
  -3  -4   2 3056.69  148.39
   2   4  -2   31.50    4.20
   2   4  -2   28.00    3.20
   2   4  -2   29.60    2.20
   2   4  -2   29.80    2.20
   2   4  -2   29.40    2.40
  -2  -4   2   33.70    2.30
   1   4  -2 3354.46  150.78
   1   4  -2 3074.59  124.49
   1   4  -2 3047.20  122.49
   0   4  -2  190.68    9.20
   0   4  -2  197.78   13.60
  -1   4  -2  543.75   19.70
  -2   4  -2  319.27   11.90
  -2   4  -2  294.67   11.50
   2  -4   2  270.47   12.00
  -3   4  -2  468.35   18.50
  -3   4  -2  455.85   17.00
   3  -4   2  458.55   19.00
   3  -4   2  455.65   18.30
  -4   4  -2  126.89    6.30
  -4   4  -2  133.39    6.50
   4  -4   2  125.49    7.00
  -5   4  -2  121.89    6.20
  -5   4  -2  115.69    6.50
   5  -4   2  109.69    7.00
  -6   4  -2 1240.08   44.70
   6  -4   2 1327.17   52.49
  -7   4  -2  113.79    7.00
   7  -4   2  146.19    9.70
  -8   4  -2 1251.07   44.90
   7   3  -2  276.07   14.70
   6   3  -2  265.77   14.30
  -6  -3   2  314.77   14.20
   5   3  -2   22.30    2.80
   5   3  -2   21.90    2.80
  -5  -3   2   25.70    2.50
   4   3  -2   83.79    5.20
   4   3  -2   74.99    5.00
  -4  -3   2   81.19    6.80
   3   3  -2 1219.38   50.09
   3   3  -2 1228.68   48.90
   3   3  -2 1195.58   47.80
  -3  -3   2 1246.78   59.69
   2   3  -2   11.60    1.40
   2   3  -2   13.10    1.50
   2   3  -2   13.10    2.50
  -2  -3   2   10.30    2.00
  -2  -3   2   13.60    1.50
   1   3  -2 3091.79  117.99
   1   3  -2 2942.51  120.59
   1   3  -2 2915.11  119.19
   1   3  -2 3129.59  145.89
   1   3  -2 3015.10  117.89
  -1  -3   2 3191.78  116.49
   0   3  -2 4764.02  186.68
   0   3  -2 4871.71  191.58
   0   3  -2 5026.00  243.18
  -1   3  -2   81.19    4.20
  -2   3  -2 7434.46  248.08
  -2   3  -2 7731.63  279.87
   2  -3   2 6738.13  279.27
  -3   3  -2   25.90    2.20
  -3   3  -2   31.50    2.10
   3  -3   2   28.80    2.20
   3  -3   2   26.60    2.10
  -4   3  -2 1001.10   39.30
  -4   3  -2 1000.40   34.50
   4  -3   2  998.20   39.70
  -5   3  -2    6.30    1.40
  -6   3  -2  199.38   10.20
  -6   3  -2  192.58    9.00
   6  -3   2  207.18   10.90
  -7   3  -2   -0.20    0.90
   7  -3   2    3.20    1.70
  -8   3  -2  205.58   10.30
   8  -3   2  221.88   12.90
   7   2  -2  297.67   15.50
   6   2  -2   47.20    4.50
  -6  -2   2   45.40    4.90
   5   2  -2   91.49    6.00
   5   2  -2   84.39    5.70
  -5  -2   2   78.59    6.20
  -5  -2   2  100.09    5.40
   4   2  -2 1508.95   59.59
   4   2  -2 1507.35   58.59
  -4  -2   2 1573.74   72.69
  -4  -2   2 1472.35   58.79
  -4  -2   2 1391.36   59.99
   3   2  -2   67.59    4.20
   3   2  -2   73.49    4.40
   3   2  -2   70.59    4.20
  -3  -2   2   72.39    3.80
  -3  -2   2   61.49    4.10
   2   2  -2 1600.74   63.69
   2   2  -2 1463.95   63.49
   2   2  -2 1720.03   55.39
   2   2  -2 1573.54   62.29
  -2  -2   2 1686.73   77.09
  -2  -2   2 1700.23   64.29
  -2  -2   2 1596.24   62.39
   1   2  -2  474.15   20.60
   1   2  -2  496.35   21.10
   1   2  -2  487.55   20.10
   1   2  -2  516.45   25.60
  -1  -2   2  557.84   21.50
   0   2  -2 3554.04  159.08
   0   2  -2 3205.78  128.39
   0   2  -2 3165.48  129.59
   0  -2   2 3235.78  126.69
  -1   2  -2  171.78    7.40
  -1   2  -2  166.88    7.10
   1  -2   2  170.28    7.20
   1  -2   2  181.68    7.00
  -2   2  -2 4906.71  181.48
  -2   2  -2 4707.63  159.88
   2  -2   2 4430.76  180.98
  -3   2  -2  889.91   30.40
  -3   2  -2  883.81   34.70
   3  -2   2  895.21   34.80
  -4   2  -2  324.17   12.20
  -4   2  -2  316.77   13.80
   4  -2   2  322.97   14.00
  -5   2  -2 2512.15   87.49
  -5   2  -2 2720.03  101.29
   5  -2   2 2669.83  101.59
  -6   2  -2   87.19    5.00
   6  -2   2   85.79    5.90
  -7   2  -2  867.01   31.60
  -7   2  -2  883.81   38.90
   7  -2   2  885.11   37.10
  -8   2  -2   14.40    2.70
   8  -2   2   14.30    3.10
  -9   2  -2  231.78   11.30
   9  -2   2  224.18   13.70
   8   1  -2  319.27   17.20
   7   1  -2  162.88   10.10
   6   1  -2  890.21   37.60
  -6  -1   2  901.31   37.10
   5   1  -2  205.48   10.50
   5   1  -2  203.68   10.30
  -5  -1   2  171.68   11.30
  -5  -1   2  213.08    9.80
   4   1  -2 1707.03   67.99
   4   1  -2 1792.02   69.19
  -4  -1   2 1729.63   68.69
   3   1  -2  882.61   28.40
   3   1  -2  848.02   32.30
   3   1  -2  805.82   32.60
  -3  -1   2  678.63   34.10
  -3  -1   2  751.72   33.50
  -3  -1   2  817.02   32.30
  -3  -1   2  831.82   32.50
   2   1  -2   30.00    2.30
   2   1  -2   30.70    2.40
  -2  -1   2   27.40    2.50
  -2  -1   2   36.50    2.30
  -2  -1   2   37.10    3.00
  -2  -1   2   27.10    3.30
  -2  -1   2   32.20    2.50
   1   1  -2  891.11   35.30
   1   1  -2  915.21   35.00
   1   1  -2  898.81   34.20
  -1  -1   2  878.21   34.50
  -1  -1   2  911.81   34.50
  -1  -1   2  724.43   33.90
  -1  -1   2  914.21   41.50
   0   1  -2    7.50    0.80
   0   1  -2    4.10    1.00
   0   1  -2    7.90    1.30
   0  -1   2    6.50    1.10
  -1   1  -2 4232.98  167.38
  -1   1  -2 4321.07  164.68
  -1   1  -2 4533.15  167.18
   1  -1   2 4378.06  166.58
   1  -1   2 4147.98  166.38
  -2   1  -2 1727.53   94.89
  -2   1  -2 1540.85   54.79
   2  -1   2 1638.94   65.69
   2  -1   2 1691.53   63.39
  -3   1  -2 6313.37  221.88
  -3   1  -2 6952.20  257.37
   3  -1   2 6590.44  258.07
   3  -1   2 6677.93  223.08
  -4   1  -2  149.59    7.30
  -4   1  -2  158.28    6.40
   4  -1   2  145.69    7.40
  -5   1  -2 5003.40  183.38
  -5   1  -2 4843.52  160.08
  -5   1  -2 4704.53  180.78
  -5   1  -2 3892.61  179.48
   5  -1   2 4693.13  184.18
  -6   1  -2   15.80    3.00
  -6   1  -2   22.90    3.30
  -6   1  -2   18.30    2.10
  -6   1  -2   15.30    2.10
   6  -1   2   14.10    2.50
  -7   1  -2  245.98   10.80
  -7   1  -2  262.17   14.40
  -7   1  -2  254.77   12.40
   7  -1   2  245.38   12.90
  -8   1  -2   85.59    5.70
   8  -1   2  100.09    7.30
  -9   1  -2   93.49    6.30
   9  -1   2   87.69    7.60
   8   0  -2  325.17   17.40
  -8   0   2  311.57   14.80
   7   0  -2  132.89    9.10
  -7   0   2  144.99    9.00
  -7   0   2  137.99    7.90
   6   0  -2  183.78   10.20
  -6   0   2  170.18    9.20
  -6   0   2  168.58    8.50
   5   0  -2  864.51   36.10
  -5   0   2  899.01   35.90
  -5   0   2  852.81   31.10
   4   0  -2  386.06   16.90
   4   0  -2  365.36   16.90
  -4   0   2  381.86   14.70
  -4   0   2  400.36   16.70
   3   0  -2 1806.72   73.29
   3   0  -2 1868.21   72.29
   3   0  -2 1912.61   62.49
  -3   0   2 1898.71   73.19
  -3   0   2 1916.11   72.59
  -3   0   2 1805.02   62.39
   2   0  -2    6.40    1.00
   2   0  -2    9.70    1.30
   2   0  -2    8.90    1.40
  -2   0   2    9.80    1.30
  -2   0   2   11.50    2.60
  -2   0   2    8.70    1.20
   1   0  -2 6155.18  233.28
   1   0  -2 5732.33  231.18
  -1   0   2 5904.11  231.58
   0   0  -2 1005.50   39.90
   0   0  -2 1027.20   40.20
   0   0   2  984.80   40.00
   0   0   2 1003.40   39.90
  -1   0  -2 4312.27  163.78
  -1   0  -2 4466.45  165.18
   1   0   2 4401.16  164.98
   1   0   2 4336.27  163.98
   1   0   2 3601.14  159.68
  -2   0  -2  783.12   26.00
  -2   0  -2  750.92   31.00
  -2   0  -2  751.52   30.10
  -2   0  -2  785.22   30.00
   2   0   2  759.12   30.20
   2   0   2  827.62   26.00
  -3   0  -2  298.87   12.30
  -3   0  -2  291.97   10.50
  -3   0  -2  298.97   13.10
  -3   0  -2  298.67   12.40
   3   0   2  281.27   12.40
   3   0   2  297.87   10.50
  -4   0  -2 2462.55   93.19
  -4   0  -2 2354.16   95.89
  -4   0  -2 2540.65   93.19
  -4   0  -2 2290.27   81.19
   4   0   2 2516.45   83.49
   4   0   2 2446.76   97.69
  -5   0  -2 1072.69   42.40
  -5   0  -2 1068.49   36.30
  -5   0  -2 1109.59   44.40
  -5   0  -2 1089.59   42.90
   5   0   2  989.40   36.20
   5   0   2 1071.69   42.50
  -6   0  -2 1581.04   61.19
  -6   0  -2 1541.15   51.89
  -6   0  -2 1526.15   60.99
  -6   0  -2 1486.25   62.89
   6   0   2 1511.45   60.39
  -7   0  -2   73.49    5.00
  -7   0  -2   69.49    4.50
  -7   0  -2   69.19    6.30
   7   0   2   69.09    5.40
  -8   0  -2 1911.21   66.09
   8   0   2 1950.60   77.19
  -9   0  -2  178.18    9.50
   9   0   2  184.18   11.50
   8  -1  -2    9.00    3.00
  -8   1   2   19.10    3.40
   7  -1  -2 1196.48   50.19
  -7   1   2 1216.98   43.00
  -7   1   2 1192.58   49.60
   6  -1  -2   23.40    3.30
  -6   1   2   25.70    2.80
   5  -1  -2 3441.36  131.69
  -5   1   2 3428.26  113.29
  -5   1   2 3363.06  133.29
   4  -1  -2  578.44   24.20
   4  -1  -2  581.94   24.60
  -4   1   2  585.54   24.30
  -4   1   2  570.64   20.90
   3  -1  -2 1775.32   70.59
   3  -1  -2 1773.52   69.79
  -3   1   2 1787.22   59.99
  -3   1   2 1861.71   69.99
  -3   1   2 1791.22   70.59
   2  -1  -2  252.87    9.70
   2  -1  -2  262.97   11.70
   2  -1  -2  252.87   11.30
  -2   1   2  270.37    9.80
  -2   1   2  262.37   11.30
  -2   1   2  268.07   11.80
   1  -1  -2  754.22   30.90
   1  -1  -2  781.92   26.10
   1  -1  -2  762.62   30.80
  -1   1   2  796.52   30.80
  -1   1   2  787.02   31.00
  -1   1   2  767.42   26.10
   0  -1  -2   23.20    1.90
   0  -1  -2   21.40    1.50
   0  -1  -2   15.40    2.20
   0   1   2   29.40    2.80
   0   1   2   23.00    1.90
  -1  -1  -2  151.48    7.20
  -1  -1  -2  140.79    8.60
  -1  -1  -2  157.28    6.70
   1   1   2  144.29    7.10
   1   1   2  155.88    6.70
  -2  -1  -2 2950.80   95.59
  -2  -1  -2 2950.70  112.09
  -2  -1  -2 2858.61  111.69
   2   1   2 2873.81   95.19
   2   1   2 2774.02  110.49
   2   1   2 2813.62  110.19
   2   1   2 2827.62  110.99
   2   1   2 2698.73  111.39
  -3  -1  -2  654.73   24.70
  -3  -1  -2  639.24   26.30
  -3  -1  -2  621.14   21.30
  -3  -1  -2  607.64   25.10
   3   1   2  666.53   26.30
   3   1   2  632.34   25.50
   3   1   2  590.74   21.20
   3   1   2  611.64   25.10
  -4  -1  -2 6038.90  233.48
  -4  -1  -2 6377.86  236.38
  -4  -1  -2 6083.19  202.38
  -4  -1  -2 5838.82  233.68
   4   1   2 5977.20  236.68
   4   1   2 5696.23  200.08
  -5  -1  -2  140.09    6.00
  -5  -1  -2  138.29    8.30
  -5  -1  -2  153.68    7.80
   5   1   2  131.39    7.20
   5   1   2  137.59    5.90
  -6  -1  -2 1587.64   62.89
  -6  -1  -2 1559.24   65.09
  -6  -1  -2 1595.14   53.49
   6   1   2 1588.04   62.39
  -7  -1  -2  821.02   36.70
  -7  -1  -2  791.12   29.20
  -7  -1  -2  827.72   34.10
   7   1   2  831.92   34.40
  -8  -1  -2  329.27   13.60
  -8  -1  -2  308.67   15.20
   8   1   2  319.57   16.10
  -9  -1  -2   21.60    3.30
   9   1   2   21.00    4.00
   8  -2  -2   32.20    5.00
  -8   2   2   35.40    4.00
   7  -2  -2  264.57   14.80
  -7   2   2  269.57   12.20
   6  -2  -2   25.10    3.60
  -6   2   2   30.00    2.90
   5  -2  -2  578.24   25.10
  -5   2   2  581.94   24.40
  -5   2   2  546.25   20.90
   4  -2  -2 1844.22   73.09
  -4   2   2 1873.81   62.59
  -4   2   2 1871.21   73.59
   3  -2  -2    4.10    1.30
   3  -2  -2    1.60    0.70
   3  -2  -2    0.60    0.60
  -3   2   2    1.10    0.70
  -3   2   2    0.90    0.70
  -3   2   2    1.50    0.90
   2  -2  -2 9683.63  318.97
   2  -2  -2 9372.86  373.76
  -2   2   2 9528.05  373.36
  -2   2   2 9346.76  319.57
  -2   2   2 9999.00  373.36
   1  -2  -2  492.65   16.20
   1  -2  -2  452.15   20.00
  -1   2   2  471.15   19.20
  -1   2   2  465.65   16.20
  -1   2   2  476.75   19.90
   0  -2  -2 4937.91  186.68
   0  -2  -2 5027.60  186.88
   0   2   2 4847.02  158.28
   0   2   2 4095.09  185.38
   0   2   2 4966.70  233.98
   0   2   2 4774.22  186.88
  -1  -2  -2  397.96   21.50
  -1  -2  -2  403.86   17.40
  -1  -2  -2  432.86   14.00
  -1  -2  -2  423.96   16.80
   1   2   2  406.66   21.40
   1   2   2  431.26   16.90
   1   2   2  400.46   17.70
  -2  -2  -2 3791.32  123.49
  -2  -2  -2 3813.42  146.79
   2   2   2 3481.85  137.89
   2   2   2 3715.03  146.49
   2   2   2 3705.73  146.49
   2   2   2 3906.91  146.79
  -3  -2  -2  354.16   12.20
   3   2   2  363.06   12.10
   3   2   2  363.86   14.80
   3   2   2  350.76   14.90
   3   2   2  353.56   15.50
   3   2   2  347.67   14.80
  -4  -2  -2  644.74   22.10
  -4  -2  -2  660.43   26.30
  -4  -2  -2  641.04   27.70
  -4  -2  -2  662.23   26.20
   4   2   2  619.54   26.10
   4   2   2  651.93   27.40
   4   2   2  637.54   21.90
   4   2   2  657.03   27.10
  -5  -2  -2  435.06   20.20
  -5  -2  -2  463.55   19.00
  -5  -2  -2  426.36   18.20
  -5  -2  -2  425.46   15.60
   5   2   2  439.06   15.40
   5   2   2  426.36   18.60
   5   2   2  417.66   20.30
  -6  -2  -2   76.59    4.80
  -6  -2  -2   83.99    4.40
   6   2   2   78.39    5.40
  -7  -2  -2 2283.77   75.69
  -7  -2  -2 2158.88   91.89
  -7  -2  -2 2260.37   88.89
   7   2   2 2294.87   88.19
  -8  -2  -2   17.50    2.50
  -8  -2  -2   18.80    2.60
   8   2   2   17.20    3.30
  -9  -2  -2 1128.29   40.80
   9   2   2 1127.69   47.70
   8  -3  -2  152.78   11.20
  -8   3   2  155.08    9.40
   7  -3  -2  184.28   11.70
  -7   3   2  184.38    9.30
   6  -3  -2  437.96   21.30
  -6   3   2  450.85   17.50
   5  -3  -2    4.40    1.70
  -5   3   2    3.80    1.30
  -5   3   2    5.80    1.40
   4  -3  -2 2401.06   91.39
  -4   3   2 2258.77   77.89
  -4   3   2 2354.76   91.89
   3  -3  -2   75.99    5.30
   3  -3  -2   76.29    3.90
  -3   3   2   77.69    5.00
  -3   3   2   78.89    4.50
  -3   3   2   74.69    3.80
   2  -3  -2 6055.29  235.88
   2  -3  -2 6143.19  204.48
   2  -3  -2 6173.48  245.38
  -2   3   2 5832.72  272.27
  -2   3   2 6086.49  205.08
  -2   3   2 6128.19  237.68
   1  -3  -2 1051.79   34.50
   1  -3  -2  954.00   42.00
  -1   3   2 1080.39   41.40
  -1   3   2 1044.70   40.90
  -1   3   2 1051.49   34.50
   0  -3  -2  663.13   21.90
   0  -3  -2  661.93   25.60
   0  -3  -2  655.53   26.60
   0   3   2  585.84   27.10
   0   3   2  649.64   26.00
   0   3   2  642.94   33.40
   0   3   2  685.53   21.90
  -1  -3  -2 5578.94  210.28
  -1  -3  -2 5300.37  265.17
  -1  -3  -2 5592.54  210.08
   1   3   2 5361.36  262.77
   1   3   2 5257.97  211.08
   1   3   2 5334.27  211.98
   2   3   2  683.43   29.10
   2   3   2  716.53   28.00
   2   3   2  739.73   28.10
   2   3   2  736.73   23.70
   2   3   2  671.23   36.40
  -3  -3  -2 1285.07   43.90
  -3  -3  -2 1274.27   65.29
  -3  -3  -2 1210.28   52.79
  -3  -3  -2 1353.36   51.29
   3   3   2 1419.76   44.90
   3   3   2 1366.66   51.19
   3   3   2 1271.77   51.09
   3   3   2 1299.07   52.69
   3   3   2 1395.46   51.19
  -4  -3  -2   16.00    2.40
  -4  -3  -2   10.60    1.70
  -4  -3  -2    8.40    3.10
  -4  -3  -2   11.00    1.30
   4   3   2   11.90    2.00
   4   3   2   12.10    1.70
   4   3   2   14.10    2.20
   4   3   2   14.30    1.20
  -5  -3  -2  549.54   20.10
  -5  -3  -2  568.94   25.70
  -5  -3  -2  567.44   23.40
   5   3   2  606.04   25.30
   5   3   2  562.14   23.80
   5   3   2  572.24   19.80
   5   3   2  570.44   25.30
  -6  -3  -2   56.89    3.70
  -6  -3  -2   56.29    3.50
  -6  -3  -2   48.00    5.00
   6   3   2   52.49    5.60
   6   3   2   48.90    4.10
  -7  -3  -2 1137.99   38.90
  -7  -3  -2 1161.48   45.10
  -7  -3  -2  999.10   48.80
   7   3   2 1130.59   45.40
  -8  -3  -2   35.40    3.40
   8   3   2   31.70    4.00
  -9  -3  -2   73.99    5.50
   9   3   2   66.09    6.40
   7  -4  -2    8.30    2.80
  -7   4   2   12.50    2.50
   6  -4  -2   83.89    7.10
  -6   4   2   81.79    5.30
   5  -4  -2  324.27   16.00
  -5   4   2  307.77   14.40
  -5   4   2  290.47   12.30
   4  -4  -2   41.60    4.20
  -4   4   2   36.30    2.80
  -4   4   2   42.40    3.80
  -4   4   2   38.50    3.20
   3  -4  -2  490.65   21.80
  -3   4   2  491.55   20.80
  -3   4   2  486.65   20.40
  -3   4   2  464.15   17.30
   2  -4  -2  172.08    9.80
  -2   4   2  180.28    8.80
  -2   4   2  162.18    6.80
  -2   4   2  178.68    8.10
  -1   4   2 3199.38  122.19
  -1   4   2 3077.69  107.29
  -1   4   2 3201.88  122.49
   0  -4  -2  330.87   10.90
   0  -4  -2  314.17   13.60
   0   4   2  267.47   14.30
   0   4   2  325.67   10.70
   0   4   2  306.27   18.80
   0   4   2  307.37   13.00
  -1  -4  -2 8620.64  295.57
   1   4   2 7412.86  297.37
   1   4   2 7861.71  296.97
   1   4   2 7649.63  262.77
   1   4   2 6568.34  366.16
  -2  -4  -2  127.39    5.10
  -2  -4  -2  120.89    9.40
  -2  -4  -2  116.49    5.20
   2   4   2  136.99    6.10
   2   4   2  126.29    4.40
   2   4   2  118.29    6.00
   2   4   2  116.19    9.60
   2   4   2  129.49    7.00
  -3  -4  -2 4142.09  151.98
  -3  -4  -2 3802.82  184.58
  -3  -4  -2 3976.90  151.38
  -3  -4  -2 3799.22  151.98
   3   4   2 3657.73  154.28
   3   4   2 3959.70  152.58
   3   4   2 3914.41  154.28
   3   4   2 3992.70  129.49
   3   4   2 3770.12  151.38
  -4  -4  -2  803.42   31.10
  -4  -4  -2  702.13   32.50
   4   4   2  810.22   32.30
   4   4   2  827.72   26.30
   4   4   2  772.72   32.50
   4   4   2  772.72   31.50
   4   4   2  782.82   31.30
  -5  -4  -2   46.70    4.50
  -5  -4  -2   64.69    3.60
   5   4   2   58.89    4.70
   5   4   2   62.09    4.30
   5   4   2   57.39    5.10
   5   4   2   60.79    3.10
  -6  -4  -2  400.36   21.30
  -6  -4  -2  473.45   19.30
   6   4   2  467.15   20.10
   6   4   2  475.15   22.40
  -7  -4  -2  100.39    8.40
   7   4   2  115.49    7.20
   8   4   2   60.79    5.60
   7  -5  -2  271.17   16.60
  -7   5   2  270.17   12.50
   6  -5  -2   58.19    6.40
  -6   5   2   60.29    4.40
   5  -5  -2 1900.01   74.19
  -5   5   2 1736.13   61.59
   4  -5  -2  866.51   36.70
  -4   5   2  851.21   34.70
  -4   5   2  838.52   34.80
  -4   5   2  807.82   29.50
   3  -5  -2 1743.53   72.19
  -3   5   2 1844.72   70.29
  -3   5   2 1773.12   60.09
  -3   5   2 1820.82   70.89
   2  -5  -2  317.87   11.40
   2  -5  -2  264.57   15.30
  -2   5   2  302.87   13.60
  -2   5   2  297.17   11.10
  -2   5   2  307.87   13.10
   1  -5  -2  394.96   14.10
   1  -5  -2  429.56   18.50
  -1   5   2  419.76   17.40
  -1   5   2  375.36   16.50
  -1   5   2  368.16   13.90
   0  -5  -2 1823.52   69.09
   0  -5  -2 1902.21   60.79
   0   5   2 1770.62   69.89
   0   5   2 1679.63   70.29
   0   5   2 1778.52   61.39
  -1  -5  -2 1260.97   47.20
   1   5   2 1267.67   48.50
   1   5   2 1243.68   40.40
   1   5   2 1213.18   48.60
   1   5   2 1114.19   62.29
  -2  -5  -2 1945.11   89.39
   2   5   2 1532.75   88.49
   2   5   2 1921.21   71.29
   2   5   2 1615.04   71.59
   2   5   2 1904.51   69.49
   2   5   2 1862.71   60.29
   3   5   2  102.09    6.20
   3   5   2  103.89    9.90
   3   5   2  109.29    5.80
   3   5   2  107.69    6.30
   3   5   2  109.09    4.20
   3   5   2  103.79    5.50
  -4  -5  -2 2639.14  100.79
  -4  -5  -2 2563.34  100.59
   4   5   2 2674.93  100.19
   4   5   2 2706.33   85.89
   4   5   2 2552.54  100.79
   4   5   2 2588.04  102.89
   4   5   2 2555.14  100.39
  -5  -5  -2  172.08    8.40
  -5  -5  -2  165.38    7.40
   5   5   2  164.08    9.30
   5   5   2  175.28    6.70
   5   5   2  157.78    8.70
   5   5   2  168.58   10.00
   5   5   2  164.58    8.60
  -6  -5  -2 1012.50   41.40
   6   5   2  972.00   42.40
   6   5   2  978.50   40.20
  -7  -5  -2    7.50    2.40
   7   5   2    8.30    3.20
   7   5   2    4.20    1.70
   8   5   2    5.40    2.10
  -7   6   2  610.54   24.10
  -6   6   2  346.27   14.60
   5  -6  -2  712.33   32.70
  -5   6   2  669.63   25.30
   4  -6  -2  201.08   12.80
  -4   6   2  209.88   10.40
  -4   6   2  194.08    8.80
   3  -6  -2   95.49    8.20
  -3   6   2  101.59    6.10
  -3   6   2   99.99    5.70
  -3   6   2   98.19    5.00
   2  -6  -2  597.34   29.00
  -2   6   2  651.53   22.70
  -2   6   2  668.53   26.80
  -2   6   2  675.23   26.90
   1  -6  -2  982.90   33.80
   1  -6  -2 1018.80   40.30
  -1   6   2 1003.30   39.70
  -1   6   2  967.20   33.50
  -1   6   2  995.30   39.60
   0  -6  -2 2333.47   86.59
   0   6   2 2266.17   86.89
   0   6   2 1937.01  110.19
   0   6   2 2278.27   76.19
   0   6   2 2315.37   86.79
  -1  -6  -2   27.30    2.00
   1   6   2   25.70    3.10
   1   6   2   25.40    6.10
   1   6   2   27.50    1.60
   1   6   2   26.80    2.50
   2   6   2 1001.20   44.60
   2   6   2  926.31   56.79
   2   6   2 1163.88   43.10
   2   6   2 1141.49   35.80
   2   6   2 1148.59   42.20
   3   6   2 1271.67   41.60
   3   6   2 1294.77   48.80
   3   6   2 1284.07   50.89
   3   6   2 1263.37   50.09
   3   6   2 1164.08   65.39
   3   6   2 1222.88   49.30
   4   6   2 1459.95   58.99
   4   6   2 1538.85   58.59
   4   6   2 1479.45   59.99
   4   6   2 1533.95   49.80
   4   6   2 1495.95   60.59
   5   6   2  637.74   29.00
   5   6   2  654.33   28.60
   5   6   2  668.93   22.80
   5   6   2  662.73   27.20
   6   6   2  323.57   17.30
   6   6   2  313.27   14.90
   7   6   2  513.05   23.10
   7   6   2  520.35   26.40
   8   6   2  234.38   13.00
   8   6   2  240.58   16.50
  -6   7   2 1262.47   44.90
  -5   7   2    1.20    1.10
  -4   7   2 1075.69   37.70
   3  -7  -2   41.40    5.40
  -3   7   2   45.20    3.20
  -3   7   2   52.69    3.80
   2  -7  -2 1140.39   45.70
  -2   7   2 1061.09   37.40
  -2   7   2 1055.09   44.10
  -2   7   2 1133.09   43.70
   1  -7  -2   10.40    1.80
  -1   7   2   14.00    1.90
  -1   7   2   11.10    1.30
  -1   7   2   10.50    1.50
  -1   7   2    8.00    4.00
   0  -7  -2  701.53   27.60
   0   7   2  624.44   40.80
   0   7   2  704.23   23.80
   0   7   2  742.83   29.00
   0   7   2  695.13   28.50
   1   7   2  342.67   14.40
   1   7   2  349.07   15.60
   1   7   2  360.46   12.10
   1   7   2  330.87   16.40
   1   7   2  306.77   23.80
   2   7   2    6.80    3.50
   2   7   2    8.20    1.40
   2   7   2    8.70    1.00
   2   7   2    6.70    2.00
   3   7   2 1818.82   72.69
   3   7   2 1828.72   73.39
   3   7   2 1851.91   61.49
   3   7   2 1782.52   95.69
   3   7   2 1915.91   71.79
   3   7   2 1931.81   74.79
   3   7   2 1905.71   61.79
   4   7   2   80.09    6.40
   4   7   2   83.29    5.00
   4   7   2   88.59    5.90
   5   7   2  864.91   36.80
   5   7   2  820.72   34.10
   6   7   2   58.69    6.40
   6   7   2   59.99    4.70
   7   7   2  274.67   17.00
   7   7   2  268.67   13.80
  -5   8   2  181.98    9.00
  -4   8   2  385.16   15.40
  -3   8   2 1916.01   64.69
  -2   8   2   30.10    2.90
  -2   8   2   31.60    2.60
  -2   8   2   26.30    7.80
  -1   8   2 1063.39   34.50
  -1   8   2  903.61   56.79
  -1   8   2 1031.20   40.80
   0   8   2    5.10    1.40
   0   8   2    3.90    3.50
   0   8   2    7.10    1.20
   1   8   2  288.17   24.20
   1   8   2  328.87   11.80
   1   8   2  340.77   15.70
   1   8   2  322.07   13.70
   2   8   2  238.58   13.30
   2   8   2  237.98   20.50
   2   8   2  252.67   10.70
   2   8   2  239.48    9.00
   2   8   2  242.78   12.90
   3   8   2  418.46   30.60
   3   8   2  448.36   21.10
   3   8   2  462.25   20.70
   3   8   2  458.15   18.70
   3   8   2  451.85   15.80
   4   8   2    8.00    2.70
   4   8   2    3.00    1.10
   4   8   2    4.00    3.60
   5   8   2   87.49    5.60
   5   8   2   87.99    7.60
   6   8   2  939.71   38.90
   6   8   2  961.40   42.60
  -4   9   2    1.40    1.20
  -3   9   2 1351.46   43.50
  -3   9   2 1116.89   69.99
  -2   9   2    5.30    1.40
  -2   9   2    5.30    4.40
  -1   9   2  857.51   27.70
  -1   9   2  790.12   32.80
  -1   9   2  677.23   47.70
   0   9   2  738.73   24.60
   0   9   2  705.53   28.10
   0   9   2  747.93   30.20
   0   9   2  590.14   43.40
   1   9   2   34.30    4.10
   1   9   2   36.60    2.50
   1   9   2   37.80    2.60
   2   9   2  657.33   30.60
   2   9   2  682.63   30.10
   2   9   2  681.63   26.90
   2   9   2  689.73   44.10
   3   9   2    6.20    1.30
   3   9   2    9.40    5.40
   3   9   2    8.80    2.90
   4   9   2  157.18    8.00
   4   9   2  162.58   10.90
   4   9   2  173.28   17.40
   5   9   2   62.89    6.90
   5   9   2   64.79    4.60
  -2  10   2  428.36   33.00
  -1  10   2   75.49   12.20
   0  10   2 1409.96   81.19
   1  10   2   52.59   10.60
   2  10   2  803.72   51.59
   2  10   2  802.52   35.60
   3  10   2    4.30    4.40
   3  10   2   12.80    3.60
   2   8  -3   18.30    5.50
   2   8  -3   26.90    5.10
   1   8  -3   65.89    6.30
   1   8  -3   67.49    8.80
   1   8  -3   63.59    5.50
   0   8  -3   61.19    5.70
   0   8  -3   60.29    8.80
   0   8  -3   64.89    5.30
  -1   8  -3  577.94   23.40
  -1   8  -3  597.44   36.90
  -1   8  -3  598.74   26.30
  -2   8  -3  149.69    9.00
  -2   8  -3  150.28    8.50
  -2   8  -3  155.98   15.40
  -3   8  -3  106.59    7.10
  -3   8  -3  115.39    7.10
  -4   8  -3  541.35   21.90
   4   7  -3    5.40    3.40
   3   7  -3  288.77   16.80
   2   7  -3  168.48   13.60
   2   7  -3  163.68   10.90
   1   7  -3  107.49   10.60
   1   7  -3  101.89    7.60
   0   7  -3  979.90   37.20
   0   7  -3 1024.50   42.30
   0   7  -3 1062.69   55.89
  -1   7  -3  205.58   10.20
  -1   7  -3  217.68   17.40
  -1   7  -3  207.88   11.10
  -2   7  -3  364.66   24.80
  -2   7  -3  332.97   15.60
  -2   7  -3  310.37   14.20
  -3   7  -3    7.30    2.00
  -3   7  -3    6.70    1.90
  -4   7  -3  308.07   13.60
  -5   7  -3   89.29    6.10
  -6   7  -3   77.69    5.90
   5   6  -3  173.78   10.20
   4   6  -3  678.93   32.90
   4   6  -3  699.43   29.30
   3   6  -3   13.30    2.20
   3   6  -3   14.10    3.60
   2   6  -3  524.45   21.30
   2   6  -3  527.95   29.90
   2   6  -3  503.35   24.10
   1   6  -3  446.86   18.20
   1   6  -3  440.56   20.90
   1   6  -3  476.75   27.30
   0   6  -3  171.18    8.90
   0   6  -3  167.08    9.40
   0   6  -3  174.28   13.80
  -1   6  -3   95.59    6.10
  -1   6  -3   94.39    5.90
  -1   6  -3  102.59   10.40
  -2   6  -3    9.90    2.00
  -2   6  -3   11.30    2.20
  -3   6  -3  597.34   22.70
  -4   6  -3   47.80    4.00
  -5   6  -3  673.43   25.50
  -6   6  -3    1.30    1.30
  -7   6  -3  148.89    8.60
   5   5  -3    1.50    1.40
   4   5  -3  620.64   26.20
   4   5  -3  598.44   29.30
   3   5  -3  838.62   37.20
   3   5  -3  855.41   34.50
   2   5  -3  177.48   10.00
   2   5  -3  156.28   11.40
   2   5  -3  144.89    7.70
   2   5  -3  139.69    8.00
  -2  -5   3  158.48    7.00
   1   5  -3  609.44   32.70
   1   5  -3  618.94   24.20
   1   5  -3  550.94   25.60
   1   5  -3  620.04   23.60
   1   5  -3  576.14   23.60
   0   5  -3   58.89    6.70
   0   5  -3   53.49    4.30
  -1   5  -3  530.45   21.90
  -1   5  -3  510.75   19.90
  -2   5  -3 1067.49   41.70
  -2   5  -3 1046.30   37.20
  -3   5  -3  845.02   31.80
  -3   5  -3  762.02   29.10
   3  -5   3  823.12   31.80
  -4   5  -3  990.20   35.20
  -5   5  -3   53.09    4.10
  -6   5  -3    0.80    1.10
  -7   5  -3   82.69    5.80
   6   4  -3   71.09    6.10
   5   4  -3  600.34   26.30
   4   4  -3   56.09    4.70
   4   4  -3   56.39    4.50
   3   4  -3 3403.86  130.19
   3   4  -3 3216.28  129.19
   3   4  -3 3332.17  127.19
   2   4  -3   41.20    3.20
   2   4  -3   41.60    3.40
   2   4  -3   41.00    4.60
   2   4  -3   40.30    4.20
   1   4  -3 2312.87   91.59
   1   4  -3 2523.65   93.29
   1   4  -3 2329.17   92.39
   1   4  -3 2489.15  114.79
  -1  -4   3 2296.77   90.89
   0   4  -3   42.80    5.30
   0   4  -3   42.40    3.40
  -1   4  -3   43.90    3.40
  -1   4  -3   41.30    3.10
  -2   4  -3   20.90    2.20
  -2   4  -3   20.80    2.00
  -3   4  -3   71.39    3.90
  -3   4  -3   66.89    4.30
   3  -4   3   71.79    3.70
   3  -4   3   74.79    4.10
  -4   4  -3   94.59    5.10
  -4   4  -3   90.99    5.20
   4  -4   3   96.49    5.60
  -5   4  -3  458.05   19.10
  -5   4  -3  414.26   17.10
   5  -4   3  461.95   19.90
  -6   4  -3  701.33   26.40
   6  -4   3  727.93   30.90
  -7   4  -3  764.82   28.60
  -8   4  -3  382.66   16.50
   7   3  -3  589.24   28.20
   6   3  -3    5.40    2.50
   6   3  -3    4.40    2.00
   5   3  -3  243.98   12.90
   5   3  -3  238.28   12.50
   4   3  -3    1.20    1.00
   4   3  -3    7.30    1.80
  -4  -3   3    3.80    1.70
   3   3  -3  738.53   30.70
   3   3  -3  723.43   33.10
   3   3  -3  765.32   31.60
  -3  -3   3  774.72   37.70
   2   3  -3  127.69    6.80
   2   3  -3  130.19    7.20
   2   3  -3  139.59    8.40
   1   3  -3  415.76   19.60
   1   3  -3  469.55   23.90
   1   3  -3  494.65   19.20
   1   3  -3  426.56   18.80
  -1  -3   3  466.45   20.20
  -1  -3   3  438.36   18.20
   0   3  -3 3102.79  129.29
   0   3  -3 3673.03  166.68
   0   3  -3 3214.58  128.09
  -1   3  -3  171.28    7.30
  -1   3  -3  178.88    8.10
  -2   3  -3 3585.64  121.99
  -2   3  -3 3628.14  138.29
   2  -3   3 3607.64  137.59
   2  -3   3 3425.16  137.09
  -3   3  -3  373.46   15.10
  -3   3  -3  356.26   14.00
   3  -3   3  370.16   15.00
   3  -3   3  365.66   15.20
  -4   3  -3    3.90    1.10
  -4   3  -3    4.40    1.10
  -5   3  -3  326.87   13.40
  -5   3  -3  340.17   14.90
   5  -3   3  345.07   15.40
  -6   3  -3  156.78    7.80
  -6   3  -3  161.88    8.70
  -7   3  -3  667.53   31.00
  -7   3  -3  696.13   25.80
   7  -3   3  699.03   30.30
  -8   3  -3  102.99    6.50
   7   2  -3  293.17   15.90
   6   2  -3  170.78   10.90
   6   2  -3  209.48   11.40
   5   2  -3  286.17   14.50
   5   2  -3  271.47   14.20
  -5  -2   3  304.87   14.40
   4   2  -3 1242.58   50.99
   4   2  -3 1202.68   49.99
  -4  -2   3 1275.97   60.99
  -4  -2   3 1231.68   49.70
  -4  -2   3 1297.97   50.59
   3   2  -3  118.19    6.80
   3   2  -3  115.19    6.70
  -3  -2   3  127.39    6.00
  -3  -2   3  119.99    5.90
   2   2  -3  943.21   38.30
   2   2  -3  993.80   39.30
  -2  -2   3  971.00   46.40
  -2  -2   3  944.31   38.20
   1   2  -3   87.39    5.70
   1   2  -3   78.69    4.80
   1   2  -3   90.19    5.80
   1   2  -3   83.99    4.90
  -1  -2   3   90.29    5.80
  -1  -2   3   82.49    4.60
   0   2  -3 2901.11  115.19
   0   2  -3 2881.01  112.09
   0   2  -3 3013.20  144.49
   0   2  -3 2832.72  112.79
  -1   2  -3  209.58    8.60
  -1   2  -3  200.98    8.90
  -1   2  -3  208.98    9.10
   1  -2   3  220.98    8.80
  -2   2  -3 1432.86   56.39
  -2   2  -3 1477.35   49.30
   2  -2   3 1456.65   55.89
   2  -2   3 1478.15   55.89
  -3   2  -3    7.60    1.20
  -3   2  -3    7.50    1.40
   3  -2   3    6.20    1.20
   3  -2   3   10.70    1.30
  -4   2  -3 1001.30   34.00
  -4   2  -3  997.20   38.80
   4  -2   3  954.60   38.90
  -5   2  -3  442.16   16.50
  -5   2  -3  437.46   18.80
   5  -2   3  438.16   19.00
  -6   2  -3 1919.81   66.09
  -6   2  -3 1918.81   78.89
  -6   2  -3 2010.80   76.59
   6  -2   3 1976.30   76.89
  -7   2  -3    8.50    2.50
  -7   2  -3    8.50    1.80
   7  -2   3    9.70    2.30
  -8   2  -3  475.25   19.40
   8  -2   3  504.25   23.30
  -9   2  -3    5.00    1.80
   9  -2   3    7.50    2.80
   7   1  -3  170.78   11.00
   6   1  -3 1652.83   66.69
   5   1  -3   44.60    4.30
   5   1  -3   40.30    3.90
  -5  -1   3   39.40    4.60
  -5  -1   3   47.30    5.00
  -5  -1   3   43.40    3.60
   4   1  -3 1640.84   65.79
   4   1  -3 1711.43   66.89
  -4  -1   3 1665.43   66.09
  -4  -1   3 1532.05   67.59
  -4  -1   3 1781.92   80.39
   3   1  -3  181.58    8.90
   3   1  -3  173.88    8.90
  -3  -1   3  180.98   10.10
  -3  -1   3  177.58    8.30
  -3  -1   3  146.09    9.00
   2   1  -3  156.28    7.90
   2   1  -3  160.18    8.10
  -2  -1   3  158.18    9.60
  -2  -1   3  165.98    7.60
  -2  -1   3  166.68    8.70
  -2  -1   3  157.88    8.00
  -2  -1   3  133.79    7.70
   1   1  -3  815.02   34.40
   1   1  -3  864.91   33.90
  -1  -1   3  796.32   34.70
  -1  -1   3  926.71   33.50
  -1  -1   3  867.81   33.80
  -1  -1   3  796.32   33.50
   0   1  -3 1188.28   48.70
   0   1  -3 1198.98   48.90
   0   1  -3 1325.87   58.89
   0   1  -3 1232.18   49.30
   0  -1   3 1270.47   48.60
  -1   1  -3 1640.14   64.29
  -1   1  -3 1592.94   63.39
  -1   1  -3 1696.43   64.69
   1  -1   3 1680.43   63.29
  -2   1  -3  144.59    6.00
  -2   1  -3  133.89    6.40
  -2   1  -3  143.29    6.60
  -2   1  -3  146.89    5.70
   2  -1   3  142.89    6.50
  -3   1  -3 1760.82   60.19
  -3   1  -3 1771.12   70.99
  -3   1  -3 1855.31   69.39
   3  -1   3 1746.03   70.69
   3  -1   3 1841.72   69.29
   3  -1   3 1872.51   60.19
  -4   1  -3   28.10    2.10
  -4   1  -3   25.40    2.20
  -4   1  -3   24.50    2.50
   4  -1   3   25.40    2.00
   4  -1   3   23.50    2.30
   4  -1   3   27.10    2.20
  -5   1  -3 1412.86   51.99
  -5   1  -3 1242.78   44.70
  -5   1  -3 1312.67   51.59
  -5   1  -3 1340.57   53.59
   5  -1   3 1278.47   51.89
  -6   1  -3  491.15   18.20
  -6   1  -3  490.75   21.20
  -6   1  -3  485.55   22.40
   6  -1   3  482.25   21.30
  -7   1  -3  223.28   10.00
  -7   1  -3  230.58   12.50
  -7   1  -3  233.38   13.10
   7  -1   3  225.48   12.00
  -8   1  -3   65.59    4.70
   8  -1   3   70.59    6.00
  -9   1  -3 1278.87   46.50
   9  -1   3 1329.27   54.69
   7   0  -3  670.93   30.60
   6   0  -3  212.68   12.20
  -6   0   3  217.28   11.20
   5   0  -3  535.85   24.40
   5   0  -3  570.54   24.80
  -5   0   3  561.94   24.00
   4   0  -3  155.68    8.80
   4   0  -3  163.18    8.60
  -4   0   3  160.08    8.20
   3   0  -3  374.36   16.40
   3   0  -3  365.66   16.50
  -3   0   3  367.56   16.00
   2   0  -3  770.72   30.90
   2   0  -3  709.83   30.40
  -2   0   3  769.72   30.90
  -2   0   3  733.53   30.40
  -2   0   3  772.32   32.70
   1   0  -3 2461.55   99.59
   1   0  -3 2453.55   84.29
   1   0  -3 2466.75   97.39
  -1   0   3 2510.15   97.19
  -1   0   3 2446.26   96.39
  -1   0   3 2581.04   97.09
   0   0  -3 2471.85   97.09
   0   0  -3 2494.45  100.79
   0   0   3 2433.86   94.99
   0   0   3 2525.25   96.59
  -1   0  -3  805.42   30.80
  -1   0  -3  802.62   31.20
   1   0   3  710.13   30.50
   1   0   3  754.22   30.20
   1   0   3  788.32   31.00
  -2   0  -3    2.90    1.00
   2   0   3    3.40    1.10
   2   0   3    7.30    1.40
  -3   0  -3  182.68    7.10
  -3   0  -3  176.68    7.00
  -3   0  -3  174.48    8.60
  -3   0  -3  184.48    8.30
   3   0   3  178.48    8.20
   3   0   3  183.28    7.00
   3   0   3  162.38    8.00
  -4   0  -3  229.88    8.80
  -4   0  -3  234.28   11.00
  -4   0  -3  234.48    9.60
  -4   0  -3  217.98   10.30
   4   0   3  219.58    8.60
   4   0   3  218.48   10.30
  -5   0  -3  170.28    7.80
  -5   0  -3  155.88    6.80
  -5   0  -3  164.18    8.20
   5   0   3  156.18    8.20
   5   0   3  157.98    6.80
  -6   0  -3   43.20    4.30
  -6   0  -3   45.80    3.10
  -6   0  -3   45.40    3.60
   6   0   3   43.80    3.80
  -7   0  -3  777.92   34.80
  -7   0  -3  804.92   32.90
  -7   0  -3  779.52   28.10
   7   0   3  767.42   33.00
  -8   0  -3  107.99    6.10
   8   0   3  102.99    7.50
  -9   0  -3 1012.80   36.90
   9   0   3 1019.80   43.50
   7  -1  -3 1446.36   61.09
  -7   1   3 1507.15   52.59
   6  -1  -3   31.60    4.00
  -6   1   3   25.60    3.10
  -6   1   3   34.30    3.50
   5  -1  -3 3080.89  119.39
   5  -1  -3 2989.10  120.69
  -5   1   3 3156.68  120.59
  -5   1   3 3050.09  102.69
   4  -1  -3  528.25   22.90
   4  -1  -3  508.35   22.40
  -4   1   3  515.05   19.40
  -4   1   3  522.75   22.20
   3  -1  -3  865.41   36.00
   3  -1  -3  848.22   36.00
  -3   1   3  908.21   30.80
  -3   1   3  909.91   35.90
   2  -1  -3  606.44   25.50
   2  -1  -3  572.34   25.10
   2  -1  -3  627.44   21.70
  -2   1   3  611.54   25.10
  -2   1   3  632.94   25.80
  -2   1   3  583.14   21.50
   1  -1  -3    6.60    1.20
   1  -1  -3    2.00    1.20
  -1   1   3    2.90    1.60
   0  -1  -3  177.58    9.20
   0  -1  -3  182.28    8.70
   0   1   3  171.78    8.50
   0   1   3  177.08    9.00
  -1  -1  -3 2008.60   96.89
  -1  -1  -3 2059.49   79.29
  -1  -1  -3 1917.21   75.79
   1   1   3 1724.53   75.39
  -2  -1  -3  535.65   17.80
  -2  -1  -3  525.95   21.80
  -2  -1  -3  502.05   20.90
   2   1   3  513.95   21.70
   2   1   3  506.25   21.00
   2   1   3  549.05   21.00
  -3  -1  -3 4144.59  165.28
  -3  -1  -3 4269.07  142.39
  -3  -1  -3 4395.16  167.38
   3   1   3 4221.88  140.89
   3   1   3 4296.37  165.48
   3   1   3 4068.89  166.48
   3   1   3 4034.70  163.18
   3   1   3 4187.48  162.68
  -4  -1  -3 1178.88   44.30
  -4  -1  -3 1150.88   47.00
  -4  -1  -3 1133.79   38.70
  -4  -1  -3 1151.78   45.40
   4   1   3 1173.88   45.20
   4   1   3 1137.09   38.60
   4   1   3 1159.78   45.40
  -5  -1  -3   21.10    2.00
  -5  -1  -3   17.90    1.70
   5   1   3   20.20    1.60
   5   1   3   18.10    2.20
  -6  -1  -3   10.10    2.50
  -6  -1  -3   18.50    2.30
  -6  -1  -3   18.60    1.90
  -7  -1  -3   92.99    6.00
  -7  -1  -3   90.99    7.40
  -7  -1  -3  110.59    5.40
   7   1   3   90.19    6.40
  -8  -1  -3   26.00    3.30
   8   1   3   27.80    3.80
  -9  -1  -3   53.49    4.50
   9   1   3   63.69    6.00
   7  -2  -3  552.14   26.40
  -7   2   3  545.95   22.00
   6  -2  -3   80.69    6.80
  -6   2   3   83.99    5.90
  -6   2   3   89.19    5.60
   5  -2  -3  369.96   17.40
   5  -2  -3  379.66   18.40
  -5   2   3  398.66   17.60
  -5   2   3  376.86   15.20
   4  -2  -3 1607.94   66.19
   4  -2  -3 1678.63   66.39
  -4   2   3 1732.53   66.49
  -4   2   3 1646.04   56.49
   3  -2  -3   78.89    4.80
   3  -2  -3   86.59    5.80
  -3   2   3   80.39    4.30
  -3   2   3   88.19    5.90
   2  -2  -3 3070.89  131.19
   2  -2  -3 3175.48  123.89
  -2   2   3 2879.11  101.19
  -2   2   3 3053.49  119.69
  -2   2   3 3203.28  118.69
   1  -2  -3   89.09    4.90
   1  -2  -3   95.19    6.20
  -1   2   3   87.79    5.90
  -1   2   3   95.59    4.20
  -1   2   3   90.79    4.90
   0  -2  -3  536.25   18.20
   0  -2  -3  474.15   22.70
   0  -2  -3  540.45   22.10
   0   2   3  538.35   26.40
   0   2   3  564.14   23.60
   0   2   3  537.55   22.20
  -1  -2  -3   95.59    6.60
  -1  -2  -3   84.79    5.40
  -1  -2  -3   94.79    5.30
   1   2   3  109.79    6.60
   1   2   3   99.39    5.80
  -2  -2  -3   13.00    2.60
  -2  -2  -3   11.30    0.90
  -2  -2  -3   10.90    1.90
   2   2   3    9.20    1.50
   2   2   3   12.20    1.60
   2   2   3   10.90    1.80
  -3  -2  -3  848.12   28.30
  -3  -2  -3  866.21   35.20
  -3  -2  -3  893.61   33.90
   3   2   3  875.51   28.30
   3   2   3  825.32   33.10
   3   2   3  796.62   33.50
   3   2   3  854.11   34.90
   3   2   3  847.72   33.80
  -4  -2  -3  249.58   11.40
  -4  -2  -3  251.47    9.10
  -4  -2  -3  257.87   12.40
   4   2   3  237.38   11.20
   4   2   3  262.27   11.60
   4   2   3  236.08    9.00
   4   2   3  251.17   12.20
   4   2   3  243.28   11.10
  -5  -2  -3   24.60    2.20
  -5  -2  -3   22.90    1.80
   5   2   3   22.80    3.00
   5   2   3   21.50    2.40
   5   2   3   24.60    2.50
   5   2   3   21.00    1.60
  -6  -2  -3 2090.29   80.69
  -6  -2  -3 2132.49   69.79
   6   2   3 2045.80   81.39
  -7  -2  -3  447.56   22.20
  -7  -2  -3  438.66   19.60
  -7  -2  -3  447.06   16.80
   7   2   3  442.96   20.20
  -8  -2  -3  909.41   37.40
  -8  -2  -3  887.81   32.10
   8   2   3  882.01   37.80
  -9  -2  -3    4.20    1.60
   9   2   3    5.70    2.40
   7  -3  -3  196.38   12.60
  -7   3   3  179.48    9.60
   6  -3  -3  186.08   11.70
  -6   3   3  191.98    9.30
   5  -3  -3   13.00    3.00
  -5   3   3   14.40    2.30
  -5   3   3   13.60    2.20
   4  -3  -3 1174.78   48.30
  -4   3   3 1216.28   47.60
  -4   3   3 1125.09   40.30
   3  -3  -3    1.90    1.10
  -3   3   3    4.00    1.20
  -3   3   3    4.70    1.50
  -3   3   3    5.80    1.20
   2  -3  -3 3091.09  106.79
   2  -3  -3 3116.19  122.89
   2  -3  -3 3019.30  120.89
  -2   3   3 3130.69  107.69
  -2   3   3 3096.99  121.19
  -2   3   3 3216.48  120.19
   1  -3  -3 1370.46   55.49
   1  -3  -3 1323.67   53.69
  -1   3   3 1379.16   53.99
  -1   3   3 1311.37   54.59
  -1   3   3 1430.86   45.50
   0  -3  -3  141.09    7.00
   0  -3  -3  159.28    5.60
   0  -3  -3  137.09    8.30
   0   3   3  156.78    9.10
   0   3   3  145.89    7.30
   0   3   3  145.69    5.60
   0   3   3  150.98    9.80
  -1  -3  -3 2074.19   81.39
  -1  -3  -3 2111.39  101.29
  -1  -3  -3 2247.48   70.69
   1   3   3 1976.40   81.59
   1   3   3 2140.99  100.99
   1   3   3 2149.88   83.69
  -2  -3  -3 1865.31   94.09
  -2  -3  -3 1972.30   75.09
  -2  -3  -3 1810.52   77.39
   2   3   3 1856.31   77.59
   2   3   3 2066.09   94.39
   2   3   3 2017.20   77.19
   2   3   3 2123.79   77.09
  -3  -3  -3   59.99    4.50
  -3  -3  -3   59.49    2.40
   3   3   3   62.39    3.70
   3   3   3   61.29    3.90
   3   3   3   59.39    4.30
   3   3   3   66.19    2.50
   3   3   3   65.49    3.90
  -4  -3  -3 2017.40   68.39
  -4  -3  -3 2046.50   79.49
  -4  -3  -3 1760.92   97.09
  -4  -3  -3 2015.80   76.69
   4   3   3 1998.80   76.29
   4   3   3 2003.30   66.59
   4   3   3 1944.91   78.79
   4   3   3 1996.50   76.49
   4   3   3 2041.00   76.49
  -5  -3  -3  150.78    9.00
  -5  -3  -3  143.99    6.00
   5   3   3  140.89    7.60
   5   3   3  147.39    8.50
   5   3   3  140.19    7.60
   5   3   3  146.59    8.40
   5   3   3  145.79    5.80
  -6  -3  -3 1204.08   47.30
  -6  -3  -3 1179.88   50.09
  -6  -3  -3 1161.68   40.10
   6   3   3 1171.98   39.80
   6   3   3 1175.68   49.10
   6   3   3 1172.78   47.30
  -7  -3  -3    4.60    1.20
  -7  -3  -3    4.60    1.50
   7   3   3    5.80    2.00
  -8  -3  -3   74.89    4.80
  -8  -3  -3   74.49    5.20
   8   3   3   74.59    6.00
  -9  -3  -3  127.99    7.30
   9   3   3  126.19    9.10
   7  -4  -3   29.40    5.30
  -7   4   3   25.60    3.40
   6  -4  -3   95.09    8.10
  -6   4   3   94.09    5.80
   5  -4  -3  527.05   24.60
  -5   4   3  497.05   19.40
  -5   4   3  518.35   22.90
   4  -4  -3  163.18   10.10
  -4   4   3  167.68    8.80
  -4   4   3  159.88    7.50
   3  -4  -3  577.54   24.90
   3  -4  -3  598.24   27.00
  -3   4   3  637.64   26.40
  -3   4   3  608.74   21.60
  -3   4   3  604.74   25.50
   2  -4  -3   12.00    1.30
   2  -4  -3   13.90    3.00
   2  -4  -3   13.90    1.50
  -2   4   3   12.30    1.40
  -2   4   3   17.10    1.90
   1  -4  -3  719.63   28.60
   1  -4  -3  676.13   31.10
   1  -4  -3  727.43   24.40
  -1   4   3  696.33   29.10
  -1   4   3  734.63   30.50
  -1   4   3  738.13   24.40
   0  -4  -3  284.07    9.70
   0  -4  -3  268.97   11.60
   0  -4  -3  273.37   13.40
   0   4   3  285.47    9.80
   0   4   3  284.57   16.90
   0   4   3  266.37   14.10
   0   4   3  276.37   12.30
  -1  -4  -3 2727.53  145.89
  -1  -4  -3 2963.60  126.29
  -1  -4  -3 3226.28  101.59
  -1  -4  -3 3106.29  118.99
   1   4   3 3148.28  121.99
   1   4   3 3143.49  101.69
   1   4   3 3171.48  120.29
   1   4   3 3065.49  146.19
  -2  -4  -3  198.28   14.20
  -2  -4  -3  241.28   10.10
  -2  -4  -3  232.58   10.20
   2   4   3  237.48   14.80
   2   4   3  229.58   10.30
   2   4   3  189.68   11.10
   2   4   3  231.48   10.30
  -3  -4  -3   32.60    3.20
   3   4   3   35.80    3.00
   3   4   3   38.80    3.10
   3   4   3   39.80    3.10
   3   4   3   38.10    3.50
  -4  -4  -3  433.36   22.40
   4   4   3  497.75   21.50
   4   4   3  529.15   21.30
   4   4   3  522.75   22.40
   4   4   3  521.25   21.30
   4   4   3  537.95   17.10
  -5  -4  -3 2213.78   74.69
  -5  -4  -3 2321.87   88.29
  -5  -4  -3 2121.29   90.69
   5   4   3 2290.77   87.59
   5   4   3 2288.17   75.89
   5   4   3 2305.97   88.09
   5   4   3 2257.57   87.49
   5   4   3 2287.17   90.19
  -6  -4  -3   14.90    3.20
  -6  -4  -3   13.70    1.80
  -6  -4  -3   14.10    1.70
   6   4   3   17.40    3.20
   6   4   3   14.20    1.40
   6   4   3   14.60    2.30
  -7  -4  -3 1217.98   49.30
  -7  -4  -3 1243.88   42.40
  -7  -4  -3 1158.78   53.39
   7   4   3 1245.88   49.80
   7   4   3 1256.47   52.69
  -8  -4  -3  133.29    7.00
   8   4   3  125.19    8.40
  -9  -4  -3  844.82   32.00
   9   4   3  881.21   37.80
   7  -5  -3  429.36   23.30
  -7   5   3  414.26   17.70
   6  -5  -3  191.38   12.70
  -6   5   3  174.38    8.90
   5  -5  -3  653.03   30.10
  -5   5   3  622.24   23.60
   4  -5  -3  791.02   34.40
  -4   5   3  740.73   27.20
  -4   5   3  762.22   32.20
   3  -5  -3   25.10    4.00
  -3   5   3   26.60    3.20
  -3   5   3   29.60    2.30
  -3   5   3   27.40    2.70
   2  -5  -3   11.40    1.30
   2  -5  -3    6.80    2.40
  -2   5   3    7.20    1.80
  -2   5   3    6.10    1.30
  -2   5   3    8.70    1.20
   1  -5  -3   68.39    3.40
   1  -5  -3   72.69    3.40
   1  -5  -3   59.49    5.60
  -1   5   3   62.69    4.00
  -1   5   3   73.29    5.40
   0  -5  -3  838.42   32.30
   0  -5  -3  854.21   34.10
   0  -5  -3  877.21   27.80
   0   5   3  839.02   27.60
   0   5   3  819.42   43.90
   0   5   3  730.53   34.80
   0   5   3  798.12   33.50
  -1  -5  -3   13.40    1.70
   1   5   3   15.00    4.00
   1   5   3   13.40    0.80
   1   5   3    9.60    1.80
   1   5   3   10.40    2.10
  -2  -5  -3  395.16   15.60
   2   5   3  384.26   16.20
   2   5   3  319.07   17.20
   2   5   3  365.46   22.50
   2   5   3  374.46   15.80
  -3  -5  -3  193.98    8.10
  -3  -5  -3  194.68    8.50
   3   5   3  189.18    9.30
   3   5   3  199.28    9.20
   3   5   3  185.88    9.50
   3   5   3  185.78   14.30
   3   5   3  196.08   10.30
  -4  -5  -3  477.25   20.20
  -4  -5  -3  478.85   19.00
   4   5   3  475.65   19.90
   4   5   3  468.05   15.80
   4   5   3  462.55   20.50
   4   5   3  459.05   20.10
   4   5   3  469.45   21.10
  -5  -5  -3 2578.44   99.59
  -5  -5  -3 2448.56  101.79
   5   5   3 2592.44   99.69
   5   5   3 2523.25  101.79
   5   5   3 2708.23   84.09
   5   5   3 2610.24   98.99
   5   5   3 2478.95   99.09
  -6  -5  -3    1.30    0.70
  -6  -5  -3    1.60    1.30
   6   5   3    2.70    0.70
   6   5   3    5.20    1.90
   6   5   3    0.90    1.10
   6   5   3    0.90    1.40
  -7  -5  -3  592.84   28.80
   7   5   3  624.24   26.90
   7   5   3  635.04   29.60
   8   5   3  790.72   34.10
   6  -6  -3  330.77   20.00
  -6   6   3  293.17   13.40
   5  -6  -3  427.06   22.70
  -5   6   3  417.36   16.70
   4  -6  -3  104.19    9.00
  -4   6   3  104.99    5.60
   3  -6  -3   66.09    6.90
  -3   6   3   63.69    4.50
  -3   6   3   59.19    3.70
  -3   6   3   60.79    5.00
   2  -6  -3  861.81   40.10
  -2   6   3  879.51   31.40
  -2   6   3  996.70   38.20
  -2   6   3  933.91   37.60
   1  -6  -3 2771.92   92.49
   1  -6  -3 2633.14  106.09
  -1   6   3 2665.13   92.19
  -1   6   3 2836.62  105.49
  -1   6   3 2689.83  132.89
  -1   6   3 2654.73  105.89
   0  -6  -3  477.65   20.50
   0   6   3  476.15   20.40
   0   6   3  485.85   16.40
   0   6   3  480.15   29.10
   0   6   3  463.85   21.90
  -1  -6  -3  638.44   25.80
   1   6   3  652.53   36.90
   1   6   3  644.54   27.20
   1   6   3  612.54   28.00
   1   6   3  634.14   21.20
   2   6   3    8.50    3.30
   2   6   3    6.70    2.00
   2   6   3   14.70    2.10
   2   6   3    9.40    1.50
   3   6   3   50.09    3.80
   3   6   3   46.90    4.20
   3   6   3   51.29    3.60
   3   6   3   54.99    4.60
   3   6   3   43.70    6.80
   4   6   3   16.80    2.70
   4   6   3   24.60    1.20
   4   6   3   15.00    2.30
   4   6   3   23.50    2.50
   4   6   3   19.10    2.70
  -5  -6  -3  101.69    4.60
  -5  -6  -3  102.79    4.80
   5   6   3  113.19    7.50
   5   6   3  102.89    6.30
   5   6   3  107.89    7.10
   5   6   3  109.89    4.30
   5   6   3  101.09    6.60
  -6  -6  -3  186.48    9.30
   6   6   3  199.28   10.40
   6   6   3  200.88   11.90
  -7  -6  -3   41.00    3.90
   7   6   3   46.00    4.40
   7   6   3   43.10    5.70
   8   6   3 1228.58   50.59
   8   6   3 1219.18   54.49
  -6   7   3 1217.08   43.60
  -5   7   3   13.60    2.40
  -4   7   3  222.18    9.80
  -3   7   3   11.80    1.80
   2  -7  -3   14.60    3.50
  -2   7   3   15.10    1.70
  -2   7   3   17.20    2.60
  -2   7   3   15.40    2.10
   1  -7  -3  397.26   18.30
   1  -7  -3  392.36   14.40
  -1   7   3  386.36   17.20
  -1   7   3  373.76   14.00
  -1   7   3  417.96   18.10
  -1   7   3  361.66   25.70
   0   7   3   46.40    7.40
   0   7   3   54.49    4.80
   0   7   3   51.19    2.60
   1   7   3    8.60    0.80
   1   7   3    7.60    2.50
   1   7   3    5.50    3.50
   2   7   3 1433.56   44.40
   2   7   3 1400.26   53.09
   2   7   3 1461.55   55.09
   2   7   3 1314.07   71.89
   2   7   3 1156.88   56.09
   3   7   3  842.82   34.70
   3   7   3  865.11   33.40
   3   7   3  850.21   35.90
   3   7   3  831.32   34.30
   3   7   3  740.03   46.90
   4   7   3  704.53   23.80
   4   7   3  724.23   29.50
   4   7   3  703.83   31.00
   4   7   3  745.43   31.40
   4   7   3  718.03   31.00
   5   7   3   35.60    3.40
   5   7   3   31.80    4.10
   6   7   3  193.98   10.40
   6   7   3  202.78   12.40
   7   7   3   39.20    5.50
   7   7   3   36.20    4.10
  -5   8   3  135.19    7.40
  -4   8   3   13.20    2.30
  -3   8   3 1229.58   42.40
  -2   8   3  122.59   13.30
  -2   8   3  116.99    5.70
  -1   8   3  604.64   21.30
  -1   8   3  622.54   26.00
  -1   8   3  579.74   37.80
   0   8   3  362.16   26.90
   0   8   3  399.86   17.80
   0   8   3  388.16   13.80
   1   8   3   11.30    2.60
   1   8   3   13.60    5.40
   1   8   3    8.60    1.70
   1   8   3    8.00    1.00
   2   8   3 1101.49   41.70
   2   8   3 1120.09   34.80
   2   8   3  959.20   45.40
   2   8   3 1006.40   59.39
   3   8   3   28.40    3.70
   3   8   3   31.20    2.90
   3   8   3   41.30    7.80
   3   8   3   34.00    4.00
   4   8   3  473.45   19.70
   4   8   3  453.15   21.70
   4   8   3  441.46   31.50
   5   8   3  355.46   17.90
   5   8   3  328.77   15.50
   6   8   3  221.58   13.70
   6   8   3  213.18   11.20
   7   8   3  402.96   22.00
   7   8   3  397.26   18.80
  -4   9   3   64.69    4.70
  -3   9   3  734.83   26.00
  -3   9   3  687.93   44.90
  -2   9   3   64.19    3.90
  -2   9   3   55.79    9.80
  -1   9   3    5.20    1.30
  -1   9   3    2.50    3.20
   0   9   3   68.59    5.50
   0   9   3   57.39    3.20
   0   9   3   52.89    9.60
   1   9   3  573.54   26.80
   1   9   3  531.35   37.90
   1   9   3  593.94   23.70
   2   9   3   30.20    2.70
   2   9   3   14.70    5.90
   2   9   3   26.80    4.50
   3   9   3  675.53   29.90
   3   9   3  688.43   27.30
   3   9   3  629.94   43.10
   4   9   3    7.50    2.90
   4   9   3   20.10    7.70
   5   9   3  683.43   28.10
   5   9   3  655.33   31.00
   6   9   3   15.00    2.70
   6   9   3   17.50    4.60
  -2  10   3  173.48   18.70
  -1  10   3   18.40    7.10
   0  10   3  785.72   31.50
   0  10   3  754.02   49.99
   1  10   3  259.87   24.70
   1  10   3  301.47   12.90
   2  10   3  102.19   14.60
   2  10   3  114.09    8.50
   2  10   3  109.29    5.90
   3  10   3  157.48   18.30
   3  10   3  158.88    7.90
   3  10   3  153.58   10.50
   4  10   3  457.45   34.80
   4  10   3  434.46   22.60
   4  10   3  460.35   19.40
   0   8  -4  177.38   10.80
   0   8  -4  207.88   12.10
   0   8  -4  197.68   16.50
  -1   8  -4    1.90    2.60
  -1   8  -4    1.30    1.50
  -1   8  -4    2.60    1.80
  -2   8  -4   38.10    7.40
  -2   8  -4   31.70    4.10
  -2   8  -4   31.00    4.10
  -3   8  -4   45.20    9.90
  -3   8  -4   45.70    4.70
   2   7  -4   26.10    5.20
   1   7  -4 1017.70   43.40
   1   7  -4 1011.50   53.59
   0   7  -4   52.19    7.40
   0   7  -4   57.99    5.40
   0   7  -4   53.09    5.20
  -1   7  -4  427.16   20.10
  -1   7  -4  467.05   28.40
  -1   7  -4  422.16   18.70
  -2   7  -4   13.00    4.90
  -2   7  -4    2.30    1.60
  -2   7  -4    4.20    1.70
  -3   7  -4  331.27   14.70
  -3   7  -4  312.27   14.90
  -4   7  -4    8.60    2.20
  -5   7  -4  466.35   19.60
   4   6  -4  112.99    7.80
   3   6  -4  139.29   10.70
   3   6  -4  140.49    8.20
   2   6  -4   21.00    2.30
   2   6  -4   16.50    3.90
   1   6  -4 1746.33   85.69
   1   6  -4 1710.63   69.39
   0   6  -4    9.90    3.60
  -1   6  -4 1282.77   64.49
  -1   6  -4 1197.08   44.30
  -1   6  -4 1212.68   49.30
  -2   6  -4  905.51   33.50
  -2   6  -4  905.31   36.70
  -3   6  -4   14.60    2.50
  -3   6  -4   15.60    2.80
  -4   6  -4  581.74   24.30
  -4   6  -4  594.24   23.00
  -5   6  -4   31.00    3.50
  -6   6  -4  142.89    8.20
   5   5  -4  107.49    8.00
   4   5  -4   10.80    2.60
   3   5  -4    3.90    2.50
   3   5  -4    2.50    1.50
   2   5  -4  385.86   20.10
   2   5  -4  427.66   18.20
   1   5  -4  101.39    5.20
   1   5  -4  104.69    8.40
   1   5  -4   80.09    6.60
   0   5  -4  875.81   35.70
   0   5  -4  892.41   37.40
   0   5  -4  961.40   47.70
  -1   5  -4  139.89    7.90
  -1   5  -4  139.39    7.80
  -1   5  -4  146.39   11.80
  -2   5  -4 1817.12   70.79
  -2   5  -4 1846.62   63.19
  -3   5  -4    5.40    1.40
  -3   5  -4    3.00    1.50
  -4   5  -4 1627.44   56.39
  -5   5  -4  123.39    7.10
  -6   5  -4   54.39    4.50
  -7   5  -4  551.44   22.10
   5   4  -4   24.60    3.80
   4   4  -4  262.57   13.60
   3   4  -4  910.41   37.60
   2   4  -4  639.04   26.10
   2   4  -4  620.84   27.80
   2   4  -4  565.24   26.40
   1   4  -4  194.28    9.40
   1   4  -4  192.18    9.50
   1   4  -4  195.28   12.20
   1   4  -4  189.68   10.60
  -1  -4   4  184.88    8.40
   0   4  -4  259.07   11.70
   0   4  -4  290.07   11.70
   0   4  -4  269.87   13.20
   0   4  -4  282.17   16.80
  -1   4  -4  527.35   22.10
  -2   4  -4 1353.26   51.99
  -2   4  -4 1327.17   46.70
  -3   4  -4 1177.18   43.30
  -3   4  -4 1275.27   48.10
   3  -4   4 1201.48   47.90
   3  -4   4 1321.07   48.20
  -4   4  -4  775.32   28.90
  -4   4  -4  820.12   31.90
   4  -4   4  789.42   32.10
  -5   4  -4 1746.43   59.99
  -6   4  -4   44.90    4.70
  -6   4  -4   41.40    3.70
  -7   4  -4  990.70   36.10
  -8   4  -4  155.98    8.80
   6   3  -4  328.97   17.40
   5   3  -4    2.30    1.50
   4   3  -4  253.17   13.00
   4   3  -4  244.18   13.30
   3   3  -4   10.30    2.10
   3   3  -4   10.50    2.40
   2   3  -4  378.16   18.10
   2   3  -4  408.66   17.80
   1   3  -4  307.77   14.00
   1   3  -4  306.47   14.00
   1   3  -4  301.17   14.90
   1   3  -4  309.67   16.50
  -1  -3   4  283.57   13.00
   0   3  -4  180.18    9.50
   0   3  -4  200.38    9.10
   0   3  -4  180.88    8.50
   0   3  -4  195.48   11.60
   0  -3   4  172.88    8.20
  -1   3  -4 3217.48  126.99
  -1   3  -4 3229.18  125.09
  -1   3  -4 3272.97  126.89
   1  -3   4 3470.15  125.39
   1  -3   4 3016.40  124.19
  -2   3  -4  128.79    6.70
  -2   3  -4  135.19    6.30
  -2   3  -4  130.19    6.00
   2  -3   4  131.99    6.50
   2  -3   4  135.19    6.00
  -3   3  -4 1452.25   55.49
  -3   3  -4 1399.96   49.90
  -3   3  -4 1565.74   57.59
   3  -3   4 1387.96   56.09
   3  -3   4 1482.05   56.29
  -4   3  -4  757.02   28.30
  -4   3  -4  832.12   31.80
  -4   3  -4  770.42   32.50
   4  -3   4  804.52   32.00
  -5   3  -4 1060.59   41.70
  -5   3  -4 1029.00   43.00
  -5   3  -4 1043.50   36.90
   5  -3   4 1053.19   42.20
  -6   3  -4  476.95   21.90
  -6   3  -4  465.55   18.50
   6  -3   4  496.55   21.70
  -7   3  -4  814.62   29.60
  -7   3  -4  776.72   35.10
   7  -3   4  811.42   34.70
  -8   3  -4  563.54   22.30
   6   2  -4   47.00    5.40
   5   2  -4 1371.26   58.49
   5   2  -4 1408.06   59.79
  -5  -2   4 1534.85   57.99
   4   2  -4   68.09    5.60
   4   2  -4   78.09    5.90
  -4  -2   4   75.89    4.50
   3   2  -4 1479.95   59.79
   3   2  -4 1459.15   58.39
  -3  -2   4 1457.55   69.69
   2   2  -4   50.49    4.10
   2   2  -4   52.79    4.30
   1   2  -4  510.45   22.50
   1   2  -4  557.74   22.80
  -1  -2   4  508.25   21.80
  -1  -2   4  511.15   23.20
   0   2  -4  170.78    8.50
   0   2  -4  174.08    8.90
   0   2  -4  163.58    8.10
   0   2  -4  182.28    9.80
   0  -2   4  165.08    8.60
   0  -2   4  138.59    7.90
  -1   2  -4  734.13   30.10
  -1   2  -4  733.23   30.10
  -1   2  -4  750.22   30.20
   1  -2   4  737.63   29.80
   1  -2   4  830.72   30.90
  -2   2  -4   35.40    2.40
  -2   2  -4   36.00    2.30
  -2   2  -4   32.90    2.80
  -2   2  -4   32.70    2.30
   2  -2   4   32.50    2.40
   2  -2   4   38.40    2.60
  -3   2  -4  218.18    8.90
  -3   2  -4  221.68    9.30
  -3   2  -4  220.58   10.00
   3  -2   4  215.78    9.80
   3  -2   4  228.68    9.90
  -4   2  -4 3207.68  105.59
  -4   2  -4 3151.58  124.19
  -4   2  -4 3149.88  122.89
   4  -2   4 3221.68  123.59
  -5   2  -4    1.70    1.10
  -5   2  -4    6.00    1.50
  -5   2  -4    3.30    1.10
   5  -2   4    6.80    1.60
  -6   2  -4 3012.60  125.79
  -6   2  -4 3197.88  106.29
  -6   2  -4 3292.77  122.79
  -6   2  -4 3140.09  121.19
   6  -2   4 3303.97  123.29
  -7   2  -4  302.97   15.50
  -7   2  -4  288.37   12.50
   7  -2   4  289.57   14.80
  -8   2  -4  566.54   21.80
   8  -2   4  542.05   25.50
  -9   2  -4   29.90    3.70
   6   1  -4  165.18   10.70
   5   1  -4 1076.79   45.80
   5   1  -4 1061.49   46.40
  -5  -1   4 1159.18   46.90
   4   1  -4   70.29    5.70
   4   1  -4   75.89    5.80
  -4  -1   4   77.39    5.80
  -4  -1   4   72.09    4.90
  -4  -1   4   81.79    5.80
   3   1  -4  868.71   36.50
   3   1  -4  871.91   37.10
  -3  -1   4  879.11   36.00
  -3  -1   4  896.91   36.90
  -3  -1   4  897.01   42.60
   2   1  -4 2135.49   82.69
   2   1  -4 2099.79   84.39
  -2  -1   4 2073.49   83.49
  -2  -1   4 2126.39   83.09
  -2  -1   4 2162.78   98.79
   1   1  -4   66.19    4.70
   1   1  -4   75.09    5.20
  -1  -1   4   62.99    4.70
  -1  -1   4   73.19    3.70
  -1  -1   4   68.99    5.40
   0   1  -4 3256.97  147.89
   0   1  -4 3122.19  127.89
   0   1  -4 3106.49  121.89
   0  -1   4 2806.82  118.89
   0  -1   4 3310.07  121.69
  -1   1  -4  306.07   13.30
  -1   1  -4  306.57   13.60
   1  -1   4  304.07   14.10
   1  -1   4  309.87   13.00
  -2   1  -4 1171.88   44.40
  -2   1  -4 1123.09   45.10
   2  -1   4 1158.08   44.30
   2  -1   4 1082.09   44.20
  -3   1  -4   15.40    1.80
  -3   1  -4   13.90    1.70
   3  -1   4   19.50    1.90
   3  -1   4   17.80    1.90
  -4   1  -4 1875.21   70.29
  -4   1  -4 1787.12   71.89
  -4   1  -4 1798.92   60.89
   4  -1   4 1806.12   70.29
  -5   1  -4  180.68    7.80
  -5   1  -4  170.48    9.30
  -5   1  -4  180.58    7.60
  -5   1  -4  182.58    8.90
   5  -1   4  170.58    9.00
  -6   1  -4 1162.28   44.90
  -6   1  -4 1083.69   46.10
  -6   1  -4 1133.99   43.10
  -6   1  -4 1099.99   38.50
   6  -1   4 1059.39   44.70
  -7   1  -4  651.83   29.90
  -7   1  -4  671.23   24.60
   7  -1   4  678.63   28.90
   8  -1   4   34.00    4.30
  -9   1  -4 1643.34   58.09
   9  -1   4 1683.93   68.19
   7   0  -4   69.09    7.00
   6   0  -4   49.60    5.50
   5   0  -4    7.60    2.20
   5   0  -4    8.40    2.30
  -5   0   4   12.10    2.30
   4   0  -4  613.44   26.20
   4   0  -4  569.04   26.00
  -4   0   4  587.74   25.30
   3   0  -4  388.56   17.40
   3   0  -4  356.46   17.30
  -3   0   4  377.56   16.70
   2   0  -4 5359.26  199.58
   2   0  -4 4970.90  204.18
  -2   0   4 5095.29  198.68
  -2   0   4 5067.09  240.58
   1   0  -4    4.00    1.50
   1   0  -4    0.90    1.30
  -1   0   4    5.10    1.70
   0   0  -4 6240.58  246.08
   0   0  -4 5962.10  247.58
   0   0   4 6096.49  242.58
   0   0   4 6720.23  241.78
  -1   0  -4  686.63   27.90
  -1   0  -4  683.33   27.70
   1   0   4  722.33   27.20
   1   0   4  680.13   27.90
   1   0   4  598.54   27.20
   2   0   4    9.30    1.40
   2   0   4    5.10    1.10
   2   0   4    7.10    1.40
   2   0   4    7.40    0.70
  -3   0  -4 1843.22   72.19
  -3   0  -4 1750.92   60.79
  -3   0  -4 1843.92   72.59
   3   0   4 1904.51   70.39
   3   0   4 1799.22   70.49
  -4   0  -4   55.49    3.70
  -4   0  -4   54.49    4.00
  -4   0  -4   53.29    3.10
   4   0   4   53.09    3.50
   4   0   4   50.29    3.00
   4   0   4   48.90    3.60
  -5   0  -4  658.13   24.70
  -5   0  -4  637.04   22.60
  -5   0  -4  630.14   26.40
  -5   0  -4  644.74   27.50
   5   0   4  617.74   26.40
  -6   0  -4   48.70    3.30
  -6   0  -4   56.19    4.80
  -6   0  -4   50.89    3.20
   6   0   4   50.69    4.20
  -7   0  -4 1476.95   60.89
  -7   0  -4 1474.05   56.99
  -7   0  -4 1458.95   50.29
   7   0   4 1457.15   58.89
  -8   0  -4    2.50    1.20
   8   0   4    2.90    1.60
  -9   0  -4 1233.78   44.30
   9   0   4 1261.37   52.29
   7  -1  -4  208.88   13.50
   6  -1  -4  632.24   29.30
   5  -1  -4  149.29    9.70
   5  -1  -4  149.19    9.00
  -5   1   4  155.08    8.70
   4  -1  -4   19.90    3.10
  -4   1   4   18.30    2.50
   3  -1  -4  144.39    8.60
   3  -1  -4  141.49    8.00
  -3   1   4  149.09    7.80
   2  -1  -4  183.78    9.20
   2  -1  -4  166.48    9.50
  -2   1   4  172.58    8.70
   1  -1  -4  801.52   33.30
   1  -1  -4  745.53   33.60
   1  -1  -4  845.62   28.50
  -1   1   4  799.92   33.00
  -1   1   4  816.72   37.80
   0  -1  -4 1894.01   78.89
   0  -1  -4 2049.99   78.39
   0   1   4 2025.20   78.89
  -1  -1  -4 5188.98  238.88
  -1  -1  -4 4939.91  194.48
  -1  -1  -4 4968.00  198.58
   1   1   4 4828.82  194.98
  -2  -1  -4  224.08   10.70
  -2  -1  -4  224.88   10.30
   2   1   4  225.58   10.40
   2   1   4  209.68   10.50
  -3  -1  -4 7947.70  303.67
  -3  -1  -4 8020.40  259.17
  -3  -1  -4 7377.16  301.97
   3   1   4 7684.43  292.07
   3   1   4 7916.31  301.27
   3   1   4 7590.74  303.37
   3   1   4 7513.45  301.67
  -4  -1  -4   23.00    2.60
  -4  -1  -4   22.70    1.70
   4   1   4   19.50    1.60
   4   1   4   18.30    2.10
   4   1   4   24.40    2.80
  -5  -1  -4  996.10   42.10
  -5  -1  -4 1026.30   34.50
  -5  -1  -4 1032.50   40.60
   5   1   4  994.80   40.50
   5   1   4 1003.60   34.30
  -6  -1  -4   89.09    4.80
  -6  -1  -4   88.59    4.60
  -6  -1  -4   84.59    6.30
   6   1   4   82.09    5.70
  -7  -1  -4    6.00    2.30
  -7  -1  -4    4.70    1.50
  -8  -1  -4   85.69    5.20
   8   1   4   84.99    6.60
  -9  -1  -4   14.40    2.50
   9   1   4   13.20    3.30
   7  -2  -4    9.20    3.00
  -7   2   4    3.80    1.80
   6  -2  -4  138.59    9.90
  -6   2   4  140.99    8.70
  -6   2   4  136.59    7.90
   5  -2  -4   70.69    6.30
  -5   2   4   65.99    4.80
  -5   2   4   67.69    5.20
   4  -2  -4  299.97   14.60
   4  -2  -4  298.87   15.60
  -4   2   4  310.67   14.60
  -4   2   4  319.37   12.90
   3  -2  -4 2576.14  102.59
   3  -2  -4 2611.54  101.99
  -3   2   4 2606.34  102.49
  -3   2   4 2632.84   87.09
   2  -2  -4  450.65   16.20
   2  -2  -4  420.16   19.90
   2  -2  -4  445.76   19.00
  -2   2   4  431.66   18.80
  -2   2   4  427.46   16.10
  -2   2   4  418.36   20.10
   1  -2  -4 3303.67  135.59
   1  -2  -4 3486.85  131.49
   1  -2  -4 3557.24  136.69
  -1   2   4 3643.44  136.59
  -1   2   4 3511.95  135.59
   0  -2  -4 1289.07   52.99
   0  -2  -4 1228.18   52.69
   0   2   4 1312.67   52.79
   0   2   4 1311.47   62.19
   0   2   4 1418.36   53.69
  -1  -2  -4 3051.79  143.69
  -1  -2  -4 2790.52  112.59
  -1  -2  -4 2915.51  114.59
   1   2   4 2692.83  110.19
   1   2   4 2893.71  112.69
  -2  -2  -4 1911.71   75.09
  -2  -2  -4 1902.71   90.09
  -2  -2  -4 1997.20   75.69
   2   2   4 1715.13   74.49
  -3  -2  -4 2682.73   90.69
  -3  -2  -4 2563.34  107.59
  -3  -2  -4 2777.92  105.19
   3   2   4 2751.42  102.09
   3   2   4 2687.73  107.19
   3   2   4 2530.65  104.79
  -4  -2  -4 1577.94   62.89
  -4  -2  -4 1537.65   53.09
  -4  -2  -4 1640.64   60.99
   4   2   4 1559.04   59.89
   4   2   4 1585.54   51.59
   4   2   4 1587.34   60.59
   4   2   4 1439.16   60.59
   4   2   4 1524.65   62.69
  -5  -2  -4    3.90    0.80
  -5  -2  -4    1.00    1.00
   5   2   4    4.40    1.30
  -6  -2  -4 2585.94  103.09
  -6  -2  -4 2543.15   87.09
   6   2   4 2551.04   99.59
   6   2   4 2601.94   85.09
  -7  -2  -4  289.87   11.70
  -7  -2  -4  304.07   16.10
   7   2   4  286.37   14.40
  -8  -2  -4  784.62   32.40
  -8  -2  -4  748.93   27.50
   8   2   4  738.53   32.70
  -9  -2  -4    4.20    1.70
   9   2   4    4.40    2.10
   7  -3  -4  736.43   35.10
  -7   3   4  755.72   28.90
   6  -3  -4  122.39    9.40
  -6   3   4  118.49    7.10
   5  -3  -4  839.42   36.70
  -5   3   4  812.72   30.20
  -5   3   4  833.82   35.30
  -4   3   4   31.60    3.30
  -4   3   4   38.80    3.20
   3  -3  -4  901.31   38.00
  -3   3   4  887.81   31.20
  -3   3   4  881.31   36.80
   2  -3  -4   48.50    4.80
   2  -3  -4   54.69    3.70
   2  -3  -4   59.09    3.30
  -2   3   4   50.09    3.80
  -2   3   4   50.19    4.80
  -2   3   4   51.69    3.20
   1  -3  -4    3.50    1.00
   1  -3  -4    5.40    1.00
   1  -3  -4    4.40    1.80
  -1   3   4    3.70    0.90
  -1   3   4    5.20    1.30
  -1   3   4    2.80    1.50
   0  -3  -4 1258.47   54.69
   0   3   4 1351.06   54.39
   0   3   4 1358.86   65.29
   0   3   4 1455.45   55.69
  -1  -3  -4  412.96   18.10
  -1  -3  -4  399.46   22.00
  -1  -3  -4  406.56   14.10
   1   3   4  409.66   18.30
   1   3   4  395.86   21.40
   1   3   4  399.36   18.50
  -2  -3  -4 4384.66  176.78
  -2  -3  -4 4750.02  220.88
   2   3   4 4590.74  178.18
   2   3   4 4228.28  174.88
  -3  -3  -4  627.24   20.30
  -3  -3  -4  591.04   24.80
  -3  -3  -4  558.84   32.60
   3   3   4  601.34   26.30
   3   3   4  633.84   25.00
   3   3   4  624.94   25.10
  -4  -3  -4 3405.46  113.19
  -4  -3  -4 3529.55  130.29
  -4  -3  -4 3016.60  160.18
   4   3   4 3346.47  131.29
   4   3   4 3374.26  127.69
   4   3   4 3342.57  112.49
   4   3   4 3255.37  130.39
   4   3   4 3429.26  133.79
  -5  -3  -4  934.51   31.50
   5   3   4  949.11   39.50
   5   3   4  951.80   37.90
   5   3   4  897.91   37.70
   5   3   4  933.81   31.40
  -6  -3  -4 2451.65   81.49
   6   3   4 2378.06   95.39
   6   3   4 2422.26   80.49
   6   3   4 2392.46   94.59
   6   3   4 2536.15   97.99
  -7  -3  -4   15.80    2.60
  -7  -3  -4   17.40    3.60
  -7  -3  -4   16.40    1.90
   7   3   4   11.60    2.50
  -8  -3  -4   75.99    5.50
  -8  -3  -4   78.09    4.80
   8   3   4   73.79    6.10
  -9  -3  -4  188.78    9.20
   9   3   4  185.58   11.40
   6  -4  -4  421.16   22.10
  -6   4   4  413.06   17.30
   5  -4  -4    3.00    1.90
  -5   4   4    4.00    1.50
   4  -4  -4 1444.96   58.69
   4  -4  -4 1402.76   56.69
  -4   4   4 1448.56   57.29
  -4   4   4 1343.47   48.40
   3  -4  -4   25.70    3.80
   3  -4  -4   25.70    2.60
  -3   4   4   27.70    2.40
  -3   4   4   30.10    3.00
   2  -4  -4 1229.68   41.30
   2  -4  -4 1162.28   48.50
   2  -4  -4 1175.48   50.99
  -2   4   4 1221.48   49.10
  -2   4   4 1303.57   50.39
  -2   4   4 1201.88   41.30
   1  -4  -4   39.70    2.40
   1  -4  -4   41.30    3.00
   1  -4  -4   44.10    4.80
  -1   4   4   39.00    4.40
  -1   4   4   41.40    2.50
  -1   4   4   42.10    3.30
   0  -4  -4 3420.26  119.69
   0  -4  -4 3553.34  137.49
   0  -4  -4 3221.68  169.78
   0   4   4 3809.42  138.09
   0   4   4 3521.05  118.39
   0   4   4 3613.54  173.48
   0   4   4 3554.24  138.19
  -1  -4  -4  133.89    6.90
  -1  -4  -4  126.19    9.90
  -1  -4  -4  132.59    4.90
  -1  -4  -4  126.59    7.50
   1   4   4  130.39    7.80
   1   4   4  136.89    8.10
   1   4   4  138.29    9.60
  -2  -4  -4 2166.88   81.89
  -2  -4  -4 2070.09   80.79
  -2  -4  -4 1986.30   98.89
   2   4   4 2021.50   79.09
   2   4   4 1945.21   81.69
   2   4   4 2048.59   98.69
  -3  -4  -4 1153.88   50.29
  -3  -4  -4 1105.29   61.79
  -3  -4  -4 1294.47   48.40
   3   4   4 1234.38   48.60
   3   4   4 1270.27   50.79
   3   4   4 1319.97   48.80
  -4  -4  -4  139.29    8.90
  -4  -4  -4  156.18    5.40
   4   4   4  139.39    7.70
   4   4   4  154.18    7.80
   4   4   4  148.89    5.30
   4   4   4  132.99    7.40
   4   4   4  146.89    8.50
  -5  -4  -4 2742.43  110.09
  -5  -4  -4 2735.73  111.69
   5   4   4 2884.71  107.69
   5   4   4 2815.72  110.89
   5   4   4 2704.83  107.29
   5   4   4 2855.01   92.19
   5   4   4 2795.02  107.59
  -6  -4  -4   49.80    5.30
  -6  -4  -4   54.79    3.00
   6   4   4   51.09    4.90
   6   4   4   52.59    5.00
   6   4   4   49.80    4.30
   6   4   4   50.79    2.80
  -7  -4  -4 1130.19   45.70
  -7  -4  -4 1095.79   38.60
   7   4   4 1139.29   46.10
   7   4   4 1133.59   48.20
  -8  -4  -4   55.69    3.90
   8   4   4   52.09    5.00
  -9  -4  -4  493.25   20.50
   9   4   4  529.75   24.40
   6  -5  -4  902.91   41.60
  -6   5   4  901.61   33.30
   5  -5  -4   10.00    3.10
  -5   5   4    4.10    1.40
   4  -5  -4 2995.90  116.69
  -4   5   4 2853.91   97.59
   3  -5  -4  563.44   24.20
   3  -5  -4  600.94   28.10
  -3   5   4  579.64   25.00
  -3   5   4  570.84   21.00
   2  -5  -4  680.43   28.50
   2  -5  -4  713.13   32.40
  -2   5   4  696.83   30.70
  -2   5   4  699.73   24.50
  -2   5   4  699.23   29.40
   1  -5  -4 1863.51   77.69
   1  -5  -4 2059.29   65.99
   1  -5  -4 1924.21   80.09
  -1   5   4 2000.10   65.99
  -1   5   4 2095.19   97.79
  -1   5   4 2009.10   79.59
  -1   5   4 1987.00   78.79
   0  -5  -4    5.60    1.80
   0  -5  -4    8.10    1.10
   0   5   4    7.30    2.30
   0   5   4    8.90    1.00
   0   5   4    8.70    1.60
   0   5   4    6.30    2.50
  -1  -5  -4  182.38    8.40
  -1  -5  -4  184.98    9.50
  -1  -5  -4  181.48    6.50
   1   5   4  178.88   13.00
   1   5   4  180.08    9.90
   1   5   4  195.08   10.80
  -2  -5  -4   35.10    3.10
  -2  -5  -4   37.10    2.80
   2   5   4   36.70    5.30
   2   5   4   48.70    4.60
   2   5   4   36.70    3.50
  -3  -5  -4 1315.67   51.99
  -3  -5  -4 1333.87   50.89
   3   5   4 1276.17   51.19
   3   5   4 1290.77   51.09
   3   5   4 1296.57   66.19
   3   5   4 1253.07   53.49
  -4  -5  -4  473.45   22.00
   4   5   4  491.25   21.20
   4   5   4  499.35   22.50
   4   5   4  511.65   21.20
   4   5   4  491.75   21.20
  -5  -5  -4 2354.26  106.49
   5   5   4 2706.73  103.29
   5   5   4 2779.72   88.19
   5   5   4 2715.63  103.09
   5   5   4 2789.92  106.49
   5   5   4 2656.93  103.09
  -6  -5  -4  222.48   13.90
  -6  -5  -4  266.37   11.70
   6   5   4  249.38   12.50
   6   5   4  253.47    9.30
   6   5   4  260.67   13.70
   6   5   4  259.17   13.60
   7   5   4  540.05   26.10
   7   5   4  550.94   24.40
   8   5   4  929.61   42.90
   8   5   4  948.91   39.80
   9   5   4   29.70    4.50
   6  -6  -4  120.29   11.10
  -6   6   4  125.69    7.40
   5  -6  -4  136.39   11.30
  -5   6   4  135.99    7.30
   4  -6  -4  162.08   12.00
  -4   6   4  143.19    7.30
   3  -6  -4 1588.54   65.39
  -3   6   4 1494.45   52.09
  -3   6   4 1516.85   61.89
   2  -6  -4    1.60    1.80
  -2   6   4    1.60    1.40
  -2   6   4    0.60    0.80
  -2   6   4    1.10    0.80
   1  -6  -4 4091.19  158.48
   1  -6  -4 3687.53  158.18
   1  -6  -4 4060.89  135.49
  -1   6   4 4078.69  159.08
  -1   6   4 4235.18  138.69
  -1   6   4 4194.58  158.08
  -1   6   4 4199.98  195.58
   0  -6  -4    0.70    0.40
   0  -6  -4    5.90    1.90
   0   6   4    0.50    1.60
   0   6   4    1.00    0.80
   0   6   4    1.60    0.50
   0   6   4    2.00    1.50
  -1  -6  -4 1708.93   68.49
  -1  -6  -4 1718.83   67.79
  -1  -6  -4 1753.72   57.89
   1   6   4 1772.92   87.89
   1   6   4 1758.32   57.39
   1   6   4 1738.83   71.09
   1   6   4 1807.72   70.89
  -2  -6  -4  756.72   29.30
  -2  -6  -4  715.13   28.10
   2   6   4  738.83   30.50
   2   6   4  647.14   31.80
   2   6   4  710.73   39.80
  -3  -6  -4  114.19    5.20
  -3  -6  -4  116.39    6.20
   3   6   4   99.59   10.30
   3   6   4  105.69    6.20
   3   6   4  106.19    7.60
   3   6   4  102.09    6.50
  -4  -6  -4  258.47   10.80
  -4  -6  -4  254.27   11.40
   4   6   4  248.68   12.50
   4   6   4  261.07   13.60
   4   6   4  253.17   12.70
   4   6   4  259.97   12.20
  -5  -6  -4  254.77   10.70
  -5  -6  -4  255.97   12.00
   5   6   4  252.07   13.30
   5   6   4  233.88   12.60
   5   6   4  240.08   12.30
   5   6   4  239.38   12.00
  -6  -6  -4  225.88   11.80
   6   6   4  211.08   12.30
   6   6   4  213.88   11.20
  -7  -6  -4   26.20    3.90
   7   6   4   28.90    3.60
   7   6   4   30.60    5.40
   8   6   4 1132.39   47.60
   8   6   4 1154.78   50.99
  -5   7   4  278.57   12.30
   4  -7  -4   32.60    6.30
  -4   7   4   26.40    2.90
   3  -7  -4  861.81   39.80
  -3   7   4  838.52   30.10
   2  -7  -4  275.57   16.80
  -2   7   4  308.77   21.60
  -2   7   4  310.87   15.50
  -2   7   4  291.17   11.60
  -2   7   4  304.37   14.50
   1  -7  -4 2395.06   95.09
   1  -7  -4 2334.07   79.29
  -1   7   4 2352.66  118.89
  -1   7   4 2374.86   79.09
  -1   7   4 2487.55   94.79
  -1   7   4 2397.76   94.79
   0  -7  -4 1477.95   58.89
   0  -7  -4 1440.96   49.00
   0   7   4 1432.86   60.49
   0   7   4 1514.85   48.90
   0   7   4 1502.75   59.59
   0   7   4 1443.96   75.99
  -1  -7  -4  216.98   10.80
   1   7   4  215.78   13.50
   1   7   4  229.28    8.00
   1   7   4  219.28   17.40
   1   7   4  228.58   12.20
  -2  -7  -4 2638.04   96.39
   2   7   4 2576.34   98.79
   2   7   4 2490.85   96.69
   2   7   4 2238.78  100.99
   2   7   4 2555.94  124.69
   3   7   4  320.07   23.40
   3   7   4  331.87   15.10
   3   7   4  350.26   17.70
   3   7   4  337.87   16.10
   4   7   4  899.71   38.60
   4   7   4  864.61   37.00
   4   7   4  902.01   36.30
   4   7   4  887.31   36.90
   5   7   4   83.89    5.70
   5   7   4   88.29    6.70
   6   7   4   38.50    4.70
   6   7   4   35.10    3.70
   7   7   4   70.99    7.30
   7   7   4   76.19    6.00
   8   7   4  105.39    7.70
   8   7   4   97.49    9.50
  -5   8   4   66.99    5.00
  -4   8   4  517.25   20.00
  -3   8   4  213.58    9.40
  -2   8   4 1104.99   38.40
  -2   8   4 1132.29   61.89
   1  -8  -4   19.10    3.60
  -1   8   4   19.20    3.10
  -1   8   4   19.10    5.80
  -1   8   4   20.40    1.90
   0  -8  -4  639.64   28.30
   0   8   4  684.03   29.40
   0   8   4  686.93   23.00
   0   8   4  662.23   40.40
  -1  -8  -4  272.47   13.20
   1   8   4  306.67   22.60
   1   8   4  289.37   10.20
   1   8   4  288.77   15.30
  -2  -8  -4 1839.12   66.79
   2   8   4 1748.72   90.29
   2   8   4 1541.55   71.49
   2   8   4 1712.63   67.09
   3   8   4  215.88   13.00
   3   8   4  213.18   10.50
   3   8   4  198.48   18.20
   4   8   4  506.35   23.30
   4   8   4  485.95   33.70
   4   8   4  517.65   21.90
   5   8   4  770.52   34.00
   5   8   4  781.32   32.40
   6   8   4   55.89    4.80
   6   8   4   59.59    6.20
   7   8   4  352.46   17.30
   7   8   4  363.46   20.00
  -4   9   4  442.96   17.80
  -3   9   4  135.79   14.80
  -3   9   4  127.19    6.70
  -2   9   4  514.55   34.20
  -2   9   4  492.15   18.60
  -1   9   4  117.19   13.60
  -1   9   4  119.89    5.60
   0   9   4  101.19   12.70
   1   9   4 1819.52   96.79
   2   9   4  104.99   13.10
   2   9   4   90.89    5.90
   3   9   4  941.11   59.19
   3   9   4 1078.39   41.20
   4   9   4   92.09   13.20
   4   9   4  108.29    6.40
   4   9   4  104.19    7.90
   5   9   4  594.24   25.00
   5   9   4  566.34   27.20
   6   9   4   76.89    7.50
   6   9   4   67.49    5.50
  -2  10   4    1.90    3.30
  -1  10   4  476.35   34.20
   0  10   4  189.18   19.60
   1  10   4  456.15   20.50
   1  10   4  496.55   35.30
   2  10   4   31.60   10.10
   3  10   4  164.38   18.60
   3  10   4  169.28    8.90
   3  10   4  168.18   11.00
   4  10   4  507.75   39.00
   4  10   4  573.74   23.70
   4  10   4  558.04   26.50
   1   7  -5 1158.98   49.70
   0   7  -5   49.90    5.40
   0   7  -5   46.10    5.30
  -1   7  -5  243.38   13.20
  -1   7  -5  250.57   13.60
  -1   7  -5  264.87   18.70
  -2   7  -5   49.80    5.10
  -2   7  -5   49.40    7.60
  -3   7  -5    3.20    2.00
  -4   7  -5   80.09    6.40
   2   6  -5    5.90    3.10
   1   6  -5 1089.49   46.50
   0   6  -5   58.49    5.50
   0   6  -5   58.59    6.80
  -1   6  -5  226.98   16.10
  -1   6  -5  221.38   11.90
  -1   6  -5  220.28   11.90
  -2   6  -5  927.61   38.00
  -2   6  -5  942.61   50.59
  -2   6  -5  911.91   35.10
  -3   6  -5   86.09    6.30
  -4   6  -5  395.56   17.30
  -5   6  -5  235.58   11.80
  -6   6  -5   15.00    3.10
   4   5  -5   87.79    7.40
   3   5  -5    3.70    1.70
   2   5  -5  860.41   34.40
   2   5  -5  795.72   37.00
   1   5  -5  155.58   10.80
   1   5  -5  132.49    9.60
   1   5  -5  162.28    7.80
   0   5  -5  829.72   36.40
   0   5  -5  899.51   44.90
  -1   5  -5   35.70    4.30
  -1   5  -5   36.30    3.80
  -1   5  -5   39.50    5.50
  -2   5  -5 1685.73   59.39
  -2   5  -5 1691.23   65.89
  -3   5  -5  404.66   17.00
  -3   5  -5  396.96   17.20
  -4   5  -5  263.47   12.40
  -5   5  -5    9.40    2.20
  -6   5  -5  313.87   14.30
  -7   5  -5   38.30    4.20
   4   4  -5  896.91   38.90
   3   4  -5  295.77   15.40
   2   4  -5  633.34   27.40
   1   4  -5   89.09    7.30
   1   4  -5  115.29    6.50
   1   4  -5  101.49    7.50
   0   4  -5   24.10    2.60
   0   4  -5   28.30    3.50
   0   4  -5   35.20    4.20
   0   4  -5   23.00    2.50
   0  -4   5   24.40    1.80
  -1   4  -5  581.74   30.40
  -1   4  -5  531.25   22.10
  -1   4  -5  554.64   22.60
  -1   4  -5  540.65   23.50
  -2   4  -5   23.50    2.60
  -2   4  -5   24.30    2.00
  -2   4  -5   22.90    3.20
  -3   4  -5  778.32   29.40
  -3   4  -5  812.12   31.40
  -3   4  -5  782.42   32.00
  -4   4  -5   95.29    6.00
  -4   4  -5   95.09    4.90
  -4   4  -5   96.79    5.60
  -5   4  -5  925.11   33.80
  -6   4  -5  510.25   20.40
  -7   4  -5  361.56   15.70
  -8   4  -5  477.55   20.70
   5   3  -5  297.17   16.30
   4   3  -5  274.77   14.80
   3   3  -5   18.90    3.90
   3   3  -5    8.30    2.40
   2   3  -5   95.99    6.70
   2   3  -5   92.59    6.80
   1   3  -5  578.84   24.70
   1   3  -5  545.45   24.20
   0   3  -5  451.85   22.80
   0   3  -5  450.85   19.00
   0   3  -5  391.96   19.40
   0   3  -5  433.56   19.00
  -1   3  -5 2191.68   86.49
  -1   3  -5 2249.38   85.19
  -1   3  -5 2195.78   85.39
   1  -3   5 2211.98   84.59
   1  -3   5 2215.48   84.99
  -2   3  -5  184.68    8.70
  -2   3  -5  188.88    9.00
  -2   3  -5  183.88    9.40
  -2   3  -5  174.38    8.70
   2  -3   5  195.78    8.60
   2  -3   5  216.78    9.60
  -3   3  -5  967.30   37.10
  -3   3  -5  935.61   38.40
  -3   3  -5  929.21   34.30
   3  -3   5  995.40   37.80
  -4   3  -5   10.00    2.00
  -4   3  -5   12.30    1.80
   4  -3   5   10.00    1.80
  -5   3  -5   85.59    5.40
  -5   3  -5   82.89    5.60
   5  -3   5   88.19    5.80
  -6   3  -5    2.50    1.30
  -6   3  -5    2.10    1.30
  -7   3  -5   14.70    3.10
  -7   3  -5    6.90    1.80
  -8   3  -5    0.80    1.30
   5   2  -5 2092.69   85.19
   5   2  -5 2139.59   88.99
   4   2  -5    2.40    1.60
   4   2  -5    0.80    1.50
   3   2  -5 2090.59   86.19
   3   2  -5 2170.28   84.49
   2   2  -5   74.49    5.90
   2   2  -5   78.09    6.00
   1   2  -5  349.17   16.80
   1   2  -5  369.76   17.00
   0   2  -5  369.76   18.70
   0   2  -5  378.16   16.80
   0   2  -5  386.46   16.90
   0  -2   5  346.07   16.80
  -1   2  -5  121.29    6.40
  -1   2  -5  115.79    6.70
   1  -2   5  125.29    7.00
  -2   2  -5  147.49    7.30
  -2   2  -5  148.29    7.50
   2  -2   5  155.78    8.00
   2  -2   5  147.89    7.30
  -3   2  -5  722.43   26.60
  -3   2  -5  731.53   30.00
   3  -2   5  748.03   29.60
  -4   2  -5 1620.04   64.19
  -4   2  -5 1579.84   55.09
   4  -2   5 1635.94   62.89
  -5   2  -5  492.95   19.30
  -5   2  -5  489.35   22.20
  -5   2  -5  533.35   21.90
   5  -2   5  525.05   22.10
  -6   2  -5 1042.80   44.80
  -6   2  -5 1085.79   43.50
  -6   2  -5 1025.80   37.90
   6  -2   5 1155.08   44.20
  -7   2  -5   10.70    2.20
  -7   2  -5   19.10    3.10
   7  -2   5   12.10    2.70
  -8   2  -5  118.29    7.00
  -9   2  -5  128.29    7.80
   6   1  -5   13.50    3.60
   5   1  -5 1281.77   53.79
   4   1  -5  187.38   11.50
   4   1  -5  189.88   11.70
  -4  -1   5  221.08   11.00
   3   1  -5  515.65   24.40
   3   1  -5  491.15   23.80
  -3  -1   5  517.05   22.50
  -3  -1   5  596.04   23.30
   2   1  -5 1447.26   62.99
   2   1  -5 1475.65   62.09
  -2  -1   5 1580.04   60.89
  -2  -1   5 1673.93   61.39
   1   1  -5   83.99    5.90
   1   1  -5   79.49    5.90
  -1  -1   5   84.29    4.00
  -1  -1   5   80.49    4.10
   0   1  -5 1996.80   80.39
   0   1  -5 1875.81   78.99
   0  -1   5 2272.47   80.99
   0  -1   5 1947.41   78.69
  -1   1  -5  136.39    8.00
  -1   1  -5  149.09    7.80
   1  -1   5  164.08    8.70
  -2   1  -5  270.07   12.30
  -2   1  -5  259.57   12.30
   2  -1   5  275.67   12.30
   2  -1   5  275.47   12.50
  -3   1  -5  374.26   14.80
  -3   1  -5  382.66   16.50
  -3   1  -5  386.56   16.70
   3  -1   5  389.36   16.50
  -4   1  -5  681.93   28.80
  -4   1  -5  683.23   24.70
   4  -1   5  697.53   28.20
  -5   1  -5  953.50   37.20
  -5   1  -5  902.11   32.20
  -5   1  -5  909.11   38.10
   5  -1   5  902.21   37.20
  -6   1  -5   20.90    3.00
  -6   1  -5   21.10    2.40
  -6   1  -5   20.80    2.80
   6  -1   5   20.70    3.00
  -7   1  -5   88.89    6.70
  -7   1  -5   88.99    5.30
   7  -1   5   87.69    6.40
  -8   1  -5  579.64   22.60
   8  -1   5  600.34   26.80
  -9   1  -5  194.28    9.90
   9  -1   5  192.48   12.10
   6   0  -5  215.28   13.60
   5   0  -5    8.30    2.60
   4   0  -5  812.32   34.70
   4   0  -5  771.32   34.30
  -4   0   5  770.92   33.20
   3   0  -5   21.00    3.10
   3   0  -5   14.70    2.90
  -3   0   5   18.30    1.80
  -3   0   5   18.40    2.50
   2   0  -5 4839.62  189.98
   2   0  -5 4947.60  188.88
  -2   0   5 4780.82  188.78
   1   0  -5   13.10    2.40
  -1   0   5   18.50    3.50
  -1   0   5   13.60    2.00
   0   0  -5 2859.31  119.99
   0   0  -5 2898.41  121.99
   0   0   5 3333.77  119.69
   0   0   5 3044.60  120.99
   0   0   5 3392.26  120.89
  -1   0  -5  170.98   10.00
  -1   0  -5  195.98   10.20
   1   0   5  209.78   10.90
   1   0   5  205.78    9.70
   1   0   5  192.08    9.20
  -2   0  -5  358.76   15.80
  -2   0  -5  369.96   15.90
   2   0   5  354.66   15.60
   2   0   5  354.66   15.70
   2   0   5  338.27   15.30
   2   0   5  335.57   14.20
  -3   0  -5   59.19    3.60
  -3   0  -5   60.09    4.10
  -3   0  -5   53.59    4.00
   3   0   5   59.59    4.10
   3   0   5   57.99    3.90
   3   0   5   62.19    4.20
  -4   0  -5 1665.03   55.79
  -4   0  -5 1674.13   66.19
   4   0   5 1630.54   64.69
  -5   0  -5   64.29    4.60
  -5   0  -5   70.09    5.10
  -5   0  -5   79.79    4.20
   5   0   5   59.69    4.60
  -6   0  -5  708.83   30.40
  -6   0  -5  685.83   24.80
   6   0   5  685.33   29.20
  -7   0  -5  174.38    8.30
  -7   0  -5  184.38   10.80
   7   0   5  178.88   10.10
  -8   0  -5  616.24   23.00
   8   0   5  591.64   27.10
  -9   0  -5  354.36   15.10
   9   0   5  348.67   18.20
   6  -1  -5 1052.39   46.20
   5  -1  -5    0.20    1.50
   4  -1  -5  144.79    9.80
   4  -1  -5  152.08    9.40
  -4   1   5  154.88    8.80
   3  -1  -5  548.75   26.00
   3  -1  -5  594.24   25.90
  -3   1   5  586.54   25.10
   2  -1  -5  143.39    8.50
   2  -1  -5  136.19    9.00
  -2   1   5  147.79    8.00
   1  -1  -5  419.76   20.00
   1  -1  -5  428.26   19.50
  -1   1   5  418.76   18.80
   0  -1  -5  243.28   12.70
   0  -1  -5  231.78   12.10
   0   1   5  243.88   12.90
   0   1   5  249.78   11.90
  -1  -1  -5 3301.57  152.68
  -1  -1  -5 3235.78  125.59
  -1  -1  -5 2993.40  125.39
   1   1   5 3206.98  123.59
   1   1   5 3213.38  124.89
  -2  -1  -5 1058.39   40.70
  -2  -1  -5 1069.19   41.70
   2   1   5  958.70   41.00
   2   1   5  948.91   40.20
  -3  -1  -5 3344.17  131.39
  -3  -1  -5 3476.95  116.69
  -3  -1  -5 3570.44  134.69
   3   1   5 3425.56  137.19
   3   1   5 3367.36  134.39
  -4  -1  -5  541.25   23.70
  -4  -1  -5  536.65   19.20
   4   1   5  566.04   24.00
   4   1   5  521.15   22.80
  -5  -1  -5   24.10    3.00
  -5  -1  -5   26.80    2.80
  -5  -1  -5   24.40    2.10
   5   1   5   29.70    3.00
  -6  -1  -5   17.80    2.90
   6   1   5   19.60    2.70
  -7  -1  -5  798.12   34.90
  -7  -1  -5  762.82   27.90
   7   1   5  786.72   33.20
  -8  -1  -5   59.09    4.20
   8   1   5   59.49    5.40
  -9  -1  -5  376.06   15.60
   9   1   5  374.76   19.00
   6  -2  -5  127.39   10.10
   5  -2  -5  290.37   16.20
  -5   2   5  283.57   14.60
   4  -2  -5  561.04   26.10
   4  -2  -5  537.35   24.90
  -4   2   5  564.14   24.60
   3  -2  -5 1373.86   56.89
   3  -2  -5 1376.86   56.49
  -3   2   5 1394.86   56.09
   2  -2  -5  687.83   30.40
   2  -2  -5  693.63   29.30
  -2   2   5  658.63   28.80
   1  -2  -5 1152.68   38.10
   1  -2  -5 1069.09   45.60
   1  -2  -5 1099.09   45.10
  -1   2   5 1068.39   51.79
  -1   2   5 1070.89   44.60
   0  -2  -5  493.65   18.50
   0  -2  -5  458.05   22.00
   0   2   5  568.74   23.60
   0   2   5  481.85   22.00
   0   2   5  493.05   24.40
  -1  -2  -5  763.52   34.20
  -1  -2  -5  845.42   40.10
  -1  -2  -5  796.72   34.50
   1   2   5  820.72   34.50
   1   2   5  853.91   34.50
  -2  -2  -5  361.56   16.70
  -2  -2  -5  379.26   17.70
  -2  -2  -5  381.56   20.30
   2   2   5  354.76   16.40
   2   2   5  368.86   17.10
  -3  -2  -5  600.64   20.70
  -3  -2  -5  585.44   26.10
  -3  -2  -5  582.24   24.90
   3   2   5  611.34   25.20
   3   2   5  566.34   25.80
   3   2   5  639.24   24.90
  -4  -2  -5   18.20    2.60
   4   2   5   16.40    2.50
   4   2   5   15.40    2.20
   4   2   5   15.30    1.50
  -5  -2  -5 1245.18   50.39
  -5  -2  -5 1179.08   40.70
   5   2   5 1247.08   50.39
   5   2   5 1131.99   47.40
   5   2   5 1258.97   40.90
   5   2   5 1201.38   48.40
  -6  -2  -5  200.78   11.30
  -6  -2  -5  184.28    7.80
   6   2   5  181.58    9.90
  -7  -2  -5 2658.83  104.39
  -7  -2  -5 2569.04   85.99
   7   2   5 2506.85  100.59
  -8  -2  -5   12.30    2.10
   8   2   5    9.80    2.50
  -9  -2  -5  373.46   15.70
   9   2   5  393.66   19.40
   6  -3  -5  120.49    9.80
  -6   3   5  102.49    7.00
   5  -3  -5  865.11   38.60
  -5   3   5  865.51   31.80
  -5   3   5  838.52   36.80
   3  -3  -5  921.41   40.30
   3  -3  -5  923.41   38.80
  -3   3   5  910.01   33.00
  -3   3   5  962.90   39.00
   2  -3  -5   14.40    3.30
   2  -3  -5   13.00    2.10
  -2   3   5   13.40    2.20
   1  -3  -5  197.78   10.00
   1  -3  -5  193.08   11.50
   1  -3  -5  193.48    8.20
  -1   3   5  188.28    9.90
  -1   3   5  188.28   11.20
   0  -3  -5 1248.08   51.79
   0  -3  -5 1259.77   52.49
   0  -3  -5 1254.17   43.10
   0   3   5 1210.48   61.09
   0   3   5 1406.76   53.39
   0   3   5 1277.17   51.99
  -1  -3  -5 2299.27  100.99
  -1  -3  -5 1965.30   83.89
  -1  -3  -5 2000.70   82.99
   1   3   5 2140.69   84.59
   1   3   5 2137.49  100.09
   1   3   5 2110.89   83.39
  -2  -3  -5 1715.83   68.29
  -2  -3  -5 1654.23   66.29
  -2  -3  -5 1777.82   81.89
   2   3   5 1620.24   68.09
   2   3   5 1664.13   66.19
  -3  -3  -5  102.59    8.50
  -3  -3  -5   97.39    5.80
  -3  -3  -5   97.69    4.00
  -3  -3  -5   96.89    6.80
   3   3   5   91.49    6.40
   3   3   5   97.19    5.80
   3   3   5   95.49    6.00
  -4  -3  -5  500.65   21.30
  -4  -3  -5  509.85   23.00
  -4  -3  -5  502.75   17.10
   4   3   5  492.25   21.40
   4   3   5  515.75   21.30
   4   3   5  490.95   20.30
   4   3   5  475.25   22.40
  -5  -3  -5    4.50    0.90
  -5  -3  -5    3.50    1.60
   5   3   5    2.50    1.10
   5   3   5    4.70    1.60
  -6  -3  -5  190.88   11.50
  -6  -3  -5  182.68    7.60
   6   3   5  178.18    9.90
   6   3   5  191.18    7.60
   6   3   5  182.78   10.30
   6   3   5  206.08   11.40
  -7  -3  -5   74.99    7.00
  -7  -3  -5   64.89    3.90
   7   3   5   73.59    5.70
  -8  -3  -5  403.06   15.80
   8   3   5  413.86   19.60
  -9  -3  -5    1.90    1.20
   9   3   5   -0.70    1.20
   6  -4  -5 1140.69   51.19
  -6   4   5 1166.18   42.10
   5  -4  -5    9.90    3.20
  -5   4   5    6.40    1.80
   4  -4  -5 1457.05   60.79
  -4   4   5 1384.76   49.90
  -4   4   5 1477.95   59.09
   3  -4  -5   28.00    4.40
   3  -4  -5   27.30    3.00
  -3   4   5   31.00    2.90
  -3   4   5   28.20    3.30
   2  -4  -5  168.78   11.70
  -2   4   5  218.18   10.30
  -2   4   5  173.98    8.10
   1  -4  -5  427.06   20.70
   1  -4  -5  401.76   15.00
  -1   4   5  427.86   20.70
  -1   4   5  401.36   22.40
  -1   4   5  398.36   18.50
   0  -4  -5  282.27   15.70
   0  -4  -5  307.57   11.30
   0  -4  -5  295.07   14.10
   0   4   5  303.77   14.60
   0   4   5  331.97   16.70
   0   4   5  317.17   17.60
  -1  -4  -5  752.52   33.70
  -1  -4  -5  740.63   33.10
  -1  -4  -5  773.22   26.80
   1   4   5  750.52   40.10
   1   4   5  917.61   34.70
   1   4   5  843.32   34.70
  -2  -4  -5  168.08    6.10
  -2  -4  -5  163.78   11.70
  -2  -4  -5  139.29    8.90
  -2  -4  -5  162.58    8.90
   2   4   5  192.08    9.40
   2   4   5  167.78    9.90
   2   4   5  153.28   11.20
  -3  -4  -5  390.36   12.70
  -3  -4  -5  362.96   16.70
  -3  -4  -5  392.26   22.80
  -3  -4  -5  368.06   18.10
   3   4   5  380.66   16.90
   3   4   5  365.16   18.20
   3   4   5  373.66   17.10
  -4  -4  -5  494.95   23.40
  -4  -4  -5  490.35   21.10
  -4  -4  -5  495.75   16.60
   4   4   5  480.05   21.30
   4   4   5  556.64   21.60
   4   4   5  460.65   22.50
   4   4   5  476.75   20.60
  -5  -4  -5 1047.30   34.80
   5   4   5 1057.89   44.20
   5   4   5 1036.70   42.30
   5   4   5 1028.50   41.70
  -6  -4  -5  387.86   20.30
  -6  -4  -5  397.16   14.30
   6   4   5  413.96   19.80
   6   4   5  398.56   14.20
   6   4   5  404.36   18.60
   6   4   5  380.26   18.10
  -7  -4  -5    2.20    0.90
   7   4   5    1.60    1.60
   7   4   5    0.50    1.20
   7   4   5    1.00    1.70
  -8  -4  -5  503.75   19.30
  -8  -4  -5  531.55   23.10
   8   4   5  521.15   23.90
   9   4   5    9.20    2.70
   6  -5  -5  863.01   40.00
  -6   5   5  791.62   31.00
   5  -5  -5   45.90    6.30
  -5   5   5   42.70    3.90
   4  -5  -5 1669.63   68.79
  -4   5   5 1570.74   55.69
   3  -5  -5  391.36   20.90
   3  -5  -5  370.86   17.10
  -3   5   5  384.26   17.90
  -3   5   5  362.36   14.70
   2  -5  -5  122.89    6.90
   2  -5  -5  134.59   10.00
  -2   5   5  126.89    7.70
  -2   5   5  136.49    6.30
   1  -5  -5  928.81   38.20
   1  -5  -5  985.80   41.50
   1  -5  -5  932.61   32.20
  -1   5   5  910.01   32.30
  -1   5   5  921.61   39.00
  -1   5   5  963.00   41.10
  -1   5   5  944.21   48.30
   0  -5  -5  188.88    9.40
   0  -5  -5  194.88    7.50
   0   5   5  192.18   10.40
   0   5   5  221.18   12.60
   0   5   5  186.38   13.00
  -1  -5  -5   19.40    1.20
  -1  -5  -5   23.10    3.10
   1   5   5   16.20    2.70
   1   5   5   22.00    3.60
  -2  -5  -5 1452.95   57.79
  -2  -5  -5 1393.46   56.99
   2   5   5 1455.85   57.79
   2   5   5 1401.36   71.49
   2   5   5 1477.25   59.89
  -3  -5  -5   48.50    4.20
  -3  -5  -5   53.39    4.00
   3   5   5   51.29    4.20
   3   5   5   54.19    5.20
   3   5   5   49.90    4.20
  -4  -5  -5 1921.11   82.89
   4   5   5 2148.78   83.59
   4   5   5 2028.70   80.29
   4   5   5 2132.79   80.49
  -5  -5  -5  235.48    8.30
  -5  -5  -5  229.08   13.50
   5   5   5  222.28   11.60
   5   5   5  223.08   11.50
   5   5   5  243.68   13.00
  -6  -5  -5  117.09    8.80
  -6  -5  -5  103.49    4.70
   6   5   5  103.19    4.30
   6   5   5  101.29    7.20
   6   5   5  104.19    6.80
  -7  -5  -5   40.40    2.80
  -7  -5  -5   40.80    3.60
   7   5   5   51.99    5.40
   7   5   5   38.90    4.30
   8   5   5  317.57   18.20
   8   5   5  299.37   15.80
   9   5   5  296.67   16.00
   5  -6  -5  493.95   26.80
  -5   6   5  465.35   19.10
   4  -6  -5  172.38   12.90
  -4   6   5  154.68    8.00
   3  -6  -5 1601.34   63.79
   3  -6  -5 1375.96   58.59
  -3   6   5 1443.66   50.39
   2  -6  -5  186.48   12.60
   2  -6  -5  175.28    8.90
  -2   6   5  177.38    7.90
  -2   6   5  178.38   10.00
  -2   6   5  200.98   14.40
   1  -6  -5 2017.50   67.59
   1  -6  -5 2012.50   79.69
   1  -6  -5 2009.50   82.69
  -1   6   5 1939.51   82.09
  -1   6   5 2044.50   81.29
  -1   6   5 2093.59   67.79
  -1   6   5 2106.79  100.29
   0  -6  -5  281.47   15.10
   0  -6  -5  276.27   10.10
   0  -6  -5  262.97   12.10
   0   6   5  279.77   18.20
   0   6   5  293.77   16.00
   0   6   5  271.97   13.80
   0   6   5  270.77   10.30
  -1  -6  -5   15.30    1.10
  -1  -6  -5   16.70    1.70
  -1  -6  -5   18.50    2.90
   1   6   5   14.30    3.80
  -2  -6  -5   11.30    1.60
  -2  -6  -5   13.40    2.40
   2   6   5   12.80    3.10
   2   6   5   10.40    2.40
   2   6   5   17.50    4.40
  -3  -6  -5  462.05   20.00
  -3  -6  -5  476.05   19.80
   3   6   5  454.45   20.70
   3   6   5  472.35   28.10
   3   6   5  483.25   20.50
   3   6   5  401.96   21.90
   4   6   5   33.70    4.20
   4   6   5   32.90    3.50
   4   6   5   33.80    3.50
  -5  -6  -5  378.16   18.40
   5   6   5  377.26   17.90
   5   6   5  386.16   17.80
   5   6   5  401.06   19.40
  -6  -6  -5   73.29    6.50
   6   6   5   74.79    5.60
   6   6   5   74.49    6.20
   7   6   5  983.50   41.40
   7   6   5 1006.30   43.10
   8   6   5  201.98   13.80
   8   6   5  202.48   11.80
  -5   7   5  108.69    6.70
   4  -7  -5   18.90    5.10
  -4   7   5   33.10    3.20
   3  -7  -5  120.69   10.20
  -3   7   5   93.09    5.50
   2  -7  -5  125.89   10.20
  -2   7   5  130.49   12.00
  -2   7   5  123.29    6.10
   1  -7  -5  362.86   15.50
   1  -7  -5  352.96   19.40
   1  -7  -5  367.56   13.90
  -1   7   5  386.46   24.30
  -1   7   5  388.76   19.60
  -1   7   5  368.06   13.80
  -1   7   5  363.36   17.60
   0  -7  -5  673.23   29.10
   0  -7  -5  632.94   22.10
   0  -7  -5  619.44   25.50
   0   7   5  645.74   36.80
   0   7   5  634.34   22.10
   0   7   5  623.64   30.00
   0   7   5  642.44   28.40
  -1  -7  -5   84.19    6.10
  -1  -7  -5   81.79    3.40
  -1  -7  -5   80.09    4.00
   1   7   5   83.29    6.70
   1   7   5   80.89    7.80
   1   7   5   81.39    9.10
  -2  -7  -5 1404.96   54.19
  -2  -7  -5 1355.96   52.89
   2   7   5 1328.67   70.49
   2   7   5 1395.56   56.59
   2   7   5 1295.67   57.89
  -3  -7  -5 1869.51   69.99
  -3  -7  -5 1834.52   69.49
   3   7   5 1709.93   70.19
   3   7   5 1793.72   91.29
   3   7   5 1678.93   74.09
   3   7   5 1820.22   71.49
  -4  -7  -5    6.00    0.90
   4   7   5    2.50    1.30
  -5  -7  -5  620.44   25.60
   5   7   5  615.34   27.40
   5   7   5  619.64   26.70
  -6  -7  -5  640.34   27.30
   6   7   5  652.03   28.00
   6   7   5  637.54   29.00
  -7  -7  -5  301.77   14.80
   7   7   5  295.27   16.70
   7   7   5  290.77   15.00
   8   7   5   74.19    6.50
   8   7   5   79.69    8.20
  -4   8   5  660.43   24.80
  -3   8   5  234.38   18.60
  -3   8   5  216.58    9.90
   2  -8  -5  595.54   31.40
  -2   8   5  641.14   38.20
  -2   8   5  653.83   23.00
   1  -8  -5   25.40    4.60
  -1   8   5   23.30    2.10
  -1   8   5   21.20    6.00
   0  -8  -5  313.17   16.20
   0   8   5  333.87   23.20
   0   8   5  322.47   11.90
  -1  -8  -5   40.90    4.00
   1   8   5   48.40    5.20
   1   8   5   40.90    2.20
  -2  -8  -5  170.88    9.10
   2   8   5  158.38    9.50
   2   8   5  169.28   12.00
   2   8   5  186.18   15.90
  -3  -8  -5   54.79    4.20
   3   8   5   45.10    4.20
   3   8   5   56.19    8.70
   4   8   5   93.09   11.50
   4   8   5   89.89    6.10
   4   8   5   89.19    6.90
   5   8   5   73.59    5.60
   5   8   5   78.09    6.60
   6   8   5 1365.76   56.29
   6   8   5 1332.57   54.59
   7   8   5  138.69   10.50
   7   8   5  133.29    8.70
  -3   9   5  396.46   16.00
  -3   9   5  408.16   28.60
  -2   9   5    4.50    3.70
  -2   9   5    8.70    1.80
  -1   9   5   50.59    3.40
  -1   9   5   49.20    8.40
   0   9   5  592.44   38.00
   1   9   5  800.22   48.00
   2   9   5   80.29   11.00
   2   9   5   60.39    5.10
   3   9   5  273.37   13.70
   3   9   5  303.47   24.10
   4   9   5  115.99   14.10
   4   9   5  108.59    6.90
   4   9   5   99.99    7.90
   5   9   5   49.60    5.70
   5   9   5   63.29    5.00
   6   9   5  513.45   25.80
   6   9   5  545.35   23.80
  -2  10   5   59.99   10.10
  -1  10   5  184.98   18.10
   0  10   5  607.44   40.50
   1  10   5  257.07   22.60
   2  10   5  241.88   21.80
   2  10   5  214.28   11.50
   3  10   5   73.49    5.40
   3  10   5   71.39   11.90
   4  10   5   84.89   13.20
   4  10   5   84.79    6.00
   4  10   5   92.39    7.80
   5  10   5  207.58   11.20
   5  10   5  217.88   13.50
   0   6  -6  103.19    8.10
  -1   6  -6  157.78   10.50
  -1   6  -6  173.68   10.40
  -2   6  -6   57.09    5.80
  -2   6  -6   56.89    7.60
  -3   6  -6  903.01   35.00
  -4   6  -6    1.80    1.90
  -5   6  -6  447.86   20.40
   2   5  -6    1.90    1.30
   1   5  -6   75.99    5.00
   0   5  -6   45.30    4.90
   0   5  -6   38.10    2.80
  -1   5  -6  235.48   15.40
  -1   5  -6  231.78   12.60
  -2   5  -6  263.37   13.60
  -2   5  -6  262.27   13.20
  -2   5  -6  285.17   18.30
  -3   5  -6  905.51   34.60
  -4   5  -6   57.59    5.30
  -5   5  -6  411.16   18.00
  -6   5  -6 1135.79   42.00
   3   4  -6 1001.50   42.60
   2   4  -6   58.19    5.10
   1   4  -6  418.76   18.90
   0   4  -6  457.85   19.90
  -1   4  -6   18.50    3.30
  -1   4  -6   16.60    2.00
  -1   4  -6   15.40    3.50
  -2   4  -6  192.18   10.10
  -2   4  -6  202.98   10.90
  -3   4  -6   63.39    4.20
  -3   4  -6   55.69    5.00
  -4   4  -6  274.07   12.90
  -5   4  -6   91.79    6.30
  -6   4  -6 1071.29   39.30
  -7   4  -6    5.60    2.00
   4   3  -6   20.10    4.20
   3   3  -6  339.47   17.70
   2   3  -6  544.65   24.70
   1   3  -6  150.28    8.80
   0   3  -6 2618.54   99.69
   0   3  -6 2558.34  101.59
   0   3  -6 2517.75  120.39
  -1   3  -6  204.88   12.40
  -1   3  -6  189.08   10.10
  -1   3  -6  220.08   10.50
   1  -3   6  197.08    9.60
  -2   3  -6 1261.47   51.59
  -2   3  -6 1313.77   52.59
   2  -3   6 1360.56   51.29
  -3   3  -6    5.90    1.40
  -3   3  -6    6.50    2.00
  -4   3  -6    4.60    1.60
  -4   3  -6    6.60    1.60
  -5   3  -6  273.37   12.40
  -5   3  -6  269.37   13.30
  -6   3  -6  235.88   11.20
  -7   3  -6  363.66   15.70
  -8   3  -6  112.09    7.30
   5   2  -6  396.46   21.30
   4   2  -6  236.48   14.30
   3   2  -6   43.80    5.20
   3   2  -6   45.50    5.30
   2   2  -6  144.99    9.60
   2   2  -6  154.88    9.60
   1   2  -6   57.09    5.10
   1   2  -6   61.19    5.10
   0   2  -6 1376.36   55.59
   0   2  -6 1393.06   56.49
  -1   2  -6  468.95   22.90
  -1   2  -6  440.66   19.80
  -1   2  -6  443.26   19.90
   1  -2   6  412.56   19.10
  -2   2  -6 1033.30   41.60
  -2   2  -6 1052.59   42.10
   2  -2   6 1011.60   41.10
  -3   2  -6 1826.62   71.99
  -3   2  -6 1845.72   62.69
  -3   2  -6 1738.43   70.59
   3  -2   6 1843.32   70.59
  -4   2  -6    9.50    1.90
  -4   2  -6    5.00    1.50
   4  -2   6    8.80    1.80
  -5   2  -6 1571.94   55.79
  -5   2  -6 1587.64   64.99
   5  -2   6 1686.23   63.99
  -6   2  -6   90.29    5.80
  -6   2  -6   97.89    6.70
   6  -2   6  106.99    6.90
  -7   2  -6  142.09    7.90
  -7   2  -6  153.88    9.50
  -8   2  -6   21.30    3.40
   5   1  -6  381.16   20.60
   4   1  -6  110.89    8.90
   4   1  -6  102.29    8.70
  -4  -1   6  126.09    7.40
   3   1  -6    4.40    2.10
   3   1  -6    8.40    2.60
  -3  -1   6    7.00    1.50
   2   1  -6  130.39    9.00
   2   1  -6  148.49    9.50
  -2  -1   6  141.99    6.60
  -2  -1   6  138.59    6.40
   1   1  -6 2154.78   87.59
   1   1  -6 2288.47   89.49
   0   1  -6   55.39    4.80
   0  -1   6   52.99    4.70
  -1   1  -6 2036.80   79.69
  -1   1  -6 2109.09   81.19
   1  -1   6 1931.11   78.19
  -2   1  -6  621.64   26.80
  -2   1  -6  650.33   26.90
   2  -1   6  621.84   26.50
  -3   1  -6 2629.34  102.09
  -3   1  -6 2619.94  103.99
  -3   1  -6 2683.13   89.19
   3  -1   6 2643.74  101.99
  -4   1  -6   50.59    3.90
  -4   1  -6   40.50    3.50
   4  -1   6   39.60    3.60
  -5   1  -6  900.61   37.30
  -5   1  -6  883.21   31.80
   5  -1   6  879.01   36.40
  -6   1  -6  459.65   20.10
  -6   1  -6  432.96   17.40
  -6   1  -6  450.05   20.70
   6  -1   6  439.26   20.20
  -7   1  -6   20.00    3.60
  -7   1  -6   13.90    2.40
   7  -1   6   22.30    3.30
  -8   1  -6 1031.50   37.40
   8  -1   6 1040.80   43.90
  -9   1  -6   26.00    3.40
   5   0  -6  394.66   21.10
   4   0  -6    4.90    2.40
   4   0  -6    5.70    2.50
   3   0  -6  393.96   19.90
   3   0  -6  381.46   19.50
   2   0  -6  239.58   13.30
   2   0  -6  232.08   13.50
  -2   0   6  250.37   11.90
   1   0  -6  616.14   28.80
   1   0  -6  671.13   29.30
  -1   0   6  683.03   27.50
   0   0  -6   82.49    6.30
   0   0  -6   99.69    6.50
   0   0   6   89.09    5.20
   0   0   6   93.29    6.40
  -1   0  -6   84.69    6.30
  -1   0  -6   87.99    5.10
  -1   0  -6   97.19    6.40
   1   0   6   91.79    5.10
   1   0   6   99.69    5.90
  -2   0  -6 2668.53  103.79
  -2   0  -6 2689.73  105.69
   2   0   6 2624.34  101.39
   2   0   6 2711.83  104.49
  -3   0  -6  133.19    6.80
  -3   0  -6  132.39    7.60
  -3   0  -6  131.89    7.60
   3   0   6  132.19    7.60
   3   0   6  136.09    7.30
  -4   0  -6 2754.02  106.89
  -4   0  -6 2832.72  109.29
  -4   0  -6 2636.34   92.29
   4   0   6 2852.01  107.09
  -5   0  -6 1144.19   39.70
  -5   0  -6 1153.98   47.30
   5   0   6 1135.69   46.10
  -6   0  -6 1751.62   59.79
  -6   0  -6 1759.52   71.39
   6   0   6 1762.02   69.59
  -7   0  -6    0.70    0.90
  -7   0  -6    2.50    1.60
   7   0   6    0.20    1.20
  -8   0  -6  904.31   32.90
   8   0   6  911.51   38.80
  -9   0  -6   35.10    3.70
   9   0   6   31.40    4.60
   5  -1  -6  210.88   13.80
   4  -1  -6  159.68   11.00
   3  -1  -6   25.10    3.70
   3  -1  -6   21.40    4.10
  -3   1   6   22.30    3.10
   2  -1  -6  107.09    7.60
   2  -1  -6  108.49    8.20
  -2   1   6  109.09    6.90
   1  -1  -6   30.80    3.90
   1  -1  -6   29.60    3.70
  -1   1   6   41.20    3.70
   0  -1  -6  795.22   34.00
   0  -1  -6  794.42   34.00
   0   1   6  783.82   33.10
  -1  -1  -6   98.49    5.60
  -1  -1  -6   87.49    6.70
  -1  -1  -6   95.49    6.50
   1   1   6   97.99    6.00
  -2  -1  -6 4082.99  182.98
  -2  -1  -6 3807.92  150.28
  -2  -1  -6 3704.23  151.38
   2   1   6 3691.73  149.19
  -3  -1  -6    8.80    2.00
  -3  -1  -6    9.10    1.60
  -3  -1  -6   10.50    2.30
   3   1   6    5.90    1.60
   3   1   6    8.80    1.90
  -4  -1  -6 2183.18   87.19
  -4  -1  -6 2252.37   74.89
  -4  -1  -6 2275.67   89.49
   4   1   6 2221.68   87.29
   4   1   6 2280.67   89.49
  -5  -1  -6 1328.07   53.89
  -5  -1  -6 1285.77   44.50
   5   1   6 1306.07   52.39
  -6  -1  -6  151.78    6.90
  -6  -1  -6  146.49    9.10
   6   1   6  136.09    8.40
  -7  -1  -6 1376.36   48.20
  -7  -1  -6 1437.66   58.79
   7   1   6 1398.26   56.79
  -8  -1  -6  125.69    6.80
   8   1   6  127.89    8.60
  -9  -1  -6  416.76   16.80
   9   1   6  388.16   20.10
   5  -2  -6   16.80    4.20
   4  -2  -6 2228.08   90.79
  -4   2   6 2251.07   90.09
   3  -2  -6    2.50    1.90
   3  -2  -6    0.70    1.10
  -3   2   6    1.70    1.30
   2  -2  -6 2592.64  102.09
   2  -2  -6 2546.65  101.49
  -2   2   6 2507.45  118.79
  -2   2   6 2540.85  101.19
   1  -2  -6  529.85   23.90
   1  -2  -6  466.75   22.80
  -1   2   6  501.75   22.50
  -1   2   6  506.55   24.00
   0  -2  -6   88.49    6.40
   0  -2  -6  103.99    7.30
   0   2   6   85.49    6.10
  -1  -2  -6  140.29    9.30
  -1  -2  -6  171.28    9.40
  -1  -2  -6  155.58    9.20
   1   2   6  159.68    8.90
  -2  -2  -6  113.59    7.80
  -2  -2  -6  110.59    7.40
   2   2   6  115.09    7.10
  -3  -2  -6  128.79    9.60
  -3  -2  -6  125.69    5.90
  -3  -2  -6  131.89    7.70
  -3  -2  -6  123.39    8.00
   3   2   6  127.19    7.80
   3   2   6  131.59    7.80
  -4  -2  -6    4.00    1.30
  -4  -2  -6    6.00    1.10
  -4  -2  -6    8.90    2.20
   4   2   6    6.40    1.70
   4   2   6    4.50    1.60
   4   2   6    5.30    0.90
  -5  -2  -6 3139.49  110.59
  -5  -2  -6 3200.78  127.69
   5   2   6 3203.78  127.69
   5   2   6 3383.66  122.29
   5   2   6 3161.58  124.19
  -6  -2  -6    4.20    1.70
  -6  -2  -6    1.40    0.70
   6   2   6    1.40    1.20
  -7  -2  -6 3231.88  109.79
  -7  -2  -6 3478.05  132.79
   7   2   6 3229.18  128.29
  -8  -2  -6  257.57   11.20
   8   2   6  265.87   14.10
  -9  -2  -6  367.26   15.50
   9   2   6  393.66   19.30
   5  -3  -6   11.50    3.70
   4  -3  -6  508.65   25.50
  -4   3   6  493.95   23.20
   3  -3  -6   80.59    7.70
   3  -3  -6   90.79    6.60
  -3   3   6   90.39    6.50
   2  -3  -6  564.94   26.90
   2  -3  -6  563.94   25.30
  -2   3   6  547.35   25.00
  -2   3   6  571.84   28.50
   1  -3  -6 1978.50   79.69
   1  -3  -6 1960.60   79.49
  -1   3   6 1988.70   93.29
  -1   3   6 1964.20   79.19
   0  -3  -6  118.09    7.80
   0  -3  -6  122.19    6.20
   0  -3  -6  127.29    8.80
   0   3   6  145.79    8.20
   0   3   6  120.99    7.70
  -1  -3  -6 4091.29  140.19
  -1  -3  -6 4030.30  165.48
  -1  -3  -6 3959.20  161.28
   1   3   6 4352.96  161.68
  -2  -3  -6    5.80    1.90
  -2  -3  -6    8.10    2.40
   2   3   6    6.20    1.90
  -3  -3  -6  660.23   28.40
  -3  -3  -6  704.43   35.70
  -3  -3  -6  652.83   23.20
  -3  -3  -6  695.93   30.20
   3   3   6  664.73   28.70
   3   3   6  635.94   29.30
  -4  -3  -6  334.27   15.50
  -4  -3  -6  350.46   17.10
  -4  -3  -6  340.07   12.10
   4   3   6  310.37   16.30
   4   3   6  328.17   15.70
  -5  -3  -6  534.05   24.30
  -5  -3  -6  507.35   18.00
   5   3   6  519.05   21.30
   5   3   6  508.05   23.70
   5   3   6  492.95   22.50
  -6  -3  -6   58.19    3.30
  -6  -3  -6   64.79    6.00
   6   3   6   54.29    4.80
   6   3   6   69.69    6.10
   6   3   6   57.79    4.60
  -7  -3  -6  415.66   15.50
   7   3   6  405.46   19.30
  -8  -3  -6  630.94   23.20
   8   3   6  641.54   28.50
  -9  -3  -6    1.70    1.20
   9   3   6    0.20    1.30
   5  -4  -6  283.97   17.80
   4  -4  -6   66.09    7.40
   3  -4  -6  851.01   38.30
  -3   4   6  810.62   35.70
   2  -4  -6  419.16   21.70
   2  -4  -6  413.46   19.40
  -2   4   6  424.56   19.70
  -2   4   6  422.26   22.90
   1  -4  -6 3525.15  131.29
  -1   4   6 3218.88  156.58
  -1   4   6 3237.88  131.09
   0  -4  -6  451.15   16.40
   0  -4  -6  462.35   22.00
   0   4   6  419.36   23.30
   0   4   6  439.86   20.60
  -1  -4  -6 3138.49  140.39
  -1  -4  -6 3606.14  139.39
  -1  -4  -6 3798.12  121.89
   1   4   6 3664.93  168.58
   1   4   6 3676.43  141.69
  -2  -4  -6  897.71   37.10
  -2  -4  -6  856.21   30.00
  -2  -4  -6  823.12   37.30
  -2  -4  -6  920.01   45.30
   2   4   6  899.71   37.20
   2   4   6  863.81   37.90
  -3  -4  -6    3.80    2.00
  -3  -4  -6    2.90    1.40
  -3  -4  -6    0.70    0.40
  -3  -4  -6    2.00    1.20
   3   4   6    0.00    0.90
   3   4   6    1.40    1.40
  -4  -4  -6 1998.80   77.39
  -4  -4  -6 2032.90   66.39
   4   4   6 1954.50   77.59
   4   4   6 1899.61   79.99
  -5  -4  -6  572.44   19.70
   5   4   6  561.54   25.10
   5   4   6  596.74   26.80
   5   4   6  571.94   24.00
  -6  -4  -6  883.51   39.40
  -6  -4  -6  897.91   29.90
   6   4   6  823.42   36.40
   6   4   6  876.41   38.60
   6   4   6  893.21   36.30
  -7  -4  -6    8.20    1.40
   7   4   6    3.60    1.70
   7   4   6    3.10    2.00
   7   4   6   19.50    4.00
  -8  -4  -6  686.73   25.10
   8   4   6  712.43   31.00
   9   4   6   74.49    6.70
   5  -5  -6  662.73   32.60
  -5   5   6  588.34   24.30
   4  -5  -6    8.20    3.50
  -4   5   6   10.20    2.20
   3  -5  -6   26.70    5.10
  -3   5   6   19.20    2.70
   2  -5  -6 1076.79   45.70
   2  -5  -6  994.30   42.40
  -2   5   6  993.10   43.10
  -2   5   6 1042.50   52.09
   1  -5  -6   30.10    3.10
   1  -5  -6   32.70    4.80
  -1   5   6   32.20    4.30
  -1   5   6   29.60    3.50
   0  -5  -6 1852.61   60.69
   0  -5  -6 1627.84   73.69
   0  -5  -6 1883.61   72.99
   0   5   6 1855.41   88.39
   0   5   6 1873.01   73.89
  -1  -5  -6  361.16   18.20
  -1  -5  -6  347.87   16.60
   1   5   6  362.96   17.90
   1   5   6  359.56   20.60
  -2  -5  -6 2270.37   78.69
  -2  -5  -6 2248.77   93.49
  -2  -5  -6 2425.76   92.49
   2   5   6 2312.97  113.29
   2   5   6 2452.85   95.29
   2   5   6 2380.66   92.99
  -3  -5  -6  126.09    8.40
  -3  -5  -6  136.99    4.80
  -3  -5  -6  149.39    8.30
   3   5   6  130.39    8.40
   3   5   6  130.99    9.20
  -4  -5  -6 2993.40  114.89
  -4  -5  -6 3032.00  118.99
   4   5   6 2916.51  115.29
   4   5   6 2945.61  119.09
  -5  -5  -6   32.60    4.50
  -5  -5  -6   24.30    1.40
   5   5   6   25.30    3.80
   5   5   6   22.10    2.80
   5   5   6   22.40    3.10
  -6  -5  -6  281.67   10.50
  -6  -5  -6  300.47   17.00
   6   5   6  297.87   16.00
   6   5   6  281.87   14.40
   6   5   6  288.57   14.40
  -7  -5  -6  425.06   16.20
   7   5   6  471.65   21.60
   7   5   6  431.26   20.60
   8   5   6   90.49    8.30
   8   5   6   87.99    7.00
   9   5   6  236.98   13.70
   5  -6  -6    3.60    2.90
  -5   6   6    4.10    1.80
   4  -6  -6  107.09   10.10
  -4   6   6   95.79    6.10
   3  -6  -6  236.08   15.40
  -3   6   6  232.48   16.20
  -3   6   6  215.08   10.10
   2  -6  -6 1321.17   53.19
   2  -6  -6 1124.19   48.70
  -2   6   6 1139.49   41.60
  -2   6   6 1232.58   61.49
   1  -6  -6  186.18   12.30
   1  -6  -6  169.78    9.10
  -1   6   6  182.68    7.90
  -1   6   6  174.08   10.30
  -1   6   6  181.28   13.00
   0  -6  -6 1747.33   75.49
   0  -6  -6 1844.32   61.59
   0  -6  -6 1829.62   73.49
   0   6   6 1952.90   91.49
   0   6   6 1883.71   75.39
  -1  -6  -6 1054.69   43.20
  -1  -6  -6 1050.69   44.90
   1   6   6 1033.90   54.49
   1   6   6 1127.89   47.30
   1   6   6 1042.60   45.40
  -2  -6  -6  982.90   32.60
  -2  -6  -6 1003.30   41.50
  -2  -6  -6  978.90   40.80
   2   6   6  974.30   51.69
   2   6   6 1004.50   42.70
   2   6   6 1016.20   43.70
  -3  -6  -6 2340.47   93.79
  -3  -6  -6 2324.77   92.09
   3   6   6 2445.36   96.39
   3   6   6 2295.07   92.69
   3   6   6 2382.26  115.79
   3   6   6 2363.56   92.99
  -4  -6  -6  529.45   24.10
  -4  -6  -6  549.95   23.20
   4   6   6  513.45   25.40
   4   6   6  518.05   23.50
  -5  -6  -6  967.00   43.70
   5   6   6 1028.10   41.70
   5   6   6 1042.50   44.60
   5   6   6 1033.10   42.10
  -6  -6  -6    0.50    1.50
   6   6   6    4.00    1.90
   7   6   6  917.81   38.70
   7   6   6  852.71   37.50
   8   6   6  289.07   16.50
   8   6   6  250.67   14.30
   4  -7  -6  325.67   20.30
  -4   7   6  313.97   13.90
   3  -7  -6  325.97   19.30
  -3   7   6  314.57   21.20
  -3   7   6  294.87   13.00
   2  -7  -6  234.08   14.80
  -2   7   6  203.78   15.70
  -2   7   6  202.68    9.30
   1  -7  -6  145.59    7.70
   1  -7  -6  151.38   11.20
  -1   7   6  157.28    7.00
  -1   7   6  152.88   12.50
   0  -7  -6   10.00    3.10
   0  -7  -6    9.30    1.50
   0  -7  -6    9.20    1.20
   0   7   6   12.40    2.90
   0   7   6   12.30    4.10
  -1  -7  -6 1395.86   48.10
  -1  -7  -6 1384.46   57.49
  -1  -7  -6 1474.75   59.79
   1   7   6 1486.75   61.29
   1   7   6 1560.94   62.59
   1   7   6 1433.76   73.99
  -2  -7  -6  317.57   16.10
  -2  -7  -6  322.07   14.40
   2   7   6  337.77   18.40
   2   7   6  342.17   18.20
   2   7   6  319.37   21.60
  -3  -7  -6 2078.29   80.99
  -3  -7  -6 2068.19   81.09
   3   7   6 2117.99   82.59
   3   7   6 2013.00   85.29
   3   7   6 2135.49  103.59
   3   7   6 1935.41   81.39
  -4  -7  -6  202.18   10.50
  -4  -7  -6  198.08   10.00
   4   7   6  192.68   12.60
   4   7   6  187.38   10.70
  -5  -7  -6  835.32   35.10
   5   7   6  840.82   35.30
   5   7   6  810.82   35.00
  -6  -7  -6  722.83   31.90
   6   7   6  715.33   31.10
   6   7   6  727.93   31.90
   7   7   6  354.36   18.40
   7   7   6  326.67   16.80
   8   7   6  231.28   13.40
   8   7   6  249.58   15.40
  -4   8   6    1.10    2.70
  -4   8   6    7.60    2.20
  -3   8   6 1106.49   39.70
  -3   8   6 1137.89   60.79
   2  -8  -6   47.30    6.40
  -2   8   6   36.20    6.60
  -2   8   6   43.50    3.40
   1  -8  -6  354.86   20.20
  -1   8   6  380.46   24.70
  -1   8   6  374.56   14.30
   0  -8  -6   15.10    1.50
   0  -8  -6   21.80    4.20
   0   8   6   15.90    1.70
   0   8   6   16.30    5.20
  -1  -8  -6  349.27   14.60
  -1  -8  -6  346.17   17.70
   1   8   6  376.26   24.40
  -2  -8  -6   28.00    1.80
  -2  -8  -6   25.40    3.40
   2   8   6   32.80    6.10
  -3  -8  -6  676.73   28.70
  -3  -8  -6  672.63   26.50
   3   8   6  646.14   29.20
   3   8   6  683.03   40.30
  -4  -8  -6  939.71   36.30
   4   8   6  897.61   38.40
  -5  -8  -6    6.70    1.20
   5   8   6    4.60    1.90
   6   8   6 1841.92   73.79
   6   8   6 1802.92   72.69
   7   8   6    3.90    2.30
  -3   9   6  928.51   52.49
  -3   9   6  897.11   33.30
  -2   9   6  567.74   35.90
  -1   9   6  191.98   16.90
   0   9   6 1533.15   81.29
   1   9   6   20.10    5.90
   2   9   6  534.35   34.50
   3   9   6   20.20    3.10
   4   9   6  165.38   16.60
   4   9   6  154.38    9.30
   5   9   6   11.90    3.50
   5   9   6    8.10    2.40
   6   9   6  532.45   25.70
   6   9   6  517.55   23.90
  -1  10   6    0.80    3.00
   0  10   6 1309.77   72.79
   1  10   6   -0.10    2.70
   2  10   6  118.89    8.40
   2  10   6  153.28   15.90
   3  10   6  380.76   18.90
   3  10   6  438.16   31.40
   4  10   6   14.90    2.90
   4  10   6    8.50    3.20
   4  10   6    8.20    5.20
   5  10   6  440.46   22.50
   5  10   6  436.96   20.50
  -2   5  -7  368.46   18.00
  -3   5  -7  248.58   13.50
  -4   5  -7    8.90    2.90
  -5   5  -7    6.60    2.60
   2   4  -7   20.30    3.30
   1   4  -7  136.69    8.30
   0   4  -7  361.96   16.70
  -1   4  -7    5.40    1.60
  -2   4  -7  180.78   10.90
  -3   4  -7   21.00    3.90
  -4   4  -7  273.87   13.60
  -5   4  -7  166.98    9.80
  -6   4  -7  646.94   26.10
   3   3  -7  454.35   22.40
   2   3  -7  877.21   37.60
   1   3  -7   83.89    6.30
   0   3  -7 3139.79  121.69
  -1   3  -7  136.39    8.20
  -2   3  -7  523.45   22.70
  -3   3  -7   15.20    3.30
  -4   3  -7  117.69    7.60
  -5   3  -7   22.00    3.60
  -6   3  -7   58.89    5.20
  -7   3  -7   34.90    4.10
   4   2  -7  675.63   32.30
   3   2  -7   20.90    4.10
   2   2  -7  401.36   19.80
   1   2  -7  210.18   11.70
   0   2  -7  655.73   29.20
   0   2  -7  663.43   28.80
  -1   2  -7  134.69    8.30
  -1   2  -7  136.59    8.40
  -1   2  -7  134.79    7.60
   1  -2   7  118.39    7.60
  -2   2  -7  114.99    7.20
  -2   2  -7  112.09    7.20
   2  -2   7  107.89    6.70
  -3   2  -7 1266.57   52.49
  -3   2  -7 1249.68   51.59
  -3   2  -7 1342.67   46.90
   3  -2   7 1299.97   51.49
  -4   2  -7  782.62   33.00
  -4   2  -7  781.22   29.50
   4  -2   7  768.22   32.30
  -5   2  -7 1005.20   36.10
  -5   2  -7  959.00   41.00
  -6   2  -7  300.27   13.20
  -6   2  -7  278.67   14.80
  -7   2  -7    0.70    1.30
  -8   2  -7   74.79    5.70
   4   1  -7   71.99    7.70
   3   1  -7  249.68   15.10
   3   1  -7  263.07   15.20
   2   1  -7  150.48   10.00
   2   1  -7  139.19    9.60
   1   1  -7 1657.03   68.59
   1   1  -7 1759.52   70.39
   0   1  -7   43.80    4.40
   0   1  -7   45.70    4.60
  -1   1  -7 1895.51   76.89
  -1   1  -7 1868.41   75.59
   1  -1   7 1946.41   74.29
  -2   1  -7  300.47   15.10
  -2   1  -7  311.37   15.30
   2  -1   7  310.67   14.90
  -3   1  -7 1226.68   42.80
  -3   1  -7 1203.28   48.60
  -3   1  -7 1162.38   47.90
   3  -1   7 1130.39   47.50
  -4   1  -7   24.70    3.00
  -4   1  -7   15.70    2.60
   4  -1   7   25.60    3.10
  -5   1  -7  125.19    7.80
  -5   1  -7  125.79    7.00
   5  -1   7  119.59    7.60
  -6   1  -7   58.69    5.10
  -6   1  -7   54.99    4.40
   6  -1   7   51.89    4.80
  -7   1  -7  778.82   29.20
  -7   1  -7  780.02   34.60
   7  -1   7  793.82   34.10
  -8   1  -7  120.89    7.20
   4   0  -7   53.29    6.70
   3   0  -7  843.02   37.80
   3   0  -7  815.32   37.50
   2   0  -7  266.67   15.10
   2   0  -7  282.97   15.40
   1   0  -7 1171.08   48.80
   1   0  -7 1090.39   47.70
  -1   0   7 1174.68   46.20
   0   0  -7    5.70    2.00
   0   0  -7   11.90    2.60
   0   0   7    8.30    1.60
  -1   0  -7   33.10    3.90
  -1   0  -7   30.60    3.90
   1   0   7   45.60    3.90
   1   0   7   33.00    2.70
  -2   0  -7 1102.39   49.50
  -2   0  -7 1223.48   50.69
   2   0   7 1310.87   48.60
  -3   0  -7   89.29    6.20
  -3   0  -7   79.19    6.10
   3   0   7   83.79    6.00
  -4   0  -7 1003.90   42.70
  -4   0  -7 1040.80   36.60
  -4   0  -7 1019.50   42.00
   4   0   7 1030.20   42.00
  -5   0  -7   30.60    3.00
  -5   0  -7   32.60    3.60
   5   0   7   26.00    3.40
  -6   0  -7  729.83   26.50
  -6   0  -7  714.63   31.70
   6   0   7  711.03   30.90
  -7   0  -7  345.87   17.30
  -7   0  -7  323.97   13.90
   7   0   7  333.17   16.70
  -8   0  -7  127.89    7.10
   8   0   7  115.59    8.50
  -9   0  -7  338.07   14.80
   4  -1  -7  591.24   29.50
   3  -1  -7    2.20    1.90
   3  -1  -7    1.00    1.50
   2  -1  -7  421.86   21.00
   2  -1  -7  400.56   20.60
  -2   1   7  417.16   19.30
   1  -1  -7   54.39    5.30
   1  -1  -7   50.19    5.30
  -1   1   7   57.39    4.60
   0  -1  -7  267.57   14.50
   0  -1  -7  250.77   14.40
   0   1   7  319.47   13.80
  -1  -1  -7  465.55   23.00
  -1  -1  -7  500.75   23.10
   1   1   7  496.25   21.90
   1   1   7  537.45   22.30
  -2  -1  -7 2261.37   96.39
  -2  -1  -7 2640.64  115.79
  -2  -1  -7 2430.76   98.19
   2   1   7 2471.85   96.89
  -3  -1  -7  202.68   11.30
  -3  -1  -7  194.08   11.30
   3   1   7  222.98    9.00
   3   1   7  197.18   11.20
   3   1   7  206.38   10.70
  -4  -1  -7  666.53   24.30
  -4  -1  -7  631.74   28.40
  -4  -1  -7  668.63   29.20
   4   1   7  659.33   28.50
   4   1   7  676.33   28.80
  -5  -1  -7  628.04   28.00
  -5  -1  -7  632.94   23.00
   5   1   7  614.84   27.20
  -6  -1  -7   26.70    2.70
  -6  -1  -7   30.60    3.90
   6   1   7   28.20    3.60
  -7  -1  -7   58.09    5.60
  -7  -1  -7   50.49    3.80
   7   1   7   49.40    5.00
  -8  -1  -7  133.49    7.10
   8   1   7  131.79    9.00
  -9  -1  -7    7.10    2.10
   9   1   7    2.50    2.00
   5  -2  -7    4.80    2.90
   4  -2  -7 2081.39   86.29
   3  -2  -7    1.10    1.80
  -3   2   7    0.00    1.30
   2  -2  -7 1828.52   76.09
   2  -2  -7 1868.21   75.69
  -2   2   7 1847.52   74.99
   1  -2  -7   85.19    7.20
   1  -2  -7   85.79    6.80
  -1   2   7   90.49    6.60
   0  -2  -7  253.37   12.90
   0  -2  -7  219.58   12.70
   0   2   7  198.68   11.50
  -1  -2  -7    2.00    1.50
  -1  -2  -7    5.10    1.80
   1   2   7    4.00    1.60
  -2  -2  -7   59.69    5.60
  -2  -2  -7   66.49    5.60
  -2  -2  -7   64.69    5.30
   2   2   7   67.79    5.20
  -3  -2  -7   34.80    4.00
  -3  -2  -7   41.70    4.70
  -3  -2  -7   36.40    4.20
   3   2   7   40.30    4.00
   3   2   7   34.50    4.10
  -4  -2  -7  557.94   25.20
  -4  -2  -7  537.15   24.10
  -4  -2  -7  548.35   20.00
   4   2   7  527.35   24.50
   4   2   7  543.35   24.30
  -5  -2  -7  771.92   33.70
  -5  -2  -7  754.72   26.90
   5   2   7  754.92   32.50
   5   2   7  760.52   33.60
  -6  -2  -7 1134.69   48.00
  -6  -2  -7 1111.39   38.70
   6   2   7 1156.68   48.20
   6   2   7 1084.29   46.10
  -7  -2  -7  886.41   31.30
   7   2   7  883.61   37.70
  -8  -2  -7    9.60    2.00
   8   2   7   16.40    3.40
  -9  -2  -7   14.50    2.60
   5  -3  -7  193.08   14.40
   4  -3  -7 1070.09   48.40
   3  -3  -7  340.17   19.50
  -3   3   7  359.86   17.80
   2  -3  -7  278.87   16.00
   2  -3  -7  260.57   14.70
  -2   3   7  278.07   14.60
  -2   3   7  287.67   14.60
   1  -3  -7 2014.30   85.79
   1  -3  -7 2237.48   85.89
  -1   3   7 2119.79   85.49
  -1   3   7 2112.59   99.49
   0  -3  -7  684.53   32.00
   0  -3  -7  741.03   32.70
   0   3   7  750.82   32.10
  -1  -3  -7 1298.37   56.09
  -1  -3  -7 1376.96   56.39
  -1  -3  -7 1346.17   47.20
   1   3   7 1396.26   56.09
  -2  -3  -7  436.66   20.80
  -2  -3  -7  446.46   23.40
  -2  -3  -7  408.06   20.70
   2   3   7  433.26   20.40
  -3  -3  -7   19.00    3.00
  -3  -3  -7   14.00    3.00
   3   3   7   22.30    3.30
  -4  -3  -7   93.29    6.60
  -4  -3  -7   94.69    4.70
  -4  -3  -7   94.99    7.40
   4   3   7   97.69    7.10
   4   3   7   95.39    6.90
  -5  -3  -7   33.40    2.50
  -5  -3  -7   34.60    3.80
  -5  -3  -7   38.10    4.60
   5   3   7   42.90    4.30
   5   3   7   38.30    2.90
  -6  -3  -7   33.80    2.50
  -6  -3  -7   36.60    4.60
   6   3   7   29.50    4.30
   6   3   7   29.00    3.80
   6   3   7   35.90    3.20
  -7  -3  -7    1.00    0.80
   7   3   7    2.40    1.70
   7   3   7    0.70    1.60
  -8  -3  -7  100.69    5.60
   8   3   7  101.19    7.70
  -9  -3  -7  513.65   20.10
   9   3   7  527.65   25.00
   5  -4  -7  540.35   29.10
   4  -4  -7   81.69    8.60
   3  -4  -7  668.93   32.10
  -3   4   7  651.53   29.90
   2  -4  -7  113.79    9.20
  -2   4   7  109.69    7.70
  -2   4   7  105.19    7.60
   1  -4  -7 1861.91   73.09
   1  -4  -7 1778.02   72.39
  -1   4   7 1723.03   72.19
  -1   4   7 1724.43   84.49
   0  -4  -7   20.40    3.20
   0  -4  -7   25.80    4.60
   0   4   7   27.20    3.70
   0   4   7   21.50    3.00
  -1  -4  -7 1669.73   68.79
  -1  -4  -7 1734.33   56.99
  -1  -4  -7 1609.74   68.49
   1   4   7 1710.23   68.99
   1   4   7 1662.23   80.59
  -2  -4  -7  267.07   11.30
  -2  -4  -7  275.17   14.80
  -2  -4  -7  298.67   17.40
  -2  -4  -7  276.97   15.20
   2   4   7  288.07   15.00
  -3  -4  -7  693.53   31.60
  -3  -4  -7  727.63   32.60
  -3  -4  -7  762.72   39.30
   3   4   7  723.23   32.50
  -4  -4  -7  450.45   15.90
  -4  -4  -7  472.55   22.50
  -4  -4  -7  420.86   20.50
   4   4   7  449.66   21.80
   4   4   7  457.75   21.10
  -5  -4  -7 1947.51   77.19
  -5  -4  -7 1816.82   61.19
  -5  -4  -7 1776.22   73.09
   5   4   7 1838.12   75.99
   5   4   7 1878.71   71.39
   5   4   7 1816.42   73.49
  -6  -4  -7   63.49    6.50
  -6  -4  -7   52.89    3.10
   6   4   7   62.69    6.10
   6   4   7   60.19    5.40
   6   4   7   55.89    4.50
  -7  -4  -7  514.35   18.30
   7   4   7  481.05   22.70
   7   4   7  465.35   22.90
   7   4   7  547.75   25.50
  -8  -4  -7    9.40    1.70
   8   4   7   17.40    3.40
   9   4   7  156.08   10.50
   4  -5  -7   11.50    4.10
   3  -5  -7   49.00    6.60
  -3   5   7   58.99    6.10
   2  -5  -7 1058.39   45.80
  -2   5   7 1008.30   51.39
  -2   5   7 1007.40   43.80
   1  -5  -7    6.00    2.60
   1  -5  -7    4.70    1.80
  -1   5   7    9.90    2.70
  -1   5   7    4.20    1.90
   0  -5  -7 1040.40   44.80
   0  -5  -7 1097.59   46.60
   0   5   7 1082.29   45.60
   0   5   7 1050.79   53.09
  -1  -5  -7   11.50    3.20
  -1  -5  -7   10.10    2.30
   1   5   7    9.60    2.60
  -2  -5  -7  657.83   30.30
   2   5   7  726.23   31.00
   2   5   7  625.84   35.10
  -3  -5  -7  391.56   13.90
  -3  -5  -7  374.56   13.80
  -3  -5  -7  381.16   18.90
   3   5   7  414.16   20.10
  -4  -5  -7  651.03   22.60
  -4  -5  -7  654.13   29.30
  -4  -5  -7  748.13   31.60
   4   5   7  655.63   31.10
   4   5   7  667.73   29.70
  -5  -5  -7  512.35   17.60
  -5  -5  -7  572.44   26.10
  -5  -5  -7  484.95   23.10
   5   5   7  515.15   25.20
   5   5   7  523.25   22.40
   5   5   7  504.45   23.60
  -6  -5  -7   96.89    4.30
   6   5   7  108.79    8.50
   6   5   7   99.49    7.30
   6   5   7  105.29    6.90
   7   5   7   37.00    4.40
   7   5   7   32.20    4.10
   8   5   7  824.02   37.40
   8   5   7  836.62   36.30
   9   5   7   24.20    4.40
   4  -6  -7  288.07   18.60
   3  -6  -7  414.66   22.50
  -3   6   7  368.76   23.20
   2  -6  -7  848.42   38.40
  -2   6   7  786.32   42.80
   1  -6  -7  557.04   27.00
  -1   6   7  514.65   25.30
  -1   6   7  533.25   29.60
   0  -6  -7  305.47   17.30
   0  -6  -7  294.37   11.60
   0  -6  -7  307.57   14.80
   0   6   7  291.07   18.40
   0   6   7  309.07   16.10
  -1  -6  -7  466.55   23.20
  -1  -6  -7  464.85   16.40
  -1  -6  -7  467.65   21.20
   1   6   7  444.46   26.00
   1   6   7  467.45   23.00
  -2  -6  -7   16.40    1.30
  -2  -6  -7   23.70    3.10
  -3  -6  -7  968.00   44.00
  -3  -6  -7 1038.00   43.90
   3   6   7 1137.79   46.50
  -4  -6  -7    3.10    1.50
  -4  -6  -7    2.40    1.60
   4   6   7    6.40    2.70
  -5  -6  -7  137.69    9.50
   5   6   7  111.69    8.00
   5   6   7  118.89    9.30
   5   6   7  127.59    7.80
   6   6   7  592.64   25.80
   6   6   7  562.34   26.00
   7   6   7   13.80    3.40
   7   6   7   13.60    3.10
   8   6   7 1260.27   54.39
   8   6   7 1368.26   55.99
   4  -7  -7  100.19   10.30
   3  -7  -7  101.49    9.90
  -3   7   7   93.39    9.60
   2  -7  -7   65.89    7.50
  -2   7   7   49.00    6.60
   1  -7  -7   39.80    5.70
  -1   7   7   34.40    5.50
   0  -7  -7   72.99    7.60
   0  -7  -7   79.79    5.30
   0   7   7   75.39    7.90
  -1  -7  -7  610.14   26.80
  -1  -7  -7  654.03   29.90
   1   7   7  599.24   34.90
   1   7   7  656.63   30.40
  -2  -7  -7  836.02   35.30
  -2  -7  -7  866.71   37.00
   2   7   7  815.02   45.50
   2   7   7  854.61   38.80
  -3  -7  -7  651.13   28.20
  -3  -7  -7  657.73   28.90
   3   7   7  642.34   37.10
   3   7   7  681.33   31.90
   3   7   7  614.54   29.40
  -4  -7  -7  119.79    7.60
  -4  -7  -7  112.79    7.60
   4   7   7  109.39    7.90
  -5  -7  -7    4.80    1.90
   5   7   7    1.30    1.30
   5   7   7    2.90    1.80
   6   7   7   19.10    3.80
   6   7   7   13.00    2.90
   7   7   7   58.59    6.10
   7   7   7   50.09    5.30
   8   7   7    8.20    3.40
   8   7   7    7.80    2.70
  -3   8   7 1277.47   45.90
  -3   8   7 1311.47   68.39
   2  -8  -7   84.79    9.00
  -2   8   7   85.69    9.50
   1  -8  -7   57.49    7.10
  -1   8   7   60.39    7.80
   0  -8  -7  107.29    6.20
   0  -8  -7  122.69    9.80
   0   8   7  116.39   11.10
  -1  -8  -7    7.80    1.50
   1   8   7   11.50    4.00
  -2  -8  -7   94.89    7.40
  -2  -8  -7   90.19    5.20
   2   8   7   90.69   10.00
  -3  -8  -7   39.10    4.30
  -3  -8  -7   36.80    3.00
   3   8   7   31.10    4.40
   3   8   7   36.60    6.60
  -4  -8  -7  349.87   17.30
  -4  -8  -7  372.96   16.20
   4   8   7  348.47   17.80
  -5  -8  -7  330.07   15.20
   5   8   7  332.17   17.00
   5   8   7  307.37   16.30
   6   8   7  669.73   30.10
   6   8   7  678.13   30.70
   7   8   7  264.77   15.00
   7   8   7  305.67   16.70
  -2   9   7  158.98   14.70
  -1   9   7   23.30    6.20
   0   9   7  716.13   42.00
   1   9   7  395.66   26.90
   2   9   7   52.49    8.30
   3   9   7  240.58   14.00
   3   9   7  269.07   20.90
   4   9   7    2.40    1.70
   5   9   7  489.35   23.60
   5   9   7  472.15   22.60
   6   9   7    0.80    1.40
   6   9   7    0.70    1.80
   0  10   7  458.75   31.20
   1  10   7  102.39   12.60
   2  10   7   52.59    9.20
   3  10   7   11.80    3.00
   3  10   7    8.20    5.20
   4  10   7  690.03   31.90
   4  10   7  774.82   47.00
   5  10   7   42.90    4.70
   5  10   7   35.90    5.20
   0   4  -8    9.90    2.50
  -1   4  -8  625.94   26.80
  -2   4  -8   75.19    7.20
  -3   4  -8  616.34   26.60
  -4   4  -8    2.60    2.20
  -5   4  -8  822.52   33.00
   1   3  -8  280.67   14.60
   0   3  -8  481.15   22.10
  -1   3  -8  663.23   29.00
  -2   3  -8   27.90    3.50
  -3   3  -8  293.37   15.10
  -4   3  -8  991.10   38.10
  -5   3  -8  425.86   19.10
  -6   3  -8  544.05   23.00
   2   2  -8   10.70    2.80
   1   2  -8   38.10    4.40
   0   2  -8   25.90    3.70
  -1   2  -8  127.19    8.40
  -2   2  -8  572.84   25.80
  -3   2  -8   36.20    4.10
  -3   2  -8   35.70    4.60
  -4   2  -8 2308.27   80.49
  -5   2  -8   23.70    3.90
  -6   2  -8  794.62   30.70
  -7   2  -8  186.48   10.20
   3   1  -8    3.00    2.30
   2   1  -8 1373.96   57.29
   1   1  -8   85.89    6.90
   0   1  -8  548.95   25.30
   0   1  -8  562.14   25.80
  -1   1  -8    5.60    2.00
  -2   1  -8   44.20    4.70
  -2   1  -8   46.30    4.90
   2  -1   8   57.89    5.00
  -3   1  -8   30.40    3.70
  -3   1  -8   30.00    3.80
   3  -1   8   27.10    3.50
  -4   1  -8  584.84   26.40
  -4   1  -8  617.04   24.10
  -4   1  -8  587.74   26.70
   4  -1   8  587.84   26.20
  -5   1  -8  238.58   11.70
  -5   1  -8  235.68   12.80
  -6   1  -8  177.68   11.20
  -6   1  -8  221.38   10.50
  -7   1  -8 2258.37   92.69
  -7   1  -8 2271.27   77.99
  -8   1  -8   26.70    3.90
   3   0  -8   13.10    3.70
   2   0  -8  989.20   42.70
   2   0  -8  969.40   43.50
   1   0  -8    1.60    1.60
   1   0  -8    0.40    1.30
   0   0  -8  238.08   13.20
   0   0  -8  234.88   13.20
  -1   0  -8  755.72   34.20
  -1   0  -8  793.62   34.70
   1   0   8  809.62   31.60
  -2   0  -8  114.79    6.90
  -2   0  -8  104.89    7.70
  -2   0  -8  116.99    8.20
   2   0   8  110.29    6.40
  -3   0  -8 1319.07   55.29
  -3   0  -8 1357.86   54.59
   3   0   8 1294.87   53.99
  -4   0  -8    4.90    2.00
  -4   0  -8    0.30    1.10
  -4   0  -8    1.60    1.30
   4   0   8    0.20    1.10
  -5   0  -8  465.65   18.20
  -5   0  -8  427.36   21.00
   5   0   8  437.86   20.80
  -6   0  -8   66.49    5.00
  -6   0  -8   72.29    6.20
   6   0   8   71.59    6.00
  -7   0  -8  803.92   35.30
  -7   0  -8  770.92   29.30
   7   0   8  785.72   34.30
  -8   0  -8   10.90    2.40
   3  -1  -8  312.37   18.00
   2  -1  -8  140.79   10.20
   2  -1  -8  140.69   10.10
   1  -1  -8  982.00   42.00
   1  -1  -8  930.31   41.20
   0  -1  -8  257.17   14.60
   0  -1  -8  267.67   14.70
   0   1   8  282.47   13.20
  -1  -1  -8 3102.19  127.69
  -1  -1  -8 3218.18  129.99
   1   1   8 3535.25  126.29
   1   1   8 3213.28  128.09
  -2  -1  -8   26.40    2.70
  -2  -1  -8   21.50    3.50
   2   1   8   18.40    2.70
   2   1   8   22.00    2.60
  -3  -1  -8 1166.48   49.60
  -3  -1  -8 1204.28   57.49
  -3  -1  -8 1117.29   48.50
   3   1   8 1101.39   48.30
   3   1   8 1226.68   45.10
   3   1   8 1156.58   47.60
  -4  -1  -8   61.89    5.60
  -4  -1  -8   55.69    5.50
  -4  -1  -8   63.89    4.80
   4   1   8   68.09    5.80
   4   1   8   69.29    5.20
  -5  -1  -8   18.10    3.40
  -5  -1  -8   20.30    3.20
  -5  -1  -8   20.70    2.60
   5   1   8   27.20    3.70
  -6  -1  -8  611.24   23.20
  -6  -1  -8  612.64   28.40
   6   1   8  622.74   27.60
  -7  -1  -8    8.90    2.00
   7   1   8    9.80    2.70
  -8  -1  -8  840.42   31.80
   8   1   8  901.01   38.20
  -9  -1  -8  104.89    6.60
   9   1   8  101.09    8.50
   4  -2  -8  238.58   16.00
   3  -2  -8  734.63   34.70
   2  -2  -8    5.60    2.50
   1  -2  -8  127.49    9.30
   1  -2  -8  127.59    9.10
  -1   2   8  123.99    8.10
   0  -2  -8 1079.69   46.20
   0  -2  -8 1059.59   45.70
   0   2   8 1082.59   44.90
  -1  -2  -8  195.18   11.70
  -1  -2  -8  200.28   12.20
   1   2   8  208.78   11.00
  -2  -2  -8 1052.99   44.50
  -2  -2  -8  966.20   44.00
  -2  -2  -8 1047.00   50.09
   2   2   8 1059.59   43.30
  -3  -2  -8  474.15   23.00
  -3  -2  -8  497.85   26.00
  -3  -2  -8  460.85   23.00
   3   2   8  476.75   23.10
   3   2   8  497.75   22.20
  -4  -2  -8 2195.48   73.99
  -4  -2  -8 2028.50   88.49
  -4  -2  -8 2260.97   86.99
   4   2   8 2247.08   87.79
   4   2   8 2171.78   86.79
  -5  -2  -8   51.99    3.90
  -5  -2  -8   57.09    5.70
  -5  -2  -8   57.09    5.40
   5   2   8   61.99    5.60
   5   2   8   57.99    5.40
  -6  -2  -8 1698.23   70.09
  -6  -2  -8 1649.04   57.49
   6   2   8 1721.33   69.99
   6   2   8 1679.53   68.19
  -7  -2  -8    8.60    1.80
   7   2   8    5.60    2.10
  -8  -2  -8   57.29    4.30
   8   2   8   73.49    6.50
  -9  -2  -8  185.68    9.30
   9   2   8  177.78   11.80
   4  -3  -8   48.20    6.80
   3  -3  -8   17.90    4.50
   2  -3  -8   83.69    7.60
  -2   3   8   66.09    6.20
   1  -3  -8  135.49    9.90
   1  -3  -8  141.79    9.70
  -1   3   8  141.39    9.30
   0  -3  -8 1929.31   80.19
   0  -3  -8 2034.10   79.69
   0   3   8 1912.81   79.39
  -1  -3  -8   13.50    2.90
   1   3   8    9.60    2.40
  -2  -3  -8 2882.31  128.39
  -2  -3  -8 2730.53  108.79
  -2  -3  -8 2433.56  106.99
   2   3   8 2768.62  108.19
  -3  -3  -8 1356.06   65.99
  -3  -3  -8 1284.37   55.39
  -3  -3  -8 1350.46   56.39
   3   3   8 1341.97   55.49
  -4  -3  -8  895.61   39.10
  -4  -3  -8  894.41   32.20
  -4  -3  -8  924.51   40.80
   4   3   8  946.21   39.70
   4   3   8  900.21   39.30
  -5  -3  -8  539.55   25.20
  -5  -3  -8  560.84   20.30
   5   3   8  551.24   26.00
   5   3   8  552.04   22.20
   5   3   8  562.64   25.50
  -6  -3  -8  362.86   19.20
  -6  -3  -8  355.06   13.80
   6   3   8  353.26   18.70
   6   3   8  352.96   17.90
  -7  -3  -8  244.38   10.30
   7   3   8  244.18   13.60
   7   3   8  242.58   14.70
  -8  -3  -8  136.29    7.10
   8   3   8  150.38    9.90
   9   3   8  993.10   43.30
   4  -4  -8  522.35   27.80
   3  -4  -8   40.40    5.90
  -3   4   8   29.80    5.10
   2  -4  -8  394.86   20.80
  -2   4   8  366.86   19.30
   1  -4  -8   11.20    3.20
  -1   4   8    6.20    2.20
  -1   4   8    8.80    1.90
   0  -4  -8  484.75   22.90
   0  -4  -8  411.46   21.40
   0   4   8  436.46   21.60
  -1  -4  -8  183.18   11.40
  -1  -4  -8  196.18   12.50
   1   4   8  200.38   11.60
  -2  -4  -8    9.20    2.60
  -2  -4  -8    5.50    1.50
  -2  -4  -8    6.40    2.40
  -2  -4  -8    2.80    2.10
   2   4   8   10.20    2.70
  -3  -4  -8 2966.80  118.69
  -3  -4  -8 2878.11  116.49
   3   4   8 3011.20  118.39
  -4  -4  -8    5.10    1.20
  -4  -4  -8   10.30    2.70
   4   4   8    2.60    1.90
   4   4   8    4.50    2.20
  -5  -4  -8 3349.26  122.89
  -5  -4  -8 2893.41  117.59
  -5  -4  -8 2818.82   99.29
   5   4   8 3014.90  114.69
   5   4   8 3074.59  121.09
   5   4   8 2906.81  117.99
  -6  -4  -8  293.27   11.60
   6   4   8  323.97   17.20
   6   4   8  317.67   14.10
   6   4   8  284.37   15.80
  -7  -4  -8  841.52   30.40
   7   4   8  926.41   40.30
   7   4   8  856.41   37.80
   8   4   8  249.68   14.30
   9   4   8  256.57   14.90
   4  -5  -8  201.18   14.90
   3  -5  -8  519.85   27.10
   2  -5  -8  169.58   12.20
   1  -5  -8  659.33   30.10
  -1   5   8  588.84   31.70
  -1   5   8  595.94   28.50
   0  -5  -8   33.20    4.80
   0   5   8   35.10    4.10
   0   5   8   37.00    4.70
  -1  -5  -8  218.58   13.10
  -1  -5  -8  250.77   14.90
   1   5   8  286.37   14.50
   1   5   8  218.08   14.40
  -2  -5  -8    0.50    1.70
  -3  -5  -8 1936.91   67.59
  -3  -5  -8 2068.79   82.99
  -3  -5  -8 1957.00   81.59
   3   5   8 2120.79   83.39
  -4  -5  -8   66.59    6.40
  -4  -5  -8   60.29    3.20
  -4  -5  -8   63.19    6.00
   4   5   8   66.89    6.60
   4   5   8   60.79    6.30
  -5  -5  -8 1076.49   36.60
  -5  -5  -8 1103.59   45.80
   5   5   8 1095.49   47.90
   5   5   8 1087.19   46.20
   6   5   8 1468.25   63.99
   6   5   8 1481.75   61.69
   6   5   8 1563.24   59.89
   7   5   8    3.50    1.90
   7   5   8    7.40    2.50
   8   5   8 1172.98   49.70
   9   5   8    8.40    2.90
   3  -6  -8 1367.46   59.99
   2  -6  -8    2.60    2.40
  -2   6   8    5.70    2.50
   1  -6  -8 1743.93   70.79
  -1   6   8 1607.44   81.79
   0  -6  -8  430.16   21.90
   0   6   8  374.16   22.50
   0   6   8  395.06   21.30
  -1  -6  -8   26.50    5.20
   1   6   8   32.30    4.60
   1   6   8   30.60    4.50
  -2  -6  -8 1028.90   45.90
  -2  -6  -8 1000.30   44.80
   2   6   8 1049.20   53.79
   2   6   8 1126.99   46.60
  -3  -6  -8   64.59    6.40
  -3  -6  -8   63.29    5.90
  -3  -6  -8   65.29    3.30
   3   6   8   78.39    7.20
  -4  -6  -8  402.36   20.10
   4   6   8  391.36   20.60
   4   6   8  430.56   21.80
  -5  -6  -8    5.30    2.10
   5   6   8    4.00    2.00
   6   6   8 1267.47   50.19
   6   6   8 1181.78   51.19
   7   6   8    8.90    2.80
   7   6   8    0.10    1.50
   8   6   8 1500.75   62.09
   3  -7  -8  164.38   13.10
   2  -7  -8  553.44   27.90
  -2   7   8  500.35   29.90
   1  -7  -8  134.89   11.00
  -1   7   8  128.09   10.70
   0  -7  -8 1346.57   57.49
   0   7   8 1289.27   66.59
  -1  -7  -8  141.79   10.80
   1   7   8  128.39   10.90
  -2  -7  -8 1702.13   69.79
   2   7   8 1653.43   83.89
  -3  -7  -8   46.60    5.30
  -4  -7  -8  285.77   15.30
   4   7   8  278.87   15.90
  -5  -7  -8  428.66   20.40
   5   7   8  408.36   20.80
   6   7   8   26.90    3.90
   6   7   8   19.10    3.70
   7   7   8  574.24   25.90
   7   7   8  502.15   25.20
   8   7   8   69.99    6.70
   2  -8  -8  512.95   27.30
  -2   8   8  493.95   30.20
   1  -8  -8  339.57   20.00
  -1   8   8  320.27   21.60
   0  -8  -8  640.34   31.90
   0   8   8  645.94   36.60
  -1  -8  -8  795.02   36.40
   1   8   8  739.63   42.10
  -2  -8  -8  958.70   42.10
   2   8   8  924.91   50.89
  -3  -8  -8  767.92   34.00
   3   8   8  737.83   42.60
  -4  -8  -8   12.30    3.00
   4   8   8    8.40    2.80
   5   8   8  903.11   39.40
   6   8   8  271.77   15.40
   6   8   8  293.17   15.90
   7   8   8  360.76   18.90
   7   8   8  322.67   17.70
  -1   9   8 1054.99   57.39
   0   9   8   34.30    6.40
   1   9   8 1478.45   76.99
   2   9   8   48.40    7.90
  -3  -9  -8  686.13   28.40
   3   9   8  652.13   31.90
   3   9   8  703.33   41.20
   4   9   8   75.79    7.10
   5   9   8  403.66   20.40
   6   9   8   74.99    6.90
   6   9   8   89.89    8.00
   1  10   8  373.66   26.40
   2  10   8  683.83   42.00
   3  10   8   77.89    7.60
   3  10   8   88.79   11.80
   4  10   8 1313.97   55.39
  -1   3  -9  631.54   28.20
  -2   3  -9   22.30    3.80
  -3   3  -9   71.29    7.20
  -4   3  -9  328.87   17.00
  -5   3  -9   28.70    5.00
   1   2  -9   20.60    3.80
   0   2  -9    6.40    2.20
  -1   2  -9   17.20    3.40
  -2   2  -9  611.84   27.90
  -3   2  -9   44.10    5.00
  -3   2  -9   46.80    5.80
  -4   2  -9 1643.64   59.99
  -5   2  -9    3.20    2.20
  -6   2  -9  212.18   11.90
   1   1  -9    6.70    2.30
   0   1  -9  558.84   25.90
  -1   1  -9   12.20    3.00
  -2   1  -9  141.49    9.70
  -3   1  -9   84.09    7.00
  -4   1  -9  118.09    8.60
  -4   1  -9  132.29    8.70
  -5   1  -9   16.10    3.40
  -6   1  -9   42.00    4.80
  -7   1  -9  844.72   32.60
   2   0  -9 1127.89   48.50
   1   0  -9   66.69    6.30
   0   0  -9   35.40    4.60
   0   0  -9   43.80    5.10
  -1   0  -9  741.33   32.70
  -1   0  -9  699.93   32.10
  -2   0  -9  568.34   26.70
  -2   0  -9  571.34   26.80
  -3   0  -9  425.66   21.10
  -3   0  -9  439.96   21.40
   3   0   9  398.16   20.30
  -4   0  -9   60.29    5.80
  -4   0  -9   54.39    5.60
  -4   0  -9   55.49    5.30
   4   0   9   52.19    5.40
  -5   0  -9  154.38    9.00
  -5   0  -9  155.88   10.20
   5   0   9  152.18   10.40
  -6   0  -9   36.10    4.10
  -6   0  -9   32.90    4.60
  -7   0  -9  419.66   18.00
  -8   0  -9   18.80    3.20
   2  -1  -9  145.69   10.50
   1  -1  -9  916.31   40.10
   0  -1  -9  166.18   10.80
   0  -1  -9  166.28   10.80
  -1  -1  -9 2246.28   89.99
  -1  -1  -9 2171.68   88.49
  -2  -1  -9   29.00    4.40
  -2  -1  -9   28.20    4.30
  -3  -1  -9  627.94   30.10
  -3  -1  -9  695.83   30.60
   3   1   9  647.64   30.00
  -4  -1  -9    9.10    2.80
  -4  -1  -9    4.80    2.00
  -4  -1  -9    4.20    2.20
   4   1   9   12.10    2.90
  -5  -1  -9  503.45   23.80
  -5  -1  -9  474.95   23.90
  -5  -1  -9  513.25   20.40
   5   1   9  487.65   23.60
  -6  -1  -9   95.09    6.30
  -6  -1  -9   91.69    7.70
   6   1   9  103.59    7.90
  -7  -1  -9  365.16   15.50
   7   1   9  356.36   18.60
  -8  -1  -9    4.80    1.90
   3  -2  -9  956.10   43.70
   2  -2  -9  119.49    9.50
   1  -2  -9  237.08   14.10
   0  -2  -9  787.72   35.60
   0  -2  -9  786.72   35.20
  -1  -2  -9  183.28   11.30
  -1  -2  -9  180.68   11.60
  -2  -2  -9  406.96   21.00
  -2  -2  -9  406.86   20.60
   2   2   9  416.96   19.20
  -3  -2  -9    9.40    2.70
  -3  -2  -9   11.30    3.20
   3   2   9   16.10    3.00
  -4  -2  -9  566.44   27.20
  -4  -2  -9  585.64   28.00
  -4  -2  -9  588.84   23.00
   4   2   9  549.65   26.90
   4   2   9  598.24   26.20
  -5  -2  -9  686.83   32.30
  -5  -2  -9  700.93   26.40
  -5  -2  -9  694.13   31.50
   5   2   9  708.13   31.70
  -6  -2  -9  461.15   18.20
   6   2   9  453.05   22.40
  -7  -2  -9  368.76   15.40
   7   2   9  377.66   19.20
  -8  -2  -9    3.20    1.50
   8   2   9    3.20    2.20
   3  -3  -9   27.80    5.50
   2  -3  -9  220.78   14.20
   1  -3  -9  323.07   17.80
   0  -3  -9 1982.70   78.39
   0   3   9 1853.71   77.79
  -1  -3  -9   30.10    4.30
  -1  -3  -9   32.00    4.80
   1   3   9   30.80    4.00
  -2  -3  -9 1001.30   45.90
  -2  -3  -9 1086.49   46.10
   2   3   9 1087.59   45.00
  -3  -3  -9  668.63   33.30
  -3  -3  -9  770.72   39.00
  -3  -3  -9  759.62   33.80
   3   3   9  735.73   32.50
  -4  -3  -9  364.86   15.50
  -4  -3  -9  370.56   19.40
  -4  -3  -9  382.56   19.80
   4   3   9  379.96   18.70
   4   3   9  362.06   19.50
  -5  -3  -9   72.99    7.20
  -5  -3  -9   76.49    4.90
  -5  -3  -9   73.09    6.70
   5   3   9   82.19    6.80
   5   3   9   76.19    7.00
  -7  -3  -9    9.30    1.90
   7   3   9    5.80    2.50
  -8  -3  -9  822.12   30.30
   8   3   9  849.91   37.40
   3  -4  -9   10.60    3.60
   2  -4  -9  322.97   18.60
   1  -4  -9   11.40    3.40
  -1   4   9    5.80    2.40
   0  -4  -9  379.66   20.10
   0   4   9  371.26   19.00
  -1  -4  -9   39.30    5.40
   1   4   9   38.10    4.60
  -2  -4  -9    1.30    1.40
  -2  -4  -9    3.20    2.20
   2   4   9    2.90    1.90
  -3  -4  -9 1232.78   52.09
  -3  -4  -9 1167.38   51.79
   3   4   9 1215.38   51.39
  -4  -4  -9  490.05   24.00
  -4  -4  -9  450.65   23.30
  -4  -4  -9  454.75   18.10
   4   4   9  502.85   23.40
   4   4   9  462.55   23.80
  -5  -4  -9  622.64   23.30
  -5  -4  -9  613.94   29.50
   5   4   9  704.93   30.60
   5   4   9  631.74   29.90
  -6  -4  -9   21.50    2.20
   6   4   9   25.60    4.70
   6   4   9   18.00    3.70
   7   4   9   13.30    3.30
   7   4   9   21.40    4.60
   8   4   9  123.89    9.40
   3  -5  -9  949.21   44.00
   2  -5  -9   23.20    4.80
   1  -5  -9  459.75   23.90
   0  -5  -9  206.18   13.30
   0   5   9  189.98   12.30
  -1  -5  -9  167.48   11.70
   1   5   9  155.38   10.50
  -2  -5  -9  307.97   18.00
   2   5   9  322.27   17.10
  -3  -5  -9  501.15   25.90
   3   5   9  541.15   25.60
  -4  -5  -9    6.40    1.40
  -4  -5  -9    6.40    2.60
   4   5   9   10.30    3.20
   4   5   9    7.90    3.10
  -5  -5  -9  236.28   14.00
  -5  -5  -9  225.78    9.40
   5   5   9  234.08   14.40
   5   5   9  257.97   14.90
   6   5   9  504.85   26.50
   6   5   9  628.24   29.40
   7   5   9  165.98   11.30
   8   5   9  341.17   18.50
   2  -6  -9   15.20    4.40
   1  -6  -9  775.82   36.60
   0  -6  -9  230.28   14.70
   0   6   9  210.98   13.90
  -1  -6  -9   40.20    5.80
   1   6   9   38.80    4.90
  -2  -6  -9  286.77   17.30
   2   6   9  292.77   16.90
  -3  -6  -9   97.39    8.70
   3   6   9  107.39    9.10
  -4  -6  -9   12.40    3.20
   4   6   9    4.90    2.60
  -5  -6  -9  260.47   15.00
   5   6   9  262.57   15.60
   6   6   9  173.08   10.10
   6   6   9  166.78   11.40
   7   6   9  367.06   19.60
   8   6   9   95.59    8.20
   2  -7  -9  638.64   32.30
   1  -7  -9  154.58   12.10
   0  -7  -9  903.21   40.20
   0   7   9  784.22   43.90
  -1  -7  -9  361.36   20.40
   1   7   9  339.87   21.30
  -2  -7  -9  617.44   30.50
  -3  -7  -9  482.85   24.80
  -4  -7  -9   87.19    7.80
   4   7   9   82.89    8.20
  -5  -7  -9   14.30    3.50
   5   7   9   12.90    3.50
   6   7   9  132.79   10.10
   6   7   9  143.79    9.40
   7   7   9   13.60    3.60
   1  -8  -9  112.39   10.60
   0  -8  -9  218.38   15.00
   0   8   9  198.18   15.00
  -1  -8  -9  171.88   12.90
   1   8   9  160.28   13.20
  -2  -8  -9  129.19   10.60
   2   8   9  121.39   11.40
  -3  -8  -9  200.28   13.40
  -4  -8  -9  241.18   14.60
   4   8   9  239.68   15.50
  -5  -8  -9  273.47   15.60
   5   8   9  272.57   16.20
   6   8   9  944.61   40.20
   6   8   9  878.71   40.50
   0   9   9   43.60    7.10
   1   9   9  667.33   38.70
  -2  -9  -9    8.00    3.70
   2   9   9    4.70    3.60
   3   9   9   51.09    6.90
   3   9   9   53.09    8.00
   4   9   9   38.60    5.60
   5   9   9    6.30    2.70
  -2   2 -10   31.10    4.60
  -3   2 -10  811.52   36.40
  -3   2 -10  845.42   34.50
  -4   2 -10  324.77   17.10
  -1   1 -10  235.48   13.80
  -2   1 -10  113.39    8.80
  -3   1 -10  438.06   22.00
  -4   1 -10  155.58   10.80
  -4   1 -10  176.28   11.10
  -5   1 -10   68.59    6.70
  -6   1 -10  845.22   33.80
   0   0 -10  188.38   11.90
  -1   0 -10    1.00    1.80
  -2   0 -10 1788.92   73.29
  -3   0 -10   85.69    7.80
  -4   0 -10  882.71   40.00
  -4   0 -10  923.71   35.70
  -5   0 -10   88.09    7.10
  -5   0 -10   82.69    7.60
  -6   0 -10  482.15   21.10
  -7   0 -10   24.90    4.10
   1  -1 -10   58.69    6.30
   0  -1 -10  414.16   21.10
  -1  -1 -10  214.98   12.80
  -1  -1 -10  198.28   12.60
  -2  -1 -10  780.22   36.20
  -2  -1 -10  827.62   36.40
  -3  -1 -10  102.39    8.50
  -3  -1 -10  105.49    8.80
   3   1  10  102.99    8.60
  -4  -1 -10   79.39    6.60
  -4  -1 -10   69.09    7.10
  -4  -1 -10   67.19    6.90
   4   1  10   58.89    6.60
  -5  -1 -10 1755.42   74.19
  -5  -1 -10 1746.03   72.29
  -5  -1 -10 1756.92   62.39
  -6  -1 -10   30.30    4.20
  -7  -1 -10 1026.00   38.20
   1  -2 -10   52.39    6.10
   0  -2 -10   89.59    7.80
  -1  -2 -10  101.59    8.30
  -3  -2 -10  594.24   28.40
  -3  -2 -10  606.14   28.90
   3   2  10  579.84   28.50
  -4  -2 -10   21.90    3.90
  -4  -2 -10   20.80    4.60
  -4  -2 -10   17.80    4.00
   4   2  10   14.10    3.60
  -5  -2 -10 2440.96   97.89
  -5  -2 -10 2495.55   83.79
   5   2  10 2345.87   97.49
  -6  -2 -10   27.00    3.70
   6   2  10   26.40    5.00
  -7  -2 -10  649.14   25.50
   7   2  10  664.23   31.00
  -8  -2 -10  492.75   20.10
   1  -3 -10 1364.26   57.99
   0  -3 -10   82.29    7.70
  -1  -3 -10  791.12   36.00
  -2  -3 -10   40.70    5.60
  -3  -3 -10   20.90    4.40
  -4  -3 -10  218.18   10.90
  -4  -3 -10  201.58   13.40
   4   3  10  196.98   13.40
  -5  -3 -10   44.90    4.20
  -5  -3 -10   42.70    5.80
  -6  -3 -10  444.86   17.90
   6   3  10  434.86   22.70
  -7  -3 -10   95.69    6.10
   7   3  10  106.29    9.00
   8   3  10 1541.25   64.89
   1  -4 -10  448.96   23.40
   0  -4 -10   80.49    7.80
  -1  -4 -10   56.19    6.50
  -2  -4 -10  975.30   43.40
   2   4  10  945.51   41.70
  -3  -4 -10  343.27   20.10
   3   4  10  389.16   19.10
  -4  -4 -10 1243.28   55.09
  -4  -4 -10 1276.87   45.50
   4   4  10 1254.27   55.39
   4   4  10 1327.67   54.59
  -5  -4 -10   -0.20    1.50
  -5  -4 -10    1.20    1.20
   5   4  10    2.60    2.40
   5   4  10    1.50    2.00
  -6  -4 -10  467.05   23.70
  -6  -4 -10  448.56   17.90
   6   4  10  476.85   24.00
   7   4  10  268.67   16.20
   8   4  10  313.47   18.00
   1  -5 -10   10.50    3.40
   0  -5 -10  977.00   42.30
   0   5  10  873.81   41.80
  -1  -5 -10  428.86   22.30
   1   5  10  386.96   20.60
  -2  -5 -10 1106.19   48.70
   2   5  10 1071.89   47.20
  -3  -5 -10  122.19   10.40
   3   5  10  133.19    9.60
  -4  -5 -10  635.44   31.70
  -4  -5 -10  657.63   24.50
   4   5  10  653.73   32.30
   4   5  10  681.23   31.20
  -5  -5 -10  195.48   13.60
   5   5  10  221.48   14.50
   5   5  10  242.98   14.40
  -6  -5 -10  136.49   10.30
   6   5  10  133.99   10.70
   7   5  10  773.92   36.10
   8   5  10   55.59    6.60
   1  -6 -10  104.99    9.60
   0  -6 -10  124.69   10.60
  -1  -6 -10 1239.58   54.49
  -2  -6 -10   14.40    4.20
  -3  -6 -10 1431.86   62.09
  -4  -6 -10   14.10    4.00
   4   6  10   19.00    4.80
  -5  -6 -10  857.41   39.20
   5   6  10  854.71   39.90
  -6  -6 -10   -0.20    1.60
   6   6  10    1.70    2.20
   7   6  10  778.02   36.40
   0  -7 -10  195.38   14.10
  -1  -7 -10 1277.17   56.49
  -2  -7 -10   10.20    3.70
  -3  -7 -10  848.82   40.10
  -4  -7 -10 1258.77   53.99
   4   7  10 1189.68   54.69
  -5  -7 -10  219.08   14.50
   5   7  10  232.18   15.40
  -6  -7 -10  857.41   37.80
   6   7  10  784.52   38.10
   7   7  10   14.20    4.00
   0  -8 -10  246.68   16.80
  -1  -8 -10  111.89   10.60
  -2  -8 -10  306.67   19.20
  -3  -8 -10   21.90    5.50
  -4  -8 -10 1621.04   67.39
   4   8  10 1530.65   68.29
  -5  -8 -10   65.29    7.40
   5   8  10   66.39    8.00
   6   8  10 1259.37   55.29
  -2  -9 -10  141.09   12.20
   2   9  10  127.19   12.20
  -3  -9 -10   38.40    6.20
   4   9  10  203.08   16.10
  -2   0 -11 1270.37   54.29
  -3   0 -11   94.09    8.50
  -4   0 -11  596.84   26.00
  -4   0 -11  578.24   28.60
  -5   0 -11   65.09    7.20
  -5   0 -11   64.09    6.60
  -1  -1 -11    0.30    1.60
  -2  -1 -11  624.84   29.80
  -3  -1 -11  174.08   12.30
  -4  -1 -11    0.00    1.80
  -4  -1 -11    2.70    2.30
  -5  -1 -11  677.33   27.70
  -5  -1 -11  634.24   31.50
  -6  -1 -11   52.69    5.70
  -1  -2 -11   90.79    8.00
  -2  -2 -11   26.60    4.90
  -3  -2 -11  418.26   22.40
  -4  -2 -11   52.39    6.80
  -4  -2 -11   56.99    5.90
  -5  -2 -11 1259.87   55.89
  -5  -2 -11 1317.17   47.80
  -6  -2 -11    2.60    2.00
   0  -3 -11   10.80    3.40
  -1  -3 -11  372.76   20.10
  -2  -3 -11  161.68   11.70
  -3  -3 -11   22.00    5.00
  -4  -3 -11  101.39    7.50
  -4  -3 -11  100.09    9.30
   4   3  11  109.59    9.60
  -5  -3 -11   10.90    3.70
  -5  -3 -11    7.40    2.40
   5   3  11   14.50    4.20
  -6  -3 -11   39.60    4.40
  -6  -3 -11   48.20    6.40
   6   3  11   43.00    6.20
   7   3  11   65.89    7.70
   0  -4 -11  242.28   15.20
  -1  -4 -11    8.20    3.20
  -2  -4 -11  511.05   26.30
  -3  -4 -11  741.43   35.60
  -4  -4 -11  358.06   16.20
  -4  -4 -11  349.96   20.60
   4   4  11  370.26   21.00
  -5  -4 -11  222.68   11.20
  -5  -4 -11  230.28   15.20
   5   4  11  223.68   15.20
   6   4  11   13.10    4.00
   7   4  11   35.00    6.40
   0  -5 -11  456.85   24.20
  -1  -5 -11  142.29   11.10
  -2  -5 -11  711.33   34.50
  -3  -5 -11   10.30    3.70
  -4  -5 -11  135.29   11.40
   4   5  11  143.79   11.90
  -5  -5 -11  102.39    9.50
   5   5  11   91.09    9.40
  -6  -5 -11  375.16   21.30
   6   5  11  375.26   21.60
   7   5  11  163.78   12.70
  -1  -6 -11 1288.07   56.59
  -2  -6 -11    1.60    2.10
  -3  -6 -11  435.96   24.40
  -4  -6 -11   17.20    4.80
   4   6  11    6.80    3.40
  -5  -6 -11   52.79    7.00
   5   6  11   45.00    7.00
  -6  -6 -11  383.66   21.60
   6   6  11  374.36   22.00
  -1  -7 -11  595.64   30.70
  -2  -7 -11   29.80    6.20
  -3  -7 -11  346.07   21.10
  -4  -7 -11  334.97   20.30
   4   7  11  319.97   20.80
  -5  -7 -11    2.10    2.30
   5   7  11    0.40    2.40
  -3  -8 -11   18.60    5.20
  -4  -8 -11  607.24   31.60
   4   8  11  611.54   32.80
  -4  -3 -12   61.59    6.10
  -3  -4 -12 1655.83   71.89
  -4  -4 -12   78.19    8.90
  -4  -4 -12   65.79    6.80
   4   4  12   75.39    8.70
  -3  -5 -12  493.45   26.70
  -4  -5 -12  199.98   15.00
   4   5  12  219.58   15.60
   0   0   0    0.00    0.00

_computing_structure_solution     'SHELXT 2014/5 (Sheldrick, 2014)'
;
_shelx_hkl_checksum              8790
_olex2_submission_special_instructions 'No special instructions were received'
loop_
_space_group_symop_operation_xyz
'x, y, z'
'-x, -y, -z'
loop_
_atom_site_label
_atom_site_type_symbol
_atom_site_fract_x
_atom_site_fract_y
_atom_site_fract_z
_atom_site_U_iso_or_equiv
_atom_site_adp_type
_atom_site_occupancy
_atom_site_site_symmetry_order
_atom_site_calc_flag
_atom_site_refinement_flags_posn
_atom_site_refinement_flags_adp
_atom_site_refinement_flags_occupancy
_atom_site_disorder_assembly
_atom_site_disorder_group
I1 I 0.48063(3) 0.99175(3) 0.26641(3) 0.01095(8) Uani 1 1 d . . . . .
I2 I 0.94419(3) 0.75718(3) 0.46883(3) 0.00976(7) Uani 1 1 d . . . . .
Cu1 Cu 0.58688(6) 0.84714(6) 0.52292(6) 0.01355(11) Uani 1 1 d . . . . .
Cu2 Cu 0.15741(6) 0.92531(5) 0.52961(5) 0.01188(11) Uani 1 1 d . . . . .
S1 S 0.39974(12) 0.59789(11) 0.67154(11) 0.01028(17) Uani 1 1 d . . . . .
N1 N 0.1148(4) 0.7887(4) 0.7732(4) 0.0100(6) Uani 1 1 d . . . . .
N2 N 0.2075(4) 0.5753(4) 0.9830(4) 0.0117(6) Uani 1 1 d . . . . .
C1 C 0.2220(4) 0.6586(4) 0.8279(4) 0.0093(6) Uani 1 1 d . . . . .
C2 C -0.0240(5) 0.8371(4) 0.8889(5) 0.0121(7) Uani 1 1 d . . . . .
H2 H -0.106123 0.926078 0.856231 0.015 Uiso 1 1 calc R . . . .
C3 C -0.0497(5) 0.7592(5) 1.0554(5) 0.0134(7) Uani 1 1 d . . . . .
H3 H -0.145208 0.794907 1.137228 0.016 Uiso 1 1 calc R . . . .
C4 C 0.0704(5) 0.6275(4) 1.0961(4) 0.0134(7) Uani 1 1 d . . . . .
H4 H 0.055197 0.571347 1.209017 0.016 Uiso 1 1 calc R . . . .
C5 C 0.5276(5) 0.4445(5) 0.7871(5) 0.0171(8) Uani 1 1 d . . . . .
H5A H 0.641793 0.410818 0.711001 0.026 Uiso 1 1 calc GR . . . .
H5B H 0.446578 0.345053 0.863543 0.026 Uiso 1 1 calc GR . . . .
H5C H 0.564294 0.493757 0.849732 0.026 Uiso 1 1 calc GR . . . .
loop_
_atom_site_aniso_label
_atom_site_aniso_U_11
_atom_site_aniso_U_22
_atom_site_aniso_U_33
_atom_site_aniso_U_23
_atom_site_aniso_U_13
_atom_site_aniso_U_12
I1 0.00945(12) 0.01562(13) 0.00851(13) -0.00610(9) -0.00234(9) 0.00027(9)
I2 0.01010(12) 0.00984(12) 0.01041(13) -0.00467(9) -0.00440(9) 0.00175(8)
Cu1 0.0124(2) 0.0144(2) 0.0124(2) -0.00426(18) -0.00349(18) -0.00039(16)
Cu2 0.0132(2) 0.0136(2) 0.0080(2) -0.00240(17) -0.00460(17) 0.00044(16)
S1 0.0105(4) 0.0110(4) 0.0092(4) -0.0046(3) -0.0029(3) 0.0014(3)
N1 0.0077(13) 0.0111(14) 0.0112(15) -0.0044(12) -0.0033(12) 0.0003(11)
N2 0.0124(14) 0.0136(14) 0.0089(15) -0.0038(12) -0.0040(12) 0.0004(11)
C1 0.0081(15) 0.0102(15) 0.0085(17) -0.0032(13) -0.0014(13) -0.0024(12)
C2 0.0105(15) 0.0121(16) 0.0121(18) -0.0030(14) -0.0039(14) 0.0002(13)
C3 0.0131(16) 0.0176(18) 0.0101(18) -0.0072(15) -0.0020(14) -0.0019(14)
C4 0.0156(17) 0.0142(17) 0.0080(17) -0.0017(14) -0.0033(14) -0.0028(13)
C5 0.0159(17) 0.0132(17) 0.018(2) -0.0021(15) -0.0080(16) 0.0053(14)
loop_
_atom_type_symbol
_atom_type_description
_atom_type_scat_dispersion_real
_atom_type_scat_dispersion_imag
_atom_type_scat_source
C C 0.0033 0.0016 'International Tables Vol C Tables 4.2.6.8 and 6.1.1.4'
H H 0.0000 0.0000 'International Tables Vol C Tables 4.2.6.8 and 6.1.1.4'
Cu Cu 0.3201 1.2651 'International Tables Vol C Tables 4.2.6.8 and 6.1.1.4'
I I -0.4742 1.8119 'International Tables Vol C Tables 4.2.6.8 and 6.1.1.4'
N N 0.0061 0.0033 'International Tables Vol C Tables 4.2.6.8 and 6.1.1.4'
S S 0.1246 0.1234 'International Tables Vol C Tables 4.2.6.8 and 6.1.1.4'
loop_
_geom_angle_atom_site_label_1
_geom_angle_atom_site_label_2
_geom_angle_atom_site_label_3
_geom_angle
_geom_angle_site_symmetry_1
_geom_angle_site_symmetry_3
_geom_angle_publ_flag
Cu1 I1 Cu1 61.397(17) . 2_676 ?
Cu1 I1 Cu2 75.071(15) . . ?
Cu2 I1 Cu1 61.288(14) . 2_676 ?
Cu1 I2 Cu2 117.689(16) . 1_655 ?
Cu1 I2 Cu2 61.275(14) . 2_676 ?
Cu2 I2 Cu2 60.378(16) 1_655 2_676 ?
I1 Cu1 I1 118.603(17) . 2_676 ?
I1 Cu1 Cu1 58.385(17) 2_676 2_676 ?
I1 Cu1 Cu1 60.218(17) . 2_676 ?
I1 Cu1 Cu2 59.034(14) 2_676 2_676 ?
I1 Cu1 Cu2 102.668(18) . 2_676 ?
I2 Cu1 I1 102.626(16) . 2_676 ?
I2 Cu1 I1 118.291(18) . . ?
I2 Cu1 Cu1 132.52(3) . 2_676 ?
I2 Cu1 Cu2 61.057(14) . 2_676 ?
Cu1 Cu1 Cu2 72.79(2) 2_676 2_676 ?
S1 Cu1 I1 106.74(3) . 2_676 ?
S1 Cu1 I1 102.21(3) . . ?
S1 Cu1 I2 107.55(3) . . ?
S1 Cu1 Cu1 119.34(3) . 2_676 ?
S1 Cu1 Cu2 155.07(3) . 2_676 ?
I1 Cu2 I2 100.631(15) . 2_676 ?
I1 Cu2 Cu1 59.678(14) . 2_676 ?
I1 Cu2 Cu2 115.69(2) . 2_576 ?
I2 Cu2 I1 104.617(16) 1_455 . ?
I2 Cu2 I2 119.624(16) 1_455 2_676 ?
I2 Cu2 Cu1 160.22(2) 1_455 2_676 ?
I2 Cu2 Cu1 57.667(14) 2_676 2_676 ?
I2 Cu2 Cu2 60.969(16) 1_455 2_576 ?
Cu2 Cu2 I2 58.655(16) 2_576 2_676 ?
Cu2 Cu2 Cu1 112.74(3) 2_576 2_676 ?
N1 Cu2 I1 129.28(8) . . ?
N1 Cu2 I2 102.30(8) . 2_676 ?
N1 Cu2 I2 102.16(8) . 1_455 ?
N1 Cu2 Cu1 97.43(8) . 2_676 ?
N1 Cu2 Cu2 114.92(8) . 2_576 ?
C1 S1 Cu1 99.82(11) . . ?
C1 S1 C5 101.35(17) . . ?
C5 S1 Cu1 106.84(13) . . ?
C1 N1 Cu2 125.1(2) . . ?
C1 N1 C2 116.4(3) . . ?
C2 N1 Cu2 118.4(2) . . ?
C1 N2 C4 115.8(3) . . ?
N1 C1 S1 114.7(3) . . ?
N2 C1 S1 118.5(3) . . ?
N2 C1 N1 126.8(3) . . ?
N1 C2 C3 121.3(3) . . ?
C4 C3 C2 116.8(3) . . ?
N2 C4 C3 122.9(3) . . ?
loop_
_geom_bond_atom_site_label_1
_geom_bond_atom_site_label_2
_geom_bond_distance
_geom_bond_site_symmetry_2
_geom_bond_publ_flag
I1 Cu1 2.6385(5) . ?
I1 Cu1 2.6891(5) 2_676 ?
I1 Cu2 2.6712(5) . ?
I2 Cu1 2.6326(5) . ?
I2 Cu2 2.7265(5) 2_676 ?
I2 Cu2 2.6632(5) 1_655 ?
Cu1 Cu1 2.7202(9) 2_676 ?
Cu1 Cu2 2.7322(6) 2_676 ?
Cu1 S1 2.3635(9) . ?
Cu2 Cu2 2.7107(8) 2_576 ?
Cu2 N1 2.050(3) . ?
S1 C1 1.767(3) . ?
S1 C5 1.796(4) . ?
N1 C1 1.343(4) . ?
N1 C2 1.346(5) . ?
N2 C1 1.324(5) . ?
N2 C4 1.342(5) . ?
C2 C3 1.392(5) . ?
C3 C4 1.381(5) . ?
