#------------------------------------------------------------------------------
#$Date: 2021-09-06 14:21:20 +0300 (Mon, 06 Sep 2021) $
#$Revision: 268791 $
#$URL: file:///home/coder/svn-repositories/cod/cif/7/70/77/7707725.cif $
#------------------------------------------------------------------------------
#
# This file is available in the Crystallography Open Database (COD),
# http://www.crystallography.net/
#
# All data on this site have been placed in the public domain by the
# contributors.
#
data_7707725
loop_
_publ_author_name
'de Campos, Nath\'alia R'
'Simosono, Cintia A.'
'Landre Rosa, Iara M.'
'da Silva, Rafaela M. R.'
'Doriguetto, Ant\^onio C'
'do Pim, Walace D.'
'Gomes Sim\~oes, Tatiana R'
'Valdo, Ana Karoline S. M.'
'Martins, Felipe T.'
'Sarmiento, Charlie V.'
'Nunes, Wallace C.'
'Guedes, Guilherme P.'
'Pedroso, Emerson F.'
'Pereira, Cynthia L. M.'
'Stumpf, Humberto O.'
'Lloret, Francesc'
'Julve, Miguel'
'Marinho, Maria Vanda'
_publ_section_title
;
 Building-up host-guest helicate motifs and chains: a magneto-structural
 study of new field-induced cobalt-based single-ion magnets.
;
_journal_issue                   31
_journal_name_full
'Dalton transactions (Cambridge, England : 2003)'
_journal_page_first              10707
_journal_page_last               10728
_journal_paper_doi               10.1039/d1dt01693h
_journal_volume                  50
_journal_year                    2021
_chemical_formula_sum            'C20 H28 Co2 N4 O20'
_chemical_formula_weight         762.32
_space_group_crystal_system      triclinic
_space_group_IT_number           1
_space_group_name_Hall           'P 1'
_space_group_name_H-M_alt        'P 1'
_atom_sites_solution_hydrogens   mixed
_audit_creation_method           SHELXL-2018/3
_audit_update_record
;
2018-12-06 deposited with the CCDC.	2021-06-28 downloaded from the CCDC.
;
_cell_angle_alpha                94.828(4)
_cell_angle_beta                 94.349(5)
_cell_angle_gamma                105.697(8)
_cell_formula_units_Z            1
_cell_length_a                   7.6054(3)
_cell_length_b                   9.5171(4)
_cell_length_c                   10.8397(7)
_cell_measurement_reflns_used    3832
_cell_measurement_temperature    296(2)
_cell_measurement_theta_max      25.036
_cell_measurement_theta_min      2.236
_cell_volume                     748.66(7)
_computing_structure_refinement  'SHELXL-2018/3 (Sheldrick, 2018)'
_diffrn_ambient_temperature      296(2)
_diffrn_measured_fraction_theta_full 0.972
_diffrn_measured_fraction_theta_max 0.972
_diffrn_measurement_device_type  'Bruker APEX-II CCD'
_diffrn_radiation_type           MoK\a
_diffrn_radiation_wavelength     0.71073
_diffrn_reflns_av_R_equivalents  0.0258
_diffrn_reflns_av_unetI/netI     0.0492
_diffrn_reflns_Laue_measured_fraction_full 0.972
_diffrn_reflns_Laue_measured_fraction_max 0.972
_diffrn_reflns_limit_h_max       8
_diffrn_reflns_limit_h_min       -9
_diffrn_reflns_limit_k_max       11
_diffrn_reflns_limit_k_min       -10
_diffrn_reflns_limit_l_max       12
_diffrn_reflns_limit_l_min       -8
_diffrn_reflns_number            3832
_diffrn_reflns_point_group_measured_fraction_full 0.557
_diffrn_reflns_point_group_measured_fraction_max 0.557
_diffrn_reflns_theta_full        25.036
_diffrn_reflns_theta_max         25.036
_diffrn_reflns_theta_min         2.236
_exptl_absorpt_coefficient_mu    1.202
_exptl_absorpt_correction_T_max  0.887
_exptl_absorpt_correction_T_min  0.752
_exptl_absorpt_correction_type   multi-scan
_exptl_absorpt_process_details
'Blessing, R. H. (1995) Acta Cryst., A51, 33-38'
_exptl_crystal_colour            red
_exptl_crystal_density_diffrn    1.691
_exptl_crystal_description       prism
_exptl_crystal_F_000             390
_exptl_crystal_size_max          0.28
_exptl_crystal_size_mid          0.15
_exptl_crystal_size_min          0.10
_refine_diff_density_max         1.086
_refine_diff_density_min         -0.459
_refine_diff_density_rms         0.098
_refine_ls_abs_structure_details
;
 Refined as an inversion twin.
;
_refine_ls_abs_structure_Flack   0.92(8)
_refine_ls_extinction_method     none
_refine_ls_goodness_of_fit_ref   1.045
_refine_ls_hydrogen_treatment    constr
_refine_ls_matrix_type           full
_refine_ls_number_parameters     392
_refine_ls_number_reflns         2938
_refine_ls_number_restraints     340
_refine_ls_restrained_S_all      0.993
_refine_ls_R_factor_all          0.0733
_refine_ls_R_factor_gt           0.0571
_refine_ls_shift/su_max          0.000
_refine_ls_shift/su_mean         0.000
_refine_ls_structure_factor_coef Fsqd
_refine_ls_weighting_details
'w=1/[\s^2^(Fo^2^)+(0.0980P)^2^+1.0654P] where P=(Fo^2^+2Fc^2^)/3'
_refine_ls_weighting_scheme      calc
_refine_ls_wR_factor_gt          0.1542
_refine_ls_wR_factor_ref         0.1709
_reflns_Friedel_coverage         0.147
_reflns_Friedel_fraction_full    0.143
_reflns_Friedel_fraction_max     0.143
_reflns_number_gt                2300
_reflns_number_total             2938
_reflns_threshold_expression     'I > 2\s(I)'
_cod_data_source_file            d1dt01693h2.cif
_cod_data_source_block           comp_3
_cod_depositor_comments
'Adding full bibliography for 7707725--7707729.cif.'
_cod_database_code               7707725
_shelx_shelxl_version_number     2018/3
_shelx_space_group_comment
;
The symmetry employed for this shelxl refinement is uniquely defined
by the following loop, which should always be used as a source of
symmetry information in preference to the above space-group names.
They are only intended as comments.
;
_shelx_res_file
;
TITL SIR2011 run in space group P 1
    shelxl.res
    created by SHELXL-2018/3 at 18:53:32 on 29-Nov-2018
CELL  0.71073   7.6054   9.5171  10.8397   94.828   94.349  105.697
ZERR     1.00   0.0003   0.0004   0.0007    0.004    0.005    0.008
LATT  -1
SFAC  C    H    N    O    CO
UNIT  48   10   16   30   4
MERG   2
OMIT     0   0   1
OMIT    -3   1   3
OMIT    -3   1   2
TWIN
SIMU
DELU
EADP  C6 C5 C4 C4
EADP   C20 C16 C17
FMAP   2
PLAN   25
ACTA
BOND   $H
CONF
L.S.  99
TEMP    23.00
WGHT    0.098000    1.065400
BASF   0.92127
FVAR       0.14452
CO1   5    0.456095    0.995766    0.174025    11.00000    0.03723    0.02918 =
         0.02644   -0.00132    0.00454    0.01762
CO2   5   -0.045263    1.995996    0.674965    11.00000    0.09290    0.03436 =
         0.01925   -0.00033    0.00613    0.03349
O10   4    0.869018    0.163552   -0.228807    11.00000    0.12282    0.02663 =
         0.01822   -0.00067    0.01199    0.03256
O11   4    0.972660   -0.060476   -0.153916    11.00000    0.11172    0.04778 =
         0.02366    0.00965    0.00723    0.05242
O2    4    0.418910    1.088293    0.008444    11.00000    0.04160    0.03160 =
         0.02233   -0.00191    0.00828    0.01845
O8    4    0.487763    0.899369    0.330472    11.00000    0.04237    0.03574 =
         0.02824   -0.00235    0.00134    0.01315
C9    1    0.040364    1.838716    0.462697    11.00000    0.04860    0.02306 =
         0.03116    0.00707    0.00666    0.01774
N2    3    0.078818    1.753346    0.378226    11.00000    0.05078    0.03594 =
         0.02694    0.01126    0.01479    0.02072
AFIX  43
H2N   2    0.069189    1.776950    0.303662    11.00000   -1.20000
AFIX   0
C8    1    0.348904    1.192478    0.019420    11.00000    0.03880    0.01989 =
         0.02363   -0.00649    0.00446    0.00232
C17   1    0.591815    0.746192    0.186594    11.00000    0.02740    0.02360 =
         0.02119    0.00113   -0.00028    0.00419
C20   1    0.945642    0.025105   -0.072181    11.00000    0.02740    0.02360 =
         0.02119    0.00113   -0.00028    0.00419
N1    3    0.255325    1.355870    0.174873    11.00000    0.05241    0.03057 =
         0.03259   -0.00380    0.00071    0.02519
AFIX  43
H1N   2    0.234034    1.396362    0.109475    11.00000   -1.20000
AFIX   0
O9    4    0.607199    0.729537    0.404463    11.00000    0.06044    0.04542 =
         0.02047    0.00517    0.01007    0.02589
O3    4    0.291981    1.261005   -0.059717    11.00000    0.05552    0.02247 =
         0.03527   -0.00040   -0.00937    0.00334
O7    4    0.549128    0.822369    0.103074    11.00000    0.03654    0.03503 =
         0.02462    0.00123   -0.00159    0.02079
C10   1   -0.026467    1.971360    0.407449    11.00000    0.06179    0.02610 =
         0.02133    0.00099    0.00540    0.01939
C7    1    0.321529    1.232576    0.159661    11.00000    0.02615    0.02320 =
         0.03600   -0.00645    0.00152    0.01189
C18   1    0.562623    0.794894    0.317932    11.00000    0.03033    0.02920 =
         0.03067    0.00318    0.00588    0.00714
C19   1    0.877518    0.144391   -0.115512    11.00000    0.04357    0.02987 =
         0.01471   -0.00424    0.00015    0.00989
O5    4   -0.072962    2.055089    0.492669    11.00000    0.08395    0.02457 =
         0.01753   -0.00549    0.00456    0.02547
N4    3    0.831400    0.236345   -0.028702    11.00000    0.02907    0.02898 =
         0.01956    0.00091   -0.00097    0.01598
AFIX  43
H4N   2    0.834638    0.212306    0.045986    11.00000   -1.20000
AFIX   0
O4    4    0.047813    1.834297    0.576354    11.00000    0.08196    0.04117 =
         0.02586    0.00125   -0.00178    0.03789
O1    4    0.359596    1.167779    0.242567    11.00000    0.05025    0.02858 =
         0.02971   -0.00467    0.00359    0.01943
O2W   4    0.729270    1.136743    0.221214    11.00000    0.04163    0.03719 =
         0.02150    0.00396   -0.00069    0.01898
AFIX   3
H2WA  2    0.833094    1.118801    0.234695    11.00000   -1.50000
H2WB  2    0.735292    1.215073    0.269004    11.00000   -1.50000
AFIX   0
O1W   4    0.179851    0.855909    0.133395    11.00000    0.03812    0.02941 =
         0.04484   -0.00068    0.00290    0.02033
AFIX   3
H1WB  2    0.100803    0.901899    0.116361    11.00000   -1.50000
H1WA  2    0.150203    0.776076    0.085091    11.00000   -1.50000
AFIX   0
O12   4    0.961481    0.017740    0.043722    11.00000    0.05584    0.03697 =
         0.02590    0.00803    0.00924    0.02420
O6    4   -0.043711    1.973942    0.299291    11.00000    0.05596    0.04288 =
         0.01668    0.00613    0.00967    0.02505
O4W   4    0.216264    2.134656    0.704109    11.00000    0.09965    0.07831 =
         0.03629   -0.01802    0.00744    0.00035
AFIX   3
H4WA  2    0.260536    2.186865    0.776460    11.00000   -1.50000
H4WB  2    0.303710    2.152724    0.659063    11.00000   -1.50000
AFIX   0
O3W   4   -0.314199    1.855347    0.650229    11.00000    0.08961    0.06188 =
         0.02965   -0.00440    0.01698    0.01317
AFIX   3
H3WA  2   -0.351558    1.815146    0.560861    11.00000   -1.50000
H3WB  2   -0.413409    1.870641    0.672802    11.00000   -1.50000
AFIX   0
N3    3    0.657870    0.639510    0.168253    11.00000    0.03194    0.02985 =
         0.02258    0.00534    0.00574    0.01313
AFIX  43
H3N   2    0.686902    0.604422    0.234970    11.00000   -1.20000
AFIX   0
O5W   4    0.429961    0.890648    0.800956    11.00000    0.20748    0.33021 =
         0.04127   -0.00927    0.00958    0.22207
AFIX   3
H5WA  2    0.439693    0.946183    0.865754    11.00000   -1.50000
H5WB  2    0.332339    0.903750    0.730533    11.00000   -1.50000
AFIX   0
O7W   4    0.756904    0.257295    0.465067    11.00000    0.07626    0.09066 =
         0.10340   -0.01946    0.00563    0.03530
AFIX   3
H7WA  2    0.624826    0.258868    0.465335    11.00000   -1.50000
H7WB  2    0.761835    0.164668    0.455503    11.00000   -1.50000
AFIX   0
O8W   4    0.502829    0.107036    0.541213    11.00000    0.19329    0.18176 =
         0.09723   -0.07868   -0.05514    0.15402
AFIX   3
H8WA  2    0.428122    0.014604    0.491773    11.00000   -1.50000
H8WB  2    0.589581    0.109963    0.605718    11.00000   -1.50000
AFIX   0
C6    1    0.220441    1.419527    0.292353    11.00000    0.06981    0.04223 =
         0.03919    0.00212    0.01112    0.03896
C2    1    0.134733    1.626057    0.391125    11.00000    0.02373    0.02866 =
         0.02334   -0.00168    0.00002    0.01246
C12   1    0.777844    0.368516   -0.044517    11.00000    0.04386    0.03202 =
         0.03206    0.00912    0.01163    0.01919
C1    1    0.163183    1.549080    0.286090    11.00000    0.04769    0.03083 =
         0.02593    0.00298   -0.00080    0.02220
AFIX  43
H1    2    0.144739    1.582072    0.209101    11.00000   -1.20000
AFIX   0
C11   1    0.745089    0.440249    0.063551    11.00000    0.01507    0.02673 =
         0.02665    0.00501    0.00741    0.00053
AFIX  43
H11   2    0.758220    0.403166    0.139341    11.00000   -1.20000
AFIX   0
C16   1    0.692786    0.567245    0.057967    11.00000    0.02740    0.02360 =
         0.02119    0.00113   -0.00028    0.00419
C3    1    0.154514    1.574198    0.498249    11.00000    0.06697    0.05011 =
         0.02985    0.00624    0.01915    0.04611
AFIX  43
H3    2    0.128521    1.621980    0.570103    11.00000   -1.20000
AFIX   0
C5    1    0.236572    1.365166    0.401677    11.00000    0.06981    0.04223 =
         0.03919    0.00212    0.01112    0.03896
AFIX  43
H5    2    0.261909    1.275433    0.406786    11.00000   -1.20000
AFIX   0
C4    1    0.213697    1.449013    0.505798    11.00000    0.06981    0.04223 =
         0.03919    0.00212    0.01112    0.03896
AFIX  43
H4    2    0.238711    1.420910    0.583858    11.00000   -1.20000
AFIX   0
C15   1    0.675002    0.623715   -0.058612    11.00000    0.10413    0.05685 =
         0.03697    0.02097    0.02172    0.05155
AFIX  43
H15   2    0.632581    0.706210   -0.063567    11.00000   -1.20000
AFIX   0
C13   1    0.756635    0.419019   -0.166149    11.00000    0.10536    0.05919 =
         0.01819    0.00932    0.00486    0.05196
AFIX  43
H13   2    0.766179    0.364900   -0.239628    11.00000   -1.20000
AFIX   0
C14   1    0.720567    0.556188   -0.163574    11.00000    0.14666    0.07622 =
         0.02758    0.02679    0.02605    0.07128
AFIX  43
H14   2    0.727798    0.603105   -0.235658    11.00000   -1.20000
AFIX   0
O6W   4    0.211805    0.575975    0.969526    11.00000    0.05395    0.25259 =
         0.03484   -0.00584    0.00757   -0.04005
AFIX   3
H6WB  2    0.344287    0.612531    0.958448    11.00000   -1.50000
H6WA  2    0.137397    0.606469    0.902968    11.00000   -1.50000
AFIX   0
HKLF    4




REM  SIR2011 run in space group P 1
REM wR2 = 0.1709, GooF = S = 1.045, Restrained GooF = 0.993 for all data
REM R1 = 0.0571 for 2300 Fo > 4sig(Fo) and 0.0733 for all 2938 data
REM 392 parameters refined using 340 restraints

END

WGHT      0.0963      1.1199

REM Highest difference peak  1.086,  deepest hole -0.459,  1-sigma level  0.098
Q1    1   0.7195  0.3763  0.3656  11.00000  0.05    1.09
Q2    1   0.1877  0.6179  0.9800  11.00000  0.05    0.90
Q3    1   0.6689  0.4808  0.3746  11.00000  0.05    0.88
Q4    1   0.2255  0.4953  0.9672  11.00000  0.05    0.81
Q5    1   0.7170  0.5198  0.5205  11.00000  0.05    0.70
Q6    1   0.1893  0.4633  0.8213  11.00000  0.05    0.61
Q7    1   0.4580  0.0434  0.5779  11.00000  0.05    0.56
Q8    1   0.4598  0.9458  0.7781  11.00000  0.05    0.51
Q9    1   0.9569  0.0390  0.0760  11.00000  0.05    0.47
Q10   1   0.1638  0.7530  0.8805  11.00000  0.05    0.46
Q11   1  -0.0511  1.9478  0.2744  11.00000  0.05    0.41
Q12   1   0.3704  0.8398  0.8200  11.00000  0.05    0.41
Q13   1   0.5380  0.1564  0.5428  11.00000  0.05    0.40
Q14   1   0.6812  0.6149  0.4924  11.00000  0.05    0.36
Q15   1   1.0619 -0.2005 -0.1779  11.00000  0.05    0.32
Q16   1   0.5126  0.8785  0.8461  11.00000  0.05    0.28
Q17   1   0.1512  1.6412  0.1891  11.00000  0.05    0.28
Q18   1   0.2579  1.3729 -0.0556  11.00000  0.05    0.27
Q19   1   0.2745  2.0820  0.7362  11.00000  0.05    0.27
Q20   1   0.2336  1.3751 -0.1424  11.00000  0.05    0.27
Q21   1  -0.3578  1.9200  0.6167  11.00000  0.05    0.27
Q22   1   0.8539  0.3077  0.4007  11.00000  0.05    0.26
Q23   1   1.0033 -0.1035 -0.1993  11.00000  0.05    0.26
Q24   1   0.7359  1.1636  0.2736  11.00000  0.05    0.26
Q25   1   0.4595  1.0653  0.0437  11.00000  0.05    0.26
;
_shelx_res_checksum              37364
_shelx_hkl_file
;
   1   1  -1  215.26    5.00
   1   1  -1  213.21    4.62
  -1  -1   1  219.73    4.31
   2   2  -2    4.31    0.18
  -2  -2   2    4.06    0.19
  -3  -3   3   13.04    0.46
   4   4  -4    0.87    0.20
   4   4  -4    0.96    0.26
  -4  -4   4    0.99    0.17
   5   5  -5    1.63    0.39
   5   5  -5    2.58    0.38
   5   5  -4    0.51    0.21
   5   5  -4    0.58    0.25
  -4  -4   3    0.01    0.07
   4   4  -3    0.12    0.12
   4   4  -3    0.13    0.14
  -3  -3   2    0.73    0.12
   3   3  -2    0.83    0.21
   3   3  -2    0.69    0.15
   2   2  -1    4.29    0.30
   2   2  -1    4.81    0.25
  -1  -1   0    0.45    0.09
   1   1   0    0.45    0.08
   0   0   1    0.00    0.01
   1   1  -2   16.68    0.58
   1   1  -2   16.52    0.38
  -1  -1   2   16.94    0.43
  -1  -1   2   16.16    0.38
  -1  -1   2   17.22    0.60
   2   2  -3    0.26    0.05
   3   3  -4    0.25    0.06
  -3  -3   4    0.16    0.08
  -4  -4   5    0.64    0.14
   5   5  -6   -0.03    0.13
   5   5  -6    0.08    0.18
   5   5  -3    4.93    0.62
   5   5  -3    5.04    0.50
  -4  -4   2    0.22    0.09
   4   4  -2    0.12    0.11
   4   4  -2    0.16    0.15
   3   3  -1    2.96    0.36
   3   3  -1    2.95    0.28
   2   2   0   92.51    2.14
  -1  -1  -1    4.89    0.24
   1   1   1    4.92    0.20
   0   0  -2    1.74    0.09
   0   0   2    1.84    0.12
  -1  -1   3   60.28    1.32
  -1  -1   3   62.23    1.68
  -2  -2   4   43.61    1.04
  -2  -2   4   41.25    1.41
  -3  -3   5   47.64    1.21
  -4  -4   6    3.29    0.31
   5   5  -7   -0.03    0.17
   6   6  -3    0.19    0.20
   6   6  -3    0.16    0.24
   5   5  -2    0.57    0.23
   5   5  -2    0.86    0.23
   4   4  -1    2.87    0.33
   4   4  -1    2.62    0.40
   3   3   0    5.69    0.34
   2   2   1   11.15    0.42
   1   1   2   39.90    0.98
   0   0   3    1.73    0.12
   0   0   3    1.30    0.14
  -1  -1   4   11.07    0.37
  -1  -1   4   10.45    0.52
  -2  -2   5    0.69    0.12
  -2  -2   5    0.54    0.18
  -3  -3   6    1.13    0.17
  -4  -4   7    0.44    0.14
   6   6  -2    0.13    0.22
   6   6  -2    0.12    0.18
   5   5  -1    1.14    0.33
   5   5  -1    1.21    0.27
   4   4   0    0.43    0.15
   4   4   0    1.01    0.25
   3   3   1   13.44    0.55
   2   2   2   54.31    1.37
   1   1   3    2.18    0.16
   0   0   4   34.72    0.94
   0   0   4   34.76    0.85
  -1  -1   5   46.87    1.48
  -1  -1   5   47.58    1.14
  -2  -2   6    3.81    0.25
  -2  -2   6    3.85    0.46
  -3  -3   7    1.25    0.19
  -3  -3   7    1.39    0.35
  -4  -4   8    0.18    0.11
   6   6  -1    0.08    0.18
   6   6  -1    0.04    0.14
   5   5   0    0.55    0.18
   5   5   0    0.52    0.24
   4   4   1    1.67    0.25
   3   3   2    0.69    0.15
   2   2   3    1.68    0.20
   1   1   4    0.64    0.11
   0   0   5    2.47    0.17
   0   0   5    2.54    0.24
  -1  -1   6    3.66    0.24
  -1  -1   6    4.07    0.43
  -2  -2   7    2.14    0.36
  -2  -2   7    2.87    0.27
  -3  -3   8    1.42    0.35
  -3  -3   8    1.34    0.21
  -4  -4   9   -0.05    0.09
   6   6   0    0.82    0.24
   5   5   1    0.14    0.14
   4   4   2    7.06    0.44
   3   3   3    0.07    0.09
   2   2   4    5.94    0.33
   1   1   5   29.85    0.89
   0   0   6   34.51    1.05
   0   0   6   36.39    0.95
  -1  -1   7    6.51    0.42
  -1  -1   7    7.74    0.54
  -1  -1   7    7.96    0.37
  -2  -2   8    0.42    0.13
  -2  -2   8    0.28    0.17
  -3  -3   9    0.40    0.21
  -3  -3   9    0.43    0.14
  -4  -4  10    0.30    0.15
   5   5   2    0.54    0.20
   4   4   3    0.69    0.19
   3   3   4    0.23    0.12
   2   2   5    0.18    0.10
   1   1   6    1.12    0.18
   0   0   7    0.95    0.19
   0   0   7    1.34    0.24
   0   0   7    0.91    0.15
  -1  -1   8    0.61    0.18
  -1  -1   8    0.45    0.19
  -2  -2   9    5.67    0.66
  -2  -2   9    4.50    0.39
  -3  -3  10    0.75    0.32
  -3  -3  10    0.59    0.18
   5   5   3    1.26    0.27
   4   4   4    0.08    0.12
   3   3   5    0.83    0.19
   2   2   6   18.63    0.72
   1   1   7   14.86    0.63
   0   0   8   21.48    0.73
   0   0   8   22.80    0.97
   0   0   8   23.06    0.87
  -1  -1   9    6.36    0.66
  -1  -1   9    7.00    0.40
  -2  -2  10    0.50    0.15
  -2  -2  10    0.45    0.25
  -3  -3  11    7.23    0.88
  -3  -3  11    8.07    0.50
   5   5   4    0.12    0.15
   4   4   5    1.73    0.29
   3   3   6    0.71    0.18
   2   2   7    1.19    0.22
   1   1   8    6.13    0.42
   0   0   9    2.79    0.40
   0   0   9    3.80    0.41
   0   0   9    3.52    0.33
  -1  -1  10    0.23    0.20
  -1  -1  10    0.09    0.09
  -2  -2  11    1.11    0.35
  -2  -2  11    1.23    0.23
   5   5   5    0.15    0.16
   4   4   6    0.65    0.22
   3   3   7    1.10    0.24
   2   2   8   14.65    0.69
   1   1   9    6.57    0.46
   0   0  10    8.93    0.57
   0   0  10    7.58    0.44
   0   0  10    9.74    0.67
  -1  -1  11   18.19    0.75
  -1  -1  11   18.19    1.07
  -2  -2  12    2.95    0.58
  -2  -2  12    3.76    0.40
   4   4   7   -0.10    0.13
   3   3   8    1.69    0.30
   2   2   9    1.39    0.28
   1   1  10    2.15    0.33
   1   1  10    3.16    0.43
   0   0  11    4.60    0.58
   0   0  11    3.96    0.48
  -1  -1  12    1.14    0.35
  -1  -1  12    1.57    0.26
   4   4   8    6.58    0.62
   3   3   9    1.73    0.32
   2   2  10    4.83    0.51
   1   1  11    6.01    0.59
   1   1  11    6.39    0.66
   0   0  12    4.82    0.56
   0   0  12    3.87    0.58
   3   3  10    1.48    0.32
   2   2  11    0.11    0.17
   1   1  12    0.57    0.23
   1   0  12    0.76    0.25
   1   0  12    1.47    0.36
   2   1  11    1.76    0.34
   3   2  10    2.24    0.37
   4   3   9    0.04    0.14
   0  -1  12    4.56    0.56
   0  -1  12    4.56    0.44
   0  -1  12    4.44    0.63
   1   0  11   12.27    0.73
   1   0  11   13.59    0.83
   2   1  10   11.65    0.67
   3   2   9    2.73    0.39
   4   3   8    3.80    0.45
   5   4   7    0.59    0.24
  -1  -2  12    0.16    0.12
  -1  -2  12    0.51    0.27
   0  -1  11    3.16    0.46
   0  -1  11    3.09    0.35
   0  -1  11    2.84    0.47
   1   0  10   -0.16    0.10
   1   0  10    0.19    0.16
   2   1   9    2.81    0.37
   3   2   8    2.14    0.32
   4   3   7    1.78    0.32
   5   4   6   -0.11    0.12
  -1  -2  11   16.21    1.01
  -1  -2  11   15.70    0.71
   0  -1  10    1.31    0.32
   0  -1  10    1.18    0.21
   0  -1  10    1.09    0.26
   1   0   9    0.09    0.09
   1   0   9   -0.02    0.12
   1   0   9    0.02    0.11
   2   1   8   20.08    0.82
   3   2   7    8.80    0.52
   4   3   6    2.44    0.33
   5   4   5    1.40    0.28
  -2  -3  11    0.79    0.20
  -2  -3  11    0.89    0.33
  -1  -2  10    1.06    0.20
  -1  -2  10    1.16    0.32
   0  -1   9   10.36    0.67
   0  -1   9   10.00    0.49
   0  -1   9    9.41    0.59
   1   0   8    0.72    0.19
   1   0   8    1.74    0.28
   1   0   8    0.80    0.15
   2   1   7    0.50    0.15
   3   2   6    0.21    0.12
   4   3   5    0.08    0.11
   5   4   4    0.03    0.12
   6   5   3    0.07    0.15
  -3  -4  11    7.25    0.50
  -2  -3  10    0.51    0.16
  -2  -3  10    0.68    0.28
  -1  -2   9    0.36    0.19
  -1  -2   9    0.22    0.10
   0  -1   8    6.82    0.37
   0  -1   8    8.37    0.56
   0  -1   8    8.22    0.51
   1   0   7    1.00    0.16
   1   0   7    1.00    0.20
   2   1   6   20.37    0.74
   3   2   5   10.76    0.52
   4   3   4    0.70    0.19
   5   4   3    1.31    0.25
   6   5   2    0.70    0.21
  -3  -4  10    1.35    0.25
  -2  -3   9    0.37    0.14
  -2  -3   9    0.10    0.18
  -1  -2   8    1.36    0.30
   0  -1   7    2.72    0.31
   0  -1   7    2.62    0.36
   0  -1   7    3.45    0.24
   1   0   6    0.56    0.14
   1   0   6    0.66    0.12
   2   1   5    3.38    0.25
   3   2   4    0.17    0.10
   4   3   3    0.16    0.11
   5   4   2    1.21    0.23
   6   5   1    0.23    0.15
  -3  -4   9    2.99    0.33
  -2  -3   8    0.49    0.21
  -2  -3   8    0.85    0.17
  -1  -2   7    0.26    0.16
  -1  -2   7    0.24    0.06
  -1  -2   7    0.16    0.09
   0  -1   6   32.34    1.02
   0  -1   6   30.98    1.12
   0  -1   6   32.42    0.88
   1   0   5   24.38    0.77
   1   0   5   24.82    0.68
   2   1   4   25.37    0.77
   3   2   3    6.46    0.35
   4   3   2    1.91    0.25
   5   4   1    4.26    0.42
   6   5   0    0.09    0.18
   6   5   0    0.00    0.14
  -4  -5   9    1.26    0.25
  -3  -4   8    0.07    0.10
  -2  -3   7    0.98    0.17
  -2  -3   7    0.97    0.27
  -1  -2   6    8.42    0.25
  -1  -2   6    8.17    0.53
  -1  -2   6    8.60    0.38
   0  -1   5    1.32    0.21
   0  -1   5    0.92    0.16
   0  -1   5    1.33    0.15
   1   0   4    1.51    0.15
   1   0   4    1.49    0.17
   2   1   3    0.06    0.06
   3   2   2    7.27    0.36
   4   3   1    5.75    0.45
   4   3   1    5.08    0.34
   5   4   0   -0.10    0.09
   5   4   0    0.06    0.14
   6   5  -1    0.29    0.21
   6   5  -1    0.02    0.13
  -4  -5   8    1.75    0.26
  -3  -4   7    3.55    0.33
  -2  -3   6   22.65    1.05
  -2  -3   6   21.46    0.71
  -1  -2   5   56.76    1.74
  -1  -2   5   55.67    1.33
   0  -1   4  121.67    2.79
   0  -1   4  121.28    3.03
   0  -1   4  120.61    2.66
   1   0   3   32.11    0.83
   1   0   3   30.87    0.74
   2   1   2    4.18    0.22
   3   2   1   36.63    1.22
   3   2   1   37.17    1.03
   4   3   0   13.97    0.59
   5   4  -1    0.89    0.27
   5   4  -1    1.43    0.26
   6   5  -2    0.09    0.15
   6   5  -2    0.16    0.21
  -4  -5   7    0.01    0.09
  -3  -4   6   -0.03    0.07
  -2  -3   5    5.56    0.30
  -1  -2   4    2.95    0.18
  -1  -2   4    2.89    0.34
   0  -1   3    2.09    0.11
   0  -1   3    1.97    0.21
   0  -1   3    1.76    0.18
   0   1  -3    2.28    0.18
   1   0   2   19.39    0.51
   1   0   2   18.47    0.53
   1   0   2   18.63    0.45
  -1   0  -2   19.22    0.45
   3   2   0    0.94    0.20
   3   2   0    0.60    0.14
   4   3  -1    0.97    0.18
   5   4  -2    0.07    0.15
   5   4  -2   -0.01    0.11
   6   5  -3    0.14    0.17
   6   5  -3    0.24    0.24
   5   6  -7    0.61    0.24
   5   6  -7    0.28    0.23
  -4  -5   6    2.89    0.31
   4   5  -6    2.35    0.41
  -3  -4   5   15.17    0.58
  -2  -3   4   21.51    0.66
  -1  -2   3    1.80    0.25
   0  -1   2   68.66    1.48
   0  -1   2   68.29    1.71
   0   1  -2   68.05    1.48
   0   1  -2   68.80    1.71
   1   0   1  174.59    3.68
   1   0   1  169.96    3.69
   1   0   1  174.35    3.39
  -1   0  -1  166.80    3.37
  -1   0  -1  170.92    3.94
   2   1   0 1000.00   21.26
   3   2  -1  151.09    3.41
   4   3  -2   -0.05    0.08
  -4  -3   2    0.00    0.06
   5   4  -3    2.22    0.32
   5   4  -3    1.59    0.35
   6   5  -4    0.44    0.25
   6   5  -4    0.67    0.23
   5   6  -6    0.57    0.22
   5   6  -6    0.25    0.25
  -4  -5   5    1.45    0.22
   4   5  -5    1.40    0.27
   4   5  -5    1.57    0.36
  -3  -4   4    1.53    0.20
   3   4  -4    1.31    0.27
  -2  -3   3    0.05    0.06
   2   3  -3    0.06    0.04
  -1  -2   2   12.48    0.38
   0  -1   1   38.20    0.84
   0   1  -1   38.74    0.84
   1   0   0    3.11    0.12
   1   0   0    3.22    0.11
   1   0   0    3.16    0.13
  -1   0   0    2.90    0.12
  -1   0   0    2.98    0.12
   2   1  -1   22.54    0.59
   2   1  -1   21.78    0.61
   2   1  -1   22.44    0.71
  -2  -1   1   21.92    0.60
  -2  -1   1   22.69    0.52
   3   2  -2   13.88    0.52
  -3  -2   2   12.95    0.40
   4   3  -3    0.94    0.25
   4   3  -3    1.37    0.22
  -4  -3   3    1.11    0.15
   5   4  -4    0.96    0.23
   5   4  -4    0.89    0.29
   6   5  -5    0.07    0.16
   6   5  -5   -0.05    0.20
   5   6  -5    2.41    0.39
   5   6  -5    1.98    0.42
  -4  -5   4    4.99    0.33
   4   5  -4    4.68    0.57
   4   5  -4    5.39    0.51
  -3  -4   3   22.03    0.69
   3   4  -3   22.06    0.83
   3   4  -3   23.29    0.99
   2   3  -2   20.22    0.57
   2   3  -2   20.36    0.80
   1   2  -1    4.22    0.25
   0   1   0  140.80    2.98
   1   0  -1   61.21    1.23
   1   0  -1   60.80    1.35
  -1   0   1   62.26    1.50
  -1   0   1   62.42    1.35
  -1   0   1   60.85    1.23
   2   1  -2   25.42    0.82
   2   1  -2   25.11    0.63
  -2  -1   2   24.83    0.60
  -2  -1   2   24.75    0.85
  -2  -1   2   25.61    0.63
  -3  -2   3   40.22    0.96
  -4  -3   4   12.72    0.46
   5   4  -5    6.74    0.48
   5   4  -5    7.17    0.74
   6   5  -6    0.95    0.34
   6   5  -6    1.46    0.32
   5   6  -4    0.67    0.28
   5   6  -4    1.48    0.32
  -4  -5   3    0.13    0.09
   4   5  -3    0.09    0.12
   4   5  -3    0.09    0.14
   3   4  -2    0.87    0.19
   3   4  -2    1.11    0.24
   2   3  -1    9.58    0.42
   2   3  -1    9.16    0.49
   1   2   0   26.29    0.82
   1   2   0   27.71    0.74
   0   1   1    4.84    0.17
  -1   0   2   26.87    0.61
  -1   0   2   26.62    0.64
   2   1  -3    0.12    0.04
  -2  -1   3    0.08    0.08
  -2  -1   3    0.06    0.04
  -2  -1   3    0.04    0.04
   3   2  -4    4.44    0.19
  -3  -2   4    5.08    0.50
  -3  -2   4    4.93    0.25
  -4  -3   5    0.88    0.15
   5   4  -6    0.26    0.16
   5   6  -3    2.80    0.41
   5   6  -3    3.55    0.56
  -4  -5   2    1.92    0.23
   4   5  -2    1.36    0.26
   4   5  -2    1.23    0.30
   3   4  -1    0.57    0.18
   3   4  -1    0.59    0.16
   2   3   0   27.19    0.82
   2   3   0   26.19    0.95
   1   2   1    6.85    0.29
   0   1   2  102.20    2.23
  -1   0   3   17.65    0.53
  -1   0   3   18.54    0.48
  -2  -1   4    2.47    0.31
  -2  -1   4    2.33    0.16
  -2  -1   4    2.29    0.12
  -3  -2   5   29.99    0.72
  -3  -2   5   29.55    0.82
  -3  -2   5   31.13    1.24
  -4  -3   6    2.67    0.26
   5   6  -2    0.13    0.17
   5   6  -2    0.52    0.25
   4   5  -1    0.16    0.15
   4   5  -1    0.20    0.14
   3   4   0    3.30    0.34
   3   4   0    3.01    0.38
   2   3   1    4.21    0.27
   1   2   2    3.78    0.22
   0   1   3    9.65    0.33
  -1   0   4    0.78    0.13
  -2  -1   5    2.56    0.33
  -2  -1   5    1.96    0.11
  -2  -1   5    1.96    0.18
  -3  -2   6    0.39    0.19
  -3  -2   6    0.73    0.14
  -4  -3   7    1.31    0.20
  -5  -4   8    0.20    0.12
   5   6  -1    1.35    0.29
   5   6  -1    1.31    0.35
   4   5   0    1.45    0.26
   4   5   0    1.83    0.35
   3   4   1    0.14    0.10
   2   3   2   57.62    1.51
   1   2   3    0.39    0.09
   0   1   4   10.90    0.40
  -1   0   5   93.66    2.00
  -1   0   5   89.19    2.18
  -2  -1   6   15.63    0.79
  -2  -1   6   15.58    0.45
  -2  -1   6   15.67    0.54
  -3  -2   7    5.11    0.31
  -4  -3   8    1.29    0.37
  -4  -3   8    1.15    0.19
  -5  -4   9    0.00    0.11
   5   6   0    0.24    0.15
   4   5   1    0.08    0.11
   3   4   2    0.44    0.15
   2   3   3    0.08    0.08
   1   2   4   -0.04    0.05
   0   1   5    3.76    0.24
  -1   0   6    1.87    0.23
  -1   0   6    1.60    0.19
  -1   0   6    1.80    0.28
  -2  -1   7    0.05    0.05
  -2  -1   7   -0.07    0.05
  -2  -1   7   -0.03    0.11
  -3  -2   8    0.65    0.15
  -3  -2   8    0.30    0.20
  -4  -3   9    0.50    0.15
  -4  -3   9    0.86    0.32
   5   6   1    0.20    0.16
   4   5   2    4.94    0.47
   3   4   3    3.02    0.33
   2   3   4    0.26    0.11
   1   2   5    7.17    0.36
   0   1   6   14.58    0.57
  -1   0   7   35.33    1.11
  -1   0   7   35.29    1.28
  -2  -1   8   12.37    0.52
  -2  -1   8   12.18    0.77
  -3  -2   9    2.81    0.30
  -3  -2   9    3.17    0.51
  -4  -3  10    0.81    0.33
  -4  -3  10    0.94    0.21
   5   6   2   -0.08    0.13
   4   5   3    0.44    0.16
   3   4   4    0.60    0.17
   2   3   5   16.15    0.65
   1   2   6    1.77    0.23
   0   1   7    0.19    0.11
  -1   0   8    3.64    0.38
  -1   0   8    3.23    0.42
  -2  -1   9    8.26    0.66
  -2  -1   9    7.90    0.43
  -3  -2  10    0.09    0.11
  -3  -2  10    0.61    0.26
  -4  -3  11    0.14    0.14
   5   6   3    2.65    0.39
   4   5   4    6.64    0.48
   3   4   5    0.48    0.17
   2   3   6    8.87    0.49
   1   2   7   14.24    0.62
   0   1   8   14.02    0.64
  -1   0   9   11.53    0.52
  -1   0   9   11.55    0.63
  -1   0   9   10.57    0.70
  -2  -1  10    6.82    0.74
  -2  -1  10    6.73    0.41
  -3  -2  11    7.52    0.86
  -3  -2  11    8.15    0.50
   5   6   4    0.62    0.24
   4   5   5    0.98    0.26
   3   4   6    0.62    0.19
   2   3   7    0.37    0.15
   1   2   8    5.71    0.40
   0   1   9    4.74    0.46
  -1   0  10    6.73    0.41
  -1   0  10    7.24    0.53
  -1   0  10    7.64    0.73
  -2  -1  11    2.46    0.48
  -2  -1  11    2.32    0.31
  -3  -2  12    1.29    0.24
   4   5   6    1.75    0.32
   3   4   7    8.14    0.53
   2   3   8   17.42    0.79
   1   2   9    9.57    0.56
   0   1  10    4.07    0.45
   0   1  10    4.73    0.54
  -1   0  11   10.86    0.79
  -1   0  11   11.40    0.71
  -2  -1  12    3.90    0.63
  -2  -1  12    4.70    0.45
   4   5   7    0.10    0.15
   3   4   8    0.15    0.15
   2   3   9    0.78    0.22
   1   2  10    4.33    0.47
   0   1  11   -0.15    0.14
   0   1  11    0.04    0.14
  -1   0  12    0.12    0.21
  -1   0  12   -0.01    0.15
   3   4   9    0.57    0.21
   2   3  10    1.66    0.33
   1   2  11    4.76    0.52
   0   1  12    1.85    0.41
   0   1  12    2.01    0.37
   2   3  11    0.23    0.18
   1   2  12    0.06    0.18
   2   0  12    3.40    0.47
   3   1  11    4.43    0.53
   1  -1  12    1.12    0.23
   1  -1  12    1.49    0.36
   1  -1  12    0.71    0.26
   2   0  11    1.51    0.31
   3   1  10    0.47    0.21
   4   2   9    1.79    0.34
   0  -2  12    5.03    0.47
   0  -2  12    3.84    0.58
   1  -1  11   11.20    0.76
   1  -1  11    8.88    0.51
   1  -1  11    9.54    0.65
   2   0  10    0.65    0.21
   3   1   9    0.09    0.15
   4   2   8    2.72    0.38
   5   3   7    4.23    0.47
  -1  -3  12    0.24    0.24
  -1  -3  12   -0.01    0.11
   0  -2  11    1.10    0.32
   0  -2  11    1.22    0.23
   1  -1  10    2.67    0.31
   1  -1  10    2.33    0.39
   1  -1  10    3.22    0.42
   2   0   9    4.35    0.46
   2   0   9    4.34    0.46
   3   1   8    2.26    0.32
   4   2   7    0.33    0.16
   5   3   6    1.02    0.25
   6   4   5    0.24    0.18
  -2  -4  12    1.10    0.25
  -1  -3  11    8.62    0.51
  -1  -3  11    9.08    0.90
   0  -2  10    4.86    0.58
   0  -2  10    5.14    0.36
   1  -1   9    3.44    0.41
   1  -1   9    3.43    0.44
   1  -1   9    2.65    0.29
   2   0   8    5.82    0.42
   2   0   8    6.40    0.43
   3   1   7    5.55    0.39
   4   2   6    1.58    0.26
   5   3   5    2.80    0.35
   6   4   4    0.16    0.15
  -2  -4  11    0.15    0.13
  -1  -3  10    4.42    0.41
  -1  -3  10    2.88    0.49
   0  -2   9    0.39    0.20
   0  -2   9    0.32    0.12
   1  -1   8    2.87    0.37
   1  -1   8    3.36    0.30
   1  -1   8    3.06    0.35
   2   0   7    4.97    0.36
   2   0   7    5.59    0.31
   2   0   7    5.56    0.37
   3   1   6    0.14    0.11
   4   2   5    0.45    0.15
   5   3   4    0.09    0.12
   6   4   3   -0.09    0.13
  -2  -4  10    5.54    0.47
  -1  -3   9    2.92    0.47
  -1  -3   9    2.66    0.30
   0  -2   8    6.49    0.36
   0  -2   8    6.02    0.49
   1  -1   7    0.02    0.06
   1  -1   7    0.03    0.09
   1  -1   7    0.15    0.11
   2   0   6    8.49    0.44
   2   0   6    8.47    0.37
   3   1   5   24.99    0.83
   4   2   4    2.71    0.29
   5   3   3    4.66    0.42
   6   4   2    0.66    0.21
  -3  -5  10    4.64    0.46
  -2  -4   9    2.39    0.30
  -1  -3   8    0.04    0.14
  -1  -3   8    0.11    0.08
   0  -2   7    2.13    0.32
   0  -2   7    1.85    0.22
   1  -1   6    6.13    0.36
   1  -1   6    5.24    0.37
   1  -1   6    5.25    0.28
   2   0   5    0.36    0.11
   2   0   5    0.29    0.08
   3   1   4    1.52    0.20
   4   2   3    0.01    0.08
   5   3   2    2.07    0.27
   6   4   1    1.81    0.29
  -3  -5   9    9.91    0.55
  -2  -4   8    8.67    0.47
  -1  -3   7    1.89    0.23
  -1  -3   7    2.28    0.37
   0  -2   6   87.71    2.46
   1  -1   5   72.39    1.85
   1  -1   5   73.16    1.65
   1  -1   5   76.62    1.99
   2   0   4   21.53    0.58
   2   0   4   20.51    0.66
   3   1   3   33.60    0.95
   4   2   2    1.00    0.17
   5   3   1    6.25    0.40
   5   3   1    6.43    0.52
   6   4   0    5.38    0.64
  -3  -5   8    0.35    0.15
  -2  -4   7    0.07    0.09
  -1  -3   6    0.67    0.13
  -1  -3   6    0.94    0.25
   0  -2   5    9.38    0.30
   0  -2   5    8.50    0.49
   1  -1   4   25.34    0.67
   1  -1   4   26.98    0.79
   1  -1   4   27.01    0.83
   2   0   3    2.09    0.18
   2   0   3    1.83    0.12
   3   1   2   11.62    0.43
   4   2   1   17.41    0.64
   4   2   1   17.90    0.81
   5   3   0    3.34    0.33
   5   3   0    3.54    0.49
   6   4  -1    0.11    0.18
   6   4  -1   -0.06    0.12
  -4  -6   8    1.91    0.29
   4   6  -8    1.91    0.41
  -3  -5   7    1.62    0.24
  -2  -4   6   25.65    0.83
  -1  -3   5   23.64    0.72
   0  -2   4   43.51    1.34
   0  -2   4   44.86    1.02
   1  -1   3   29.57    0.86
   1  -1   3   31.75    0.83
   1  -1   3   30.13    0.72
  -1   1  -3   30.22    0.79
   2   0   2   13.02    0.41
  -2   0  -2   13.76    0.34
   3   1   1  115.48    3.01
   3   1   1  118.70    2.65
   4   2   0  130.85    3.47
   4   2   0  127.41    3.00
   5   3  -1   19.23    0.76
   5   3  -1   20.30    1.00
   6   4  -2    0.58    0.20
   6   4  -2    0.44    0.24
  -4  -6   7   -0.17    0.10
   4   6  -7    0.26    0.23
  -3  -5   6   -0.04    0.08
  -2  -4   5    3.86    0.32
  -1  -3   4    6.94    0.33
   0  -2   3    5.18    0.17
   0   2  -3    5.37    0.17
   1  -1   2   20.87    0.51
   1  -1   2   21.79    0.60
   1  -1   2   21.67    0.58
  -1   1  -2   21.62    0.57
  -1   1  -2   20.79    0.59
   2   0   1   75.27    1.75
   2   0   1   76.75    1.91
   2   0   1   75.06    1.68
  -2   0  -1   76.93    1.50
  -2   0  -1   75.39    1.91
   3   1   0    2.96    0.21
   3   1   0    2.35    0.17
   3   1   0    2.66    0.29
  -3  -1   0    2.68    0.20
   4   2  -1    6.05    0.33
   4   2  -1    5.30    0.42
  -4  -2   1    5.49    0.22
   5   3  -2    4.80    0.36
   5   3  -2    4.15    0.52
   6   4  -3    1.28    0.26
   6   4  -3    1.56    0.37
  -4  -6   6    1.24    0.23
   4   6  -6    1.04    0.27
   4   6  -6    0.96    0.31
  -3  -5   5    9.78    0.48
   3   5  -5    9.96    0.66
  -2  -4   4   50.82    1.28
   2   4  -4   48.84    1.12
  -1  -3   3   37.06    0.94
   0   2  -2   13.84    0.35
   1  -1   1    7.37    0.23
   1  -1   1    7.22    0.24
   1  -1   1    7.37    0.21
  -1   1  -1    7.35    0.21
  -1   1  -1    7.54    0.24
   2   0   0    1.24    0.16
   2   0   0    1.61    0.10
   2   0   0    1.68    0.11
  -2   0   0    1.67    0.13
  -2   0   0    1.62    0.12
   3   1  -1   59.84    1.70
   3   1  -1   57.55    1.40
   3   1  -1   57.22    1.58
  -3  -1   1   58.62    1.21
   4   2  -2    0.25    0.10
  -4  -2   2    0.28    0.07
   5   3  -3    3.49    0.36
   5   3  -3    2.53    0.41
   6   4  -4    6.14    0.71
   6   4  -4    5.87    0.53
  -4  -6   5    0.20    0.12
   4   6  -5    0.06    0.15
   4   6  -5    0.07    0.16
  -3  -5   4    1.09    0.19
   3   5  -4    1.18    0.28
  -2  -4   3    0.74    0.14
   2   4  -3    0.56    0.18
   2   4  -3    0.68    0.09
   1   3  -2    0.01    0.06
   0   2  -1   18.85    0.55
   2   0  -1   27.24    0.65
   2   0  -1   26.38    0.69
   2   0  -1   27.10    0.57
  -2   0   1   26.87    0.70
  -2   0   1   26.92    0.79
  -2   0   1   26.73    0.57
   3   1  -2    5.62    0.27
  -3  -1   2    5.70    0.21
  -3  -1   2    5.94    0.26
  -3  -1   2    5.84    0.37
   4   2  -3    0.08    0.09
  -4  -2   3    0.16    0.06
   5   3  -4    0.65    0.18
   5   3  -4    0.51    0.22
  -5  -3   4    0.44    0.11
   6   4  -5    1.06    0.34
   6   4  -5    0.68    0.22
  -4  -6   4    3.11    0.32
   4   6  -4    2.68    0.39
   4   6  -4    2.71    0.45
  -3  -5   3    4.80    0.31
   3   5  -3    5.97    0.49
   3   5  -3    5.26    0.48
   2   4  -2   17.68    0.69
   2   4  -2   18.00    0.77
   1   3  -1    4.17    0.27
   1   3  -1    3.94    0.24
   0  -2   0   42.01    1.07
   0   2   0   41.38    1.00
  -1   1   1   68.12    1.54
  -1   1   1   68.79    1.45
   2   0  -2    8.70    0.28
  -2   0   2    8.07    0.24
  -2   0   2    7.51    0.37
  -2   0   2    8.04    0.28
  -3  -1   3    7.73    0.27
  -3  -1   3    7.85    0.30
  -3  -1   3    7.26    0.46
   5   3  -5    3.00    0.34
  -5  -3   5    3.09    0.26
   6   4  -6    1.57    0.30
   6   4  -6    1.43    0.38
   5   7  -4    0.21    0.23
   5   7  -4   -0.07    0.16
  -4  -6   3    0.04    0.10
   4   6  -3    0.07    0.14
   4   6  -3    0.17    0.17
   3   5  -2    0.64    0.19
   3   5  -2    0.73    0.22
   2   4  -1    3.44    0.33
   2   4  -1    3.26    0.37
   1   3   0   16.43    0.55
   1   3   0   16.26    0.61
   0   2   1    2.13    0.14
  -1   1   2    2.04    0.11
  -2   0   3    4.78    0.19
  -2   0   3    4.67    0.31
  -2   0   3    4.88    0.20
   3   1  -4    0.17    0.06
  -3  -1   4    0.18    0.06
  -3  -1   4    0.22    0.14
  -3  -1   4    0.21    0.06
  -4  -2   5    3.63    0.23
  -4  -2   5    3.11    0.19
  -4  -2   5    3.09    0.44
  -5  -3   6    0.72    0.14
   6   4  -7    0.14    0.17
   6   4  -7    0.26    0.21
   5   7  -3    1.38    0.32
   5   7  -3    1.41    0.38
   4   6  -2    1.42    0.34
   4   6  -2    2.05    0.33
   3   5  -1    0.93    0.21
   3   5  -1    1.00    0.25
   2   4   0   17.40    0.66
   2   4   0   17.67    0.76
   1   3   1    0.73    0.13
   0   2   2   34.50    0.87
  -1   1   3   57.27    1.34
  -2   0   4   24.44    0.65
  -2   0   4   23.84    0.63
  -2   0   4   23.68    0.88
  -3  -1   5   23.86    0.66
  -3  -1   5   20.64    0.96
  -3  -1   5   23.37    0.62
  -4  -2   6   13.43    0.84
  -4  -2   6   13.20    0.50
  -5  -3   7    0.35    0.12
   5   7  -2    0.54    0.23
   5   7  -2    0.47    0.27
   4   6  -1    0.94    0.28
   4   6  -1    1.79    0.33
   3   5   0    0.00    0.10
   3   5   0   -0.05    0.09
   2   4   1    0.05    0.08
   1   3   2    7.93    0.36
   0   2   3    4.75    0.23
  -1   1   4    5.50    0.26
  -2   0   5    3.23    0.20
  -2   0   5    3.11    0.18
  -2   0   5    2.98    0.35
  -3  -1   6    0.97    0.11
  -3  -1   6    1.06    0.15
  -3  -1   6    0.68    0.22
  -4  -2   7    0.56    0.13
  -4  -2   7    0.72    0.27
  -5  -3   8    0.02    0.09
   5   7  -1   -0.07    0.14
   4   6   0    3.47    0.42
   3   5   1   -0.04    0.09
   2   4   2   15.37    0.62
   1   3   3   26.05    0.80
   0   2   4   39.06    1.03
  -1   1   5   24.42    0.75
  -2   0   6   26.13    0.75
  -2   0   6   24.61    1.01
  -3  -1   7   11.20    0.46
  -3  -1   7   11.40    0.38
  -3  -1   7   11.65    0.75
  -4  -2   8   14.87    0.59
  -4  -2   8   12.44    0.90
  -5  -3   9    0.32    0.14
   5   7   0    0.01    0.15
   4   6   1    0.06    0.12
   3   5   2    0.17    0.13
   2   4   3    0.18    0.11
   1   3   4    0.51    0.13
   0   2   5   21.64    0.69
  -1   1   6    6.74    0.36
  -2   0   7    2.07    0.27
  -2   0   7    1.60    0.29
  -2   0   7    2.29    0.23
  -3  -1   8    0.25    0.10
  -3  -1   8    0.20    0.16
  -4  -2   9    3.97    0.60
  -4  -2   9    3.21    0.32
  -5  -3  10   -0.03    0.12
   5   7   1    0.53    0.23
   4   6   2    4.85    0.50
   3   5   3   14.13    0.66
   2   4   4   28.46    0.97
   1   3   5   18.66    0.68
   0   2   6    6.33    0.35
  -1   1   7   22.82    0.81
  -2   0   8   13.54    0.65
  -2   0   8   13.61    0.55
  -2   0   8   14.46    0.81
  -3  -1   9    1.49    0.23
  -3  -1   9    1.44    0.36
  -4  -2  10    5.78    0.77
  -4  -2  10    4.79    0.43
   4   6   3    0.20    0.16
   3   5   4    2.75    0.35
   2   4   5    0.06    0.10
   1   3   6    0.21    0.11
   0   2   7    0.00    0.09
  -1   1   8   12.69    0.59
  -2   0   9    3.70    0.34
  -2   0   9    3.81    0.43
  -2   0   9    3.07    0.46
  -3  -1  10    3.18    0.33
  -3  -1  10    3.08    0.53
  -4  -2  11    0.41    0.16
   4   6   4    4.90    0.52
   3   5   5    1.80    0.31
   2   4   6    3.01    0.35
   1   3   7   54.76    1.57
   0   2   8   27.24    0.96
  -1   1   9    9.82    0.55
  -2   0  10    7.57    0.44
  -2   0  10    7.78    0.77
  -3  -1  11    4.22    0.41
  -3  -1  11    4.13    0.64
   4   6   5    0.34    0.19
   3   5   6    0.32    0.17
   2   4   7    1.27    0.25
   1   3   8    0.07    0.12
   0   2   9    3.21    0.37
  -1   1  10    2.93    0.39
  -1   1  10    3.49    0.48
  -2   0  11    0.45    0.27
  -3  -1  12    0.04    0.12
   4   6   6    0.78    0.25
   3   5   7    6.09    0.57
   2   4   8    9.86    0.59
   1   3   9    2.98    0.38
   0   2  10    2.12    0.33
  -1   1  11    6.63    0.72
  -1   1  11    4.76    0.52
  -2   0  12    4.97    0.67
   3   5   8    0.22    0.18
   2   4   9    2.80    0.40
   1   3  10    0.80    0.24
   0   2  11   -0.01    0.13
  -1   1  12    1.35    0.36
  -1   1  12    1.05    0.29
   2   4  10    0.20    0.17
   1   3  11    6.03    0.61
   0   2  12    3.73    0.56
   0   2  12    3.12    0.45
   2  -1  12    2.80    0.45
   3   0  11    5.16    0.56
   4   1  10    0.09    0.16
   1  -2  12    0.40    0.25
   1  -2  12    0.35    0.15
   2  -1  11    0.01    0.14
   2  -1  11    0.13    0.12
   3   0  10    0.84    0.23
   4   1   9    1.26    0.28
   5   2   8    0.28    0.18
   0  -3  12    4.50    0.64
   0  -3  12    3.79    0.42
   1  -2  11    7.86    0.49
   1  -2  11    8.76    0.64
   1  -2  11    9.13    0.69
   2  -1  10    4.00    0.47
   2  -1  10    4.09    0.37
   2  -1  10    4.73    0.52
   3   0   9    0.21    0.15
   4   1   8    0.23    0.15
   5   2   7    1.92    0.32
   6   3   6    0.54    0.21
  -1  -4  12    0.06    0.12
   0  -3  11   -0.07    0.16
   0  -3  11   -0.09    0.09
   1  -2  10    1.63    0.32
   1  -2  10    1.62    0.34
   1  -2  10    1.33    0.22
   2  -1   9    1.42    0.21
   2  -1   9    1.34    0.27
   2  -1   9    1.97    0.33
   3   0   8    0.64    0.19
   4   1   7    0.80    0.21
   5   2   6    1.65    0.28
   6   3   5   -0.01    0.13
  -1  -4  11    3.80    0.41
   0  -3  10   12.37    0.83
   0  -3  10   13.51    0.62
   1  -2   9    4.87    0.53
   1  -2   9    5.75    0.55
   1  -2   9    5.49    0.35
   2  -1   8    2.37    0.32
   2  -1   8    1.59    0.21
   2  -1   8    1.32    0.25
   3   0   7    5.73    0.36
   3   0   7    5.99    0.40
   4   1   6    1.33    0.23
   5   2   5    4.35    0.41
   6   3   4    0.47    0.19
  -2  -5  11    0.13    0.13
  -1  -4  10    4.13    0.40
   0  -3   9    6.87    0.40
   0  -3   9    6.46    0.65
   1  -2   8    0.74    0.21
   1  -2   8    0.14    0.14
   1  -2   8    0.59    0.14
   2  -1   7    1.11    0.17
   2  -1   7    1.45    0.24
   2  -1   7    1.52    0.24
   3   0   6    3.24    0.32
   4   1   5   -0.01    0.09
   5   2   4    1.15    0.22
   6   3   3    0.66    0.19
  -2  -5  10    3.54    0.40
  -1  -4   9   12.14    0.58
   0  -3   8   15.92    0.86
   1  -2   7    5.02    0.29
   1  -2   7    4.49    0.44
   1  -2   7    4.40    0.44
   2  -1   6   35.35    0.92
   2  -1   6   34.32    1.09
   2  -1   6   32.79    1.05
   3   0   5   58.14    1.53
   4   1   4    4.69    0.31
   5   2   3    4.26    0.32
   6   3   2    2.48    0.31
   7   4   1    0.68    0.20
  -3  -6  10   -0.13    0.11
  -2  -5   9    0.16    0.13
  -1  -4   8    0.04    0.08
   0  -3   7    0.46    0.18
   1  -2   6    2.14    0.28
   1  -2   6    2.57    0.32
   1  -2   6    2.23    0.22
   2  -1   5    2.76    0.25
   2  -1   5    2.22    0.19
   2  -1   5    2.06    0.23
   3   0   4    2.92    0.22
   4   1   3    0.16    0.09
   5   2   2    3.47    0.32
   6   3   1    4.95    0.43
   6   3   1    6.60    0.68
   7   4   0    0.95    0.33
   7   4   0    1.17    0.25
  -3  -6   9    1.87    0.30
  -2  -5   8   13.91    0.63
  -1  -4   7    1.02    0.18
   0  -3   6   58.61    1.88
   0  -3   6   61.58    1.39
   1  -2   5  101.80    2.52
   1  -2   5  103.93    2.70
   1  -2   5  104.88    2.25
   2  -1   4    1.26    0.15
   2  -1   4    1.16    0.13
   2  -1   4    1.32    0.17
   3   0   3   19.47    0.61
   4   1   2    5.01    0.27
   4   1   2    4.60    0.27
   4   1   2    4.61    0.36
   5   2   1   11.00    0.49
   5   2   1   10.45    0.65
   6   3   0   29.28    1.34
   7   4  -1    2.33    0.46
  -3  -6   8    0.27    0.15
  -2  -5   7    0.25    0.12
  -1  -4   6    1.04    0.18
   0  -3   5    6.30    0.22
   1  -2   4   12.39    0.53
   1  -2   4   13.10    0.43
   1  -2   4   13.27    0.52
  -1   2  -4   12.61    0.42
   2  -1   3    2.40    0.14
   2  -1   3    2.21    0.17
   2  -1   3    2.32    0.13
  -2   1  -3    2.44    0.18
   3   0   2    1.04    0.17
   3   0   2    1.09    0.13
  -3   0  -2    0.92    0.08
   4   1   1   18.73    0.64
   4   1   1   19.00    0.62
   4   1   1   19.51    0.82
  -4  -1  -1   19.10    0.44
   5   2   0    0.27    0.11
   5   2   0    0.63    0.22
   6   3  -1    2.20    0.42
   6   3  -1    2.35    0.29
   7   4  -2    1.06    0.35
  -3  -6   7    0.56    0.17
   3   6  -7    0.78    0.26
  -2  -5   6    9.45    0.48
  -1  -4   5   38.75    1.08
   0  -3   4   72.56    1.60
   0   3  -4   71.30    1.59
   1  -2   3  171.39    3.76
  -1   2  -3  176.71    4.10
  -1   2  -3  169.79    3.76
   2  -1   2    0.05    0.03
   2  -1   2    0.10    0.06
  -2   1  -2    0.03    0.05
  -2   1  -2    0.09    0.06
   3   0   1    9.14    0.45
   3   0   1   10.91    0.33
   3   0   1   11.37    0.36
  -3   0  -1   11.36    0.44
  -3   0  -1   10.73    0.24
   4   1   0    6.10    0.29
   4   1   0    5.39    0.31
   4   1   0    5.09    0.39
  -4  -1   0    5.82    0.33
  -4  -1   0    5.52    0.16
   5   2  -1    1.14    0.27
   5   2  -1    1.37    0.20
   6   3  -2    0.23    0.19
   6   3  -2    0.19    0.14
   7   4  -3    0.24    0.22
  -4  -7   7    0.36    0.16
   4   7  -7    0.10    0.19
   4   7  -7    0.22    0.18
  -3  -6   6    0.13    0.11
   3   6  -6    0.35    0.20
  -2  -5   5    0.05    0.09
   2   5  -5   -0.08    0.11
  -1  -4   4    0.63    0.13
   0   3  -3    4.93    0.18
   1  -2   2    2.85    0.15
   1  -2   2    2.72    0.15
  -1   2  -2    2.85    0.15
   2  -1   1   15.83    0.48
   2  -1   1   16.25    0.37
   2  -1   1   15.81    0.42
   3   0   0    1.56    0.21
   3   0   0    1.89    0.12
  -3   0   0    2.11    0.20
   4   1  -1   14.95    0.52
   4   1  -1   15.95    0.74
  -4  -1   1   15.30    0.57
  -4  -1   1   15.25    0.37
   5   2  -2    1.71    0.22
   5   2  -2    1.43    0.31
   6   3  -3    0.17    0.12
   6   3  -3    0.18    0.16
   7   4  -4    0.07    0.20
  -4  -7   6    0.31    0.16
   4   7  -6    0.10    0.19
   4   7  -6    0.42    0.21
  -3  -6   5    0.27    0.13
   3   6  -5    0.09    0.14
  -2  -5   4   19.48    0.68
   2   5  -4   18.82    0.86
  -1  -4   3   16.07    0.55
   1   4  -3   16.50    0.68
   0   3  -2    0.04    0.06
   0   3  -2    0.12    0.05
   1  -2   1   86.27    1.91
  -1   2  -1   83.77    1.91
   2  -1   0   50.00    1.07
   3   0  -1   16.64    0.46
  -3   0   1   16.44    0.36
  -3   0   1   15.39    0.58
   4   1  -2   19.37    0.61
  -4  -1   2   18.43    0.47
  -4  -1   2   19.83    0.65
   5   2  -3    0.27    0.12
   5   2  -3    0.07    0.13
   6   3  -4    1.93    0.40
   6   3  -4    2.10    0.29
  -4  -7   5   -0.01    0.11
   4   7  -5    0.16    0.21
   4   7  -5   -0.05    0.15
  -3  -6   4    0.20    0.11
   3   6  -4    0.11    0.13
   3   6  -4    0.11    0.15
   2   5  -3    0.10    0.11
   1   4  -2    0.58    0.14
   0  -3   1   20.22    0.65
   0   3  -1   22.06    0.66
  -1   2   0   13.02    0.41
  -2   1   1    0.88    0.11
  -3   0   2    0.26    0.11
  -3   0   2    0.49    0.09
  -3   0   2    0.42    0.06
   4   1  -3    3.05    0.25
  -4  -1   3    2.36    0.14
  -4  -1   3    2.20    0.21
  -4  -1   3    2.73    0.35
   5   2  -4    0.17    0.11
  -5  -2   4    0.15    0.07
   6   3  -5    1.49    0.37
   6   3  -5    1.50    0.26
  -4  -7   4    2.00    0.29
   4   7  -4    1.89    0.35
   4   7  -4    1.93    0.41
  -3  -6   3    3.91    0.35
   3   6  -3    3.70    0.42
   3   6  -3    3.66    0.48
   2   5  -2    1.70    0.29
   2   5  -2    1.98    0.28
   1   4  -1   14.97    0.58
   1   4  -1   14.81    0.63
   0   3   0    5.38    0.26
  -1   2   1   11.37    0.33
  -2   1   2    5.94    0.25
  -3   0   3   13.90    0.44
  -3   0   3   13.40    0.61
  -3   0   3   12.73    0.38
  -4  -1   4    0.43    0.18
  -4  -1   4    0.32    0.08
  -5  -2   5    3.00    0.21
   6   3  -6    3.07    0.37
  -4  -7   3    0.10    0.13
   4   7  -3    0.15    0.19
   4   7  -3   -0.03    0.15
   3   6  -2    0.81    0.21
   3   6  -2    1.30    0.31
   2   5  -1    1.26    0.22
   2   5  -1    1.66    0.27
   1   4   0    0.54    0.12
   0   3   1    1.56    0.17
  -1   2   2   20.67    0.54
  -2   1   3   -0.02    0.04
  -2   1   3   -0.02    0.04
  -3   0   4    4.88    0.38
  -3   0   4    4.97    0.23
  -3   0   4    4.98    0.24
  -4  -1   5    0.47    0.10
  -4  -1   5    0.49    0.20
  -5  -2   6    0.43    0.22
  -5  -2   6    0.98    0.16
   4   7  -2    0.37    0.20
   4   7  -2    0.20    0.20
   3   6  -1    0.00    0.11
   3   6  -1    0.04    0.14
   2   5   0    8.14    0.46
   1   4   1   17.15    0.63
   0   3   2    5.21    0.26
  -1   2   3   60.98    1.42
  -2   1   4   11.31    0.40
  -3   0   5    0.07    0.11
  -3   0   5    0.02    0.05
  -3   0   5    0.09    0.06
  -4  -1   6   16.93    0.57
  -4  -1   6   21.34    0.63
  -4  -1   6   21.89    1.04
  -5  -2   7    3.18    0.53
  -5  -2   7    3.17    0.29
   4   7  -1    0.07    0.16
   3   6   0    0.27    0.16
   2   5   1    0.00    0.08
   1   4   2    0.10    0.08
   0   3   3    0.28    0.09
  -1   2   4    9.91    0.37
  -2   1   5   11.40    0.45
  -3   0   6    1.64    0.30
  -3   0   6    1.64    0.18
  -4  -1   7    2.63    0.46
  -4  -1   7    1.84    0.22
  -5  -2   8    0.24    0.12
  -5  -2   8    0.18    0.24
   4   7   0    5.38    0.56
   3   6   1    4.09    0.44
   2   5   2   10.81    0.54
   1   4   3   82.10    2.05
   0   3   4   58.34    1.48
  -1   2   5   55.72    1.40
  -2   1   6   31.66    0.95
  -3   0   7    2.05    0.19
  -3   0   7    1.65    0.32
  -3   0   7    2.15    0.22
  -4  -1   8    6.11    0.69
  -4  -1   8    5.78    0.35
  -5  -2   9    0.14    0.24
  -5  -2   9    0.57    0.16
   4   7   1    1.65    0.32
   3   6   2   -0.14    0.09
   2   5   3    0.22    0.12
   1   4   4    9.19    0.46
   0   3   5    1.23    0.18
  -1   2   6    0.37    0.11
  -2   1   7    0.08    0.08
  -3   0   8    6.45    0.65
  -3   0   8    5.68    0.34
  -3   0   8    6.26    0.31
  -4  -1   9    2.42    0.28
  -4  -1   9    3.30    0.54
  -5  -2  10    0.11    0.12
  -5  -2  10   -0.08    0.20
   4   7   2    4.11    0.49
   3   6   3    5.51    0.51
   2   5   4    7.12    0.46
   1   4   5   21.94    0.81
   0   3   6    2.96    0.29
  -1   2   7   57.86    1.57
  -2   1   8   62.74    1.74
  -3   0   9    6.01    0.36
  -3   0   9    6.63    0.70
  -4  -1  10    3.81    0.60
  -4  -1  10    5.49    0.37
   4   7   3   -0.05    0.14
   3   6   4    2.84    0.39
   2   5   5    0.36    0.16
   1   4   6    0.84    0.19
   0   3   7   -0.02    0.08
  -1   2   8    0.09    0.11
  -2   1   9    4.35    0.44
  -2   1   9    3.84    0.49
  -3   0  10    4.23    0.38
  -3   0  10    4.52    0.61
  -4  -1  11   -0.02    0.11
  -4  -1  11    0.32    0.25
   4   7   4    0.78    0.25
   3   6   5    5.87    0.55
   2   5   6    2.19    0.32
   1   4   7   29.10    1.03
   0   3   8   27.76    0.98
  -1   2   9    0.54    0.18
  -2   1  10    4.03    0.46
  -2   1  10    3.90    0.53
  -3   0  11    1.99    0.45
   3   6   6    0.43    0.19
   2   5   7    0.44    0.17
   1   4   8    0.11    0.13
   0   3   9    6.43    0.45
  -1   2  10    0.49    0.19
  -2   1  11    0.10    0.15
  -2   1  11    0.14    0.19
   3   6   7    2.16    0.38
   2   5   8    1.91    0.33
   1   4   9    1.11    0.25
   0   3  10    1.40    0.28
  -1   2  11    5.14    0.53
  -2   1  12    6.10    0.63
  -2   1  12    5.02    0.68
   2   5   9    1.18    0.28
   1   4  10    0.02    0.14
   0   3  11    0.70    0.22
  -1   2  12    0.47    0.20
  -1   2  12    0.85    0.31
   2  -2  12    1.86    0.29
   2  -2  12    1.71    0.38
   3  -1  11    7.07    0.67
   4   0  10    2.21    0.37
   5   1   9    0.12    0.16
   1  -3  12    0.13    0.23
   1  -3  12    0.20    0.15
   2  -2  11    0.11    0.17
   2  -2  11    0.13    0.11
   3  -1  10    2.41    0.36
   4   0   9    0.64    0.20
   5   1   8   -0.12    0.11
   6   2   7    0.16    0.17
   0  -4  12    2.00    0.32
   1  -3  11    5.90    0.42
   1  -3  11    7.23    0.74
   2  -2  10    6.56    0.63
   2  -2  10    5.94    0.60
   2  -2  10    7.06    0.42
   3  -1   9    6.22    0.47
   3  -1   9    6.22    0.37
   4   0   8    0.17    0.15
   5   1   7    1.86    0.29
   6   2   6    0.81    0.22
   0  -4  11    0.06    0.12
   1  -3  10    1.61    0.35
   1  -3  10    2.51    0.31
   2  -2   9    5.83    0.36
   2  -2   9    4.92    0.51
   2  -2   9    5.27    0.52
   3  -1   8    0.31    0.16
   3  -1   8    0.11    0.09
   4   0   7    0.24    0.14
   5   1   6    1.68    0.26
   6   2   5    0.08    0.12
  -1  -5  11    1.40    0.27
   0  -4  10    6.38    0.43
   1  -3   9   21.96    1.03
   1  -3   9   20.53    0.77
   2  -2   8   11.10    0.61
   2  -2   8   10.90    0.61
   2  -2   8    9.77    0.45
   3  -1   7    5.83    0.40
   3  -1   7    5.62    0.31
   3  -1   7    6.10    0.38
   4   0   6   11.66    0.56
   5   1   5    7.81    0.45
   6   2   4    3.06    0.35
   7   3   3    0.46    0.18
  -1  -5  10    0.57    0.17
   0  -4   9    0.76    0.18
   1  -3   8    0.19    0.10
   1  -3   8    0.21    0.16
   2  -2   7    0.03    0.10
   2  -2   7    0.13    0.11
   2  -2   7    0.03    0.06
   3  -1   6   -0.03    0.07
   3  -1   6    0.00    0.08
   3  -1   6   -0.02    0.05
   4   0   5    0.52    0.14
   5   1   4    0.01    0.09
   6   2   3    1.00    0.21
   7   3   2    0.72    0.21
  -2  -6  10    1.33    0.27
  -1  -5   9    4.68    0.43
   0  -4   8   19.56    0.73
   1  -3   7    9.25    0.58
   1  -3   7   10.70    0.46
   2  -2   6   31.29    1.01
   2  -2   6   30.34    0.85
   2  -2   6   30.22    1.03
   3  -1   5   91.56    1.98
   3  -1   5   91.44    2.23
   3  -1   5   89.72    2.23
   4   0   4    5.73    0.33
   5   1   3    0.14    0.10
   6   2   2    0.93    0.20
   7   3   1    0.81    0.21
   7   3   1    0.93    0.31
  -2  -6   9    0.02    0.11
  -1  -5   8    0.08    0.10
   1  -3   6    0.04    0.06
   2  -2   5    2.81    0.29
   2  -2   5    2.00    0.19
   2  -2   5    1.89    0.23
  -2   2  -5    1.93    0.21
   3  -1   4   14.38    0.44
   3  -1   4   14.91    0.54
   3  -1   4   14.37    0.44
  -3   1  -4   14.63    0.58
   4   0   3   -0.09    0.05
   5   1   2    0.60    0.14
   5   1   2    0.34    0.16
   6   2   1    1.57    0.34
   6   2   1    1.53    0.23
   7   3   0    0.07    0.19
  -2  -6   8   14.56    0.68
  -1  -5   7    3.68    0.35
   0  -4   6    6.29    0.23
   1  -3   5  103.27    2.34
  -1   3  -5  109.73    2.43
   2  -2   4   30.36    0.77
   2  -2   4   30.53    0.89
  -2   2  -4   28.15    0.85
  -2   2  -4   29.61    0.87
   3  -1   3   51.34    1.13
   3  -1   3   51.30    1.30
  -3   1  -3   53.38    1.40
   4   0   2   13.38    0.62
   4   0   2   14.34    0.49
  -4   0  -2   15.11    0.61
  -4   0  -2   14.98    0.35
   5   1   1    0.35    0.17
   5   1   1    0.70    0.14
   6   2   0    2.31    0.27
   6   2   0    3.44    0.49
   7   3  -1    0.19    0.22
  -3  -7   8    0.52    0.18
   3   7  -8    0.62    0.27
  -2  -6   7    0.43    0.15
  -1  -5   6    2.20    0.27
   0   4  -5    4.08    0.17
   1  -3   4    0.72    0.12
  -1   3  -4    0.67    0.10
   2  -2   3    3.67    0.23
   2  -2   3    3.62    0.18
  -2   2  -3    3.32    0.20
  -2   2  -3    3.61    0.22
   3  -1   2    0.51    0.06
   3  -1   2    0.42    0.10
   3  -1   2    0.35    0.08
  -3   1  -2    0.38    0.06
  -3   1  -2    0.27    0.09
   4   0   1    0.16    0.07
   4   0   1    0.07    0.09
  -4   0  -1    0.09    0.08
   5   1   0    0.18    0.09
   5   1   0    0.44    0.18
  -5  -1   0    0.08    0.10
   6   2  -1    3.67    0.33
   6   2  -1    4.21    0.54
   7   3  -2    0.41    0.26
  -3  -7   7    0.05    0.12
   3   7  -7    0.17    0.20
  -2  -6   6    1.51    0.25
   2   6  -6    1.59    0.31
  -1  -5   5    3.95    0.34
   0   4  -4   18.65    0.50
   1  -3   3   74.73    1.65
  -1   3  -3   73.46    1.71
   2  -2   2    0.54    0.08
   2  -2   2    0.43    0.09
  -2   2  -2    0.56    0.07
  -2   2  -2    0.75    0.11
   3  -1   1    5.85    0.22
   3  -1   1    6.31    0.31
   3  -1   1    6.45    0.16
   4   0   0   48.54    1.50
   4   0   0   48.16    1.17
  -4   0   0   49.22    1.33
   5   1  -1    0.47    0.18
   5   1  -1    0.42    0.11
  -5  -1   1    0.40    0.13
   6   2  -2    4.00    0.53
   6   2  -2    3.07    0.30
   7   3  -3    0.15    0.20
  -3  -7   6    0.07    0.13
   3   7  -6    0.33    0.22
  -2  -6   5    0.90    0.19
   2   6  -5    0.39    0.18
  -1  -5   4    1.43    0.20
   1   5  -4    1.65    0.26
   1   5  -4    1.32    0.11
   0   4  -3    2.01    0.13
   0   4  -3    1.99    0.22
  -1   3  -2    0.25    0.07
  -1   3  -2    0.23    0.05
   2  -2   1   12.55    0.37
  -2   2  -1   13.61    0.44
   3  -1   0    2.48    0.11
  -3   1   0    2.77    0.16
  -3   1   0    2.75    0.19
   4   0  -1    1.04    0.12
  -4   0   1    0.98    0.17
  -4   0   1    1.12    0.17
   5   1  -2    1.13    0.16
   5   1  -2    0.85    0.24
  -5  -1   2    1.09    0.19
  -5  -1   2    0.90    0.08
   6   2  -3    0.28    0.20
   6   2  -3    0.32    0.13
   7   3  -4    0.13    0.17
  -3  -7   5    0.07    0.11
   3   7  -5    0.05    0.16
   3   7  -5    0.12    0.14
  -2  -6   4    6.72    0.40
   2   6  -4    6.75    0.51
   1   5  -3   33.69    1.14
   0   4  -2   11.32    0.46
   0   4  -2   11.57    0.39
   1  -3   1   38.12    0.95
  -1   3  -1   37.73    0.96
   3  -1  -1    0.33    0.04
   3  -1  -1    0.42    0.04
  -3   1   1    0.04    0.05
   4   0  -2   11.36    0.39
  -4   0   2   12.14    0.47
  -4   0   2   11.33    0.55
   5   1  -3    2.02    0.22
  -5  -1   3    2.29    0.25
  -5  -1   3    2.04    0.13
  -5  -1   3    1.89    0.32
   6   2  -4   -0.09    0.13
   6   2  -4    0.03    0.10
   7   3  -5    0.71    0.29
  -4  -8   5    0.06    0.13
   4   8  -5   -0.06    0.22
  -3  -7   4    0.89    0.20
   3   7  -4    0.26    0.17
   3   7  -4    1.00    0.29
   2   6  -3    0.17    0.15
   2   6  -3    0.25    0.15
   1   5  -2    6.74    0.42
   1   5  -2    6.93    0.40
   0   4  -1    1.82    0.20
  -1   3   0    3.23    0.18
  -1   3   0    3.43    0.20
  -2   2   1    8.20    0.21
  -3   1   2    0.01    0.04
  -4   0   3    0.05    0.04
  -4   0   3    0.05    0.06
  -4   0   3    0.15    0.11
   5   1  -4    0.84    0.16
  -5  -1   4    0.67    0.22
  -5  -1   4    0.59    0.10
  -5  -1   4    0.74    0.15
   7   3  -6    1.07    0.36
   4   8  -4    2.52    0.43
   4   8  -4    2.41    0.48
   3   7  -3    2.97    0.46
   3   7  -3    3.10    0.42
   2   6  -2   -0.02    0.10
   2   6  -2    0.32    0.16
   1   5  -1    1.58    0.23
   1   5  -1    2.03    0.27
   0   4   0    4.56    0.27
  -1   3   1   21.05    0.59
  -3   1   3    0.09    0.05
  -4   0   4    2.18    0.17
  -4   0   4    2.05    0.20
  -4   0   4    1.45    0.28
  -5  -1   5    0.14    0.07
  -5  -1   5    0.02    0.16
  -5  -1   5    0.27    0.10
   4   8  -3    1.07    0.30
   4   8  -3    0.80    0.31
   3   7  -2    3.82    0.51
   3   7  -2    3.46    0.44
   2   6  -1    0.05    0.11
   2   6  -1    0.07    0.10
   1   5   0    2.27    0.27
   0   4   1    0.24    0.09
  -1   3   2   -0.03    0.04
  -2   2   3    4.42    0.25
  -2   2   3    5.82    0.22
  -3   1   4    2.36    0.18
  -4   0   5    5.12    0.53
  -4   0   5    4.61    0.24
  -4   0   5    4.79    0.26
  -5  -1   6    0.07    0.16
  -5  -1   6    0.01    0.06
  -6  -2   7    0.33    0.27
   4   8  -2    1.36    0.33
   3   7  -1    5.64    0.55
   2   6   0   16.63    0.73
   1   5   1   57.29    1.58
   0   4   2   40.03    1.10
  -1   3   3   81.71    1.89
  -2   2   4  128.16    2.84
  -3   1   5   18.55    0.60
  -4   0   6   15.90    0.86
  -4   0   6   15.35    0.54
  -4   0   6   15.14    0.52
  -5  -1   7    1.92    0.22
  -5  -1   7    1.97    0.41
  -6  -2   8   -0.02    0.20
   4   8  -1   -0.14    0.16
   3   7   0   -0.07    0.13
   2   6   1    2.98    0.36
   1   5   2    0.43    0.14
   0   4   3    1.09    0.17
  -1   3   4   12.25    0.44
  -2   2   5    1.68    0.19
  -3   1   6    0.53    0.12
  -4   0   7    0.13    0.08
  -4   0   7    0.20    0.09
  -4   0   7    0.32    0.17
  -5  -1   8    0.41    0.25
  -5  -1   8    0.48    0.13
  -6  -2   9    0.51    0.32
   4   8   0    0.09    0.18
   3   7   1    4.76    0.51
   2   6   2   14.61    0.69
   1   5   3   35.51    1.12
   0   4   4   15.70    0.59
  -1   3   5   20.58    0.67
  -2   2   6   18.82    0.65
  -3   1   7   24.25    0.77
  -4   0   8   30.38    1.40
  -4   0   8   31.52    0.94
  -5  -1   9    6.46    0.40
  -5  -1   9    6.94    0.81
   4   8   1    0.14    0.17
   3   7   2    0.42    0.19
   2   6   3    0.01    0.09
   1   5   4    3.32    0.35
   0   4   5    0.65    0.15
  -1   3   6    5.89    0.33
  -2   2   7   -0.01    0.08
  -3   1   8    1.21    0.29
  -3   1   8    0.78    0.15
  -4   0   9    1.70    0.39
  -4   0   9    2.43    0.28
  -5  -1  10    2.49    0.30
  -5  -1  10    2.61    0.54
   3   7   3    3.99    0.46
   2   6   4    0.76    0.21
   1   5   5   19.11    0.78
   0   4   6   15.90    0.65
  -1   3   7   22.77    0.79
  -2   2   8   56.72    1.59
  -3   1   9    0.15    0.16
  -3   1   9    0.07    0.09
  -4   0  10    0.25    0.26
  -5  -1  11    2.29    0.31
   3   7   4    0.41    0.18
   2   6   5    1.09    0.24
   1   5   6   -0.05    0.09
   0   4   7    0.02    0.09
  -1   3   8   -0.07    0.09
  -2   2   9    3.34    0.37
  -3   1  10    0.79    0.29
  -4   0  11   -0.08    0.19
   3   7   5    3.01    0.42
   2   6   6    3.53    0.43
   1   5   7    7.47    0.50
   0   4   8   10.78    0.57
  -1   3   9   -0.12    0.08
  -2   2  10    3.08    0.38
  -3   1  11    6.51    0.75
   3   7   6   -0.01    0.15
   2   6   7   -0.01    0.13
   1   5   8    0.52    0.19
   0   4   9    2.57    0.34
  -1   3  10    0.19    0.15
  -2   2  11    3.33    0.43
   2   6   8    0.94    0.25
   1   5   9    1.06    0.25
   0   4  10    4.03    0.46
  -1   3  11    2.17    0.35
  -2   2  12    4.63    0.53
  -2   2  12    3.11    0.53
   1   5  10   -0.01    0.14
   0   4  11    1.11    0.27
  -1   3  12    0.04    0.16
   2  -3  12    1.29    0.25
   3  -2  11    5.87    0.41
   3  -2  11    6.07    0.64
   4  -1  10    2.49    0.38
   5   0   9    1.64    0.32
   1  -4  12    0.37    0.17
   2  -3  11    0.14    0.11
   3  -2  10    2.33    0.28
   3  -2  10    2.16    0.36
   4  -1   9    1.61    0.30
   5   0   8    0.18    0.16
   6   1   7    0.31    0.16
   0  -5  12    1.42    0.29
   1  -4  11    4.48    0.44
   2  -3  10    2.36    0.29
   2  -3  10    2.11    0.38
   3  -2   9   12.61    0.56
   3  -2   9   13.51    0.72
   4  -1   8   10.31    0.59
   5   0   7    0.69    0.20
   6   1   6    3.62    0.40
   0  -5  11    0.14    0.14
   1  -4  10    1.02    0.21
   2  -3   9   -0.04    0.07
   2  -3   9   -0.05    0.13
   3  -2   8    0.34    0.17
   3  -2   8    0.38    0.12
   4  -1   7   -0.02    0.10
   5   0   6    0.10    0.12
   6   1   5    0.11    0.13
   7   2   4    0.15    0.14
  -1  -6  11    4.09    0.45
   0  -5  10    2.70    0.34
   1  -4   9   13.20    0.61
   2  -3   8   15.55    0.77
   2  -3   8   15.27    0.60
   3  -2   7    5.40    0.36
   3  -2   7    4.85    0.29
   3  -2   7    4.95    0.44
   4  -1   6   15.71    0.53
   4  -1   6   16.15    0.68
   5   0   5   14.68    0.63
   6   1   4    2.28    0.29
   7   2   3   -0.06    0.12
  -1  -6  10    0.34    0.15
   0  -5   9    0.30    0.14
   1  -4   8    0.42    0.13
   2  -3   7    0.29    0.15
   2  -3   7    0.33    0.11
   3  -2   6    1.49    0.23
   3  -2   6    1.57    0.18
   4  -1   5    3.43    0.20
   4  -1   5    3.02    0.30
   5   0   4    4.56    0.31
   6   1   3    0.75    0.18
   7   2   2    0.10    0.13
  -1  -6   9    6.66    0.46
   0  -5   8   16.59    0.70
   1  -4   7   16.47    0.64
   2  -3   6    5.60    0.31
  -2   3  -6    5.93    0.32
   3  -2   5   37.11    1.13
   3  -2   5   39.21    0.97
  -3   2  -5   39.80    1.16
   4  -1   4   28.02    0.87
   4  -1   4   28.78    0.71
  -4   1  -4   28.23    0.97
   5   0   3    4.84    0.29
   6   1   2    3.75    0.47
   6   1   2    3.96    0.29
   7   2   1    0.53    0.26
  -2  -7   9    1.29    0.26
  -1  -6   8    3.92    0.39
   0  -5   7    0.51    0.15
   1  -4   6    1.72    0.22
  -1   4  -6    1.32    0.15
   2  -3   5   13.55    0.49
  -2   3  -5   13.53    0.51
   3  -2   4    0.11    0.06
   3  -2   4    0.03    0.07
  -3   2  -4    0.24    0.10
   4  -1   3    0.26    0.09
  -4   1  -3    0.39    0.12
   5   0   2    0.09    0.11
   5   0   2    0.07    0.08
  -5   0  -2    0.11    0.09
   6   1   1    2.65    0.41
   6   1   1    1.43    0.20
   7   2   0    0.26    0.22
  -2  -7   8    2.80    0.36
   2   7  -8    2.16    0.41
  -1  -6   7    2.27    0.30
   0   5  -6    0.00    0.04
   1  -4   5    7.81    0.39
  -1   4  -5    8.66    0.33
   2  -3   4   29.13    0.80
  -2   3  -4   29.73    0.85
   3  -2   3   19.18    0.50
   3  -2   3   18.44    0.59
  -3   2  -3   18.30    0.65
  -3   2  -3   17.96    0.59
   4  -1   2   12.13    0.52
   4  -1   2   11.31    0.40
   5   0   1    0.65    0.12
   5   0   1    0.68    0.19
  -5   0  -1    0.85    0.19
   6   1   0    5.24    0.31
   6   1   0    4.97    0.57
   7   2  -1    0.45    0.24
  -2  -7   7    0.95    0.23
   2   7  -7    1.05    0.29
  -1  -6   6    0.35    0.14
   1   6  -6    0.21    0.16
   0   5  -5    5.46    0.22
   1  -4   4    0.37    0.11
  -1   4  -4    0.46    0.09
   2  -3   3    0.53    0.10
  -2   3  -3    0.86    0.13
   3  -2   2    0.32    0.08
   3  -2   2    0.34    0.08
   3  -2   2    0.32    0.06
  -3   2  -2    0.28    0.10
   4  -1   1    3.88    0.19
   4  -1   1    4.21    0.30
  -4   1  -1    4.22    0.29
   5   0   0    0.78    0.12
   5   0   0    0.71    0.20
  -5   0   0    1.08    0.19
   6   1  -1   -0.04    0.14
   6   1  -1    0.21    0.10
  -6  -1   1    0.03    0.09
   7   2  -2    0.78    0.29
  -3  -8   7    0.48    0.19
   3   8  -7    0.02    0.19
  -2  -7   6    0.20    0.14
   2   7  -6    0.18    0.17
  -1  -6   5    4.59    0.39
   1   6  -5    3.90    0.42
   0   5  -4    9.14    0.32
   0   5  -4    8.62    0.44
  -1   4  -3   68.36    1.68
  -1   4  -3   67.81    1.61
  -2   3  -2    4.10    0.23
   3  -2   1    3.57    0.17
   3  -2   1    3.71    0.21
  -3   2  -1    4.14    0.25
   4  -1   0   43.65    1.35
   4  -1   0   44.38    1.02
  -4   1   0   43.57    1.23
  -4   1   0   44.36    1.19
   5   0  -1    1.24    0.27
   5   0  -1    1.27    0.14
  -5   0   1    1.33    0.21
   6   1  -2    0.58    0.24
   6   1  -2    0.16    0.09
  -6  -1   2    0.71    0.18
   7   2  -3    2.21    0.45
  -3  -8   6    0.52    0.19
   3   8  -6    0.69    0.28
   3   8  -6    0.67    0.24
  -2  -7   5   -0.01    0.09
   2   7  -5   -0.06    0.13
  -1  -6   4    0.73    0.16
   1   6  -4    0.71    0.19
   1   6  -4    0.74    0.11
   0   5  -3    0.18    0.09
   0   5  -3    0.06    0.06
  -1   4  -2   12.90    0.44
  -2   3  -1    3.12    0.20
   4  -1  -1    0.05    0.03
  -4   1   1    0.02    0.07
  -4   1   1    0.01    0.07
   5   0  -2    0.86    0.13
  -5   0   2    0.97    0.17
  -5   0   2    1.18    0.23
  -6  -1   3    0.00    0.09
   7   2  -4   -0.13    0.15
  -3  -8   5    3.29    0.39
   3   8  -5    3.88    0.50
   3   8  -5    3.50    0.52
  -2  -7   4    6.05    0.40
   2   7  -4    6.15    0.60
   2   7  -4    5.18    0.52
   1   6  -3   29.18    1.08
   0   5  -2    1.35    0.19
   1  -4   1    2.21    0.16
  -1   4  -1    2.48    0.18
  -2   3   0   80.89    1.93
  -3   2   1    0.27    0.08
   4  -1  -2   16.01    0.43
  -4   1   2   16.10    0.59
  -4   1   2   18.58    0.69
   5   0  -3    6.81    0.31
  -5   0   3    6.64    0.48
  -5   0   3    6.93    0.38
  -6  -1   4    0.20    0.12
   7   2  -5    0.31    0.27
  -3  -8   4   -0.11    0.11
   3   8  -4   -0.01    0.17
   3   8  -4    0.03    0.15
   2   7  -3    0.69    0.22
   2   7  -3    0.21    0.15
   1   6  -2   13.77    0.67
   1   6  -2   13.93    0.65
   0   5  -1    0.99    0.18
  -1   4   0   10.31    0.40
  -2   3   1    0.03    0.04
  -3   2   2    0.07    0.06
  -4   1   3    5.20    0.29
  -4   1   3    4.75    0.36
  -5   0   4    0.65    0.14
  -5   0   4    0.83    0.23
  -6  -1   5    0.47    0.23
   3   8  -3    1.03    0.30
   3   8  -3    1.41    0.32
   2   7  -2    2.31    0.34
   2   7  -2    2.34    0.38
   1   6  -1   33.85    1.13
   0   5   0   57.21    1.52
  -1   4   1   76.25    1.81
  -2   3   2  183.91    4.11
  -2   3   2  180.72    3.89
  -3   2   3   46.83    1.09
  -3   2   3   47.09    1.24
  -4   1   4   40.69    1.39
  -4   1   4   42.81    1.15
  -5   0   5   15.86    0.59
  -5   0   5   14.48    0.84
  -6  -1   6    0.40    0.24
   3   8  -2    0.12    0.16
   2   7  -1   -0.06    0.09
   1   6   0    0.08    0.11
   0   5   1    7.67    0.40
  -1   4   2    0.44    0.10
  -2   3   3    6.81    0.26
  -3   2   4    7.00    0.28
  -3   2   4    7.22    0.35
  -4   1   5    0.25    0.15
  -4   1   5    0.21    0.09
  -5   0   6    1.56    0.34
  -5   0   6    1.86    0.22
  -6  -1   7    0.92    0.33
   3   8  -1    2.30    0.39
   2   7   0    0.74    0.21
   1   6   1   20.43    0.81
   0   5   2   85.51    2.14
  -1   4   3   22.39    0.69
  -2   3   4   20.72    0.60
  -3   2   5   14.07    0.50
  -3   2   5   14.75    0.55
  -4   1   6    6.34    0.34
  -4   1   6    7.21    0.54
  -5   0   7   18.15    1.04
  -6  -1   8    9.86    0.99
   3   8   0    0.12    0.16
   2   7   1   -0.05    0.11
   1   6   2   -0.03    0.08
   0   5   3   -0.03    0.08
  -1   4   4    7.51    0.36
  -2   3   5    1.93    0.20
  -3   2   6    1.66    0.20
  -3   2   6    1.22    0.19
  -4   1   7   -0.14    0.09
  -4   1   7    0.00    0.08
  -5   0   8    0.17    0.21
  -6  -1   9    1.30    0.42
   3   8   1    1.30    0.30
   2   7   2    8.21    0.54
   1   6   3   18.50    0.77
   0   5   4   10.78    0.51
  -1   4   5   12.33    0.50
  -2   3   6   38.05    1.07
  -3   2   7   20.02    0.72
  -3   2   7   19.15    0.71
  -4   1   8   14.66    0.88
  -4   1   8   15.17    0.58
  -5   0   9    0.87    0.34
   3   8   2   -0.02    0.14
   2   7   3    0.17    0.15
   1   6   4    0.47    0.16
   0   5   5    2.65    0.30
  -1   4   6    0.11    0.09
  -2   3   7    1.03    0.18
  -3   2   8    0.67    0.17
  -4   1   9    2.79    0.47
  -5   0  10    0.48    0.28
   3   8   3    2.14    0.36
   2   7   4    1.01    0.24
   1   6   5    3.65    0.39
   0   5   6   21.02    0.81
  -1   4   7    8.24    0.45
  -2   3   8   12.71    0.58
  -3   2   9    0.74    0.20
  -4   1  10    0.04    0.17
   3   8   4    0.20    0.18
   2   7   5    0.24    0.16
   1   6   6    0.09    0.14
   0   5   7    0.11    0.12
  -1   4   8    0.15    0.11
  -2   3   9    1.35    0.24
  -3   2  10    0.36    0.17
  -4   1  11    1.63    0.41
   2   7   6    0.82    0.23
   1   6   7    5.01    0.50
   0   5   8    6.46    0.45
  -1   4   9    0.61    0.18
  -2   3  10    4.48    0.46
  -3   2  11    4.23    0.61
  -3   2  11    6.38    0.60
   2   7   7    0.08    0.15
   1   6   8    0.11    0.14
   0   5   9    3.27    0.40
  -1   4  10    0.49    0.19
  -2   3  11    2.30    0.36
  -3   2  12   -0.03    0.15
   1   6   9    1.11    0.27
   0   5  10    9.74    0.62
  -1   4  11    1.97    0.34
  -2   3  12    1.71    0.34
   4  -2  11    0.17    0.18
   5  -1  10    0.99    0.26
   2  -4  12    0.66    0.21
   3  -3  11    3.23    0.36
   3  -3  11    3.98    0.52
   4  -2  10    1.68    0.33
   4  -2  10    2.11    0.27
   5  -1   9    1.87    0.32
   6   0   8    3.84    0.47
   2  -4  11    0.98    0.22
   3  -3  10    0.11    0.12
   3  -3  10    0.36    0.20
   4  -2   9    0.12    0.16
   4  -2   9   -0.06    0.08
   5  -1   8   -0.01    0.12
   6   0   7    0.44    0.18
   1  -5  11    9.67    0.57
   2  -4  10    3.71    0.38
   3  -3   9    6.22    0.60
   3  -3   9    6.70    0.39
   4  -2   8   14.26    0.71
   4  -2   8   15.78    0.59
   5  -1   7    1.95    0.30
   6   0   6    2.65    0.34
   7   1   5    2.70    0.34
   0  -6  11    0.04    0.12
   1  -5  10    1.93    0.30
   2  -4   9    0.99    0.20
   3  -3   8    0.03    0.13
   3  -3   8    0.11    0.09
   4  -2   7   -0.03    0.06
   4  -2   7    0.06    0.11
   5  -1   6    0.09    0.11
   6   0   5    2.44    0.30
   7   1   4    2.29    0.30
   0  -6  10    1.53    0.27
   1  -5   9   11.33    0.58
   2  -4   8   17.35    0.67
   3  -3   7    3.75    0.26
   3  -3   7    3.58    0.41
   4  -2   6    5.80    0.30
   4  -2   6    5.76    0.39
   5  -1   5    6.27    0.38
   6   0   4    5.70    0.37
  -1  -7  10    0.11    0.14
   0  -6   9    5.11    0.47
   1  -5   8    6.11    0.40
   2  -4   7    0.05    0.08
   3  -3   6    0.59    0.12
   3  -3   6    0.56    0.17
  -3   3  -6    0.34    0.12
   4  -2   5    0.72    0.16
   4  -2   5    0.88    0.13
  -4   2  -5    0.80    0.19
   5  -1   4    0.27    0.11
  -5   1  -4    0.01    0.11
   6   0   3    0.29    0.11
  -1  -7   9    6.04    0.53
   0  -6   8    4.63    0.43
   1  -5   7    3.56    0.34
  -1   5  -7    3.56    0.22
   2  -4   6    3.48    0.31
  -2   4  -6    3.00    0.27
   3  -3   5    0.04    0.09
   3  -3   5    0.11    0.07
  -3   3  -5    0.18    0.09
   4  -2   4   19.82    0.55
   4  -2   4   20.38    0.69
  -4   2  -4   18.94    0.75
   5  -1   3    5.94    0.31
   6   0   2    0.72    0.14
   6   0   2    0.89    0.23
  -6   0  -2    1.02    0.24
   7   1   1    0.55    0.24
   8   2   0    0.57    0.29
  -1  -7   8    0.81    0.21
   0  -6   7    0.32    0.13
   1  -5   6    1.69    0.24
  -1   5  -6    1.74    0.17
   2  -4   5    6.80    0.36
  -2   4  -5    7.00    0.34
   3  -3   4    0.52    0.13
   3  -3   4    1.09    0.14
  -3   3  -4    0.83    0.11
  -3   3  -4    0.94    0.15
  -3   3  -4    0.63    0.14
   4  -2   3    0.49    0.11
   4  -2   3    0.44    0.07
  -4   2  -3    0.53    0.15
   5  -1   2    0.33    0.10
   5  -1   2    0.24    0.12
  -5   1  -2   -0.02    0.06
   6   0   1    1.35    0.28
   6   0   1    0.94    0.15
  -6   0  -1    1.11    0.23
   7   1   0    0.08    0.17
   8   2  -1    0.13    0.22
  -2  -8   8    0.51    0.20
  -1  -7   7   -0.11    0.09
   1   7  -7    0.23    0.17
   0  -6   6    0.16    0.10
   0   6  -6    0.16    0.11
   1  -5   5    5.38    0.33
  -1   5  -5    4.68    0.24
   2  -4   4   38.59    1.03
  -2   4  -4   38.50    1.05
   3  -3   3   32.79    0.83
  -3   3  -3   31.53    0.96
  -3   3  -3   32.10    0.93
   4  -2   2    0.82    0.12
   4  -2   2    0.69    0.08
   5  -1   1    0.01    0.08
   5  -1   1    0.14    0.06
  -5   1  -1    0.10    0.09
   6   0   0    1.72    0.32
   6   0   0    2.30    0.21
  -6   0   0    3.14    0.36
   7   1  -1    1.31    0.35
   8   2  -2    0.02    0.20
  -2  -8   7    1.13    0.26
   2   8  -7    1.14    0.31
  -1  -7   6    3.07    0.35
   1   7  -6    2.66    0.37
   0   6  -5    0.03    0.05
   0   6  -5    0.00    0.08
   1  -5   4    0.00    0.06
  -1   5  -4   -0.04    0.06
  -1   5  -4    0.13    0.06
   2  -4   3    0.07    0.06
  -2   4  -3    0.15    0.07
   3  -3   2    1.98    0.17
  -3   3  -2    2.14    0.22
   4  -2   1    0.91    0.11
   4  -2   1    0.81    0.07
   5  -1   0    0.17    0.12
   5  -1   0    0.22    0.07
  -5   1   0    0.31    0.11
  -5   1   0    0.09    0.09
   6   0  -1    0.16    0.16
  -6   0   1    0.25    0.13
   7   1  -2    0.70    0.27
  -7  -1   2    0.65    0.20
   8   2  -3   -0.01    0.20
  -2  -8   6    1.82    0.30
   2   8  -6    2.24    0.40
  -1  -7   5   17.03    0.71
   1   7  -5   16.78    0.80
   0   6  -4   13.50    0.60
   0   6  -4   14.10    0.47
  -1   5  -3   20.32    0.65
  -1   5  -3   21.66    0.65
  -2   4  -2    5.15    0.28
  -3   3  -1   12.60    0.49
   4  -2   0   44.48    0.98
  -4   2   0   43.14    1.23
   5  -1  -1   10.22    0.31
  -5   1   1    9.74    0.48
  -5   1   1   10.49    0.50
   6   0  -2    1.31    0.31
  -6   0   2    0.61    0.17
   7   1  -3    2.00    0.42
  -7  -1   3    2.16    0.31
  -2  -8   5    0.05    0.12
   2   8  -5    0.61    0.24
   2   8  -5    0.40    0.19
  -1  -7   4    0.04    0.11
   1   7  -4   -0.02    0.11
   0   6  -3    0.15    0.08
   0   6  -3    0.07    0.10
  -1   5  -2   24.49    0.74
  -2   4  -1   12.79    0.48
  -4   2   1    1.85    0.22
   5  -1  -2    0.40    0.07
   5  -1  -2    0.30    0.05
  -5   1   2    0.30    0.11
  -5   1   2    0.46    0.15
  -6   0   3    0.64    0.16
  -6   0   3    0.88    0.24
   7   1  -4    1.11    0.35
  -2  -8   4    0.28    0.14
   2   8  -4    0.03    0.16
   2   8  -4   -0.04    0.12
   1   7  -3    7.52    0.50
   1   7  -3    6.14    0.46
   0   6  -2   21.91    0.81
  -1   5  -1   37.97    1.06
  -2   4   0  160.94    3.50
  -2   4   0  158.91    3.64
  -3   3   1   51.06    1.11
  -3   3   1   51.92    1.36
  -4   2   2   49.71    1.35
   5  -1  -3   37.67    0.92
  -5   1   3   37.69    1.32
  -5   1   3   38.41    1.13
  -6   0   4    5.44    0.36
  -6   0   4    5.70    0.58
  -3  -9   4    0.64    0.21
   3   9  -4    0.72    0.29
   3   9  -4    0.40    0.22
   2   8  -3    0.09    0.16
   2   8  -3    0.17    0.15
   1   7  -2    0.36    0.17
   0   6  -1    0.16    0.10
  -1   5   0    7.96    0.38
  -2   4   1    8.02    0.31
  -2   4   1    8.08    0.38
  -3   3   2    1.62    0.09
  -3   3   2    1.77    0.21
  -4   2   3    2.66    0.25
  -5   1   4    3.78    0.28
  -5   1   4    3.82    0.44
  -6   0   5    1.06    0.20
  -6   0   5    0.91    0.28
  -7  -1   6    1.28    0.37
   3   9  -3    3.10    0.47
   2   8  -2    1.31    0.29
   1   7  -1    8.92    0.54
   0   6   0   11.27    0.54
  -1   5   1   16.84    0.59
  -2   4   2  227.74    4.90
  -3   3   3   39.52    1.12
  -3   3   3   38.46    0.92
  -4   2   4    0.05    0.07
  -5   1   5   10.01    0.45
  -5   1   5    9.53    0.64
  -6   0   6    0.93    0.31
  -7  -1   7    3.01    0.55
   3   9  -2    0.71    0.26
   2   8  -1   -0.05    0.11
   1   7   0    0.69    0.19
   0   6   1    0.05    0.09
  -1   5   2   -0.04    0.05
  -2   4   3    1.98    0.18
  -3   3   4    5.74    0.33
  -3   3   4    5.12    0.24
  -4   2   5    3.15    0.29
  -5   1   6   -0.01    0.12
  -5   1   6    0.00    0.08
  -6   0   7   -0.09    0.17
  -7  -1   8    0.32    0.27
   3   9  -1    4.17    0.54
   2   8   0    1.61    0.31
   1   7   1    1.90    0.30
   0   6   2   50.24    1.45
  -1   5   3   22.55    0.74
  -2   4   4   14.85    0.50
  -3   3   5   32.86    0.90
  -3   3   5   32.65    1.02
  -4   2   6   13.68    0.56
  -5   1   7   14.25    0.88
  -5   1   7   13.59    0.56
  -6   0   8    3.71    0.59
   3   9   0    0.09    0.17
   2   8   1    0.16    0.14
   1   7   2    1.09    0.24
   0   6   3    1.13    0.21
  -1   5   4    7.63    0.39
  -2   4   5    2.72    0.24
  -3   3   6    0.08    0.08
  -3   3   6    0.07    0.08
  -4   2   7    0.80    0.16
  -5   1   8   -0.05    0.16
  -6   0   9    1.40    0.41
   3   9   1    0.56    0.23
   2   8   2    1.49    0.29
   1   7   3    7.49    0.50
   0   6   4   10.15    0.52
  -1   5   5    1.74    0.23
  -2   4   6   14.08    0.55
  -3   3   7   20.51    0.73
  -4   2   8    2.53    0.28
  -5   1   9    0.90    0.32
   2   8   3    0.66    0.22
   1   7   4    0.38    0.16
   0   6   5    0.07    0.11
  -1   5   6    0.30    0.13
  -2   4   7    0.28    0.12
  -3   3   8    0.17    0.11
  -4   2   9    2.33    0.28
  -4   2   9    2.24    0.42
  -5   1  10    0.14    0.19
   2   8   4    1.07    0.26
   1   7   5   -0.09    0.10
   0   6   6    3.89    0.40
  -1   5   7   12.78    0.59
  -2   4   8    7.25    0.43
  -3   3   9    2.85    0.34
  -4   2  10    0.93    0.32
   2   8   5    1.38    0.30
   1   7   6    0.38    0.19
   0   6   7   -0.03    0.11
  -1   5   8    0.05    0.11
  -2   4   9    2.90    0.35
  -3   3  10    0.35    0.19
  -4   2  11    0.52    0.26
   1   7   7    0.09    0.14
   0   6   8    8.32    0.54
  -1   5   9    3.55    0.40
  -2   4  10    6.17    0.45
  -3   3  11    6.01    0.56
   1   7   8    1.35    0.30
   0   6   9    0.31    0.19
  -1   5  10   -0.09    0.11
  -2   4  11    2.25    0.36
   4  -3  11   -0.21    0.14
   4  -3  11    0.11    0.12
   5  -2  10   -0.02    0.16
   3  -4  11    5.49    0.47
   4  -3  10    3.88    0.37
   4  -3  10    4.30    0.54
   5  -2   9    1.05    0.26
   6  -1   8    3.93    0.46
   2  -5  11    0.43    0.17
   3  -4  10    0.76    0.19
   4  -3   9   -0.02    0.09
   4  -3   9    0.26    0.18
   5  -2   8   -0.07    0.12
   6  -1   7    0.51    0.19
   7   0   6    0.51    0.19
   1  -6  11    2.42    0.35
   2  -5  10    3.36    0.38
   3  -4   9    4.48    0.40
   4  -3   8   11.91    0.67
   4  -3   8   12.22    0.51
   5  -2   7    1.52    0.27
   6  -1   6    0.37    0.16
   1  -6  10    0.08    0.13
   2  -5   9    5.12    0.45
   3  -4   8    7.27    0.41
   4  -3   7    0.37    0.16
   4  -3   7    0.32    0.11
   5  -2   6    0.12    0.08
   5  -2   6    0.19    0.12
   6  -1   5   -0.01    0.10
   0  -7  10    1.04    0.25
   1  -6   9   10.60    0.58
   2  -5   8    8.48    0.47
   3  -4   7    0.06    0.09
  -3   4  -7   -0.02    0.08
   4  -3   6    4.71    0.27
   4  -3   6    4.70    0.43
  -4   3  -6    4.81    0.36
   5  -2   5    1.13    0.21
   5  -2   5    1.55    0.16
  -5   2  -5    1.71    0.28
   6  -1   4    1.67    0.23
   0  -7   9    0.39    0.16
   1  -6   8    0.84    0.20
   2  -5   7    0.34    0.12
  -2   5  -7    0.74    0.15
   3  -4   6    1.48    0.20
  -3   4  -6    0.93    0.18
   4  -3   5    0.44    0.10
   4  -3   5    0.10    0.11
  -4   3  -5    0.25    0.12
   5  -2   4    0.02    0.05
   5  -2   4   -0.01    0.08
  -5   2  -4    0.07    0.09
   6  -1   3   -0.02    0.08
  -6   1  -3    0.14    0.13
   7   0   2    0.65    0.23
   8   1   1    0.25    0.24
  -1  -8   9    5.36    0.52
   0  -7   8    1.35    0.26
   1  -6   7    1.74    0.26
   2  -5   6    5.46    0.35
  -2   5  -6    5.26    0.30
   3  -4   5    2.50    0.24
  -3   4  -5    2.58    0.27
  -3   4  -5    2.31    0.14
   4  -3   4   12.38    0.42
   4  -3   4   11.98    0.52
  -4   3  -4   11.97    0.55
   5  -2   3   16.85    0.59
   5  -2   3   17.66    0.45
   6  -1   2    0.07    0.11
   6  -1   2   -0.06    0.07
  -6   1  -2   -0.03    0.10
   7   0   1    1.00    0.28
  -7   0  -1    0.81    0.22
   8   1   0    0.49    0.28
  -1  -8   8    0.95    0.24
   0  -7   7    2.29    0.31
   1  -6   6    2.40    0.30
  -1   6  -6    2.87    0.20
  -1   6  -6    3.04    0.29
   2  -5   5    0.65    0.15
  -2   5  -5    0.38    0.08
  -2   5  -5    0.43    0.11
   3  -4   4    0.26    0.09
  -3   4  -4    0.25    0.10
   4  -3   3    2.12    0.17
   4  -3   3    1.53    0.19
  -4   3  -3    2.26    0.28
  -4   3  -3    1.84    0.13
   5  -2   2    2.31    0.11
   5  -2   2    2.39    0.18
   5  -2   2    2.46    0.28
   6  -1   1    0.14    0.13
  -6   1  -1    0.07    0.10
   7   0   0    0.56    0.23
  -7   0   0    0.83    0.22
   8   1  -1    0.64    0.29
  -1  -8   7    0.48    0.19
   0  -7   6    6.74    0.43
   0   7  -6    6.36    0.44
   1  -6   5   18.61    0.71
  -1   6  -5   18.59    0.67
  -1   6  -5   19.70    0.61
   2  -5   4   41.56    1.14
  -2   5  -4   42.08    1.14
   3  -4   3   16.77    0.54
  -3   4  -3   15.96    0.60
   4  -3   2    1.28    0.13
   4  -3   2    1.14    0.14
  -4   3  -2    1.23    0.20
   5  -2   1    0.73    0.17
   5  -2   1    0.93    0.11
  -5   2  -1    0.87    0.11
  -5   2  -1    0.82    0.18
   6  -1   0    4.53    0.48
  -6   1   0    4.54    0.42
   7   0  -1    3.13    0.47
  -7   0   1    3.26    0.40
   8   1  -2    0.27    0.25
  -1  -8   6    1.37    0.26
   0  -7   5    2.40    0.30
   0   7  -5    2.57    0.32
   1  -6   4    0.91    0.18
  -1   6  -4    1.11    0.15
  -1   6  -4    1.42    0.18
  -2   5  -3    0.08    0.07
  -3   4  -2   13.36    0.53
   4  -3   1    6.14    0.31
   5  -2   0    0.44    0.15
   5  -2   0    0.51    0.07
  -5   2   0    0.38    0.10
  -5   2   0    0.63    0.15
   6  -1  -1    4.68    0.52
  -6   1   1    3.14    0.34
  -6   1   1    2.62    0.31
   7   0  -2    1.17    0.33
  -7   0   2    0.96    0.22
   8   1  -3    0.43    0.26
  -2  -9   6    0.34    0.17
   2   9  -6    0.48    0.22
  -1  -8   5    1.45    0.26
   1   8  -5    1.43    0.30
   0   7  -4    4.63    0.36
   0   7  -4    4.96    0.27
  -1   6  -3    5.35    0.29
  -2   5  -2   53.20    1.40
  -3   4  -1   64.26    1.66
   5  -2  -1   44.06    0.91
  -5   2   1   44.93    1.31
  -5   2   1   43.07    1.29
  -6   1   2    7.16    0.47
  -6   1   2    7.27    0.45
   7   0  -3    5.89    0.69
  -7   0   3    6.02    0.44
   8   1  -4    2.34    0.48
  -2  -9   5    0.45    0.19
   2   9  -5    0.58    0.23
   2   9  -5    0.79    0.28
   1   8  -4    2.08    0.34
   1   8  -4    1.80    0.32
   0   7  -3    0.05    0.08
  -1   6  -2   -0.04    0.06
   2  -5   1    0.27    0.08
  -2   5  -1    0.21    0.09
  -3   4   0    9.76    0.44
  -3   4   0    9.36    0.32
  -4   3   1    2.83    0.28
  -5   2   2    3.11    0.31
  -6   1   3    0.96    0.20
  -6   1   3    0.97    0.24
  -7   0   4    0.91    0.28
  -7   0   4    0.90    0.21
   8   1  -5    1.58    0.44
  -2  -9   4    6.59    0.56
   2   9  -4    6.65    0.66
   2   9  -4    6.31    0.66
   1   8  -3   11.34    0.66
   0   7  -2   18.46    0.79
  -1   6  -1    5.47    0.35
  -1   6  -1    6.82    0.36
  -2   5   0   12.78    0.54
  -2   5   0   13.35    0.48
  -3   4   1   24.06    0.62
  -4   3   2   66.32    1.73
  -5   2   3   34.12    1.05
  -6   1   4    0.19    0.16
  -6   1   4    0.22    0.12
  -7   0   5    0.71    0.29
   2   9  -3    0.26    0.20
   1   8  -2    0.59    0.20
   0   7  -1   -0.03    0.10
  -1   6   0    3.86    0.28
  -2   5   1   -0.03    0.06
  -2   5   1   -0.08    0.05
  -3   4   2    3.09    0.29
  -3   4   2    3.11    0.15
  -4   3   3    0.02    0.07
  -5   2   4    2.92    0.30
  -6   1   5    2.23    0.39
  -6   1   5    2.58    0.30
  -7   0   6    0.22    0.22
   2   9  -2    2.43    0.40
   1   8  -1    8.70    0.57
   0   7   0   20.02    0.80
  -1   6   1    1.76    0.23
  -2   5   2   63.85    1.57
  -3   4   3   55.80    1.53
  -3   4   3   54.56    1.29
  -4   3   4    0.73    0.16
  -4   3   4    0.55    0.09
  -5   2   5   17.33    0.67
  -6   1   6    7.33    0.74
  -6   1   6    8.61    0.46
  -7   0   7    1.78    0.43
   2   9  -1   -0.06    0.13
   1   8   0    0.16    0.14
   0   7   1    0.66    0.18
  -1   6   2    4.47    0.31
  -2   5   3    0.38    0.10
  -3   4   4    8.99    0.34
  -3   4   4    8.92    0.46
  -4   3   5    2.36    0.26
  -4   3   5    2.21    0.20
  -5   2   6    1.20    0.30
  -5   2   6    0.55    0.15
  -6   1   7    0.04    0.18
  -7   0   8    0.18    0.26
   2   9   0    2.88    0.43
   1   8   1   -0.11    0.10
   0   7   2    9.45    0.53
  -1   6   3   19.17    0.72
  -3   4   5   13.53    0.60
  -3   4   5   12.72    0.46
  -4   3   6    3.02    0.26
  -4   3   6    3.34    0.32
  -5   2   7    8.37    0.44
  -5   2   7    8.48    0.65
  -6   1   8    2.30    0.46
   2   9   1    0.59    0.22
   1   8   2    0.17    0.14
   0   7   3    0.69    0.19
  -1   6   4    3.21    0.32
  -2   5   5    3.63    0.26
  -3   4   6   -0.01    0.08
  -4   3   7    0.18    0.11
  -4   3   7    0.10    0.10
  -5   2   8    0.11    0.18
  -5   2   8   -0.07    0.08
  -6   1   9    2.21    0.49
   2   9   2    0.04    0.15
   1   8   3    0.14    0.15
   0   7   4    3.14    0.36
  -1   6   5    0.13    0.11
  -2   5   6    0.06    0.09
  -3   4   7   24.76    0.83
  -4   3   8    7.14    0.44
  -4   3   8    7.27    0.43
  -5   2   9    0.93    0.30
   2   9   3    0.04    0.16
   1   8   4    0.10    0.14
   0   7   5    4.41    0.43
  -1   6   6    0.80    0.18
  -2   5   7   -0.06    0.07
  -3   4   8   -0.12    0.08
  -4   3   9    3.06    0.36
  -4   3   9    3.22    0.35
  -5   2  10   -0.14    0.17
   1   8   5    1.38    0.29
   0   7   6   -0.12    0.09
  -1   6   7    3.12    0.35
  -2   5   8    5.26    0.37
  -3   4   9    5.58    0.40
   1   8   6    0.12    0.15
   0   7   7    3.02    0.38
  -1   6   8    3.99    0.41
  -2   5   9    0.72    0.20
  -3   4  10    0.29    0.17
   0   7   8    7.95    0.56
  -1   6   9    7.25    0.51
  -2   5  10    4.53    0.47
  -3   4  11    6.87    0.52
  -1   6  10   -0.16    0.13
  -2   5  11    0.21    0.17
   5  -3  10    0.20    0.19
   3  -5  11    0.43    0.18
   4  -4  10    2.40    0.30
   5  -3   9    1.34    0.31
   6  -2   8    2.22    0.34
   2  -6  11    0.79    0.23
   3  -5  10    0.63    0.19
   4  -4   9    0.73    0.17
   5  -3   8    3.20    0.41
   6  -2   7    0.05    0.13
   2  -6  10    4.08    0.43
   3  -5   9    8.42    0.49
   4  -4   8    3.90    0.34
   5  -3   7    0.17    0.09
   5  -3   7   -0.03    0.11
   6  -2   6    0.18    0.13
   1  -7  10    0.13    0.14
   2  -6   9    0.08    0.11
   3  -5   8    3.31    0.33
  -3   5  -8    3.15    0.33
   4  -4   7    1.23    0.19
   5  -3   6    1.39    0.25
   5  -3   6    1.63    0.19
  -5   3  -6    1.39    0.27
   6  -2   5   -0.04    0.10
  -6   2  -5   -0.06    0.10
   1  -7   9    7.17    0.50
   2  -6   8    5.28    0.45
   3  -5   7    2.91    0.31
  -3   5  -7    3.22    0.33
   4  -4   6    2.77    0.26
  -4   4  -6    1.98    0.28
   5  -3   5    9.32    0.36
   5  -3   5    9.74    0.49
  -5   3  -5    8.73    0.53
   6  -2   4    1.17    0.20
  -6   2  -4    0.67    0.20
  -7   1  -3    2.49    0.37
   0  -8   9    0.05    0.12
   1  -7   8    1.22    0.24
   2  -6   7    7.42    0.45
  -2   6  -7    8.06    0.40
   3  -5   6    0.96    0.18
  -3   5  -6    1.19    0.20
   4  -4   5    0.13    0.08
  -4   4  -5    0.26    0.12
   5  -3   4   -0.04    0.08
   5  -3   4    0.08    0.05
  -5   3  -4    0.01    0.09
   6  -2   3   -0.04    0.07
  -6   2  -3    0.08    0.12
   7  -1   2    0.92    0.25
  -7   1  -2    0.84    0.23
   8   0   1    0.62    0.27
   0  -8   8    4.24    0.46
   1  -7   7    0.09    0.11
   2  -6   6   10.54    0.53
  -2   6  -6   10.63    0.46
   3  -5   5   21.89    0.75
  -3   5  -5   22.02    0.78
   4  -4   4   13.21    0.47
  -4   4  -4   12.35    0.58
   5  -3   3   15.80    0.58
   5  -3   3   15.79    0.45
  -5   3  -3   16.22    0.70
   6  -2   2    0.25    0.13
  -6   2  -2    0.24    0.14
   7  -1   1    0.65    0.24
  -7   1  -1    0.90    0.24
   8   0   0    1.65    0.38
  -8   0   0    1.90    0.34
   0  -8   7    0.27    0.15
   1  -7   6    6.05    0.41
   2  -6   5    3.81    0.36
  -2   6  -5    3.81    0.26
   3  -5   4    0.55    0.13
  -3   5  -4    0.24    0.11
   4  -4   3    1.15    0.15
  -4   4  -3    1.39    0.22
   5  -3   2   10.98    0.32
   5  -3   2    8.73    0.44
   5  -3   2   10.49    0.40
   6  -2   1    0.83    0.20
  -6   2  -1    0.66    0.18
   7  -1   0    0.43    0.20
  -7   1   0    0.09    0.13
   8   0  -1    2.57    0.46
  -8   0   1    1.46    0.30
  -1  -9   7    3.36    0.43
   0  -8   6    4.64    0.46
   1  -7   5    2.24    0.29
  -1   7  -5    2.83    0.21
   2  -6   4   19.13    0.70
  -2   6  -4   19.14    0.66
  -3   5  -3   15.51    0.60
   4  -4   2    5.65    0.22
   4  -4   2    5.52    0.27
  -4   4  -2    5.74    0.36
   5  -3   1   35.67    0.81
   5  -3   1   35.39    1.11
   6  -2   0   17.55    0.81
  -6   2   0   16.09    0.73
   7  -1  -1    7.03    0.68
  -7   1   1    7.26    0.49
   8   0  -2    2.04    0.42
  -8   0   2    2.85    0.40
  -1  -9   6    0.73    0.23
   0  -8   5    2.51    0.32
  -1   7  -4    3.07    0.27
  -2   6  -3   -0.04    0.07
  -3   5  -2    0.06    0.08
  -4   4  -1    1.28    0.20
  -5   3   0    0.72    0.17
  -6   2   1    3.51    0.37
  -6   2   1    2.97    0.32
   7  -1  -2    2.21    0.41
  -7   1   2    1.09    0.23
   8   0  -3    0.01    0.20
  -8   0   3    0.00    0.13
  -1  -9   5    2.43    0.34
   1   9  -5    2.43    0.39
  -1   7  -3   28.71    0.89
  -2   6  -2   19.40    0.69
  -3   5  -1   30.76    0.97
  -4   4   0    2.31    0.12
  -5   3   1   10.50    0.51
  -6   2   2   18.02    0.73
  -6   2   2   15.89    0.74
  -7   1   3    3.55    0.38
   8   0  -4    0.68    0.30
   1   9  -4   -0.01    0.13
   0   8  -3    0.29    0.16
   0   8  -3    0.35    0.12
  -1   7  -2    0.64    0.17
  -1   7  -2    0.97    0.18
  -2   6  -1    0.26    0.10
  -2   6  -1    0.15    0.09
  -3   5   0    4.16    0.30
  -3   5   0    5.00    0.24
  -5   3   2    3.70    0.35
  -6   2   3    1.44    0.24
  -6   2   3    1.54    0.28
  -7   1   4    1.28    0.24
  -7   1   4    1.29    0.30
   1   9  -3    4.57    0.52
   0   8  -2   13.28    0.57
   0   8  -2   11.90    0.66
  -1   7  -1   19.14    0.72
  -1   7  -1   19.66    0.77
  -2   6   0   18.21    0.70
  -2   6   0   18.25    0.65
  -3   5   1   16.61    0.65
  -3   5   1   16.18    0.51
  -4   4   2   26.65    0.90
  -5   3   3   26.32    0.90
  -6   2   4    2.30    0.28
  -6   2   4    2.39    0.37
  -7   1   5    1.77    0.38
  -7   1   5    1.62    0.27
   1   9  -2    0.50    0.21
   0   8  -1    0.07    0.12
  -1   7   0    0.61    0.17
  -2   6   1    2.28    0.28
  -2   6   1    1.63    0.21
  -3   5   2    1.58    0.16
  -4   4   3    0.73    0.16
  -4   4   3    0.88    0.09
  -5   3   4    2.37    0.28
  -6   2   5    0.68    0.17
  -6   2   5    0.46    0.21
  -7   1   6    0.53    0.26
   1   9  -1    2.57    0.39
   0   8   0   10.52    0.59
  -1   7   1    1.37    0.23
  -2   6   2    3.97    0.27
  -3   5   3   33.43    0.88
  -4   4   4    1.58    0.23
  -4   4   4    1.37    0.13
  -5   3   5    3.40    0.34
  -6   2   6    5.00    0.59
  -6   2   6    4.80    0.35
  -7   1   7    1.96    0.43
   1   9   0    0.00    0.14
   0   8   1    1.37    0.26
  -1   7   2    0.73    0.17
  -2   6   3   -0.03    0.06
  -3   5   4    3.50    0.36
  -3   5   4    3.64    0.22
  -4   4   5    2.27    0.28
  -4   4   5    2.66    0.18
  -5   3   6    0.34    0.14
  -6   2   7    1.51    0.37
  -6   2   7    0.98    0.20
  -7   1   8    0.21    0.26
   1   9   1    0.01    0.13
   0   8   2    0.33    0.16
  -1   7   3    3.21    0.34
  -2   6   4    0.78    0.16
  -3   5   5    1.65    0.19
  -4   4   6    0.01    0.09
  -4   4   6    0.04    0.08
  -5   3   7    5.79    0.39
  -6   2   8    8.08    0.82
   1   9   2    0.05    0.13
   0   8   3    0.83    0.22
  -1   7   4    0.02    0.10
  -2   6   5    6.23    0.37
  -3   5   6    2.89    0.27
  -4   4   7    0.78    0.19
  -4   4   7    0.47    0.14
  -5   3   8    0.22    0.12
  -6   2   9    2.36    0.48
   1   9   3    6.88    0.63
   0   8   4   22.75    0.93
  -1   7   5   17.05    0.73
  -2   6   6    0.71    0.17
  -3   5   7    4.04    0.29
  -4   4   8    9.02    0.53
   1   9   4    1.97    0.34
   0   8   5    7.06    0.50
  -1   7   6    0.57    0.18
  -2   6   7    4.39    0.40
  -3   5   8    6.84    0.42
  -4   4   9    0.30    0.15
  -5   3  10    0.18    0.20
   1   9   5    2.91    0.42
   0   8   6    3.13    0.41
  -1   7   7    9.13    0.55
  -2   6   8   10.72    0.57
  -3   5   9    9.31    0.53
  -4   4  10    6.98    0.50
   0   8   7    1.26    0.28
  -1   7   8    0.79    0.22
  -2   6   9    1.02    0.23
  -3   5  10    0.14    0.14
  -1   7   9    8.53    0.57
  -2   6  10    3.63    0.43
   4  -5  10    2.67    0.33
   6  -3   8    0.56    0.22
   3  -6  10    0.08    0.13
   4  -5   9   -0.03    0.09
   5  -4   8    0.29    0.12
   6  -3   7    0.18    0.15
   2  -7  10    2.55    0.37
   3  -6   9    8.00    0.50
   4  -5   8    2.85    0.31
  -4   5  -8    3.09    0.36
   5  -4   7    0.44    0.13
  -5   4  -7    0.69    0.20
   6  -3   6    0.16    0.14
  -6   3  -6    0.02    0.13
   2  -7   9    0.50    0.18
   3  -6   8    1.09    0.23
   4  -5   7    5.73    0.36
  -4   5  -7    6.33    0.43
   5  -4   6    2.57    0.24
  -5   4  -6    2.54    0.34
   6  -3   5   -0.05    0.11
  -6   3  -5    0.13    0.14
  -7   2  -4    0.05    0.13
   1  -8   9    3.28    0.41
   2  -7   8   12.16    0.63
   3  -6   7    1.23    0.22
  -3   6  -7    1.00    0.19
   4  -5   6    2.01    0.24
  -4   5  -6    1.50    0.24
   5  -4   5   19.58    0.61
  -5   4  -5   18.26    0.80
   6  -3   4    3.77    0.33
  -6   3  -4    3.76    0.42
  -7   2  -3    1.88    0.34
   8  -1   2    0.64    0.25
  -8   1  -2    0.47    0.21
   1  -8   8    0.38    0.17
   2  -7   7    1.33    0.25
   3  -6   6    6.42    0.40
  -3   6  -6    6.21    0.38
   4  -5   5    6.36    0.36
  -4   5  -5    7.52    0.45
   5  -4   4    0.46    0.11
  -5   4  -4    0.16    0.12
  -6   3  -3    0.96    0.22
   7  -2   2    3.60    0.43
  -7   2  -2    2.87    0.38
   8  -1   1    1.87    0.39
  -8   1  -1    0.84    0.25
   0  -9   8    7.88    0.67
   1  -8   7    4.64    0.47
   2  -7   6    7.02    0.44
  -2   7  -6    6.62    0.37
   3  -6   5   11.69    0.54
  -3   6  -5   12.47    0.54
   4  -5   4   11.52    0.48
  -4   5  -4   11.56    0.56
   5  -4   3   16.12    0.51
  -5   4  -3   15.30    0.70
   6  -3   2    1.44    0.24
  -6   3  -2    1.42    0.25
   7  -2   1    2.87    0.40
  -7   2  -1    3.95    0.44
   8  -1   0    5.04    0.61
  -8   1   0    4.87    0.52
   0  -9   7    2.22    0.35
   1  -8   6    1.03    0.22
   2  -7   5    5.70    0.39
  -2   7  -5    6.49    0.36
   3  -6   4   11.39    0.51
  -3   6  -4   10.59    0.50
   4  -5   3    0.02    0.06
  -4   5  -3   -0.01    0.08
   5  -4   2   -0.01    0.05
   5  -4   2   -0.01    0.06
  -5   4  -2   -0.06    0.07
   6  -3   1    0.69    0.18
  -6   3  -1    0.63    0.18
   7  -2   0    0.23    0.17
  -7   2   0    0.48    0.18
   8  -1  -1    2.40    0.43
  -8   1   1    3.17    0.43
   0  -9   6    6.44    0.55
   1  -8   5    6.16    0.51
  -2   7  -4   32.77    1.00
  -3   6  -3   71.16    1.87
  -4   5  -2    4.85    0.33
   6  -3   0    6.49    0.46
  -6   3   0    6.29    0.44
   7  -2  -1    0.72    0.23
  -7   2   1    0.56    0.19
   8  -1  -2    3.95    0.57
  -8   1   2    3.67    0.45
   0  -9   5    0.77    0.21
  -1   8  -4    1.69    0.22
  -2   7  -3    0.29    0.12
  -3   6  -2    4.06    0.36
  -4   5  -1    1.85    0.25
  -6   3   1   -0.04    0.09
  -7   2   2    0.95    0.23
   8  -1  -3    1.35    0.38
  -8   1   3    1.32    0.28
  -1 -10   5   -0.09    0.11
   1  10  -5   -0.07    0.14
   0   9  -4    2.45    0.37
  -1   8  -3   21.83    0.77
  -2   7  -2   15.51    0.62
   3  -6   1   43.37    1.14
  -3   6  -1   43.53    1.28
  -4   5   0   11.60    0.55
  -4   5   0   11.87    0.38
  -5   4   1    2.52    0.30
  -6   3   2   14.08    0.65
  -7   2   3    3.94    0.42
  -8   1   4    0.92    0.24
   1  10  -4    1.47    0.33
   0   9  -3    0.35    0.17
  -1   8  -2    0.98    0.22
  -1   8  -2    1.38    0.22
  -2   7  -1    0.10    0.09
  -2   7  -1   -0.02    0.08
  -3   6   0    1.92    0.21
  -3   6   0    2.09    0.26
  -4   5   1    2.19    0.14
  -5   4   2    0.03    0.09
  -6   3   3    2.05    0.28
  -7   2   4    0.53    0.22
  -7   2   4    0.76    0.19
   1  10  -3   -0.06    0.13
   0   9  -2    4.83    0.36
   0   9  -2    4.42    0.48
  -1   8  -1   10.20    0.52
  -1   8  -1   10.05    0.56
  -2   7   0    6.46    0.38
  -2   7   0    5.87    0.38
  -3   6   1   10.00    0.41
  -3   6   1    9.89    0.51
  -4   5   2    8.07    0.27
  -5   4   3    7.78    0.45
  -6   3   4    2.19    0.29
  -7   2   5    0.11    0.12
  -7   2   5    0.09    0.17
   1  10  -2    0.00    0.14
   0   9  -1    0.14    0.14
  -1   8   0    0.60    0.18
  -2   7   1    2.53    0.28
  -2   7   1    2.67    0.32
  -3   6   2    0.66    0.17
  -3   6   2    0.59    0.12
  -4   5   3    0.08    0.09
  -4   5   3    0.07    0.06
  -5   4   4    0.78    0.18
  -6   3   5    0.84    0.19
  -7   2   6   -0.14    0.16
  -7   2   6   -0.02    0.10
   1  10  -1    3.57    0.48
   0   9   0    2.44    0.36
  -1   8   1    1.56    0.26
  -2   7   2    0.13    0.10
  -3   6   3    3.41    0.23
  -4   5   4    2.81    0.32
  -4   5   4    2.83    0.18
  -5   4   5    0.09    0.10
  -6   3   6    0.92    0.20
  -7   2   7    1.27    0.35
   1  10   0    0.52    0.23
   0   9   1    2.38    0.35
  -1   8   2    0.18    0.14
  -2   7   3    1.49    0.22
  -3   6   4    1.98    0.22
  -4   5   5    1.31    0.16
  -4   5   5    0.95    0.21
  -5   4   6    3.76    0.38
  -6   3   7    0.27    0.15
  -6   3   7   -0.04    0.15
  -7   2   8    0.55    0.29
   1  10   1   -0.02    0.16
   0   9   2    6.59    0.49
  -1   8   3   33.60    1.16
  -2   7   4   40.42    1.22
  -3   6   5   24.28    0.79
  -4   5   6    0.32    0.14
  -5   4   7   -0.02    0.09
  -6   3   8    3.78    0.56
  -6   3   8    4.55    0.43
   1  10   2    0.85    0.27
   0   9   3    0.97    0.25
  -1   8   4    2.17    0.30
  -2   7   5    9.95    0.51
  -3   6   6    0.27    0.12
  -4   5   7    2.23    0.31
  -5   4   8    1.93    0.28
  -6   3   9    0.20    0.22
   0   9   4    0.78    0.22
  -1   8   5   10.83    0.60
  -2   7   6    5.76    0.39
  -3   6   7   10.84    0.52
  -4   5   8   18.33    0.84
  -5   4   9    3.33    0.38
   0   9   5    0.84    0.24
  -1   8   6    1.70    0.30
  -2   7   7    1.36    0.25
  -3   6   8    1.25    0.23
  -4   5   9    1.57    0.29
   0   9   6    5.24    0.55
  -1   8   7    9.71    0.59
  -2   7   8    6.92    0.47
  -3   6   9    7.17    0.47
  -4   5  10    9.62    0.63
  -1   8   8    0.70    0.23
  -2   7   9    1.40    0.28
  -3   6  10    0.14    0.15
   4  -6  10    1.31    0.26
   5  -5   9    5.92    0.40
   3  -7  10   -0.12    0.11
   4  -6   9    0.16    0.13
   5  -5   8    1.99    0.26
  -5   5  -8    2.43    0.36
   6  -4   7    1.22    0.27
  -6   4  -7    1.26    0.29
  -7   3  -6    0.68    0.23
   3  -7   9    6.34    0.54
   4  -6   8    6.26    0.42
  -4   6  -8    7.19    0.47
   5  -5   7    1.37    0.21
  -5   5  -7    1.68    0.29
  -6   4  -6    0.68    0.22
  -7   3  -5    4.30    0.51
  -8   2  -4    1.99    0.37
   2  -8   9    0.80    0.23
   3  -7   8    1.04    0.23
   4  -6   7    0.80    0.18
  -4   6  -7    0.41    0.16
   5  -5   6    0.81    0.16
  -5   5  -6    0.77    0.20
  -6   4  -5    1.17    0.27
  -7   3  -4   -0.06    0.12
  -8   2  -3    1.07    0.28
   2  -8   8    9.64    0.59
   3  -7   7   15.23    0.70
   4  -6   6    4.98    0.41
  -4   6  -6    5.48    0.39
   5  -5   5    7.03    0.36
  -5   5  -5    7.00    0.47
  -6   4  -4    5.15    0.49
  -7   3  -3    1.06    0.26
  -8   2  -2    0.55    0.22
   1  -9   8    2.37    0.36
   2  -8   7    3.45    0.40
   3  -7   6    4.66    0.42
  -3   7  -6    4.50    0.33
   4  -6   5    3.69    0.36
  -4   6  -5    3.78    0.38
   5  -5   4   14.36    0.54
  -5   5  -4   15.36    0.71
  -6   4  -3    1.67    0.29
  -7   3  -2    0.10    0.12
  -8   2  -1   -0.02    0.12
   1  -9   7    3.95    0.45
   2  -8   6    6.69    0.46
   3  -7   5   11.34    0.56
  -3   7  -5   11.73    0.54
   4  -6   4   22.81    0.78
  -4   6  -4   22.20    0.85
   5  -5   3   44.50    1.14
  -5   5  -3   43.43    1.39
  -6   4  -2    6.87    0.48
   7  -3   1    0.43    0.18
  -7   3  -1   -0.01    0.12
   8  -2   0    0.91    0.28
  -8   2   0    1.03    0.27
   1  -9   6   -0.01    0.12
   2  -8   5    5.12    0.46
  -2   8  -5    4.57    0.31
   3  -7   4    1.91    0.26
  -3   7  -4    1.36    0.22
  -4   6  -3    0.91    0.19
   5  -5   2    2.45    0.23
  -5   5  -2    2.58    0.32
   6  -4   1    3.64    0.35
  -6   4  -1    3.34    0.38
   7  -3   0   -0.01    0.12
  -7   3   0   -0.11    0.09
   8  -2  -1    1.11    0.30
  -8   2   1    0.55    0.20
   0 -10   6    1.76    0.32
   1  -9   5    0.45    0.18
  -2   8  -4    0.35    0.13
  -3   7  -3   39.16    1.20
  -4   6  -2   19.62    0.78
  -5   5  -1   13.11    0.62
  -6   4   0   13.80    0.67
  -7   3   1    0.46    0.17
   8  -2  -2    1.91    0.40
  -8   2   2    1.17    0.26
   0 -10   5    0.02    0.12
   0  10  -5   -0.02    0.14
  -2   8  -3    1.46    0.22
  -3   7  -2    4.34    0.33
  -4   6  -1    0.48    0.14
  -6   4   1    0.00    0.08
  -7   3   2   -0.05    0.10
  -8   2   3    0.71    0.21
   0  10  -4   -0.08    0.14
  -1   9  -3    2.27    0.35
  -1   9  -3    2.33    0.28
  -2   8  -2    4.94    0.35
  -2   8  -2    5.13    0.38
  -3   7  -1   11.68    0.52
  -3   7  -1   12.46    0.58
  -4   6   0    7.64    0.33
  -4   6   0    8.20    0.47
  -6   4   2    7.52    0.47
  -7   3   3    1.57    0.27
  -8   2   4    0.10    0.15
   0  10  -3    0.74    0.24
  -1   9  -2    0.04    0.12
  -1   9  -2    0.07    0.10
  -2   8  -1    0.04    0.11
  -2   8  -1    0.03    0.10
  -3   7   0    0.63    0.14
  -3   7   0    0.61    0.16
  -4   6   1    4.26    0.40
  -4   6   1    5.08    0.25
  -5   5   2   -0.05    0.07
  -6   4   3    0.14    0.12
  -7   3   4    0.42    0.16
  -7   3   4    0.53    0.21
  -8   2   5    0.10    0.15
   0  10  -2    0.89    0.26
  -1   9  -1   14.83    0.67
  -1   9  -1   12.87    0.69
  -2   8   0    1.04    0.21
  -2   8   0    0.58    0.17
  -3   7   1    0.68    0.18
  -3   7   1    0.88    0.16
  -4   6   2    3.44    0.20
  -5   5   3    0.25    0.12
  -6   4   4    1.59    0.25
  -7   3   5    0.09    0.16
  -7   3   5    0.11    0.13
   0  10  -1    0.12    0.16
   0  10  -1    0.04    0.13
  -1   9   0    0.82    0.21
  -2   8   1    2.56    0.31
  -2   8   1    3.05    0.37
  -3   7   2    0.19    0.12
  -3   7   2    0.40    0.12
  -4   6   3    0.36    0.14
  -4   6   3    0.57    0.11
  -5   5   4    2.38    0.31
  -6   4   5    0.02    0.10
  -7   3   6    0.66    0.26
  -7   3   6    0.76    0.20
   0  10   0    0.14    0.16
  -1   9   1   -0.06    0.10
  -2   8   2   16.20    0.69
  -3   7   3   49.14    1.31
  -3   7   3   45.65    1.51
  -4   6   4   68.86    1.98
  -5   5   5   12.75    0.64
  -6   4   6    0.22    0.14
  -7   3   7    0.04    0.12
  -7   3   7   -0.02    0.18
   0  10   1   -0.03    0.14
  -1   9   2    3.38    0.39
  -2   8   3    3.28    0.36
  -3   7   4    2.83    0.37
  -3   7   4    2.99    0.29
  -4   6   5   10.98    0.62
  -5   5   6    0.35    0.15
  -6   4   7    0.83    0.22
  -7   3   8    0.02    0.20
   0  10   2    1.45    0.31
  -1   9   3    6.25    0.47
  -2   8   4    1.53    0.25
  -3   7   5    4.92    0.33
  -4   6   6   10.79    0.62
  -5   5   7    6.52    0.46
  -6   4   8    8.78    0.54
   0  10   3    1.84    0.34
  -1   9   4    0.08    0.14
  -2   8   5    0.44    0.17
  -3   7   6    3.56    0.34
  -4   6   7    0.16    0.14
  -5   5   8    0.20    0.16
  -1   9   5    6.81    0.49
  -2   8   6   15.44    0.71
  -3   7   7   10.57    0.53
  -4   6   8    8.88    0.60
  -5   5   9    3.97    0.45
  -1   9   6    0.49    0.21
  -2   8   7    0.03    0.13
  -3   7   8    2.50    0.32
  -4   6   9    1.32    0.29
  -5   5  10    1.69    0.31
  -2   8   8    6.12    0.54
   5  -6   9    3.61    0.38
  -6   5  -8    3.48    0.45
  -7   4  -7    0.25    0.19
   4  -7   9    0.11    0.14
   5  -6   8    1.12    0.21
  -5   6  -8    1.04    0.26
  -6   5  -7    0.52    0.21
  -7   4  -6    0.11    0.18
  -8   3  -5    0.02    0.15
   3  -8   9    1.70    0.30
   4  -7   8    6.22    0.51
   5  -6   7   10.96    0.53
  -5   6  -7   11.12    0.63
  -6   5  -6    6.44    0.59
  -7   4  -5    1.54    0.32
  -8   3  -4    1.15    0.30
   3  -8   8    1.95    0.31
   4  -7   7    1.60    0.26
  -4   7  -7    1.21    0.24
   5  -6   6    4.14    0.36
  -5   6  -6    4.67    0.46
  -6   5  -5    4.12    0.46
  -7   4  -4    5.57    0.56
  -8   3  -3    1.29    0.29
   2  -9   8    3.19    0.42
   3  -8   7    6.47    0.55
   4  -7   6    5.60    0.47
  -4   7  -6    5.29    0.40
   5  -6   5    2.62    0.29
  -5   6  -5    2.59    0.35
  -6   5  -4   13.16    0.70
  -7   4  -3   12.21    0.70
  -8   3  -2    3.56    0.46
   2  -9   7    0.22    0.16
   3  -8   6    0.52    0.19
   4  -7   5    8.08    0.46
  -4   7  -5    8.06    0.48
   5  -6   4    1.49    0.22
  -5   6  -4    1.04    0.23
  -6   5  -3    1.48    0.28
  -7   4  -2    1.53    0.29
  -8   3  -1    1.04    0.26
   2  -9   6    2.52    0.35
   3  -8   5    1.42    0.26
  -3   8  -5    1.68    0.25
   4  -7   4    1.89    0.26
  -4   7  -4    1.19    0.23
   5  -6   3   14.18    0.56
  -5   6  -3   13.84    0.68
  -6   5  -2   14.48    0.72
  -7   4  -1    1.99    0.32
  -8   3   0    2.43    0.37
  -9   2   1    0.48    0.23
   1 -10   6   -0.03    0.12
   2  -9   5   -0.02    0.11
  -3   8  -4    2.15    0.28
  -4   7  -3    1.46    0.24
  -5   6  -2    0.94    0.21
  -6   5  -1    1.80    0.29
  -7   4   0    0.22    0.13
   8  -3  -1    0.09    0.17
  -8   3   1    0.27    0.16
   1 -10   5    2.43    0.36
  -1  10  -5    2.20    0.36
  -2   9  -4    0.00    0.09
  -3   8  -3    1.99    0.28
  -4   7  -2   12.43    0.61
  -5   6  -1    5.11    0.39
  -6   5   0    5.93    0.43
  -7   4   1    0.23    0.14
  -8   3   2    1.01    0.26
  -1  10  -4    0.00    0.14
  -2   9  -3    3.56    0.41
  -2   9  -3    4.20    0.39
  -3   8  -2    0.33    0.14
  -3   8  -2    0.00    0.10
  -4   7  -1    0.26    0.13
  -4   7  -1    0.21    0.10
  -5   6   0    0.04    0.10
  -6   5   1    2.61    0.33
  -7   4   2    0.42    0.16
  -8   3   3   -0.10    0.12
  -1  10  -3    1.47    0.30
  -2   9  -2    2.45    0.33
  -2   9  -2    2.48    0.31
  -3   8  -1   13.11    0.59
  -3   8  -1   12.40    0.61
  -4   7   0    3.32    0.24
  -4   7   0    2.75    0.33
  -5   6   1    0.48    0.16
  -6   5   2    2.97    0.36
  -7   4   3    2.59    0.35
  -8   3   4    0.48    0.19
  -1  10  -2    0.59    0.18
  -1  10  -2    0.73    0.22
  -2   9  -1    0.32    0.15
  -2   9  -1    0.41    0.15
  -3   8   0    0.19    0.12
  -3   8   0    0.13    0.11
  -4   7   1    6.68    0.45
  -4   7   1    6.97    0.34
  -5   6   2    0.13    0.10
  -6   5   3    0.08    0.11
  -7   4   4    2.38    0.33
  -8   3   5    0.20    0.14
  -1  10  -1    3.52    0.40
  -1  10  -1    3.63    0.44
  -2   9   0    0.53    0.18
  -2   9   0    0.46    0.17
  -3   8   1    0.59    0.18
  -3   8   1    0.55    0.16
  -4   7   2   24.30    0.95
  -5   6   3   29.94    1.09
  -6   5   4   28.22    1.06
  -7   4   5    8.81    0.55
  -1  10   0    2.09    0.33
  -1  10   0    2.29    0.36
  -2   9   1    0.49    0.17
  -2   9   1    0.42    0.17
  -3   8   2    8.15    0.43
  -3   8   2    7.59    0.51
  -4   7   3    3.95    0.42
  -5   6   4    2.24    0.32
  -6   5   5    7.68    0.51
  -7   4   6    2.06    0.32
  -1  10   1    5.03    0.52
  -2   9   2    9.46    0.54
  -2   9   2    8.51    0.58
  -3   8   3    4.48    0.32
  -3   8   3    4.97    0.49
  -4   7   4    3.57    0.42
  -5   6   5    3.17    0.38
  -6   5   6    2.86    0.37
  -7   4   7    6.41    0.47
  -1  10   2    0.64    0.21
  -2   9   3    1.94    0.30
  -3   8   4    0.39    0.18
  -3   8   4    0.20    0.12
  -4   7   5    0.90    0.23
  -5   6   6    3.19    0.39
  -6   5   7    0.21    0.14
  -7   4   8   -0.08    0.17
  -1  10   3    5.70    0.55
  -2   9   4    8.28    0.51
  -3   8   5    7.79    0.57
  -3   8   5    7.98    0.46
  -4   7   6   19.98    0.93
  -5   6   7   12.60    0.70
  -6   5   8    3.18    0.40
  -1  10   4    0.12    0.16
  -2   9   5    0.01    0.13
  -3   8   6    1.04    0.21
  -4   7   7   -0.01    0.13
  -5   6   8    0.74    0.23
  -6   5   9    1.17    0.27
  -2   9   6    6.86    0.49
  -3   8   7    5.88    0.42
  -4   7   8    5.00    0.55
  -5   6   9    4.69    0.52
  -4   7   9    0.15    0.19
  -6   6  -8    4.59    0.53
  -7   5  -7    3.34    0.47
   5  -7   8    1.20    0.24
  -5   7  -8    0.93    0.25
  -6   6  -7    2.53    0.40
  -7   5  -6    1.10    0.28
  -8   4  -5    1.61    0.36
   4  -8   8    5.69    0.52
   5  -7   7    2.26    0.30
  -5   7  -7    2.32    0.34
  -6   6  -6    3.06    0.41
  -7   5  -5    0.09    0.15
  -8   4  -4    2.10    0.38
   3  -9   8    0.67    0.21
   4  -8   7    0.53    0.19
   5  -7   6    1.02    0.21
  -5   7  -6    1.12    0.25
  -6   6  -5    2.05    0.34
  -7   5  -4    0.85    0.24
  -8   4  -3    1.23    0.31
   3  -9   7    2.50    0.37
   4  -8   6    5.70    0.51
  -4   8  -6    5.16    0.47
   5  -7   5    0.57    0.16
  -5   7  -5    0.49    0.18
  -6   6  -4    1.41    0.28
  -7   5  -3    3.68    0.46
  -8   4  -2    2.53    0.39
   2 -10   7    0.14    0.16
   3  -9   6    0.14    0.13
   4  -8   5    0.06    0.11
  -4   8  -5    0.00    0.11
   5  -7   4    1.40    0.23
  -5   7  -4    1.37    0.26
  -6   6  -3    0.04    0.12
  -7   5  -2    0.98    0.25
  -8   4  -1    0.03    0.13
  -9   3   0    0.09    0.18
   2 -10   6    2.60    0.39
   3  -9   5    3.63    0.41
   4  -8   4    1.18    0.23
  -4   8  -4    0.77    0.19
   5  -7   3    0.03    0.09
  -5   7  -3   -0.01    0.11
  -6   6  -2    4.89    0.49
  -7   5  -1    4.41    0.48
  -8   4   0    0.77    0.24
  -9   3   1    0.36    0.20
   2 -10   5    0.89    0.24
  -3   9  -4    0.05    0.11
  -4   8  -3    1.94    0.29
  -5   7  -2    0.06    0.10
  -6   6  -1    0.81    0.22
  -7   5   0   -0.01    0.11
  -8   4   1    0.65    0.21
  -9   3   2    0.43    0.20
  -2  10  -4    1.42    0.30
  -3   9  -3    1.78    0.28
  -3   9  -3    1.10    0.22
  -4   8  -2    7.57    0.43
  -4   8  -2    7.85    0.49
  -5   7  -1    9.21    0.55
  -6   6   0    1.75    0.29
  -7   5   1    0.15    0.13
  -8   4   2    0.11    0.15
  -2  10  -3    0.84    0.24
  -3   9  -2    1.82    0.28
  -3   9  -2    1.82    0.28
  -4   8  -1    0.03    0.11
  -4   8  -1   -0.03    0.09
  -5   7   0   -0.02    0.10
  -6   6   1    3.52    0.40
  -7   5   2    1.45    0.27
  -8   4   3    0.62    0.20
  -1  11  -3    1.61    0.34
  -2  10  -2    1.65    0.27
  -2  10  -2    1.54    0.29
  -3   9  -1    3.21    0.36
  -3   9  -1    3.45    0.38
  -4   8   0    4.48    0.30
  -4   8   0    4.31    0.44
  -5   7   1   -0.03    0.08
  -6   6   2    9.90    0.59
  -7   5   3   19.34    0.87
  -8   4   4    7.51    0.54
  -1  11  -2   -0.13    0.14
  -2  10  -1    0.28    0.16
  -2  10  -1    0.45    0.18
  -3   9   0    3.20    0.35
  -3   9   0    3.50    0.40
  -4   8   1    1.88    0.29
  -5   7   2    6.04    0.45
  -6   6   3    4.15    0.44
  -7   5   4    2.45    0.36
  -8   4   5    3.38    0.42
  -1  11  -1    4.63    0.53
  -2  10   0   13.09    0.69
  -2  10   0   12.92    0.71
  -3   9   1    5.24    0.38
  -3   9   1    5.26    0.52
  -4   8   2    9.33    0.57
  -5   7   3    4.71    0.48
  -6   6   4    0.02    0.12
  -7   5   5    2.96    0.40
  -8   4   6    0.94    0.25
  -1  11   0    0.68    0.24
  -1  11   0    0.02    0.15
  -2  10   1    1.43    0.29
  -2  10   1    1.63    0.31
  -3   9   2    2.14    0.29
  -3   9   2    1.84    0.32
  -4   8   3    1.58    0.30
  -5   7   4    0.86    0.22
  -6   6   5    0.86    0.22
  -7   5   6    2.07    0.33
  -1  11   1    3.88    0.48
  -1  11   1    4.14    0.51
  -2  10   2   11.38    0.63
  -2  10   2   10.69    0.68
  -3   9   3    9.56    0.51
  -3   9   3    9.09    0.62
  -4   8   4   13.24    0.74
  -5   7   5   12.08    0.68
  -6   6   6    6.50    0.50
  -7   5   7    5.33    0.52
  -2  10   3    0.11    0.16
  -2  10   3   -0.02    0.14
  -3   9   4    0.18    0.13
  -3   9   4    0.01    0.12
  -4   8   5    0.07    0.12
  -5   7   6    1.36    0.29
  -6   6   7    0.30    0.17
  -2  10   4    5.79    0.52
  -3   9   5    2.86    0.44
  -3   9   5    4.01    0.40
  -4   8   6    3.52    0.46
  -5   7   7    8.34    0.60
  -6   6   8    1.61    0.31
  -2  10   5   -0.04    0.12
  -3   9   6    0.64    0.24
  -4   8   7    0.03    0.15
  -5   7   8   -0.10    0.13
  -4   8   8    0.27    0.21
  -6   7  -7    0.36    0.21
  -7   6  -6    0.26    0.19
   5  -8   7    1.33    0.26
  -5   8  -7    0.33    0.17
  -6   7  -6    4.14    0.48
  -7   6  -5    0.19    0.18
  -8   5  -4   -0.07    0.14
   4  -9   7    0.24    0.17
   5  -8   6   -0.17    0.10
  -5   8  -6    0.24    0.17
  -6   7  -5    0.51    0.20
  -7   6  -4   -0.03    0.13
  -8   5  -3    0.01    0.15
   4  -9   6    5.94    0.53
   5  -8   5    2.39    0.32
  -5   8  -5    2.64    0.37
  -6   7  -4    0.66    0.22
  -7   6  -3   -0.09    0.13
  -8   5  -2    0.49    0.21
   3 -10   6    0.49    0.19
   4  -9   5    0.81    0.22
  -4   9  -5    1.87    0.29
   5  -8   4    0.04    0.11
  -5   8  -4   -0.06    0.10
  -6   7  -3    0.83    0.22
  -7   6  -2    0.24    0.18
  -8   5  -1    0.09    0.16
  -9   4   0    0.03    0.17
   3 -10   5    2.06    0.33
   4  -9   4    4.52    0.46
  -4   9  -4    5.91    0.43
  -5   8  -3    0.82    0.22
  -6   7  -2    1.72    0.31
  -7   6  -1    8.16    0.57
  -8   5   0    0.29    0.18
  -9   4   1   -0.03    0.13
  -3  10  -4    0.04    0.13
  -4   9  -3    0.12    0.13
  -5   8  -2    0.77    0.21
  -6   7  -1    0.07    0.12
  -7   6   0    0.38    0.18
  -8   5   1    0.32    0.17
  -2  11  -4    2.55    0.40
  -3  10  -3    2.67    0.37
  -3  10  -3    2.69    0.35
  -4   9  -2    3.75    0.38
  -4   9  -2    4.37    0.44
  -5   8  -1    4.68    0.47
  -6   7   0    1.09    0.25
  -7   6   1    0.18    0.13
  -8   5   2    1.33    0.30
  -2  11  -3    0.40    0.20
  -3  10  -2    0.05    0.13
  -3  10  -2   -0.06    0.12
  -4   9  -1    2.73    0.32
  -4   9  -1    2.19    0.33
  -5   8   0    4.74    0.48
  -6   7   1    0.39    0.17
  -7   6   2    0.99    0.24
  -8   5   3    1.70    0.32
  -2  11  -2    3.55    0.46
  -3  10  -1    6.47    0.46
  -3  10  -1    6.34    0.47
  -4   9   0   17.84    0.83
  -5   8   1   10.11    0.61
  -6   7   2    2.98    0.38
  -7   6   3    2.66    0.37
  -8   5   4   -0.01    0.13
  -2  11  -1    0.30    0.18
  -2  11  -1    0.30    0.17
  -3  10   0    0.02    0.13
  -3  10   0    0.05    0.13
  -4   9   1    1.39    0.28
  -5   8   2    1.04    0.24
  -6   7   3    0.42    0.19
  -7   6   4    2.28    0.35
  -8   5   5    1.71    0.32
  -2  11   0    6.45    0.60
  -2  11   0    5.77    0.57
  -3  10   1    6.58    0.60
  -3  10   1    6.16    0.45
  -4   9   2   11.31    0.67
  -5   8   3   14.93    0.77
  -6   7   4    5.86    0.55
  -7   6   5    7.48    0.54
  -2  11   1    1.48    0.33
  -2  11   1    1.36    0.30
  -3  10   2    0.16    0.14
  -3  10   2    0.08    0.16
  -4   9   3   -0.02    0.14
  -5   8   4    0.84    0.23
  -7   6   6    0.34    0.19
  -3  10   3    3.57    0.40
  -3  10   3    4.26    0.51
  -4   9   4    3.63    0.47
  -5   8   5    5.38    0.55
  -6   7   6    1.56    0.32
  -7   6   7    3.08    0.42
  -3  10   4    0.02    0.16
  -4   9   5   -0.03    0.11
  -5   8   6    2.03    0.36
  -6   7   7    0.17    0.16
  -3  10   5    2.11    0.40
  -4   9   6    0.19    0.16
  -5   8   7    2.98    0.44
  -6   8  -6    2.73    0.40
  -7   7  -5    1.63    0.33
  -8   6  -4   -0.13    0.15
   5  -9   6    0.15    0.16
  -5   9  -6    0.12    0.17
  -6   8  -5    0.93    0.26
  -7   7  -4    0.81    0.26
  -8   6  -3    0.27    0.20
   4 -10   6    2.80    0.40
   5  -9   5    2.69    0.36
  -5   9  -5    2.37    0.35
  -6   8  -4    2.10    0.35
  -7   7  -3    1.96    0.35
  -8   6  -2    0.06    0.15
   4 -10   5    0.52    0.21
   5  -9   4    0.29    0.17
  -5   9  -4    0.64    0.21
   6  -8   3    0.35    0.15
  -6   8  -3    0.46    0.20
  -7   7  -2   -0.06    0.11
  -8   6  -1   -0.08    0.13
  -4  10  -4    3.19    0.39
  -5   9  -3    5.61    0.53
  -6   8  -2    1.47    0.29
  -7   7  -1    4.40    0.50
  -8   6   0    0.66    0.22
  -4  10  -3    0.95    0.24
  -4  10  -3    0.54    0.20
  -5   9  -2    0.91    0.24
  -6   8  -1    2.31    0.36
  -7   7   0    5.71    0.56
  -8   6   1    0.13    0.15
  -3  11  -3    4.81    0.51
  -4  10  -2    3.81    0.44
  -5   9  -1    9.31    0.59
  -6   8   0    8.64    0.58
  -7   7   1    6.90    0.52
  -8   6   2    2.50    0.39
  -3  11  -2    0.24    0.16
  -3  11  -2    0.05    0.15
  -4  10  -1    0.40    0.19
  -5   9   0    0.94    0.24
  -6   8   1    0.80    0.24
  -7   7   2   -0.08    0.11
  -8   6   3    0.27    0.18
  -3  11  -1    3.87    0.46
  -3  11  -1    3.97    0.46
  -4  10   0    5.29    0.53
  -5   9   1   12.28    0.70
  -6   8   2    6.49    0.59
  -7   7   3    4.47    0.51
  -8   6   4    2.98    0.42
  -3  11   0    0.48    0.18
  -3  11   0    0.84    0.24
  -4  10   1    1.08    0.26
  -5   9   2    0.02    0.14
  -6   8   3   -0.06    0.10
  -7   7   4    0.52    0.20
  -8   6   5    0.74    0.23
  -3  11   1    3.54    0.46
  -3  11   1    3.09    0.39
  -4  10   2    6.45    0.61
  -5   9   3    5.91    0.59
  -6   8   4    1.95    0.35
  -7   7   5    2.25    0.37
  -4  10   3    0.57    0.23
  -5   9   4    0.15    0.14
  -6   8   5    0.08    0.16
  -7   7   6    0.10    0.16
  -4  10   4    0.03    0.15
  -5   9   5    2.72    0.41
  -6   8   6    0.74    0.24
  -6   9  -5    0.03    0.15
  -7   8  -4    1.72    0.35
   6  -9   4    1.17    0.25
  -6   9  -4    1.09    0.28
  -7   8  -3    5.85    0.59
  -8   7  -2    0.65    0.24
   5 -10   4    1.56    0.30
  -5  10  -4    1.05    0.26
   6  -9   3    0.01    0.13
  -6   9  -3    0.04    0.13
  -7   8  -2    2.25    0.38
  -8   7  -1    2.29    0.39
  -5  10  -3    8.01    0.56
  -6   9  -2    2.82    0.40
  -7   8  -1    4.57    0.52
  -8   7   0    3.53    0.47
  -5  10  -2    0.16    0.17
  -6   9  -1    0.95    0.25
  -7   8   0    0.36    0.18
  -8   7   1    2.74    0.42
  -4  11  -2    3.71    0.45
  -5  10  -1    7.11    0.54
  -6   9   0    4.38    0.50
  -7   8   1    3.30    0.44
  -8   7   2    4.93    0.55
  -4  11  -1    1.03    0.26
  -5  10   0    0.14    0.15
  -6   9   1    1.89    0.34
  -7   8   2    0.00    0.13
  -8   7   3    0.23    0.18
  -4  11   0    1.65    0.32
  -5  10   1    3.37    0.44
  -6   9   2    4.93    0.54
  -7   8   3    1.10    0.27
  -4  11   1    0.45    0.20
  -5  10   2    0.15    0.17
  -6   9   3   -0.01    0.15
  -7   8   4   -0.02    0.14
  -5  10   3    1.85    0.36
  -6   9   4    0.49    0.20
  -7   9  -2    0.41    0.21
  -6  10  -2    2.59    0.40
  -7   9  -1    3.25    0.45
  -6  10  -1    0.81    0.25
  -7   9   0   -0.14    0.13
  -6  10   0    3.66    0.47
  -7   9   1    1.14    0.29
  -6  10   1    0.74    0.25
  -7   9   2   -0.11    0.13
   0   0   0    0.00    0.00
;
_shelx_hkl_checksum              32661
loop_
_space_group_symop_operation_xyz
'x, y, z'
loop_
_atom_site_label
_atom_site_type_symbol
_atom_site_fract_x
_atom_site_fract_y
_atom_site_fract_z
_atom_site_U_iso_or_equiv
_atom_site_adp_type
_atom_site_occupancy
_atom_site_site_symmetry_order
_atom_site_calc_flag
_atom_site_refinement_flags_posn
_atom_site_refinement_flags_adp
_atom_site_refinement_flags_occupancy
_atom_site_disorder_assembly
_atom_site_disorder_group
Co1 Co 0.4561(4) 0.9958(4) 0.1740(3) 0.0295(3) Uani 1 1 d . U . . .
Co2 Co -0.0453(5) 1.9960(5) 0.6750(4) 0.0459(4) Uani 1 1 d . U . . .
O10 O 0.869(2) 0.1636(15) -0.2288(12) 0.054(4) Uani 1 1 d . U . . .
O11 O 0.9727(19) -0.0605(16) -0.1539(13) 0.055(4) Uani 1 1 d . U . . .
O2 O 0.4189(14) 1.0883(13) 0.0084(10) 0.030(2) Uani 1 1 d . U . . .
O8 O 0.4878(15) 0.8994(14) 0.3305(11) 0.035(3) Uani 1 1 d . U . . .
C9 C 0.040(2) 1.8387(19) 0.4627(17) 0.032(3) Uani 1 1 d . U . . .
N2 N 0.0788(19) 1.7533(17) 0.3782(14) 0.035(3) Uani 1 1 d . U . . .
H2N H 0.069189 1.776950 0.303662 0.042 Uiso 1 1 calc R U . . .
C8 C 0.349(2) 1.1925(18) 0.0194(15) 0.029(3) Uani 1 1 d . U . . .
C17 C 0.592(2) 0.7462(17) 0.1866(15) 0.0249(15) Uani 1 1 d . U . . .
C20 C 0.946(2) 0.0251(18) -0.0722(14) 0.0249(15) Uani 1 1 d . U . . .
N1 N 0.2553(19) 1.3559(16) 0.1749(13) 0.036(3) Uani 1 1 d . U . . .
H1N H 0.234034 1.396362 0.109475 0.044 Uiso 1 1 calc R U . . .
O9 O 0.6072(16) 0.7295(14) 0.4045(10) 0.040(3) Uani 1 1 d . U . . .
O3 O 0.2920(16) 1.2610(13) -0.0597(11) 0.040(3) Uani 1 1 d . U . . .
O7 O 0.5491(15) 0.8224(14) 0.1031(11) 0.030(2) Uani 1 1 d . U . . .
C10 C -0.026(2) 1.9714(19) 0.4074(15) 0.035(3) Uani 1 1 d . U . . .
C7 C 0.322(2) 1.2326(17) 0.1597(17) 0.028(2) Uani 1 1 d . U . . .
C18 C 0.563(2) 0.7949(19) 0.3179(16) 0.030(3) Uani 1 1 d . U . . .
C19 C 0.878(2) 0.1444(19) -0.1155(14) 0.030(3) Uani 1 1 d . U . . .
O5 O -0.0730(17) 2.0551(13) 0.4927(12) 0.040(3) Uani 1 1 d . U . . .
N4 N 0.8314(15) 0.2363(14) -0.0287(12) 0.025(3) Uani 1 1 d . U . . .
H4N H 0.834638 0.212306 0.045986 0.030 Uiso 1 1 calc R U . . .
O4 O 0.0478(18) 1.8343(16) 0.5764(13) 0.046(3) Uani 1 1 d . U . . .
O1 O 0.3596(16) 1.1678(14) 0.2426(12) 0.035(3) Uani 1 1 d . U . . .
O2W O 0.7293(14) 1.1367(14) 0.2212(10) 0.032(3) Uani 1 1 d . U . . .
H2WA H 0.833094 1.118801 0.234695 0.048 Uiso 1 1 d R U . . .
H2WB H 0.735292 1.215073 0.269004 0.048 Uiso 1 1 d R U . . .
O1W O 0.1799(14) 0.8559(14) 0.1334(12) 0.036(3) Uani 1 1 d . U . . .
H1WB H 0.100803 0.901899 0.116361 0.053 Uiso 1 1 d R U . . .
H1WA H 0.150203 0.776076 0.085091 0.053 Uiso 1 1 d R U . . .
O12 O 0.9615(16) 0.0177(13) 0.0437(12) 0.037(3) Uani 1 1 d . U . . .
O6 O -0.0437(16) 1.9739(14) 0.2993(11) 0.036(3) Uani 1 1 d . U . . .
O4W O 0.216(2) 2.135(2) 0.7041(14) 0.078(5) Uani 1 1 d . U . . .
H4WA H 0.260536 2.186865 0.776460 0.116 Uiso 1 1 d R U . . .
H4WB H 0.303710 2.152724 0.659063 0.116 Uiso 1 1 d R U . . .
O3W O -0.314(2) 1.8553(18) 0.6502(13) 0.062(4) Uani 1 1 d . U . . .
H3WA H -0.351558 1.815146 0.560861 0.093 Uiso 1 1 d R U . . .
H3WB H -0.413409 1.870641 0.672802 0.093 Uiso 1 1 d R U . . .
N3 N 0.6579(16) 0.6395(15) 0.1683(12) 0.027(3) Uani 1 1 d . U . . .
H3N H 0.686902 0.604422 0.234970 0.032 Uiso 1 1 calc R U . . .
O5W O 0.430(3) 0.891(3) 0.8010(16) 0.166(12) Uani 1 1 d . . . . .
H5WA H 0.439693 0.946183 0.865754 0.249 Uiso 1 1 d R U . . .
H5WB H 0.332339 0.903750 0.730533 0.249 Uiso 1 1 d R U . . .
O7W O 0.7569(15) 0.2573(14) 0.4651(12) 0.090(4) Uani 1 1 d . . . . .
H7WA H 0.624826 0.258868 0.465335 0.135 Uiso 1 1 d R U . . .
H7WB H 0.761835 0.164668 0.455503 0.135 Uiso 1 1 d R U . . .
O8W O 0.503(3) 0.107(2) 0.5412(19) 0.147(10) Uani 1 1 d . . . . .
H8WA H 0.428122 0.014604 0.491773 0.220 Uiso 1 1 d R U . . .
H8WB H 0.589581 0.109963 0.605718 0.220 Uiso 1 1 d R U . . .
C6 C 0.220(3) 1.420(2) 0.2924(19) 0.046(2) Uani 1 1 d . U . . .
C2 C 0.135(2) 1.6261(19) 0.3911(15) 0.025(3) Uani 1 1 d . U . . .
C12 C 0.778(2) 0.369(2) -0.0445(17) 0.034(4) Uani 1 1 d . U . . .
C1 C 0.163(2) 1.5491(19) 0.2861(17) 0.033(3) Uani 1 1 d . U . . .
H1 H 0.144739 1.582072 0.209101 0.039 Uiso 1 1 calc R U . . .
C11 C 0.7451(18) 0.4402(18) 0.0636(16) 0.023(3) Uani 1 1 d . U . . .
H11 H 0.758220 0.403166 0.139341 0.028 Uiso 1 1 calc R U . . .
C16 C 0.6928(19) 0.5672(18) 0.0580(15) 0.0249(15) Uani 1 1 d . U . . .
C3 C 0.155(2) 1.574(2) 0.4982(16) 0.042(4) Uani 1 1 d . U . . .
H3 H 0.128521 1.621980 0.570103 0.051 Uiso 1 1 calc R U . . .
C5 C 0.237(2) 1.365(2) 0.4017(18) 0.046(2) Uani 1 1 d . U . . .
H5 H 0.261909 1.275433 0.406786 0.055 Uiso 1 1 calc R U . . .
C4 C 0.214(3) 1.449(2) 0.5058(19) 0.046(2) Uani 1 1 d . U . . .
H4 H 0.238711 1.420910 0.583858 0.055 Uiso 1 1 calc R U . . .
C15 C 0.675(3) 0.624(3) -0.0586(19) 0.059(4) Uani 1 1 d . U . . .
H15 H 0.632581 0.706210 -0.063567 0.070 Uiso 1 1 calc R U . . .
C13 C 0.757(3) 0.419(2) -0.1661(17) 0.055(5) Uani 1 1 d . U . . .
H13 H 0.766179 0.364900 -0.239628 0.066 Uiso 1 1 calc R U . . .
C14 C 0.721(4) 0.556(3) -0.1636(19) 0.073(5) Uani 1 1 d . U . . .
H14 H 0.727798 0.603105 -0.235658 0.088 Uiso 1 1 calc R U . . .
O6W O 0.2118(14) 0.576(2) 0.9695(10) 0.131(7) Uani 1 1 d . . . . .
H6WB H 0.344287 0.612531 0.958448 0.197 Uiso 1 1 d R U . . .
H6WA H 0.137397 0.606469 0.902968 0.197 Uiso 1 1 d R U . . .
loop_
_atom_site_aniso_label
_atom_site_aniso_U_11
_atom_site_aniso_U_22
_atom_site_aniso_U_33
_atom_site_aniso_U_23
_atom_site_aniso_U_13
_atom_site_aniso_U_12
Co1 0.0372(6) 0.0292(6) 0.0264(6) -0.0013(4) 0.0045(4) 0.0176(4)
Co2 0.0929(10) 0.0344(6) 0.0192(6) -0.0003(4) 0.0061(6) 0.0335(6)
O10 0.123(10) 0.027(7) 0.018(6) -0.001(5) 0.012(7) 0.033(7)
O11 0.112(10) 0.048(8) 0.024(6) 0.010(5) 0.007(6) 0.052(7)
O2 0.042(6) 0.032(6) 0.022(5) -0.002(4) 0.008(4) 0.018(5)
O8 0.042(6) 0.036(7) 0.028(5) -0.002(4) 0.001(4) 0.013(5)
C9 0.049(9) 0.023(7) 0.031(7) 0.007(6) 0.007(7) 0.018(6)
N2 0.051(8) 0.036(8) 0.027(7) 0.011(6) 0.015(6) 0.021(6)
C8 0.039(9) 0.020(8) 0.024(6) -0.006(5) 0.004(6) 0.002(6)
C17 0.027(4) 0.024(4) 0.021(3) 0.001(3) 0.000(3) 0.004(3)
C20 0.027(4) 0.024(4) 0.021(3) 0.001(3) 0.000(3) 0.004(3)
N1 0.052(8) 0.031(7) 0.033(7) -0.004(6) 0.001(6) 0.025(6)
O9 0.060(7) 0.045(8) 0.020(5) 0.005(5) 0.010(5) 0.026(6)
O3 0.056(7) 0.022(6) 0.035(6) 0.000(5) -0.009(5) 0.003(5)
O7 0.037(5) 0.035(6) 0.025(5) 0.001(5) -0.002(5) 0.021(5)
C10 0.062(8) 0.026(6) 0.021(5) 0.001(4) 0.005(5) 0.019(6)
C7 0.026(6) 0.023(6) 0.036(5) -0.006(4) 0.002(5) 0.012(4)
C18 0.030(8) 0.029(8) 0.031(6) 0.003(6) 0.006(6) 0.007(6)
C19 0.044(9) 0.030(8) 0.015(6) -0.004(5) 0.000(6) 0.010(6)
O5 0.084(8) 0.025(6) 0.018(5) -0.005(4) 0.005(5) 0.025(5)
N4 0.029(6) 0.029(7) 0.020(6) 0.001(5) -0.001(5) 0.016(5)
O4 0.082(8) 0.041(7) 0.026(6) 0.001(5) -0.002(6) 0.038(6)
O1 0.050(6) 0.029(6) 0.030(6) -0.005(5) 0.004(6) 0.019(5)
O2W 0.042(4) 0.037(6) 0.021(6) 0.004(4) -0.001(4) 0.019(4)
O1W 0.038(4) 0.029(6) 0.045(7) -0.001(5) 0.003(4) 0.020(4)
O12 0.056(7) 0.037(8) 0.026(5) 0.008(6) 0.009(5) 0.024(6)
O6 0.056(7) 0.043(8) 0.017(5) 0.006(5) 0.010(5) 0.025(6)
O4W 0.100(8) 0.078(10) 0.036(8) -0.018(7) 0.007(7) 0.000(7)
O3W 0.090(6) 0.062(8) 0.030(7) -0.004(6) 0.017(6) 0.013(6)
N3 0.032(7) 0.030(7) 0.023(6) 0.005(5) 0.006(5) 0.013(5)
O5W 0.21(2) 0.33(3) 0.041(9) -0.009(13) 0.010(10) 0.22(2)
O7W 0.076(7) 0.091(9) 0.103(9) -0.019(7) 0.006(7) 0.035(7)
O8W 0.19(2) 0.18(2) 0.097(14) -0.079(13) -0.055(12) 0.154(18)
C6 0.070(5) 0.042(5) 0.039(5) 0.002(4) 0.011(4) 0.039(4)
C2 0.024(7) 0.029(7) 0.023(7) -0.002(5) 0.000(6) 0.012(6)
C12 0.044(9) 0.032(8) 0.032(8) 0.009(6) 0.012(7) 0.019(7)
C1 0.048(9) 0.031(8) 0.026(7) 0.003(6) -0.001(7) 0.022(7)
C11 0.015(6) 0.027(7) 0.027(7) 0.005(5) 0.007(6) 0.001(5)
C16 0.027(4) 0.024(4) 0.021(3) 0.001(3) 0.000(3) 0.004(3)
C3 0.067(10) 0.050(9) 0.030(7) 0.006(7) 0.019(8) 0.046(8)
C5 0.070(5) 0.042(5) 0.039(5) 0.002(4) 0.011(4) 0.039(4)
C4 0.070(5) 0.042(5) 0.039(5) 0.002(4) 0.011(4) 0.039(4)
C15 0.104(11) 0.057(9) 0.037(7) 0.021(7) 0.022(8) 0.052(9)
C13 0.105(13) 0.059(10) 0.018(6) 0.009(7) 0.005(8) 0.052(10)
C14 0.147(15) 0.076(11) 0.028(6) 0.027(7) 0.026(9) 0.071(11)
O6W 0.054(6) 0.253(19) 0.035(6) -0.006(8) 0.008(5) -0.040(8)
loop_
_atom_type_symbol
_atom_type_description
_atom_type_scat_dispersion_real
_atom_type_scat_dispersion_imag
_atom_type_scat_source
C C 0.0033 0.0016 'International Tables Vol C Tables 4.2.6.8 and 6.1.1.4'
H H 0.0000 0.0000 'International Tables Vol C Tables 4.2.6.8 and 6.1.1.4'
N N 0.0061 0.0033 'International Tables Vol C Tables 4.2.6.8 and 6.1.1.4'
O O 0.0106 0.0060 'International Tables Vol C Tables 4.2.6.8 and 6.1.1.4'
Co Co 0.3494 0.9721 'International Tables Vol C Tables 4.2.6.8 and 6.1.1.4'
loop_
_geom_angle_atom_site_label_1
_geom_angle_atom_site_label_2
_geom_angle_atom_site_label_3
_geom_angle
_geom_angle_site_symmetry_1
_geom_angle_site_symmetry_3
_geom_angle_publ_flag
O8 Co1 O1 101.0(5) . . ?
O8 Co1 O7 79.6(5) . . ?
O1 Co1 O7 179.1(6) . . ?
O8 Co1 O2 178.0(7) . . ?
O1 Co1 O2 80.4(5) . . ?
O7 Co1 O2 99.0(5) . . ?
O8 Co1 O2W 88.2(4) . . ?
O1 Co1 O2W 88.0(5) . . ?
O7 Co1 O2W 92.8(5) . . ?
O2 Co1 O2W 93.3(4) . . ?
O8 Co1 O1W 90.4(5) . . ?
O1 Co1 O1W 90.8(5) . . ?
O7 Co1 O1W 88.5(5) . . ?
O2 Co1 O1W 88.1(4) . . ?
O2W Co1 O1W 177.9(6) . . ?
O11 Co2 O4W 91.2(6) 1_476 . ?
O11 Co2 O3W 87.5(6) 1_476 . ?
O4W Co2 O3W 178.4(8) . . ?
O11 Co2 O10 80.1(6) 1_476 1_476 ?
O4W Co2 O10 87.2(7) . 1_476 ?
O3W Co2 O10 91.7(6) . 1_476 ?
O11 Co2 O4 101.0(6) 1_476 . ?
O4W Co2 O4 91.1(7) . . ?
O3W Co2 O4 90.0(6) . . ?
O10 Co2 O4 178.0(8) 1_476 . ?
O11 Co2 O5 178.3(7) 1_476 . ?
O4W Co2 O5 90.3(6) . . ?
O3W Co2 O5 91.0(5) . . ?
O10 Co2 O5 99.1(5) 1_476 . ?
O4 Co2 O5 79.8(5) . . ?
C19 O10 Co2 107.5(12) . 1_634 ?
C20 O11 Co2 115.8(12) . 1_634 ?
C8 O2 Co1 114.5(11) . . ?
C18 O8 Co1 114.9(12) . . ?
O4 C9 N2 129.6(17) . . ?
O4 C9 C10 117.6(15) . . ?
N2 C9 C10 112.8(15) . . ?
C9 N2 C2 128.5(17) . . ?
C9 N2 H2N 115.8 . . ?
C2 N2 H2N 115.8 . . ?
O3 C8 O2 131.2(17) . . ?
O3 C8 C7 117.5(15) . . ?
O2 C8 C7 111.2(13) . . ?
N3 C17 O7 125.8(17) . . ?
N3 C17 C18 118.9(14) . . ?
O7 C17 C18 115.3(15) . . ?
O11 C20 O12 127.2(16) . . ?
O11 C20 C19 115.4(14) . . ?
O12 C20 C19 117.3(15) . . ?
C7 N1 C6 124.5(16) . . ?
C7 N1 H1N 117.8 . . ?
C6 N1 H1N 117.8 . . ?
C17 O7 Co1 113.5(12) . . ?
O6 C10 O5 127.7(17) . . ?
O6 C10 C9 119.0(15) . . ?
O5 C10 C9 113.0(14) . . ?
O1 C7 N1 124.6(17) . . ?
O1 C7 C8 123.4(15) . . ?
N1 C7 C8 112.0(14) . . ?
O9 C18 O8 124.8(18) . . ?
O9 C18 C17 118.9(16) . . ?
O8 C18 C17 116.2(14) . . ?
O10 C19 N4 121.5(16) . . ?
O10 C19 C20 120.6(15) . . ?
N4 C19 C20 117.9(14) . . ?
C10 O5 Co2 114.8(11) . . ?
C19 N4 C12 129.0(16) . . ?
C19 N4 H4N 115.5 . . ?
C12 N4 H4N 115.5 . . ?
C9 O4 Co2 114.7(11) . . ?
C7 O1 Co1 110.3(12) . . ?
Co1 O2W H2WA 132.2 . . ?
Co1 O2W H2WB 114.0 . . ?
H2WA O2W H2WB 106.2 . . ?
Co1 O1W H1WB 113.8 . . ?
Co1 O1W H1WA 124.0 . . ?
H1WB O1W H1WA 107.4 . . ?
Co2 O4W H4WA 122.0 . . ?
Co2 O4W H4WB 132.6 . . ?
H4WA O4W H4WB 105.3 . . ?
Co2 O3W H3WA 111.3 . . ?
Co2 O3W H3WB 129.5 . . ?
H3WA O3W H3WB 101.8 . . ?
C17 N3 C16 131.5(15) . . ?
C17 N3 H3N 114.3 . . ?
C16 N3 H3N 114.3 . . ?
H5WA O5W H5WB 113.5 . . ?
H7WA O7W H7WB 109.4 . . ?
H8WA O8W H8WB 123.5 . . ?
C5 C6 C1 120.2(19) . . ?
C5 C6 N1 125.2(18) . . ?
C1 C6 N1 114.5(17) . . ?
C3 C2 C1 118.3(17) . . ?
C3 C2 N2 123.5(17) . . ?
C1 C2 N2 118.1(16) . . ?
C11 C12 N4 114.9(16) . . ?
C11 C12 C13 123.2(18) . . ?
N4 C12 C13 121.9(18) . . ?
C2 C1 C6 121.1(17) . . ?
C2 C1 H1 119.4 . . ?
C6 C1 H1 119.4 . . ?
C16 C11 C12 119.2(16) . . ?
C16 C11 H11 120.4 . . ?
C12 C11 H11 120.4 . . ?
C11 C16 N3 119.1(15) . . ?
C11 C16 C15 119.8(18) . . ?
N3 C16 C15 121.1(17) . . ?
C2 C3 C4 121.0(18) . . ?
C2 C3 H3 119.5 . . ?
C4 C3 H3 119.5 . . ?
C6 C5 C4 116.6(19) . . ?
C6 C5 H5 121.7 . . ?
C4 C5 H5 121.7 . . ?
C5 C4 C3 122.2(19) . . ?
C5 C4 H4 118.9 . . ?
C3 C4 H4 118.9 . . ?
C14 C15 C16 120(2) . . ?
C14 C15 H15 120.0 . . ?
C16 C15 H15 120.0 . . ?
C14 C13 C12 114.5(18) . . ?
C14 C13 H13 122.8 . . ?
C12 C13 H13 122.8 . . ?
C15 C14 C13 122.5(19) . . ?
C15 C14 H14 118.8 . . ?
C13 C14 H14 118.8 . . ?
H6WB O6W H6WA 109.8 . . ?
loop_
_geom_bond_atom_site_label_1
_geom_bond_atom_site_label_2
_geom_bond_distance
_geom_bond_site_symmetry_2
_geom_bond_publ_flag
Co1 O8 2.024(13) . ?
Co1 O1 2.073(13) . ?
Co1 O7 2.078(13) . ?
Co1 O2 2.098(12) . ?
Co1 O2W 2.143(11) . ?
Co1 O1W 2.151(11) . ?
Co2 O11 1.979(14) 1_476 ?
Co2 O4W 2.052(16) . ?
Co2 O3W 2.103(15) . ?
Co2 O10 2.108(15) 1_476 ?
Co2 O4 2.107(15) . ?
Co2 O5 2.110(13) . ?
O10 C19 1.26(2) . ?
O11 C20 1.22(2) . ?
O2 C8 1.247(19) . ?
O8 C18 1.28(2) . ?
C9 O4 1.23(2) . ?
C9 N2 1.28(2) . ?
C9 C10 1.62(2) . ?
N2 C2 1.40(2) . ?
N2 H2N 0.8600 . ?
C8 O3 1.24(2) . ?
C8 C7 1.58(2) . ?
C17 N3 1.26(2) . ?
C17 O7 1.282(19) . ?
C17 C18 1.51(2) . ?
C20 O12 1.263(19) . ?
C20 C19 1.47(2) . ?
N1 C7 1.399(19) . ?
N1 C6 1.44(2) . ?
N1 H1N 0.8600 . ?
O9 C18 1.24(2) . ?
C10 O6 1.173(19) . ?
C10 O5 1.301(19) . ?
C7 O1 1.19(2) . ?
C19 N4 1.36(2) . ?
N4 C12 1.44(2) . ?
N4 H4N 0.8600 . ?
O2W H2WA 0.8565 . ?
O2W H2WB 0.8597 . ?
O1W H1WB 0.8522 . ?
O1W H1WA 0.8513 . ?
O4W H4WA 0.8827 . ?
O4W H4WB 0.8437 . ?
O3W H3WA 1.0013 . ?
O3W H3WB 0.8555 . ?
N3 C16 1.41(2) . ?
N3 H3N 0.8600 . ?
O5W H5WA 0.8286 . ?
O5W H5WB 1.0629 . ?
O7W H7WA 1.0089 . ?
O7W H7WB 0.8901 . ?
O8W H8WA 0.9939 . ?
O8W H8WB 0.9175 . ?
C6 C5 1.34(3) . ?
C6 C1 1.42(2) . ?
C2 C3 1.31(2) . ?
C2 C1 1.36(3) . ?
C12 C11 1.38(3) . ?
C12 C13 1.45(2) . ?
C1 H1 0.9300 . ?
C11 C16 1.38(2) . ?
C11 H11 0.9300 . ?
C16 C15 1.43(2) . ?
C3 C4 1.39(2) . ?
C3 H3 0.9300 . ?
C5 C4 1.38(3) . ?
C5 H5 0.9300 . ?
C4 H4 0.9300 . ?
C15 C14 1.37(3) . ?
C15 H15 0.9300 . ?
C13 C14 1.40(3) . ?
C13 H13 0.9300 . ?
C14 H14 0.9300 . ?
O6W H6WB 0.9932 . ?
O6W H6WA 0.9936 . ?
loop_
_geom_torsion_atom_site_label_1
_geom_torsion_atom_site_label_2
_geom_torsion_atom_site_label_3
_geom_torsion_atom_site_label_4
_geom_torsion
_geom_torsion_site_symmetry_1
_geom_torsion_site_symmetry_2
_geom_torsion_site_symmetry_3
_geom_torsion_site_symmetry_4
_geom_torsion_publ_flag
O4 C9 N2 C2 3(3) . . . . ?
C10 C9 N2 C2 -177.8(15) . . . . ?
Co1 O2 C8 O3 -171.8(14) . . . . ?
Co1 O2 C8 C7 4.2(15) . . . . ?
Co2 O11 C20 O12 -174.9(12) 1_634 . . . ?
Co2 O11 C20 C19 9(2) 1_634 . . . ?
N3 C17 O7 Co1 -177.1(12) . . . . ?
C18 C17 O7 Co1 1.2(15) . . . . ?
O4 C9 C10 O6 -176.2(16) . . . . ?
N2 C9 C10 O6 4(3) . . . . ?
O4 C9 C10 O5 -3(2) . . . . ?
N2 C9 C10 O5 177.4(14) . . . . ?
C6 N1 C7 O1 -1(3) . . . . ?
C6 N1 C7 C8 -178.8(15) . . . . ?
O3 C8 C7 O1 174.9(16) . . . . ?
O2 C8 C7 O1 -2(2) . . . . ?
O3 C8 C7 N1 -7.6(19) . . . . ?
O2 C8 C7 N1 175.7(13) . . . . ?
Co1 O8 C18 O9 174.1(12) . . . . ?
Co1 O8 C18 C17 -8.0(17) . . . . ?
N3 C17 C18 O9 1(2) . . . . ?
O7 C17 C18 O9 -177.4(14) . . . . ?
N3 C17 C18 O8 -177.0(14) . . . . ?
O7 C17 C18 O8 4.5(19) . . . . ?
Co2 O10 C19 N4 179.6(12) 1_634 . . . ?
Co2 O10 C19 C20 2.3(19) 1_634 . . . ?
O11 C20 C19 O10 -8(2) . . . . ?
O12 C20 C19 O10 175.6(14) . . . . ?
O11 C20 C19 N4 175.0(14) . . . . ?
O12 C20 C19 N4 -2(2) . . . . ?
O6 C10 O5 Co2 173.2(15) . . . . ?
C9 C10 O5 Co2 0.7(19) . . . . ?
O10 C19 N4 C12 -4(3) . . . . ?
C20 C19 N4 C12 173.7(14) . . . . ?
N2 C9 O4 Co2 -176.8(16) . . . . ?
C10 C9 O4 Co2 4(2) . . . . ?
N1 C7 O1 Co1 -178.9(12) . . . . ?
C8 C7 O1 Co1 -1.8(18) . . . . ?
O7 C17 N3 C16 -5(3) . . . . ?
C18 C17 N3 C16 177.1(13) . . . . ?
C7 N1 C6 C5 -4(3) . . . . ?
C7 N1 C6 C1 176.7(14) . . . . ?
C9 N2 C2 C3 1(3) . . . . ?
C9 N2 C2 C1 178.0(17) . . . . ?
C19 N4 C12 C11 -178.0(14) . . . . ?
C19 N4 C12 C13 3(3) . . . . ?
C3 C2 C1 C6 -3(3) . . . . ?
N2 C2 C1 C6 179.8(14) . . . . ?
C5 C6 C1 C2 4(3) . . . . ?
N1 C6 C1 C2 -176.4(16) . . . . ?
N4 C12 C11 C16 -179.8(11) . . . . ?
C13 C12 C11 C16 -1(3) . . . . ?
C12 C11 C16 N3 179.4(13) . . . . ?
C12 C11 C16 C15 -1(2) . . . . ?
C17 N3 C16 C11 -171.8(14) . . . . ?
C17 N3 C16 C15 8(3) . . . . ?
C1 C2 C3 C4 4(3) . . . . ?
N2 C2 C3 C4 -178.8(16) . . . . ?
C1 C6 C5 C4 -7(3) . . . . ?
N1 C6 C5 C4 174.2(18) . . . . ?
C6 C5 C4 C3 8(3) . . . . ?
C2 C3 C4 C5 -7(3) . . . . ?
C11 C16 C15 C14 -4(3) . . . . ?
N3 C16 C15 C14 176.0(19) . . . . ?
C11 C12 C13 C14 7(3) . . . . ?
N4 C12 C13 C14 -174.4(18) . . . . ?
C16 C15 C14 C13 11(4) . . . . ?
C12 C13 C14 C15 -12(4) . . . . ?
