#------------------------------------------------------------------------------
#$Date: 2021-09-06 14:07:23 +0300 (Mon, 06 Sep 2021) $
#$Revision: 268747 $
#$URL: file:///home/coder/svn-repositories/cod/cif/7/70/79/7707924.cif $
#------------------------------------------------------------------------------
#
# This file is available in the Crystallography Open Database (COD),
# http://www.crystallography.net/
#
# All data on this site have been placed in the public domain by the
# contributors.
#
data_7707924
loop_
_publ_author_name
'Wang, Jinhui'
'Zhang, Xinyuan'
'Liang, Fei'
'Hu, Zhanggui'
'Wu, Yicheng'
_publ_section_title
;
 Co-crystal
 AX&#x00B7;(H<sub>3</sub>C<sub>3</sub>N<sub>3</sub>O<sub>3</sub>) (A = Na,
 Rb, Cs; X = Br, I): a series of strongly anisotropic alkali halide
 cyanurates with a planar structural motif and large birefringence.
;
_journal_issue                   33
_journal_name_full
'Dalton transactions (Cambridge, England : 2003)'
_journal_page_first              11555
_journal_page_last               11561
_journal_paper_doi               10.1039/d1dt02217b
_journal_volume                  50
_journal_year                    2021
_chemical_formula_moiety         '0.25(C12 H12 Br4 Cs4 N12 O12)'
_chemical_formula_sum            'C3 H3 Br Cs N3 O3'
_chemical_formula_weight         341.90
_space_group_crystal_system      orthorhombic
_space_group_IT_number           57
_space_group_name_Hall           '-P 2c 2b'
_space_group_name_H-M_alt        'P b c m'
_atom_sites_solution_hydrogens   difmap
_atom_sites_solution_primary     dual
_audit_creation_date             2020-12-08
_audit_creation_method
;
Olex2 1.2
(compiled 2017.08.10 svn.r3458 for OlexSys, GUI svn.r5381)
;
_audit_update_record
;
2021-06-30 deposited with the CCDC.	2021-07-26 downloaded from the CCDC.
;
_cell_angle_alpha                90
_cell_angle_beta                 90
_cell_angle_gamma                90
_cell_formula_units_Z            4
_cell_length_a                   6.8630(7)
_cell_length_b                   9.0765(8)
_cell_length_c                   12.8352(10)
_cell_measurement_reflns_used    1436
_cell_measurement_temperature    297(2)
_cell_measurement_theta_max      29.45
_cell_measurement_theta_min      2.97
_cell_volume                     799.53(12)
_computing_cell_refinement       'SAINT V8.38A (?, 2016)'
_computing_data_reduction        'SAINT V8.38A (?, 2016)'
_computing_molecular_graphics    'Olex2 (Dolomanov et al., 2009)'
_computing_publication_material  'Olex2 (Dolomanov et al., 2009)'
_computing_structure_refinement  'ShelXL (Sheldrick, 2015)'
_computing_structure_solution    'ShelXT (Sheldrick, 2015)'
_diffrn_ambient_temperature      297.0
_diffrn_measured_fraction_theta_full 1.000
_diffrn_measured_fraction_theta_max 0.935
_diffrn_measurement_device_type  'CCD area detector'
_diffrn_measurement_method       'phi and omega scans'
_diffrn_radiation_monochromator  graphite
_diffrn_radiation_type           MoK\a
_diffrn_radiation_wavelength     0.71073
_diffrn_reflns_av_R_equivalents  0.0572
_diffrn_reflns_av_unetI/netI     0.0575
_diffrn_reflns_Laue_measured_fraction_full 1.000
_diffrn_reflns_Laue_measured_fraction_max 0.935
_diffrn_reflns_limit_h_max       8
_diffrn_reflns_limit_h_min       -9
_diffrn_reflns_limit_k_max       13
_diffrn_reflns_limit_k_min       -12
_diffrn_reflns_limit_l_max       18
_diffrn_reflns_limit_l_min       -18
_diffrn_reflns_number            5852
_diffrn_reflns_point_group_measured_fraction_full 1.000
_diffrn_reflns_point_group_measured_fraction_max 0.935
_diffrn_reflns_theta_full        25.242
_diffrn_reflns_theta_max         31.219
_diffrn_reflns_theta_min         2.968
_exptl_absorpt_coefficient_mu    9.592
_exptl_absorpt_correction_T_max  0.7462
_exptl_absorpt_correction_T_min  0.5755
_exptl_absorpt_correction_type   none
_exptl_absorpt_process_details
;
SADABS-2016/2 (Bruker,2016/2) was used for absorption correction.
wR2(int) was 0.1529 before and 0.0572 after correction.
The Ratio of minimum to maximum transmission is 0.7712.
The \l/2 correction factor is Not present.
;
_exptl_crystal_density_diffrn    2.840
_exptl_crystal_description       plate
_exptl_crystal_F_000             624
_refine_diff_density_max         1.119
_refine_diff_density_min         -1.417
_refine_diff_density_rms         0.294
_refine_ls_extinction_coef       0.0078(8)
_refine_ls_extinction_expression Fc^*^=kFc[1+0.001xFc^2^\l^3^/sin(2\q)]^-1/4^
_refine_ls_extinction_method     'SHELXL-2016/4 (Sheldrick 2016)'
_refine_ls_goodness_of_fit_ref   1.123
_refine_ls_hydrogen_treatment    refall
_refine_ls_matrix_type           full
_refine_ls_number_parameters     62
_refine_ls_number_reflns         1258
_refine_ls_number_restraints     1
_refine_ls_restrained_S_all      1.123
_refine_ls_R_factor_all          0.0864
_refine_ls_R_factor_gt           0.0467
_refine_ls_shift/su_max          0.000
_refine_ls_shift/su_mean         0.000
_refine_ls_structure_factor_coef Fsqd
_refine_ls_weighting_details
'w=1/[\s^2^(Fo^2^)+(0.0461P)^2^] where P=(Fo^2^+2Fc^2^)/3'
_refine_ls_weighting_scheme      calc
_refine_ls_wR_factor_gt          0.0974
_refine_ls_wR_factor_ref         0.1149
_reflns_Friedel_coverage         0.000
_reflns_number_gt                837
_reflns_number_total             1258
_reflns_threshold_expression     'I > 2\s(I)'
_cod_data_source_file            d1dt02217b2.cif
_cod_data_source_block           a_CCDC2
_cod_depositor_comments
'Adding full bibliography for 7707922--7707924.cif.'
_cod_database_code               7707924
_shelx_shelxl_version_number     2016/4
_shelx_space_group_comment
;
The symmetry employed for this shelxl refinement is uniquely defined
by the following loop, which should always be used as a source of
symmetry information in preference to the above space-group names.
They are only intended as comments.
;
_olex2_refinement_description
;
1. Restrained distances
 N1-H1
 1.01 with sigma of 0.02
;
_shelx_res_file
;
TITL a_a.res in Pbcm
 a.res created by SHELXL-2016/4 at 11:11:19 on 08-Dec-2020
REM Old TITL a_a.res in Pbcm
REM SHELXT solution in Pbcm
REM R1 0.146, Rweak 0.003, Alpha 0.015, Orientation as input
REM Formula found by SHELXT: C6 Br2 O3
CELL 0.71073 6.863 9.0765 12.8352 90 90 90
ZERR 4 0.0007 0.0008 0.001 0 0 0
LATT 1
SYMM -X,-Y,0.5+Z
SYMM -X,0.5+Y,0.5-Z
SYMM +X,0.5-Y,-Z
SFAC C H Br Cs N O
UNIT 12 12 4 4 12 12
DFIX 1.01 N1 H1

L.S. 10
PLAN  20
TEMP 23.85
BOND $H
list 4
fmap 2
ACTA
REM <olex2.extras>
REM <HklSrc "%.\\a.hkl">
REM </olex2.extras>

WGHT    0.046100
EXTI    0.007803
FVAR       0.42846
CS1   4    1.131924    0.210637    0.750000    10.50000    0.03125    0.02674 =
         0.03422    0.00000    0.00000    0.00191
BR1   3    0.624076    0.061141    0.750000    10.50000    0.02881    0.03066 =
         0.03828    0.00000    0.00000   -0.00068
O1    6    0.870282    0.437800    0.615177    11.00000    0.03434    0.04235 =
         0.05050   -0.01441   -0.00557   -0.00821
O2    6    0.293942    0.250000    0.500000    10.50000    0.01908    0.05928 =
         0.05590   -0.00455    0.00000    0.00000
N1    5    0.872952    0.250000    0.500000    10.50000    0.02349    0.03137 =
         0.03087   -0.00750    0.00000    0.00000
N2    5    0.581782    0.349036    0.556331    11.00000    0.02357    0.02986 =
         0.03485   -0.00480    0.00276    0.00453
C1    1    0.779414    0.352501    0.562182    11.00000    0.03228    0.02638 =
         0.02998    0.00368   -0.00416   -0.00340
C2    1    0.473481    0.250000    0.500000    10.50000    0.03002    0.02848 =
         0.02743    0.00610    0.00000    0.00000
H2    2    0.520088    0.404415    0.596710    11.00000    0.01690
H1    2    1.019475    0.250000    0.500000    10.50000    0.13699
HKLF 4




REM  a_a.res in Pbcm
REM R1 =  0.0467 for     837 Fo > 4sig(Fo)  and  0.0864 for all    1258 data
REM     62 parameters refined using      1 restraints

END

WGHT      0.0461      0.0000

REM Highest difference peak  1.119,  deepest hole -1.417,  1-sigma level  0.294
Q1    1   0.6248  0.0168  0.6523  11.00000  0.05    1.12
Q2    1   0.3753  0.3376  0.6214  11.00000  0.05    1.07
Q3    1   1.1230  0.0754  0.7500  10.50000  0.05    1.02
Q4    1   0.3599  0.0208  0.7500  10.50000  0.05    0.93
Q5    1   0.7603  0.4939  0.6024  11.00000  0.05    0.91
Q6    1   0.6891  0.3161  0.6077  11.00000  0.05    0.91
Q7    1   0.6183  0.2103  0.7500  10.50000  0.05    0.90
Q8    1   0.5616  0.3402  0.6145  11.00000  0.05    0.89
Q9    1   0.8113  0.3672  0.6090  11.00000  0.05    0.89
Q10   1   1.1314  0.1546  0.6689  11.00000  0.05    0.89
Q11   1   0.4430  0.4269  0.6201  11.00000  0.05    0.87
Q12   1   0.9280  0.3540  0.5969  11.00000  0.05    0.84
Q13   1   0.2625  0.2050  0.4025  11.00000  0.05    0.79
Q14   1   1.1568  0.3621  0.6250  11.00000  0.05    0.78
Q15   1   0.8596  0.1833  0.7500  10.50000  0.05    0.74
Q16   1   1.0352  0.4548  0.6106  11.00000  0.05    0.74
Q17   1   0.5588  0.1147  0.6286  11.00000  0.05    0.73
Q18   1   1.0407  0.2107  0.4108  11.00000  0.05    0.72
Q19   1   0.8968  0.2536  0.6446  11.00000  0.05    0.70
Q20   1   1.0557  0.3832  0.6417  11.00000  0.05    0.70
;
_shelx_res_checksum              65937
_shelx_hkl_file
;
   1   0   0  190.78   13.10
   1   0   0  210.68   18.10
  -1   0   0  200.08   17.60
   2   0   0   95.39   20.10
  -2   0   0  116.99   14.30
  -2   0   0  129.89   24.30
   2   0   0  131.09   15.30
   3   0   0 1964.20  102.69
   3   0   0 2152.18   80.89
  -3   0   0 1870.61   96.39
   4   0   0 8465.85  221.98
   4   0   0 7700.53  267.37
  -4   0   0 8478.25  262.27
  -5   0   0    8.80   13.40
  -6   0   0   27.70   16.00
  -7   0   0  371.26   69.99
  -8   0   0 1214.98  115.29
   0  -1   0   -0.80    0.90
   0   1   0    1.10    1.30
   1  -1   0  558.84   25.60
  -1   1   0  528.65   24.40
   1   1   0  498.25   27.40
  -1  -1   0  541.55   26.60
   2   1   0 5150.58  149.99
  -2   1   0 5159.48  159.48
  -2   1   0 5048.59  128.29
   2  -1   0 5178.98  129.59
  -2  -1   0 5136.49  142.59
   3   1   0   80.59   21.10
   3   1   0   85.29   18.00
   3  -1   0   89.19   22.20
  -3  -1   0  120.19   26.20
  -3   1   0  105.19   28.00
  -3   1   0  104.69   19.50
   3  -1   0  102.69   20.50
   4  -1   0   49.20   17.90
   4   1   0   30.30   18.30
  -4  -1   0   32.60   17.40
   4  -1   0   23.70   17.20
  -4   1   0   47.70   14.90
   4   1   0   36.70   13.60
  -5   1   0  622.64   53.59
  -5  -1   0  697.03   67.59
  -5   1   0  688.13   75.99
  -6   1   0 1532.45  122.79
  -6  -1   0 1851.91  121.39
  -7  -1   0  -25.40   12.40
  -7   1   0   49.60   22.00
  -8  -1   0   73.29   26.80
  -8   1   0  -25.10   24.70
  -9  -1   0   78.79   44.60
  -9   1   0  179.98   55.59
   0   2   0 3118.29   77.79
   0  -2   0 3195.18   77.09
   0   2   0 3172.68   83.29
  -1   2   0 2978.30   78.99
  -1   2   0 2813.82   81.69
  -1  -2   0 2953.30   80.39
   1   2   0 2965.20   83.89
   1  -2   0 3026.10   84.29
   2   2   0   83.79   18.70
  -2   2   0   45.70   11.70
   2  -2   0   59.99   13.60
  -2  -2   0   52.29   12.30
  -3  -2   0 3142.99  116.89
   3  -2   0 3182.08  109.09
  -3   2   0 3032.60  138.99
  -3   2   0 3058.59  104.89
   3   2   0 3363.76  202.18
   4  -2   0  128.19   28.20
  -4   2   0  143.99   27.90
  -4  -2   0  203.48   47.80
  -4   2   0  154.18   40.10
  -5   2   0 1158.28   74.49
  -5   2   0 1263.07  106.89
  -5  -2   0 1314.47   90.89
  -6   2   0   12.20   14.30
  -6  -2   0   38.30   17.90
  -6   2   0   49.80   25.90
  -7  -2   0  840.72   83.89
  -7   2   0  971.10  106.29
  -8  -2   0   38.40   26.50
  -8   2   0   67.79   38.50
  -9   2   0   79.79   47.10
  -9  -2   0   82.59   38.20
   0  -3   0   -2.10    2.10
   0  -3   0    4.70    2.80
   0   3   0   -1.60    1.90
   0   3   0    3.70    2.80
  -1  -3   0 7679.63  172.78
  -1   3   0 7318.07  171.58
  -1   3   0 7813.62  181.98
   1   3   0 7538.55  178.58
   1  -3   0 7562.04  180.48
  -2   3   0   94.79   17.70
   2   3   0   82.89   18.70
   2  -3   0   90.49   17.40
  -2  -3   0  103.89   18.80
  -3   3   0 2447.06   95.69
  -3  -3   0 2367.06   97.09
   3  -3   0 2543.85   99.39
   3   3   0 2419.26  110.79
  -3   3   0 2307.27  123.29
  -4  -3   0  117.09   28.00
  -4   3   0   93.19   24.50
  -4   3   0   77.09   27.80
  -5   3   0 1395.86   83.99
  -5  -3   0 1437.86   91.39
  -5   3   0 1290.57  112.09
  -6   3   0   26.80   15.00
  -6   3   0   20.10   26.40
  -6  -3   0  133.99   36.80
  -7   3   0  299.57   67.79
  -7   3   0  301.27   51.69
  -7  -3   0  259.67   51.59
  -8   3   0   56.59   31.60
  -8  -3   0   65.39   31.80
  -9  -3   0  186.38   46.40
   0   4   0 1413.16   63.29
   0  -4   0 1310.67   58.39
   0   4   0 1327.07   57.79
   0  -4   0 1390.46   55.89
   1  -4   0  808.02   46.50
  -1   4   0  770.72   42.90
   1   4   0  761.32   46.00
  -1   4   0  797.72   48.00
  -1  -4   0  854.61   43.30
   1   4   0  825.12   47.30
   2   4   0   18.10    9.20
   2  -4   0    1.70    7.40
  -2   4   0   12.50    6.30
  -2   4   0   18.10   10.40
  -2  -4   0   22.40   10.10
  -3   4   0  407.16   38.30
   3  -4   0  410.96   40.00
  -3  -4   0  447.86   38.80
  -4  -4   0  605.94   50.89
  -4   4   0  547.55   67.29
  -4   4   0  538.95   48.50
  -5   4   0  510.15   89.19
  -5  -4   0  437.36   49.20
  -5   4   0  456.75   46.90
  -6   4   0   72.89   37.00
  -6   4   0  108.49   30.00
  -6  -4   0  124.59   32.10
  -7  -4   0  167.98   38.80
  -7   4   0  156.28   46.80
  -7   4   0  105.69   31.60
  -8  -4   0  122.59   37.00
  -8   4   0  169.28   55.59
   0   5   0   -1.70    3.80
   0   5   0    6.00    5.20
   0  -5   0    1.60    4.50
   1   5   0    8.20    6.80
  -1  -5   0    3.70    5.40
  -1   5   0   -3.00    7.60
  -1   5   0  -12.60    5.00
   1   5   0    0.40    5.60
  -2  -5   0  564.24   41.30
   2  -5   0  535.85   45.50
   2   5   0  565.74   46.20
  -2   5   0  618.84   47.20
   3  -5   0  274.67   35.10
  -3  -5   0  277.47   31.30
  -3   5   0  253.07   41.30
  -4   5   0   84.59   23.80
  -4  -5   0  103.69   26.50
  -5  -5   0  225.58   41.60
  -5   5   0  284.17   37.80
  -5   5   0  187.18   53.69
  -6   5   0  462.85   52.59
  -6  -5   0  346.07   83.39
  -6   5   0  265.87   69.49
  -7   5   0  112.69   40.10
  -7  -5   0  103.99   28.50
  -7   5   0  115.59   30.10
  -8   5   0  -16.80   20.90
  -8  -5   0   39.70   32.00
  -8   5   0   33.30   34.10
   0  -6   0  946.31   58.69
   0   6   0  962.00   64.09
   0  -6   0  873.01   56.19
   1   6   0    6.40   13.70
   1  -6   0   10.70   12.30
  -1   6   0   24.60   11.80
  -2  -6   0   -3.80    6.60
   2  -6   0   -0.90    6.80
   2   6   0   -4.70    8.50
  -3   6   0   13.90   13.30
  -3  -6   0   26.90   13.20
  -4  -6   0  381.36   41.10
  -4   6   0  372.86   43.60
  -5  -6   0   23.40   12.40
  -5   6   0   11.30   11.00
  -5   6   0   11.20   17.70
  -6  -6   0   68.99   26.80
  -6   6   0   36.00   20.30
  -6   6   0   30.40   27.00
  -7   6   0   -4.90   13.70
  -7   6   0  -13.60   27.70
  -7  -6   0   15.30   16.60
  -8   6   0  102.69   47.00
   0   7   0   23.70   12.60
   0  -7   0    2.60    7.20
  -1  -7   0   54.79   17.20
   1   7   0   51.49   18.90
  -1   7   0   71.19   21.20
   2   7   0  451.55   49.30
  -2  -7   0  415.26   39.00
  -2   7   0  350.46   42.10
  -3   7   0   33.20   16.80
   3   7   0   20.40   12.30
   4   7   0   -5.90   10.20
  -4   7   0    7.00    9.20
  -4  -7   0    7.50   10.50
  -5   7   0  -31.60   13.10
  -5  -7   0    5.20   11.40
  -5   7   0   -4.30   12.70
  -6   7   0   85.09   26.40
  -6  -7   0   92.69   25.90
  -6   7   0   89.79   47.90
  -7   7   0   64.39   37.20
  -7  -7   0   35.50   20.10
  -7   7   0   47.30   25.90
  -8  -7   0   12.40   28.00
  -8   7   0   23.40   27.60
   0   8   0  968.80   73.09
   0  -8   0  836.02   58.39
  -1  -8   0    4.60    8.30
  -1   8   0   -6.50   10.70
   1   8   0  -12.70    8.20
  -2   8   0   -6.10   10.60
   2   8   0   23.50   13.20
  -2  -8   0    3.90    6.30
  -3   8   0   22.80   11.20
  -3  -8   0    7.90    9.40
   3   8   0   -9.40   11.00
   4   8   0  817.82   76.39
  -4   8   0  906.91   72.99
  -4  -8   0  922.21   65.99
  -5  -8   0   -8.40   10.30
  -5   8   0   -6.60   16.40
   5   8   0    6.90   15.50
  -5   8   0   -1.10   21.80
  -6   8   0   22.10   32.80
  -6  -8   0    3.10   14.10
  -6   8   0   -7.40   11.70
  -7   8   0    8.40   24.40
  -7  -8   0  -24.20   17.70
   0   9   0   14.90   11.60
  -1  -9   0  133.29   27.60
  -1   9   0  165.68   37.10
   1   9   0  200.08   41.00
   2   9   0  523.15   59.09
  -2  -9   0  476.55   46.20
  -2   9   0  538.05   56.49
  -3  -9   0   59.59   19.10
  -3   9   0   15.90   18.30
   3   9   0   54.59   26.20
   4   9   0   24.10   17.80
  -4   9   0   40.30   19.30
  -4  -9   0    9.30   16.50
   5   9   0   40.40   25.90
  -5  -9   0   36.80   20.60
  -5   9   0   55.79   19.80
  -6   9   0   30.90   29.20
  -6  -9   0  138.79   33.10
   6   9   0   60.89   35.80
  -6   9   0   69.39   47.10
  -7   9   0   38.80   32.80
  -7  -9   0    1.80   24.80
   0  10   0    6.60   16.80
   1  10   0  487.35   57.29
  -1  10   0  523.25  103.09
   2  10   0   10.70   14.70
  -2  10   0    6.50   16.20
  -2 -10   0    5.10   13.10
  -3 -10   0  235.68   39.40
   3  10   0  152.18   39.20
  -3  10   0  171.28   39.50
  -4 -10   0   13.60   14.30
   4  10   0   19.10   20.60
  -4  10   0   28.40   17.10
  -5  10   0   94.59   34.30
   5  10   0  174.18   49.20
  -5 -10   0  104.59   32.50
  -6 -10   0   -2.40   20.90
  -6  10   0  -30.60   28.60
   0  11   0   19.10   20.00
  -1  11   0  702.13   71.69
   1  11   0  638.84   70.79
  -2  11   0  106.59   34.70
   2  11   0  119.79   39.20
  -2 -11   0  154.58   35.00
  -3 -11   0  233.28   42.20
  -3  11   0  364.96   61.99
   3  11   0  382.76   72.29
  -4  11   0   20.40   27.00
  -4 -11   0  -17.70   15.80
   4  11   0  -35.80   22.50
  -5 -11   0  162.08   38.50
   0  12   0  131.29   44.40
   1  12   0  132.39   42.00
  -1  12   0  113.09   36.00
  -2  12   0   60.59   27.00
   2  12   0   18.70   25.30
   3  12   0  123.19   38.40
  -3  12   0   96.59   35.90
  -3 -12   0   45.90   27.90
  -4  12   0  138.59   36.20
  -4 -12   0  150.18   43.90
   0  13   0   -4.10   29.50
  -1  13   0   18.60   36.80
   1  13   0    9.10   33.00
   1   0   1    0.90    3.10
  -1   0  -1    2.80    1.90
   1   0   1   -0.30    1.80
  -1   0   1    0.40    2.30
   1   0  -1    1.10    1.90
  -1   0  -1    0.50    2.00
  -2   0   1    4.10    5.50
   2   0   1    2.00    5.70
   2   0   1    2.90    2.90
  -2   0  -1    0.30    2.40
  -2   0  -1   -1.80    3.00
   2   0  -1    3.40    4.30
   2   0  -1    3.90    2.60
   3   0   1   -0.80    4.60
   3   0  -1    7.60    5.10
  -3   0   1    3.60    7.50
  -3   0  -1   -1.40    3.90
   3   0   1    6.20    8.80
  -3   0  -1   -7.70    4.70
  -4   0  -1   -5.50    3.50
   4   0   1   -4.70   12.30
  -4   0  -1    5.40   10.50
   4   0  -1   -4.90    5.50
  -4   0   1   -6.50   18.10
   4   0  -1   -7.40   13.10
  -5   0   1    4.90   11.50
  -5   0  -1   11.40   11.60
  -6   0  -1    9.00   14.00
  -6   0   1   -4.50   12.20
  -7   0   1    3.60   20.10
  -7   0  -1    8.40   16.00
  -8   0  -1  -10.80   19.40
  -8   0   1   -6.00   17.00
  -9   0   1   53.69   31.40
  -9   0  -1  -37.70   24.60
   0  -1   1   -0.80    0.70
   0   1  -1    0.40    1.50
   0  -1   1   -0.40    0.70
   0   1  -1   -1.50    0.90
  -1  -1  -1   13.50    3.90
   1   1  -1   25.20    7.10
   1  -1   1   17.80    5.90
  -1   1   1   21.00    4.80
  -1   1  -1   22.40    6.30
  -1  -1   1   10.70    4.70
   1   1   1   15.80    4.60
  -1   1  -1   18.30    5.60
   1  -1  -1   15.60    4.10
  -2   1   1 4922.61  155.18
  -2  -1  -1 4951.40  132.79
   2   1  -1 4687.83  145.89
  -2   1   1 4923.31  121.09
   2  -1   1 5043.40  130.59
  -2   1  -1 4768.72  152.78
  -2   1  -1 4849.71  129.19
   2   1   1 4992.80  127.19
   2   1   1 5027.70  143.79
   2  -1  -1 4914.51  122.29
  -2  -1   1 4892.01  142.49
  -3  -1  -1   94.09   21.20
  -3   1   1  113.09   19.20
   3   1  -1  129.29   30.50
   3  -1   1   94.09   26.60
   3  -1   1  130.09   23.60
  -3   1   1   98.99   27.80
   3   1  -1   82.49   16.40
   3  -1  -1  116.79   19.10
  -3   1  -1  123.49   30.00
   3   1   1   96.19   26.20
  -3   1  -1   94.69   18.10
   3   1   1   88.79   17.80
   3  -1  -1   89.79   22.50
  -3  -1   1  125.59   28.40
  -4   1   1   33.10   18.50
   4   1  -1   30.50   12.60
   4  -1   1   17.80   10.90
  -4  -1  -1   36.10   16.10
  -4   1  -1   49.50   23.20
  -4  -1   1   15.30   16.80
  -4   1  -1   39.10   16.10
   4  -1  -1   25.00   18.70
   4   1   1   -6.30   11.70
   4  -1  -1   48.90   14.20
  -5  -1  -1   29.40   19.00
  -5   1   1   50.69   27.90
  -5   1  -1   49.10   22.70
  -5  -1   1   19.80   13.40
  -5   1  -1   52.69   19.30
  -6   1   1  905.41   93.39
  -6  -1  -1  840.22   78.29
  -6   1  -1  963.40   94.19
  -6  -1   1 1036.40   88.09
  -7   1   1   33.90   27.10
  -7  -1  -1   12.10   18.60
  -7   1  -1   33.00   23.60
  -7  -1   1   28.40   22.70
  -8   1   1   14.90   27.10
  -8  -1  -1  -20.20   19.90
  -8   1  -1   19.00   25.20
  -8  -1   1   -4.70   17.00
  -9   1   1  -47.00   22.80
  -9  -1  -1   25.80   30.30
  -9   1  -1   34.80   29.60
  -9  -1   1   -4.00   25.50
   0  -2   1 2451.55   73.19
   0   2  -1 2505.85   74.79
   0  -2  -1 2458.15   59.89
   0   2   1 2467.95   62.19
   0   2   1 2444.96   63.69
   0   2  -1 2526.55   69.39
   0  -2   1 2536.25   68.39
  -1   2   1   -1.10    2.00
   1  -2   1    2.30    2.90
   1  -2   1    3.70    3.30
  -1  -2  -1    4.60    2.60
   1   2  -1   -1.70    2.80
  -1  -2   1    3.20    2.50
   1   2   1    2.70    3.10
  -1   2  -1    3.40    2.30
  -1   2  -1   -0.90    2.70
   2   2  -1    3.00    5.50
  -2  -2  -1    5.80    4.10
   2  -2   1   -0.80    2.60
  -2   2   1   -0.70    2.40
   2  -2  -1    2.20    3.80
  -2  -2   1    6.50    4.90
   2   2   1   14.40    7.60
  -2   2  -1   10.00    6.00
   3  -2   1    2.00    5.70
  -3   2   1   -5.60    5.20
  -3  -2  -1    4.90    6.70
  -3   2   1   12.50    7.80
   3   2  -1    6.90    9.90
   3   2   1    6.10    7.50
  -3  -2   1    6.60    6.40
  -3   2  -1   20.00   10.90
   3  -2  -1   12.00    9.10
   3   2   1   24.10   12.50
  -3   2  -1    5.20    6.80
  -4   2   1 1532.05  108.19
  -4   2   1 1605.64   76.99
  -4  -2  -1 1606.64   86.69
  -4   2  -1 1613.24   84.29
  -4  -2   1 1782.22   98.59
   4  -2  -1 1546.35   78.19
  -4   2  -1 1639.54  110.89
  -5   2   1  -17.70    7.90
  -5   2   1    3.00    7.20
  -5  -2  -1    7.60   11.20
  -5  -2   1    2.00    7.50
  -5   2  -1   -2.40    9.20
  -5   2  -1   -3.80    8.40
  -6  -2  -1   23.90   18.00
  -6   2   1   44.10   27.60
  -6   2  -1   10.00   10.80
  -6  -2   1   27.10   21.10
  -6   2  -1   48.90   18.60
  -7   2   1    4.30   19.30
  -7  -2  -1   17.00   20.40
  -7  -2   1   11.80   14.10
  -7   2  -1  -11.60   25.90
  -8  -2  -1  278.57   56.49
  -8   2   1  391.36   85.89
  -8  -2   1  225.48   56.49
  -8   2  -1  397.06   81.49
  -9  -2  -1    1.30   24.30
  -9   2   1   32.80   42.70
  -9   2  -1    8.70   33.90
  -9  -2   1  -44.50   25.00
   0   3   1    3.50    2.60
   0  -3  -1    4.30    2.50
   0   3   1    2.50    2.40
   0  -3   1    3.40    3.10
   0  -3   1    4.00    3.70
   0   3  -1   -1.00    1.90
   0   3  -1   -0.20    2.70
   0  -3  -1    1.20    2.10
   1   3  -1 2422.66   83.79
  -1  -3  -1 2489.75   71.09
   1  -3   1 2497.85   79.79
  -1   3   1 2523.65   78.39
   1  -3   1 2464.35   87.29
   1   3  -1 2558.34   84.99
  -1   3   1 2505.85   76.49
   1   3   1 2416.56   76.99
   1  -3  -1 2363.16   76.59
  -1   3  -1 2441.86   87.59
  -1  -3   1 2614.44   82.49
  -2  -3  -1  377.56   27.90
   2  -3   1  377.86   34.10
  -2   3   1  441.36   30.50
   2   3  -1  391.56   35.70
  -2  -3   1  382.76   32.70
   2  -3  -1  408.26   31.20
  -2   3  -1  402.16   34.60
   2   3   1  407.56   34.00
  -2   3  -1  418.76   30.80
   3  -3   1  969.30   60.59
  -3   3   1  991.70   54.19
   3   3  -1  902.61   66.19
  -3  -3  -1 1063.49   56.69
  -3   3   1  940.21   75.79
  -3  -3   1 1105.89   64.89
   3  -3  -1 1011.60   57.59
  -3   3  -1  938.61   76.19
   3   3   1 1055.39   68.29
  -3   3  -1 1065.69   61.19
  -4  -3  -1   69.89   25.70
  -4   3   1   42.40   18.60
  -4   3   1   83.89   21.10
   4  -3  -1   70.39   19.40
  -4  -3   1   57.99   23.50
  -4   3  -1   37.50   16.30
  -4   3  -1   48.10   26.90
  -5   3   1  643.34   52.79
  -5   3   1  547.35   70.89
  -5  -3  -1  621.24   57.09
  -5   3  -1  522.35   71.79
  -5   3  -1  557.04   53.19
  -5  -3   1  643.64   62.79
  -6   3   1  209.78   57.49
  -6  -3  -1  129.19   34.50
  -6   3   1   94.29   25.80
  -6   3  -1   94.09   29.30
  -6   3  -1   63.99   34.70
  -6  -3   1  122.79   36.10
  -7  -3  -1  138.39   35.90
  -7   3   1  128.09   39.20
  -7  -3   1  144.99   38.20
  -7   3  -1  142.99   45.60
  -7   3  -1  110.99   30.20
  -8   3   1   -1.30   27.30
  -8  -3  -1   29.00   19.30
  -8   3  -1   73.99   41.40
  -8  -3   1   45.10   24.50
  -9  -3  -1   41.60   33.70
  -9  -3   1  107.79   43.60
   0  -4  -1  406.66   26.20
   0   4  -1  382.26   30.20
   0  -4   1  390.26   29.40
   0   4   1  389.56   27.80
   0   4   1  348.97   28.50
   0   4  -1  419.96   34.50
   0  -4   1  383.06   31.30
   1  -4   1 4873.61  135.59
   1  -4   1 4878.01  144.79
  -1  -4  -1 4866.81  123.99
  -1   4   1 4961.50  135.89
   1   4  -1 4817.32  142.29
   1   4  -1 4956.10  144.59
  -1   4   1 4913.71  131.99
   1   4   1 4926.11  137.09
  -1   4  -1 4813.42  135.09
   1  -4  -1 5083.39  133.69
  -1   4  -1 4839.82  147.69
   1   4   1 4937.21  134.59
  -1  -4   1 4965.80  136.49
  -2   4   1   10.40    7.10
  -2  -4  -1   22.40    8.00
   2  -4   1   17.50    9.60
  -2   4   1   12.90    6.40
   2   4  -1   24.80   11.40
  -2   4  -1   14.30    6.80
  -2   4  -1   19.20    9.40
   2   4   1   12.80   11.90
   2  -4  -1   26.90   11.20
  -2  -4   1   13.70    8.10
   3  -4   1 3521.65  134.59
  -3   4   1 3476.35  118.29
  -3  -4  -1 3728.63  119.39
   3  -4  -1 3229.18  147.09
   3   4   1 3472.85  139.49
  -3   4  -1 3691.83  131.99
  -3  -4   1 3389.16  134.09
  -4   4   1  129.49   37.30
  -4  -4  -1  163.38   29.90
  -4   4   1  181.48   33.40
  -4   4  -1  178.28   32.30
  -4   4  -1  177.88   48.80
  -4  -4   1  253.07   34.30
  -5   4   1 1342.87   82.69
  -5   4   1 1133.19  110.39
  -5  -4  -1 1360.96   82.39
  -5  -4   1 1304.07   88.99
  -5   4  -1 1340.77   85.59
  -5   4  -1 1516.05  125.49
  -6   4   1   39.10   20.40
  -6  -4  -1   97.49   26.80
  -6   4   1   59.99   33.30
  -6   4  -1   44.10   33.60
  -6  -4   1   26.60   20.20
  -6   4  -1   38.30   19.00
  -7  -4  -1  756.52   71.19
  -7   4   1  798.82   71.39
  -7   4   1  831.42  103.89
  -7   4  -1  814.82   76.69
  -7  -4   1  877.11   81.29
  -7   4  -1  749.62   99.89
  -8   4   1  -30.20   34.50
  -8  -4  -1   33.20   23.80
  -8   4  -1   15.90   22.00
  -8  -4   1   21.90   21.80
  -8   4  -1  -38.60   48.30
  -9  -4  -1   59.19   30.40
   0   5  -1    3.90    4.70
   0   5   1   -3.70    4.70
   0  -5   1   -5.10    4.60
   0  -5   1   -2.00    3.60
   0   5   1   -5.60    4.20
   0   5  -1    0.10    3.20
   0  -5  -1    0.30    3.30
   1  -5   1 1846.82   84.69
   1  -5   1 1869.11   78.89
  -1  -5  -1 1851.91   70.19
  -1   5   1 1912.11   81.49
   1   5  -1 1951.40   88.09
  -1   5   1 1903.01   77.29
   1   5   1 1918.61   80.19
  -1   5  -1 1885.51   89.09
  -1  -5   1 1896.21   78.09
  -1   5  -1 1818.72   78.79
   1   5   1 1918.21   81.79
   1  -5  -1 1883.41   76.99
  -2   5   1 1196.98   63.79
   2  -5   1 1144.59   70.89
  -2  -5  -1 1138.19   56.19
   2   5  -1 1085.49   66.99
  -2   5  -1 1200.38   71.29
   2   5   1 1095.89   65.89
   2  -5  -1 1199.88   64.79
  -3   5   1 1031.90   61.19
  -3  -5  -1  897.41   56.19
  -3  -5   1  993.50   62.89
   3  -5  -1  950.60   63.69
  -3   5  -1 1012.30   68.19
  -4   5   1   64.19   19.00
  -4  -5  -1   52.59   18.50
  -4  -5   1   29.90   14.90
  -4   5  -1   29.40   14.40
  -5  -5  -1  838.82   63.19
  -5   5   1  819.72   63.79
  -5   5   1  742.93   91.49
  -5   5  -1  872.41   97.09
  -5  -5   1  856.11   69.99
  -5   5  -1  819.92   68.09
  -6   5   1  247.18   42.50
  -6  -5  -1  366.06   45.50
  -6   5   1  267.67   67.29
  -6  -5   1  337.87   45.60
  -6   5  -1  270.27   64.09
  -6   5  -1  288.47   57.99
  -7   5   1  222.58   66.29
  -7   5   1  112.49   33.40
  -7  -5  -1  151.28   35.70
  -7   5  -1  117.69   36.10
  -7  -5   1  164.18   43.00
  -7   5  -1   98.09   40.10
  -8   5   1   -7.40   38.50
  -8  -5  -1   29.40   24.60
  -8   5  -1    9.30   23.50
  -8   5  -1    5.90   22.30
  -8  -5   1   -1.50   34.00
  -9  -5  -1   81.59   42.10
   0  -6   1 4691.13  143.09
   0  -6  -1 4560.54  132.79
   0   6  -1 4203.18  163.18
   0   6   1 4599.44  149.69
  -1  -6  -1  184.38   22.10
  -1   6   1  201.98   33.20
   1  -6   1  212.08   25.90
   1   6  -1  211.08   35.80
  -1   6  -1  155.38   32.70
   1  -6  -1  156.98   26.80
   1   6   1  156.98   29.30
  -1  -6   1  174.98   24.10
  -2  -6  -1   11.50    7.50
   2   6  -1   16.90    9.20
  -2   6   1   19.60   10.00
   2   6   1   -0.80    7.30
   2  -6  -1   21.40   12.00
  -2  -6   1    9.20    7.90
  -2   6  -1   11.40   10.10
  -3  -6  -1  273.17   30.50
  -3   6   1  300.77   35.70
   3   6  -1  281.07   46.20
  -3   6  -1  215.38   42.00
  -3  -6   1  291.97   34.70
  -4  -6  -1 2229.68   98.79
  -4   6   1 2101.59  104.09
  -4  -6   1 2237.88  108.59
  -4   6  -1 2170.68  113.19
  -5   6   1   -8.60   16.30
  -5  -6  -1   -5.30    7.10
  -5   6   1    8.70   10.60
  -5   6  -1   18.30   13.80
  -5  -6   1   17.80   11.70
  -5   6  -1   11.10   16.90
  -6   6   1   77.99   29.30
  -6   6   1   29.50   16.90
  -6   6  -1   23.20   17.70
  -6   6  -1   49.30   29.00
  -6  -6   1   -4.30   11.10
  -7   6   1   56.89   26.30
  -7  -6  -1   85.59   29.60
  -7   6   1   34.50   40.70
  -7   6  -1   93.59   35.00
  -7   6  -1   33.10   41.70
  -7  -6   1   73.69   29.40
  -8   6   1  306.47   57.09
  -8  -6  -1  405.56   62.59
  -8  -6   1  323.97   59.39
   0   7   1   -3.00    6.20
   0   7  -1    2.70    7.30
   0  -7   1   -0.50    6.40
   1   7  -1  217.18   40.20
  -1  -7  -1  190.58   24.40
  -1   7   1  218.48   37.90
  -1   7  -1  164.88   34.00
   1   7   1  207.08   35.40
  -1  -7   1  222.38   29.40
   2   7  -1 3894.21  158.58
  -2   7   1 3769.82  142.99
  -2  -7  -1 3978.50  129.79
  -2  -7   1 3610.14  135.29
   2   7   1 3894.71  151.78
  -2   7  -1 3775.92  154.88
  -3  -7  -1   86.39   22.10
  -3   7   1   75.79   20.20
   3   7  -1  113.39   31.00
   3   7   1   78.09   24.20
  -3   7  -1  150.18   35.30
  -3  -7   1   90.99   21.00
  -4   7   1   16.90   14.40
  -4  -7  -1   -3.60    9.30
  -4  -7   1   11.40    9.00
  -4   7  -1   16.10   10.40
  -5   7   1  154.98   52.19
  -5  -7  -1  248.08   39.50
  -5   7   1  282.47   47.30
  -5   7  -1  261.27   62.29
  -5  -7   1  220.28   42.40
  -6  -7  -1 1203.88   81.49
  -6   7   1 1377.76  140.99
  -6   7   1 1189.78   87.69
  -6   7  -1 1002.70  122.69
  -6  -7   1 1120.79   85.89
  -6   7  -1 1075.09   87.69
  -7   7   1  -25.60   18.30
  -7  -7  -1  -12.90   14.90
  -7  -7   1  -12.20   17.60
  -7   7  -1  -10.30   27.30
  -7   7  -1  -38.70   22.00
  -8   7   1   52.79   26.40
  -8   7  -1   17.80   25.80
  -8  -7   1   57.89   33.30
   0   8  -1 1159.68   83.59
   0  -8   1 1053.59   68.99
   0   8   1 1066.49   75.99
   1   8  -1  424.66   49.50
  -1  -8  -1  475.35   41.60
  -1   8   1  459.05   48.30
  -1   8  -1  402.26   60.59
   1   8   1  414.26   47.90
  -1  -8   1  504.35   45.90
  -2  -8  -1   37.30   14.50
   2   8  -1    7.50    9.50
  -2   8   1    5.90   10.40
   2   8   1   26.00   14.00
  -2  -8   1    3.80    7.70
  -2   8  -1    7.80   12.80
  -3   8   1  495.65   52.09
  -3  -8  -1  615.54   49.70
   3   8  -1  623.84   75.99
   3   8   1  533.15   56.99
  -3  -8   1  549.45   51.99
  -3   8  -1  522.95   57.89
  -4  -8  -1  471.95   46.40
  -4   8   1  513.45   51.39
   4   8  -1  372.76   62.09
  -4   8  -1  522.45   56.59
   4   8   1  486.75   58.29
  -4  -8   1  525.45   51.59
   5   8  -1  133.49   37.80
  -5   8   1   77.79   44.00
  -5   8   1   91.49   28.50
   5   8   1  108.29   31.30
  -5  -8   1   63.39   23.00
  -5   8  -1  128.09   49.60
  -5   8  -1   85.79   29.20
  -6  -8  -1   35.30   19.50
  -6   8   1   49.10   20.10
  -6   8   1   58.49   38.70
  -6   8  -1   37.70   33.40
  -6  -8   1    7.90   14.20
  -6   8  -1   -1.20   19.10
  -7   8   1  164.68   40.90
  -7  -8  -1  135.79   36.10
  -7   8  -1  158.68   47.10
  -7  -8   1  162.58   40.70
   0  -9   1   10.20   10.90
   0   9  -1   -8.70    7.50
   0   9   1   10.20   12.50
  -1  -9  -1  691.23   52.59
   1   9  -1  757.12   71.39
  -1   9   1  523.65   56.29
   1   9   1  686.93   62.29
  -1   9  -1  660.63   65.49
  -1  -9   1  666.73   55.49
  -2   9   1   26.50   16.20
  -2  -9  -1   25.40   11.80
   2   9  -1   39.20   23.30
  -2  -9   1   30.70   13.10
  -2   9  -1   44.80   18.90
   2   9   1   34.70   19.70
   3   9  -1  339.37   59.79
  -3   9   1  453.85   49.99
  -3  -9  -1  419.96   44.10
   3   9   1  411.36   64.49
  -3  -9   1  423.36   47.20
   4   9  -1    2.70   19.00
  -4  -9  -1    9.70   13.80
  -4   9   1  -14.30   10.00
  -4   9  -1  -19.50   11.30
   4   9   1    8.40   21.30
  -4  -9   1   16.10   13.70
   5   9  -1  438.96   73.39
  -5   9   1  421.76   52.49
  -5  -9  -1  409.56   47.20
  -5   9  -1  445.06   56.89
  -5  -9   1  353.36   47.00
   5   9   1  409.96   69.19
   6   9  -1   23.30   27.90
  -6   9   1    6.60   38.20
  -6   9   1  -12.70   18.90
  -6  -9  -1   13.30   17.00
  -6   9  -1   12.80   23.00
  -6   9  -1    8.40   34.00
   6   9   1    8.40   19.60
  -6  -9   1    8.10   18.50
  -7   9   1   11.10   32.50
  -7  -9  -1   53.99   29.70
  -7   9  -1   75.49   28.40
  -7  -9   1   54.89   32.00
   0  10  -1   28.80   22.40
   0  10   1   83.29   25.50
   1  10  -1  239.88   48.90
  -1  10   1  329.67   43.90
  -1  10  -1  282.07   50.19
  -1 -10   1  216.28   40.80
  -2  10   1   50.89   17.30
  -2 -10  -1   15.10   10.10
  -2 -10   1   -2.30    8.80
  -2  10  -1   -2.50   13.50
   2  10   1    4.20   15.70
   3  10  -1  243.38   54.19
  -3 -10  -1  291.87   69.59
  -3  10  -1  273.37   51.89
   3  10   1  263.27   48.90
  -3 -10   1  241.88   45.30
  -4 -10  -1    0.80   16.90
  -4  10   1   38.80   16.90
   4  10  -1   33.20   27.30
  -4  10  -1    4.70   18.80
  -4 -10   1   32.70   17.90
   4  10   1  110.69   40.40
  -5 -10  -1   88.19   25.20
  -5  10   1   84.59   32.40
   5  10  -1   23.00   31.70
  -5  10  -1   32.30   22.80
   5  10   1  134.29   43.10
  -5 -10   1   76.09   22.70
  -6  10   1    7.00   25.00
  -6 -10  -1   31.90   26.50
  -6 -10   1   -1.90   24.70
  -6  10  -1   63.59   29.40
   0  11   1  -31.70   15.50
   0  11  -1  -31.70   16.00
  -1  11   1   21.10   24.40
   1  11  -1  -24.50   15.90
  -1  11  -1   25.80   22.20
  -1 -11   1    8.10   15.00
   1  11   1   -2.60   17.70
  -2  11   1  103.79   30.70
   2  11  -1  100.59   31.60
   2  11   1  183.68   42.00
  -2  11  -1  269.37   52.19
  -2 -11   1   89.79   30.20
  -3 -11  -1  -18.40   15.10
  -3  11   1    0.30   17.40
   3  11  -1   28.60   31.30
  -3  11  -1   13.70   22.60
  -3 -11   1   16.30   17.60
   3  11   1    1.90   23.10
  -4 -11  -1    9.90   19.10
  -4  11   1   15.70   20.40
   4  11  -1  -11.50   22.30
  -4  11  -1   22.60   25.50
  -4 -11   1    4.90   18.30
   4  11   1   23.20   26.90
  -5 -11  -1    3.50   27.00
  -5  11   1   -3.60   24.70
  -5  11  -1   -5.20   25.40
  -5 -11   1   -4.40   21.10
   0  12  -1  123.09   39.00
   0  12   1  123.79   33.20
  -1  12   1   28.90   27.30
  -1  12  -1   75.09   33.20
   1  12   1  -10.50   23.50
  -2  12   1  -10.10   21.00
   2  12  -1   38.40   24.20
  -2 -12   1   29.60   21.70
   2  12   1    9.50   23.90
  -2  12  -1   32.90   25.60
  -3  12   1   21.70   27.80
   3  12  -1   33.10   29.90
   3  12   1   38.50   29.40
  -3  12  -1    7.80   25.90
  -4  12   1   -1.00   27.50
  -4 -12   1   70.49   28.70
  -4  12  -1   12.90   30.00
   0  13  -1  -19.70   26.90
   0  13   1   -0.20   31.70
  -1  13   1  -45.30   40.70
  -1  13  -1   25.50   30.50
   1  13   1  -34.50   27.00
   0   0   2 4835.32  102.49
   0   0  -2 5078.99  103.09
  -1   0   2  871.51   41.10
   1   0   2  845.52   37.60
   1   0   2  862.71   35.40
  -1   0  -2  905.11   34.90
  -1   0  -2  954.40   27.10
   1   0  -2  911.01   41.40
  -2   0   2   11.90    7.00
   2   0   2    3.60    3.60
   2   0   2   16.90    8.50
  -2   0  -2    3.70    3.00
  -2   0  -2    3.70    4.80
  -3   0  -2  176.68   31.90
   3   0   2  199.88   37.20
   3   0  -2  185.78   21.10
   3   0  -2  176.48   35.30
  -3   0   2  162.38   31.50
  -3   0  -2  121.89   21.70
   3   0   2  172.88   22.00
   4   0   2 6445.66  235.88
   4   0  -2 6311.67  233.38
  -4   0   2 6724.03  231.98
  -4   0  -2 6624.54  195.08
  -4   0  -2 6622.94  215.98
   4   0  -2 6735.83  188.88
  -5   0   2  -18.30   10.60
  -5   0  -2    0.90   10.80
  -5   0  -2    9.30    6.40
  -6   0   2   88.39   31.00
  -6   0  -2  108.09   31.40
  -7   0   2   51.89   29.00
  -7   0  -2   51.99   27.30
  -8   0   2 1010.90  107.59
  -8   0  -2 1066.49  103.39
  -9   0  -2   18.90   33.10
  -9   0   2  -16.40   31.60
   0   1  -2    2.50    2.30
   0   1  -2   -1.90    1.40
   0  -1   2   -0.80    1.00
   1  -1   2 2744.83   80.79
   1   1  -2 2666.43   81.69
   1  -1   2 2622.54   69.59
  -1  -1  -2 2325.37   80.29
   1  -1  -2 2776.82   61.09
   1   1   2 2490.65   82.09
   1   1   2 2630.74   64.99
  -1  -1   2 2730.63   82.39
  -1   1  -2 2841.42   69.79
  -1   1  -2 2776.12   81.19
   2   1  -2 8266.97  219.88
  -2  -1  -2 8811.72  197.98
  -2   1   2 8643.44  227.88
   2  -1   2 8474.25  201.88
  -2  -1  -2 8476.25  191.18
  -2   1  -2 8779.52  226.18
   2   1   2 8279.67  206.98
  -2   1  -2 8388.96  201.18
   2  -1  -2 8409.06  183.98
  -2  -1   2 8587.14  216.18
   2   1   2 8863.91  197.18
  -3  -1  -2 1315.67   66.49
   3  -1   2 1202.28   63.99
   3   1  -2 1256.97   79.99
   3  -1   2 1312.77   81.59
  -3   1   2 1323.37   84.09
  -3   1  -2 1134.29   75.49
   3   1   2 1270.77   62.69
  -3   1  -2 1221.88   63.79
   3   1   2 1200.78   74.49
   3  -1  -2 1254.57   78.09
   3  -1  -2 1322.67   58.79
  -4  -1  -2  348.27   39.20
   4   1  -2  427.66   39.80
  -4   1   2  412.66   51.09
  -4  -1   2  460.35   51.39
  -4   1  -2  324.17   35.60
   4  -1  -2  396.66   36.50
   4   1   2  420.06   49.99
   4  -1  -2  444.96   52.69
  -4   1  -2  408.96   50.59
  -5   1   2  762.12   79.99
  -5  -1  -2  691.03   62.79
  -5   1  -2  778.22   62.29
  -5   1  -2  842.72   77.89
  -5  -1   2  750.72   73.79
  -6  -1  -2 1232.08   92.49
  -6   1   2 1133.49  106.99
  -6   1  -2 1282.17   88.19
  -6  -1   2 1266.57  102.89
  -6   1  -2 1342.57  107.79
  -7  -1  -2  136.19   48.70
  -7   1   2  194.48   53.59
  -7   1  -2  179.58   46.40
  -7  -1   2  168.08   44.10
  -8   1   2    7.40   25.40
  -8  -1  -2   18.00   17.10
  -8   1  -2   18.60   17.90
  -8  -1   2    8.20   25.90
  -9  -1  -2   62.39   43.30
  -9   1   2   68.49   40.50
  -9  -1   2  104.99   46.80
  -9   1  -2  105.09   47.30
   0  -2   2    0.10    2.20
   0   2   2    4.80    1.80
   0   2  -2    0.80    2.50
   0  -2   2   -2.90    1.90
   0   2  -2    8.10    3.80
  -1   2   2 5447.46  112.89
   1   2  -2 5760.22  136.89
   1   2  -2 5531.85  140.19
  -1  -2  -2 5339.97  107.79
   1  -2   2 5415.66  141.79
   1  -2   2 5501.35  128.99
   1  -2  -2 5251.67  114.39
   1   2   2 4579.34  142.59
  -1   2  -2 5284.37  126.19
  -1  -2   2 5467.65  136.59
  -1   2  -2 5366.26  141.89
  -2  -2  -2   18.80    6.10
   2  -2   2   12.70    9.70
   2   2  -2   22.90   10.70
  -2   2   2   15.00    6.00
   2  -2  -2   11.20    4.90
  -2   2  -2   25.60    8.10
  -2  -2   2   19.20    8.40
   2   2   2   11.90    7.00
  -2   2  -2   28.30   10.00
   2   2   2    9.90    5.70
  -3   2   2 3214.38  142.19
   3  -2   2 2956.40  112.09
  -3  -2  -2 2930.71  101.69
  -3   2   2 3115.79   97.39
   3   2  -2 2907.81  128.29
   3   2   2 3048.29  123.29
  -3   2  -2 3189.18  140.19
   3   2   2 3000.40  105.69
  -3   2  -2 3154.38  115.19
   3  -2  -2 3118.29  100.79
  -3  -2   2 2979.60  122.09
  -4   2   2  505.65   40.60
  -4   2   2  482.45   58.89
  -4  -2  -2  511.65   44.90
  -4  -2   2  438.96   49.60
  -4   2  -2  529.55   46.60
  -4   2  -2  421.46   53.59
   4  -2  -2  461.35   39.50
  -5   2   2  768.62   83.59
  -5  -2  -2  700.93   60.09
  -5  -2   2  776.32   72.19
  -5   2  -2  669.83   59.29
  -5   2  -2  613.64   72.59
  -6   2   2   17.30   16.90
  -6  -2  -2   67.59   23.90
  -6  -2   2   30.50   17.00
  -6   2  -2   41.10   24.10
  -6   2  -2   35.20   18.20
  -7   2   2  609.14  102.99
  -7  -2   2  639.64   75.39
  -7   2  -2  607.34   83.89
  -7   2  -2  618.54   66.49
  -8   2   2   49.80   30.10
  -8  -2  -2   14.50   27.30
  -8   2  -2   22.10   30.90
  -8  -2   2   52.29   33.50
  -9  -2   2   27.70   36.20
  -9   2  -2  154.38   54.29
   0   3   2    3.40    2.00
   0   3  -2    4.10    4.40
   0  -3   2   -2.20    1.70
   0   3   2    0.60    2.90
   0  -3   2    5.00    4.40
   0   3  -2   -0.30    4.60
  -1  -3  -2 2943.31   72.99
   1   3  -2 2927.51   96.99
   1  -3   2 2930.31   90.79
   1   3  -2 2739.43   96.09
   1  -3   2 2821.32  100.99
  -1   3  -2 3151.88  105.79
  -1  -3   2 3051.49   96.19
   1   3   2 3014.70   83.79
   1  -3  -2 2873.61   78.59
  -1   3  -2 2984.30   89.49
   2  -3   2  492.95   40.30
  -2   3   2  502.65   30.10
   2   3  -2  523.55   42.80
  -2  -3  -2  490.15   28.50
  -2   3  -2  527.25   34.90
   2  -3  -2  488.95   32.50
   2   3   2  503.25   36.40
  -2   3  -2  529.55   41.40
  -2  -3   2  455.55   37.50
  -3   3   2 2437.66   86.09
   3  -3   2 2385.66  103.39
  -3  -3  -2 2305.17   84.59
  -3   3   2 2558.94  128.29
   3   3  -2 2273.97  112.19
   3   3   2 2267.57  103.39
   3  -3  -2 2329.87   89.59
  -3   3  -2 2270.77   99.69
  -3  -3   2 2508.05  107.59
  -3   3  -2 2446.96   91.39
   3   3   2 2492.95   96.99
  -3   3  -2 2415.46  125.99
  -4   3   2   66.39   18.50
  -4  -3  -2   46.20   15.70
  -4   3   2    2.50   19.20
  -4   3  -2   36.20   15.90
   4  -3  -2   53.89   18.20
  -4   3  -2   -0.20   14.20
  -4  -3   2   81.19   26.20
  -5   3   2 1920.11   93.89
  -5   3   2 1839.52  135.69
  -5  -3  -2 1864.11   96.49
  -5  -3   2 1912.41  114.09
  -5   3  -2 1982.10  136.09
  -5   3  -2 1911.01  103.39
  -6   3   2   -3.10   20.00
  -6  -3  -2   17.00   13.00
  -6   3  -2   28.80   16.30
  -6   3  -2   20.30   18.70
  -6  -3   2  -10.10   13.10
  -7  -3  -2  433.96   57.39
  -7   3   2  293.17   72.49
  -7   3  -2  330.97   59.49
  -7   3  -2  387.06   74.79
  -7  -3   2  368.46   65.79
  -8  -3  -2   10.60   25.20
  -8   3   2  -27.10   37.30
  -8   3  -2   19.40   25.80
  -8  -3   2   42.10   25.90
  -9  -3  -2   92.69   39.40
  -9   3  -2  157.88   73.49
   0   4   2  908.31   43.80
   0   4  -2  897.91   54.59
   0  -4   2  851.91   51.49
   0  -4   2  883.21   47.70
   0   4   2  842.92   41.50
   1   4  -2  249.28   45.90
  -1  -4  -2  273.17   19.80
  -1   4   2  290.07   24.20
   1  -4   2  304.17   31.40
   1  -4   2  300.27   27.30
   1   4  -2  298.67   30.80
  -1   4   2  286.47   24.50
   1  -4  -2  288.17   22.60
  -1  -4   2  296.37   28.10
   1   4   2  324.37   25.90
  -1   4  -2  271.77   31.10
   2   4  -2   -0.90    6.00
   2   4  -2    9.60    7.10
  -2  -4  -2    6.40    4.60
   2  -4   2   15.50    9.70
  -2   4   2    5.40    5.50
  -2  -4   2   20.20    9.50
  -2   4  -2   17.40    9.70
   2  -4  -2    6.90    6.80
   2   4   2   13.90   10.20
  -2   4  -2    3.80    4.50
  -3  -4  -2  419.96   32.80
  -3   4   2  439.46   35.40
   3   4   2  390.76   42.80
  -3  -4   2  418.36   41.50
  -3   4  -2  380.56   40.50
   3  -4  -2  447.86   39.70
  -4   4   2  555.64   43.70
  -4   4   2  559.04   65.79
  -4   4  -2  460.25   61.79
  -4  -4   2  538.65   52.89
   4  -4  -2  496.35   45.40
  -4   4  -2  469.95   48.30
  -5  -4  -2    2.50    8.60
  -5   4   2   10.50   10.50
  -5   4   2   16.30   18.40
  -5   4  -2   13.70   11.70
  -5  -4   2   14.80   11.20
  -6   4   2  -15.00   14.10
  -6   4   2  -12.60    6.80
  -6   4  -2    5.50   18.00
  -6  -4   2    2.70   14.40
  -7  -4  -2   46.30   21.50
  -7   4   2   60.99   34.20
  -7   4  -2   41.10   19.10
  -7   4  -2   91.09   42.10
  -7  -4   2   14.50   22.20
  -8  -4  -2   45.90   28.50
  -8   4   2  111.19   44.80
  -8  -4   2   55.39   31.70
  -8   4  -2   80.19   31.10
  -9  -4  -2  -54.09   23.30
   0  -5   2   -1.50    5.10
   0   5  -2    9.40    7.60
   0   5   2   -1.90    4.50
   0   5   2   -6.10    3.30
   0  -5   2    4.50    5.00
   0   5  -2   -2.50    5.00
   1   5  -2  302.77   34.10
   1  -5   2  281.77   33.50
  -1   5   2  322.17   29.00
   1   5  -2  304.47   34.40
  -1   5   2  341.47   29.20
   1  -5   2  303.87   37.20
  -1  -5  -2  317.07   24.10
   1   5   2  325.87   30.00
  -1   5  -2  347.27   37.10
   1   5   2  278.37   29.40
  -1   5  -2  284.67   30.80
   1  -5  -2  317.67   27.30
  -1  -5   2  316.17   31.70
   2   5  -2 3345.47  126.79
  -2  -5  -2 3092.89   95.89
  -2   5   2 3083.89  113.29
  -2   5   2 3259.97  108.89
   2  -5  -2 3242.38  108.19
   2   5   2 3085.39  115.59
  -2   5  -2 3192.08  146.79
  -2  -5   2 3210.38  118.59
  -3   5   2   49.99   14.70
  -3  -5  -2   63.49   15.50
  -3  -5   2   57.29   19.90
   3  -5  -2   57.59   17.70
  -3   5  -2   88.39   25.30
  -4   5   2   -2.20   12.60
  -4  -5  -2    3.60    6.90
  -4   5   2   -9.30    6.50
  -4  -5   2    3.20    7.50
  -4   5  -2   17.40   15.70
  -4   5  -2    9.50    8.40
  -5   5   2   18.40   11.40
  -5  -5  -2    4.40    9.60
  -5   5   2  -18.20   15.10
  -5  -5   2   10.00    8.30
  -5   5  -2   -8.90    7.40
  -5   5  -2   23.30   21.60
  -6   5   2  659.13   91.39
  -6  -5  -2  587.44   53.79
  -6   5   2  537.55   54.59
  -6   5  -2  677.63   89.19
  -6  -5   2  712.13   70.29
  -6   5  -2  556.94   61.69
  -7   5   2   28.00   19.20
  -7  -5  -2   15.90   16.10
  -7   5   2   58.19   32.40
  -7  -5   2   36.10   22.90
  -7   5  -2  -11.30   26.40
  -7   5  -2   18.00   20.20
  -8   5   2   39.80   36.50
  -8  -5  -2   14.00   25.00
  -8   5  -2   12.90   22.30
  -8  -5   2   -1.30   20.00
  -9  -5  -2  -28.10   30.00
   0   6  -2  409.36   44.30
   0   6   2  395.36   36.20
   0  -6   2  438.06   39.30
  -1   6   2  199.08   32.50
  -1  -6  -2  150.38   18.90
   1   6  -2   98.39   23.60
   1  -6   2  142.39   25.50
  -1  -6   2  183.98   25.50
  -1   6  -2  191.38   36.30
   1   6   2  203.98   27.00
   1  -6  -2  143.89   24.70
  -2   6   2    9.20    9.10
   2   6  -2   10.50    9.70
   2  -6  -2   -3.10    9.00
  -2  -6   2    3.90    6.60
  -2   6  -2   14.60   10.40
   2   6   2   -3.90    7.30
  -3   6   2   91.69   19.90
   3   6  -2   77.39   21.20
   3  -6  -2   54.59   19.30
  -3   6  -2   82.29   24.70
  -3  -6   2   76.39   22.30
  -4  -6  -2  283.07   31.30
  -4   6   2  260.37   34.10
  -4   6  -2  309.77   39.70
  -4  -6   2  300.37   40.20
  -5   6   2  223.38   39.10
  -5  -6  -2  283.57   33.60
  -5   6   2  262.57   59.49
  -5   6  -2  242.38   46.00
  -5  -6   2  310.57   67.59
  -5   6  -2  244.88   60.59
  -6   6   2   -5.20   16.50
  -6   6   2  -14.10   12.50
  -6  -6  -2    4.70   11.30
  -6   6  -2   14.10   13.60
  -6  -6   2   11.50   14.40
  -6   6  -2   20.10   27.00
  -7  -6  -2   -3.40   16.10
  -7   6   2   38.10   28.30
  -7   6   2   41.00   22.60
  -7  -6   2   18.70   21.00
  -7   6  -2   22.30   29.10
  -7   6  -2    8.60   17.60
  -8  -6  -2   34.60   26.60
  -8  -6   2   -9.30   21.60
  -8   6  -2   73.59   27.20
   0   7  -2    1.10    6.90
   0  -7   2    4.00    7.90
   0   7   2    3.40    5.60
  -1   7   2   14.00    9.00
   1  -7   2   -6.90    6.40
  -1  -7  -2    0.30    5.20
   1   7  -2    8.60    9.40
  -1   7  -2    2.10    7.00
   1   7   2   16.80    8.50
   1  -7  -2   -2.70    8.30
  -1  -7   2   -8.00    7.60
  -2  -7  -2  136.99   29.50
   2   7  -2   67.29   22.60
  -2   7   2  118.69   26.30
   2   7   2  103.39   27.40
  -2   7  -2  119.59   33.00
   2  -7  -2  124.39   26.00
  -2  -7   2   95.29   23.10
  -3  -7  -2    7.80    6.70
   3   7  -2    5.70    9.50
  -3   7   2   11.60   10.60
   3   7   2    0.50    9.20
  -3   7  -2   31.60   20.70
  -3  -7   2   26.90   12.20
   4   7  -2   -8.00    7.30
  -4   7   2   10.00   11.00
  -4  -7  -2    0.90    8.80
  -4   7  -2   14.20   11.20
  -4  -7   2    4.70    9.70
  -5  -7  -2   19.00   13.30
  -5   7   2   34.50   16.80
  -5   7   2   29.80   22.00
   5   7  -2   48.10   21.20
  -5   7  -2  -14.50   20.90
  -5   7  -2   58.99   25.20
  -5  -7   2   16.10   17.50
  -6   7   2   63.79   38.70
  -6  -7  -2   90.19   26.00
  -6   7  -2   98.99   31.60
  -6  -7   2  102.59   32.80
  -7   7   2   33.30   17.50
  -7   7   2    2.60   38.40
  -7  -7  -2   19.70   17.40
  -7  -7   2    2.20   19.30
  -7   7  -2   18.20   41.40
  -7   7  -2  -14.60   20.10
  -8  -7  -2  -46.00   25.00
   0   8  -2 1775.22  107.99
   0   8   2 1752.12   94.19
   0  -8   2 1670.93   90.79
   1  -8   2   61.09   20.30
   1   8  -2   -0.90   13.60
  -1   8   2   43.40   17.70
  -1   8  -2   35.60   16.30
   1   8   2   30.30   14.70
  -1  -8   2   10.30   10.90
  -2   8   2   26.80   11.60
  -2  -8  -2    8.10    8.10
   2   8  -2   -1.80    9.20
  -2  -8   2    5.20    8.20
  -2   8  -2  -15.80    8.20
   2   8   2  -19.20    7.30
  -3  -8  -2    3.50    9.40
   3   8  -2   -2.00   12.00
  -3   8   2    5.00   10.60
   3   8   2   21.20   14.70
  -3   8  -2    5.00   14.00
  -3  -8   2    9.20    8.80
  -4  -8  -2  627.64   48.60
  -4   8   2  591.14   52.69
   4   8  -2  567.04   65.49
  -4   8  -2  604.34   65.09
  -4  -8   2  626.54   58.79
   4   8   2  739.53   69.39
  -5   8   2   67.79   37.20
  -5  -8  -2   43.70   16.40
  -5   8   2   -5.50   12.90
   5   8  -2  -21.60   12.00
  -5  -8   2  -13.80   12.60
  -5   8  -2   -9.20   17.00
  -5   8  -2    2.30   23.40
  -6   8   2  -35.20   14.00
  -6   8   2  -22.80   31.80
   6   8  -2  -22.50   16.50
  -6  -8  -2   -1.20   13.70
  -6   8  -2   41.50   33.70
  -6   8  -2   32.00   21.90
  -6  -8   2    2.80   15.90
  -7   8   2  -13.20   16.40
  -7  -8   2  -26.00   22.40
  -7   8  -2   15.60   27.30
   0   9   2   21.00   11.80
   0  -9   2  -10.70    9.60
  -1   9   2   24.50   19.90
  -1   9  -2   23.80   17.90
   1   9   2   40.30   20.10
  -2   9   2  401.96   45.10
   2   9  -2  382.26   64.99
  -2  -9  -2  360.36   37.30
  -2  -9   2  379.16   44.30
   2   9   2  397.46   48.30
   3   9  -2   19.70   19.00
  -3  -9  -2   14.20   11.90
  -3   9   2   26.50   17.40
  -3   9  -2   45.70   22.40
   3   9   2   32.70   19.90
  -3  -9   2   18.50   14.20
  -4  -9  -2   15.40   10.80
   4   9  -2  -12.50   15.20
  -4   9   2  -27.00   12.40
  -4  -9   2    8.70   12.80
   4   9   2   -4.10   11.90
  -4   9  -2   17.20   14.50
  -5  -9  -2   15.60   18.30
  -5   9   2   58.39   23.60
   5   9  -2  105.39   36.20
  -5  -9   2   25.00   16.60
   5   9   2   71.79   33.20
  -5   9  -2   42.50   25.00
  -6   9   2  142.99   64.59
  -6   9   2  132.29   36.60
   6   9  -2  148.99   53.09
  -6  -9  -2  122.49   31.70
  -6  -9   2  166.38   42.00
   6   9   2  136.29   45.90
  -7   9   2    0.50   21.80
   0 -10   2  192.08   36.00
   0  10   2  271.47   46.20
   0  10  -2  304.47   57.09
   1  10  -2  269.87   54.09
  -1  10   2  334.97   53.09
   1  10   2  400.96   50.29
  -1 -10   2  321.77   42.60
  -1  10  -2  388.56   64.79
  -2  10   2   23.30   15.60
   2  10  -2   -4.80   18.90
  -2 -10   2   -1.30   10.20
  -2  10  -2  -15.10   11.80
  -3 -10  -2  457.25   45.30
  -3  10   2  450.65   50.49
   3  10  -2  322.77   65.59
   3  10   2  512.85   60.99
  -3  10  -2  561.04   67.19
  -3 -10   2  377.46   47.70
  -4  10   2   52.19   20.60
  -4 -10  -2   41.10   18.10
   4  10  -2   54.69   33.20
   4  10   2   20.90   20.10
  -4 -10   2   22.60   19.60
  -4  10  -2   89.39   30.10
  -5  10   2  127.29   32.00
  -5 -10  -2   88.09   28.10
   5  10  -2  126.69   46.60
  -5  10  -2  101.99   36.40
   5  10   2   94.59   38.40
  -6  10   2  -14.80   19.40
  -6  10  -2    9.20   22.60
  -6 -10   2    4.10   24.90
   0  11  -2    6.60   16.60
   0  11   2   33.00   19.70
  -1  11   2  398.06   48.90
   1  11  -2  367.96   66.59
  -1 -11   2  215.18   41.50
  -1  11  -2  292.57   58.59
   1  11   2  311.87   54.49
  -2  11   2   76.69   25.30
   2  11  -2   52.59   29.00
   2  11   2   58.89   20.70
  -2  11  -2   20.30   26.80
  -2 -11   2   24.10   16.50
   3  11  -2  265.87   60.09
  -3  11   2  218.78   41.70
   3  11   2  157.48   42.10
  -3  11  -2  143.99   40.50
  -3 -11   2  188.98   38.20
  -4 -11  -2   -4.00   19.60
   4  11  -2  -20.70   23.90
  -4  11   2   13.00   21.10
   4  11   2   12.40   22.00
  -4 -11   2   27.50   17.30
  -4  11  -2   68.19   38.90
  -5  11   2  203.48   39.10
  -5 -11   2  178.08   42.60
  -5  11  -2  120.09   36.00
   0  12  -2  203.78   65.69
  -1  12   2  101.29   28.30
   1  12  -2   78.79   37.20
  -1  12  -2   61.89   60.49
   1  12   2   25.10   28.80
  -2  12   2  -18.10   21.00
   2  12  -2   12.60   26.30
   2  12   2   -4.80   28.00
  -2 -12   2   17.20   17.80
  -2  12  -2  -14.60   18.60
  -3  12   2  178.28   40.20
  -3  12  -2   74.39   37.50
   3  12   2  133.09   39.30
  -3 -12   2  117.99   36.10
   0  13   2  -41.70   27.60
  -1  13   2   45.50   33.10
   1  13   2   70.69   37.30
   0   0   3    2.10    2.40
   0   0  -3    0.70    1.60
  -1   0   3   -1.40    2.90
   1   0  -3   -6.30    2.40
  -1   0  -3    4.60    2.80
   1   0   3   -1.10    2.40
   1   0   3    2.00    1.60
   1   0   3    0.40    2.30
  -2   0  -3   -1.40    2.80
   2   0   3   -2.40    2.50
   2   0  -3   -3.10    4.40
   2   0   3   -6.90    2.80
  -2   0  -3    6.00    5.30
  -2   0  -3    2.10    1.70
   3   0   3   -1.70    4.90
  -3   0   3    0.30    6.10
  -3   0  -3    7.30    7.10
   3   0   3   14.90   11.10
  -3   0  -3    0.60    4.10
   3   0  -3    2.60    8.70
   3   0  -3    3.70    5.40
   4   0   3   21.80   15.80
  -4   0  -3   -7.70    5.70
  -4   0   3   22.40   15.00
   4   0  -3   -8.40    7.50
  -4   0  -3    2.70    7.20
   4   0  -3  -10.90   11.50
  -5   0  -3  -11.90    9.00
  -5   0  -3    4.70    8.30
  -5   0   3   -4.70    9.00
  -6   0  -3  -16.30   10.90
  -6   0   3    1.60   13.00
  -8   0  -3   25.40   22.20
  -8   0   3    8.60   25.80
   0  -1   3   -2.30    2.60
   0   1  -3   -2.50    1.90
   0  -1   3    0.80    3.00
   0   1  -3    5.70    2.90
  -1  -1  -3 1657.03   53.59
   1   1  -3 1727.53   64.59
   1   1  -3 1688.83   56.99
   1  -1   3 1686.43   64.49
   1  -1   3 1649.33   51.69
   1   1   3 1624.54   53.49
  -1   1  -3 1717.93   64.49
  -1   1  -3 1720.93   65.39
  -1  -1   3 1743.43   64.69
  -1   1  -3 1651.23   50.49
  -2  -1  -3 2099.09   75.29
   2   1  -3 2084.59   90.59
  -2   1   3 2170.48   94.39
   2  -1   3 2176.08   82.19
  -2  -1  -3 2095.49   63.09
   2  -1  -3 2186.58   65.69
   2   1   3 2079.29   74.99
  -2   1  -3 2224.18   82.89
  -2   1  -3 2124.89   65.59
  -2  -1   3 2208.98   90.09
  -2   1  -3 2249.77   92.09
   2   1   3 2124.49   80.39
  -3  -1  -3  577.74   43.20
   3   1  -3  594.94   54.79
  -3   1   3  448.16   49.80
  -3  -1  -3  588.24   39.90
   3  -1   3  578.34   54.09
   3  -1   3  569.54   43.90
   3   1   3  632.34   51.49
   3  -1  -3  559.64   36.60
  -3  -1   3  528.75   49.10
  -3   1  -3  640.44   46.80
  -3   1  -3  650.33   54.49
  -4  -1  -3   46.10   15.80
   4   1  -3   38.10   14.00
  -4   1   3   29.60   13.90
   4   1   3   37.50   20.20
  -4  -1   3   44.90   16.30
   4  -1  -3   45.00   13.60
  -4   1  -3   28.40   13.00
  -4   1  -3   54.29   20.70
   4  -1  -3   35.10   19.20
  -5   1   3   74.49   31.00
  -5  -1  -3   81.49   24.40
  -5  -1   3   72.59   28.60
  -5   1  -3   70.29   22.80
  -5   1  -3   80.19   30.70
  -6  -1  -3  546.35   57.79
  -6   1   3  610.44   74.99
  -6   1  -3  565.34   68.09
  -6  -1   3  659.73   72.29
  -6   1  -3  583.54   59.29
  -7  -1  -3  102.79   32.00
  -7   1   3   55.19   28.50
  -7   1  -3   71.69   29.50
  -7  -1   3  134.99   40.30
  -8  -1  -3   -4.40   21.70
  -8   1  -3  -33.20   15.40
  -8  -1   3   49.50   25.40
  -9  -1  -3  -10.90   28.60
  -9   1  -3   -5.70   24.00
   0  -2   3 9911.71  212.98
   0   2  -3 9999.00  213.08
   0  -2   3 9872.21  223.78
   1   2  -3    4.20    4.30
   1   2  -3    4.40    4.10
   1  -2   3   13.50    7.10
   1  -2   3   10.80    4.50
   1   2   3    7.00    3.40
   1   2   3   15.60    5.20
  -1   2  -3    7.80    4.60
  -1  -2   3   13.40    6.40
  -1   2  -3   14.40    7.50
   2   2  -3    2.10    6.50
  -2  -2  -3    7.50    4.00
  -2   2   3    7.70    4.70
   2  -2   3    7.00    5.40
   2   2   3   16.90    7.30
   2  -2  -3   11.40    4.90
  -2   2  -3   11.50    7.90
  -2  -2   3   10.00    7.10
  -2   2  -3   10.50    4.70
  -2   2  -3   26.20   13.40
  -3  -2  -3  211.48   21.00
  -3   2   3  189.38   37.80
   3   2  -3  221.68   37.90
   3  -2   3  202.38   26.70
   3   2   3  182.18   23.20
  -3  -2   3  236.98   32.50
  -3   2  -3  195.98   22.30
   3   2   3  189.98   32.20
   3  -2  -3  207.38   21.60
  -3   2  -3  232.08   44.00
  -3   2  -3  195.08   33.00
  -4   2   3 1971.60  124.79
  -4  -2  -3 1908.41   85.29
  -4   2  -3 2026.10   99.39
  -4  -2   3 1839.52  106.39
   4  -2  -3 1995.10   86.09
  -4   2  -3 1949.10  118.29
  -5   2   3   30.10   19.20
  -5  -2  -3   56.29   20.50
  -5   2  -3   56.19   23.30
  -5  -2   3   49.30   20.50
  -5   2  -3   21.90   13.30
  -6   2   3    6.70   15.90
  -6  -2  -3    7.10   13.40
  -6   2  -3    6.20   10.40
  -6   2  -3    7.10   13.60
  -7   2   3   40.40   33.30
  -7  -2  -3    9.80   12.90
  -7  -2   3   -1.50   23.60
  -7   2  -3   49.20   23.70
  -7   2  -3   -3.40   20.70
  -8   2   3  265.77   61.69
  -8  -2  -3  231.98   47.40
  -8  -2   3  282.27   70.29
  -8   2  -3  316.57   70.69
  -9  -2  -3   15.00   27.00
  -9   2  -3   -8.30   28.50
   0  -3   3    3.00    4.20
   0   3   3   -1.90    2.10
   0   3   3    2.50    2.60
   0   3  -3   -4.30    2.90
   0   3  -3    0.30    3.00
   0  -3   3    4.20    3.50
   1   3  -3 1180.98   59.19
   1   3  -3 1112.09   57.09
   1  -3   3 1174.98   53.39
  -1   3   3 1132.29   37.40
   1  -3   3 1139.09   62.19
   1  -3  -3 1140.09   36.80
  -1   3  -3 1150.08   51.49
  -1   3  -3 1139.19   62.59
   1   3   3 1101.59   41.50
  -1  -3   3 1147.39   57.09
   2  -3   3 1153.18   67.39
  -2  -3  -3 1276.07   42.40
  -2   3   3 1258.57   46.40
   2   3  -3 1246.38   64.89
   2   3   3 1243.88   57.79
  -2   3  -3 1230.38   56.29
  -2  -3   3 1302.67   68.19
  -2   3  -3 1157.68   66.99
   2   3   3 1318.97   58.19
   2  -3  -3 1255.37   50.69
   3   3  -3  954.20   70.69
   3  -3   3  803.12   61.69
  -3  -3  -3  854.91   43.20
  -3   3   3  929.61   46.00
  -3   3   3  809.82   69.09
  -3  -3   3  795.02   73.49
  -3   3  -3  850.31   72.49
   3  -3  -3  901.91   50.29
   3   3   3  860.51   53.39
  -3   3  -3  668.43   86.19
  -3   3  -3  892.61   50.79
  -4  -3  -3   -1.20    7.00
  -4   3   3    6.60   15.10
  -4   3   3    6.80    7.10
  -4   3  -3   -5.70    7.00
   4  -3  -3    2.00    8.10
  -4   3  -3   18.40   14.80
  -4  -3   3   11.50   11.60
  -5   3   3 1140.89  105.79
  -5  -3  -3 1159.58   69.89
  -5   3  -3 1130.19   81.39
  -5  -3   3 1244.18   93.29
  -5   3  -3 1094.99  100.39
  -6  -3  -3  231.68   39.40
  -6   3   3  135.89   82.29
  -6  -3   3  277.77   57.99
  -6   3  -3  238.58   51.89
  -6   3  -3  166.08   51.79
  -7  -3  -3  137.39   32.30
  -7   3   3  166.98   53.79
  -7  -3   3  115.99   33.00
  -7   3  -3  120.09   36.10
  -7   3  -3   72.09   35.50
  -8   3   3   31.60   44.60
  -8  -3  -3   23.70   20.40
  -8   3  -3    9.70   19.20
  -8  -3   3   11.80   22.10
  -8   3  -3  -11.50   25.60
  -9  -3  -3  157.98   42.70
  -9   3  -3  206.78   62.09
   0   4   3  161.98   16.10
   0   4  -3  105.49   24.20
   0  -4   3  137.79   26.70
   0  -4   3  114.69   20.00
   0   4   3  137.89   15.40
  -1   4   3 2135.49   67.99
   1  -4   3 2180.78   84.79
   1   4  -3 2089.29   89.49
   1  -4   3 2337.77   97.59
   1   4  -3 2096.09   91.09
  -1  -4   3 2219.18   88.29
   1   4   3 2189.78   73.09
   1  -4  -3 2141.69   65.19
  -1   4  -3 2273.17   84.39
  -1   4  -3 2207.28   98.19
  -2  -4  -3   18.40    6.60
  -2   4   3   21.90    6.70
   2  -4   3   39.30   14.10
   2   4  -3   36.50   13.30
   2   4  -3   31.90   13.40
   2  -4  -3   30.10    9.00
  -2  -4   3   20.60   10.80
   2   4   3   17.70   10.00
  -2   4  -3   18.10   11.90
  -2   4  -3   19.00    8.10
  -3  -4  -3 2289.07   76.59
  -3   4   3 2220.18   80.69
  -3   4  -3 2225.58  107.49
   3  -4  -3 2084.69   86.19
   3   4   3 2136.19  100.99
   3   4   3 2111.59   92.89
  -3  -4   3 2345.57  106.89
  -4   4   3    1.60    8.40
  -4  -4  -3   -1.20    6.20
  -4   4   3   26.00   16.40
  -4   4  -3   10.50   11.30
   4  -4  -3   23.50   13.40
  -4   4  -3   10.80   11.60
  -5   4   3  712.43   85.09
  -5   4   3  561.24   48.20
  -5  -4  -3  638.14   49.70
  -5  -4   3  652.13   64.89
  -5   4  -3  555.04   74.89
  -5   4  -3  580.74   59.89
  -6   4   3   40.20   24.30
  -6  -4  -3   13.10   10.80
  -6  -4   3   36.90   22.30
  -6   4  -3  -23.70   18.40
  -6   4  -3   25.60   14.80
  -7   4   3  464.75   90.19
  -7  -4  -3  512.15   53.19
  -7   4  -3  510.55   62.79
  -7   4  -3  653.23   89.29
  -7  -4   3  571.04   74.99
  -8   4   3  -17.80   22.10
  -8  -4  -3   -1.00   16.30
  -8   4  -3   25.40   23.60
  -8  -4   3  -36.30   18.90
  -8   4  -3   27.50   40.60
  -9  -4  -3   64.99   39.30
   0   5  -3   10.60    7.10
   0   5   3   -6.10    3.30
   0  -5   3    0.40    4.00
   0   5   3    0.80    4.90
   0   5  -3   15.10    7.50
   0  -5   3    2.20    7.10
  -1   5   3 2014.70   77.89
   1  -5   3 1949.70   85.59
   1   5  -3 2040.50   96.19
  -1   5   3 1969.80   73.09
  -1  -5   3 1988.00   88.29
  -1   5  -3 2020.90  104.69
   1  -5  -3 1977.00   69.09
   1   5   3 2040.10   78.39
   1   5   3 1999.90   79.09
  -2   5   3 1440.56   61.09
  -2  -5  -3 1364.66   51.79
   2   5  -3 1379.06   80.09
  -2  -5   3 1382.56   77.19
   2   5   3 1447.46   70.89
  -2   5  -3 1303.57   82.09
   2  -5  -3 1362.56   59.59
   3   5  -3 1068.09   73.39
  -3   5   3 1075.99   56.89
  -3  -5  -3 1069.79   50.59
  -3   5  -3 1011.80   73.79
   3  -5  -3 1004.70   59.29
  -3  -5   3 1115.09   74.29
  -4  -5  -3   52.29   14.30
  -4   5   3   56.59   24.80
  -4   5   3    9.70   10.60
  -4   5  -3   30.90   15.60
   4  -5  -3   24.70   15.30
  -4   5  -3   47.50   26.40
  -4  -5   3    8.40   12.20
  -5   5   3  931.01   62.59
  -5   5   3  814.52   95.29
  -5  -5  -3  903.51   58.09
  -5  -5   3  874.01   75.59
  -5   5  -3  867.81   95.29
  -5   5  -3  819.82   74.39
  -6   5   3  404.76   80.39
  -6  -5  -3  332.17   38.90
  -6   5   3  305.87   41.40
  -6  -5   3  235.18   50.79
  -6   5  -3  420.16   53.99
  -6   5  -3  188.78   56.19
  -7   5   3  286.87   73.99
  -7  -5  -3  154.38   40.40
  -7   5  -3  170.88   44.80
  -7  -5   3  233.88   51.49
  -7   5  -3  193.38   59.79
  -8   5   3  -47.90   32.80
  -8  -5  -3   37.30   22.80
  -8   5  -3   22.50   27.90
  -8   5  -3   30.70   28.20
  -8  -5   3   27.40   25.90
  -9  -5  -3   90.29   40.40
   0   6   3 3943.41  125.09
   0   6  -3 3783.82  151.88
   0   6   3 3869.71  124.29
   0  -6   3 3717.83  133.39
   1   6  -3  471.95   47.90
   1  -6   3  475.25   42.50
  -1   6   3  396.66   34.00
  -1   6  -3  471.75   48.70
  -1  -6   3  420.76   40.50
   1   6   3  469.15   38.90
   1   6   3  421.66   37.50
  -2  -6  -3    5.20    5.00
  -2   6   3    0.20    6.70
   2   6  -3   -0.80    6.70
   2  -6  -3   -3.50    6.80
   2   6   3   -4.60    8.00
  -2   6  -3   13.90   11.70
  -2  -6   3    4.80    8.00
  -3  -6  -3  363.06   29.30
  -3   6   3  376.76   34.80
   3   6  -3  355.26   42.30
  -3  -6   3  333.47   40.50
  -3   6  -3  368.16   47.70
   3  -6  -3  291.57   34.20
   4   6  -3 2608.24  131.79
  -4  -6  -3 2553.44   95.39
  -4   6   3 2435.96  102.79
  -4   6  -3 2416.06  128.69
  -4  -6   3 2448.16  124.19
  -5  -6  -3  137.19   26.50
  -5   6   3  136.19   42.50
  -5   6   3  116.09   27.50
  -5  -6   3  120.99   29.90
  -5   6  -3  133.19   40.60
  -5   6  -3   86.49   25.80
  -6   6   3   70.19   37.00
  -6  -6  -3   43.20   19.20
  -6   6   3   88.79   18.90
  -6   6  -3  142.69   53.49
  -6   6  -3   46.30   21.80
  -6  -6   3   25.20   20.50
  -7  -6  -3  140.59   30.90
  -7  -6   3  160.58   42.70
  -7   6  -3  108.49   58.09
  -7   6  -3  173.18   46.40
  -8  -6  -3  405.26   53.19
  -8   6  -3  345.97   60.69
  -8  -6   3  296.37   73.39
   0  -7   3    1.30    6.40
   0   7   3    0.40    6.10
   0   7  -3   -7.20    5.80
   1  -7   3  315.17   36.60
   1   7  -3  238.28   42.20
  -1   7   3  270.07   31.00
  -1  -7   3  287.57   34.70
  -1   7  -3  280.67   50.49
  -2   7   3 2424.66   98.49
  -2  -7  -3 2454.05   85.19
   2   7  -3 2352.96  122.79
   2  -7  -3 2420.86   96.19
   2   7   3 2374.16  108.59
  -2  -7   3 2521.35  115.59
  -2   7  -3 2318.27  125.99
  -3   7   3   15.90   14.60
   3   7  -3   18.10   12.90
  -3  -7  -3   32.70   11.60
  -3  -7   3   34.20   14.20
   3  -7  -3    0.20   12.50
  -3   7  -3    5.10   12.20
   4   7  -3   95.29   28.80
  -4   7   3   63.39   19.00
  -4  -7  -3   78.19   18.60
  -4   7  -3   65.29   24.70
  -4  -7   3  115.19   30.80
  -5   7   3   44.80   20.10
  -5  -7  -3   47.70   16.60
   5   7  -3    5.70   16.00
  -5   7   3    8.30   16.80
  -5   7  -3   13.90   14.00
  -5  -7   3   41.20   18.80
  -5   7  -3   19.70   22.90
   6   7  -3  771.82   83.49
  -6  -7  -3  673.63   54.29
  -6   7   3  774.72   99.69
  -6   7   3  673.43   59.09
  -6   7  -3  680.93   75.19
  -6   7  -3  767.32  126.99
  -6  -7   3  723.83   73.39
  -7   7   3   46.70   38.20
  -7  -7  -3   38.90   19.90
  -7   7   3    5.90   16.20
  -7   7  -3    7.50   24.00
  -7  -7   3  -39.40   16.50
  -7   7  -3  -24.40   32.90
   0  -8   3  480.75   46.90
   0   8   3  426.16   44.80
   0   8  -3  438.56   54.29
   1  -8   3  565.24   53.79
  -1   8   3  547.95   48.70
   1   8  -3  561.34   60.79
   1   8   3  538.25   51.19
  -1  -8   3  557.94   51.99
  -1   8  -3  580.14   60.89
   2   8  -3   30.20   16.00
  -2   8   3   -5.90    7.70
  -2  -8  -3    1.80    7.90
  -2   8  -3  -15.80    9.50
  -2  -8   3    6.00   11.30
   2   8   3    2.40   10.00
  -3  -8  -3  400.06   34.60
   3   8  -3  491.65   58.59
  -3   8   3  284.77   45.50
   3   8   3  440.36   48.00
  -3   8  -3  445.86   96.29
  -3  -8   3  401.96   47.40
  -4   8   3  479.15   48.10
  -4  -8  -3  482.05   40.90
   4   8  -3  394.36   53.29
  -4   8  -3  375.06   63.79
   4   8   3  296.27   51.19
  -4  -8   3  514.55   57.49
  -5   8   3  175.38   32.20
  -5  -8  -3  235.78   31.30
  -5   8   3  241.08   67.69
   5   8  -3  267.67   56.89
  -5   8  -3  284.77   72.39
  -5   8  -3  197.48   42.80
  -5  -8   3  132.79   33.40
   6   8  -3   31.40   24.60
  -6  -8  -3   65.99   24.00
  -6   8   3   69.59   22.50
  -6   8   3   48.80   38.30
  -6  -8   3   32.70   29.50
  -6   8  -3   85.79   45.40
  -6   8  -3   57.09   27.00
  -7  -8  -3  175.18   37.70
  -7   8   3   96.99   31.10
  -7   8  -3   57.49   33.10
  -7  -8   3  181.88   43.10
   0  -9   3   20.60   13.00
   0   9   3    8.80   11.80
   0   9  -3   16.10   18.10
   1   9  -3  933.51   87.29
   1  -9   3  972.40   74.59
  -1   9   3  947.41   69.89
   1   9   3  910.11   71.69
  -1  -9   3  973.10   73.89
  -1   9  -3 1066.39   89.49
  -2   9   3   60.89   19.80
   2   9  -3   58.09   28.80
  -2   9  -3   87.09   26.80
  -2  -9   3   82.49   24.40
   2   9   3   56.99   23.90
  -3   9   3  556.14   50.39
  -3  -9  -3  532.25   43.50
   3   9  -3  477.75   60.19
  -3  -9   3  507.35   55.09
  -3   9  -3  605.04   67.79
  -4   9   3   38.10   19.60
  -4  -9  -3   53.09   17.50
   4   9  -3   50.79   21.30
  -4   9  -3   41.60   22.00
   4   9   3   44.30   20.70
  -5   9   3  376.86   45.80
   5   9  -3  414.96   75.79
  -5  -9  -3  337.87   41.20
   5   9   3  455.05   61.19
  -5  -9   3  428.66   58.09
  -5   9  -3  355.46   63.09
  -6   9   3   28.60   20.50
  -6   9   3   55.79   46.60
  -6   9  -3  -15.20   13.60
  -6  -9   3   11.80   16.80
   6   9   3    9.70   24.50
  -7   9   3   26.20   42.30
   0 -10   3   57.09   19.90
   0  10  -3   59.09   25.40
   0  10   3    5.40   14.80
   1  10  -3  240.08   51.49
  -1  10   3  247.08   42.00
  -1  10  -3  234.08   52.39
   1  10   3  246.08   43.90
  -1 -10   3  177.28   35.40
  -2  10   3   31.30   16.50
   2  10  -3    9.20   15.00
  -2 -10   3   12.40   11.50
   2  10   3   -7.40   27.90
  -2  10  -3    3.70   16.10
  -3  10   3  234.68   38.30
   3  10  -3  258.27   56.39
  -3  10  -3  222.08   50.09
  -3 -10   3  183.18   40.30
   3  10   3  273.27   53.29
  -4 -10  -3   10.90   18.20
  -4  10   3   -2.60   16.80
   4  10  -3  -17.90   16.50
   4  10   3   49.00   25.90
  -4 -10   3  -10.70   16.90
  -4  10  -3   33.50   22.90
  -5  10   3   65.59   24.40
   5  10   3   65.99   32.40
  -5  10  -3   65.99   30.40
  -5 -10   3   94.09   28.50
   0 -11   3    8.90   14.60
   0  11  -3  -38.00   21.10
   0  11   3   -9.90   13.00
  -1  11   3    2.40   14.70
   1  11  -3   22.10   22.90
  -1  11  -3   23.70   19.90
  -1 -11   3   37.20   21.50
   1  11   3   10.20   16.10
   2  11  -3  195.28   66.49
  -2  11   3  173.08   37.60
  -2  11  -3  121.09   40.40
  -2 -11   3  163.28   37.30
  -3  11   3  -21.90   24.20
   3  11  -3   -6.00   18.60
  -3  11  -3  -38.00   14.50
   3  11   3    1.50   20.90
  -4  11   3   29.50   21.50
  -4  11  -3   70.19   32.70
  -4 -11   3    8.10   20.80
   0  12   3  178.68   44.50
   0  12  -3  324.27   66.49
  -1  12   3   28.20   26.40
   1  12  -3   45.70   29.10
   1  12   3  -25.70   22.80
  -1 -12   3   52.99   24.30
  -1  12  -3   -5.10   26.60
   2  12  -3  -10.40   34.70
  -2  12   3  -19.70   20.70
  -2 -12   3    2.80   20.10
  -2  12  -3   18.60   26.70
   2  12   3   37.30   30.90
  -3  12  -3   30.10   29.10
  -3 -12   3  -17.90   23.20
   3  12   3   23.80   27.60
   1  13   3  -41.30   28.30
   0   0   4 4823.72  162.18
   1   0   4    8.30    3.90
   1   0   4    2.00    1.90
   1   0  -4    1.60    1.90
   1   0   4    4.50    3.00
  -1   0  -4   -3.10    1.70
   1   0  -4    7.50    3.40
  -2   0  -4   36.00   11.40
   2   0   4   24.80    9.70
   2   0   4   56.59   15.70
  -2   0  -4   32.80    8.90
   2   0  -4   39.60   11.90
  -2   0   4   37.00   14.00
   3   0   4  138.89   23.90
  -3   0  -4  151.78   27.30
  -3   0  -4  191.88   23.50
   3   0  -4  163.28   34.50
  -3   0   4  179.08   36.00
   3   0   4  144.39   32.90
  -3   0  -4  145.09   15.50
  -4   0  -4 4205.98  152.58
   4   0  -4 4359.56  140.09
   4   0  -4 4303.87  179.78
  -4   0  -4 4310.37  153.28
  -4   0   4 4413.96  181.78
  -5   0  -4   39.10   17.80
  -5   0   4   22.30   18.10
  -5   0  -4   16.90   17.70
  -6   0  -4   66.09   26.60
  -6   0  -4   91.09   31.90
  -6   0   4   94.99   29.10
  -7   0  -4  102.39   31.90
  -7   0   4  148.49   40.00
  -8   0  -4  595.74   76.69
  -8   0   4  858.71  102.89
  -9   0  -4   61.39   34.70
   0   1  -4   -4.40    2.40
   0  -1   4    0.80    2.20
   0  -1   4    3.20    3.10
   0   1  -4    7.00    4.30
   0   1   4    0.20    2.10
   0  -1  -4    1.60    2.30
  -1   1   4 2005.20   67.89
   1   1  -4 1967.50   68.19
   1   1  -4 2157.38   75.79
  -1  -1  -4 2072.19   64.69
   1  -1   4 2145.19   77.59
   1  -1   4 2102.09   62.39
  -1   1  -4 2158.88   73.39
  -1  -1   4 2039.80   74.99
   1   1   4 2060.79   64.99
  -1   1  -4 2097.39   77.59
   2  -1   4 4618.04  138.79
   2   1  -4 4674.93  149.29
  -2   1   4 4612.24  150.58
  -2  -1  -4 4887.61  132.89
  -2   1  -4 4595.24  113.19
  -2   1  -4 4916.21  145.49
   2   1   4 4875.71  131.79
  -2   1  -4 4701.83  141.49
   2  -1  -4 4754.82  113.59
   2   1   4 4658.53  132.39
  -2  -1   4 4721.63  148.19
   3  -1   4  321.27   34.70
  -3  -1  -4  406.36   36.50
  -3  -1  -4  339.87   26.80
   3   1  -4  307.37   39.50
  -3   1   4  376.46   42.40
   3  -1  -4  329.87   27.50
  -3   1  -4  360.96   26.70
   3   1   4  322.27   37.70
  -3  -1   4  280.27   36.10
  -3   1  -4  388.86   40.10
  -3   1  -4  375.26   37.60
   3   1   4  285.47   30.60
  -4   1   4   18.20   11.90
  -4  -1  -4    0.70    6.40
  -4  -1  -4    5.70    7.90
  -4   1  -4    7.90   13.10
  -4   1  -4   -4.60    6.00
   4  -1  -4   14.70    9.60
   4   1   4   -1.80   10.10
  -4   1  -4   35.80    9.50
  -4  -1   4   20.10   14.90
  -5  -1  -4  523.85   48.60
  -5   1   4  391.46   67.69
  -5   1  -4  479.45   50.39
  -5  -1   4  489.45   59.69
  -5   1  -4  447.16   54.99
  -6   1   4 1510.75  125.29
  -6  -1  -4 1489.95   94.99
  -6  -1   4 1589.74  117.89
  -6   1  -4 1577.54  111.79
  -6   1  -4 1545.65  102.99
  -7  -1  -4   43.60   19.80
  -7   1   4  -12.40   18.10
  -7  -1   4   -3.90   15.00
  -7   1  -4   23.00   18.30
  -7   1  -4    2.70   21.00
  -8  -1  -4   36.00   24.60
  -8   1   4    3.30   25.20
  -8   1  -4   34.30   25.30
  -8  -1   4   36.60   28.00
  -9  -1  -4   43.80   34.10
  -9   1  -4   58.59   40.80
   0   2  -4 4200.58  124.79
   0  -2   4 4098.49  122.29
   0   2  -4 4088.79  111.59
   0  -2   4 4271.37  114.09
   1  -2   4 4000.10  127.59
   1   2  -4 4039.60  122.29
   1  -2   4 4148.19  111.09
   1   2  -4 4136.49  120.19
   1   2   4 4105.79  101.99
  -1   2  -4 4387.26  131.99
  -1  -2   4 4093.79  122.59
  -1   2  -4 4051.79  106.49
   2  -2   4   45.00   15.80
   2   2  -4   33.50   11.10
   2   2  -4   56.29   17.50
  -2   2   4   43.20   16.20
   2  -2   4   36.20   10.90
   2   2   4   37.50   10.10
  -2  -2   4   40.50   14.10
   2  -2  -4   47.00   12.00
  -2   2  -4   42.30   10.30
  -2   2  -4   46.90   15.30
  -2   2  -4   44.40   13.90
   2   2   4   57.49   12.90
   3  -2   4 3619.24  133.69
  -3   2   4 3725.23  156.98
   3   2  -4 3644.24  149.79
  -3  -2  -4 3645.24   96.79
   3   2   4 3558.54  132.79
   3   2   4 3752.52  122.79
  -3   2  -4 3636.84  150.58
  -3  -2   4 3704.93  144.29
   3  -2  -4 3728.83  109.09
  -3   2  -4 3559.74  133.99
  -3   2  -4 3592.54  109.79
  -4  -2  -4  451.75   36.10
  -4   2   4  480.05   59.59
  -4   2  -4  475.85   37.60
  -4  -2   4  506.25   55.19
  -4   2  -4  594.14   61.39
  -4   2  -4  497.65   49.50
  -5  -2  -4 1446.16   78.89
  -5   2   4 1458.05  114.09
  -5   2  -4 1332.57   89.19
  -5   2  -4 1387.26  103.99
  -5  -2   4 1397.86  102.59
  -6  -2  -4  102.79   27.00
  -6   2   4  111.39   42.30
  -6   2  -4   67.99   26.80
  -6  -2   4   73.29   34.10
  -7  -2  -4  859.71   73.99
  -7   2   4  796.92  102.09
  -7  -2   4  990.90   97.49
  -7   2  -4  918.51   85.19
  -7   2  -4 1068.19   99.79
  -8  -2  -4   36.30   25.70
  -8   2   4   36.30   41.80
  -8   2  -4   44.90   31.30
  -8  -2   4  184.58   72.89
  -9  -2  -4   72.89   33.20
  -9   2  -4  -36.70   32.90
   0   3  -4    1.70    4.90
   0  -3   4    3.10    5.10
   0   3   4    3.10    2.30
   0  -3   4    2.00    5.40
   0   3  -4    4.30    3.60
   1   3  -4 2620.44   96.99
   1  -3   4 2501.05   87.39
   1  -3   4 2445.36  102.09
   1   3  -4 2651.03   97.89
  -1   3  -4 2472.65   84.09
   1   3   4 2559.74   66.89
   1   3   4 2503.65   73.79
  -1  -3   4 2556.04   97.39
  -1   3  -4 2627.74  104.19
  -1  -3   4 2538.05   95.59
   2   3  -4  135.79   24.60
   2  -3   4  150.78   25.60
   2   3  -4  160.78   29.90
   2  -3   4  173.98   30.90
   2   3   4  126.59   20.80
  -2   3  -4  143.89   18.20
   2  -3  -4  162.28   18.70
  -2  -3   4  142.39   26.80
  -2   3  -4  139.29   28.70
   2   3   4  153.98   18.10
  -3  -3  -4 1010.20   40.60
  -3   3   4 1114.99   81.89
  -3   3  -4 1022.40   54.89
  -3   3  -4 1037.50   68.99
  -3   3  -4 1021.60   78.89
   3  -3  -4 1014.40   51.09
   3   3   4 1098.39   66.89
   3   3   4  994.60   59.09
  -3  -3   4  996.30   70.39
  -4  -3  -4    7.70    7.70
  -4   3   4   25.90   19.90
   4  -3  -4   13.30    8.60
  -4  -3   4   33.90   15.20
  -4   3  -4   -6.50   12.60
  -4   3  -4    4.10    9.60
  -5   3   4  879.51   92.99
  -5   3  -4  674.33   62.09
  -5  -3   4  770.92   74.69
  -5   3  -4  922.91   88.69
  -6  -3  -4   -2.70   12.80
  -6   3   4  -15.80   13.90
  -6   3  -4   28.80   10.60
  -6   3  -4   20.00   15.60
  -6  -3   4   -3.50   10.80
  -7   3   4  161.98   44.50
  -7  -3  -4  128.39   32.10
  -7   3  -4  131.09   41.90
  -7  -3   4  149.09   35.00
  -7   3  -4  134.89   36.40
  -8   3   4   18.80   35.90
  -8  -3  -4   -6.00   18.60
  -8  -3   4   34.30   22.50
  -8   3  -4   64.99   28.20
  -8   3  -4    2.20   24.30
  -9  -3  -4  127.89   42.30
  -9   3  -4  105.79   55.79
   0   4  -4 2115.29   86.19
   0   4   4 2150.58   66.79
   0  -4   4 2117.19   84.99
   0  -4   4 2045.20   93.19
   0   4   4 2039.90   62.99
   0   4  -4 2208.18   98.59
   1   4  -4  353.46   34.60
   1   4  -4  350.46   36.10
   1  -4   4  355.56   32.20
   1  -4   4  346.97   37.10
  -1   4  -4  350.46   30.90
  -1  -4   4  358.66   33.80
  -1   4  -4  385.46   39.90
   1   4   4  352.76   24.80
   2   4  -4   -3.00    6.30
  -2   4   4    8.30    5.50
   2  -4   4    9.90    7.30
   2   4  -4   18.30   10.20
  -2   4  -4   24.70   10.80
   2  -4  -4   17.00    6.50
  -2  -4   4   19.60    8.90
   2   4   4   10.60    7.70
  -2   4  -4   10.50    8.50
   2   4   4   12.10    6.90
  -3   4   4  465.85   31.20
   3   4  -4  487.45   46.90
  -3  -4  -4  445.46   25.40
   3  -4  -4  457.85   34.70
  -3   4  -4  452.25   48.00
  -3  -4   4  386.76   43.50
   3   4   4  482.15   44.30
   3   4   4  455.35   39.60
  -4   4   4  478.35   64.69
  -4  -4  -4  379.36   29.70
  -4   4   4  411.96   34.60
   4  -4  -4  357.16   64.79
  -4   4  -4  373.06   46.90
  -4  -4   4  456.25   51.89
  -4   4  -4  485.45   63.29
  -5   4   4  199.38   50.99
  -5  -4  -4  187.78   37.70
  -5   4  -4  227.58   44.20
  -5  -4   4  238.48   48.90
  -5   4  -4  215.48   53.39
  -6  -4  -4   27.00   17.10
  -6   4   4   -5.50   22.60
  -6  -4   4   77.49   26.90
  -6   4  -4   -2.70   26.20
  -6   4  -4   44.90   20.60
  -7  -4  -4  153.28   32.90
  -7   4   4  179.98   48.50
  -7  -4   4   72.99   32.80
  -7   4  -4  151.88   43.60
  -7   4  -4  172.58   55.09
  -8   4   4   54.99   44.10
  -8  -4  -4   23.20   26.80
  -8  -4   4  101.79   37.40
  -8   4  -4   69.49   34.70
  -8   4  -4   79.79   43.20
  -9  -4  -4    3.90   33.50
   0  -5   4    8.10    7.20
   0   5   4    6.90    5.10
   0   5  -4   20.30    9.70
   1   5  -4   -3.00    5.90
  -1   5   4   10.50    8.10
   1  -5   4    2.70    4.70
  -1   5   4    7.10    4.90
   1   5   4   -0.20    5.80
   1   5   4   -0.10    4.70
  -1   5  -4   -0.60    8.10
  -1  -5   4    1.80    6.20
   2  -5   4 1527.75   80.59
   2   5  -4 1521.65   87.89
  -2   5   4 1675.13   59.89
  -2  -5   4 1609.64   86.59
  -2   5  -4 1576.64   93.49
   2  -5  -4 1570.34   59.79
   2   5   4 1592.24   73.69
   3   5  -4   84.99   22.30
  -3  -5  -4   58.79   11.60
  -3   5   4   87.29   16.70
   3  -5  -4   62.59   15.50
  -3   5  -4   56.59   21.80
  -3  -5   4   38.00   15.20
   4   5  -4   20.60   10.60
  -4  -5  -4    9.10    7.20
  -4   5   4   10.00    7.50
   4  -5  -4   27.30   14.80
  -4   5  -4   -3.30   13.90
  -4  -5   4    6.80   11.10
  -4   5  -4   -1.10    8.40
  -5  -5  -4    2.70    8.90
  -5   5   4   12.80   10.80
  -5   5   4    8.40   20.30
  -5  -5   4   -6.70   11.10
  -5   5  -4  -21.20   16.30
  -6   5   4  673.13   93.69
  -6  -5  -4  680.33   51.59
  -6   5  -4  404.26   81.39
  -6   5  -4  673.03   71.89
  -6  -5   4  671.93   72.99
  -7  -5  -4   66.39   20.10
  -7   5   4   76.19   38.60
  -7  -5   4   74.59   30.70
  -7   5  -4  -15.10   21.30
  -8   5   4   -4.30   31.60
  -8  -5  -4  -26.10   19.80
  -8   5  -4    6.90   37.30
  -8   5  -4   -6.40   26.70
  -8  -5   4  -45.10   22.20
   0   6   4  550.94   39.00
   0  -6   4  557.34   48.30
   0   6   4  597.54   41.90
   0   6  -4  637.84   58.49
   1   6  -4  238.18   43.20
  -1   6   4  179.98   21.30
   1  -6   4  137.99   27.00
  -1  -6   4  154.18   29.00
  -1   6  -4  190.88   39.60
   1   6   4  200.88   24.80
   1   6   4  165.28   23.00
  -2   6   4    6.40    5.20
   2   6  -4   -4.60    6.20
   2  -6   4   -0.30    4.60
   2  -6  -4    4.00    6.20
  -2   6  -4    5.10    8.60
  -2  -6   4    3.60    9.10
  -3   6   4   72.29   18.30
   3   6  -4   71.29   24.20
  -3  -6  -4   58.29   12.10
  -3  -6   4   82.29   24.00
   3  -6  -4   86.29   18.70
  -3   6  -4   78.89   26.30
  -4  -6  -4  135.09   18.90
  -4   6   4  165.98   28.60
   4   6  -4  118.89   29.70
  -4  -6   4  152.48   36.40
   4  -6  -4  151.78   31.10
  -4   6  -4  101.49   28.60
   5   6  -4   18.70   15.40
  -5   6   4   19.90   12.70
  -5  -6  -4   19.20   12.70
  -5   6   4   10.80   30.90
  -5   6  -4   39.30   24.20
  -5  -6   4   58.39   25.10
  -5   6  -4   36.50   21.50
  -6   6   4   28.30   28.60
  -6  -6  -4   14.20   14.70
  -6   6   4  -17.00   12.60
  -6  -6   4  -12.00   15.40
  -6   6  -4   -3.10   23.30
  -6   6  -4  -13.90   15.50
  -7   6   4   61.49   47.00
  -7  -6  -4    5.00   16.30
  -7   6  -4  -32.30   17.80
  -7   6  -4   38.80   41.60
  -7  -6   4   10.30   29.60
   0   7  -4   -5.10    6.60
   0   7   4    8.60    8.70
   1  -7   4    4.60    9.30
  -1   7   4    8.50    9.50
   1   7  -4    2.80    9.30
  -1  -7   4    8.80    7.20
   1   7   4   20.60    9.20
  -1   7  -4    4.80   10.10
   2   7  -4  431.26   49.20
  -2   7   4  462.15   37.10
   2   7   4  457.95   44.00
   2  -7  -4  428.06   35.30
  -2  -7   4  392.16   43.30
  -2   7  -4  341.87   56.39
   3   7  -4    7.40   13.10
  -3   7   4   19.50   10.00
  -3   7  -4   34.10   17.30
  -3  -7   4   10.70    7.50
   3  -7  -4   -5.00   10.90
  -4  -7  -4    1.30    8.30
   4   7  -4  -18.70    9.30
  -4   7  -4   -4.80    9.40
  -4  -7   4  -17.10   10.00
  -5  -7  -4   15.90   12.20
   5   7  -4  -22.70   12.40
  -5   7   4    7.70   23.00
  -5   7   4    8.30   12.80
  -5   7  -4   -6.00   15.30
  -5   7  -4   19.20   25.50
  -5  -7   4   -0.90   14.40
  -6   7   4   62.09   40.00
  -6  -7  -4   88.39   24.10
   6   7  -4   24.90   20.20
  -6   7   4   63.59   21.70
  -6   7  -4   51.99   31.00
  -6  -7   4   61.39   31.50
  -6   7  -4   45.20   35.00
  -7  -7  -4  -17.10   19.90
  -7   7   4   28.20   34.60
   7   7  -4   -5.90   17.00
  -7  -7   4   -3.40   24.50
  -7   7  -4   26.40   23.90
  -7   7  -4    6.90   38.80
   0   8  -4  500.55   58.49
   0  -8   4  465.15   46.90
   0   8   4  438.76   43.10
  -1   8   4   15.90   11.70
   1   8  -4   24.30   21.10
   1  -8   4   13.10   12.30
   1   8   4   25.10   14.90
  -1  -8   4   44.60   19.60
  -1   8  -4   -6.60   11.50
   2   8  -4    1.90   10.30
  -2   8   4   -4.50    9.00
  -2  -8   4    0.10    7.50
  -2   8  -4   14.80   11.20
   2   8   4   -6.70   11.40
  -3   8   4   33.50   20.70
   3   8  -4   51.19   21.50
  -3   8  -4   53.09   21.50
  -3  -8   4   11.70   12.90
   3   8   4   61.59   22.60
   4   8  -4  354.06   59.99
  -4   8   4  497.55   43.40
  -4  -8  -4  450.15   36.80
  -4  -8   4  406.86   53.89
  -4   8  -4  430.56   68.19
  -5   8   4  121.19   45.70
  -5  -8  -4   39.40   16.20
   5   8  -4   51.29   26.30
  -5   8   4   58.89   20.00
  -5   8  -4   45.00   22.60
  -5  -8   4   30.60   17.30
  -5   8  -4   46.50   32.70
  -6  -8  -4   15.20   18.30
  -6   8   4    0.80   40.30
   6   8  -4  -29.90   18.00
  -6  -8   4  -11.80   14.10
  -6   8  -4  -35.80   31.90
   0   9  -4   -5.80   15.10
   0   9   4   -0.60   12.70
   0  -9   4   -2.80    8.90
   1  -9   4   44.20   19.70
   1   9  -4   53.19   26.40
  -1   9   4   92.99   23.40
   1   9   4   48.70   20.20
  -1   9  -4  111.59   35.30
  -1  -9   4   73.19   23.20
  -2   9   4  494.15   45.80
   2   9  -4  466.85   63.19
  -2   9  -4  568.44   67.19
  -2  -9   4  565.34   57.29
   2   9   4  629.34   56.29
   3   9  -4   61.79   26.00
  -3   9   4   36.00   19.50
  -3  -9   4   66.19   21.60
   3   9   4   66.29   21.80
  -3   9  -4   38.70   24.10
   4   9  -4   20.20   16.70
  -4   9   4   11.00   14.80
  -4   9  -4    5.30   19.00
  -4  -9   4   -4.70   13.70
   4   9   4   35.70   20.30
  -5   9   4   77.59   63.59
   5   9  -4  121.79   41.50
  -5   9   4   64.09   21.80
  -5   9  -4   70.89   35.50
   5   9   4   75.59   33.00
  -5   9  -4   84.89   36.90
  -6   9   4  196.58   36.70
  -6   9  -4  184.48   53.39
  -6  -9   4   70.99   35.90
   0  10  -4   39.40   18.60
   0  10   4   54.89   22.00
   0 -10   4   48.80   24.50
  -1  10   4  418.66   45.60
   1 -10   4  456.75   53.69
   1  10  -4  374.96   67.59
   1  10   4  471.05   51.39
  -1 -10   4  421.86   53.39
  -1  10  -4  554.84   86.49
   2  10  -4   11.30   13.90
  -2  10   4  -18.70   13.00
   2  10   4   39.60   17.80
  -2  10  -4  -10.60   16.10
  -2 -10   4   22.10   16.70
   3  10  -4  324.17   63.69
  -3  10   4  281.47   41.60
  -3  10  -4  392.36   72.19
  -3 -10   4  374.36   49.80
   3  10   4  349.57   58.89
  -4  10   4   57.89   21.30
   4  10  -4   74.29   32.30
  -4  10  -4   86.49   35.50
  -4 -10   4    6.50   19.80
   5  10   4   47.20   57.89
  -5  10  -4  100.29   39.60
  -5 -10   4   45.30   30.90
   0  11  -4    0.70   18.50
   0 -11   4   24.80   19.90
   0  11   4    2.10   20.50
   1  11  -4  273.17   58.39
  -1  11   4  388.76   49.30
  -1  11  -4  226.48   59.19
  -1 -11   4  256.17   49.60
   2  11  -4   58.19   34.50
  -2  11   4   58.09   21.20
  -2 -11   4   21.90   30.90
  -2  11  -4   54.99   34.50
   2  11   4   -1.90   19.00
   3  11  -4  229.68   57.39
  -3  11   4  189.78   32.30
  -3  11  -4  198.78   45.40
  -3 -11   4  133.89   34.30
   3  11   4  126.79   40.10
  -4  11  -4   50.09   26.90
   4  11   4   -5.50   28.50
  -4 -11   4  -21.20   25.40
   5  11   4   83.39   51.19
   0  12  -4  218.68   55.19
   0  12   4  198.58   42.80
   1  12  -4   29.90   43.10
   1  12   4    4.50   24.50
  -1  12  -4   82.09   37.70
  -1 -12   4   43.00   24.20
   2  12   4   38.50   27.50
  -2  12  -4   33.90   33.20
   3  12   4   50.89   35.00
   0   0  -5    3.20    4.00
   0   0   5    3.20    2.20
   1   0   5   -2.10    3.10
   1   0   5    5.40    2.80
  -1   0   5   -6.50    3.10
   1   0  -5   -2.20    1.90
  -1   0  -5   -4.20    2.10
   2   0   5    2.00    5.80
  -2   0  -5    2.20    4.40
   2   0   5    9.30    6.80
   2   0  -5   10.50    6.30
   3   0  -5   15.20   11.00
   3   0   5   -4.50   10.30
   3   0   5    2.40    7.30
  -3   0  -5   -0.80    2.90
  -3   0   5   -4.80    7.20
  -3   0  -5    0.80    3.90
  -3   0  -5   -1.20    5.90
  -4   0  -5    3.00    7.20
  -4   0  -5    3.20    5.50
   4   0  -5   -4.90   13.70
   4   0  -5    3.30    8.20
  -4   0   5  -11.20    6.70
  -4   0  -5   -3.30    5.00
  -5   0  -5   -9.40   10.10
  -5   0  -5   23.60   10.40
  -5   0   5    9.10   12.10
  -5   0  -5   13.60   10.50
  -6   0  -5   -6.90   12.20
  -6   0   5   42.30   19.30
  -6   0  -5   13.20   16.60
  -7   0   5   -4.10   18.10
  -7   0  -5  -18.60   15.80
  -8   0  -5    1.90   21.80
  -9   0  -5   66.49   36.90
   0   1  -5   -6.00    2.30
   0  -1   5    5.80    4.10
   0  -1   5   -1.70    2.40
   0  -1  -5    1.10    2.80
   0   1  -5   -2.10    2.90
   1  -1   5  149.59   19.00
  -1   1   5   98.59   13.40
   1   1  -5   94.39   16.30
   1   1  -5  111.39   19.00
   1  -1   5   98.39   11.70
  -1  -1  -5  102.59   13.30
  -1  -1   5   81.29   16.50
   1  -1  -5  108.59    9.90
  -1   1  -5   90.89   17.30
   1   1   5   98.19   15.70
  -1   1  -5  107.89   10.50
  -2   1   5 1405.96   74.79
   2  -1   5 1487.35   58.39
   2   1  -5 1393.56   73.19
  -2  -1  -5 1438.96   64.99
   2  -1   5 1445.76   70.89
   2   1  -5 1404.56   61.49
  -2  -1   5 1373.46   72.99
  -2   1  -5 1433.46   48.90
   2   1   5 1428.26   63.59
   2   1   5 1470.25   62.29
  -2   1  -5 1399.26   65.39
  -2   1  -5 1550.64   73.89
  -3  -1  -5  186.58   25.00
  -3  -1  -5  188.98   14.30
  -3  -1  -5  184.88   16.60
   3   1  -5  177.88   34.20
  -3   1   5  219.48   41.60
   3  -1   5  200.08   26.60
   3   1   5  209.18   38.10
  -3   1  -5  190.48   31.60
  -3   1  -5  178.38   33.30
   3   1   5  185.78   25.10
  -3   1  -5  185.58   18.60
  -3  -1   5  140.39   29.30
   3  -1  -5  164.98   19.80
  -4  -1  -5   17.70    9.10
  -4  -1  -5   25.70    9.30
  -4  -1  -5   27.70   16.50
  -4   1   5   31.60   16.20
  -4  -1   5   38.40   18.80
   4   1   5   28.30   23.30
  -4   1  -5   37.40   17.80
   4  -1  -5   44.40   12.80
  -4   1  -5   15.50    8.40
  -4   1  -5   23.80   14.40
  -5   1   5  213.78   49.99
  -5  -1  -5  142.29   31.10
  -5  -1  -5  132.89   28.70
  -5   1  -5  161.28   37.30
  -5  -1   5  101.19   28.80
  -5   1  -5  124.59   31.40
  -6   1   5  271.47   79.09
  -6  -1  -5  361.26   44.20
  -6   1  -5  314.67   54.89
  -6  -1   5  402.86   82.49
  -6   1  -5  374.46   60.99
  -7  -1  -5   47.90   23.60
  -7   1   5   -0.50   20.70
  -7  -1   5   31.60   19.00
  -7   1  -5   57.69   26.40
  -7   1  -5   40.90   24.10
  -8  -1  -5   35.30   25.00
  -8   1  -5   22.30   22.20
  -8  -1   5   19.90   24.00
  -9  -1  -5   34.10   29.20
  -9   1  -5  -61.49   40.50
   0   2  -5 1731.13   76.09
   0  -2   5 1731.03   74.39
   0   2  -5 1611.74   63.09
   0  -2   5 1805.12   67.59
   1  -2   5  181.28   18.90
   1   2  -5  181.38   21.40
   1  -2   5  169.38   27.80
   1   2  -5  185.98   21.90
  -1   2  -5  159.08   27.10
  -1   2  -5  182.68   17.60
   1   2   5  170.88   15.60
  -1  -2   5  123.19   21.00
  -1  -2   5  192.78   23.10
   2   2  -5   14.10    7.40
   2  -2   5    2.50    5.10
   2   2  -5   11.20    7.50
  -2   2   5   -6.40    6.00
   2  -2   5   -0.80    4.60
  -2  -2   5   -8.50    3.60
   2   2   5    3.80    5.50
  -2   2  -5    9.40    8.70
  -2   2  -5   -7.70    3.10
   2   2   5    3.90    4.40
  -2   2  -5    2.70    6.30
   3   2  -5   -2.10    9.60
  -3   2   5  -11.10    8.60
   3   2   5    3.10    8.40
  -3   2  -5    8.50    6.40
  -3  -2   5   14.80   12.70
  -3   2  -5    8.90    5.20
   3   2   5   16.70   10.30
   3  -2  -5   10.30    6.50
  -3   2  -5   12.10   11.60
  -4   2   5 1527.75  110.09
  -4  -2  -5 1678.23   64.69
  -4   2  -5 1683.63  102.89
  -4  -2   5 1670.83  103.69
   4  -2  -5 1707.03   76.79
  -4   2  -5 1624.84   95.79
  -4   2  -5 1564.04   71.79
  -5  -2  -5   40.40   14.40
  -5   2   5   24.00   19.40
  -5  -2   5   32.20   14.30
  -5   2  -5   37.50   17.50
  -5   2  -5   82.19   27.70
  -6  -2  -5   57.09   19.50
  -6   2   5  101.79   45.20
  -6   2  -5   30.10   20.10
  -6  -2   5   23.60   13.50
  -6   2  -5   92.99   28.80
  -7   2   5   15.90   23.80
  -7  -2  -5   16.40   17.00
  -7  -2   5   -2.60   15.10
  -7   2  -5   25.50   19.50
  -7   2  -5  -10.10   13.10
  -8   2   5  352.66   81.49
  -8  -2  -5  243.28   43.70
  -8  -2   5  220.48   56.69
  -8   2  -5  277.07   56.69
  -8   2  -5  262.27   56.59
  -9  -2  -5   13.60   33.20
  -9   2  -5   22.30   35.20
   0   3  -5    0.90    5.70
   0   3  -5   -3.40    4.70
   0  -3   5    2.60    4.40
   1   3  -5 2568.74   99.49
   1  -3   5 2607.94   91.89
   1  -3   5 2455.75  106.09
   1   3  -5 2652.93  102.19
  -1  -3   5 2421.66   98.89
  -1   3  -5 2511.45  106.79
  -1   3  -5 2449.35   85.39
   1   3   5 2606.14   74.69
  -1  -3   5 2459.65   98.09
   2   3  -5  244.68   33.20
   2  -3   5  302.87   37.00
   2  -3   5  316.17   30.40
   2   3  -5  311.77   32.80
  -2  -3   5  296.97   34.20
  -2   3  -5  365.16   47.40
   2   3   5  353.36   27.90
   2   3   5  280.27   23.70
  -2   3  -5  288.17   26.10
  -3   3   5  882.11   73.99
   3   3  -5  870.51   60.39
   3   3   5  865.81   53.79
  -3  -3   5  991.20   71.09
  -3   3  -5  883.21   49.90
  -3   3  -5  803.82   64.29
   3   3   5  901.21   58.99
   3  -3  -5  894.71   45.40
  -3   3  -5  890.11   72.89
  -4   3   5  122.99   38.10
  -4  -3  -5  157.08   16.60
   4  -3  -5  186.28   25.10
  -4   3  -5  201.08   38.30
  -4   3  -5  140.39   38.40
  -4  -3   5  224.58   45.20
  -5   3   5  435.36   78.29
  -5  -3  -5  376.16   33.30
  -5   3  -5  402.56   51.99
  -5   3  -5  396.86   68.29
  -5  -3   5  480.65   56.49
  -6  -3  -5  102.29   24.60
  -6   3   5   86.29   35.40
  -6   3  -5  106.89   32.10
  -6  -3   5   68.49   30.40
  -6   3  -5   65.39   27.20
  -7  -3  -5  175.98   32.30
  -7   3   5  187.98   55.59
  -7   3  -5  132.39   39.70
  -7   3  -5  108.79   32.60
  -7  -3   5  161.88   41.40
  -8   3   5   -9.60   25.80
  -8  -3  -5   52.59   24.00
  -8   3  -5   48.90   39.10
  -8   3  -5   -4.10   20.60
  -8  -3   5    0.20   20.00
  -9  -3  -5   25.00   37.50
  -9   3  -5  -14.40   38.00
   0  -4   5   -9.30    6.60
   0   4  -5   11.80    9.10
   0   4   5    3.70    3.80
   0  -4   5    9.90    7.00
   0   4  -5  -10.90    4.50
   1  -4   5 2633.94  100.89
   1   4  -5 2613.04  116.09
   1   4  -5 2605.84  107.79
   1   4   5 2666.83   78.49
  -1   4  -5 2608.54   96.49
  -1   4  -5 2685.13  117.59
   1   4   5 2625.34   75.29
  -1  -4   5 2222.78  146.59
   2  -4   5   11.10    6.70
   2   4  -5    2.70    6.50
  -2   4  -5   10.40   10.00
  -2  -4   5    9.20    8.70
   2   4   5    8.30    6.30
   2   4   5   11.40    7.40
  -2   4  -5    7.20    5.90
   3   4  -5 1919.21   96.59
  -3   4  -5 1672.03   97.99
   3   4   5 1660.43   80.49
  -3  -4   5 1719.33   96.49
   3   4   5 1655.83   84.39
   3  -4  -5 1591.44   64.49
  -4   4   5   24.50   18.80
   4  -4  -5   43.90   15.40
  -4  -4   5   33.50   15.20
  -4   4  -5   13.40   11.20
  -4   4  -5   47.40   27.40
  -5   4   5  973.60   97.79
  -5  -4  -5  961.90   50.69
  -5   4  -5 1095.29  101.19
  -5  -4   5 1065.19   87.69
  -5   4  -5  951.00   81.39
  -6  -4  -5   46.60   16.30
  -6   4   5   44.80   31.20
  -6   4  -5   55.29   20.80
  -6  -4   5   76.69   31.00
  -6   4  -5   70.89   27.30
  -7  -4  -5  446.26   45.10
  -7   4   5  346.37   76.39
  -7  -4   5  411.16   73.99
  -7   4  -5  456.35   76.99
  -7   4  -5  388.56   76.89
  -8   4   5   64.69   42.20
  -8  -4   5  -11.50   26.50
  -8   4  -5    1.40   21.10
  -8   4  -5    9.10   36.20
   0   5   5    0.60    4.00
   0   5  -5    4.80    8.40
   0   5   5    1.60    4.00
   1   5  -5 1450.65   86.19
   1  -5   5 1720.93   82.89
   1   5   5 1467.45   61.09
  -1  -5   5 1533.95   82.89
   1   5   5 1573.04   64.49
  -1   5  -5 1513.85   91.69
   2   5  -5  963.30   70.29
   2  -5   5 1045.60   66.69
   2   5   5 1045.00   55.69
  -2  -5   5  980.60   68.49
  -2   5  -5 1101.09   78.59
   2   5   5 1046.60   72.19
   3   5  -5  906.41   68.39
  -3   5   5  908.71   42.00
  -3   5  -5  772.42   68.09
  -3  -5   5  806.42   67.49
   3  -5  -5  824.32   44.40
  -4   5   5   36.60   22.20
  -4   5   5   32.80   11.90
   4   5  -5   36.20   18.10
  -4   5  -5   47.00   17.70
  -4   5  -5   36.70   24.80
  -4  -5   5   77.79   24.80
   5   5  -5  759.02   69.69
  -5   5   5  759.52   88.19
  -5  -5  -5  720.93   41.90
  -5   5  -5  788.22   89.09
  -5   5  -5  770.62   73.39
  -5  -5   5  752.62   71.89
  -6   5   5  237.58   59.69
  -6  -5  -5  315.17   33.10
  -6   5  -5  344.87   70.39
  -6   5  -5  319.07   58.09
  -6  -5   5  263.67   49.90
  -7  -5  -5  123.89   29.30
  -7   5   5  122.69   48.60
  -7  -5   5  124.79   34.60
  -7   5  -5  116.99   38.90
  -7   5  -5  101.59   38.50
  -8   5  -5   27.80   46.30
   0  -6   5 4520.65  156.88
   0   6   5 4378.26  124.89
   0   6   5 4396.56  131.89
   0   6  -5 4180.98  169.98
   1   6  -5  150.98   35.60
  -1   6   5  182.78   18.20
   1  -6   5  169.68   31.60
  -1   6   5  157.48   25.40
  -1   6  -5  166.58   37.60
   1   6   5  198.08   23.30
  -1  -6   5  139.89   27.90
   1   6   5  165.28   26.30
   2  -6   5   13.00    9.10
   2   6  -5    2.90    8.70
  -2   6   5   34.00    9.50
  -2  -6   5   34.40   15.50
   2  -6  -5   17.00    8.30
  -2   6  -5   42.30   16.40
  -3   6   5  277.97   25.40
   3   6  -5  433.16   51.49
   3  -6  -5  360.66   30.10
  -3   6  -5  298.37   52.49
  -3  -6   5  323.47   42.20
   4   6  -5 1901.11  113.69
  -4   6   5 1820.72   77.79
  -4  -6   5 1918.81  116.29
   4  -6  -5 1838.02   87.09
  -4   6  -5 1835.82  137.59
  -5   6   5  -19.40   18.50
   5   6  -5   17.30   11.10
  -5   6  -5   25.50   14.50
  -5   6  -5   15.50   24.20
  -5  -6   5   45.80   16.90
  -6  -6  -5   -0.30   13.80
   6   6  -5    2.00   16.40
  -6   6   5    5.10   31.10
  -6   6  -5    5.20   20.30
  -6  -6   5   11.50   12.20
  -6   6  -5   18.80   24.00
   7   6  -5   71.49   28.20
  -7   6   5  126.19   46.50
  -7  -6  -5  117.29   30.40
  -7   6  -5  129.19   37.50
  -7  -6   5   82.99   38.80
  -7   6  -5    4.90   48.20
   0  -7   5   -4.90    6.50
   0   7   5  -15.50    5.80
   0   7  -5    4.90   10.20
   1  -7   5   18.50    9.80
   1   7  -5   49.50   19.50
  -1   7  -5   22.10   17.80
   1   7   5   25.90   11.70
  -1  -7   5   -3.50    8.60
   2   7  -5 2333.67  128.39
  -2   7   5 2350.16   82.69
   2  -7   5 2440.06  119.39
   2   7   5 2464.25  106.29
  -2  -7   5 2559.24  123.69
  -2   7  -5 2508.45  138.49
  -3   7   5    7.80    8.50
   3   7  -5   24.50   14.60
  -3  -7   5   19.10   16.00
   3  -7  -5   17.90   13.00
   4   7  -5   -1.60   10.70
  -4   7   5    5.10   10.80
  -4  -7   5   -8.20    9.70
   4  -7  -5    6.80   16.00
  -4   7  -5   -2.30   11.60
  -5   7   5  263.57   69.09
   5   7  -5  166.78   36.40
  -5   7   5  170.28   30.10
  -5   7  -5  164.68   42.40
  -5   7  -5  112.59   41.80
  -5  -7   5  123.69   33.80
  -6   7   5  679.83  115.89
   6   7  -5 1243.98  155.88
  -6   7  -5  885.31   91.89
  -6   7  -5  753.72  105.09
  -6  -7   5  751.02   80.19
  -7   7   5  -28.60   34.70
  -7   7  -5  -18.50   26.50
  -7  -7   5   18.90   22.60
  -7   7  -5   -0.10   38.70
   0  -8   5 1102.79   78.99
   0   8   5 1128.09   64.59
   1   8  -5  301.47   53.69
   1  -8   5  309.47   40.40
  -1   8   5  305.77   31.30
  -1  -8   5  270.97   37.30
   1   8   5  315.77   36.00
  -1   8  -5  325.37   66.49
  -2   8   5    4.10    8.80
   2   8  -5   13.40   11.80
   2  -8   5   -2.50    8.50
  -2   8  -5    7.00   14.90
  -2  -8   5   19.80   13.50
   2   8   5    3.80   12.90
   3   8  -5  524.65   63.49
  -3   8   5  462.55   38.60
   3   8   5  448.76   50.09
  -3  -8   5  449.56   53.19
   3  -8  -5  457.15   41.70
  -3   8  -5  497.95   63.89
   4   8  -5  401.16   66.39
  -4   8   5  443.86   48.30
  -4  -8   5  314.37   56.69
  -4   8  -5  375.66   65.59
  -5   8   5   73.89   47.20
   5   8  -5   59.39   27.60
  -5   8   5   31.50   18.90
  -5   8  -5   61.89   32.20
  -5  -8   5   27.10   23.50
  -5   8  -5  -17.40   26.30
   6   8  -5   21.90   18.50
  -6   8   5   41.00   43.90
  -6   8  -5   30.90   36.80
  -6   8  -5   49.00   26.80
  -6  -8   5  -19.00   19.50
   0   9  -5   -3.40   11.20
   0  -9   5   -5.90    8.40
   0   9   5   -5.60   10.70
   1   9  -5  585.64   69.29
   1  -9   5  551.14   56.69
  -1   9   5  548.35   45.30
  -1  -9   5  541.95   57.69
  -1   9  -5  509.15   68.39
   1   9   5  517.95   50.39
  -2   9   5   34.60   14.90
   2   9  -5   97.39   27.80
  -2  -9   5   55.69   19.90
  -2   9  -5   43.80   26.80
   2   9   5   31.80   16.60
   3   9  -5  419.46   71.49
   3   9   5  379.66   43.90
  -3  -9   5  423.86   51.69
  -3   9  -5  306.37   60.39
  -4   9   5    8.40   14.40
   4   9  -5    7.60   13.10
  -4   9  -5   28.00   24.00
   4   9   5   -3.70   11.90
  -4  -9   5   11.80   17.60
  -5   9   5  410.06   42.70
   5   9  -5  384.96   68.49
   5   9   5  368.96   64.99
  -5  -9   5  329.97   59.99
  -5   9  -5  455.25   91.59
  -5   9  -5  322.07   64.99
   0  10   5   43.70   19.40
   0  10  -5   13.50   16.50
   0 -10   5   -3.20   10.60
  -1  10   5  211.08   36.00
   1 -10   5  185.48   42.80
   1  10  -5  206.28   52.09
  -1 -10   5  233.08   47.00
  -1  10  -5  150.28   49.20
   1  10   5  183.48   35.90
  -2  10   5    7.50   16.40
   2  10  -5   49.70   25.80
   2  10   5   -8.40   15.70
  -2 -10   5    3.30   14.50
  -2  10  -5  -12.50   21.70
  -3  10   5  139.19   28.80
   3  10  -5  200.78   65.79
   3  10   5  109.19   35.80
  -3 -10   5  179.28   43.80
  -3  10  -5  215.18   53.79
   4  10  -5   16.50   20.80
  -4 -10   5   -0.90   15.10
   4  10   5  -24.10   15.10
  -4  10  -5  -37.60   18.70
  -5  10   5   53.59   50.99
   0 -11   5   39.20   23.10
   0  11  -5   18.30   28.10
   0  11   5   -7.20   17.70
  -1  11   5   47.40   21.00
   1  11  -5   56.49   32.70
  -1 -11   5  -15.70   15.20
  -1  11  -5  -10.80   24.30
   1  11   5   23.00   23.00
   2  11  -5   64.79   30.90
  -2 -11   5   56.39   20.40
  -2  11  -5   85.39   33.70
   2  11   5  148.69   38.80
  -3  11  -5   22.70   22.90
   3  11   5    6.60   21.10
  -3 -11   5   52.79   20.60
   4  11   5  -11.20   25.10
   2  12   5  -17.70   24.10
   3  12   5   69.39   27.30
   0   0   6 9016.70  203.38
   0   0  -6 9105.49  205.28
  -1   0  -6  185.38   21.50
   1   0  -6  207.88   19.60
   1   0   6  198.38   22.40
   1   0   6  173.38   13.50
  -1   0   6  192.18   20.80
  -2   0   6    6.90    8.20
  -2   0  -6   27.60   12.80
   2   0  -6   36.40    9.60
   2   0  -6   19.70    9.60
   2   0   6   16.00   10.60
   2   0   6   13.90    5.70
   2   0   6   16.90    8.10
   3   0   6  327.47   37.10
   3   0   6  396.36   42.20
  -3   0   6  400.16   45.30
   3   0  -6  388.06   42.00
  -3   0  -6  430.96   27.50
  -3   0  -6  422.06   22.00
  -3   0  -6  456.05   48.40
  -4   0  -6 4611.44  168.98
  -4   0  -6 4434.46  136.59
   4   0  -6 4332.97  143.09
  -4   0  -6 4386.36  116.39
   4   0  -6 4228.88  172.58
  -4   0   6 4137.19  179.68
  -5   0  -6   24.30   11.10
  -5   0  -6   45.50   14.10
  -5   0  -6   32.40   13.50
  -5   0   6   35.10   23.50
  -6   0   6   12.50   15.20
  -6   0  -6   16.50   16.10
  -6   0  -6   19.70   16.20
  -7   0   6   13.60   19.60
  -7   0  -6  138.69   34.80
  -8   0   6  656.13   91.09
  -8   0  -6  777.32   73.79
  -9   0  -6   31.20   34.30
   0   1  -6   -5.50    2.40
   0  -1   6    3.20    3.40
   0  -1  -6    5.00    3.80
   0  -1   6   -0.40    3.50
   0   1   6   -5.30    2.80
   1  -1   6  434.56   36.30
  -1  -1  -6  440.66   30.30
   1   1  -6  446.46   33.00
  -1   1   6  415.06   29.50
   1  -1   6  446.06   27.00
   1   1  -6  426.86   30.30
  -1   1  -6  465.75   37.50
  -1  -1   6  400.86   32.60
   1  -1  -6  453.35   23.30
  -1  -1   6  434.26   32.50
   1   1   6  437.26   29.60
   2   1  -6 5216.78  161.88
  -2  -1  -6 5331.67  151.88
   2  -1   6 5350.26  164.78
   2   1  -6 5483.05  148.29
   2  -1   6 5318.27  138.89
  -2   1   6 5467.65  168.18
  -2   1  -6 5431.26  122.09
   2  -1  -6 5348.17  126.09
  -2  -1   6 5465.95  167.68
   2   1   6 5514.65  152.88
  -2   1  -6 5371.86  165.48
  -2   1  -6 5362.56  140.79
   2   1   6 5171.38  143.59
  -3   1   6  549.54   54.09
  -3  -1  -6  473.25   42.50
   3   1  -6  395.16   46.50
  -3   1  -6  467.85   45.70
  -3   1  -6  424.06   38.00
  -3  -1   6  447.16   47.30
  -3   1  -6  504.35   29.00
   3  -1  -6  466.55   32.90
   3   1   6  497.85   42.80
   3   1   6  456.85   44.70
  -4   1   6   11.70   15.60
  -4  -1  -6    5.60    5.40
  -4  -1  -6   20.50   12.40
  -4  -1  -6   24.70    6.80
  -4   1  -6    3.70    9.30
  -4  -1   6   18.10   11.40
   4  -1  -6   17.50   11.80
  -4   1  -6   30.80   10.20
  -4   1  -6    4.30   10.40
  -5  -1  -6  778.32   51.59
  -5  -1  -6  775.62   68.29
  -5   1   6  822.32   81.09
  -5  -1  -6  817.82   45.30
  -5   1  -6  780.52   66.39
  -5   1  -6  690.93   68.29
  -5  -1   6  875.21   80.89
  -6  -1  -6 1017.40   67.79
  -6   1   6  974.10   99.19
  -6   1  -6  971.80   83.19
  -6  -1   6  997.90   93.49
  -6   1  -6  860.21   76.19
  -7  -1  -6   64.79   23.50
  -7   1   6   32.60   26.90
  -7   1  -6   23.50   23.10
  -7  -1   6   92.69   36.70
  -7   1  -6   53.29   22.70
  -8  -1  -6   50.39   23.90
  -8   1   6  -19.40   21.50
  -8  -1   6   18.00   15.90
  -8   1  -6   18.20   25.80
  -9  -1  -6  127.69   43.90
  -9   1  -6  147.79   47.50
   0  -2   6   49.60   14.70
   0   2  -6   71.99   19.00
   0   2  -6   69.59   14.80
   0  -2   6   80.09   16.60
  -1  -2  -6 2269.27   71.79
   1   2  -6 2101.39   85.09
   1   2  -6 2366.86   91.39
   1  -2   6 2251.77   96.29
   1  -2   6 2265.27   79.59
  -1   2  -6 2234.28   95.89
  -1  -2   6 2173.08   88.09
  -1  -2   6 2329.57   90.79
   1   2   6 2228.68   71.69
  -1   2  -6 2129.09   71.39
   2  -2   6   27.40   10.30
  -2  -2  -6    7.80    7.30
   2   2  -6   21.80   10.80
   2   2  -6   17.60   11.20
   2  -2   6   25.90   12.20
  -2   2   6   11.00    8.50
  -2   2  -6   21.70    7.50
   2   2   6   26.40    8.10
  -2   2  -6   15.80   12.00
   2   2   6   20.10    7.80
  -2  -2   6   12.50    9.20
  -2   2  -6    8.70    9.80
   3   2  -6 1764.52   99.79
  -3   2   6 1886.91  106.39
   3   2  -6 1453.75  100.99
  -3   2  -6 1679.53   66.19
  -3   2  -6 1632.64   91.19
   3  -2  -6 1756.62   64.99
  -3   2  -6 1779.52   94.59
   3   2   6 1737.43   80.39
  -3  -2   6 1931.01  101.69
   3   2   6 1757.32   85.99
  -4   2   6  205.88   47.70
  -4   2  -6  201.08   41.60
  -4  -2   6  254.37   47.40
   4  -2  -6  213.38   25.80
  -4   2  -6  219.68   25.20
  -5  -2  -6  296.17   24.80
  -5  -2  -6  282.37   26.50
  -5   2   6  334.27   64.09
  -5   2  -6  247.88   49.99
  -5   2  -6  301.27   51.29
  -5  -2   6  265.17   48.90
  -6  -2  -6   19.50   13.60
  -6   2   6   26.40   23.30
  -6  -2  -6   29.30   13.00
  -6   2  -6   13.50   18.10
  -6  -2   6   26.20   14.80
  -6   2  -6   25.00   18.60
  -7   2   6  395.56   81.29
  -7  -2  -6  307.97   42.20
  -7   2  -6  379.06   70.89
  -7   2  -6  401.76   65.99
  -7  -2   6  323.17   61.79
  -8  -2  -6    1.60   22.00
  -8   2   6   83.79   29.00
  -8  -2   6   59.49   37.40
  -8   2  -6   37.80   31.20
  -8   2  -6   -2.50   20.60
  -9   2  -6  -19.00   32.70
   0  -3   6    9.80    7.50
   0  -3   6    4.20    6.50
   0   3  -6    9.80    6.80
   0   3  -6   -3.10    6.30
   1  -3   6 2493.95   93.19
   1  -3   6 2539.05  109.69
   1   3  -6 2585.24  102.79
   1   3  -6 2388.36  101.89
   1   3   6 2496.25   75.09
  -1   3  -6 2549.44  112.49
  -1  -3   6 2561.74  103.19
  -1  -3   6 2648.03  106.29
  -1   3  -6 2711.03   91.69
   2   3  -6  369.76   39.80
   2  -3   6  313.47   30.60
   2   3  -6  344.47   65.89
   2   3   6  308.27   23.70
  -2   3  -6  294.47   37.10
   2   3   6  361.76   30.00
  -2  -3   6  325.37   70.09
  -2   3  -6  294.57   27.60
   3   3  -6 1644.74   86.19
  -3   3   6 1728.23  104.19
   3   3   6 1639.94   77.99
   3  -3  -6 1592.24   60.19
  -3   3  -6 1668.03   96.99
  -3  -3   6 1644.94   95.49
  -3   3  -6 1639.34   71.29
   3   3   6 1619.64   80.39
  -3   3  -6 1587.54   99.29
  -4   3   6   70.69   33.80
   4  -3  -6   85.19   18.70
  -4   3  -6  101.29   31.30
  -4  -3   6   84.09   25.70
  -4   3  -6   86.49   26.70
  -5   3   6 1317.37  110.09
  -5   3  -6 1147.29   90.29
   5  -3  -6 1067.99   69.69
  -5  -3   6 1104.79   91.99
  -5   3  -6 1131.99   94.79
  -6  -3  -6    3.80   10.30
  -6   3   6   16.90   17.70
  -6   3  -6   11.40   19.40
  -6   3  -6  -26.80   10.10
  -6  -3   6   23.30   15.60
  -7  -3  -6  309.87   39.30
  -7   3   6  378.06   80.19
  -7   3  -6  249.08   54.39
  -7   3  -6  333.97   66.29
  -7  -3   6  250.77   59.29
  -8  -3  -6   30.30   25.20
  -8   3   6   65.49   30.80
  -8  -3   6   19.30   28.10
  -8   3  -6   53.99   33.70
  -8   3  -6   31.70   24.50
  -9   3  -6   86.99   53.99
   0   4  -6  106.99   22.10
   0  -4   6   81.49   19.30
   0   4  -6  115.79   27.90
   1   4  -6  446.96   42.60
   1  -4   6  457.95   39.20
   1   4  -6  471.75   44.50
   1   4   6  448.36   24.20
  -1   4  -6  480.65   38.90
   1   4   6  415.36   26.60
  -1  -4   6  444.06   41.60
  -1   4  -6  506.15   49.50
   2  -4   6    0.70    4.10
   2   4  -6    6.10    6.90
  -2   4  -6   -9.20    5.40
   2   4   6    8.50    6.70
   2   4   6    3.10    6.00
  -2  -4   6    3.40    7.80
  -2   4  -6   -3.70    7.00
  -3   4   6  215.38   53.29
   3   4  -6  145.19   32.60
  -3   4  -6  161.28   34.40
   3   4   6  164.38   30.40
  -3  -4   6  180.18   37.60
  -3   4  -6  228.28   45.70
  -4   4   6  433.16   58.79
   4   4  -6  504.05   51.49
  -4  -4   6  431.76   52.99
  -4   4  -6  555.74   65.99
  -4   4  -6  382.06   48.40
   4  -4  -6  484.25   37.90
  -5   4   6   -3.10   15.80
  -5  -4   6   49.80   20.30
   5  -4  -6   30.40   19.90
  -5   4  -6   58.49   26.30
  -5   4  -6    9.60   18.20
  -6   4   6  -53.79   20.90
  -6  -4  -6   37.60   13.50
  -6  -4   6   41.90   22.00
  -6   4  -6   42.50   24.00
  -6   4  -6  -24.90   11.80
  -7  -4  -6   45.20   20.30
  -7   4   6  105.29   50.69
  -7   4  -6   63.89   28.60
  -7  -4   6   68.89   34.80
  -7   4  -6   58.59   35.00
  -8   4   6   27.70   37.00
  -8   4  -6   86.09   50.99
  -8   4  -6   35.80   35.70
   0   5  -6  -13.70    5.20
   0   5   6    8.20    5.90
   0  -5   6    1.90    9.00
   1   5  -6    7.80    8.10
   1  -5   6   18.40    9.70
   1   5   6    5.20    7.40
  -1  -5   6   13.40   10.60
  -1   5  -6    7.40    9.20
   1   5   6    9.10    6.50
   2   5  -6 1328.87   85.09
   2  -5   6 1373.86   78.99
  -2  -5   6 1361.86   84.29
  -2   5  -6 1358.76   92.49
   2   5   6 1362.36   64.19
   3   5  -6   30.50   15.80
  -3   5  -6   26.90   14.20
  -3  -5   6   54.29   17.30
   3   5   6   40.00   18.00
  -4   5   6   21.90   18.40
   4   5  -6   25.80   17.90
   4  -5  -6   13.30   12.50
  -4  -5   6   55.19   18.90
  -4   5  -6   -1.40   16.70
  -4   5  -6   22.90   14.30
   5   5  -6   -9.60   13.30
  -5   5   6   58.09   28.40
  -5  -5   6   45.90   19.10
  -5   5  -6   -0.50   21.70
  -5   5  -6   31.00   16.80
   5  -5  -6  -26.70   16.60
   6   5  -6  257.37   54.79
  -6   5   6  295.57   67.39
  -6   5  -6  243.68   54.19
  -6   5  -6  256.47   60.49
  -6  -5   6  157.78   41.80
  -7   5   6   -1.90   31.00
  -7   5  -6    4.30   19.30
  -7   5  -6  -20.60   24.10
  -7  -5   6  -11.90   21.20
  -8   5  -6  -52.69   34.80
   0  -6   6   49.90   15.90
   0   6   6   61.39   15.10
   0   6   6   83.39   13.60
   1  -6   6   32.30   15.90
  -1   6   6   43.00   13.30
   1   6  -6   31.30   20.00
  -1  -6   6   30.00   14.10
   1   6   6   34.50   11.90
  -1   6  -6   29.60   12.70
   1   6   6   23.90    9.80
   1   6   6   22.90   10.40
   2  -6   6  -13.50    7.10
   2   6  -6    8.20   10.80
  -2  -6   6    1.50    7.40
  -2   6  -6   -9.90   10.00
   2   6   6    1.60    8.10
   3   6  -6   49.60   22.30
  -3  -6   6   32.50   19.90
  -3   6  -6   62.59   27.10
  -4   6   6  304.37   62.49
   4   6  -6  190.48   41.10
   4  -6  -6  277.97   31.00
  -4   6  -6  277.67   60.19
  -4  -6   6  203.28   41.00
  -5   6   6   53.79   38.10
   5   6  -6   18.60   15.70
   5  -6  -6   39.60   25.40
  -5   6  -6   57.29   38.40
  -5   6  -6   29.40   19.60
  -5  -6   6   54.39   26.80
  -6   6   6   21.40   29.30
  -6   6  -6  -33.10   14.90
  -6  -6   6   18.40   20.00
  -6   6  -6   31.00   27.30
   7   6  -6   25.60   19.10
  -7   6   6  -23.70   34.90
  -7   6  -6  -38.80   22.20
  -7  -6   6  -12.30   17.20
  -7   6  -6  -94.39   52.59
   0   7   6  -10.50    5.90
   0   7  -6    9.90   11.10
   0  -7   6   10.50    7.80
   1  -7   6   -0.70   11.80
   1   7  -6    5.50    7.50
   1   7   6   18.20    8.40
  -1   7  -6    8.50   14.10
  -1  -7   6   15.40   11.90
   2  -7   6   49.60   25.40
  -2   7  -6   29.00   18.60
   2   7   6   76.19   22.00
   3   7  -6   41.20   19.50
  -3   7  -6   12.50   12.40
  -3  -7   6    5.50    9.90
  -4   7   6    1.60    9.10
   4   7  -6   52.19   22.70
  -4   7  -6   -1.60   11.40
  -4  -7   6  -20.60   10.90
   4  -7  -6   18.40   16.70
  -5   7   6  -21.00   20.30
   5   7  -6   32.90   17.50
  -5  -7   6    5.00   12.20
  -5   7  -6   16.40   18.80
  -5   7  -6   40.00   27.60
  -6   7   6   67.79   49.99
   6   7  -6   50.59   25.40
  -6   7  -6   68.79   44.00
  -6  -7   6   31.20   23.60
  -6   7  -6   70.69   31.50
  -7   7   6   78.99   55.29
  -7   7  -6   59.19   47.70
   0   8  -6  969.70   86.39
   0   8   6 1237.18   62.09
   0  -8   6 1046.30   79.09
   1  -8   6    8.80   13.70
   1   8  -6    0.40    8.50
  -1   8   6   12.90    8.50
  -1   8  -6   26.10   17.70
   1   8   6    5.40   13.20
  -1  -8   6  -17.50   10.10
   2   8  -6  -14.80    9.50
   2  -8   6  -11.70    4.90
   2   8   6   -5.70   10.00
  -2   8  -6   10.40   10.80
   3   8  -6   -7.40    7.80
   3   8   6    9.50   11.40
  -3   8  -6   18.00   19.30
  -3  -8   6   -6.10   12.00
   4   8  -6  323.57   62.69
  -4   8   6  529.25   39.50
  -4  -8   6  557.34   61.59
  -4   8  -6  417.56   71.69
  -5   8   6   31.50   29.00
   5   8  -6   66.99   42.90
  -5  -8   6  -10.90   17.40
  -5   8  -6    7.40   19.60
  -6   8   6   13.80   31.10
   6   8  -6    0.60   24.30
  -6  -8   6  -17.30   21.80
  -6   8  -6   39.80   26.90
  -6   8  -6  -18.00   36.70
   0  -9   6  -23.30    9.40
   0   9   6    0.00   11.60
   0   9  -6   -8.80    8.80
   1  -9   6   89.19   23.70
   1   9  -6   82.19   31.30
  -1   9   6   90.49   20.30
  -1   9  -6  107.79   39.20
  -1  -9   6   77.39   25.10
   1   9   6  127.19   29.90
   2   9  -6  259.37   52.49
  -2   9   6  248.78   26.50
   2   9   6  333.97   39.70
  -2  -9   6  185.18   43.50
  -2   9  -6  252.07   52.09
   3   9  -6   17.40   20.00
  -3  -9   6   14.60   16.20
  -3   9  -6   40.90   22.40
   3   9   6   39.70   17.20
   4   9  -6   33.90   20.00
  -4   9  -6   17.90   22.30
   4   9   6   44.50   18.70
  -5   9   6   61.29   46.80
   5   9  -6   29.70   24.10
  -5   9  -6   52.49   27.20
  -5   9  -6   33.30   36.30
  -5  -9   6   49.30   29.10
   5   9   6   21.50   24.60
   0 -10   6   48.90   21.60
   0  10   6   75.89   24.00
   0  10  -6   42.30   23.10
   1  10  -6  269.97   56.89
   1 -10   6  200.68   43.00
  -1  10   6  297.57   35.10
  -1 -10   6  362.96   49.40
   1  10   6  252.47   38.20
  -1  10  -6  289.77   63.19
  -2  10   6    1.50   15.20
   2  10  -6  -44.30   22.70
   2  10   6   -1.50   18.90
  -2 -10   6    4.50   13.80
  -2  10  -6  -12.80   20.00
   3  10  -6  305.17   63.39
   3  10   6  251.67   47.30
  -3 -10   6  236.18   50.69
  -3  10  -6  219.58   55.59
  -4  10  -6   34.30   33.50
   4  10   6   88.19   27.30
  -4 -10   6    2.60   20.50
   5  10   6  266.47   77.29
   0  11  -6  -37.00   22.10
   0 -11   6  -12.40   17.80
   1 -11   6  460.35   60.59
   1  11  -6  256.77   56.69
  -1  11  -6  330.67   70.29
   1  11   6  377.96   50.19
  -1 -11   6  455.75   56.69
   2  11  -6    3.90   25.80
  -2 -11   6   33.80   21.80
   2  11   6   15.50   36.30
  -2  11  -6   59.79   31.10
   3  11   6  203.68   42.20
   4  11   6   14.60   30.10
   0   0   7    4.30    4.20
   0   0   7   -4.20    3.10
   0   0  -7    4.50    4.30
  -1   0   7   -5.30    3.70
   1   0   7   -4.50    3.70
   1   0   7    7.30    5.30
   1   0  -7    3.50    3.10
  -1   0  -7   -4.00    5.80
   2   0  -7    6.20    3.70
  -2   0   7    9.70    7.80
  -3   0  -7    8.30    8.40
   3   0  -7   -2.60    4.00
   3   0   7   -3.30   10.40
  -3   0   7    8.20    8.90
   3   0  -7   11.80   11.70
  -4   0  -7    0.10    9.10
  -4   0   7  -13.40    9.10
  -4   0  -7    0.70    4.70
  -4   0  -7   -6.10    4.90
   4   0  -7   -0.90   16.60
  -5   0   7  -23.70    9.60
  -5   0  -7   16.10   11.50
  -5   0  -7   -3.60    8.20
  -5   0  -7  -12.80    9.50
  -6   0   7  -24.60   10.70
  -6   0  -7  -13.40   12.30
  -6   0  -7  -13.30   12.10
  -7   0  -7   -1.40   16.00
  -7   0   7  -10.00   18.50
  -8   0   7   10.10   26.00
  -8   0  -7   14.40   32.20
   0  -1   7   -0.20    4.50
   0  -1  -7    4.80    3.40
   0   1   7   -0.70    3.60
   0  -1   7   -9.30    3.50
   0   1  -7    9.40    6.50
   1  -1   7   76.89   14.30
   1   1  -7   66.79   16.80
  -1  -1  -7   64.29   14.90
   1  -1   7   55.29   17.00
  -1   1   7   90.29   19.60
  -1   1  -7   88.89   21.10
   1  -1  -7   59.99   11.70
   1   1   7   75.49   15.90
  -1  -1   7   67.39   16.30
  -1  -1   7   63.99   16.50
   2   1  -7 2442.56   97.09
  -2   1   7 2339.07  100.99
   2   1  -7 2466.55   91.09
   2  -1   7 2295.17  100.79
  -2  -1  -7 2302.17   92.19
   2  -1   7 2353.86   81.29
   2   1   7 2311.37   85.49
  -2  -1   7 2324.37  101.69
   2  -1  -7 2375.76   72.49
  -2   1  -7 2490.85  105.59
   2   1   7 2245.88   90.59
  -3   1   7  109.99   28.80
   3   1  -7   92.19   23.50
   3   1  -7   86.19   20.60
  -3  -1  -7   71.69   26.60
  -3   1  -7   66.19   15.10
   3   1   7   60.19   20.10
   3  -1  -7   82.19   16.90
  -3   1  -7   80.59   12.70
  -3  -1   7   81.39   30.40
  -3   1  -7   72.29   22.60
  -4  -1  -7   -8.20    6.70
  -4   1   7  -12.90    9.30
  -4  -1   7    2.90    8.40
  -4   1  -7   -0.70   10.20
  -4   1  -7    8.40   10.20
   4  -1  -7    1.20   10.00
  -5   1   7   -2.10   13.80
  -5  -1  -7  -11.80    6.80
  -5  -1  -7   17.30   12.00
  -5   1  -7   -1.90    9.00
  -5   1  -7   -6.10    8.80
  -5  -1   7   -4.40    8.90
  -5   1  -7   -4.60   11.70
  -6   1   7  532.55   73.59
  -6  -1  -7  565.54   40.50
  -6   1  -7  580.54   65.69
  -6  -1   7  521.35   69.39
  -6   1  -7  640.54   60.59
  -7  -1  -7   16.20   19.00
  -7   1   7   15.40   25.30
  -7  -1   7   82.89   30.30
  -7   1  -7  -11.90   18.60
  -7   1  -7   -2.50   18.30
  -8  -1  -7   20.00   24.90
  -8   1   7    5.00   26.60
  -9   1  -7   49.50   41.20
   0  -2   7 2230.68   93.09
   0   2  -7 1994.30   91.39
   0   2  -7 2226.78   76.79
   0  -2   7 2168.38   82.49
   1   2  -7   58.19   15.20
   1   2  -7   50.59   16.30
   1  -2   7   42.10   12.30
   1  -2   7   75.29   20.20
  -1  -2  -7   57.69   12.20
   1   2   7   44.70   11.30
  -1  -2   7   35.90   13.30
  -1   2  -7   38.60   10.80
  -1   2  -7   48.00   18.10
  -1  -2   7   45.60   13.50
  -1   2  -7   54.59   15.00
   2   2  -7   14.90   10.90
   2  -2   7    5.20    5.50
  -2   2   7   -0.70    6.90
  -2  -2  -7    6.50    5.50
   2   2  -7   17.50   10.20
  -2   2  -7   10.30    6.90
  -2   2  -7    2.70    7.10
  -2  -2   7    5.40    9.10
   2   2   7    7.20    7.50
  -3  -2  -7   16.30    9.00
   3   2  -7    5.00    6.60
   3   2  -7   23.70   15.50
  -3   2   7    6.80   10.20
   3  -2  -7  -11.10    5.30
  -3  -2   7    1.60    8.20
   3   2   7    0.60    9.70
  -3   2  -7   10.40    9.50
  -3   2  -7    3.90    7.30
   3   2   7    4.10   10.00
  -3   2  -7    7.00    9.80
   4   2  -7  909.41   64.89
  -4   2   7  743.13   76.09
  -4   2  -7  869.21   48.10
  -4   2  -7  867.71   66.79
  -4   2  -7  801.12   70.09
   4  -2  -7  774.12   49.00
  -4  -2   7  717.63   68.69
  -5   2   7  101.99   30.70
  -5   2  -7   62.19   24.00
  -5  -2   7    3.90   13.70
  -5   2  -7   38.40   21.60
  -6   2   7   -4.40   20.60
  -6  -2  -7   10.60   11.40
  -6   2  -7   24.10   11.20
  -6  -2   7   12.00   16.50
  -6   2  -7   12.50   17.50
  -7  -2  -7    2.30   14.00
  -7   2   7  -26.10   24.20
  -7   2  -7    0.30   15.80
  -7   2  -7    0.80   32.70
  -7  -2   7   33.70   22.00
  -8   2   7  116.99   47.70
  -8  -2  -7  174.18   55.69
  -8  -2   7  105.89   45.40
  -8   2  -7  130.19   41.70
  -8   2  -7  123.49   38.50
  -9   2  -7   36.50   44.10
   0   3  -7   -8.20    6.50
   0  -3   7    7.50    8.70
   1  -3   7  603.74   43.10
   1   3  -7  587.54   46.60
   1   3  -7  542.25   61.49
  -1   3  -7  610.04   52.89
  -1  -3   7  562.34   46.80
  -1   3  -7  618.64   40.10
   1   3   7  589.84   32.80
   2   3  -7  346.97   40.50
   2   3  -7  363.16   38.20
  -2   3  -7  269.57   36.60
   2   3   7  320.27   29.00
  -2   3  -7  344.57   29.10
  -2  -3   7  309.77   37.60
  -2   3  -7  329.17   39.90
  -3   3   7  419.36   51.09
   3   3  -7  453.65   45.40
  -3   3  -7  371.96   33.60
  -3  -3   7  437.36   48.50
   3   3   7  453.95   39.90
  -3   3  -7  380.36   46.30
  -3   3  -7  339.67   44.90
   3   3   7  421.46   37.90
  -4   3   7   26.00   17.60
   4   3  -7  -13.40    6.50
  -4   3  -7   20.90   15.90
  -4  -3   7  -11.40    9.80
   4  -3  -7   14.60   11.00
  -4   3  -7    1.10   14.60
  -5   3   7  577.34   75.29
  -5   3  -7  424.56   57.99
  -5   3  -7  508.55   58.69
   5  -3  -7  434.06   44.20
  -6   3   7  105.09   42.00
  -6   3  -7   69.29   28.50
  -6  -3   7  108.39   33.40
  -6   3  -7   45.40   25.70
  -7   3   7  101.79   38.80
  -7   3  -7   78.89   31.20
  -7   3  -7   88.59   34.30
  -7  -3   7   37.00   23.80
  -8   3   7   21.50   36.50
  -8   3  -7   21.90   31.40
  -9   3  -7   -1.90   45.50
   0   4  -7  443.76   40.60
   0  -4   7  497.75   43.30
   0   4  -7  441.16   46.90
   1   4  -7 2093.39  105.29
   1  -4   7 2001.80   91.49
   1   4  -7 1976.20   96.89
   1   4   7 2026.60   65.89
  -1   4  -7 2084.29  109.99
  -1   4  -7 2002.80   86.09
  -1  -4   7 1951.60   95.99
   2   4  -7   32.00   13.80
   2  -4   7    8.80    8.70
   2   4   7   16.20    8.40
  -2   4  -7    9.40   10.20
  -2   4  -7    8.60    9.50
   2   4   7  -10.90    6.40
  -2  -4   7    2.00    7.20
   3   4  -7 1999.10  106.69
  -3   4  -7 1932.31  117.59
  -3  -4   7 1961.10  108.39
  -3   4  -7 1993.60  114.19
   3   4   7 1972.90   88.69
   4   4  -7  101.69   24.70
  -4   4   7   98.49   32.80
  -4   4  -7  132.09   35.30
  -4  -4   7  118.19   30.40
   4  -4  -7  113.29   19.40
  -4   4  -7  117.09   37.40
   5   4  -7  550.54   59.29
  -5   4   7  623.24   79.89
  -5  -4   7  575.14   65.29
  -5   4  -7  609.64   72.89
  -5   4  -7  548.55   65.59
   5  -4  -7  499.15   46.90
  -6   4   7    9.80   24.60
   6   4  -7   19.80   14.80
  -6   4  -7   23.00   14.50
  -6  -4   7   17.60   17.10
  -6   4  -7   41.00   26.20
  -7   4   7  432.56   89.89
  -7   4  -7  450.05   87.79
  -7  -4   7  361.86   77.29
  -7   4  -7  435.36   76.49
  -8   4  -7  -11.60   36.20
   0   5  -7  -11.40    7.70
   0  -5   7   -2.20    7.60
   0   5   7    1.60    5.70
   1   5  -7 1030.10   76.99
   1  -5   7  924.31   64.09
  -1   5  -7  948.41   76.99
  -1  -5   7 1039.00   69.99
   1   5   7  923.91   42.60
   1   5   7  955.60   43.80
   2   5  -7  683.33   61.99
   2  -5   7  570.84   51.79
   2   5   7  633.94   40.50
  -2   5  -7  736.13   66.39
  -2  -5   7  706.23   60.89
   2   5   7  556.54   58.99
   3   5  -7  491.65   54.99
   3   5   7  505.15   45.70
  -3   5  -7  506.25   57.49
  -3  -5   7  511.65   54.79
  -4   5   7    4.60   14.90
   4   5  -7   53.99   20.80
  -4  -5   7   44.20   19.60
  -4   5  -7   29.00   17.40
  -4   5  -7   34.90   24.50
   5   5  -7  502.15   59.89
  -5   5   7  445.56   99.99
  -5   5  -7  499.15   63.99
  -5  -5   7  526.45   62.99
  -5   5  -7  416.26   79.89
   5  -5  -7  474.85   45.30
  -6   5   7  175.18   48.90
   6   5  -7  229.68   47.80
  -6   5  -7  131.99   45.00
  -6  -5   7  215.88   45.50
  -6   5  -7   98.89   35.00
   7   5  -7   71.39   32.00
  -7   5  -7   78.29   33.30
  -7   5  -7   94.09   45.50
  -7  -5   7  123.99   41.80
  -8   5  -7   37.10   43.20
   0   6  -7 1816.82  110.99
   0   6   7 1823.82   72.89
   0  -6   7 1848.81   98.29
   1   6  -7  137.59   35.00
  -1   6   7  137.49   22.40
   1  -6   7  138.49   29.00
  -1  -6   7  120.29   30.40
  -1   6  -7  103.29   27.70
   1   6   7   93.89   17.90
   1   6   7  116.99   19.30
   1   6   7  139.09   19.00
   2  -6   7   -7.00    9.60
   2   6  -7   32.20   14.40
   2   6   7    0.70   10.10
  -2  -6   7   -7.30    8.80
  -2   6  -7    4.90   10.70
   2   6   7   10.50   11.30
  -3  -6   7  245.98   56.89
  -3   6  -7  172.68   41.20
  -4   6   7 1359.06  113.49
   4   6  -7 1344.97   99.69
  -4  -6   7 1263.27   95.99
  -4   6  -7 1087.09  125.99
  -4   6  -7 1221.58  100.59
   5   6  -7    3.50   18.30
  -5   6  -7  -26.10   20.10
  -5   6  -7   42.60   21.40
  -5  -6   7   31.00   16.40
  -6   6   7   33.40   28.60
   6   6  -7   65.49   31.40
  -6   6  -7   -5.50   18.10
  -6  -6   7  -12.30   24.10
  -6   6  -7   68.19   35.50
   7   6  -7   63.59   33.30
  -7   6   7   -6.20   39.60
  -7   6  -7   12.40   31.50
   0   7  -7   -9.90   12.20
   1   7  -7  227.48   55.89
   1   7   7  215.88   26.60
   1   7   7  260.07   24.80
  -1   7  -7  231.18   56.09
   2  -7   7 1890.81  108.99
   2   7  -7 1807.52  116.19
  -2  -7   7 1926.31  113.39
   2   7   7 1876.51  101.09
  -2   7  -7 2007.70  127.39
   2   7   7 2006.40   89.49
   3   7  -7   73.19   26.50
  -3   7  -7   84.99   30.20
  -3  -7   7   56.19   24.00
   4   7  -7   10.40   16.50
  -4  -7   7   49.60   27.00
  -4   7  -7   31.60   28.10
  -4   7  -7   24.10   18.20
  -5   7   7  132.99   53.59
   5   7  -7   93.59   33.70
  -5   7  -7   89.39   34.40
  -5   7  -7  177.48   56.49
  -5  -7   7   91.69   33.90
  -6   7   7  563.94  107.19
   6   7  -7  497.95   81.39
  -6   7  -7  589.34  105.89
  -6   7  -7  738.43   84.59
  -6  -7   7  680.33   78.39
  -7   7  -7   70.09   44.60
   0  -8   7  381.26   47.40
   0   8  -7  415.26   56.09
   1  -8   7  327.27   43.00
   1   8  -7  362.86   64.49
   1   8   7  329.77   35.10
  -1  -8   7  362.96   47.70
   1   8   7  342.57   31.20
  -1   8  -7  363.26   62.89
   2   8  -7   18.70   15.10
  -2   8  -7   14.40   12.40
  -2  -8   7  -16.00   11.00
   2   8   7   -5.90   12.30
   3   8  -7  258.47   54.29
  -3  -8   7  404.76   54.79
   3   8   7  230.88   39.90
  -3   8  -7  335.67   62.89
   4   8  -7  279.97   58.29
  -4   8  -7  265.17   58.19
  -4  -8   7  267.47   53.09
  -5   8   7  134.29   54.49
   5   8  -7   40.80   22.60
  -5   8  -7  104.99   45.10
  -5  -8   7  109.19   32.90
  -5   8  -7   65.89   27.30
  -6   8   7  -10.50   44.90
  -6   8  -7   82.39   51.39
   0  -9   7  -15.00   10.10
   0   9  -7    7.80   13.00
   1  -9   7  485.25   56.59
   1   9  -7  360.86   64.89
  -1   9  -7  447.36   74.19
  -1  -9   7  486.05   58.59
   2  -9   7   25.20   12.80
   2   9  -7   -7.60   16.60
  -2  -9   7   23.60   16.40
   2   9   7    4.20   17.60
  -2   9  -7   30.20   18.60
   3   9  -7  198.18   47.30
  -3   9  -7  196.88   51.29
  -3  -9   7  168.88   37.20
   3   9   7  315.97   40.60
   4   9  -7  -22.80   18.40
   4   9   7   12.80   20.10
  -4  -9   7   33.50   22.00
  -4   9  -7   42.00   27.90
  -5   9   7  264.17   74.29
  -5   9  -7  158.78   53.19
   5   9   7  186.98   44.20
   0  10   7   60.29   18.50
   0  10  -7    2.90   29.70
   1 -10   7  154.58   53.69
   1  10   7  118.49   30.30
  -1 -10   7  199.68   61.89
   2  10  -7    9.50   19.80
  -2 -10   7    6.90   14.50
   2  10   7   14.40   19.40
  -2  10  -7  -15.90   21.70
   3  10  -7  124.49   39.80
   3  10   7  186.78   70.19
  -3  10  -7  122.39   36.60
  -3 -10   7  108.69   34.20
   4  10   7   13.30   19.60
   5  10   7  100.09   47.70
   0  11  -7   41.60   29.40
   0 -11   7   -6.00   16.10
  -1  11  -7   66.89   33.70
   0   0   8 6772.32  157.58
   0   0   8 6819.82  172.88
   0   0  -8 6679.53  173.28
  -1   0   8  427.26   33.70
   1   0  -8  372.16   30.40
   1   0   8  431.46   36.60
   1   0   8  404.46   24.20
  -1   0  -8  406.56   35.70
  -2   0  -8    0.00    6.70
  -2   0   8    5.30    6.50
   2   0   8   -0.10    5.70
   2   0  -8   10.60    6.60
   2   0   8   25.80   13.60
  -3   0   8  323.77   54.49
  -3   0  -8  347.87   40.70
   3   0  -8  375.26   32.80
   4   0  -8 3332.07  157.78
  -4   0  -8 3621.04  152.98
  -4   0   8 3407.56  161.38
  -5   0   8  177.58   47.70
  -6   0  -8  169.48   46.90
  -6   0  -8  181.28   30.80
  -7   0   8   97.69   38.70
  -7   0  -8  190.58   37.20
  -7   0  -8   95.39   35.10
  -8   0   8  555.64   93.29
   0   1   8    3.20    3.80
   0   1  -8  -13.10    5.10
   0  -1   8    3.80    4.50
   0  -1  -8   -2.30    4.70
   0  -1   8   -2.00    7.00
  -1  -1  -8 1011.70   54.49
   1  -1   8 1151.98   51.09
   1  -1   8 1196.88   67.79
   1   1  -8 1116.59   60.99
  -1   1   8 1075.19   52.89
  -1  -1   8 1067.09   57.99
   1  -1  -8 1099.79   46.00
  -1   1  -8 1106.79   65.29
   1   1   8 1116.29   55.89
  -1  -1   8 1082.79   58.99
   2   1  -8 1344.77   68.69
  -2   1   8 1583.54   81.49
   2  -1   8 1482.35   63.39
  -2  -1  -8 1455.65   73.49
   2   1  -8 1464.15   68.39
  -2  -1   8 1522.25   81.09
   2   1   8 1470.05   68.19
  -2   1  -8 1514.45   84.59
   2   1   8 1518.85   74.09
   2  -1  -8 1519.15   57.09
  -3   1   8  193.88   41.80
   3   1  -8  187.38   31.60
   3   1  -8  207.98   35.30
  -3  -1  -8  165.38   32.10
  -3  -1   8  176.68   34.80
  -3   1  -8  144.69   32.80
   3   1   8  136.49   33.50
   3  -1  -8  195.48   21.10
   4   1  -8   78.89   21.70
   4   1  -8   84.99   29.80
  -4  -1  -8   63.09   19.10
  -4   1   8  101.39   31.60
  -4   1  -8   94.29   28.60
  -4  -1   8  110.49   33.10
  -4   1  -8   92.09   15.10
   4  -1  -8   93.89   21.20
  -4   1  -8   78.89   17.50
  -5  -1  -8  161.28   37.00
  -5   1   8  109.39   33.00
  -5   1  -8   73.79   29.30
  -5  -1   8  168.08   43.30
  -5   1  -8  146.39   28.20
  -5   1  -8   96.99   19.50
  -6   1   8  623.44   76.19
  -6   1  -8  577.14   55.99
  -6   1  -8  704.23   73.19
  -6  -1   8  649.93   79.49
  -7   1   8  -40.10   21.60
  -7   1  -8   26.00   20.90
  -7  -1   8    7.40   19.80
  -7   1  -8   39.20   21.00
  -8   1   8    5.50   26.70
  -8   1  -8   46.90   41.90
  -8  -1   8   63.19   25.60
   0   2  -8  492.35   32.00
   0  -2   8  500.55   44.20
   0  -2   8  488.95   37.10
   0   2  -8  524.15   45.70
   1  -2   8 1282.97   94.59
   1   2  -8 1357.46   64.89
   1  -2   8 1443.36   65.19
  -1  -2  -8 1384.16   57.79
   1   2  -8 1392.66   75.79
  -1  -2   8 1475.65   73.59
  -1  -2   8 1394.56   73.49
   1   2   8 1481.05   60.79
   2   2  -8   10.30   13.40
   2  -2   8   -1.70    5.90
  -2  -2  -8   12.20    9.60
   2   2  -8   15.10   10.20
   2   2   8   20.00    9.50
  -2  -2   8   -4.70    8.80
  -2   2  -8    8.50    6.70
  -2   2  -8   18.80   10.30
  -2   2  -8   11.20   10.70
   3   2  -8 1168.98   82.19
  -3   2   8 1234.98   86.29
   3   2  -8 1202.28   73.89
  -3  -2  -8 1357.86   76.49
   3  -2  -8 1339.27   50.39
  -3   2  -8 1314.77   70.79
  -3  -2   8 1310.77   85.69
  -3   2  -8 1188.58   52.39
   3   2   8 1287.77   72.39
  -3   2  -8 1308.77   85.29
   3  -2  -8 1204.18   50.59
  -4   2   8  154.28   44.90
   4   2  -8  129.29   27.70
  -4   2  -8  121.39   28.50
  -4   2  -8  151.18   38.70
  -4  -2   8  144.99   36.20
   4  -2  -8  112.79   23.20
  -4   2  -8  128.69   21.60
  -5   2   8  758.52   83.29
   5   2  -8  701.03   63.09
  -5   2  -8  758.52   63.79
  -5   2  -8  593.34   46.00
  -5  -2   8  725.23   75.19
  -5   2  -8  804.62   74.49
   5  -2  -8  644.24   55.89
  -6   2   8   50.29   32.70
  -6  -2   8   39.90   24.50
  -6   2  -8   76.29   29.60
  -6   2  -8   96.59   30.50
  -7   2   8  408.66   82.79
  -7   2  -8  435.16   71.49
  -7   2  -8  453.15   62.49
  -7  -2   8  337.67   69.69
  -8   2   8   15.10   38.00
  -8   2  -8   85.99   36.20
   0  -3   8    6.70    7.20
   0   3  -8   -7.80    7.30
   0   3  -8   -6.60    8.30
   1   3  -8 1781.82   93.19
   1  -3   8 1780.42   80.69
   1   3  -8 1751.22   84.69
   1   3   8 1753.62   63.29
  -1  -3   8 1702.43   88.99
  -1   3  -8 1772.32   97.89
  -1   3  -8 1759.82   73.89
   2  -3   8   67.09   18.00
   2   3  -8   63.59   23.60
   2   3  -8   60.39   21.40
  -2   3   8   88.39   22.80
  -2   3  -8   46.70   19.90
  -2  -3   8   79.79   23.50
  -2   3  -8   39.60   12.70
  -2   3  -8   60.89   21.20
   2   3   8   68.49   16.60
   3   3  -8  905.71   66.69
  -3   3   8  874.91   74.59
   3   3   8  859.61   57.69
  -3   3  -8  956.80   76.59
  -3   3  -8  950.00   71.19
  -3   3  -8  980.10   61.49
  -3  -3   8  945.51   71.99
  -4   3   8    3.00   13.70
   4   3  -8   -8.80    7.60
  -4  -3   8  -12.90    9.20
  -4   3  -8   12.80    9.60
   4  -3  -8    2.50    9.70
  -4   3  -8    8.00   11.60
  -4   3  -8   -5.80   14.20
   5   3  -8  714.33   66.29
  -5   3   8  685.23   78.19
   5  -3  -8  630.84   52.19
  -5  -3   8  700.03   73.89
  -5   3  -8  721.13   74.09
  -5   3  -8  698.53   71.19
   6   3  -8   83.49   29.60
  -6   3   8  135.39   43.80
  -6  -3   8   12.90   19.20
  -6   3  -8   77.09   28.70
  -6   3  -8   78.09   29.20
  -7   3   8   87.99   48.20
  -7   3  -8  107.79   36.60
  -7  -3   8    5.30   48.20
  -7   3  -8   28.60   29.20
  -8   3  -8   10.00   33.20
   0  -4   8 1364.26   77.59
   0   4  -8 1452.55   90.09
   0   4  -8 1483.35   77.89
   1  -4   8   81.79   20.70
   1   4  -8   76.79   23.70
   1   4  -8  127.09   27.40
   1   4   8   93.79   15.20
  -1  -4   8   61.29   18.90
  -1   4  -8   93.49   21.50
  -1   4  -8   50.89   20.00
   2   4  -8   -1.00    8.20
   2  -4   8   26.00   13.20
   2   4   8   22.70   10.70
  -2  -4   8    4.00   11.20
  -2   4  -8    1.00    8.10
   2   4   8   27.10    7.00
  -2   4  -8   41.20   13.50
  -3   4   8  376.76   69.09
   3   4  -8  217.78   39.50
   3   4   8  279.67   33.70
  -3   4  -8  226.98   45.50
  -3  -4   8  239.28   42.30
  -3   4  -8  327.57   55.59
  -4   4   8  244.98   53.99
   4   4  -8  198.78   43.40
  -4   4  -8  240.88   48.70
  -4   4  -8  145.89   52.99
  -4  -4   8  241.78   48.30
  -5   4   8   48.60   32.30
   5   4  -8   30.30   16.90
   5  -4  -8   57.99   24.40
  -5   4  -8   57.69   28.20
  -5  -4   8   56.69   22.60
   6   4  -8   15.10   15.20
  -6   4   8  -39.90   17.90
  -6   4  -8   13.90   18.50
  -6  -4   8    6.10   18.90
   7   4  -8   68.99   29.00
  -7   4   8  152.38   48.30
  -7   4  -8   65.89   34.90
  -7   4  -8   40.40   32.20
  -7  -4   8   83.29   32.60
  -8   4  -8   94.49   47.20
   0  -5   8   -0.20    6.50
   0   5  -8    5.00    5.20
   1  -5   8  190.28   36.20
   1   5  -8  184.68   38.60
  -1   5  -8  185.28   40.70
  -1  -5   8  207.08   38.70
   2   5  -8  636.94   60.79
   2  -5   8  598.94   53.39
  -2  -5   8  454.75   50.89
   2   5   8  501.15   34.60
  -2   5  -8  612.24   63.19
   2   5   8  578.04   43.40
   3   5  -8  113.19   31.20
  -3   5  -8  126.99   33.20
  -3   5  -8  142.29   35.80
  -3  -5   8   96.29   28.30
   3   5   8  100.99   23.70
  -4   5   8   28.10   25.30
   4   5  -8   25.40   16.00
  -4  -5   8   -1.20    9.10
  -4   5  -8   23.10   18.50
  -4   5  -8   59.89   26.50
  -5   5   8   99.49   28.80
   5   5  -8   21.00   15.20
  -5   5  -8   20.70   14.50
  -5  -5   8   32.10   22.20
  -5   5  -8   28.80   27.20
   6   5  -8  243.98   48.90
  -6   5   8  250.27   67.49
  -6   5  -8  189.48   49.80
  -6  -5   8  285.37   53.29
  -6   5  -8  360.46   68.59
   7   5  -8   80.49   33.70
  -7   5   8   59.79   39.30
  -7  -5   8  123.99   37.40
  -7   5  -8   98.69   42.20
  -7   5  -8   76.89   36.50
  -8   5  -8   -3.80   43.00
   0   6  -8  843.62   74.39
   0  -6   8  987.20   72.19
   0   6   8  900.31   63.09
   1   6  -8   28.30   18.90
   1  -6   8   66.69   22.00
  -1   6   8   50.89   14.10
  -1   6  -8  102.29   26.90
  -1  -6   8   38.10   17.50
   1   6   8   81.99   14.80
   1   6   8   87.59   23.70
   2   6  -8   -3.90   12.50
  -2   6  -8    7.20   13.60
   2   6   8   16.50    9.70
  -2  -6   8    7.30   11.50
   2   6   8    8.40   12.50
   3   6  -8  -11.80   10.00
  -3  -6   8   -7.60    6.40
  -4   6   8  251.17   53.99
   4   6  -8   94.79   32.10
  -4  -6   8  146.79   38.60
  -4   6  -8  121.29   41.60
  -5   6   8   74.29   38.90
   5   6  -8  -19.50   16.10
  -5   6  -8   25.90   19.30
  -5  -6   8   70.59   23.40
  -5   6  -8   21.70   27.20
  -6   6   8  -60.09   26.80
  -6   6  -8  -21.00   27.70
  -6   6  -8  -25.20   14.50
  -6  -6   8  -22.10   10.10
  -7   6   8  -15.50   34.20
   0  -7   8  -10.40    7.70
   1  -7   8    6.80    9.50
   1   7  -8    5.30    9.40
   1   7   8    5.30    8.30
  -1  -7   8    2.90   11.70
   2  -7   8  108.89   27.20
   2   7  -8  109.99   35.50
   2   7   8  175.48   26.80
  -2  -7   8  131.59   31.20
  -2   7  -8  133.49   38.80
   2   7   8  116.19   23.70
   3   7  -8    3.10   14.90
  -3  -7   8  -15.20   11.80
  -3   7  -8  -19.80   11.90
  -4   7   8  -16.90   21.30
   4   7  -8   29.00   16.90
  -4   7  -8  -51.39   20.60
  -4   7  -8    4.00   15.70
  -4  -7   8   29.50   16.90
  -5   7   8  -20.90   30.60
   5   7  -8   -7.20   14.70
  -5   7  -8    8.50   30.50
  -5   7  -8  -25.30   24.10
   6   7  -8   60.99   33.70
  -6   7  -8   24.20   29.20
  -6   7  -8   12.40   37.00
  -6  -7   8   13.90   25.90
  -7   7  -8  -10.60   45.20
   0   8  -8  610.44   71.89
   0  -8   8  649.43   63.99
   1   8  -8   -1.70   16.80
   1  -8   8  -25.90   10.90
  -1  -8   8   16.30   13.70
   1   8   8   26.60   12.50
   1   8   8    0.60    9.00
  -1   8  -8   -9.60    9.60
   2  -8   8   15.50   12.90
   2   8  -8   22.60   17.70
   2   8   8   12.50   12.60
  -2   8  -8    3.90   12.80
  -2  -8   8   -0.70   11.70
   3   8  -8   30.60   16.00
  -3   8  -8    1.00   13.10
  -3  -8   8  -13.20   11.60
   4   8  -8  327.07   71.19
  -4   8  -8  409.26   81.39
  -4   8  -8  499.25   91.59
  -5   8   8   -2.70   27.50
   5   8  -8   26.70   20.70
  -5  -8   8   35.00   20.20
  -5   8  -8  -17.80   23.00
  -5   8  -8   -9.60   35.20
  -6   8   8    4.40   47.00
  -6   8  -8   18.40   45.60
   0  -9   8    6.30   13.80
   0   9  -8    0.20   17.40
   1   9  -8  -33.90   14.00
   1  -9   8   37.10   16.90
   1   9   8   13.40   14.40
  -1   9  -8   21.60   12.70
  -1  -9   8    2.30   13.00
   2   9  -8  245.48   54.99
   2  -9   8  393.26   51.49
  -2  -9   8  318.87   55.89
   2   9   8  249.48   41.60
  -2   9  -8  277.07   59.59
   3   9  -8   10.10   22.00
  -3  -9   8   49.40   25.00
   3   9   8  -11.10   14.00
  -3   9  -8  -27.60   15.00
   4   9  -8   -1.30   25.90
  -4   9  -8   29.40   26.80
   4   9   8   40.80   22.50
  -4  -9   8  -21.70   17.10
  -5   9   8   72.79   36.60
  -5   9  -8   -3.90   37.30
   5   9   8   65.29   35.50
   0 -10   8   39.10   22.60
   0  10  -8   -7.90   18.30
   1 -10   8  164.88   44.50
   1  10  -8  186.78   48.90
  -1  10  -8  157.88   51.59
  -1 -10   8  168.28   41.90
   2  10  -8   20.30   24.90
  -2  10  -8   16.80   28.40
  -2 -10   8   -3.60   16.00
   3  10   8  195.18   38.70
   4  10   8  -18.30   23.20
   0   0   9   -6.10    4.40
   0   0   9   11.00    5.10
   0   0  -9   -8.60    5.10
   1   0  -9   10.20    6.70
  -1   0  -9    8.00    9.10
   1   0   9   -1.90    3.90
   1   0   9   12.60    8.70
  -1   0   9    0.00    7.40
   2   0   9    2.10    8.60
   2   0  -9    2.90    5.30
   2   0   9    7.10    6.40
  -2   0   9   -2.50    7.60
  -3   0  -9    9.80    7.20
   3   0  -9   -0.20    6.50
  -3   0   9  -14.90    8.40
  -4   0  -9    2.60    9.90
   4   0  -9   17.80   10.70
  -4   0   9   -8.80    9.00
   5   0  -9   12.00   11.90
  -5   0   9   -7.00   12.40
  -6   0  -9   23.10   18.10
  -6   0   9   -8.50   15.80
  -7   0   9   -7.00   24.90
   0  -1   9   -9.60    4.30
   0  -1   9   -3.10    8.70
   0   1  -9   -0.80    8.00
  -1  -1  -9   78.99   18.40
  -1   1   9   95.89   18.50
   1   1  -9   73.09   19.50
   1  -1   9   67.99   13.90
   1  -1   9   92.29   22.90
   1   1   9   66.89   16.70
  -1  -1   9   70.29   18.10
   1  -1  -9   93.79   15.20
  -1   1  -9   91.89   23.90
  -2   1   9 1036.00   66.79
   2  -1   9  980.80   52.19
   2   1  -9  966.10   59.29
  -2  -1  -9  950.00   61.09
  -2  -1   9 1038.90   67.39
   2  -1  -9 1082.09   49.30
  -2   1  -9 1096.39   71.09
   2   1   9  996.90   55.89
   2   1   9  947.11   60.69
   3   1  -9   30.40   17.70
  -3  -1  -9   74.29   22.30
  -3   1   9  112.29   29.60
  -3  -1   9   84.59   25.50
   3  -1  -9   65.99   14.70
  -3   1  -9   78.39   26.00
   4   1  -9    7.60   19.90
  -4  -1  -9    4.20   10.40
  -4   1   9   -2.40   13.00
   4  -1  -9   28.30   13.90
  -4   1  -9   16.10   15.90
   4  -1  -9    3.00    7.40
  -4  -1   9   -7.70   12.40
  -5   1   9   62.29   22.40
   5   1  -9  -12.70   11.00
  -5  -1  -9   22.20   16.70
  -5   1  -9   -6.80   15.70
  -5  -1   9   44.00   16.80
  -6   1   9  279.57   65.19
  -6  -1  -9  339.77   59.09
  -6   1  -9  285.97   49.80
  -6  -1   9  325.07   61.39
  -6   1  -9  255.87   53.09
  -7   1   9   45.10   31.50
  -7   1  -9   32.90   32.10
  -7   1  -9   46.20   26.90
  -7  -1   9   52.29   28.80
   0   2  -9 1471.85   82.19
   0  -2   9 1321.87   67.09
   1   2  -9   -7.40    6.00
   1  -2   9    5.70    7.70
  -1  -2  -9   -0.10    5.00
  -1  -2   9   16.90    7.80
   1   2   9    9.00    6.00
  -1   2  -9    1.10    8.80
  -2   2   9    1.30    9.90
  -2  -2  -9    9.70    8.50
   2   2  -9   20.70   10.40
   2   2  -9   39.70   13.50
   2  -2   9   10.70    7.70
  -2   2  -9    9.30   11.00
   2   2   9  -14.90    6.90
  -3  -2  -9   11.20   11.40
  -3   2   9    3.60   13.30
   3   2  -9   15.50   11.60
   3   2  -9   -6.40   16.00
  -3   2  -9   16.10   10.20
  -3  -2   9    2.80    8.40
   3   2   9  -17.10   11.20
   4   2  -9  542.85   53.89
  -4  -2  -9  641.24   59.59
  -4   2   9  693.03   71.99
  -4   2  -9  597.44   63.69
  -4   2  -9  589.84   46.90
  -4  -2   9  549.05   59.39
   4  -2  -9  556.04   37.30
  -4   2  -9  614.74   37.70
   4  -2  -9  576.44   42.00
   5  -2  -9   -8.30   16.30
  -5   2  -9   39.90   17.60
  -5   2  -9   14.40   20.80
  -5  -2   9    5.80   16.20
  -5   2  -9  -24.90   10.50
   6   2  -9    5.80   16.80
  -6   2   9   15.00   25.70
  -6   2  -9   -9.70   20.10
  -6  -2   9   18.80   18.40
  -6   2  -9   26.90   18.80
  -7   2   9    1.10   24.20
   7   2  -9  -11.30   16.20
  -7  -2   9   37.90   26.70
  -7   2  -9  -33.80   24.00
  -7   2  -9   11.70   22.80
   0   3  -9  -14.90    7.70
   0   3  -9    9.00   10.80
   0  -3   9    0.40    5.60
   1  -3   9  554.34   44.40
   1   3  -9  581.94   48.30
   1   3  -9  518.95   50.99
  -1   3  -9  612.64   57.39
  -1   3  -9  561.24   39.60
   1   3   9  557.54   33.90
  -1  -3   9  568.84   49.40
   2   3  -9  278.57   44.50
  -2   3   9  269.67   33.20
   2   3  -9  268.77   44.50
   2  -3   9  229.08   30.00
   2   3   9  197.58   25.20
  -2   3  -9  203.48   42.20
  -2   3  -9  215.78   23.90
  -2  -3   9  243.58   33.80
  -2   3  -9  158.38   30.00
   3  -3   9  436.66   43.20
   3   3  -9  367.76   43.30
  -3   3   9  439.96   54.59
  -3  -3   9  373.26   46.80
  -3   3  -9  354.86   32.20
   3   3   9  325.37   38.10
  -3   3  -9  399.96   44.60
  -3   3  -9  277.97   48.30
  -4   3   9   36.00   19.00
   4   3  -9   -6.40   10.90
  -4   3  -9   15.20   20.60
  -4   3  -9   17.70   10.80
  -4  -3   9    6.40   11.50
  -4   3  -9    5.10   13.60
  -5   3   9  260.27   56.99
   5   3  -9  429.56   85.89
  -5  -3   9  344.97   65.09
  -5   3  -9  276.87   53.39
  -5   3  -9  317.57   54.09
   6   3  -9   28.90   23.10
  -6   3   9   51.29   29.00
  -6  -3   9   66.49   30.50
  -6   3  -9   52.39   25.60
  -6   3  -9  110.79   31.70
  -7   3   9   16.00   31.00
   7   3  -9   58.59   28.80
  -7   3  -9   28.10   23.30
  -7  -3   9  111.09   39.60
   8   3  -9   21.30   26.00
   0   4  -9  106.69   30.60
   0   4  -9  189.08   31.40
   0  -4   9  117.79   27.60
   1   4  -9 1375.26   88.89
   1  -4   9 1239.08   74.59
   1   4  -9 1308.47   79.49
  -1  -4   9 1327.47   81.39
  -1   4  -9 1264.97   88.29
  -1   4  -9 1360.46   72.09
   2  -4   9   35.90   15.60
   2   4  -9   -2.80    9.00
  -2   4  -9   11.70   12.60
  -2   4  -9   19.60   14.30
  -2  -4   9   16.20   12.80
   2   4   9   12.30   11.10
   3  -4   9 1009.40   71.19
  -3   4   9 1095.29   85.89
   3   4  -9 1115.49   81.29
   3   4   9 1095.09   73.19
  -3   4  -9  998.50   81.39
  -3   4  -9 1251.67   92.39
  -3  -4   9 1152.58   83.49
   4   4  -9   56.79   22.00
  -4   4   9   53.29   27.50
  -4   4  -9   60.19   20.00
  -4   4  -9    8.70   18.70
  -4  -4   9   24.90   16.30
   5   4  -9  370.36   62.29
  -5   4   9  412.16   74.29
  -5   4  -9  421.66   72.19
  -5   4  -9  446.96   57.79
  -5  -4   9  412.06   69.99
   6   4  -9   33.40   19.60
  -6   4   9  -27.80   20.90
  -6  -4   9   16.70   13.00
  -6   4  -9   27.80   20.50
  -6   4  -9  -19.00   21.90
  -7   4   9  245.78   69.29
   7   4  -9  261.97   64.09
  -7   4  -9  182.28   49.20
  -7  -4   9  273.77   55.29
  -7   4  -9  148.99   49.00
  -8   4  -9   65.29   50.49
   0   5  -9   -3.30   12.00
   0  -5   9   22.00   10.00
   1   5  -9  617.44   62.89
   1  -5   9  716.43   58.59
  -1   5  -9  599.64   63.69
  -1  -5   9  642.44   57.69
   2  -5   9  414.16   45.60
   2   5  -9  567.64   58.79
  -2  -5   9  519.55   52.99
  -2   5  -9  448.56   55.29
   2   5   9  454.45   37.90
   2   5   9  416.56   31.80
   3   5  -9  271.67   50.59
   3  -5   9  341.27   43.90
  -3   5   9  361.46   60.39
  -3   5  -9  268.67   51.69
   3   5   9  323.07   36.70
  -3   5  -9  442.56   58.29
  -3  -5   9  372.76   77.19
   4   5  -9   -2.30   14.40
  -4   5   9   39.80   20.70
  -4   5  -9   -4.10   15.40
  -4   5  -9    1.00   22.30
   5   5  -9  360.66   64.29
  -5   5   9  357.46   68.59
  -5  -5   9  281.77   56.89
  -5   5  -9  220.58   50.99
  -5   5  -9  361.16   64.49
   6   5  -9  182.98   45.80
  -6   5   9  131.89   49.80
  -6  -5   9   95.49   36.70
  -6   5  -9   43.10   30.20
  -6   5  -9   72.59   32.90
  -7   5   9  -31.10   38.20
   7   5  -9   42.70   27.60
  -7   5  -9   28.10   42.60
   0  -6   9 1810.82  102.89
   0   6   9 1530.25   95.89
   1  -6   9  153.88   33.90
   1   6  -9   56.99   38.00
   1   6   9  182.28   20.80
  -1  -6   9  141.59   34.10
  -1   6  -9  153.88   40.30
   2   6  -9  -14.30   12.70
   2   6   9   -7.50    8.90
  -2   6  -9   -8.70    9.20
   3   6  -9  123.99   36.60
  -3  -6   9  133.39   33.90
  -3   6  -9  133.39   42.70
  -3   6  -9   65.89   27.10
  -4   6   9  961.80   98.49
   4   6  -9 1020.60   91.59
  -4  -6   9 1170.48   93.99
  -4   6  -9  967.20   92.69
   5   6  -9   25.30   17.90
  -5   6   9   71.99   29.70
  -5   6  -9   41.00   23.60
  -5  -6   9   -5.50   13.60
  -6   6   9   46.90   32.50
   6   6  -9   38.80   27.60
  -6   6  -9    3.70   33.80
  -6   6  -9  -19.90   17.60
  -6  -6   9    4.90   20.60
  -7   6  -9   58.69   50.89
   0  -7   9   14.50    9.90
   0   7  -9  -11.70    9.80
   1   7  -9  153.48   39.00
   1  -7   9  113.19   31.30
  -1   7  -9  207.28   48.50
  -1  -7   9  101.99   33.60
   2   7  -9 1384.16  108.09
   2  -7   9 1552.04  102.09
  -2  -7   9 1453.65  102.89
  -2   7  -9 1490.25  113.49
   2   7   9 1305.57   67.69
   2   7   9 1370.06   68.79
   3   7  -9    3.70   16.20
  -3  -7   9   39.30   20.50
  -3   7  -9   52.19   26.10
   4   7  -9  -14.20   12.90
  -4   7   9  -56.49   26.50
  -4   7  -9  -14.70   22.10
  -4  -7   9   21.00   21.70
  -4   7  -9   15.90   24.30
   5   7  -9   75.59   33.00
  -5   7   9   73.79   38.70
  -5  -7   9   45.00   25.10
  -5   7  -9   39.80   25.40
  -5   7  -9   46.50   41.30
  -6   7   9  319.47   78.69
  -6   7  -9  352.26   77.89
  -7   7  -9   27.70   58.79
   0   8  -9  248.78   55.19
   0  -8   9  389.66   50.79
   1   8  -9  189.78   46.10
   1  -8   9  145.69   34.80
  -1  -8   9  162.08   39.60
  -1   8  -9  218.58   51.79
   2  -8   9   -3.60   13.60
   2   8  -9  -19.20   16.10
   2   8   9  -19.40   12.40
  -2  -8   9  -22.00   12.20
  -2   8  -9   30.20   22.60
   3   8  -9  146.39   40.50
  -3  -8   9  162.28   38.90
   3   8   9  142.09   29.00
  -3   8  -9  177.08   46.50
  -4   8   9  208.28   59.89
   4   8  -9  258.47   53.29
  -4   8  -9  194.68   58.89
  -4   8  -9  117.59   38.70
  -4  -8   9  183.28   45.30
  -5   8   9  -32.00   36.90
  -5   8  -9   24.70   47.00
  -6   8   9   72.09   78.19
  -6   8  -9  -22.50   45.70
   0  -9   9    5.40    9.70
   0   9  -9   -1.40   17.00
   1   9  -9  325.97   70.39
   1  -9   9  342.87   57.39
  -1  -9   9  253.87   52.89
  -1   9  -9  331.47   72.99
   2   9  -9  -12.10   19.00
   2  -9   9   13.90   16.30
   2   9   9    8.40   19.20
  -2   9  -9    5.40   16.70
  -2  -9   9   31.00   17.60
   3   9  -9  142.99   50.29
   3   9   9  207.08   37.50
  -3  -9   9   81.69   28.60
  -3   9  -9  177.38   47.00
  -4   9  -9   25.90   40.90
   4   9   9   60.69   23.80
  -5   9   9  206.18   56.49
  -5   9  -9  149.79   77.79
   5   9   9  142.39   40.80
   0 -10   9   19.30   19.10
   0  10  -9   57.69   23.30
   1 -10   9   76.19   30.80
   1  10  -9   22.90   24.30
  -1  10  -9  211.08   49.40
  -1 -10   9  131.49   41.90
   0   0  10 3253.17  111.09
   0   0 -10 3095.69  111.09
   0   0  10 3181.08   97.39
  -1   0 -10   15.60   11.60
  -1   0  10    3.50    8.30
   1   0  10   38.20   13.60
   1   0  10   30.60    9.00
   1   0 -10   19.10    8.40
  -2   0  10   10.00   10.90
   2   0 -10    2.70   10.00
  -2   0 -10   24.00   13.30
   2   0  10   14.00    8.60
  -3   0 -10   52.99   20.30
   3   0 -10  120.39   24.20
  -3   0  10  115.49   31.30
  -4   0  10 1782.92  112.69
   4   0 -10 1616.44   82.69
  -4   0 -10 1687.83  105.09
  -5   0  10   55.39   41.40
  -5   0 -10    2.10   15.00
   5   0 -10   24.30   14.90
  -6   0 -10    5.90   17.50
   6   0 -10   -3.50   14.20
  -6   0  10   47.40   23.50
  -7   0 -10   36.50   26.00
  -7   0  10   44.30   38.70
   0  -1 -10    0.30    7.60
   0  -1  10   17.10   10.90
   0  -1  10   12.80    8.10
   0   1 -10   -7.40    7.10
  -1   1  10  221.38   25.60
   1   1 -10  261.67   38.80
   1  -1  10  223.58   23.70
  -1  -1 -10  190.58   25.60
  -1   1 -10  267.37   33.90
  -1  -1  10  239.08   29.00
   1   1  10  285.57   29.10
   1  -1 -10  225.18   21.90
   2   1 -10 2478.35  103.59
  -2  -1 -10 2307.17  103.79
   2  -1  10 2303.77   87.99
  -2   1  10 2333.87  105.89
   2   1  10 2190.28   99.19
  -2   1 -10 2471.75  114.29
   2  -1 -10 2344.07   80.59
  -2  -1  10 2086.59  153.38
  -3  -1 -10  174.38   35.40
   3   1 -10  305.27   33.80
  -3   1  10  202.58   40.40
  -3   1 -10  198.78   41.70
   3   1  10  191.58   36.00
   3  -1 -10  175.68   22.20
  -3  -1  10  243.28   42.80
  -4  -1 -10   11.60   15.60
  -4   1  10   -3.90   12.30
   4   1 -10   24.80   13.20
  -4   1 -10   24.40   14.70
   4  -1 -10    9.40   15.10
   4  -1 -10    9.90    8.70
  -4  -1  10   -4.20   12.00
   5   1 -10  493.75   48.90
  -5  -1 -10  409.66   65.89
  -5   1  10  433.76   75.79
  -5  -1  10  503.65   63.99
  -5   1 -10  410.06   67.29
   5  -1 -10  510.05   45.60
  -6  -1 -10  550.64   68.29
   6   1 -10  590.54  108.39
  -6   1  10  534.25   70.59
  -6  -1  10  422.16   76.79
  -6   1 -10  535.35   65.39
   6  -1 -10  580.44   52.09
   7   1 -10  -24.80   16.70
  -7  -1  10   15.00   31.10
  -7   1 -10   11.60   24.80
   0   2 -10  218.88   39.80
   0   2  10  185.58   16.70
   0  -2  10  166.88   23.00
   1  -2  10 1048.90   58.69
  -1  -2 -10 1062.49   54.49
   1   2 -10 1097.69   71.89
   1   2  10 1047.80   53.59
  -1   2 -10 1058.99   73.69
   2  -2  10    0.10    9.10
  -2   2  10   15.90   12.70
   2   2 -10   -4.80    9.30
  -2  -2 -10    1.10    8.00
   2   2 -10  -11.40   11.20
   2   2  10   11.30   10.70
  -2  -2  10   23.50   11.70
  -2   2 -10    4.40    9.40
   3   2 -10  925.31   67.89
  -3  -2 -10  910.11   65.39
  -3   2  10 1123.59  124.79
   3   2 -10  928.61   71.79
  -3   2 -10 1018.90   77.59
  -3  -2  10  978.00   75.69
   3   2  10  957.60   67.59
   4   2 -10  230.28   41.00
  -4   2  10  177.18   41.10
  -4  -2 -10  167.18   36.50
  -4   2 -10  197.78   55.59
  -4  -2  10  133.79   34.60
   4  -2 -10  186.18   21.80
   4  -2 -10  165.58   24.80
  -5   2  10  214.58   53.99
   5   2 -10  186.08   38.50
   5  -2 -10  222.78   28.60
   5  -2 -10  222.98   36.00
  -5   2 -10  195.18   45.90
  -5  -2  10  199.08   45.20
   6   2 -10    4.60   15.70
  -6   2  10   15.40   27.80
  -6  -2  10   42.40   22.90
  -6   2 -10    1.80   22.10
  -7   2  10  146.29   91.89
   7   2 -10  180.98   42.80
  -7  -2  10  139.99   45.80
  -7   2 -10  247.28   54.29
   8   2 -10   29.20   30.80
   0   3 -10    2.80    9.40
   0  -3  10    4.10    8.50
   0   3 -10   24.70   11.30
   1  -3  10  941.01   60.49
   1   3 -10  985.10   72.29
   1   3 -10 1016.70   62.09
  -1  -3  10  939.41   65.49
  -1   3 -10  952.30   74.29
   1   3  10  927.21   45.70
   2   3 -10  102.19   27.60
   2   3 -10   60.49   23.10
   2  -3  10   41.70   14.60
  -2   3  10   37.20   18.20
  -2   3 -10   44.10   20.10
   2   3  10   26.40   14.30
  -2  -3  10   67.59   22.90
   3   3 -10  622.24   58.49
   3  -3  10  663.73   53.69
   3   3 -10  636.04   66.69
  -3   3  10  619.24   68.29
  -3   3 -10  614.64   39.40
  -3   3 -10  624.84   63.29
  -3   3 -10  563.34   46.60
  -3  -3  10  560.64   57.09
   3   3  10  526.75   46.70
  -4   3  10   71.09   25.20
   4   3 -10   39.10   20.10
  -4   3 -10   19.80   13.90
  -4   3 -10   12.20   15.70
  -4   3 -10   57.59   29.20
  -5   3  10  388.06   73.39
   5   3 -10  498.75   58.39
  -5   3 -10  575.04   66.19
  -5   3 -10  538.45   57.39
  -5  -3  10  488.55   64.59
  -6   3  10    8.10   27.70
   6   3 -10    9.30   18.50
  -6   3 -10  -23.50   18.00
  -6   3 -10    0.30   25.60
  -6  -3  10   -3.80   19.90
  -7   3  10   78.79   44.60
   7   3 -10  187.18   48.20
  -7   3 -10  137.69   48.30
  -7  -3  10   97.79   38.80
   0  -4  10   60.39   19.90
   0   4 -10   34.80   15.60
   1   4 -10  225.28   38.30
   1   4 -10  141.39   30.20
   1  -4  10  204.28   35.50
  -1   4 -10  141.09   31.50
  -1   4 -10  108.89   30.10
  -1  -4  10  166.78   32.80
   2   4 -10   10.30   10.90
  -2   4  10   11.20   10.70
   2  -4  10   -5.40    6.90
  -2   4 -10   48.70   23.10
  -2  -4  10  -19.30    8.90
  -2   4 -10   11.20   12.10
  -2   4 -10  -10.30   13.30
   3  -4  10   52.99   21.20
   3   4 -10   91.09   28.90
  -3   4  10   41.60   25.70
  -3  -4  10   45.80   23.30
  -3   4 -10   41.40   16.70
  -3   4 -10   88.49   30.00
  -3   4 -10   69.79   24.20
   3   4  10   81.59   23.80
  -4   4  10  145.79   39.20
   4   4 -10  174.58   37.80
  -4  -4  10  153.78   35.00
  -4   4 -10  236.08   45.50
  -4   4 -10  170.88   43.50
  -5   4  10   17.10   25.20
   5   4 -10   22.40   18.20
  -5  -4  10   34.80   21.70
  -5   4 -10   67.29   27.70
  -5   4 -10  -24.00   23.70
  -6   4  10  -42.80   25.70
   6   4 -10    8.40   24.20
  -6   4 -10   57.99   34.30
  -6   4 -10    0.10   18.70
  -7   4  10   63.59   43.60
   7   4 -10   76.99   28.50
  -7   4 -10  -76.99   31.80
   0  -5  10   22.00    9.50
   0   5 -10   -6.90   12.30
   1  -5  10   16.90   10.60
   1   5 -10   -2.70   10.30
  -1   5 -10   -1.20   14.00
  -1  -5  10  -13.20    9.30
   2   5 -10  715.73   71.49
   2  -5  10  730.13   61.39
   2   5  10  733.63   47.00
  -2   5 -10  677.53   70.39
  -2  -5  10  587.44   60.19
   3  -5  10   -8.90    8.20
   3   5 -10    3.30    9.00
  -3   5 -10    3.90   20.30
  -3   5 -10  -11.00   10.10
   3   5  10  -28.20   14.30
  -3  -5  10   -6.60   12.00
  -4   5  10   35.90   22.50
   4   5 -10   17.20   17.30
  -4   5 -10   56.39   23.30
  -4  -5  10   10.00   13.10
  -4   5 -10   24.00   25.00
   5   5 -10  -11.00   17.60
  -5   5  10   54.89   25.80
  -5   5 -10   -6.10   14.10
  -5   5 -10    0.40   23.50
  -5  -5  10   -7.60   14.00
   6   5 -10  167.88   67.99
  -6   5  10  227.48   63.69
  -6   5 -10  129.99   45.10
  -6   5 -10  128.99   41.30
  -6  -5  10  166.88   42.40
  -7   5 -10  -14.80   40.70
   0   6 -10   22.20   15.40
   0  -6  10   28.50   14.20
   0   6  10   14.70    9.30
   1   6 -10   11.20   14.20
   1  -6  10   35.50   15.80
  -1  -6  10   10.40   14.40
  -1   6 -10    4.60   16.90
   2  -6  10   22.40   12.50
   2   6 -10   10.40   13.60
  -2  -6  10   -7.70   10.00
   2   6  10   24.70   11.20
   2   6  10   -8.10   10.80
  -2   6 -10   16.60   16.70
   3   6 -10   41.80   25.80
  -3   6  10   49.10   26.60
   3  -6  10   47.50   19.90
  -3  -6  10   43.70   21.90
  -3   6 -10   56.89   20.80
  -3   6 -10   56.49   31.20
  -4   6  10  136.29   38.40
   4   6 -10  106.49   33.70
  -4  -6  10  132.19   33.20
  -4   6 -10   80.49   31.80
  -4   6 -10   34.80   33.10
  -5   6  10   38.90   29.90
   5   6 -10  -21.50   16.00
  -5  -6  10   -0.60   17.70
  -5   6 -10   25.70   24.40
  -5   6 -10  -14.10   27.20
   6   6 -10   -9.70   18.20
  -6   6  10   41.10   35.00
  -6   6 -10   20.10   42.00
  -7   6 -10    9.50   49.40
   0  -7  10  -13.60    7.80
   0   7 -10   -7.80   10.00
   1   7 -10   12.40   15.30
   1  -7  10   13.30   13.90
  -1  -7  10   10.30   14.90
  -1   7 -10   25.70   17.20
   2  -7  10   60.09   20.90
   2   7 -10   77.79   26.90
  -2  -7  10   67.99   28.70
  -2   7 -10   49.30   19.70
   2   7  10   60.09   18.80
   3   7 -10   19.40   23.70
  -3   7 -10   43.40   25.10
  -3   7 -10   20.30   26.10
  -3  -7  10   23.40   17.30
  -4   7  10   -8.60   26.00
   4   7 -10    1.90   23.70
  -4   7 -10    1.60   14.40
  -4   7 -10   26.40   32.20
  -5   7  10  -60.09   30.50
   5   7 -10  -13.50   23.10
  -5   7 -10    9.30   34.30
  -5   7 -10   15.60   20.70
  -5  -7  10   17.40   20.30
  -6   7  10   95.09   48.20
  -6   7 -10  -20.50   49.90
   0  -8  10  296.77   55.89
   0   8 -10  325.27   58.59
   1   8 -10   53.29   24.00
   1  -8  10    6.50   13.70
  -1   8 -10   29.30   21.60
  -1  -8  10    2.50   18.80
   2   8 -10  -24.60   16.90
   2  -8  10    5.40   15.70
  -2   8 -10   26.60   18.70
  -2  -8  10   13.00   14.80
   3   8 -10    5.40   21.30
  -3   8 -10    2.50   20.40
   3   8  10   17.90   18.40
  -3  -8  10   -5.80   16.60
   4   8 -10  197.98   49.50
  -4   8  10  175.78   48.80
  -4   8 -10  178.38   47.40
  -4  -8  10  132.09   35.00
  -4   8 -10  144.49   54.69
  -5   8  10  -33.60   37.00
   0   9 -10   16.20   17.30
   0  -9  10   18.30   15.30
   1   9 -10   25.30   23.40
   1  -9  10   27.40   20.80
  -1   9 -10   49.30   28.10
  -1  -9  10   43.20   24.80
   2  -9  10   83.09   31.70
   2   9 -10  138.69   34.80
  -2   9 -10   27.40   30.70
  -2  -9  10   72.49   28.30
  -4   9  10   58.79   39.90
  -4   9 -10  -46.00   30.40
  -5   9  10  -47.90   42.60
   0   0 -11   -3.10    9.40
   0   0  11    4.50    9.10
   0   0  11   -4.00    5.60
   1   0  11    3.30    8.50
   1   0  11   -2.20    4.30
  -1   0  11   13.90    9.90
   1   0 -11    3.70    8.90
  -2   0 -11    6.10   10.10
  -2   0  11   -9.60    8.00
   2   0  11    6.50    6.60
  -3   0  11  -11.60   11.50
   3   0 -11    3.90   11.60
  -3   0 -11    3.10   11.60
   4   0 -11    2.60   10.80
  -4   0 -11    3.20   14.30
  -4   0  11  -22.90   10.20
  -5   0  11   42.70   19.60
   5   0 -11   17.50   12.80
  -5   0 -11   -0.20   13.90
   6   0 -11    6.80   15.50
  -6   0  11   31.50   24.50
  -6   0 -11  -14.00   17.90
  -7   0 -11  -46.00   20.70
  -7   0  11    9.10   26.70
   7   0 -11  -12.60   21.00
   8   0 -11   55.49   46.20
   0   1 -11    1.20    8.90
   0  -1 -11   -7.80    6.90
   0  -1  11   14.90    7.10
   0   1  11    0.70    6.10
  -1   1  11   14.30    9.60
   1  -1  11   29.50   12.10
  -1  -1 -11   20.80   12.60
  -1  -1  11   45.20   16.40
  -1   1 -11   16.50   14.80
   1   1  11   53.39   16.30
   1  -1 -11   29.70   10.60
   2   1 -11  382.26   40.70
   2  -1  11  387.36   33.60
  -2   1  11  425.36   41.50
  -2  -1 -11  467.35   43.30
  -2   1 -11  354.66   43.90
   2  -1 -11  381.56   31.10
  -2  -1  11  419.46   44.20
   2   1  11  384.96   27.10
  -3  -1 -11  105.09   27.90
  -3   1  11   84.99   26.10
   3   1 -11   84.29   21.70
  -3   1 -11   44.80   17.30
   3  -1 -11  101.49   21.00
  -3  -1  11   99.69   30.80
  -4   1  11  -14.00   10.10
   4   1 -11   -9.90   10.00
   4  -1 -11   26.80   12.80
  -4   1 -11  -27.60   20.00
   4  -1 -11   27.20   17.60
  -4  -1  11   36.70   19.00
  -5  -1 -11   24.10   18.40
  -5   1  11   52.09   26.50
   5   1 -11   22.60   17.50
   5  -1 -11   55.49   20.00
  -5   1 -11   68.09   25.40
  -5  -1  11   59.79   26.40
   6   1 -11   54.09   25.70
  -6  -1 -11   86.99   34.20
  -6   1  11  125.99   39.60
   6  -1 -11  127.39   29.00
  -6  -1  11  106.79   36.90
  -6   1 -11  120.89   33.50
  -7   1  11   56.19   33.10
   7   1 -11    5.50   21.80
  -7  -1  11   13.50   23.40
   7  -1 -11   15.80   27.60
  -7   1 -11   53.49   27.30
   8   1 -11   53.79   31.00
   0   2 -11  635.44   57.39
  -1  -2 -11   23.00   11.70
   1   2 -11   15.50   13.60
   1  -2  11    1.80    8.20
   1   2  11   15.40   11.50
  -1  -2  11   27.10   14.20
  -1   2 -11   33.10   17.60
   2  -2  11   -0.60    7.50
  -2  -2 -11  -14.10    8.00
   2   2 -11   -1.50   10.70
  -2   2  11  -19.90    9.40
  -2  -2  11   -1.00    9.50
   2   2  11   17.90   10.40
  -2   2 -11    1.20   11.20
  -3   2  11   -8.60   14.40
   3   2 -11   15.30   15.70
  -3  -2 -11   -5.50   12.90
   3   2  11   25.20   18.50
  -3  -2  11   43.90   17.70
  -3   2 -11   -2.50   13.00
  -4  -2 -11  577.04   57.79
   4   2 -11  513.75   53.79
   4   2 -11  509.45   64.09
  -4   2  11  556.94   64.79
  -4   2 -11  598.34   65.89
  -4  -2  11  510.65   60.59
   5   2 -11   -7.50   14.90
  -5   2  11   14.40   27.00
   5  -2 -11    7.00   13.00
  -5   2 -11    3.40   16.60
  -5  -2  11   31.20   19.50
  -6   2  11   73.99   30.00
   6   2 -11   37.20   22.00
   6  -2 -11   14.10   19.50
  -6  -2  11   36.60   26.30
  -6   2 -11   26.90   23.30
   7   2 -11    7.90   22.80
  -7   2  11  -21.00   30.10
  -7  -2  11  -17.20   27.50
   0  -3  11   11.00    8.20
   0   3 -11    0.90   11.70
   1  -3  11  645.84   50.29
   1   3 -11  597.44   57.39
   1   3  11  607.54   37.50
  -1  -3  11  617.14   53.49
  -1   3 -11  636.14   60.89
   2  -3  11  178.88   33.00
   2   3 -11  166.78   35.70
   2   3 -11  183.78   35.00
  -2   3  11  120.59   28.00
  -2   3 -11  120.09   31.80
   2   3  11  181.78   23.80
  -2  -3  11  164.68   34.20
   3   3 -11  260.27   46.60
  -3   3  11  298.37   53.79
   3  -3  11  244.88   33.80
   3   3 -11  176.88   40.60
  -3  -3  11  319.07   41.30
  -3   3 -11  239.18   64.29
   4   3 -11   39.20   19.20
  -4   3  11   -4.40   19.80
  -4   3 -11   40.40   26.60
  -4  -3  11   26.80   17.50
   5   3 -11  154.58   40.60
  -5   3  11  184.28   47.50
  -5   3 -11  163.98   40.90
  -5  -3  11  139.19   40.00
   6   3 -11    9.20   26.40
  -6   3  11   -9.70   27.90
  -6   3 -11    6.70   21.20
  -6  -3  11   57.99   47.40
  -7   3  11  140.29   43.70
   7   3 -11   93.39   55.39
   0   4 -11   -2.80   16.80
   0  -4  11   15.20    8.50
   0   4 -11   -3.40   13.10
   1   4 -11  677.53   62.79
   1  -4  11  655.23   54.39
  -1   4 -11  551.04   60.99
  -1   4 -11  652.53   54.29
  -1  -4  11  652.13   57.99
  -1   4 -11  637.24   48.90
   2   4 -11   -4.40   22.10
   2   4 -11    7.40   15.10
   2  -4  11    0.30    9.00
  -2   4 -11   18.90   16.40
  -2   4 -11   -9.00   14.90
  -2  -4  11   12.30    9.30
  -3   4  11  575.74   64.99
   3   4 -11  542.35   61.99
   3  -4  11  558.44   51.69
  -3   4 -11  474.15   42.80
  -3   4 -11  516.45   62.19
  -3  -4  11  486.25   56.79
  -3   4 -11  475.25   50.89
  -4   4  11   66.09   25.00
   4   4 -11   14.80   13.20
  -4   4 -11   24.30   21.40
  -4   4 -11    7.80   15.60
  -4  -4  11   -6.90   15.60
   5   4 -11  264.97   52.89
  -5   4  11  246.78   57.29
  -5  -4  11  341.57   61.89
  -5   4 -11  188.88   48.00
  -5   4 -11  256.47   48.50
   6   4 -11   12.70   22.10
  -6   4  11   24.00   32.40
  -6  -4  11   11.80   23.00
  -6   4 -11   68.69   34.00
   7   4 -11  140.99   45.20
  -7   4  11  120.99   53.49
   0  -5  11  -24.50   11.00
   0   5 -11   18.30   14.00
   1   5 -11  394.96   53.29
   1  -5  11  444.36   49.10
  -1   5 -11  472.55   61.39
  -1  -5  11  408.76   49.10
   2   5 -11  324.47   54.29
  -2   5  11  378.46   46.10
  -2   5 -11  366.96   58.69
   2   5  11  342.07   32.60
  -2  -5  11  338.87   46.70
  -2   5 -11  385.56   66.29
   3  -5  11  427.26   47.60
  -3   5  11  323.97   57.39
   3   5 -11  300.17   57.39
  -3   5 -11  257.97   52.09
  -3   5 -11  234.18   52.29
   3   5  11  232.28   38.60
  -3  -5  11  299.57   51.59
   4   5 -11    5.20   13.90
  -4   5  11  -15.10   20.80
  -4   5 -11  -12.10   13.80
  -4   5 -11  -24.30   23.30
  -4  -5  11   34.20   24.10
   5   5 -11  280.47   53.99
  -5   5  11  218.68   59.09
  -5  -5  11  273.47   68.99
  -5   5 -11  224.98   52.49
  -5   5 -11  233.98   56.69
   6   5 -11   90.89   38.20
  -6   5  11  110.39   51.89
  -6  -5  11   38.60   52.69
   0  -6  11 1420.46   94.39
   0   6 -11 1393.16  106.89
   1   6 -11   47.20   21.30
   1  -6  11   83.59   24.10
  -1  -6  11   80.29   27.10
  -1   6 -11  111.49   38.30
   2   6 -11   29.20   14.30
  -2  -6  11   13.00   11.20
  -2   6 -11   -7.30   13.20
  -3   6  11  144.69   42.10
   3   6 -11   60.59   27.00
   3  -6  11  118.49   32.00
  -3  -6  11  169.38   39.60
  -3   6 -11   76.19   33.30
  -3   6 -11  109.89   41.70
   4   6 -11  609.24   78.89
  -4   6  11  596.04   91.69
  -4   6 -11  789.02   84.29
  -4  -6  11  730.13   77.09
  -4   6 -11  471.05   86.19
  -5   6  11   79.89   34.30
   5   6 -11   11.50   22.20
  -5   6 -11   70.39   39.50
  -5  -6  11   38.20   20.80
  -5   6 -11  -14.50   17.20
  -6   6  11  -90.79   35.50
  -6   6 -11  -32.60   42.60
   0   7 -11   22.80   17.20
   0  -7  11  -22.70   12.70
   1   7 -11   30.50   21.80
   1  -7  11   29.30   15.80
  -1  -7  11   -6.40   14.00
  -1   7 -11    3.70   18.60
   2   7 -11  808.32   85.49
   2  -7  11  681.23   70.99
  -2  -7  11  866.41   80.79
  -2   7 -11  604.34   74.29
   3   7 -11   10.50   23.50
  -3   7  11  -10.90   24.50
  -3   7 -11   29.60   30.70
  -3  -7  11    2.90   19.80
  -4   7  11  -24.90   28.30
   4   7 -11   36.40   22.70
  -4   7 -11   60.89   22.60
  -4  -7  11   13.30   17.80
  -4   7 -11   43.70   31.40
  -5   7  11  -50.19   33.40
  -5   7 -11   25.80   47.20
  -6   7  11  322.87   84.69
  -6   7 -11  198.48   73.39
   0  -8  11  270.97   54.29
   0   8 -11  341.17   67.29
   1  -8  11   84.19   26.20
   1   8 -11   54.89   32.20
  -1  -8  11  102.69   33.20
   2  -8  11    2.40   20.50
   2   8 -11   34.70   27.70
  -2  -8  11  -19.20   11.30
  -2   8 -11   -7.00   18.60
   3   8 -11  152.98   49.50
  -3  -8  11  254.17   49.30
  -3   8 -11  111.59   33.70
  -3   8 -11  187.28   51.99
  -4   8  11  150.98   53.09
  -4   8 -11  116.99   51.79
  -5   8  11  -13.10   43.60
   0   9 -11    1.80   19.60
   0  -9  11   15.00   19.00
   1  -9  11  161.38   44.20
   1   9 -11  235.58   54.09
  -1  -9  11  133.09   41.00
  -1   9 -11   51.49   37.90
  -4   9  11   13.40   37.10
  -4   9 -11  -25.90   41.40
   0   0  12 1974.80   87.79
   0   0  12 2141.99   80.89
   0   0 -12 2193.08   95.19
  -1   0  12   41.20   14.50
  -1   0 -12   24.30   14.80
   1   0 -12   54.39   17.10
   1   0  12   42.90   11.90
  -2   0 -12   16.40   13.90
   2   0 -12   12.60   11.70
   2   0  12   20.70    8.90
  -2   0  12    9.50   12.70
  -3   0 -12   61.69   24.90
  -3   0  12   69.79   25.60
   3   0 -12  103.49   24.00
   4   0 -12  961.00   63.99
  -4   0  12  840.42   77.69
   5   0 -12   54.49   21.10
  -5   0  12    8.10   21.60
  -5   0 -12   31.50   19.30
  -6   0 -12   -2.50   17.80
  -6   0  12    3.00   20.90
   6   0 -12   20.50   21.40
   7   0 -12   -7.20   31.30
  -7   0  12    1.20   30.80
   0   1 -12   -9.30   10.00
   0   1  12    7.60    8.30
   0  -1  12   -7.70    6.70
   0  -1 -12    8.80    9.30
  -1  -1 -12  326.77   34.90
   1   1 -12  372.76   42.30
  -1   1  12  337.97   32.20
   1  -1  12  336.57   30.60
   1  -1 -12  300.87   28.70
   1   1  12  290.47   31.50
  -1   1 -12  306.67   40.30
  -2  -1 -12  802.82   59.69
   2   1 -12  763.72   58.69
   2  -1  12  757.02   65.19
  -2   1  12  728.23   56.29
   2   1  12  756.42   40.70
  -2  -1  12  701.53   59.29
   2  -1 -12  774.22   44.50
  -2   1 -12  714.23   62.29
  -3  -1 -12   98.59   26.60
   3   1 -12  125.99   27.30
  -3   1  12  141.29   35.00
   3  -1 -12   96.29   20.80
  -3  -1  12  117.99   30.70
  -3   1 -12   77.59   26.00
  -4   1  12   55.49   23.30
  -4  -1 -12   13.20   19.90
   4   1 -12   76.49   24.00
  -4   1 -12   20.10   19.00
   4  -1 -12   29.10   16.10
  -4  -1  12  -22.60   16.90
  -5  -1 -12  122.19   33.20
   5   1 -12   47.50   23.90
  -5   1 -12   89.19   34.60
   5  -1 -12   85.39   24.10
  -5  -1  12  100.19   29.50
  -6  -1 -12  330.77   64.49
   6   1 -12  339.17   54.39
  -6   1  12  285.47   63.49
  -6   1 -12  237.68   62.99
   6  -1 -12  342.47   46.30
  -6  -1  12  332.77   66.89
  -7   1  12   61.49   37.90
   7   1 -12   13.70   29.30
   0   2 -12  391.96   44.20
   0  -2  12  397.66   38.30
   1   2 -12  567.44   54.89
   1  -2  12  586.64   46.10
  -1  -2 -12  580.44   42.10
  -1  -2  12  586.54   52.59
  -1   2 -12  564.94   57.19
   1   2  12  628.04   42.70
  -2  -2 -12  -12.80    9.60
   2   2 -12   18.60   13.90
  -2   2  12   -8.70   11.90
   2  -2  12    4.50    8.90
  -2  -2  12   -2.40   10.20
  -2   2 -12   27.10   15.90
   3  -2  12  604.54   50.19
  -3   2  12  708.43   65.19
   3   2 -12  685.53   60.59
  -3  -2 -12  653.23   59.19
   3   2  12  677.93   57.89
  -3  -2  12  685.63   63.49
  -3   2 -12  730.73   97.49
   4   2 -12   93.19   27.90
  -4  -2 -12   76.79   21.00
  -4   2  12  157.78   37.70
  -4  -2  12  112.39   31.10
  -4   2 -12  106.39   31.70
   5   2 -12  312.17   50.69
  -5   2  12  257.77   55.29
   5  -2 -12  245.08   32.70
  -5   2 -12  157.48   49.10
  -5  -2  12  236.28   53.09
   6   2 -12    4.60   22.00
  -6   2  12   -8.90   29.00
  -6   2 -12   80.39   36.70
   7   2 -12  267.17   56.89
  -7   2  12  145.89   48.30
   0  -3  12    7.90    8.20
   0   3 -12   -7.20    9.90
   1   3 -12  484.15   52.59
   1  -3  12  522.05   46.90
  -1   3 -12  477.65   54.59
  -1  -3  12  456.25   47.30
  -2   3  12   -5.10   14.00
   2  -3  12    5.70    8.40
   2   3 -12   21.50   15.10
  -2   3 -12    2.80    9.60
   2   3  12   31.70   14.80
  -2  -3  12   12.20   13.50
  -3   3  12  291.17   51.39
   3  -3  12  208.88   35.70
   3   3 -12  301.17   48.90
   3   3 -12  224.68   45.40
   3   3  12  244.28   36.90
  -3  -3  12  231.28   44.70
  -3   3 -12  275.17   51.79
  -4   3  12   18.90   18.70
   4   3 -12  -20.80   14.30
  -4  -3  12   -4.90   13.10
  -4   3 -12   -4.70   14.40
   5   3 -12  163.88   39.90
  -5   3  12  195.28   45.60
  -5  -3  12  121.09   33.40
  -5   3 -12  197.18   45.20
   6   3 -12   49.80   29.70
  -6   3  12  -20.80   28.00
  -6  -3  12   46.20   25.50
  -6   3 -12   17.40   20.10
  -7   3  12  -85.29   50.39
   7   3 -12   23.30   31.10
   0  -4  12  462.55   48.30
   0   4 -12  491.95   56.59
   1  -4  12   10.10   12.10
   1   4 -12    5.60   16.00
  -1  -4  12   41.40   17.10
  -1   4 -12   56.39   25.10
  -2   4  12   28.70   16.80
   2  -4  12  -12.10    8.10
   2   4 -12   -4.80   10.70
   2   4 -12  -43.90   37.20
  -2   4 -12   16.10   13.30
  -2  -4  12    7.30   12.90
  -3   4  12   98.19   34.20
   3   4 -12  111.49   33.20
   3  -4  12  113.59   25.90
  -3   4 -12  112.49   36.30
  -3  -4  12  129.09   30.50
  -4   4  12  103.59   31.30
   4   4 -12  125.89   36.40
  -4   4 -12  132.79   37.50
  -4  -4  12  111.79   33.80
  -5   4  12   77.69   30.20
   5   4 -12   33.40   22.40
  -5  -4  12   17.10   28.10
  -5   4 -12    4.10   27.90
   6   4 -12   12.30   39.60
  -6   4  12  -20.50   31.60
   0   5 -12   31.70   19.70
   0  -5  12   18.10   11.30
   0   5 -12   70.69   33.20
   1  -5  12   16.60   13.00
   1   5 -12  -19.30   13.00
  -1  -5  12   -2.40   11.00
  -1   5 -12   27.70   23.60
  -1   5 -12   18.00   26.10
  -1   5 -12   -8.10   15.40
   2  -5  12  248.58   43.90
  -2   5  12  402.46   58.49
   2   5 -12  374.16   64.49
  -2  -5  12  269.87   50.49
  -2   5 -12  237.98   51.99
  -2   5 -12  271.77   48.80
   3  -5  12   -6.10   11.00
   3   5 -12   -4.10   19.50
  -3   5  12   61.09   30.10
  -3   5 -12   28.20   21.20
  -3   5 -12   36.80   27.50
  -3  -5  12    0.10   14.60
  -4   5  12   44.80   30.70
   4   5 -12    8.70   17.00
  -4   5 -12    9.50   28.10
  -4   5 -12  -33.40   16.20
  -4  -5  12  -21.80   12.00
   5   5 -12   22.80   25.00
  -5   5  12   40.80   28.00
  -5  -5  12   -5.20   23.50
  -5   5 -12   35.60   24.80
   6   5 -12   84.09   41.90
   0  -6  12  147.69   34.60
   0   6 -12  134.39   38.90
   1   6 -12   16.60   17.00
   1  -6  12   62.09   22.40
  -1  -6  12   34.70   20.70
  -1   6 -12   92.79   38.50
   2  -6  12  -25.90   10.70
   2   6 -12  -13.90   14.60
  -2   6  12   24.70   22.60
  -2   6 -12  -20.80   21.50
  -2   6 -12   -1.50   16.50
  -2  -6  12   -8.70   12.40
  -3   6  12  -14.00   23.90
   3  -6  12   14.10   14.20
   3   6 -12   25.20   22.80
  -3   6 -12  -42.70   29.50
  -3  -6  12   -3.80   17.00
  -3   6 -12   44.50   27.30
   4   6 -12   39.00   24.60
  -4   6  12  129.89   33.70
  -4   6 -12   43.90   24.80
  -4  -6  12   -8.70   20.30
  -4   6 -12  -23.50   35.70
  -5   6  12  -43.00   27.50
   5   6 -12   23.80   28.20
  -6   6  12  -35.50   37.40
   0  -7  12    6.40   14.90
   0   7 -12  -36.60   18.30
   1   7 -12   -6.80   15.60
   1  -7  12    9.20   15.50
  -1  -7  12   -9.00   16.30
  -1   7 -12    2.70   17.90
   2   7 -12   53.59   27.00
   2  -7  12   64.79   26.70
  -2  -7  12  101.49   31.90
  -3   7  12  -34.40   24.00
   3   7 -12  -29.90   17.20
  -3   7 -12  -43.10   31.10
  -3   7 -12   13.40   24.00
  -3  -7  12  -33.10   14.90
  -4   7  12  -26.60   33.10
   4   7 -12  -21.50   25.30
  -4  -7  12  -32.90   31.00
  -4   7 -12  -15.90   35.80
  -5   7  12   -2.90   38.10
   0  -8  12  135.49   38.20
   0   8 -12  122.09   42.80
   1   8 -12   11.90   25.70
   1  -8  12   -4.30   14.90
  -1  -8  12    5.90   18.00
  -1   8 -12   -1.30   21.10
   2   8 -12    5.30   21.70
   2  -8  12  -22.00   13.90
  -2  -8  12   33.00   23.50
  -2   8 -12   -5.70   19.90
  -3   8  12   37.50   32.00
  -3   8 -12   58.29   36.90
  -4   8  12  137.39   41.30
  -4   8 -12  226.18   70.99
   0   0 -13  -18.60    9.50
   0   0  13    3.40    7.40
   1   0 -13   11.30   12.00
  -1   0  13   -4.30   10.50
   1   0  13   -0.70    7.10
  -1   0 -13    8.20   11.50
  -2   0 -13    0.10   13.10
  -2   0  13    2.20   11.50
   2   0 -13   -6.70   12.80
   2   0  13    6.00    8.10
   3   0 -13   11.50   15.40
  -3   0 -13  -24.30   13.20
   4   0 -13  -22.80   13.20
  -4   0 -13   32.00   20.40
  -4   0  13   14.80   15.60
   5   0 -13  -13.30   17.90
  -5   0  13   18.20   17.40
  -5   0 -13   28.20   20.80
  -6   0  13   73.49   29.40
  -6   0 -13    2.10   22.00
   6   0 -13   73.29   36.70
   0  -1 -13   14.50   10.50
   0   1 -13    5.90   12.70
   0   1  13   -7.50   16.10
  -1   1  13   52.59   15.00
   1   1 -13   69.89   20.00
   1  -1  13   41.10   21.70
  -1   1 -13   76.69   24.40
  -1  -1  13   55.49   18.30
   1  -1 -13   36.00   12.50
   2  -1  13  326.37   34.30
  -2  -1 -13  386.96   43.00
   2   1 -13  343.27   43.20
  -2   1 -13  342.57   43.60
   2   1  13  305.87   28.50
  -2  -1  13  348.27   42.10
  -3   1  13   12.80   17.10
  -3  -1 -13   17.20   18.10
   3   1 -13   18.90   17.70
  -3  -1  13   53.39   18.10
  -3   1 -13   59.29   25.80
   3  -1 -13   25.10   15.60
   4   1 -13   13.80   17.20
  -4   1  13    5.60   13.10
   4  -1 -13   24.60   18.40
  -4   1 -13   -8.00   13.20
  -4  -1  13  -12.80   15.10
  -5  -1 -13  -22.30   15.40
  -5   1  13   30.90   19.20
   5   1 -13  -13.30   16.90
  -5  -1  13   64.19   22.00
  -5   1 -13   14.20   21.60
   5  -1 -13  -40.10   22.80
  -6   1  13  150.78   46.80
   6   1 -13  146.39   38.00
  -6   1 -13   96.29   40.00
  -6  -1  13  173.98   48.50
   0   2 -13  710.33   63.19
   0  -2  13  688.73   53.19
   1  -2  13   18.60    9.40
   1   2 -13   -3.30   14.20
  -1  -2 -13    2.30   10.20
  -1  -2  13    3.40   10.70
  -1   2 -13   17.80   13.50
  -2  -2 -13   -3.30    9.50
   2  -2  13   -4.30    8.90
  -2   2  13   24.30   16.70
   2   2 -13   10.70   14.60
  -2  -2  13   38.90   14.60
  -2   2 -13    2.40   10.80
  -3   2  13   26.80   19.50
  -3  -2 -13    2.90   15.70
   3   2 -13  -12.50   13.90
  -3   2 -13   25.90   20.00
  -3  -2  13    9.50   11.80
   4   2 -13  182.48   42.20
  -4   2  13  236.48   47.50
  -4   2 -13  207.78   43.90
  -4  -2  13  264.17   48.80
   5   2 -13   78.49   27.60
  -5   2  13   46.90   30.90
  -5  -2  13   26.70   26.20
  -5   2 -13   54.09   27.10
   6   2 -13   81.19   28.00
  -6   2  13   38.50   29.50
  -6   2 -13  -20.10   24.80
  -6  -2  13   41.70   29.30
   0  -3  13    2.40   10.70
   0   3 -13   30.60   14.90
   1   3 -13  122.79   31.70
  -1   3 -13  147.79   35.30
  -1  -3  13  143.59   32.30
   2  -3  13  117.59   25.40
   2   3 -13  111.79   30.30
  -2   3  13  103.39   24.30
  -2   3 -13   73.59   26.30
  -2  -3  13  100.19   27.30
   2   3  13   92.59   21.10
   3  -3  13  133.59   26.70
   3   3 -13  155.28   37.30
  -3   3  13   59.99   29.10
  -3  -3  13  129.49   34.10
   4   3 -13  -14.50   19.40
  -4   3  13   63.49   25.10
  -4  -3  13   16.00   17.00
  -4   3 -13   18.70   22.70
  -5   3  13  127.99   41.50
   5   3 -13   77.29   33.40
  -5   3 -13   92.29   41.10
  -5  -3  13  137.59   41.30
  -6   3  13   71.59   43.70
   6   3 -13  110.49   38.70
  -6  -3  13   15.10   30.50
   0   4 -13  142.69   35.90
   0  -4  13   82.79   24.90
   1   4 -13  371.06   49.90
   1  -4  13  410.86   46.60
  -1  -4  13  480.05   93.09
  -1   4 -13  427.36   55.19
   2   4 -13    1.60   15.90
  -2   4  13  -19.90   16.50
  -2   4 -13    4.50   16.30
  -2  -4  13  -10.00   12.10
   3  -4  13  378.26   46.50
   3   4 -13  385.56   61.99
  -3   4  13  433.76   64.49
  -3   4 -13  420.76   70.59
  -3  -4  13  398.06   51.39
  -4   4  13    8.50   25.00
   4   4 -13   20.80   19.40
  -4   4 -13   -9.80   17.50
  -4  -4  13    7.60   18.10
  -5   4  13   44.60   39.20
   5   4 -13   53.19   35.30
  -5   4 -13   67.69   33.30
  -5  -4  13  124.39   38.70
   6   4 -13   25.80   27.10
  -6   4  13    9.80   64.49
   0  -5  13  -14.30   10.10
   1   5 -13  258.57   48.50
   1  -5  13  301.17   40.50
  -1  -5  13  226.98   44.00
  -1   5 -13  286.07   57.09
   2   5 -13  133.29   40.20
   2  -5  13  190.28   38.20
  -2   5  13  217.38   47.20
  -2   5 -13  145.09   41.50
  -2  -5  13  195.48   40.10
   3  -5  13  148.79   37.20
  -3   5  13  199.28   46.60
   3   5 -13  134.99   42.10
  -3  -5  13  106.89   31.50
  -3   5 -13  142.09   39.00
  -4   5  13  -54.19   24.50
   4   5 -13  -23.10   28.30
  -4   5 -13   -8.80   22.70
  -5   5  13  230.08   54.79
   5   5 -13  231.18   52.69
  -5  -5  13  217.78   57.59
  -6   5  13  -88.59   37.50
   0   6 -13  458.85   73.99
   0  -6  13  464.85   54.69
   1  -6  13   62.39   23.30
   1   6 -13   46.50   28.20
  -1  -6  13   63.09   25.50
  -1   6 -13   56.39   33.80
  -1   6 -13   43.50   25.90
   2   6 -13    1.30   23.80
   2  -6  13    2.40   15.10
  -2   6  13   13.20   22.90
  -2   6 -13   31.30   31.90
  -2   6 -13   -2.90   14.80
  -2  -6  13   15.10   14.50
  -3   6  13   66.19   36.60
   3  -6  13   34.50   22.00
   3   6 -13   86.39   31.90
  -3   6 -13   45.90   28.60
   4   6 -13  319.67   68.89
  -4   6  13  370.16   69.99
  -4   6 -13  348.57   87.29
  -4  -6  13  412.56   70.69
  -5   6  13   70.59   37.60
   0   7 -13   17.30   24.00
   0  -7  13   14.70   18.90
   1  -7  13   42.10   26.30
   1   7 -13  -28.80   25.10
  -1  -7  13   56.59   50.39
  -1   7 -13   14.60   32.80
   2  -7  13  433.66   57.49
   2   7 -13  432.46   74.09
  -2   7 -13  347.97   65.29
  -2  -7  13  373.76   67.29
  -2   7 -13  337.47   66.99
   3   7 -13   38.20   28.70
  -3  -7  13    8.10   17.30
   0  -8  13   66.39   29.30
   0   8 -13   89.79   37.30
   1   8 -13   71.89   55.49
   1  -8  13   89.09   30.40
  -1  -8  13   71.59   32.40
  -2   8 -13   23.00   41.40
   0   0 -14  865.71   59.89
   0   0  14  861.61   51.39
  -1   0  14   64.19   20.10
   1   0 -14   51.19   19.40
  -1   0 -14   58.89   22.60
   1   0  14   40.10   16.10
  -2   0 -14    9.10   18.90
   2   0  14    1.50    9.60
  -2   0  14   18.00   16.00
   3   0 -14   40.90   23.20
  -3   0 -14   43.90   24.50
  -3   0  14   43.40   19.20
  -4   0 -14  678.73   70.49
  -4   0  14  683.73   72.39
   4   0 -14  753.62   63.79
  -5   0 -14   13.70   21.40
  -5   0  14  -39.00   20.60
  -6   0 -14    2.10   27.10
  -6   0  14  -22.30   26.70
   0  -1  14   14.40   11.00
   0  -1 -14   -7.30   10.60
   0   1 -14   17.10   16.20
   1  -1  14  165.68   28.90
   1   1 -14  110.59   30.70
  -1  -1 -14  128.69   26.80
  -1   1  14  224.68   29.00
  -1   1 -14  191.38   36.30
   1  -1 -14  156.08   24.40
  -1  -1  14  159.38   31.80
   2   1 -14  595.64   57.89
  -2   1  14  584.44   54.09
   2  -1  14  605.34   48.10
  -2  -1 -14  600.44   56.19
   2   1  14  661.63   42.40
  -2  -1  14  626.14   54.19
  -2   1 -14  696.53   64.09
  -3  -1 -14   19.10   16.60
  -3   1  14   55.99   23.90
   3   1 -14   66.29   23.30
  -3  -1  14   50.79   21.90
  -3   1 -14   63.19   26.30
   4   1 -14    5.60   20.40
  -4  -1 -14    0.00   21.20
  -4  -1  14   57.49   26.20
  -4   1 -14   17.70   21.80
   5   1 -14   53.19   31.60
  -5   1  14  113.99   38.50
  -5  -1 -14   39.60   31.20
  -5  -1  14  123.59   44.90
  -5   1 -14   62.09   33.50
  -6   1  14  149.09   44.70
  -6   1 -14  152.68   58.39
  -6  -1  14  105.19   38.40
   0  -2  14    5.40   12.30
   0   2 -14   -6.90   13.90
   1  -2  14  304.87   35.50
   1   2 -14  257.27   45.50
  -1  -2 -14  286.27   33.10
  -1   2 -14  241.98   44.20
  -1  -2  14  318.77   36.60
   2   2 -14   21.50   17.80
  -2  -2 -14   21.90   16.50
  -2  -2  14  -22.40   12.20
  -2   2 -14   -4.60   17.20
   3   2 -14  316.97   49.40
  -3  -2 -14  215.98   40.70
  -3   2  14  225.18   41.60
  -3  -2  14  167.08   35.90
  -3   2 -14  225.58   46.50
  -4   2  14   13.60   25.00
  -4  -2  14   54.59   24.60
  -4   2 -14   60.39   31.00
  -5   2  14   78.09   28.30
   5   2 -14   53.09   31.00
  -5   2 -14   71.39   31.70
  -5  -2  14  112.09   34.00
   6   2 -14  -33.00   32.80
  -6   2  14    5.60   26.00
   0  -3  14  -17.60   10.70
   1   3 -14  270.57   49.40
   1  -3  14  334.77   37.50
  -1   3 -14  302.27   55.89
  -1  -3  14  355.26   42.00
   2  -3  14   65.69   20.00
  -2   3  14   31.10   24.40
   2   3 -14    1.30   25.70
  -2   3 -14   74.69   30.30
  -2  -3  14   84.19   21.70
   3  -3  14  297.97   37.60
   3   3 -14  249.58   50.49
  -3   3  14  197.88   42.30
  -3   3 -14  133.49   40.80
  -3  -3  14  202.68   42.70
  -4   3  14   -6.60   23.30
   4   3 -14   25.20   22.00
  -4  -3  14  -10.40   19.50
  -4   3 -14    4.50   19.60
  -5   3  14  114.49   44.30
   5   3 -14  174.38   43.20
  -5  -3  14  228.88   52.99
  -5   3 -14  187.68   51.19
  -6   3  14   29.00   33.90
   0  -4  14   53.69   21.10
   0   4 -14   88.09   30.50
   1  -4  14   46.40   16.80
   1   4 -14   40.10   23.80
  -1  -4  14   32.20   17.70
  -1   4 -14   83.99   35.20
   2   4 -14   15.40   17.20
  -2   4  14   -5.80   20.10
   2  -4  14   55.19   16.50
  -2  -4  14   33.50   21.30
  -2   4 -14    5.40   23.10
   3   4 -14   27.90   24.00
   3  -4  14   10.10   19.20
  -3   4  14   95.39   31.20
  -3  -4  14    5.80   25.20
  -3   4 -14   16.80   22.10
   4   4 -14   55.69   34.00
  -4   4  14  -43.30   32.60
  -4   4 -14   19.80   33.60
  -4  -4  14   57.79   29.20
   5   4 -14   16.60   31.10
  -5   4  14   35.70   31.70
   0  -5  14  -22.20   11.40
   0   5 -14  -40.60   16.70
   1   5 -14  -14.90   19.60
   1  -5  14   56.29   18.40
  -1   5 -14   23.90   19.30
  -1  -5  14   41.50   19.20
   2   5 -14  150.18   40.80
   2  -5  14  162.98   37.80
  -2  -5  14  208.28   45.90
  -2   5 -14  194.88   49.80
   3   5 -14   38.50   31.80
  -3   5  14  -40.70   22.20
   3  -5  14   43.90   19.50
  -3  -5  14  -14.80   17.00
  -3   5 -14  -27.00   22.40
  -4   5  14  117.39   31.60
  -4   5 -14  -28.10   26.10
  -4  -5  14   19.10   20.10
   5   5 -14    1.10   29.00
  -5   5  14  121.89   38.70
   0  -6  14    9.50   20.30
   0   6 -14   13.80   20.90
   1  -6  14    0.30   16.00
   1   6 -14    1.40   20.80
  -1  -6  14   39.20   16.80
  -1   6 -14  -32.50   34.90
   2   6 -14   28.50   28.80
   2  -6  14    5.30   15.30
  -2   6 -14   15.20   24.70
   3  -6  14   22.20   17.40
   3   6 -14  -12.00   28.20
  -3   6 -14   49.60   31.30
  -3  -6  14   26.50   21.70
   4   6 -14   16.90   29.10
   0   7 -14   19.80   26.80
   0  -7  14    2.30   20.50
   1   7 -14    6.60   30.50
   1  -7  14  -26.30   15.00
  -1  -7  14   -8.60   17.80
  -1   7 -14   10.70   22.40
   2  -7  14    7.80   22.40
   2   7 -14    4.40   24.80
  -2  -7  14  -29.70   16.00
   0   0  15  -10.90   15.50
   0   0 -15   21.50   15.20
   1   0  15    8.90   12.90
  -1   0 -15  -33.70   13.80
  -1   0  15   -5.40   14.60
  -2   0  15   26.40   16.80
   2   0  15  -22.70    9.90
   2   0 -15    9.50   17.30
  -2   0 -15    4.40   19.60
   3   0 -15   -6.70   22.50
  -3   0 -15    2.30   16.50
  -3   0  15   14.40   16.90
  -4   0 -15   38.20   26.60
  -4   0  15   -4.50   15.80
  -5   0  15  -55.39   22.80
  -5   0 -15  -47.70   22.80
   0  -1  15   12.60   11.90
   0  -1 -15   12.60   16.40
   0   1 -15   -4.30   15.30
   0   1  15   -9.10    8.60
   1  -1  15   -6.60   13.60
  -1   1  15    5.60   14.20
   1   1 -15  -17.50   13.80
  -1  -1 -15   17.20   18.10
  -1  -1  15    6.00   14.40
  -1   1 -15  -16.10   12.80
   2   1 -15  173.08   36.10
   2  -1  15  174.28   30.00
  -2  -1 -15  133.59   32.80
  -2   1  15  186.28   35.30
  -2  -1  15  201.28   38.50
  -2   1 -15  150.18   43.70
   3   1 -15   -9.50   23.30
  -3   1  15  -17.90   16.70
  -3  -1 -15   -5.90   18.90
  -3  -1  15   36.90   17.50
  -3   1 -15   37.80   20.00
  -4   1  15  -51.99   21.40
  -4  -1 -15   62.09   29.00
   4   1 -15   52.19   25.60
  -4  -1  15   14.90   23.90
  -4   1 -15  -34.40   22.00
  -5   1  15  -13.70   27.00
  -5  -1 -15    2.90   28.30
  -5   1 -15   53.09   29.40
  -5  -1  15  -22.00   34.10
   0   2 -15  109.29   32.50
   0  -2  15  107.99   24.50
  -1   2  15   34.20   14.30
  -1  -2 -15  -11.00   15.90
   1  -2  15   11.90    8.70
   1   2 -15  -22.90   17.20
  -1   2 -15  -10.20   17.60
  -1  -2  15  -26.70   12.10
  -2  -2 -15  -17.30   16.80
   2   2 -15   -3.10   19.80
   2  -2  15  -23.50   11.00
  -2   2  15    2.70   15.10
  -2  -2  15    5.10   19.50
  -2   2 -15    4.70   17.40
   3   2 -15  -23.80   20.00
  -3   2  15   39.00   22.20
  -3   2 -15   48.70   26.10
  -3  -2  15   26.20   20.00
  -4   2  15  136.19   43.70
   4   2 -15  100.99   32.30
  -4  -2  15   92.99   33.40
  -4   2 -15   82.69   32.10
  -5   2  15   59.59   32.40
   5   2 -15   -9.60   33.90
  -5   2 -15  -24.10   22.10
  -5  -2  15  -10.30   24.90
   0   3 -15    1.40   19.90
   1  -3  15  142.49   31.00
   1   3 -15  109.29   33.60
  -1   3 -15   76.29   30.40
  -1  -3  15  149.79   32.70
  -2   3  15   14.40   23.10
   2   3 -15   63.99   27.70
   2  -3  15   64.19   20.00
  -2  -3  15   26.90   19.50
  -2   3 -15   16.70   17.80
  -3   3  15   66.99   29.40
   3   3 -15   60.19   33.40
  -3  -3  15   92.49   34.00
  -3   3 -15   99.09   33.10
   4   3 -15  -14.40   24.70
  -4   3  15  -42.10   23.60
  -4   3 -15    7.40   21.40
  -4  -3  15    9.90   26.50
  -5   3  15  -51.29   31.10
   5   3 -15   76.39   42.80
  -5  -3  15  -33.30   21.50
   0   4 -15   52.39   23.20
   0  -4  15   31.30   17.00
   1  -4  15  178.48   34.20
   1   4 -15  287.07   56.89
  -1  -4  15  313.17   49.40
  -1   4 -15  203.38   47.60
   2   4 -15   29.40   25.60
   2  -4  15  -16.80    9.80
  -2   4 -15    6.10   25.00
  -2  -4  15  -20.50   16.10
   3   4 -15  221.38   47.00
   3  -4  15  216.98   38.20
  -3   4 -15  185.58   60.49
  -3  -4  15  172.18   40.60
   4   4 -15   19.10   26.10
  -4   4 -15  -25.20   31.50
  -4  -4  15   49.90   25.10
   5   4 -15   66.69   43.30
   0   5 -15   10.60   24.00
   0  -5  15   12.40   14.30
   1   5 -15  170.58   47.00
   1  -5  15  130.39   34.40
  -1   5 -15   82.49   40.90
  -1  -5  15   96.59   28.90
   2   5 -15   19.00   27.60
   2  -5  15   97.19   27.60
  -2   5 -15   82.09   36.80
  -2  -5  15   71.89   28.90
   3   5 -15   66.79   62.19
   3  -5  15   61.69   29.00
  -3   5 -15   99.29   38.50
  -3  -5  15   60.89   31.00
   4   5 -15   61.89   35.10
   0   6 -15  227.48   55.09
   1   6 -15   19.80   33.40
   1  -6  15   25.90   20.10
  -1   6 -15   -0.90   23.30
  -1  -6  15   47.20   23.30
   2  -6  15   -2.20   22.50
   2   6 -15  -27.20   21.80
  -2   6 -15  -34.40   22.20
   3   6 -15   27.00   31.30
   0   0  16  970.00   59.59
   0   0 -16 1011.30   72.19
   1   0 -16   10.20   20.50
   1   0  16   15.60   12.40
  -1   0 -16   53.49   23.70
  -1   0  16   13.90   14.60
   2   0  16   37.80   19.20
  -2   0  16    4.00   12.40
  -2   0 -16   -4.30   20.20
  -3   0  16   67.29   28.60
  -3   0 -16   89.99   34.80
  -4   0 -16  285.57   52.29
  -4   0  16  309.37   55.19
  -5   0 -16   59.09   35.90
  -5   0  16   51.49   34.50
   0   1 -16   26.40   21.10
  -1   1  16   50.19   20.30
  -1  -1 -16   58.79   23.90
   1   1 -16   78.29   25.50
  -1   1 -16   -9.30   22.50
  -1  -1  16   47.10   17.80
   2   1 -16  210.78   42.50
   2  -1  16  237.48   33.20
  -2  -1 -16  195.78   40.10
  -2   1  16  366.66   41.70
  -2  -1  16  197.18   37.40
  -2   1 -16  219.88   48.10
  -3  -1 -16   19.00   26.70
  -3   1  16   82.49   25.00
  -3   1 -16   54.19   29.50
  -3  -1  16   77.89   22.50
  -4  -1 -16  -12.00   26.40
  -4   1  16  -14.90   22.30
  -4   1 -16  -10.20   23.60
  -4  -1  16  -11.90   24.30
  -5  -1  16   39.20   30.70
  -5   1 -16   68.29   35.90
   0   2 -16   90.19   33.40
   0  -2  16   97.09   28.90
   1  -2  16  110.39   26.60
  -1   2 -16   66.99   28.00
  -1  -2  16  129.89   34.60
   2  -2  16    2.70   14.70
  -2   2 -16   28.30   23.10
  -2  -2  16    7.20   16.20
   3   2 -16  159.38   40.90
  -3  -2  16  216.78   43.20
  -3   2 -16  159.48   42.40
  -4   2  16  -17.00   26.20
  -4   2 -16    7.70   29.20
  -4  -2  16   34.10   28.60
   0  -3  16   -7.90   13.20
   0   3 -16  -19.40   23.50
   1  -3  16  144.99   29.80
   1   3 -16  130.29   37.50
  -1   3 -16  237.78   47.00
  -1  -3  16  196.58   35.80
   2   3 -16   46.80   27.60
   2  -3  16   28.80   17.80
  -2   3 -16   44.10   26.60
  -2  -3  16   -8.90   14.70
   3   3 -16   79.09   33.10
  -3  -3  16   19.90   26.50
   4   3 -16  -67.09   33.10
  -4   3 -16   -1.50   24.40
  -4  -3  16  -38.20   24.60
   0   4 -16   51.99   30.80
   0  -4  16   21.80   18.80
   1   4 -16   13.20   27.50
   1  -4  16    8.30   15.70
  -1  -4  16   70.19   24.00
  -1   4 -16   44.30   26.60
   2  -4  16  -17.70   14.60
   2   4 -16   14.50   26.70
  -2   4 -16   11.60   36.10
  -2  -4  16   16.60   21.90
   3   4 -16   72.49   32.70
  -3  -4  16   50.59   25.80
  -3   4 -16   78.19   35.70
   4   4 -16   40.10   36.20
   0   5 -16  -17.50   23.60
   1   5 -16   26.60   42.60
   1  -5  16    9.40   18.10
  -1   5 -16  -11.50   29.60
   2   5 -16   33.10   32.40
  -2   5 -16   -2.10   25.10
  -2  -5  16   48.70   31.10
   3   5 -16    8.40   33.70
   0   6 -16   70.99   60.29
   0  -6  16   -5.60   23.50
   1  -6  16   23.80   23.60
   1   6 -16   -9.10   35.90
  -1  -6  16    9.00   22.00
  -2   0 -17  -11.40   26.10
  -3   0  17   35.80   36.30
  -3   0 -17    1.10   30.70
  -4   0 -17   24.90   34.00
  -4   0  17   19.60   24.30
   0   1 -17   49.40   27.00
   0  -1  17   18.30   20.10
  -1  -1  17    5.30   16.40
  -1   1 -17    0.60   25.70
  -2   1 -17   92.99   34.00
  -2  -1  17   58.49   21.40
  -3  -1  17   35.90   27.20
  -3   1 -17   52.89   31.80
  -4   1 -17  -21.60   30.30
   0  -2  17   32.30   20.60
   0   2 -17  154.58   39.20
   1  -2  17   41.60   15.00
   1   2 -17   -9.80   28.90
  -1   2 -17  -13.60   25.00
  -1  -2  17  -28.60   14.90
   2  -2  17   -1.20   17.80
  -2   2 -17    2.60   29.10
  -2  -2  17   43.60   21.60
  -3  -2  17   34.10   23.30
   0  -3  17  -18.10   16.20
   0   3 -17   39.60   28.90
   1  -3  17   56.39   22.60
   1   3 -17   66.29   38.10
  -1   3 -17    3.70   28.40
  -1  -3  17   49.20   26.10
   2   3 -17   32.00   37.00
   2  -3  17    8.70   19.30
  -2   3 -17   31.80   44.60
  -2  -3  17   38.90   21.00
  -3   3 -17   -7.10   37.00
  -3  -3  17   -6.60   26.20
   0  -4  17  -24.10   19.80
   0   4 -17   44.90   34.90
   1  -4  17   66.09   28.50
   1   4 -17  -13.80   34.10
  -1   4 -17  113.59   36.30
  -1  -4  17  121.79   28.20
   2   4 -17  -33.30   32.10
   2  -4  17   13.30   21.50
  -2   4 -17   -7.90   30.40
  -2  -4  17  -27.30   20.90
   0   5 -17   29.60   33.30
   0  -5  17   27.80   22.50
   1   5 -17  -22.40   34.40
   1  -5  17   50.39   28.20
  -1  -5  17   23.00   26.00
  -1   2 -18   79.19   56.89
  -2   2 -18  116.79   42.00
   0   3 -18   -0.90   38.80
   0  -3  18   20.40   31.40
  -1   3 -18   39.50   55.19
  -1  -3  18   50.89   24.50
   0   0   0    0.00    0.00


_computing_structure_solution     'SHELXT 2014/5 (Sheldrick, 2014)'
_computing_structure_solution     'SHELXT 2014/5 (Sheldrick, 2014)'
;
_shelx_hkl_checksum              74644
_olex2_submission_special_instructions 'No special instructions were received'
loop_
_space_group_symop_operation_xyz
'x, y, z'
'-x, -y, z+1/2'
'-x, y+1/2, -z+1/2'
'x, -y+1/2, -z'
'-x, -y, -z'
'x, y, -z-1/2'
'x, -y-1/2, z-1/2'
'-x, y-1/2, z'
loop_
_atom_site_label
_atom_site_type_symbol
_atom_site_fract_x
_atom_site_fract_y
_atom_site_fract_z
_atom_site_U_iso_or_equiv
_atom_site_adp_type
_atom_site_occupancy
_atom_site_site_symmetry_order
_atom_site_calc_flag
_atom_site_refinement_flags_posn
_atom_site_refinement_flags_adp
_atom_site_refinement_flags_occupancy
_atom_site_disorder_assembly
_atom_site_disorder_group
Cs1 Cs 1.13192(8) 0.21064(6) 0.750000 0.0307(2) Uani 1 2 d S T P . .
Br1 Br 0.62408(13) 0.06114(10) 0.750000 0.0326(3) Uani 1 2 d S T P . .
O1 O 0.8703(6) 0.4378(6) 0.6152(4) 0.0424(12) Uani 1 1 d . . . . .
O2 O 0.2939(10) 0.250000 0.500000 0.0448(18) Uani 1 2 d S T P . .
N1 N 0.8730(11) 0.250000 0.500000 0.0286(16) Uani 1 2 d DS T P . .
N2 N 0.5818(8) 0.3490(6) 0.5563(4) 0.0294(12) Uani 1 1 d . . . . .
C1 C 0.7794(10) 0.3525(8) 0.5622(5) 0.0295(14) Uani 1 1 d . . . . .
C2 C 0.4735(14) 0.250000 0.500000 0.0286(19) Uani 1 2 d S T P . .
H2 H 0.520(9) 0.404(6) 0.597(4) 0.017(15) Uiso 1 1 d . . . . .
H1 H 1.019(3) 0.250000 0.500000 0.14(6) Uiso 1 2 d DS T P . .
loop_
_atom_site_aniso_label
_atom_site_aniso_U_11
_atom_site_aniso_U_22
_atom_site_aniso_U_33
_atom_site_aniso_U_23
_atom_site_aniso_U_13
_atom_site_aniso_U_12
Cs1 0.0313(4) 0.0267(3) 0.0342(3) 0.000 0.000 0.0019(2)
Br1 0.0288(5) 0.0307(5) 0.0383(5) 0.000 0.000 -0.0007(4)
O1 0.034(3) 0.042(3) 0.050(3) -0.014(2) -0.006(2) -0.008(2)
O2 0.019(4) 0.059(5) 0.056(4) -0.005(4) 0.000 0.000
N1 0.023(4) 0.031(4) 0.031(4) -0.007(3) 0.000 0.000
N2 0.024(3) 0.030(3) 0.035(3) -0.005(3) 0.003(2) 0.005(2)
C1 0.032(4) 0.026(3) 0.030(3) 0.004(3) -0.004(3) -0.003(3)
C2 0.030(5) 0.028(5) 0.027(4) 0.006(4) 0.000 0.000
loop_
_atom_type_symbol
_atom_type_description
_atom_type_scat_dispersion_real
_atom_type_scat_dispersion_imag
_atom_type_scat_source
C C 0.0033 0.0016 'International Tables Vol C Tables 4.2.6.8 and 6.1.1.4'
H H 0.0000 0.0000 'International Tables Vol C Tables 4.2.6.8 and 6.1.1.4'
Br Br -0.2901 2.4595 'International Tables Vol C Tables 4.2.6.8 and 6.1.1.4'
Cs Cs -0.3680 2.1192 'International Tables Vol C Tables 4.2.6.8 and 6.1.1.4'
N N 0.0061 0.0033 'International Tables Vol C Tables 4.2.6.8 and 6.1.1.4'
O O 0.0106 0.0060 'International Tables Vol C Tables 4.2.6.8 and 6.1.1.4'
loop_
_geom_angle_atom_site_label_1
_geom_angle_atom_site_label_2
_geom_angle_atom_site_label_3
_geom_angle
_geom_angle_site_symmetry_1
_geom_angle_site_symmetry_3
_geom_angle_publ_flag
Br1 Cs1 Br1 84.125(17) 3_756 1_655 ?
Br1 Cs1 N1 97.98(5) 3_756 . ?
Br1 Cs1 N1 118.92(9) 1_655 . ?
Br1 Cs1 N1 97.98(5) 3_756 6_557 ?
Br1 Cs1 N1 118.92(9) 1_655 6_557 ?
Br1 Cs1 C1 138.29(11) 1_655 . ?
Br1 Cs1 C1 89.80(10) 3_756 6_557 ?
Br1 Cs1 C1 138.29(11) 1_655 6_557 ?
Br1 Cs1 C1 89.80(10) 3_756 . ?
Br1 Cs1 H1 104.8(3) 1_655 . ?
Br1 Cs1 H1 90.75(18) 3_756 . ?
O1 Cs1 Br1 72.49(8) 8_755 1_655 ?
O1 Cs1 Br1 72.22(8) 6_557 3_756 ?
O1 Cs1 Br1 138.81(8) . 1_655 ?
O1 Cs1 Br1 136.69(9) 8_755 3_756 ?
O1 Cs1 Br1 136.69(9) 3_746 3_756 ?
O1 Cs1 Br1 72.49(8) 3_746 1_655 ?
O1 Cs1 Br1 138.81(8) 6_557 1_655 ?
O1 Cs1 Br1 72.22(8) . 3_756 ?
O1 Cs1 O1 102.31(13) 8_755 . ?
O1 Cs1 O1 145.68(7) 8_755 6_557 ?
O1 Cs1 O1 69.9(2) 8_755 3_746 ?
O1 Cs1 O1 145.68(7) 3_746 . ?
O1 Cs1 O1 64.66(17) 6_557 . ?
O1 Cs1 O1 102.31(13) 3_746 6_557 ?
O1 Cs1 O2 128.73(10) 8_755 6_657 ?
O1 Cs1 O2 63.20(10) 8_755 1_655 ?
O1 Cs1 O2 67.14(12) . 1_655 ?
O1 Cs1 O2 67.14(12) 6_557 6_657 ?
O1 Cs1 O2 128.07(10) 6_557 1_655 ?
O1 Cs1 O2 128.07(10) . 6_657 ?
O1 Cs1 O2 63.20(10) 3_746 6_657 ?
O1 Cs1 O2 128.73(10) 3_746 1_655 ?
O1 Cs1 N1 65.06(10) 8_755 . ?
O1 Cs1 N1 65.06(10) 3_746 6_557 ?
O1 Cs1 N1 97.83(11) . 6_557 ?
O1 Cs1 N1 125.15(11) 3_746 . ?
O1 Cs1 N1 37.34(9) 6_557 6_557 ?
O1 Cs1 N1 97.83(11) 6_557 . ?
O1 Cs1 N1 125.15(11) 8_755 6_557 ?
O1 Cs1 N1 37.34(9) . . ?
O1 Cs1 C1 84.70(14) 3_746 6_557 ?
O1 Cs1 C1 18.94(13) 6_557 6_557 ?
O1 Cs1 C1 84.70(14) 8_755 . ?
O1 Cs1 C1 131.62(13) 3_746 . ?
O1 Cs1 C1 131.62(13) 8_755 6_557 ?
O1 Cs1 C1 18.94(13) . . ?
O1 Cs1 C1 76.15(13) . 6_557 ?
O1 Cs1 C1 76.15(13) 6_557 . ?
O1 Cs1 H1 44.4(2) . . ?
O1 Cs1 H1 108.6(3) 6_557 . ?
O1 Cs1 H1 129.85(13) 3_746 . ?
O1 Cs1 H1 62.19(11) 8_755 . ?
O2 Cs1 Br1 75.86(5) 1_655 3_756 ?
O2 Cs1 Br1 75.86(5) 6_657 3_756 ?
O2 Cs1 Br1 74.74(10) 1_655 1_655 ?
O2 Cs1 Br1 74.74(10) 6_657 1_655 ?
O2 Cs1 O2 140.0(2) 6_657 1_655 ?
O2 Cs1 N1 47.84(14) 6_657 6_557 ?
O2 Cs1 N1 164.80(10) 6_657 . ?
O2 Cs1 N1 47.84(14) 1_655 . ?
O2 Cs1 N1 164.80(10) 1_655 6_557 ?
O2 Cs1 C1 143.09(14) 1_655 6_557 ?
O2 Cs1 C1 63.79(14) 6_657 6_557 ?
O2 Cs1 C1 143.09(14) 6_657 . ?
O2 Cs1 C1 63.79(14) 1_655 . ?
O2 Cs1 H1 166.60(17) 6_657 . ?
O2 Cs1 H1 32.4(4) 1_655 . ?
N1 Cs1 N1 121.1(2) . 6_557 ?
N1 Cs1 H1 15.4(3) . . ?
N1 Cs1 H1 136.0(4) 6_557 . ?
C1 Cs1 N1 102.78(14) . 6_557 ?
C1 Cs1 N1 21.74(13) 6_557 6_557 ?
C1 Cs1 N1 21.74(13) . . ?
C1 Cs1 N1 102.78(14) 6_557 . ?
C1 Cs1 C1 82.7(2) . 6_557 ?
C1 Cs1 H1 116.5(3) 6_557 . ?
C1 Cs1 H1 33.9(3) . . ?
Cs1 Br1 Cs1 136.84(3) 1_455 . ?
Cs1 Br1 Cs1 139.65(3) 3_746 1_455 ?
Cs1 Br1 Cs1 83.51(2) 3_746 . ?
Cs1 O1 Cs1 102.64(13) 3_756 . ?
C1 O1 Cs1 100.4(4) . . ?
C1 O1 Cs1 148.0(5) . 3_756 ?
Cs1 O2 Cs1 142.0(2) 7_465 1_455 ?
C2 O2 Cs1 109.00(11) . 1_455 ?
C2 O2 Cs1 109.00(11) . 7_465 ?
Cs1 N1 Cs1 122.3(2) . 7_565 ?
Cs1 N1 H1 61.17(10) . . ?
Cs1 N1 H1 61.17(10) 7_565 . ?
C1 N1 Cs1 77.7(3) . . ?
C1 N1 Cs1 131.4(3) 4_556 . ?
C1 N1 Cs1 77.7(3) 4_556 7_565 ?
C1 N1 Cs1 131.4(3) . 7_565 ?
C1 N1 C1 124.7(8) 4_556 . ?
C1 N1 H1 117.6(4) 4_556 . ?
C1 N1 H1 117.6(4) . . ?
C1 N2 C2 125.8(6) . . ?
C1 N2 H2 117(4) . . ?
C2 N2 H2 116(4) . . ?
O1 C1 Cs1 60.7(4) . . ?
O1 C1 N1 121.2(6) . . ?
O1 C1 N2 124.3(7) . . ?
N1 C1 Cs1 80.6(3) . . ?
N2 C1 Cs1 133.6(4) . . ?
N2 C1 N1 114.6(6) . . ?
O2 C2 N2 122.8(4) . . ?
O2 C2 N2 122.8(4) . 4_556 ?
N2 C2 N2 114.4(8) 4_556 . ?
loop_
_geom_bond_atom_site_label_1
_geom_bond_atom_site_label_2
_geom_bond_distance
_geom_bond_site_symmetry_2
_geom_bond_publ_flag
Cs1 Br1 3.6400(10) 1_655 ?
Cs1 Br1 3.5952(11) 3_756 ?
Cs1 O1 3.236(5) 6_557 ?
Cs1 O1 3.021(5) 3_746 ?
Cs1 O1 3.236(5) . ?
Cs1 O1 3.021(5) 8_755 ?
Cs1 O2 3.415(2) 6_657 ?
Cs1 O2 3.415(2) 1_655 ?
Cs1 N1 3.686(4) 6_557 ?
Cs1 N1 3.685(4) . ?
Cs1 C1 3.650(6) . ?
Cs1 C1 3.650(6) 6_557 ?
Cs1 H1 3.320(5) . ?
Br1 Cs1 3.6400(11) 1_455 ?
Br1 Cs1 3.5952(11) 3_746 ?
O1 Cs1 3.021(5) 3_756 ?
O1 C1 1.205(7) . ?
O2 Cs1 3.415(2) 1_455 ?
O2 Cs1 3.415(2) 7_465 ?
O2 C2 1.232(11) . ?
N1 Cs1 3.685(4) 7_565 ?
N1 C1 1.384(8) 4_556 ?
N1 C1 1.384(8) . ?
N1 H1 1.01(2) . ?
N2 C1 1.359(8) . ?
N2 C2 1.372(7) . ?
N2 H2 0.84(6) . ?
C2 N2 1.372(7) 4_556 ?
