#------------------------------------------------------------------------------
#$Date: 2021-09-06 14:20:08 +0300 (Mon, 06 Sep 2021) $
#$Revision: 268787 $
#$URL: file:///home/coder/svn-repositories/cod/cif/7/70/77/7707740.cif $
#------------------------------------------------------------------------------
#
# This file is available in the Crystallography Open Database (COD),
# http://www.crystallography.net/
#
# All data on this site have been placed in the public domain by the
# contributors.
#
data_7707740
loop_
_publ_author_name
'Gruhne, Michael S.'
'Lenz, Tobias'
'R\"osch, Markus'
'Lommel, Marcus'
'Wurzenberger, Maximilian H. H.'
'Klap\"otke, Thomas M'
'Stierstorfer, J\"org'
_publ_section_title
;
 Nitratoethyl-5H-tetrazoles: improving the oxygen balance through
 application of organic nitrates in energetic coordination compounds.
;
_journal_issue                   31
_journal_name_full
'Dalton transactions (Cambridge, England : 2003)'
_journal_page_first              10811
_journal_page_last               10825
_journal_paper_doi               10.1039/d1dt01898a
_journal_volume                  50
_journal_year                    2021
_chemical_formula_moiety         'C3 H5 N5 O3'
_chemical_formula_sum            'C3 H5 N5 O3'
_chemical_formula_weight         159.12
_chemical_name_common            2-nitratoethyl-5H-tetrazole
_chemical_name_systematic        2-nitratoethyl-5H-tetrazole
_space_group_IT_number           33
_space_group_name_Hall           'P 2c -2n'
_space_group_name_H-M_alt        'P n a 21'
_symmetry_cell_setting           orthorhombic
_symmetry_Int_Tables_number      33
_symmetry_space_group_name_Hall  'P 2c -2n'
_symmetry_space_group_name_H-M   'P n a 21'
_atom_sites_solution_hydrogens   difmap
_atom_sites_solution_primary     dual
_audit_creation_date             2020-10-10
_audit_creation_method
;
Olex2 1.3
(compiled 2020.07.31 svn.rc2a77460 for OlexSys, GUI svn.r6145)
;
_audit_update_record
;
2021-05-17 deposited with the CCDC.	2021-06-29 downloaded from the CCDC.
;
_cell_angle_alpha                90
_cell_angle_beta                 90
_cell_angle_gamma                90
_cell_formula_units_Z            4
_cell_length_a                   7.3292(8)
_cell_length_b                   14.3427(15)
_cell_length_c                   6.3485(5)
_cell_measurement_reflns_used    1838
_cell_measurement_temperature    128
_cell_measurement_theta_max      24.2450
_cell_measurement_theta_min      3.0800
_cell_volume                     667.36(11)
_computing_cell_refinement       'CrysAlisPro 1.171.40.82a (Rigaku OD, 2020)'
_computing_data_collection       'CrysAlisPro 1.171.40.82a (Rigaku OD, 2020)'
_computing_data_reduction        'CrysAlisPro 1.171.40.82a (Rigaku OD, 2020)'
_computing_molecular_graphics    'Diamond 2.1c, Crystal Impact GbR'
_computing_publication_material  'Encifer 1.5.1, CCDC 2014'
_computing_structure_refinement  'SHELXL 2018/3 (Sheldrick, 2015)'
_computing_structure_solution    'SHELXT 2018/2 (Sheldrick, 2018)'
_diffrn_ambient_temperature      128
_diffrn_detector                 'CCD plate'
_diffrn_detector_area_resol_mean 15.9809
_diffrn_detector_type            Sapphire3
_diffrn_measured_fraction_theta_full 1.000
_diffrn_measured_fraction_theta_max 1.000
_diffrn_measurement_details
;
List of Runs (angles in degrees, time in seconds):

  # Type    Start    End  Width  t~exp~   \w     \q     \k     \f   Frames
#--------------------------------------------------------------------------
  1  \w    -71.00  -5.00   1.00    2.00    --  -15.43 128.00-122.69   66
  2  \w    -77.00  -6.00   1.00    2.00    --  -15.43 -57.00 150.00   71
  3  \w    -70.00  -3.00   1.00    2.00    --  -15.43 128.00 153.35   67
  4  \w    -83.00  -4.00   1.00    2.00    --  -15.43 -57.00-120.00   79
  5  \w    -85.00   4.00   1.00    2.00    --  -15.43 -37.00 -60.00   89
  6  \w     -1.00  82.00   1.00    2.00    --   16.37  37.00-180.00   83
  7  \w    -19.00  55.00   1.00    2.00    --   16.37 -99.00 120.00   74
  8  \w    -38.00  43.00   1.00    2.00    --   16.37 -77.00  30.00   81
  9  \w      1.00  84.00   1.00    2.00    --   16.37  57.00  90.00   83
;
_diffrn_measurement_device       'four-circle diffractometer'
_diffrn_measurement_device_type  'Xcalibur, Sapphire3'
_diffrn_measurement_method       '\w scans'
_diffrn_orient_matrix_UB_11      -0.0780591000
_diffrn_orient_matrix_UB_12      -0.0289086000
_diffrn_orient_matrix_UB_13      0.0102303000
_diffrn_orient_matrix_UB_21      -0.0571479000
_diffrn_orient_matrix_UB_22      0.0398109000
_diffrn_orient_matrix_UB_23      -0.0061434000
_diffrn_orient_matrix_UB_31      -0.0039676000
_diffrn_orient_matrix_UB_32      -0.0048545000
_diffrn_orient_matrix_UB_33      -0.1110682000
_diffrn_radiation_monochromator  graphite
_diffrn_radiation_probe          x-ray
_diffrn_radiation_type           'Mo K\a'
_diffrn_radiation_wavelength     0.71073
_diffrn_reflns_av_R_equivalents  0.0482
_diffrn_reflns_av_sigmaI/netI    0.0688
_diffrn_reflns_av_unetI/netI     0.0327
_diffrn_reflns_Laue_measured_fraction_full 1.000
_diffrn_reflns_Laue_measured_fraction_max 1.000
_diffrn_reflns_limit_h_max       9
_diffrn_reflns_limit_h_min       -9
_diffrn_reflns_limit_k_max       17
_diffrn_reflns_limit_k_min       -17
_diffrn_reflns_limit_l_max       7
_diffrn_reflns_limit_l_min       -7
_diffrn_reflns_number            9133
_diffrn_reflns_point_group_measured_fraction_full 0.999
_diffrn_reflns_point_group_measured_fraction_max 0.999
_diffrn_reflns_theta_full        25.242
_diffrn_reflns_theta_max         26.372
_diffrn_reflns_theta_min         2.840
_diffrn_source                   'fine-focus sealed X-ray tube'
_exptl_absorpt_coefficient_mu    0.140
_exptl_absorpt_correction_T_max  1.00000
_exptl_absorpt_correction_T_min  0.75855
_exptl_absorpt_correction_type   multi-scan
_exptl_absorpt_process_details
;
CrysAlisPro 1.171.40.82a (Rigaku Oxford Diffraction, 2020)
Empirical absorption correction using spherical harmonics,
implemented in SCALE3 ABSPACK scaling algorithm.
;
_exptl_crystal_colour            colourless
_exptl_crystal_density_diffrn    1.584
_exptl_crystal_description       needle
_exptl_crystal_F_000             328
_exptl_crystal_size_max          0.5
_exptl_crystal_size_mid          0.331
_exptl_crystal_size_min          0.239
_refine_diff_density_max         0.185
_refine_diff_density_min         -0.167
_refine_diff_density_rms         0.043
_refine_ls_abs_structure_details
;
 Flack x determined using 457 quotients [(I+)-(I-)]/[(I+)+(I-)]
 (Parsons, Flack and Wagner, Acta Cryst. B69 (2013) 249-259).
;
_refine_ls_abs_structure_Flack   -1.1(10)
_refine_ls_extinction_method     none
_refine_ls_goodness_of_fit_ref   1.058
_refine_ls_hydrogen_treatment    refall
_refine_ls_matrix_type           full
_refine_ls_number_parameters     120
_refine_ls_number_reflns         1355
_refine_ls_number_restraints     1
_refine_ls_restrained_S_all      1.058
_refine_ls_R_factor_all          0.0496
_refine_ls_R_factor_gt           0.0361
_refine_ls_shift/su_max          0.000
_refine_ls_shift/su_mean         0.000
_refine_ls_structure_factor_coef Fsqd
_refine_ls_weighting_details
'w=1/[\s^2^(Fo^2^)+(0.0311P)^2^+0.2168P] where P=(Fo^2^+2Fc^2^)/3'
_refine_ls_weighting_scheme      calc
_refine_ls_wR_factor_gt          0.0733
_refine_ls_wR_factor_ref         0.0806
_reflns_Friedel_coverage         0.826
_reflns_Friedel_fraction_full    0.998
_reflns_Friedel_fraction_max     0.998
_reflns_number_gt                1160
_reflns_number_total             1355
_reflns_threshold_expression     'I > 2\s(I)'
_cod_data_source_file            d1dt01898a2.cif
_cod_data_source_block           px360
_cod_depositor_comments
'Adding full bibliography for 7707739--7707758.cif.'
_cod_database_code               7707740
_shelx_space_group_comment
;
The symmetry employed for this shelxl refinement is uniquely defined
by the following loop, which should always be used as a source of
symmetry information in preference to the above space-group names.
They are only intended as comments.
;
_shelx_estimated_absorpt_t_min   0.933
_shelx_estimated_absorpt_t_max   0.967
_shelx_res_file
;
TITL px360_a.res in Pna2(1)
    px360.res
    created by SHELXL-2018/3 at 16:57:39 on 10-Oct-2020
REM Old TITL px360 in Pna2(1)
REM SHELXT solution in Pna2(1): R1 0.116, Rweak 0.272, Alpha 0.001
REM <I/s> 0.612 for 92 systematic absences, Orientation as input
REM Flack x = -1.877 ( 0.951 ) from 472 Parsons' quotients
REM Formula found by SHELXT: C7 N3 O3
CELL 0.71073 7.3292 14.3427 6.3485 90 90 90
ZERR 4 0.0008 0.0015 0.0005 0 0 0
LATT -1
SYMM -X,-Y,0.5+Z
SYMM 0.5+X,0.5-Y,+Z
SYMM 0.5-X,0.5+Y,0.5+Z
SFAC C H N O
UNIT 12 20 20 12

L.S. 20 0 0
PLAN  5
SIZE 0.239 0.331 0.5
TEMP -145.15
CONF
BOND
list 4
MORE -1
BOND $H
fmap 2 53
acta
SHEL 1000 0.8
REM <olex2.extras>
REM <HklSrc "%.\\px360.hkl">
REM </olex2.extras>

WGHT    0.031100    0.216800
FVAR       0.91181
O1    4    0.466641    0.426609    0.615142    11.00000    0.02133    0.02789 =
         0.02231    0.00341    0.00083   -0.00195
O3    4    0.181790    0.431871    0.525610    11.00000    0.02642    0.03084 =
         0.03040    0.00172   -0.00763    0.00085
O2    4    0.249055    0.381584    0.840881    11.00000    0.03352    0.03797 =
         0.02614    0.00523    0.00874   -0.00130
N2    3    0.811229    0.355981    0.484545    11.00000    0.02463    0.02414 =
         0.01674    0.00155   -0.00130    0.00113
N5    3    0.283999    0.411546    0.666267    11.00000    0.02741    0.02205 =
         0.02506   -0.00344    0.00219    0.00105
N3    3    0.788068    0.391994    0.294121    11.00000    0.03549    0.03191 =
         0.02093    0.00389   -0.00141    0.00542
N1    3    0.862920    0.267810    0.482843    11.00000    0.03385    0.02691 =
         0.02333    0.00282    0.00044    0.00442
N4    3    0.826585    0.324738    0.159712    11.00000    0.04096    0.03784 =
         0.02208   -0.00119    0.00129    0.00574
C3    1    0.595210    0.390143    0.769425    11.00000    0.02740    0.02341 =
         0.01730   -0.00068   -0.00392   -0.00020
C2    1    0.780867    0.409482    0.676950    11.00000    0.02621    0.02679 =
         0.01848   -0.00254   -0.00347    0.00135
C1    1    0.871647    0.251048    0.277482    11.00000    0.03290    0.03462 =
         0.02340   -0.00408    0.00112    0.00394
H3A   2    0.568109    0.325830    0.779252    11.00000    0.01488
H2A   2    0.872646    0.389730    0.778044    11.00000    0.01340
H2B   2    0.802512    0.475878    0.645635    11.00000    0.02473
H3B   2    0.590639    0.424975    0.901317    11.00000    0.03096
H1    2    0.908630    0.189249    0.216694    11.00000    0.03036
HKLF 4




REM  px360_a.res in Pna2(1)
REM wR2 = 0.0806, GooF = S = 1.058, Restrained GooF = 1.058 for all data
REM R1 = 0.0361 for 1160 Fo > 4sig(Fo) and 0.0496 for all 1355 data
REM 120 parameters refined using 1 restraints

END

WGHT      0.0312      0.2154

REM Highest difference peak  0.185,  deepest hole -0.167,  1-sigma level  0.043
Q1    1   0.8312  0.4579  0.2853  11.00000  0.05    0.18
Q2    1   0.1149  0.3798  0.8307  11.00000  0.05    0.17
Q3    1   0.3607  0.3202  0.8307  11.00000  0.05    0.17
Q4    1   0.8639  0.5020  0.4793  11.00000  0.05    0.16
Q5    1   0.1180  0.3665  0.5173  11.00000  0.05    0.16
;
_shelx_res_checksum              65376
_shelx_hkl_file
;
   0   0  -6  977.60   45.42
   0   0  -5   -1.00    6.90
   0   0  -5    0.61    5.38
   0   0  -4  184.27   16.29
   0   0  -4  167.56   16.21
   0   0  -3   -1.11    4.42
   0   0  -3   -2.23    4.39
   0   0  -3   -4.95    5.46
   0   0  -2 1380.22   29.27
   0   0  -2 1437.80   30.36
   0   0  -2 1320.96   28.20
   0   0  -2 1349.18   30.51
   0   0  -1    1.02    2.18
   0   0  -1    3.10    2.21
   0   0  -1    1.71    2.06
   0   0  -1    4.85    2.52
   0   0   1    1.53    1.89
   0   0   1    5.36    2.07
   0   0   1    2.16    1.87
   0   0   1    1.49    2.06
   0   0   1    2.10    1.20
   0   0   2 1362.22   28.84
   0   0   2 1452.95   29.74
   0   0   2 1433.25   29.15
   0   0   2 1490.76   31.58
   0   0   2 1333.91   21.56
   0   0   3    2.56    3.48
   0   0   3   -2.59    3.49
   0   0   3    1.14    2.72
   0   0   3    0.03    3.02
   0   0   3    3.95    4.66
   0   0   3    3.40    2.65
   0   0   3    0.46    2.05
   0   0   4  180.98   12.49
   0   0   4  160.58   11.42
   0   0   4  198.60   12.08
   0   0   4  190.81   10.03
   0   0   5   -0.91    2.79
   0   0   5    8.52    4.27
   0   0   5    1.77    4.45
   0   0   5    0.38    4.04
   0   0   5    1.49    2.92
   0   0   6  871.48   32.90
   0   0   6  884.49   36.29
   0   0   6  899.74   31.84
   0   0   6  932.17   30.45
   0   0   7    8.14    5.94
   0   1  -6    3.19    8.04
   0   1  -6    2.24    7.02
   0   1  -5  360.04   24.99
   0  -1  -5  341.48   24.76
   0  -1  -5  406.15   26.73
   0   1  -5  391.60   27.75
   0  -1  -4   -1.08    6.00
   0  -1  -4   -0.74    5.52
   0   1  -4   -2.22    5.21
   0  -1  -4   -2.43    5.06
   0   1  -4   -6.23    5.81
   0  -1  -3  883.33   29.35
   0   1  -3  944.29   29.85
   0  -1  -3  947.99   30.17
   0   1  -3  970.72   32.69
   0  -1  -3  887.72   27.55
   0  -1  -3  918.74   30.58
   0  -1  -2   -2.66    4.14
   0  -1  -2   -2.33    4.30
   0   1  -2    0.15    3.55
   0  -1  -2   -0.62    3.77
   0  -1  -2    0.77    3.94
   0   1  -2   -3.66    4.54
   0   1  -1 3093.00   30.08
   0  -1  -1 2976.42   30.40
   0  -1  -1 3058.05   30.58
   0   1  -1 2934.85   28.50
   0   1  -1 2982.02   24.28
   0  -1  -1 3008.01   26.81
   0  -1  -1 2955.64   24.64
   0   1  -1 3037.24   28.78
   0   1   1 3007.44   30.30
   0  -1   1 3019.22   29.73
   0  -1   1 3015.02   28.19
   0   1   1 3057.77   30.29
   0  -1   1 3246.77   34.59
   0   1   1 3268.17   32.43
   0   1   1 2986.93   26.23
   0   1   1 3016.32   24.46
   0  -1   1 3218.16   34.12
   0  -1   1 2813.60   28.40
   0   1   2   -1.86    2.37
   0  -1   2    4.14    3.48
   0   1   2    0.14    2.95
   0  -1   2   -0.32    3.09
   0  -1   2    0.88    3.02
   0   1   2   -0.23    3.43
   0   1   2    1.13    3.00
   0  -1   2    3.10    3.74
   0  -1   2    1.45    2.81
   0   1   2   -0.01    3.06
   0   1   2    0.24    1.61
   0  -1   2    0.40    3.25
   0  -1   2    2.49    3.18
   0  -1   3  949.13   29.75
   0   1   3  970.36   30.32
   0  -1   3  986.71   30.47
   0  -1   3  943.72   26.14
   0   1   3  951.11   30.03
   0  -1   3 1036.33   32.09
   0   1   3  993.27   28.84
   0  -1   3  904.95   22.23
   0  -1   3 1017.85   32.69
   0   1   3  967.00   31.55
   0   1   3  915.04   20.13
   0   1   3  931.69   19.55
   0  -1   3  910.62   24.48
   0   1   4    1.29    2.24
   0  -1   4    2.78    2.45
   0  -1   4   -0.03    4.18
   0  -1   4   -0.65    3.19
   0  -1   4   -1.38    3.23
   0   1   4    3.86    2.78
   0   1   5  362.24   20.99
   0  -1   5  374.29   18.27
   0  -1   5  361.47   21.12
   0   1   5  397.63   19.95
   0  -1   5  355.19   18.25
   0   1   5  375.39   15.46
   0  -1   5  393.38   20.46
   0   1   5  380.70   16.75
   0  -1   5  379.04   14.94
   0  -1   6    7.36    3.73
   0   1   6   -4.29    4.17
   0  -1   6    2.34    4.93
   0   1   6   -2.16    5.15
   0   1   6   -9.23    5.36
   0  -1   6   -1.58    4.78
   0  -1   6   -1.09    2.75
   0   1   6    4.15    2.75
   0  -1   7    9.24    5.49
   0   1   7   -0.47    4.23
   0   2  -7  -20.10   10.10
   0   2  -6   35.54   10.69
   0  -2  -6   35.32   10.38
   0   2  -6   34.68   11.24
   0   2  -5   -5.39    6.93
   0  -2  -5   -5.11    6.94
   0  -2  -5    3.58    6.14
   0   2  -5   -0.36    6.00
   0  -2  -4  299.09   20.49
   0   2  -4  350.97   21.57
   0  -2  -4  334.36   21.37
   0   2  -4  362.42   23.98
   0  -2  -3   -0.85    4.55
   0   2  -3   -1.97    3.85
   0  -2  -3   -2.26    4.59
   0  -2  -3    1.38    3.99
   0   2  -3   -3.24    4.77
   0  -2  -2  580.05   19.53
   0   2  -2  563.71   18.83
   0   2  -2  595.65   18.27
   0  -2  -2  568.76   19.56
   0   2  -2  583.62   15.65
   0  -2  -2  568.32   17.05
   0  -2  -2  588.72   15.72
   0  -2  -1    0.47    2.14
   0  -2  -1    2.62    2.76
   0   2  -1    4.55    2.55
   0  -2  -1    0.13    2.39
   0   2  -1    1.33    2.26
   0   2  -1   -0.25    1.93
   0  -2  -1    1.32    1.70
   0   2  -1    1.72    2.87
   0   2  -1    0.35    2.41
   0   2   0   13.22    2.33
   0  -2   0    6.98    2.12
   0   2   0   19.44    2.88
   0  -2   0   11.29    2.35
   0   2   0   18.22    2.59
   0   2   1    0.73    2.21
   0  -2   1    0.55    1.85
   0  -2   1   -0.69    2.17
   0  -2   1    1.31    2.55
   0   2   1    0.28    2.18
   0   2   1    1.67    2.46
   0  -2   1    1.05    2.31
   0   2   1    0.17    1.60
   0  -2   1   -2.56    2.69
   0  -2   1    2.37    2.65
   0  -2   2  594.88   18.89
   0   2   2  603.06   19.63
   0   2   2  620.22   19.69
   0  -2   2  606.75   17.97
   0  -2   2  627.08   21.84
   0   2   2  614.24   20.20
   0  -2   2  586.86   15.41
   0   2   2  595.02   16.74
   0   2   2  599.24   15.68
   0  -2   2  584.74   18.77
   0  -2   3   -0.29    1.57
   0   2   3   -2.67    2.36
   0  -2   3    0.36    3.23
   0   2   3    2.37    3.35
   0  -2   3   -0.68    3.56
   0   2   3   -0.68    2.77
   0  -2   3    1.57    3.71
   0   2   3   -1.80    3.31
   0  -2   3   -1.28    2.87
   0  -2   3    4.46    4.40
   0  -2   3   -2.38    3.20
   0   2   3    0.60    1.64
   0  -2   3   -0.70    3.76
   0   2   3    3.24    3.77
   0  -2   4  334.14   13.50
   0  -2   4  329.35   17.98
   0   2   4  340.63   19.31
   0  -2   4  332.20   15.99
   0   2   4  334.54   11.93
   0  -2   4  326.85   18.18
   0   2   4  322.95   14.24
   0  -2   5   -2.06    2.39
   0   2   5   -3.08    2.77
   0   2   5   -0.22    4.00
   0  -2   5   -2.50    4.50
   0  -2   5   -3.27    4.02
   0  -2   5    1.35    3.49
   0   2   5   -1.42    2.08
   0   2   6   37.32    8.65
   0  -2   6   32.80    5.79
   0  -2   6   29.59    7.30
   0   2   6   44.20    8.08
   0  -2   6   37.70    7.46
   0  -2   6   36.98    7.92
   0   2   7   -9.40    5.95
   0  -2   7    0.49    4.51
   0   2   7    2.99    4.45
   0   3  -7   35.41   12.16
   0   3  -6    1.69    6.88
   0  -3  -6    1.77    6.41
   0   3  -6   -2.74    6.39
   0  -3  -5   34.75    9.57
   0   3  -5   24.11    8.17
   0   3  -5   30.78    9.89
   0  -3  -4    0.55    5.44
   0  -3  -4    0.97    5.34
   0   3  -4    3.24    4.99
   0  -3  -4    1.20    4.05
   0   3  -4   -6.82    7.04
   0  -3  -3  384.64   19.65
   0   3  -3  371.73   19.15
   0  -3  -3  418.27   20.50
   0  -3  -3  362.93   16.92
   0   3  -3  362.00   21.37
   0   3  -3  374.84   15.57
   0  -3  -3  358.41   15.26
   0  -3  -2    0.27    2.59
   0  -3  -2   -0.68    3.85
   0  -3  -2    2.42    3.67
   0   3  -2    1.53    2.96
   0   3  -2    1.59    3.55
   0  -3  -2    0.43    2.42
   0   3  -2   -0.62    2.83
   0   3  -2    4.42    4.87
   0   3  -1 9137.83   51.71
   0  -3  -1 9314.85   60.65
   0   3  -1 9126.48   63.44
   0   3  -1 9194.73   57.30
   0  -3  -1 9207.59   43.22
   0   3  -1 9328.03   60.86
   0  -3  -1 9122.26   41.56
   0  -3  -1 9211.86   64.63
   0   3  -1 9240.08   66.40
   0   3  -1 9469.96   70.51
   0  -3   0    6.81    2.95
   0   3   0    8.29    3.55
   0   3   0    7.95    2.77
   0   3   0    9.60    3.19
   0   3   0    6.14    2.80
   0  -3   0    6.19    2.93
   0   3   1 9132.68   55.66
   0  -3   1 9045.05   51.37
   0  -3   1 9282.21   63.63
   0  -3   1 9305.09   58.84
   0   3   1 9081.75   43.81
   0   3   1 9268.86   64.98
   0  -3   1 9699.55   62.99
   0  -3   1 9999.00   68.05
   0  -3   1 9400.11   70.36
   0  -3   2   -2.46    2.51
   0   3   2   -2.55    2.83
   0  -3   2   -1.87    2.78
   0   3   2   -1.10    2.90
   0   3   2    1.10    2.57
   0  -3   2    0.19    3.25
   0   3   2   -0.14    2.08
   0  -3   2   -0.54    2.88
   0  -3   2    5.40    4.62
   0  -3   2   -2.75    3.52
   0  -3   2    2.08    3.87
   0  -3   3  375.06   18.72
   0  -3   3  372.13    7.73
   0   3   3  380.64   19.70
   0  -3   3  368.73   17.26
   0   3   3  385.98   20.06
   0  -3   3  376.40   15.22
   0   3   3  368.23   16.39
   0  -3   3  431.08   22.76
   0   3   3  348.66   14.92
   0  -3   3  388.94   19.08
   0  -3   4    1.58    1.30
   0   3   4   -0.90    2.76
   0  -3   4    0.07    3.44
   0   3   4    2.43    4.24
   0  -3   4   -9.24    3.98
   0   3   4    0.86    1.01
   0  -3   4    0.82    3.29
   0   3   5   32.50    8.23
   0  -3   5   33.42    5.12
   0  -3   5   37.81    4.60
   0   3   5   29.27    5.56
   0  -3   5   33.69    7.11
   0  -3   5   28.35    6.40
   0  -3   5   45.71    8.86
   0   3   5   32.28    3.11
   0   3   6   -3.43    4.74
   0  -3   6    3.57    4.38
   0  -3   6   -8.72    4.96
   0  -3   6    2.92    4.21
   0  -3   7   31.90    8.48
   0   3   7   41.82    9.19
   0   3   7   32.32    8.68
   0  -4  -7   -8.00    8.15
   0   4  -7   -2.46    6.63
   0   4  -6  119.11   16.86
   0  -4  -6  130.78   17.78
   0   4  -6  124.18   19.11
   0  -4  -5    0.75    6.14
   0   4  -5    3.33    6.38
   0   4  -5    4.97    6.63
   0  -4  -4   79.37   11.51
   0   4  -4   77.23   11.32
   0  -4  -4   77.84   11.57
   0  -4  -4   73.70    9.79
   0   4  -4   86.77    9.41
   0   4  -4   74.98   12.66
   0  -4  -3    4.29    3.09
   0  -4  -3   -1.61    4.24
   0   4  -3    3.40    3.37
   0   4  -3    0.21    3.53
   0  -4  -3   -1.30    4.22
   0   4  -3    0.41    2.76
   0  -4  -3    0.49    3.14
   0   4  -3   -1.63    4.62
   0   4  -2  781.46   21.94
   0  -4  -2  828.95   23.41
   0  -4  -2  822.57   24.34
   0   4  -2  814.20   24.27
   0  -4  -2  770.81   18.58
   0   4  -2  783.26   20.93
   0   4  -2  837.94   27.38
   0  -4  -2  790.22   22.89
   0   4  -1    1.43    3.49
   0  -4  -1   -1.62    3.19
   0   4  -1    2.50    3.43
   0   4  -1   10.31    2.92
   0  -4  -1    3.31    1.77
   0   4  -1    0.87    2.49
   0   4  -1    3.47    3.92
   0  -4  -1    1.51    2.16
   0   4  -1    6.06    3.87
   0   4   0 6116.28   55.53
   0   4   0 6053.63   55.07
   0   4   0 5943.90   56.41
   0  -4   0 6082.34   58.13
   0  -4   0 6010.48   54.21
   0  -4   1    2.38    1.86
   0  -4   1   -0.44    3.16
   0   4   1    4.30    4.02
   0  -4   1    1.67    3.54
   0   4   1    1.93    2.48
   0  -4   1    7.03    3.80
   0  -4   1    0.35    4.13
   0   4   1   -1.50    2.28
   0  -4   2  851.10   22.45
   0   4   2  838.23   23.64
   0   4   2  788.59   23.08
   0  -4   2  776.82   23.36
   0   4   2  817.36   17.40
   0  -4   2  801.25   21.19
   0   4   2  752.96   22.42
   0  -4   2  851.93   26.81
   0  -4   2  827.63   26.60
   0  -4   2  842.09   22.21
   0   4   2  741.37   11.16
   0   4   3   -0.46    2.69
   0  -4   3   -0.50    2.04
   0  -4   3   -0.68    3.51
   0  -4   3    0.05    2.95
   0   4   3   -0.01    3.15
   0   4   3    0.17    2.37
   0  -4   3    0.27    2.86
   0  -4   3    4.03    4.32
   0   4   3    1.02    2.77
   0   4   4   74.84    8.29
   0  -4   4   69.24    9.27
   0  -4   4   85.40    9.06
   0   4   4   98.45   10.04
   0  -4   4   78.04    7.66
   0  -4   4   75.31   10.39
   0  -4   5   -0.89    2.17
   0   4   5    1.83    2.80
   0   4   5   -8.83    6.27
   0  -4   5    0.04    3.49
   0  -4   5   -0.89    3.42
   0  -4   5   -1.68    4.67
   0   4   6   95.21   14.11
   0  -4   6  127.26   14.54
   0  -4   6  108.03   11.40
   0  -4   6  121.32   14.95
   0  -4   7   -8.49    5.14
   0   4   7   -6.49    5.09
   0  -4   7  -19.20    6.67
   0  -5  -7   49.11   13.16
   0   5  -7   15.30    9.30
   0  -5  -6   -0.94    7.66
   0   5  -6    4.69    7.09
   0   5  -6   -8.58    7.45
   0  -5  -5   71.41   12.63
   0   5  -5   56.31   10.77
   0   5  -5   68.55   13.90
   0  -5  -4    0.12    2.94
   0  -5  -4   -2.18    5.39
   0   5  -4   -1.77    3.89
   0   5  -4   -3.86    4.62
   0  -5  -4   -0.32    3.77
   0   5  -4    3.13    5.65
   0   5  -3 1018.05   30.71
   0   5  -3 1002.80   32.37
   0  -5  -3 1009.47   32.84
   0   5  -3 1029.48   28.33
   0  -5  -3  983.35   26.66
   0   5  -3 1025.29   36.79
   0  -5  -3 1032.55   30.44
   0  -5  -2   -2.42    2.79
   0   5  -2    0.48    2.61
   0   5  -2    0.91    2.89
   0  -5  -2    0.24    3.71
   0   5  -2    2.54    2.90
   0  -5  -2    1.58    1.99
   0  -5  -2    1.38    1.36
   0   5  -2    1.80    3.74
   0   5  -1 1927.93   23.90
   0   5  -1 1943.87   36.18
   0   5  -1 1992.82   33.83
   0  -5  -1 1890.32   28.49
   0   5  -1 2004.15   36.77
   0   5  -1 2094.15   39.85
   0   5  -1 2006.70   35.58
   0  -5  -1 2035.84   38.73
   0  -5   0    7.06    4.15
   0   5   0   -0.20    3.90
   0   5   0    3.85    3.25
   0   5   0    3.75    3.23
   0  -5   0    3.82    4.21
   0   5   0   -2.61    3.00
   0   5   1 1931.05   26.82
   0  -5   1 1939.02   22.53
   0  -5   1 1908.97   36.32
   0  -5   1 1968.44   35.13
   0   5   1 1953.35   37.20
   0  -5   1 2086.06   38.19
   0  -5   1 1953.18   39.62
   0   5   1 2038.16   30.92
   0  -5   2   -0.54    2.36
   0   5   2    3.26    3.13
   0  -5   2   -3.59    2.52
   0   5   2    0.41    2.82
   0  -5   2    1.92    3.85
   0  -5   2   -0.11    3.42
   0  -5   2    0.68    3.24
   0   5   2   -0.33    1.50
   0  -5   2    2.07    3.98
   0  -5   3 1120.73   32.16
   0  -5   3 1036.32   31.11
   0  -5   3 1070.53   28.43
   0   5   3 1039.54   24.79
   0   5   3 1088.28   33.98
   0  -5   3 1048.16   28.36
   0   5   3 1061.48   30.43
   0  -5   3 1014.33   34.46
   0   5   4    4.56    3.68
   0  -5   4   -2.04    2.84
   0  -5   4    1.01    3.36
   0   5   4   -0.13    3.23
   0  -5   4    1.15    3.75
   0  -5   4   -0.33    4.30
   0  -5   5   68.50    8.05
   0   5   5   68.29   12.26
   0   5   5   64.46    8.97
   0  -5   5   71.41   10.61
   0  -5   5   74.40    9.30
   0  -5   5   89.57   12.82
   0   5   6   -3.24    5.82
   0  -5   6    1.96    3.74
   0  -5   6    9.42    5.13
   0  -5   6   -1.48    4.70
   0  -5   7   29.43    8.49
   0   5   7   24.94    8.54
   0  -5   7   13.88    6.67
   0  -6  -7   14.76   10.58
   0   6  -7   -2.95    7.94
   0   6  -6   39.03   10.56
   0  -6  -6   54.04   12.75
   0   6  -6   30.86   10.93
   0   6  -5    7.42    6.53
   0  -6  -5   -0.45    6.59
   0  -6  -5    1.08    3.67
   0   6  -5    6.60    6.72
   0   6  -4  101.26   12.24
   0  -6  -4   92.07   13.12
   0  -6  -4   93.47   10.27
   0   6  -4   89.65   14.31
   0  -6  -3    2.01    3.01
   0  -6  -3    2.33    4.58
   0   6  -3   -1.59    3.54
   0   6  -3   -5.63    3.60
   0  -6  -3    0.46    2.73
   0   6  -3    2.03    4.54
   0   6  -2  220.83   11.74
   0   6  -2  209.02   14.22
   0  -6  -2  211.72   14.08
   0   6  -2  216.44   12.93
   0  -6  -2  212.58    9.75
   0   6  -2  207.88   14.92
   0  -6  -2  221.20    9.05
   0  -6  -2  215.29   14.53
   0   6  -1    2.20    3.94
   0  -6  -1   -0.07    2.88
   0   6  -1   -0.48    3.10
   0   6  -1    0.99    1.60
   0   6  -1    0.96    3.10
   0   6  -1    1.68    2.86
   0   6  -1    2.64    3.78
   0  -6  -1    1.73    2.73
   0   6   0 5916.68   67.48
   0   6   0 5994.96   67.47
   0   6   0 6002.38   66.33
   0  -6   0 5731.98   64.30
   0   6   0 5834.54   69.37
   0  -6   0 5962.80   71.34
   0   6   1   -1.40    1.72
   0  -6   1   -0.73    4.00
   0  -6   1    3.30    3.16
   0   6   1   -0.26    3.65
   0  -6   1   -0.57    4.01
   0   6   1    2.70    2.93
   0  -6   2  225.03   11.52
   0   6   2  215.32   12.50
   0  -6   2  191.28   13.67
   0  -6   2  208.74   13.17
   0   6   2  201.78    9.20
   0  -6   2  200.63   13.33
   0  -6   2  199.65   15.93
   0   6   2  210.56   14.35
   0  -6   2  230.70   15.19
   0   6   3    1.99    4.29
   0  -6   3    2.68    3.61
   0  -6   3   -2.48    4.17
   0  -6   3   -6.95    3.65
   0   6   3    3.36    3.22
   0   6   3    2.06    2.13
   0  -6   3    1.21    3.42
   0  -6   3    1.31    5.03
   0  -6   4   96.92   11.50
   0  -6   4   99.01   10.63
   0   6   4  106.20    9.71
   0   6   4  104.34   11.63
   0  -6   4  107.76   10.55
   0  -6   4  118.27   14.03
   0   6   5   -1.48    6.25
   0   6   5   -1.96    3.71
   0  -6   5    3.31    4.62
   0  -6   5    1.73    3.67
   0  -6   5    6.60    5.44
   0   6   6   27.83    9.55
   0  -6   6   46.85    9.44
   0  -6   6   32.57    7.65
   0  -6   6   37.16   10.34
   0   6   7   -0.24    5.23
   0  -6   7   -3.41    5.21
   0  -7  -7    7.93    7.19
   0   7  -7    7.75    8.74
   0  -7  -6   -4.07    6.93
   0   7  -6    3.92    8.10
   0   7  -5  422.57   26.67
   0  -7  -5  412.71   28.14
   0  -7  -5  415.83   23.10
   0   7  -5  408.08   31.36
   0   7  -4    0.55    3.75
   0  -7  -4    1.14    5.27
   0  -7  -4    2.05    3.16
   0   7  -4    2.63    6.25
   0   7  -3  172.93   13.12
   0  -7  -3  190.76   15.87
   0  -7  -3  173.04   11.04
   0   7  -3  183.55   16.80
   0   7  -2    0.05    2.42
   0  -7  -2    0.09    4.36
   0   7  -2   -1.56    3.34
   0  -7  -2   -1.48    2.48
   0   7  -2    0.62    4.07
   0  -7  -2   -0.04    2.07
   0   7  -1  752.86   21.84
   0   7  -1  792.37   14.92
   0   7  -1  806.51   27.64
   0   7  -1  792.22   25.56
   0   7  -1  815.49   26.01
   0  -7  -1  781.51   22.92
   0   7  -1  806.85   28.68
   0   7  -1  830.17   27.98
   0  -7  -1  831.70   29.47
   0   7   0    0.99    4.20
   0  -7   0    4.59    3.55
   0   7   0    3.01    3.30
   0   7   0    1.58    3.19
   0   7   0    0.86    3.03
   0  -7   0    0.29    3.56
   0  -7   1  802.21   27.29
   0   7   1  760.85   16.84
   0  -7   1  795.89   29.37
   0   7   1  775.20   23.89
   0   7   1  750.89   27.93
   0  -7   1  854.32   29.22
   0  -7   2    1.32    2.35
   0   7   2    2.72    3.84
   0  -7   2    0.48    1.92
   0   7   2    0.02    2.43
   0  -7   2    0.79    4.32
   0  -7   2   -3.24    3.84
   0  -7   2    0.61    4.91
   0   7   2    0.86    2.07
   0   7   3  168.09   13.82
   0  -7   3  176.18   12.83
   0  -7   3  182.82   15.15
   0  -7   3  199.43   14.48
   0  -7   3  169.10   13.74
   0   7   3  179.15   14.96
   0  -7   3  197.85   17.42
   0   7   4   -1.81    4.46
   0  -7   4    0.30    4.16
   0  -7   4    8.19    4.63
   0   7   4    2.79    3.10
   0  -7   4    4.05    5.15
   0   7   5  402.29   29.94
   0  -7   5  397.13   24.65
   0  -7   5  371.79   22.14
   0  -7   5  394.17   27.88
   0   7   5  387.77   23.46
   0   7   6   -2.38    6.68
   0  -7   6   -0.68    4.98
   0  -7   6    5.12    4.72
   0  -7   6   -1.23    5.66
   0  -7   7   28.80    8.27
   0   7   7    5.68    5.51
   0  -7   7   19.94    8.15
   0   7   8    7.65    6.21
   0  -8  -7   -2.21    6.86
   0   8  -7   -0.31    7.69
   0  -8  -6   67.92   14.10
   0   8  -6   68.39   15.90
   0   8  -5   -0.73    4.15
   0  -8  -5    0.56    6.48
   0  -8  -5   -2.89    3.41
   0   8  -5   -1.02    6.86
   0   8  -4  364.18   21.97
   0  -8  -4  391.72   25.43
   0   8  -4  418.24   28.96
   0  -8  -4  367.91   18.66
   0  -8  -3    1.16    4.70
   0   8  -3   -0.59    3.42
   0  -8  -3    0.34    3.01
   0   8  -3    1.33    5.20
   0   8  -2 1738.76   27.99
   0   8  -2 1884.40   33.44
   0  -8  -2 1918.09   46.02
   0  -8  -2 1854.17   30.42
   0  -8  -2 1799.43   32.52
   0   8  -2 1813.29   46.37
   0   8  -1    0.04    1.31
   0   8  -1   -2.32    5.07
   0   8  -1    1.27    3.58
   0  -8  -1    3.36    3.54
   0   8  -1    1.18    3.35
   0   8   0   70.77   10.16
   0   8   0   74.84    9.51
   0  -8   0   59.43    8.59
   0   8   1    0.44    1.58
   0   8   1    0.64    4.90
   0   8   1    1.70    2.68
   0  -8   1    0.84    4.41
   0   8   2 1935.68   37.13
   0  -8   2 1794.26   45.75
   0  -8   2 1862.48   44.80
   0  -8   2 1904.82   50.96
   0   8   2 1900.23   48.07
   0  -8   3    0.53    2.63
   0   8   3   -2.14    4.52
   0  -8   3    3.90    4.37
   0  -8   3   -3.22    4.42
   0  -8   3    4.84    5.49
   0  -8   4  352.42   23.09
   0  -8   4  366.12   21.92
   0   8   4  365.88   23.32
   0  -8   4  406.48   27.56
   0   8   5   -0.53    4.49
   0   8   5    0.08    7.31
   0  -8   5    0.18    4.99
   0  -8   5    0.65    4.26
   0  -8   5    1.15    5.09
   0   8   6   51.64   12.74
   0  -8   6   66.24   12.16
   0  -8   6   46.98   10.54
   0  -8   6   63.58   13.59
   0  -8   7  -16.59    7.16
   0   8   7  -11.04    8.49
   0  -8   7   -0.46    3.44
   0  -9  -6  -10.08    8.12
   0   9  -6   -1.94    6.66
   0  -9  -5   27.93   10.21
   0   9  -5   48.75   13.01
   0  -9  -4    0.44    6.26
   0   9  -4   -2.00    4.04
   0  -9  -4    0.64    3.92
   0   9  -4   -5.16    6.47
   0   9  -3  371.84   18.72
   0  -9  -3  356.32   22.93
   0  -9  -3  331.39   15.11
   0   9  -3  354.45   24.62
   0  -9  -3  340.28   12.53
   0   9  -2   -0.82    3.05
   0   9  -2   -1.63    2.31
   0  -9  -2    0.96    5.02
   0  -9  -2   -0.25    2.80
   0   9  -2   -0.68    4.75
   0  -9  -2    0.84    2.35
   0   9  -1  413.87   19.36
   0  -9  -1  410.99   19.76
   0   9  -1  431.33   21.51
   0   9  -1  443.95   23.76
   0   9   0    3.32    4.82
   0  -9   0    4.62    4.55
   0   9   1  413.25   11.78
   0   9   1  405.47   23.79
   0  -9   1  400.72   23.63
   0   9   1  431.10   20.72
   0   9   2    4.76    3.11
   0  -9   2    2.17    4.80
   0   9   2    5.42    5.48
   0  -9   2    0.64    5.03
   0  -9   3  334.01   16.95
   0  -9   3  332.80   22.15
   0  -9   3  352.62   21.54
   0   9   3  335.99   22.73
   0  -9   3  384.61   26.11
   0   9   4   -1.88    4.39
   0  -9   4   -0.09    4.26
   0  -9   4   -1.34    5.13
   0  -9   4   -6.53    5.73
   0   9   5   25.42   10.35
   0   9   5   33.59    8.63
   0  -9   5   28.82    7.90
   0  -9   5   33.75    9.07
   0  -9   5   33.85    9.81
   0  -9   6   -7.47    5.45
   0   9   6  -15.99    9.19
   0  -9   6   -3.18    4.92
   0  -9   7   15.66    7.54
   0   9   7   10.40   10.31
   0  -9   7   -8.83    6.82
   0 -10  -6    2.62    7.21
   0  10  -6    4.77    8.78
   0 -10  -5  -22.22    9.52
   0  10  -5    7.06    7.48
   0 -10  -4   88.69   14.18
   0  10  -4   97.45   11.22
   0 -10  -4   79.47    8.68
   0  10  -4  100.60   16.05
   0  10  -3   -0.86    0.87
   0 -10  -3    1.15    5.87
   0  10  -3   -0.37    2.46
   0 -10  -3   -1.05    2.98
   0 -10  -3    4.11    2.66
   0  10  -3   -1.46    5.55
   0  10  -2  597.92   20.54
   0 -10  -2  668.09   30.37
   0 -10  -2  628.43   19.62
   0 -10  -2  611.60   22.60
   0  10  -2  591.62   29.26
   0  10  -1   -9.29    5.03
   0  10  -1    2.84    6.01
   0  10  -1    2.60    5.21
   0 -10  -1    9.21    4.47
   0  10   0   24.76    8.19
   0 -10   0   24.94    7.13
   0  10   1    0.83    1.29
   0  10   1    2.11    6.18
   0 -10   1    5.40    5.44
   0  10   2  590.30   20.04
   0 -10   2  627.11   32.94
   0  10   2  605.68   30.74
   0 -10   3   -5.99    5.81
   0  10   3    0.06    5.40
   0 -10   3   -4.00    6.18
   0  10   4   76.72   12.43
   0  10   4   72.86   15.36
   0 -10   4   70.43   12.36
   0 -10   4   97.36   13.65
   0 -10   4   94.58   14.80
   0  10   5   -6.88    5.53
   0  10   5   -3.31    9.31
   0 -10   5    9.10    6.02
   0 -10   5   -0.96    4.37
   0 -10   5    2.85    6.30
   0 -10   6   12.00    7.20
   0  10   6    2.19    7.20
   0 -10   6    8.85    7.41
   0 -10   7    1.66    3.05
   0 -11  -6    0.13    6.09
   0  11  -6   -0.79    6.55
   0 -11  -5   26.01   10.06
   0  11  -5    9.21    7.48
   0 -11  -4   -4.39    6.77
   0  11  -4    2.09    5.28
   0  11  -3   92.58    5.58
   0 -11  -3   91.24   13.73
   0 -11  -3   79.95    7.97
   0 -11  -3   97.96    8.51
   0  11  -3   83.96   13.45
   0  11  -2    0.17    2.94
   0 -11  -2   -0.25    6.49
   0 -11  -2    1.36    2.86
   0  11  -2    1.24    5.56
   0 -11  -2   -0.53    3.33
   0  11  -1  437.61   22.77
   0  11  -1  486.48   25.11
   0  11  -1  505.91   29.06
   0 -11  -1  487.09   24.42
   0  11   0    0.75    5.50
   0  11   0    6.50    6.43
   0 -11   0    5.22    5.49
   0 -11   1  505.52   28.85
   0  11   1  486.59   29.40
   0  11   2    0.78    1.80
   0  11   2   -0.88    6.29
   0 -11   2   -5.90    6.14
   0  11   3   63.84   11.89
   0 -11   3   72.67   13.15
   0 -11   4    0.86    5.52
   0  11   4   -1.05    5.39
   0  11   4    9.21    9.33
   0 -11   4    3.18    5.78
   0  11   5   15.04    6.89
   0  11   5   16.86    8.72
   0 -11   5   12.70    6.33
   0 -11   5   16.62    8.17
   0 -11   5   29.75    9.83
   0  11   6   -1.48    7.80
   0 -11   6   -9.14    6.92
   0  12  -6   23.75   11.60
   0 -12  -5    4.11    6.15
   0  12  -5   -7.82    8.04
   0 -12  -4  113.61   17.18
   0  12  -4   91.27   16.57
   0 -12  -3   -1.92    6.81
   0  12  -3   -0.20    5.41
   0 -12  -3   -1.48    2.72
   0  12  -2  356.30   18.51
   0 -12  -2  382.24   25.57
   0 -12  -2  389.50   16.91
   0  12  -2  393.13   25.88
   0 -12  -2  398.39   20.97
   0  12  -1    0.11    6.58
   0  12  -1   -4.28    5.03
   0 -12  -1    2.84    4.33
   0  12  -1   -5.86    5.15
   0  12   0  291.02   22.12
   0 -12   0  309.58   22.81
   0  12   0  310.31   24.55
   0  12   1    4.44    6.73
   0  12   1    0.89    6.52
   0 -12   1    2.05    4.37
   0  12   2  372.65   29.94
   0 -12   2  353.54   27.32
   0  12   2  359.84   26.62
   0  12   3    3.63    7.67
   0  12   3    1.74    5.12
   0 -12   3    8.96    6.52
   0 -12   4   84.04   13.96
   0  12   4   86.32   14.85
   0  12   4   93.72   17.81
   0 -12   4   80.62   15.89
   0 -12   5   -4.34    6.03
   0  12   5    8.95    6.28
   0  12   5    4.35    9.19
   0 -12   6   11.95   10.83
   0  12   6   50.59   14.69
   0 -12   6   29.54   10.44
   0 -13  -5   -5.99    8.01
   0  13  -5   -2.31    6.01
   0 -13  -4   -3.88    6.98
   0  13  -4    9.17    7.45
   0 -13  -3  144.82   18.18
   0  13  -3  140.00   18.14
   0  13  -2  -11.56    4.81
   0 -13  -2    3.73    7.37
   0 -13  -2    1.52    3.05
   0 -13  -2   -0.71    4.02
   0  13  -2   -2.89    5.49
   0  13  -1   24.69    7.61
   0  13  -1   22.57    8.87
   0  13  -1   41.84    9.67
   0 -13  -1   26.84    7.20
   0  13   0    1.98    7.11
   0  13   0    0.98    5.55
   0 -13   0    3.30    4.35
   0  13   0   -0.11    3.84
   0  13   1   16.30    8.84
   0  13   1   31.47   10.13
   0 -13   1   10.31    6.98
   0  13   2    2.55    8.06
   0  13   2   -4.81    7.73
   0 -13   2    0.85    5.42
   0  13   3  138.91   21.06
   0  13   3  127.88   17.65
   0 -13   3  108.65   18.05
   0  13   4   -4.44    7.87
   0  13   4   10.61    7.06
   0 -13   4   -9.74    7.62
   0 -13   5   17.46    8.33
   0  13   5    6.61    8.79
   0  13   5   24.22    9.02
   0 -13   6  -14.24    6.21
   0 -14  -5  -21.38   10.09
   0  14  -5   -8.45    9.20
   0 -14  -4   20.60    9.59
   0  14  -4   24.26   10.18
   0 -14  -3    3.64    6.19
   0  14  -3   -4.56    5.88
   0 -14  -2  598.41   35.09
   0  14  -2  538.14   25.17
   0 -14  -2  597.63   28.72
   0  14  -2  590.63   34.07
   0  14  -1    7.71    8.97
   0  14  -1    3.74    5.91
   0 -14  -1    3.45    3.96
   0  14  -1    6.51    5.74
   0  14   0    8.38    7.40
   0  14   0   19.21   10.30
   0 -14   0    2.53    5.93
   0  14   0    8.56    4.81
   0  14   1   14.61    9.12
   0  14   1    4.07    7.82
   0 -14   1   -5.43    6.77
   0  14   2  512.31   35.69
   0  14   2  515.28   34.91
   0 -14   2  553.39   36.53
   0  14   3   -1.57    7.51
   0  14   3   -2.53    6.92
   0 -14   3    1.07    6.25
   0  14   4   21.95    8.85
   0  14   4   26.08   11.27
   0 -14   4   17.12    8.80
   0  14   5  -13.42    7.53
   0  15  -5   20.59   10.89
   0 -15  -4    3.30    8.12
   0  15  -4   17.10    9.22
   0 -15  -3   49.89   11.80
   0  15  -3   21.23   10.15
   0 -15  -2   -1.41    6.00
   0 -15  -2    8.47    4.82
   0  15  -2    7.00    6.51
   0  15  -1  183.97   18.53
   0 -15  -1  198.55   19.44
   0  15  -1  173.81   18.32
   0  15   0   -2.11    7.38
   0  15   0   -6.02    6.64
   0  15   0   -1.48    4.27
   0 -15   0    0.84    4.13
   0  15   1  186.37   22.32
   0 -15   1  229.79   23.66
   0  15   1  214.88   23.65
   0  15   2    4.44    7.04
   0  15   2    7.41    7.32
   0 -15   2   -0.30    5.55
   0  15   3   39.61   13.12
   0  15   3   38.11   12.43
   0 -15   3   54.35   13.63
   0  15   4   -7.00    8.94
   0  15   4    1.39    6.60
   0 -15   4   -1.79    6.13
   0  15   5   34.40    9.80
   0  16  -4   82.53   17.54
   0 -16  -3   -5.00    7.26
   0  16  -3   -1.05    5.41
   0 -16  -2    9.99    8.27
   0  16  -2   21.62    8.47
   0  16  -1    0.48    5.87
   0 -16  -1  -10.01    6.24
   0  16  -1   -1.87    4.71
   0  16   0    5.09    6.66
   0  16   0   -0.99    8.44
   0 -16   0    8.03    6.90
   0  16   0   10.41    6.49
   0  16   1   -0.02    7.93
   0  16   1    3.15    9.43
   0 -16   1   -1.16    6.10
   0  16   2   20.63   10.81
   0  16   2   27.88   11.43
   0 -16   2   24.34    9.84
   0  16   3    2.83    7.12
   0  16   3    6.54    9.96
   0 -16   3   -1.41    6.35
   0  16   4   82.38   16.96
   0  17  -4   -6.53    6.30
   0  17  -3   55.58   13.82
   0 -17  -2    3.63    6.72
   0  17  -2    9.16    5.88
   0 -17  -1   18.88    7.97
   0  17  -1   50.04   11.29
   0  17   0   12.19    9.67
   0  17   0   12.83    8.40
   0 -17   0    7.01    6.99
   0  17   1   28.04   11.65
   0  17   1   33.05   11.83
   0 -17   1   27.76   10.48
   0  17   2   -9.40    9.92
   0  17   2    6.45    7.88
   0 -17   2    8.95    6.94
   0  17   3   32.87   11.14
   0 -18  -1    7.55    7.07
   0  18   0  -12.81    7.64
   0 -18   0   -9.03    7.50
   0  18   1   -8.62    7.90
   0 -18   1   -2.28    6.73
   0  18   2   45.13   13.97
   0 -19   0   16.96    9.49
   0  19   1   -4.35    7.04
   1   0  -7    1.36    8.65
  -1   0  -7  -13.61    8.16
   1   0  -6   -2.67    7.50
  -1   0  -6    2.18    7.68
   1   0  -5    3.38    5.90
  -1   0  -5   -2.26    5.71
  -1   0  -5    4.96    6.05
   1   0  -4   -3.04    5.64
   1   0  -4    2.76    5.08
  -1   0  -4    0.01    4.55
  -1   0  -4    3.89    5.19
   1   0  -3   -2.72    4.33
   1   0  -3    2.72    5.33
  -1   0  -3   -0.30    4.31
   1   0  -3    2.00    2.50
  -1   0  -3    1.09    4.18
   1   0  -2    1.30    2.35
   1   0  -2    0.53    4.10
   1   0  -2    0.11    3.54
  -1   0  -2   -0.76    4.38
   1   0  -2    0.98    2.12
  -1   0  -2    2.92    4.25
   1   0  -1    1.20    2.63
   1   0  -1    0.49    1.99
   1   0  -1    1.07    2.20
  -1   0  -1    0.94    2.86
  -1   0  -1   -2.00    2.56
   1   0  -1    1.79    1.80
   1   0   0    5.74    1.83
  -1   0   0    6.80    1.92
   1   0   0    9.85    2.06
  -1   0   1    1.16    2.37
  -1   0   1    1.66    2.46
   1   0   1   -0.33    2.10
  -1   0   1   -0.20    1.87
   1   0   1    2.03    2.39
  -1   0   1   -2.51    1.95
   1   0   1    2.51    2.33
  -1   0   2   -1.76    2.72
  -1   0   2    0.12    2.74
   1   0   2   -1.92    2.88
   1   0   2   -0.62    1.79
   1   0   2   -0.95    3.44
  -1   0   2   -1.69    2.92
   1   0   2    0.88    3.51
  -1   0   2    1.20    2.26
  -1   0   2    0.81    3.49
   1   0   2   -1.63    2.83
  -1   0   3   -0.91    3.08
   1   0   3    4.12    3.27
  -1   0   3    0.37    2.63
   1   0   3    0.57    2.72
  -1   0   3    4.04    3.03
   1   0   3    0.36    2.21
  -1   0   3    1.26    1.96
   1   0   3   -3.23    4.73
   1   0   3    0.95    3.15
  -1   0   3   -0.82    3.02
  -1   0   3    1.17    2.17
  -1   0   3    1.56    3.75
   1   0   3   -3.36    3.43
  -1   0   4    1.72    3.03
   1   0   4   -3.14    3.10
   1   0   4   -1.84    4.72
  -1   0   4    2.13    2.39
  -1   0   4    1.61    2.10
  -1   0   5   -2.00    3.07
   1   0   5    0.39    3.86
  -1   0   5  -13.89    6.34
   1   0   5   -9.87    4.33
  -1   0   5   -0.47    2.78
   1   0   5    5.43    4.76
  -1   0   5    1.73    2.71
   1   0   5    3.71    3.41
   1   0   6   -2.26    3.14
  -1   0   6  -14.30    5.72
  -1   0   6   -7.77    8.63
   1   0   6  -15.30    5.85
   1   0   6   -6.01    5.37
  -1   0   6   -2.74    3.54
  -1   0   6    1.42    3.57
   1   0   6    2.38    3.08
  -1   0   7   -7.78    6.96
   1   0   7    0.14    4.05
   1   1  -7   89.55   16.05
   1  -1  -7   90.32   16.45
  -1   1  -7   80.59   16.93
   1   1  -6   92.89   15.70
   1  -1  -6   98.21   15.85
  -1   1  -6  114.39   17.62
  -1  -1  -6   69.34   13.87
   1   1  -5   52.31   11.20
   1  -1  -5   65.43   11.83
   1  -1  -5   67.19   11.80
  -1  -1  -5   54.68   10.81
  -1  -1  -5   40.71   10.08
  -1   1  -5   51.85   11.67
   1  -1  -4  144.22   14.90
   1   1  -4  144.90   14.79
  -1  -1  -4  153.38   15.50
   1  -1  -4  118.59   13.44
  -1   1  -4  134.99   14.64
  -1   1  -4  119.22   13.91
  -1  -1  -4  139.25   14.21
   1   1  -4  157.21   16.29
  -1  -1  -4  153.22   15.09
   1   1  -3  310.27   17.92
   1  -1  -3  311.92   17.88
  -1  -1  -3  324.02   18.37
   1  -1  -3  339.44   18.40
  -1   1  -3  352.74   20.09
  -1   1  -3  301.45   18.53
   1   1  -3  308.80   19.15
  -1  -1  -3  307.91   17.81
  -1  -1  -3  332.25   18.43
   1   1  -3  318.16   14.52
   1  -1  -3  310.76   10.88
   1  -1  -2  335.61   15.72
   1   1  -2  347.11   11.67
   1   1  -2  364.43   16.18
  -1  -1  -2  335.70   15.12
   1  -1  -2  353.01   15.36
   1   1  -2  351.50   16.90
  -1  -1  -2  341.63   14.96
  -1   1  -2  343.23   16.69
  -1   1  -2  341.14   16.08
  -1  -1  -2  332.99   15.30
   1  -1  -2  345.34    9.36
   1   1  -2  366.15   13.45
   1  -1  -2  338.83    7.44
   1  -1  -1 1294.19   23.32
   1   1  -1 1293.25   17.80
   1   1  -1 1388.43   22.59
   1  -1  -1 1370.23   22.01
  -1  -1  -1 1290.18   20.67
  -1   1  -1 1330.57   13.22
   1  -1  -1 1305.20   20.82
  -1   1  -1 1324.64   24.43
   1   1  -1 1319.61   23.41
  -1  -1  -1 1353.30   22.88
  -1  -1  -1 1351.70   19.68
  -1   1  -1 1332.91   22.99
   1  -1  -1 1358.50   16.03
  -1   1  -1 1398.83   23.29
   1   1  -1 1387.69   22.02
  -1   1   0  148.80    6.33
   1  -1   0  108.15    5.60
  -1  -1   0  147.88    6.21
  -1   1   0  136.27    5.88
   1  -1   0  152.18    5.38
   1  -1   0  131.64    5.87
   1   1   0  148.50    7.08
  -1  -1   0  145.64    6.43
   1   1   0  147.92    6.64
  -1   1   1 1372.06   23.41
  -1   1   1 1338.32   21.50
  -1  -1   1 1299.10   17.57
  -1  -1   1 1348.26   24.78
  -1  -1   1 1297.48   20.56
  -1   1   1 1343.25   20.29
   1   1   1 1258.17   19.79
   1  -1   1 1351.03   23.35
   1  -1   1 1369.57   24.36
   1   1   1 1388.41   22.75
  -1  -1   1 1390.98   24.14
  -1   1   1 1283.84   14.46
  -1  -1   1 1268.79   20.68
   1   1   1 1326.84   19.01
   1  -1   1 1413.77   22.69
  -1  -1   1 1322.43   14.98
   1   1   2  348.65   15.40
  -1   1   2  325.17   14.14
  -1  -1   2  334.30   11.03
   1  -1   2  320.43   14.87
  -1   1   2  374.02   15.56
  -1  -1   2  343.96   14.99
   1   1   2  356.38   15.05
  -1   1   2  360.76   14.93
  -1  -1   2  326.83   15.49
   1  -1   2  349.95   15.17
   1  -1   2  349.95    9.99
  -1  -1   2  337.98   14.76
  -1  -1   2  353.02    7.26
   1   1   2  359.89   15.17
   1   1   2  351.35   15.10
   1  -1   2  344.67   16.00
  -1  -1   2  349.06   16.42
  -1   1   2  379.29   17.05
   1  -1   2  345.91   14.57
  -1  -1   2  316.75   12.45
  -1   1   2  340.02    9.25
   1  -1   2  377.19   16.31
  -1   1   3  311.02   17.58
  -1   1   3  305.36   15.52
  -1  -1   3  308.27   17.31
   1   1   3  297.35   17.43
  -1  -1   3  330.66   13.33
   1  -1   3  301.28   17.23
  -1   1   3  326.75   17.56
  -1  -1   3  329.10   17.69
  -1  -1   3  318.37   17.65
   1  -1   3  295.06   12.13
   1  -1   3  301.19   17.33
   1   1   3  347.91   18.27
   1  -1   3  331.18   18.96
  -1  -1   3  324.89   17.76
  -1  -1   3  311.31   10.04
  -1   1   3  334.24   16.60
   1   1   3  350.16   18.62
   1   1   3  342.96   17.91
  -1   1   3  332.66   19.26
  -1  -1   3  321.86   19.15
   1  -1   3  297.56   15.43
   1   1   3  354.98   16.24
   1  -1   3  336.52   18.79
  -1   1   3  300.22   10.27
  -1  -1   3  313.79   14.37
  -1   1   3  318.24    7.48
  -1  -1   4  146.54   10.40
  -1   1   4  168.58   13.06
  -1  -1   4  148.20   13.64
   1  -1   4  123.73    9.69
  -1   1   4  124.91   12.18
  -1  -1   4  136.85    8.35
   1  -1   4  135.36   11.66
   1  -1   4  143.38   11.61
  -1  -1   4  143.11   10.98
  -1   1   4  152.61    8.61
   1   1   4  139.65   11.35
  -1   1   4  142.86    5.37
  -1  -1   5   66.88    8.20
  -1   1   5   63.53    9.40
   1   1   5   64.90    8.52
  -1  -1   5   78.46   11.34
   1   1   5   59.02    8.27
   1  -1   5   68.83    8.46
   1   1   5   60.50    9.60
   1  -1   5   57.01    8.83
  -1  -1   5   53.46    6.58
  -1   1   5   61.76    7.41
   1   1   5   61.51    7.86
  -1  -1   5   68.33    8.52
  -1   1   5   67.83    6.71
   1  -1   5   67.83    9.11
   1  -1   6   84.46    9.69
   1  -1   6   94.59   10.84
  -1   1   6  107.27   12.62
   1   1   6   78.12    9.69
  -1  -1   6  101.14   10.63
  -1  -1   6   79.18   12.53
  -1   1   6   67.66   11.77
   1   1   6   85.08   10.69
   1  -1   6   88.38   10.75
  -1   1   6   98.13    9.88
  -1  -1   6   99.96    9.26
   1  -1   6  111.89   13.23
   1   1   6   86.03   12.10
  -1  -1   6   97.02   10.80
   1   1   6  112.61   11.01
   1  -1   6   99.33   11.94
  -1   1   7   74.39   13.27
  -1  -1   7   62.73   12.19
   1   1   7   87.94   12.40
   1  -1   7   66.82   11.12
   1   2  -7   24.52   11.55
   1  -2  -7   32.04   11.61
  -1   2  -7   39.03   12.10
   1   2  -6  156.90   19.02
   1  -2  -6  154.35   19.48
   1  -2  -6  164.57   19.46
  -1   2  -6  164.12   20.92
   1  -2  -5  172.24   18.41
   1   2  -5  183.51   18.40
   1   2  -5  163.59   19.34
  -1   2  -5  195.73   20.31
  -1  -2  -5  168.26   17.87
  -1  -2  -5  172.00   17.81
   1  -2  -5  161.64   17.25
  -1  -2  -5  181.82   18.74
   1   2  -4  457.16   24.82
   1  -2  -4  459.02   25.68
   1  -2  -4  465.01   25.01
  -1  -2  -4  460.21   25.00
   1   2  -4  428.67   26.85
  -1  -2  -4  454.89   24.53
  -1  -2  -4  428.79   24.29
  -1   2  -4  420.60   25.81
   1  -2  -3  292.75   17.30
   1   2  -3  285.55   17.18
  -1  -2  -3  288.68   17.11
   1  -2  -3  295.04   17.22
  -1   2  -3  277.13   18.33
   1   2  -3  287.65   19.00
  -1   2  -3  295.30   18.71
  -1  -2  -3  298.29   16.91
  -1  -2  -3  254.16   15.95
   1   2  -3  292.49   15.21
   1  -2  -3  270.71    9.62
   1   2  -2  224.20   12.72
   1   2  -2  213.01    7.95
   1  -2  -2  222.18   12.87
  -1   2  -2  234.51    9.73
   1  -2  -2  225.36   12.81
  -1  -2  -2  210.91   12.14
  -1   2  -2  221.48   11.88
  -1  -2  -2  230.77   11.96
  -1  -2  -2  197.66   11.53
  -1   2  -2  199.00   13.43
   1   2  -2  219.21   14.04
  -1   2  -2  237.92   14.04
   1   2  -2  199.97   11.34
   1  -2  -2  218.14    8.35
   1  -2  -1 1320.39   26.40
  -1   2  -1 1425.94   18.56
   1   2  -1 1369.57   17.67
   1  -2  -1 1417.14   22.62
   1   2  -1 1430.53   22.94
  -1   2  -1 1371.74   18.73
  -1  -2  -1 1366.58   21.60
   1   2  -1 1360.30   26.85
   1  -2  -1 1404.31   22.81
   1   2  -1 1370.68   16.20
  -1  -2  -1 1442.49   23.98
  -1   2  -1 1410.36   24.48
  -1  -2  -1 1370.44   18.03
   1   2  -1 1384.60   24.75
  -1   2  -1 1366.03   26.79
   1  -2  -1 1392.20   21.02
   1   2  -1 1370.25   19.41
  -1   2  -1 1427.05   25.59
   1   2  -1 1431.29   25.28
  -1  -2  -1 1428.27   26.49
  -1   2   0  553.64   13.74
   1  -2   0  554.43   14.02
   1   2   0  543.26   13.61
  -1  -2   0  538.21   13.17
   1  -2   0  540.68   10.68
   1  -2   0  550.42   13.02
  -1   2   0  523.29   10.98
  -1   2   0  560.93   13.39
   1   2   0  553.77   14.60
  -1  -2   0  539.00   14.02
  -1  -2   0  558.91   14.70
   1   2   0  582.47   14.42
   1  -2   1 1353.80   18.29
  -1   2   1 1466.60   27.21
  -1   2   1 1419.91   21.98
  -1  -2   1 1424.76   26.76
   1   2   1 1372.69   21.03
   1   2   1 1395.05   18.40
   1  -2   1 1423.06   26.50
  -1  -2   1 1464.76   25.27
  -1   2   1 1357.74   19.70
   1   2   1 1303.64   17.94
   1  -2   1 1359.80   24.61
   1   2   1 1402.89   22.80
  -1  -2   1 1395.07   24.78
   1   2   1 1400.71   26.69
   1   2   1 1378.55   20.58
  -1  -2   1 1357.87   19.48
  -1  -2   2  217.11    7.64
  -1  -2   2  222.54   12.12
  -1   2   2  209.89   12.49
  -1   2   2  223.78   12.08
   1   2   2  219.56   12.46
   1  -2   2  214.78   12.14
  -1   2   2  224.03   12.09
   1   2   2  234.19   12.18
  -1  -2   2  224.82   12.23
   1  -2   2  245.84    9.51
  -1  -2   2  224.02   13.35
  -1   2   2  181.14    9.04
   1   2   2  235.38   12.08
   1  -2   2  215.75   11.79
   1   2   2  227.36   11.91
  -1  -2   2  232.25   13.78
   1  -2   2  223.24   13.57
  -1  -2   2  226.78    7.13
  -1  -2   2  214.19   11.67
   1  -2   2  249.06   13.92
  -1  -2   2  230.84    7.36
   1   2   2  240.18   12.79
  -1   2   2  211.15    8.18
  -1  -2   3  289.74   10.73
  -1  -2   3  262.32   16.07
   1  -2   3  277.46   16.56
  -1   2   3  285.89   17.17
   1   2   3  274.16   16.66
  -1   2   3  265.93   15.78
   1  -2   3  265.42   12.04
  -1   2   3  299.94   16.91
   1   2   3  286.59   16.51
   1  -2   3  285.70   16.78
  -1  -2   3  297.36   16.96
  -1  -2   3  276.87   16.60
   1  -2   3  293.69   15.35
  -1  -2   3  308.27   18.71
  -1   2   3  312.46   18.88
  -1  -2   3  296.29   10.07
   1   2   3  305.19   16.56
   1   2   3  303.23   17.22
  -1   2   3  265.01   14.09
   1  -2   3  307.37   18.72
   1   2   3  276.62   14.94
  -1  -2   3  286.41   15.19
  -1   2   3  269.12    7.53
   1  -2   3  299.68   18.16
  -1   2   3  272.21    9.62
  -1  -2   3  279.68    7.61
  -1   2   4  457.18   22.68
  -1  -2   4  484.45   16.42
   1  -2   4  437.38   18.06
  -1  -2   4  453.57   23.54
   1  -2   4  443.32   20.73
  -1  -2   4  494.72   15.65
  -1   2   4  442.64   21.71
   1   2   4  462.44   20.66
  -1   2   4  446.78   12.75
  -1  -2   4  418.02    8.58
  -1  -2   4  455.11   21.12
   1  -2   4  460.89   21.89
  -1   2   4  439.83   11.66
  -1  -2   5  173.83   11.34
  -1   2   5  164.36   15.30
  -1  -2   5  167.56   16.14
   1  -2   5  153.00   12.38
   1  -2   5  158.31   14.25
  -1  -2   5  167.02   10.76
   1   2   5  178.53   13.71
  -1   2   5  161.50    8.01
  -1  -2   5  189.10   15.08
   1  -2   5  166.52   14.83
   1   2   5  171.95   11.48
  -1   2   5  166.01    7.61
  -1   2   6  158.03   16.11
   1  -2   6  146.17   12.05
   1   2   6  161.63   14.54
  -1  -2   6  140.58   16.49
   1  -2   6  158.13   13.96
  -1   2   6  174.45   13.63
   1  -2   6  162.26   15.77
  -1  -2   6  165.43   11.96
   1   2   6  149.08   15.59
   1   2   6  146.23   13.04
  -1  -2   6  181.20   15.73
   1  -2   6  154.36   15.51
   1  -2   6  156.34   13.13
  -1   2   7   21.36    7.16
   1   2   7   21.06    7.20
  -1   2   7    0.55    6.22
  -1  -2   7   10.05    6.89
   1  -2   7   18.55    7.16
   1   2   7   38.86    9.19
   1  -3  -7   49.98   13.65
   1  -3  -7   55.00   13.70
   1   3  -7   48.94   12.46
  -1   3  -7   68.02   15.93
  -1  -3  -6   31.70   10.55
   1  -3  -6   53.95   12.35
   1   3  -6   44.37   11.33
   1  -3  -6   38.41   11.84
  -1  -3  -6   29.27    9.56
   1   3  -6   42.21   11.40
  -1   3  -6   31.71   10.44
   1  -3  -5  157.19   17.45
   1   3  -5  156.68   17.33
  -1  -3  -5  173.32   18.24
   1  -3  -5  159.38   17.35
  -1  -3  -5  138.71   15.94
  -1   3  -5  179.98   19.63
   1   3  -5  153.82   18.78
  -1  -3  -4   39.34    9.04
   1  -3  -4   32.42    7.77
   1   3  -4   36.46    8.71
   1  -3  -4   39.39    8.88
  -1  -3  -4   41.98    8.53
   1   3  -4   41.16    9.67
  -1   3  -4   36.83    9.11
   1  -3  -3  244.21   16.01
   1   3  -3  241.84   15.69
  -1  -3  -3  234.77   15.68
   1  -3  -3  230.46   15.74
  -1   3  -3  244.86   12.90
  -1   3  -3  234.37   17.31
   1   3  -3  256.42   18.25
   1   3  -3  228.37   10.29
  -1  -3  -3  219.91   14.47
  -1   3  -3  247.59   14.76
   1   3  -3  254.78   15.34
   1  -3  -3  267.55   11.56
   1   3  -2  132.26    5.52
   1  -3  -2  133.08   10.15
   1   3  -2  151.91   10.83
  -1  -3  -2  120.37    9.99
   1  -3  -2  120.81    9.98
   1   3  -2  128.40   10.85
  -1   3  -2  137.54    8.42
   1   3  -2  122.32    6.41
  -1  -3  -2  138.68    9.72
   1   3  -2  146.76   12.05
  -1   3  -2  108.26   10.89
  -1   3  -2  145.99   10.05
   1   3  -2  123.62    6.74
   1   3  -2  140.69   10.46
   1  -3  -2  132.66    8.15
  -1  -3  -2  138.97   10.40
  -1   3  -2  130.85   11.05
  -1   3  -1 1478.19   20.02
   1  -3  -1 1516.84   30.79
   1   3  -1 1546.14   24.50
   1  -3  -1 1503.87   23.78
   1  -3  -1 1520.41   26.34
  -1  -3  -1 1451.21   23.47
   1   3  -1 1489.59   29.79
  -1   3  -1 1531.05   24.16
  -1   3  -1 1450.54   28.66
   1   3  -1 1453.28   21.65
  -1   3  -1 1504.60   27.41
  -1  -3  -1 1502.79   24.91
   1   3  -1 1481.22   27.21
   1  -3  -1 1396.51   25.20
   1   3  -1 1449.89   24.26
  -1  -3  -1 1460.17   22.48
   1   3  -1 1530.73   29.31
  -1  -3  -1 1520.24   29.77
  -1   3  -1 1526.06   28.72
  -1   3   0  207.87   10.05
   1  -3   0  195.92    9.86
  -1  -3   0  204.13    9.58
   1   3   0  199.72    9.71
  -1   3   0  214.05    9.62
  -1   3   0  184.00    7.41
   1  -3   0  190.34    7.19
   1  -3   0  188.03    9.25
   1   3   0  188.87   10.18
  -1  -3   0  198.98   10.14
   1   3   0  181.95    5.54
  -1  -3   0  191.32   10.10
   1   3   0  198.30    9.88
   1  -3   1 1471.73   21.13
  -1   3   1 1505.13   22.38
  -1   3   1 1531.25   30.64
   1   3   1 1475.17   23.28
  -1  -3   1 1466.22   29.15
   1   3   1 1407.95   18.58
   1  -3   1 1453.54   26.76
  -1   3   1 1481.66   24.77
   1  -3   1 1524.22   29.23
  -1  -3   1 1505.99   26.45
   1   3   1 1495.39   23.36
  -1  -3   1 1437.38   28.88
  -1   3   1 1441.37   25.25
   1   3   1 1462.15   29.37
  -1  -3   1 1468.97   24.78
  -1   3   2  131.56   11.15
   1   3   2  137.24   10.25
  -1  -3   2  143.07    9.89
   1  -3   2  128.37    5.77
   1  -3   2  137.66    9.72
  -1   3   2  141.04    9.75
   1  -3   2  127.94    7.97
  -1   3   2  136.32    9.80
   1   3   2  147.33    9.89
  -1  -3   2  141.96   10.98
   1   3   2  135.30    9.01
   1  -3   2  123.00    9.44
   1  -3   2  127.98   11.00
  -1  -3   2  132.26   10.78
  -1  -3   2  115.79    6.53
  -1   3   2  126.59    6.67
   1   3   2  149.26    9.44
  -1   3   2  128.07    7.95
  -1  -3   2  136.33    7.44
  -1  -3   2  142.77   10.93
   1   3   2  128.69    6.93
   1  -3   2  127.05   10.65
   1   3   2  135.65   10.34
  -1   3   3  256.29   16.16
   1  -3   3  258.04   15.78
  -1  -3   3  229.34    7.82
  -1   3   3  211.30   14.96
  -1  -3   3  256.49   15.64
  -1  -3   3  275.62   16.81
   1   3   3  262.23   15.87
   1  -3   3  253.53   12.63
  -1  -3   3  242.83   15.87
   1   3   3  246.77   15.62
   1  -3   3  254.70   14.61
  -1   3   3  253.73   13.02
   1   3   3  267.83   15.38
  -1  -3   3  227.38    9.76
  -1  -3   3  249.12   15.34
  -1   3   3  220.68   10.63
   1   3   3  250.14   14.84
  -1  -3   3  241.73    9.45
   1  -3   3  222.02   14.94
  -1   3   4   44.17    8.71
  -1   3   4   43.63    5.29
  -1  -3   4   43.21    4.35
   1   3   4   36.26    6.86
   1  -3   4   45.20    6.41
  -1  -3   4   40.64    8.28
   1  -3   4   58.51    8.44
  -1  -3   4   49.19    5.66
  -1   3   4   42.18    6.91
   1  -3   4   58.58    8.93
  -1  -3   4   42.99    7.86
  -1  -3   4   43.26    4.14
  -1   3   5  150.26   15.62
  -1  -3   5  159.15    9.03
  -1  -3   5  145.65   15.30
   1  -3   5  151.88   12.57
  -1  -3   5  145.09   10.30
   1  -3   5  162.59   14.36
  -1   3   5  151.94    9.20
   1  -3   5  154.24   15.21
   1   3   5  146.33    9.57
  -1  -3   5  125.22    5.57
   1   3   5  141.61   12.78
  -1  -3   5  169.27   15.35
  -1   3   6   35.28    8.53
   1   3   6   34.06    6.69
   1  -3   6   34.88    7.01
  -1  -3   6   31.32    8.86
   1  -3   6   30.32    7.48
   1  -3   6   41.71    9.28
  -1  -3   6   32.91    7.60
   1   3   7   43.69   10.14
  -1   3   7   47.87   10.38
  -1  -3   7   64.45   12.25
   1  -3   7   55.15   10.21
   1   3   7   68.33   11.58
   1  -3   7   56.44   10.35
   1  -4  -7   95.99   17.48
  -1  -4  -7   86.62   16.63
   1   4  -7   72.27   14.75
   1   4  -7   76.58   17.07
  -1   4  -7   70.05   16.38
  -1  -4  -6  124.29   17.74
   1  -4  -6  110.69   16.84
   1   4  -6   99.67   15.73
   1  -4  -6   89.52   15.53
  -1  -4  -6  122.54   16.30
   1   4  -6  117.94   18.78
  -1   4  -6  130.75   19.30
   1  -4  -5   32.27    9.69
   1  -4  -5   65.73   12.05
  -1  -4  -5   59.23   12.05
   1   4  -5   52.26   10.49
  -1  -4  -5   74.74   11.55
  -1   4  -5   59.05   12.71
   1   4  -5   51.04   12.02
   1  -4  -4   18.10    3.94
   1  -4  -4   22.81    8.10
   1  -4  -4   30.87    8.59
   1   4  -4   26.22    7.28
  -1  -4  -4   26.94    8.24
  -1  -4  -4   22.06    7.12
   1   4  -4   23.70    8.43
  -1   4  -4   17.47    7.42
   1  -4  -3   20.18    4.36
  -1  -4  -3   20.54    6.26
   1  -4  -3   34.01    7.14
   1  -4  -3   33.75    7.47
   1   4  -3   15.53    5.67
  -1   4  -3   19.00    4.56
   1   4  -3   23.43    4.15
  -1   4  -3   23.25    5.60
  -1  -4  -3   16.53    5.72
   1   4  -3   26.00    6.43
  -1  -4  -3   18.62    4.80
  -1   4  -3   22.66    7.09
   1   4  -3   10.03    5.62
   1  -4  -2 1174.77   28.22
   1   4  -2 1205.87   28.89
   1   4  -2 1136.18   15.40
  -1  -4  -2 1160.70   28.73
   1  -4  -2 1209.60   30.01
  -1   4  -2 1186.16   26.48
   1   4  -2 1166.32   32.47
   1   4  -2 1155.32   21.95
  -1  -4  -2 1145.80   26.66
  -1   4  -2 1205.65   29.32
   1   4  -2 1192.05   33.09
   1   4  -2 1124.25   23.28
   1  -4  -2 1130.67   26.27
  -1   4  -2 1175.04   32.66
   1   4  -2 1279.37   32.81
  -1  -4  -2 1183.59   31.05
   1  -4  -2 1082.22   13.07
   1  -4  -1  169.65    8.28
   1   4  -1  188.19    8.93
  -1   4  -1  179.68    8.06
  -1  -4  -1  183.25    9.37
  -1   4  -1  191.94   10.13
   1   4  -1  187.64   11.70
   1   4  -1  189.98   10.74
  -1  -4  -1  189.16    9.49
   1   4  -1  181.74    9.28
  -1   4  -1  185.88   10.66
   1   4  -1  180.26   10.36
  -1   4  -1  202.41   11.90
   1   4  -1  188.97   12.00
   1  -4  -1  191.94   11.05
  -1  -4  -1  194.14    9.48
  -1  -4  -1  193.75   11.99
   1  -4   0 2226.74   35.38
  -1   4   0 2228.85   35.16
   1   4   0 2102.24   33.66
  -1  -4   0 2159.70   33.94
  -1   4   0 2258.20   34.15
   1  -4   0 2028.53   25.70
   1  -4   0 2187.41   34.19
  -1  -4   0 2147.55   33.74
   1   4   0 2089.73   36.40
   1   4   0 2153.74   34.13
   1   4   0 2039.28   21.80
  -1  -4   0 2197.77   36.79
   1  -4   0 2272.93   37.46
   1  -4   1  188.26    8.92
  -1   4   1  195.27    8.15
   1  -4   1  168.12    7.68
  -1   4   1  189.73   12.41
   1   4   1  183.49    9.94
  -1  -4   1  173.35   11.77
  -1   4   1  180.95   10.30
   1  -4   1  191.08   11.39
   1  -4   1  175.95   10.93
   1   4   1  177.20    9.12
  -1  -4   1  174.06   10.35
  -1   4   1  169.00   10.26
  -1  -4   1  182.40    9.87
  -1  -4   1  177.19   11.59
   1   4   1  175.86   12.06
  -1   4   2 1247.80   28.03
   1  -4   2 1135.59   26.38
  -1  -4   2 1175.57   27.46
  -1   4   2 1137.98   32.55
   1  -4   2 1139.00   17.46
   1   4   2 1170.87   29.01
  -1  -4   2 1171.17   31.41
   1   4   2 1153.52   27.54
   1  -4   2 1133.73   25.59
   1  -4   2 1187.85   28.97
  -1   4   2 1131.27   15.53
  -1  -4   2 1144.36   23.03
   1  -4   2 1248.54   34.87
   1   4   2 1164.08   25.64
   1   4   2 1166.81   25.60
  -1   4   2 1127.35   25.90
   1  -4   2 1193.88   31.90
   1   4   2 1118.13   20.85
  -1  -4   2 1197.28   32.02
  -1  -4   2 1282.79   32.54
   1   4   2 1180.64   31.15
  -1  -4   2 1237.32   25.61
  -1   4   3   25.65    4.93
  -1   4   3   18.78    6.13
   1  -4   3   23.28    2.58
  -1  -4   3   16.18    4.64
   1   4   3   14.31    4.94
  -1  -4   3   23.51    3.95
   1  -4   3   18.86    4.73
  -1   4   3   18.26    5.15
  -1  -4   3   18.84    5.97
   1  -4   3   18.39    5.01
  -1  -4   3   15.31    3.59
   1   4   3   20.62    5.01
  -1   4   3   19.18    3.93
   1  -4   3   13.66    4.55
  -1  -4   3   20.11    5.68
   1   4   3   23.84    5.57
   1  -4   3   16.16    5.91
   1   4   3   13.13    2.72
  -1   4   4   20.22    4.75
   1   4   4   16.43    5.39
   1  -4   4   18.36    2.45
  -1   4   4   26.09    7.46
  -1  -4   4   25.69    4.05
   1  -4   4   26.56    5.70
  -1  -4   4   21.03    6.81
   1  -4   4   21.66    6.14
  -1   4   4   16.25    4.75
  -1  -4   4   19.24    4.08
  -1  -4   4   22.16    6.45
   1   4   4   21.90    3.35
   1  -4   4   15.47    6.34
  -1   4   5   59.03    6.87
  -1  -4   5   52.83    3.83
   1  -4   5   61.67    5.23
  -1   4   5   61.29   11.10
   1   4   5   56.63    8.81
  -1  -4   5   56.16   10.88
   1  -4   5   47.81    7.96
   1  -4   5   62.63   10.06
  -1  -4   5   57.14    7.02
   1  -4   5   70.90   11.18
  -1  -4   5   62.18   10.74
   1   4   5   48.64    5.07
   1   4   6  100.02   11.65
  -1   4   6   87.20   13.62
  -1  -4   6  103.07   14.19
   1  -4   6  101.86   11.67
   1  -4   6  102.40   13.36
   1  -4   6  123.60   15.15
  -1  -4   6  117.34   14.27
  -1   4   7   83.82   13.53
   1   4   7   56.17   11.66
  -1  -4   7   58.73   11.66
   1   4   7   57.35   11.67
   1  -4   7   75.15   12.21
  -1  -5  -7   15.08    9.40
   1   5  -7   12.11    8.44
   1  -5  -7   12.61    7.67
   1   5  -7    5.95    8.69
  -1   5  -7    0.62    7.68
   1  -5  -6   41.54   11.80
   1  -5  -6   25.25    9.35
  -1  -5  -6   39.75   11.26
   1   5  -6   59.47   12.31
  -1  -5  -6   31.72    9.22
   1   5  -6   38.66   12.35
  -1   5  -6   66.73   14.47
  -1  -5  -5   43.07   10.96
   1   5  -5   38.62    9.34
   1  -5  -5   38.42   10.04
   1  -5  -5   35.65   10.09
  -1  -5  -5   41.11    9.39
   1   5  -5   49.47   11.88
  -1   5  -5   43.11   11.15
   1  -5  -4   28.12    5.54
  -1   5  -4   40.42    7.28
  -1  -5  -4   33.68    8.26
   1   5  -4   32.78    7.68
   1  -5  -4   32.75    8.42
   1  -5  -4   38.33    8.89
   1   5  -4   26.84    5.07
  -1  -5  -4   29.10    7.10
  -1   5  -4   24.73    8.49
   1   5  -4   45.88   10.46
   1  -5  -3  736.00   27.29
   1   5  -3  660.95   25.66
  -1   5  -3  663.12   24.21
  -1  -5  -3  671.81   26.68
   1  -5  -3  695.07   27.96
  -1  -5  -3  700.00   24.91
  -1   5  -3  681.90   25.50
   1   5  -3  736.80   31.88
   1   5  -3  671.12   20.58
  -1  -5  -3  659.91   26.48
   1  -5  -3  671.16   23.26
  -1   5  -3  684.60   30.09
   1   5  -2  146.34    6.02
   1   5  -2  144.60   10.43
   1  -5  -2  140.72   10.28
  -1  -5  -2  150.04   11.05
   1  -5  -2  126.00   10.82
  -1   5  -2  144.34   10.32
   1   5  -2  165.83   12.95
  -1  -5  -2  149.07   10.01
   1   5  -2  149.32    9.22
  -1   5  -2  146.79   11.20
   1   5  -2  135.76   11.91
   1   5  -2  147.58   12.30
   1   5  -2  141.75    9.80
   1  -5  -2  149.55   10.93
   1  -5  -2  146.27    6.26
  -1   5  -2  150.46   12.65
  -1  -5  -2  162.71   12.58
   1   5  -1  279.54   10.84
   1  -5  -1  271.57   10.04
  -1   5  -1  261.14   10.99
   1   5  -1  299.30   15.61
  -1  -5  -1  284.70   12.54
  -1   5  -1  290.05   13.82
  -1   5  -1  299.88   14.54
   1   5  -1  269.36   12.77
   1  -5  -1  280.98   14.74
   1   5  -1  258.27   12.73
  -1  -5  -1  280.24   12.42
   1   5  -1  288.46   15.45
   1  -5  -1  257.08   11.28
  -1  -5  -1  326.96   16.56
   1   5  -1  274.16   13.89
  -1   5   0  513.87   18.82
   1   5   0  512.20   18.76
  -1  -5   0  541.69   18.95
   1  -5   0  535.75   18.97
   1  -5   0  480.89   14.21
  -1   5   0  514.20   18.28
   1   5   0  527.45   18.71
  -1  -5   0  512.77   18.44
   1  -5   0  434.15   16.78
   1   5   0  500.04   12.65
   1   5   0  477.76   18.97
   1  -5   0  528.22   20.01
  -1  -5   0  547.61   20.47
  -1   5   1  277.42   16.25
  -1   5   1  296.37    9.78
   1  -5   1  261.20    9.05
   1  -5   1  270.92   11.83
   1   5   1  290.26   13.64
  -1  -5   1  294.47   15.68
   1  -5   1  261.27   14.17
   1  -5   1  295.30   15.23
  -1   5   1  278.55   13.99
  -1  -5   1  293.52   14.80
   1  -5   1  318.59   16.12
   1   5   1  274.03   12.45
  -1  -5   1  256.50   15.39
   1  -5   1  242.07   15.26
  -1   5   1  267.91   14.45
   1   5   1  274.92   15.69
  -1  -5   1  288.33   12.60
   1  -5   2  132.19    6.89
  -1   5   2  154.19   10.13
   1   5   2  141.75   10.64
   1  -5   2  143.74    9.56
  -1   5   2  128.93   12.56
   1  -5   2  143.41   10.45
  -1  -5   2  142.44   11.96
   1  -5   2  146.13   11.18
   1   5   2  144.26    9.47
   1  -5   2  151.13   13.32
   1   5   2  133.40   11.56
  -1  -5   2  145.78   11.76
  -1  -5   2  139.33   12.70
  -1  -5   2  155.08   10.56
  -1   5   2  137.98   10.62
   1  -5   2  142.28   12.46
   1   5   2  132.01    7.90
   1  -5   3  677.63   25.42
  -1  -5   3  683.54   25.29
   1  -5   3  610.11   10.53
  -1   5   3  670.40   29.96
  -1   5   3  687.10   26.29
   1  -5   3  679.91   23.71
  -1  -5   3  662.03   27.52
  -1   5   3  705.04   17.49
   1  -5   3  676.23   25.03
  -1  -5   3  686.00   20.92
   1   5   3  712.27   23.41
   1   5   3  628.91   24.13
  -1  -5   3  677.92   28.72
   1   5   3  659.33   26.15
   1   5   3  620.96   15.66
  -1   5   3  729.38   24.35
  -1  -5   3  662.90   21.19
   1  -5   3  668.02   29.01
  -1   5   4   36.98    6.29
  -1   5   4   34.47    9.25
   1   5   4   43.24    7.82
  -1  -5   4   33.28    5.22
  -1  -5   4   28.84    7.43
   1  -5   4   36.32    6.80
  -1   5   4   32.27    5.66
   1  -5   4   40.04    7.63
  -1  -5   4   32.70    5.41
   1   5   4   33.61    3.64
  -1  -5   4   49.97    9.49
   1  -5   4   34.73    8.54
  -1   5   5   38.41    6.43
  -1   5   5   40.49   10.15
   1   5   5   29.44    6.80
  -1  -5   5   36.53    8.66
   1  -5   5   44.72    7.96
   1  -5   5   34.33    7.48
  -1  -5   5   48.05    7.11
  -1   5   5   34.50    6.73
  -1  -5   5   54.83   10.74
   1  -5   5   43.94   10.08
   1   5   5   33.89    3.35
  -1   5   6   43.93   10.68
   1   5   6   31.65    7.88
   1  -5   6   32.65    7.19
  -1  -5   6   33.22    9.07
   1  -5   6   32.37    7.58
  -1  -5   6   50.20   10.50
   1  -5   6   35.59    9.65
  -1  -5   7    5.68    5.80
   1   5   7   11.39    7.60
  -1   5   7   11.80    7.26
   1  -5   7   10.08    6.34
  -1  -5   7   14.03    6.74
   1  -6  -7   -5.81    8.13
  -1  -6  -7    2.92    7.93
   1   6  -7  -10.99    7.81
  -1   6  -7   13.68   10.57
   1   6  -7    4.97    8.96
   1   6  -6   34.79    9.61
   1  -6  -6   41.01   11.40
  -1  -6  -6   28.85    9.85
  -1  -6  -6   38.70   10.12
   1   6  -6   31.00   11.60
  -1   6  -6   31.14   10.99
   1  -6  -5   24.67    9.23
  -1  -6  -5   25.83    8.82
   1  -6  -5   26.22    8.91
   1   6  -5   24.38    8.64
  -1  -6  -5   31.33    8.16
   1   6  -5   36.73   10.70
  -1   6  -5   33.01   10.03
   1   6  -4  264.40   19.11
   1  -6  -4  324.65   21.71
   1  -6  -4  277.26   20.68
  -1  -6  -4  303.10   21.28
   1   6  -4  289.78   15.88
  -1  -6  -4  279.84   18.78
   1   6  -4  305.67   24.31
  -1   6  -4  300.90   23.80
   1  -6  -4  278.08   16.92
   1  -6  -3  131.94   12.49
   1   6  -3  113.09   11.10
  -1  -6  -3  121.32   12.48
   1  -6  -3  116.78   12.61
  -1   6  -3  123.67   11.51
   1   6  -3  135.25   10.20
  -1  -6  -3  122.74   10.98
  -1   6  -3  144.76   14.77
   1   6  -3  108.99   13.28
   1  -6  -3  120.03   11.09
   1   6  -2   48.34    6.94
  -1   6  -2   40.36    3.99
   1  -6  -2   41.27    6.67
  -1  -6  -2   46.52    7.74
  -1   6  -2   39.63    6.17
   1  -6  -2   45.56    6.15
   1   6  -2   46.13    6.17
   1  -6  -2   51.81    7.75
  -1  -6  -2   40.57    6.80
  -1  -6  -2   40.92    5.84
   1   6  -2   45.31    5.98
  -1   6  -2   54.46    7.42
   1  -6  -2   46.78    4.47
  -1  -6  -2   47.48    5.32
   1   6  -2   50.87    8.01
  -1   6  -2   51.38    8.87
   1   6  -1   11.29    4.84
   1   6  -1   13.59    3.10
   1  -6  -1    8.97    4.04
  -1   6  -1   10.59    3.46
  -1  -6  -1   13.76    4.80
   1  -6  -1    6.97    2.42
  -1   6  -1   11.55    3.96
   1   6  -1    7.86    3.59
  -1   6  -1   16.33    4.57
   1   6  -1   11.86    3.61
   1  -6  -1   11.08    3.89
  -1  -6  -1   14.08    4.03
   1   6  -1   15.41    4.38
   1   6  -1   11.07    4.29
  -1   6   0   91.98    9.78
  -1  -6   0   89.89    9.54
   1   6   0   88.10    8.93
   1  -6   0   72.68    6.89
   1  -6   0   81.15    9.00
  -1   6   0  106.21    9.68
  -1  -6   0   77.24    8.50
   1  -6   0   71.84    8.82
  -1  -6   0   84.70    9.50
   1   6   0   91.34    8.89
   1   6   0   86.51    6.35
   1   6   0   81.44    9.64
   1  -6   0   98.23   10.33
  -1   6   1    8.08    2.08
  -1   6   1   10.97    4.95
  -1  -6   1    4.84    3.75
   1   6   1   12.38    5.02
   1  -6   1   11.47    4.65
  -1   6   1    9.33    5.76
   1  -6   1    9.60    2.11
   1   6   1   14.17    4.53
  -1  -6   1   10.21    4.84
   1  -6   1   10.05    4.29
  -1   6   1   19.34    4.68
   1  -6   1   11.56    4.87
   1  -6   1   11.11    5.23
   1   6   1   16.24    3.99
  -1  -6   1   12.93    5.19
   1   6   2   51.51    8.25
  -1   6   2   42.34    6.87
  -1  -6   2   44.31    6.40
  -1   6   2   42.23    8.80
  -1   6   2   47.95    5.79
   1  -6   2   48.13    7.74
   1  -6   2   46.73    6.96
   1   6   2   40.40    6.01
   1  -6   2   41.51    5.49
  -1  -6   2   54.61    8.48
   1  -6   2   45.29    7.64
   1  -6   2   61.98    9.65
  -1  -6   2   43.11    7.29
   1   6   2   38.16    4.96
  -1  -6   2   36.55    7.56
   1  -6   2   42.83    8.13
  -1   6   3  150.82   12.59
  -1  -6   3  131.00   11.40
  -1   6   3  115.18   14.05
   1  -6   3  132.21   11.46
   1  -6   3  111.01   10.88
  -1  -6   3  118.85   12.81
  -1   6   3  124.68    6.35
  -1  -6   3  125.00   10.29
   1   6   3  111.79   10.72
   1  -6   3  111.00   11.16
   1   6   3  127.83   12.68
   1  -6   3  141.71   14.55
   1   6   3  114.26    7.24
  -1  -6   3  127.57   13.84
  -1  -6   3  142.09   11.17
  -1   6   3  124.57   11.25
  -1   6   4  291.41   22.96
  -1  -6   4  275.84   19.96
   1  -6   4  277.71   17.73
  -1   6   4  267.61   13.33
   1  -6   4  283.68   18.55
  -1  -6   4  295.21   16.02
  -1   6   4  292.56   17.60
  -1  -6   4  293.02   15.61
   1  -6   4  287.64   21.99
   1   6   4  288.59   19.63
   1   6   4  241.50    8.82
  -1  -6   4  296.25   21.92
  -1   6   5   25.31    6.38
   1   6   5   18.39    6.38
  -1   6   5   35.50    9.72
   1  -6   5   30.65    7.41
  -1  -6   5   28.37    8.00
   1  -6   5   18.99    6.37
  -1  -6   5   40.57    7.07
   1  -6   5   18.84    7.21
  -1  -6   5   25.89    8.32
   1   6   6   38.42    8.15
  -1   6   6   22.11    8.50
   1  -6   6   40.89    8.52
  -1  -6   6   30.08    8.53
   1  -6   6   27.92    7.41
  -1  -6   6   44.11   11.12
   1  -6   6   28.27    9.22
  -1  -6   7    2.98    4.60
  -1   6   7    5.26    5.01
   1   6   7   -5.98    4.65
  -1  -6   7   -0.12    4.52
   1  -6   7    9.05    6.25
  -1  -7  -7   27.98   11.14
   1   7  -7   22.53    9.55
   1  -7  -7   23.00   11.31
   1   7  -7   36.40   12.56
  -1   7  -7   36.35   12.68
   1  -7  -6   32.12    9.92
   1   7  -6   30.40   10.01
  -1  -7  -6   31.37   10.89
  -1  -7  -6   23.78    8.60
  -1   7  -6   20.84   10.23
   1   7  -6   13.77    8.51
   1  -7  -5   30.93   10.70
   1   7  -5   37.74    9.12
   1  -7  -5   30.03    9.69
  -1  -7  -5   35.19   10.16
  -1  -7  -5   26.58    7.54
  -1   7  -5   33.73   11.27
   1   7  -5   34.19   10.61
   1   7  -4  140.37   14.41
   1  -7  -4  142.98   14.88
  -1  -7  -4  138.72   15.25
   1  -7  -4  143.94   15.91
   1   7  -4  144.68   17.71
  -1  -7  -4  113.93   12.49
   1   7  -4  136.47   12.12
  -1   7  -4  129.90   16.72
  -1  -7  -3   60.61   10.12
   1  -7  -3   47.17    8.16
   1   7  -3   38.44    7.02
   1  -7  -3   37.05    8.98
  -1  -7  -3   46.78    7.29
   1   7  -3   40.53    6.50
  -1   7  -3   54.06   10.19
   1   7  -3   46.68    9.54
   1  -7  -2  144.32   10.38
   1   7  -2  137.98   10.23
  -1   7  -2  146.64    7.87
   1  -7  -2  147.75   13.16
  -1   7  -2  144.40   12.03
  -1  -7  -2  148.48   12.39
  -1  -7  -2  161.62   10.97
   1   7  -2  144.10   12.99
   1   7  -2  144.74   10.98
   1   7  -2  133.48   11.74
   1  -7  -2  145.38    8.63
  -1  -7  -2  154.24    9.76
  -1   7  -2  151.22   13.82
   1  -7  -2  138.44   12.47
  -1   7  -1  599.21   20.10
   1   7  -1  605.87   16.45
  -1   7  -1  617.15   24.20
   1   7  -1  620.61   23.16
   1   7  -1  600.90   24.09
   1  -7  -1  600.59   25.25
  -1  -7  -1  570.92   20.73
   1  -7  -1  569.93   20.39
   1   7  -1  579.73   20.84
   1  -7   0   79.02    9.68
  -1   7   0   91.10    9.80
   1   7   0   88.58    9.68
  -1   7   0   89.93    9.52
   1  -7   0   80.58    7.55
  -1  -7   0   92.02   10.27
   1   7   0   89.61   10.57
  -1  -7   0   93.87    9.65
   1   7   0   87.51    9.42
  -1   7   0   87.60   10.08
   1  -7   0   77.56    9.11
   1   7   0   84.46    6.80
  -1   7   1  582.06   25.91
   1  -7   1  543.20   10.95
  -1  -7   1  556.95   23.97
   1   7   1  608.89   23.49
  -1   7   1  594.21   23.72
   1  -7   1  603.75   24.02
   1  -7   1  574.78   23.50
  -1  -7   1  605.56   24.77
  -1  -7   1  586.11   25.06
   1   7   1  596.89   21.62
   1   7   1  621.31   25.87
   1  -7   1  601.25   25.93
  -1   7   1  573.38   24.43
   1   7   2  152.53   11.27
   1  -7   2  139.83    9.31
  -1   7   2  152.75   15.28
  -1   7   2  167.06   10.30
  -1  -7   2  132.20   13.33
   1  -7   2  152.93   13.11
  -1  -7   2  148.91   12.70
   1   7   2  146.12   13.65
   1   7   2  146.66   10.09
   1  -7   2  144.36   14.81
  -1  -7   2  136.68   12.02
  -1   7   2  147.87   12.98
  -1  -7   2  141.74   14.20
  -1  -7   3   41.51    7.00
  -1   7   3   38.14   10.01
   1   7   3   37.69    8.07
  -1   7   3   30.90    7.13
   1  -7   3   40.51    7.50
   1  -7   3   39.51    6.78
  -1  -7   3   29.08    7.87
  -1   7   3   45.28    7.28
   1  -7   3   44.73    8.15
   1  -7   3   35.01    9.11
   1   7   3   34.16    4.65
   1   7   3   36.16    6.38
  -1  -7   3   31.96    8.17
  -1   7   4  139.07   17.36
  -1  -7   4  109.90   13.79
   1  -7   4  131.98   13.21
  -1   7   4  139.42    8.44
  -1  -7   4  127.73   11.76
   1  -7   4  143.26   14.26
  -1   7   4  132.38   13.30
  -1  -7   4  125.80   11.35
   1   7   4  116.00   13.67
   1  -7   4  165.88   17.94
  -1  -7   4  129.82   15.72
   1   7   4  113.15    6.41
  -1   7   5   37.00    7.84
   1   7   5   20.49    7.39
  -1   7   5   28.46    9.70
  -1  -7   5   43.41    9.85
   1  -7   5   29.34    7.68
  -1  -7   5   33.07    7.01
   1  -7   5   26.21    7.90
  -1  -7   5   19.22    7.78
   1  -7   5   34.39   10.22
   1   7   6   35.74    8.63
  -1   7   6   25.87    9.40
  -1  -7   6   28.04    9.69
   1  -7   6   36.38    8.49
   1  -7   6   10.26    5.97
  -1  -7   6   34.56    9.94
   1  -7   6   21.05    9.65
  -1  -7   7   37.19   10.72
   1   7   7    7.02    5.88
  -1   7   7   26.82    9.41
  -1  -7   7   22.82    9.70
   1  -7   7   35.51    8.85
  -1   7   8   -2.29    5.35
   1   7   8   13.72    7.64
  -1  -8  -7   13.93    8.84
   1   8  -7   25.46    9.53
   1  -8  -7   10.74    8.89
   1   8  -7    6.03    8.88
  -1   8  -7   21.00   11.73
  -1  -8  -6   34.30   11.26
   1  -8  -6   23.40    8.47
   1   8  -6   44.29   10.58
  -1  -8  -6   25.33    9.19
  -1   8  -6   33.79   11.20
   1   8  -6   31.94   12.20
  -1  -8  -5   27.96    9.38
   1   8  -5   31.80    8.70
   1  -8  -5   38.46   11.23
  -1  -8  -5   34.33    8.68
  -1   8  -5   49.69   12.46
   1   8  -5   31.44    9.90
   1  -8  -4   81.46   13.09
  -1  -8  -4   61.92   11.29
   1   8  -4   86.12   11.35
  -1  -8  -4   92.44   11.11
  -1   8  -4   68.44   13.00
   1   8  -4   83.38   14.04
  -1  -8  -3    3.71    5.06
   1   8  -3    2.22    3.78
   1  -8  -3    7.27    5.90
   1  -8  -3    0.01    4.55
  -1  -8  -3   -0.03    3.59
   1   8  -3    0.17    5.28
  -1   8  -3   -0.64    5.15
   1  -8  -3    2.07    1.42
  -1   8  -2  173.95    9.49
   1   8  -2  196.06   12.12
  -1  -8  -2  173.09   13.94
   1  -8  -2  179.83   15.08
  -1  -8  -2  180.43   12.00
   1   8  -2  176.20   14.83
  -1  -8  -2  153.68   10.62
   1  -8  -2  165.81   10.26
  -1   8  -2  143.75   14.36
   1   8  -2  166.48   14.00
   1   8  -1   69.98    6.01
   1   8  -1   75.95   10.25
  -1   8  -1   62.96    7.62
   1   8  -1   55.77    7.45
  -1  -8  -1   58.26    7.88
   1  -8  -1   54.32    7.71
  -1   8   0   52.35    9.33
  -1   8   0   56.91    8.88
   1   8   0   38.27    8.58
   1   8   0   34.71    6.58
  -1  -8   0   48.67    8.23
   1   8   0   48.87    5.81
   1  -8   0   45.88    7.96
  -1   8   1   63.03   10.70
  -1   8   1   64.12    9.76
   1   8   1   60.61    9.92
  -1  -8   1   50.13    8.77
   1  -8   1   73.32    9.88
   1  -8   1   74.62    9.67
  -1  -8   1   54.42    8.92
   1  -8   1   57.36    9.61
   1   8   1   69.74    8.50
   1   8   2  160.41   11.71
   1  -8   2  166.04    9.69
  -1   8   2  176.41   17.78
  -1   8   2  154.48    9.80
  -1  -8   2  152.57   14.64
   1  -8   2  171.66   14.65
  -1  -8   2  169.26   15.97
   1   8   2  170.98   11.73
   1  -8   2  169.77   16.95
   1   8   2  177.19   16.07
  -1   8   2  167.96   14.71
  -1   8   3    9.24    5.12
  -1   8   3    3.22    6.68
  -1   8   3    2.30    2.61
   1   8   3   -3.10    4.85
   1  -8   3    2.26    4.84
  -1  -8   3    2.23    5.06
   1  -8   3    5.23    3.22
   1  -8   3    5.49    5.55
  -1  -8   3    3.01    5.86
   1  -8   3   -0.17    5.16
   1   8   3    1.66    3.81
   1   8   3    0.90    2.20
  -1   8   4   68.04   13.58
  -1   8   4   61.88    9.89
   1   8   4   54.69   10.84
   1  -8   4   40.80    8.62
  -1  -8   4   62.22   11.09
   1  -8   4   58.63   10.38
  -1  -8   4   67.31   12.43
   1  -8   4   74.52   13.14
   1   8   5   38.27    9.08
  -1   8   5   38.32    8.60
  -1   8   5   37.78   11.57
  -1  -8   5   20.62    7.87
   1  -8   5   30.16    8.53
  -1  -8   5   35.47    7.71
   1  -8   5   30.64    8.41
   1  -8   5   32.40    9.99
  -1  -8   5   43.60   10.95
   1   8   6   19.94    7.25
  -1   8   6   28.32   10.82
  -1  -8   6   24.23    7.83
   1  -8   6   34.85    8.29
   1  -8   6   22.68    7.83
   1  -8   6   37.44   10.43
  -1  -8   6   25.52    9.79
  -1  -8   7    9.40    7.58
   1   8   7    9.34    7.84
  -1   8   7   16.91    9.71
  -1  -8   7   31.28    9.62
   1  -8   7   -6.21    6.05
   1   9  -7   25.54    9.05
  -1  -9  -6  -12.52    8.51
   1  -9  -6    7.55    8.14
   1   9  -6   10.63    6.30
  -1   9  -6    5.44    7.44
   1   9  -6   -2.38    7.13
   1  -9  -5   67.22   13.65
   1   9  -5   58.34   11.06
  -1  -9  -5   99.52   15.64
  -1  -9  -5   66.55   10.66
   1   9  -5   51.91   12.53
  -1   9  -5  102.29   17.33
  -1  -9  -4    4.01    7.17
   1   9  -4   18.44    6.10
   1  -9  -4    4.66    6.39
  -1  -9  -4   16.95    5.86
   1   9  -4   10.47    7.30
  -1   9  -4    9.13    7.33
   1   9  -3   54.92    3.69
   1   9  -3   73.35    3.96
   1  -9  -3   94.29   13.12
  -1  -9  -3   75.27   11.57
   1   9  -3   57.13    8.33
  -1  -9  -3   81.59    9.62
   1  -9  -3   72.51    5.54
  -1   9  -3   78.19   12.62
   1   9  -3   91.90   13.37
  -1   9  -2   21.00    4.49
   1   9  -2   17.78    6.74
   1   9  -2   12.44    3.81
   1  -9  -2   22.13    7.39
  -1  -9  -2   21.64    6.89
  -1  -9  -2   19.95    5.18
   1  -9  -2   12.26    1.86
  -1   9  -2   12.67    6.25
   1  -9  -2   15.29    4.17
  -1  -9  -2   17.80    4.64
   1   9  -2   20.30    6.49
   1   9  -1  457.31   14.55
  -1   9  -1  509.82   21.60
   1  -9  -1  474.85   21.86
  -1   9  -1  484.44   23.81
  -1  -9  -1  466.82   21.76
   1   9  -1  498.12   25.48
   1   9  -1  489.80   21.47
  -1   9   0    3.85    6.23
  -1   9   0    5.75    5.27
   1   9   0    0.33    5.01
  -1  -9   0   -0.58    3.72
   1  -9   0    0.65    4.15
   1   9   0    3.16    3.49
  -1   9   1  497.77   26.92
  -1  -9   1  461.53   24.99
   1  -9   1  451.58   24.26
   1  -9   1  494.23   24.10
  -1   9   1  452.58   25.12
  -1  -9   1  479.05   25.69
   1   9   1  453.07   22.04
   1  -9   1  491.76   26.98
   1   9   1  505.78   26.26
  -1   9   2   14.70    5.93
   1  -9   2   14.39    3.11
  -1   9   2    6.23    6.70
  -1   9   2   15.99    3.69
   1   9   2   24.35    7.36
  -1  -9   2    8.29    6.33
   1   9   2   17.91    4.74
   1  -9   2   11.01    5.54
  -1  -9   2   15.24    6.58
   1  -9   2   26.35    8.38
   1   9   2    9.50    4.11
  -1   9   3   62.07   10.36
  -1   9   3   74.96   13.85
   1  -9   3   67.62    8.15
  -1   9   3   79.58    9.09
   1   9   3   75.20   12.04
  -1  -9   3   70.83   11.82
   1  -9   3   66.58   10.65
  -1  -9   3   69.78   11.99
   1   9   3   65.88    7.41
   1  -9   3   60.81   11.91
  -1   9   4   12.18    6.15
  -1   9   4   11.86    9.35
   1   9   4    6.58    5.95
  -1  -9   4   18.21    7.58
   1  -9   4    8.62    5.85
   1  -9   4   11.78    6.74
  -1  -9   4    1.81    5.02
   1  -9   4    6.78    6.66
  -1   9   5   77.81   12.03
   1   9   5   93.03   13.74
  -1   9   5   74.91   15.10
  -1  -9   5   65.66   12.39
   1  -9   5   54.75   10.44
   1  -9   5   77.73   12.43
   1  -9   5   53.71   12.20
  -1  -9   5   73.85   13.83
   1   9   6   10.83    5.73
  -1   9   6    9.20    7.57
  -1  -9   6   19.72    7.84
   1  -9   6    4.94    4.29
   1  -9   6    5.87    5.06
  -1  -9   6    7.48    6.04
   1  -9   6    0.05    5.78
  -1  -9   7   27.53    9.03
   1   9   7  -14.59   10.23
  -1   9   7   12.88    9.93
  -1  -9   7   26.51    8.99
   1  -9   7    0.14    5.85
  -1 -10  -6   21.20   10.83
   1  10  -6   26.71    8.18
   1 -10  -6   13.05    8.77
  -1  10  -6    7.82    6.91
   1  10  -6    8.82    7.36
   1 -10  -5   61.32   13.33
   1  10  -5   68.63   11.70
  -1 -10  -5   85.69   15.34
   1  10  -5   66.08   14.29
  -1  10  -5   65.81   14.73
   1  10  -4  189.71   16.22
  -1 -10  -4  167.10   18.33
   1 -10  -4  195.66   20.13
  -1 -10  -4  209.99   16.27
   1  10  -4  216.61   22.59
  -1  10  -4  171.35   20.62
   1  10  -3   52.37    4.38
   1 -10  -3   76.16   12.39
   1  10  -3   73.15    8.93
  -1 -10  -3   58.48   10.77
  -1 -10  -3   66.06    8.85
   1  10  -3   67.57   11.42
   1 -10  -3   66.12    6.27
  -1  10  -3   64.65   11.96
   1  10  -2  181.26   11.42
  -1  10  -2  168.01   11.24
  -1 -10  -2  198.94   16.60
   1 -10  -2  183.52   17.02
  -1 -10  -2  171.71   12.94
   1 -10  -2  170.25    6.60
   1  10  -2  189.42   16.37
   1  10  -2  206.85   17.71
  -1 -10  -2  201.04   14.08
   1 -10  -2  182.95   12.77
  -1  10  -2  198.08   18.11
   1  10  -1  135.16    8.01
  -1  10  -1  122.79   12.12
   1  10  -1  137.14   12.48
  -1 -10  -1  114.49   11.74
   1  10  -1  140.56   14.94
   1 -10  -1  160.53   13.69
  -1  10  -1  169.66   15.10
  -1  10   0  105.10   13.14
   1  10   0  107.81   13.92
   1  10   0  128.48   10.62
  -1 -10   0  128.54   13.36
  -1  10   0  136.28   14.91
   1 -10   0   99.59   12.65
   1  10   1  133.74    8.80
  -1  10   1  125.12   15.43
  -1 -10   1  127.79   14.56
   1 -10   1  135.17   15.43
  -1  10   1  150.84   15.93
   1  10   1  136.45   15.24
   1  10   2  194.41   12.93
  -1  10   2  171.82   19.76
  -1  10   2  180.64    9.99
  -1 -10   2  191.31   18.31
   1 -10   2  187.20   17.10
  -1 -10   2  219.95   19.79
   1 -10   2  208.07   19.70
   1  10   2  184.76   14.18
   1  10   2  176.86   17.47
  -1  10   2  173.38   16.75
   1 -10   3   63.06    7.52
  -1  10   3   73.78   14.33
   1  10   3   58.84   11.43
  -1  10   3   60.51    7.87
  -1  10   3   61.04   11.29
  -1 -10   3   67.44   11.97
   1 -10   3   66.07   11.41
  -1 -10   3   70.92   12.72
   1  10   3   52.41    7.33
   1 -10   3   61.22   12.45
  -1  10   4  186.53   23.36
   1 -10   4  193.62   18.55
  -1 -10   4  155.93   18.29
   1 -10   4  196.76   18.98
  -1 -10   4  179.97   20.64
   1 -10   4  206.29   22.38
  -1  10   4  188.51   18.26
   1  10   4  201.15   19.73
  -1  10   5   73.04   11.72
  -1  10   5   51.53   14.23
   1  10   5   73.69   12.48
  -1 -10   5   54.57   11.69
   1 -10   5   74.61   12.49
   1 -10   5   62.35   11.99
  -1 -10   5   75.67   14.50
   1 -10   5   77.32   15.72
   1  10   6   17.76    7.26
  -1  10   6   34.60   11.91
  -1 -10   6   11.34    6.23
   1 -10   6   20.26    7.36
   1 -10   6   14.33    7.43
  -1 -10   6   10.66    7.04
   1 -10   6    9.36    7.22
  -1 -10   7    8.17    6.27
  -1 -10   7   22.67   10.64
   1 -10   7   21.30    9.11
  -1 -11  -6  -18.79    9.70
   1 -11  -6  -12.84    8.85
   1  11  -6   13.60    6.53
   1  11  -6   34.99   13.45
  -1  11  -6   13.43    9.93
  -1 -11  -5   69.73   13.97
   1 -11  -5   51.43   12.82
   1  11  -5   48.97    9.70
   1  11  -5   69.90   15.03
  -1  11  -5   47.57   13.63
  -1 -11  -4   20.33    9.23
   1 -11  -4   12.52    9.31
   1  11  -4   16.63    5.41
  -1 -11  -4   11.64    5.09
  -1  11  -4   23.93    9.74
   1  11  -4   12.97    7.64
   1 -11  -3    2.68    6.58
   1  11  -3    3.94    3.53
  -1 -11  -3    1.79    5.45
  -1 -11  -3   10.40    4.45
  -1  11  -3   -0.76    5.95
   1 -11  -3    3.58    2.93
   1  11  -3    3.20    4.60
   1  11  -2   30.95    9.56
  -1  11  -2   25.81    5.64
  -1 -11  -2   22.39    7.61
   1  11  -2   23.05    4.57
   1 -11  -2   39.07   10.04
   1 -11  -2   22.61    3.00
  -1 -11  -2   18.91    5.72
  -1  11  -2   35.12    9.52
   1 -11  -2   29.26    6.09
  -1 -11  -2   23.78    6.19
   1  11  -2   27.63    7.41
  -1  11  -1  212.66   16.03
   1  11  -1  203.24    9.40
  -1 -11  -1  201.46   16.38
   1 -11  -1  183.63   15.83
   1  11  -1  203.62   18.68
   1  11  -1  205.24   15.85
  -1  11  -1  233.14   18.50
  -1  11   0   80.56   11.52
   1  11   0   84.99   12.95
   1 -11   0   84.53   10.89
  -1 -11   0   80.28   11.73
   1  11   0   89.12    9.76
   1 -11   0   74.61   11.53
  -1  11   1  195.98   19.41
   1  11   1  185.52   10.23
   1  11   1  192.24   18.90
  -1  11   1  220.86   19.98
  -1 -11   1  198.81   18.65
   1 -11   1  254.21   21.30
   1  11   2   19.50    4.53
  -1 -11   2   30.04    9.27
  -1  11   2   21.98    9.65
   1  11   2   21.85    8.71
  -1  11   2   27.48    9.20
   1 -11   2   28.18    9.09
  -1 -11   2   26.18    8.75
  -1  11   3    7.45    6.20
  -1  11   3    6.41    9.06
   1  11   3    3.94    5.32
  -1 -11   3    4.93    6.50
   1 -11   3    4.30    5.46
  -1 -11   3    0.21    5.02
   1 -11   3    4.00    5.72
   1  11   4    3.75    5.20
  -1  11   4    0.71    8.08
  -1  11   4   14.23    7.28
  -1 -11   4    0.27    5.56
   1 -11   4    1.22    5.38
  -1 -11   4   24.88   10.13
   1 -11   4   14.72    8.40
  -1  11   5   51.64   11.15
  -1  11   5   58.94   15.31
   1  11   5   58.33   12.52
  -1 -11   5   60.27   12.76
   1 -11   5   58.10   12.18
   1 -11   5   65.35   13.81
  -1 -11   5   51.29   13.44
   1  11   6   -2.49    7.42
  -1  11   6  -13.09    9.62
   1  11   6   -7.01    7.26
  -1 -11   6    3.76    5.93
   1 -11   6   15.92    7.58
   1 -11   6   -7.62    6.16
  -1 -11   6    2.61    4.63
   1 -11   6   11.45    6.97
  -1 -11   7   45.36   11.33
  -1 -12  -6   13.49    8.69
   1  12  -6   25.56   11.25
  -1 -12  -5   13.58    8.85
   1 -12  -5    3.96    7.09
  -1  12  -5   21.62   10.64
   1  12  -5   22.01    9.18
  -1 -12  -4   62.55   12.67
   1  12  -4   36.97    7.65
   1 -12  -4   43.06   11.86
  -1  12  -4   37.14   11.33
   1  12  -4   26.60    9.71
   1  12  -3  129.04   11.52
   1 -12  -3  117.58   16.23
  -1 -12  -3  142.58   16.83
  -1 -12  -3  125.02   12.25
  -1  12  -3  137.61   17.59
  -1 -12  -3  145.20   12.09
   1 -12  -3  122.93   10.17
   1  12  -3  131.36   16.82
   1  12  -2  130.87   11.97
  -1  12  -2  137.72   11.71
   1  12  -2  125.28   16.00
   1  12  -2  141.78    9.54
  -1 -12  -2  123.47   15.18
   1 -12  -2  134.73   16.21
  -1 -12  -2  155.91   13.13
   1  12  -2  125.57   14.76
  -1 -12  -2  139.91   13.23
   1 -12  -2  152.20   13.48
  -1  12  -2  128.49   16.69
   1  12  -1   19.50    2.98
   1  12  -1   28.61    9.10
  -1  12  -1   15.41    6.44
  -1 -12  -1   16.46    6.48
  -1  12  -1   26.94    7.74
   1 -12  -1   34.06    8.05
   1  12  -1   30.89    7.63
   1  12   0   11.68    7.36
   1  12   0   12.69    2.17
  -1  12   0   16.82    7.50
   1 -12   0    8.51    5.22
  -1 -12   0   16.81    7.04
   1 -12   0   20.38    6.97
   1  12   0   21.28    6.04
  -1  12   1   21.65    8.91
   1  12   1   26.71    9.69
  -1  12   1   22.79    9.09
   1 -12   1   28.81    8.91
  -1 -12   1   27.17    8.37
  -1 -12   2  145.18   17.36
   1  12   2  129.71   17.40
  -1  12   2  124.61   18.57
  -1  12   2  148.75   17.72
  -1 -12   2  118.93   16.19
   1 -12   2  120.36   17.09
  -1  12   3  117.63   16.12
   1  12   3  117.68   16.27
  -1  12   3  155.17   21.17
  -1 -12   3  123.26   17.21
   1 -12   3  124.55   16.80
  -1 -12   3  137.94   18.26
   1 -12   3  125.33   18.10
  -1  12   4   37.47   10.17
   1  12   4   39.55   10.11
  -1  12   4   18.72    9.97
  -1 -12   4   37.58   10.81
   1 -12   4   32.60   10.39
   1 -12   4   42.71   12.58
  -1 -12   4   22.23    9.47
  -1  12   5   11.69    5.92
  -1  12   5   33.31   12.63
   1  12   5    8.80    7.60
  -1 -12   5   13.44    6.68
   1 -12   5   12.15    7.74
  -1 -12   5   20.14    9.32
   1 -12   5   27.34   11.64
   1  12   6    3.25    5.53
  -1 -12   6    8.08    6.21
   1 -12   6   -5.18    6.68
  -1 -12   6    3.21    5.55
   1 -12   6   17.56    9.37
   1 -13  -5   41.62   12.21
  -1 -13  -5   31.95   10.98
   1  13  -5   41.90   13.06
  -1  13  -5   52.72   14.22
  -1 -13  -4  103.51   15.96
   1 -13  -4  108.65   17.23
  -1  13  -4   76.24   16.23
   1  13  -4  108.58   17.47
   1 -13  -3  103.39   16.47
  -1 -13  -3   97.94   15.35
  -1 -13  -3   94.78   10.70
  -1  13  -3  128.11   18.10
   1  13  -3   89.88   14.74
   1  13  -2   46.50    7.96
  -1  13  -2   39.51    7.50
   1  13  -2   52.06   12.06
   1 -13  -2   29.34    9.61
  -1 -13  -2   55.86   11.84
  -1 -13  -2   44.63    7.81
   1  13  -2   19.76    7.17
   1 -13  -2   43.90    8.44
  -1 -13  -2   48.91    8.88
  -1  13  -2   30.85    9.53
  -1  13  -1    3.64    5.38
   1  13  -1   14.81    7.87
   1 -13  -1    8.55    5.24
   1  13  -1   11.48    5.98
  -1  13  -1    9.90    5.96
  -1 -13  -1    7.02    5.43
  -1  13   0    4.65    6.11
   1  13   0   10.49    8.26
   1  13   0    8.38    5.01
  -1 -13   0    6.58    5.72
   1 -13   0    6.15    4.52
   1  13   1   21.96   10.25
  -1  13   1    5.98    7.56
  -1  13   1   13.98    8.04
  -1 -13   1   -3.06    5.13
   1 -13   1    7.51    6.58
  -1  13   2   51.97   12.32
  -1  13   2   61.04   13.92
   1  13   2   37.77   11.02
  -1 -13   2   38.20   10.71
   1 -13   2   56.16   12.84
  -1 -13   3  118.40   17.24
   1  13   3  107.91   16.21
  -1  13   3  103.10   16.03
  -1  13   3   93.65   18.22
  -1 -13   3   99.65   16.70
   1 -13   3  110.91   17.93
  -1 -13   4   99.12   16.23
  -1  13   4   95.67   16.42
  -1  13   4  119.60   20.14
   1  13   4   82.33   15.69
  -1 -13   4  131.49   20.32
   1 -13   4  112.83   18.49
   1  13   5   25.98    9.99
  -1  13   5   46.87   11.17
  -1  13   5   71.76   17.01
  -1 -13   5   36.84   10.39
   1 -13   5   53.42   12.44
  -1 -13   5   54.94   13.54
   1 -13   5   40.64   12.74
  -1 -13   6   12.49    7.75
  -1 -14  -5   -7.47    7.71
  -1  14  -5   -3.54    7.00
  -1 -14  -4    2.62    7.05
   1 -14  -4    7.27    7.68
  -1  14  -4    3.08    5.69
   1  14  -4    0.09    4.61
   1 -14  -3   20.38    8.99
  -1 -14  -3   12.87    7.52
   1  14  -3   27.59    9.26
  -1  14  -3   27.07    9.24
  -1  14  -2    7.04    5.11
   1  14  -2   14.74    8.34
   1 -14  -2   18.68    8.80
  -1 -14  -2   11.39    8.25
  -1 -14  -2   21.69    6.54
  -1  14  -2   12.64    7.85
   1  14  -2   10.22    6.50
   1 -14  -2   27.53    7.83
  -1 -14  -2   20.42    6.63
   1  14  -1    9.25    7.81
   1  14  -1    2.26    5.87
  -1  14  -1   -1.07    6.28
  -1 -14  -1   -0.11    4.66
   1 -14  -1    4.13    4.84
  -1  14  -1   -2.35    5.91
   1  14  -1    8.57    6.00
  -1  14   0   42.56   11.02
   1  14   0   64.01   13.52
  -1 -14   0   48.40   11.06
   1 -14   0   72.48   13.34
   1  14   0   36.62    8.43
   1  14   1    6.32    7.94
  -1  14   1    0.02    7.22
  -1  14   1   -2.58    7.31
  -1 -14   1   -4.39    5.11
   1 -14   1   -1.47    6.45
  -1  14   2   27.80   10.11
   1  14   2   18.81    9.24
  -1  14   2    8.83    8.90
  -1 -14   2   19.04    8.85
   1 -14   2   23.53    9.85
  -1  14   3   14.49   10.04
  -1  14   3   35.43   10.73
   1  14   3   14.57    9.45
  -1 -14   3   23.96   10.42
   1 -14   3    0.82    6.08
  -1 -14   4   -2.82    6.73
  -1  14   4   11.41    6.30
  -1  14   4    4.87    8.87
   1  14   4   -2.43    4.41
  -1 -14   4   -0.58    6.36
   1 -14   4   -1.82    6.78
  -1 -14   5   -0.81    6.59
   1  14   5    2.05    5.51
   1  15  -5   12.56    8.57
  -1 -15  -4   29.50   11.38
   1 -15  -4   30.06   11.04
   1  15  -4   18.16   10.03
  -1  15  -4   -1.31    5.47
   1 -15  -3   17.05    9.48
  -1 -15  -3    3.99    7.23
  -1  15  -3   22.81    9.32
   1  15  -3   24.25    9.25
  -1 -15  -2    4.55    5.94
   1 -15  -2    4.15    8.67
   1  15  -2   20.22    8.83
  -1 -15  -2    7.90    5.24
  -1  15  -2   21.80    8.90
   1 -15  -2   10.13    5.84
   1  15  -1   24.82   10.87
   1  15  -1    9.48    7.00
  -1  15  -1   11.70    6.37
   1  15  -1   10.47    6.16
  -1  15  -1   23.10    8.57
   1 -15  -1   17.20    7.73
  -1 -15  -1   16.76    7.24
   1  15   0   14.27    8.05
  -1  15   0   19.29    8.92
   1  15   0   14.26   10.12
  -1 -15   0   21.65    8.39
   1  15   0    9.31    5.46
   1 -15   0   18.26    8.35
  -1  15   1   27.04   10.56
   1  15   1   22.15   10.14
  -1 -15   1   10.70    8.09
   1 -15   1   14.24    7.46
  -1  15   2   10.02    9.14
   1  15   2   18.93   10.01
  -1  15   2   12.47    8.81
  -1 -15   2   23.24    9.42
   1 -15   2   12.31    9.16
  -1  15   3   24.52   10.76
  -1  15   3   19.67   10.54
   1  15   3    7.10    8.08
  -1 -15   3   21.29   10.02
   1 -15   3   17.63    9.42
  -1  15   4   38.58   14.60
   1  15   4   15.41    8.22
  -1  15   4    7.52    7.54
   1  15   4   16.45   10.19
   1 -15   4   30.87   11.77
  -1 -15   4   25.99   10.54
   1  15   5   -7.43    5.08
  -1  15   5    7.50    7.88
  -1 -16  -4   10.80    7.82
   1  16  -4   -2.10    6.22
   1 -16  -3   19.43    9.86
  -1 -16  -3   18.53    9.03
  -1  16  -3   22.34   10.51
   1  16  -3   30.93    9.84
   1 -16  -2   35.72   10.59
  -1 -16  -2   34.53   10.03
  -1  16  -2   41.70   10.78
  -1 -16  -2   25.60    7.60
   1  16  -2   33.34   10.43
   1  16  -1    5.81    7.70
  -1  16  -1    4.84    6.55
   1  16  -1   16.84    8.73
  -1  16  -1   15.31    6.65
   1 -16  -1   12.23    5.78
  -1 -16  -1   21.36    7.48
   1  16   0   54.97   14.22
   1  16   0   45.86   11.27
  -1  16   0   54.80   12.83
  -1  16   0   75.37   12.67
   1 -16   0   94.39   15.09
  -1 -16   0   77.87   14.28
   1  16   1   13.25   10.54
   1  16   1   12.60    8.93
  -1  16   1    9.99    9.32
  -1 -16   1   19.66    9.23
   1 -16   1    8.68    8.12
   1  16   2   16.50    9.10
  -1  16   2   20.18   10.92
  -1  16   2   18.90   10.20
   1  16   2   12.09   10.02
  -1 -16   2   19.38    9.33
   1 -16   2   38.63   11.89
  -1  16   3   26.35   12.02
   1  16   3   32.60   11.61
  -1  16   3   40.22   11.87
   1  16   3   15.14   10.16
  -1 -16   3   13.09    9.20
   1 -16   3   36.28   12.19
  -1  16   4    9.52    7.50
   1  16   4   -8.02    7.08
  -1  16   5    2.28    4.73
  -1 -17  -3   -7.80    7.96
  -1  17  -3   -8.21    8.18
   1 -17  -2   14.13    8.48
  -1 -17  -2   18.03    8.79
  -1  17  -2    0.66    6.31
   1  17  -1   20.86   10.80
  -1  17  -1    7.38    6.92
   1 -17  -1   14.01    6.92
  -1 -17  -1   12.02    6.87
   1  17   0   11.39    8.74
   1  17   0   -2.88    7.85
  -1  17   0    4.94    7.18
  -1  17   0    3.21    6.28
   1 -17   0    5.30    6.81
  -1 -17   0   22.56    8.85
   1  17   1   12.29   11.30
   1  17   1    6.96    8.32
  -1  17   1   18.35    9.80
  -1 -17   1   30.27   10.38
   1 -17   1    3.02    8.58
   1  17   2   12.68    9.98
  -1  17   2    3.14    7.62
   1  17   2    1.71    8.25
  -1 -17   2   21.46   10.44
   1 -17   2   -9.87    8.15
  -1  18  -3   20.51   12.04
  -1 -18  -2   23.98   10.71
  -1  18  -2   34.69   11.32
  -1  18  -1   -5.32    6.31
  -1 -18  -1    3.19    6.28
  -1  18   0   -5.71    6.69
   1  18   0   13.24    7.49
  -1 -18   0   17.11    8.18
  -1  18   0   22.11    8.61
   1 -18   0    4.54    6.16
   1  18   1  -12.01    8.64
  -1  18   1    6.02    7.21
  -1 -18   1   10.54    8.25
   1 -18   1    9.19    7.64
  -1  18   2   -4.37    8.73
   1  18   2    2.51    8.77
   1 -19   0    9.04    6.02
  -1 -19   0    2.65    5.36
   1  19   1   -7.37    8.28
  -1  19   1    7.18    7.44
   2   0  -7   45.76   13.66
  -2   0  -7   56.00   13.45
   2   0  -6  637.98   37.41
  -2   0  -6  621.98   38.32
  -2   0  -6  592.68   37.68
   2   0  -5  475.87   29.53
   2   0  -5  522.46   30.11
  -2   0  -5  528.76   31.58
  -2   0  -5  500.87   31.25
   2   0  -4   91.72   11.86
   2   0  -4   69.67   11.20
  -2   0  -4   83.04   12.38
  -2   0  -4   79.30   11.36
   2   0  -4   85.86    8.56
   2   0  -3  166.02   13.91
   2   0  -3  140.39   11.20
   2   0  -3  155.18   12.68
  -2   0  -3  153.76   14.05
  -2   0  -3  180.87   14.21
   2   0  -3  153.09   10.34
   2   0  -2  138.05    9.66
   2   0  -2  147.24   11.31
   2   0  -2  166.93   10.69
  -2   0  -2  139.26   11.61
  -2   0  -2  158.82   10.85
   2   0  -2  152.66    9.21
   2   0  -1 2268.57   34.18
   2   0  -1 2266.12   26.76
  -2   0  -1 2208.91   36.31
   2   0  -1 2245.86   21.20
   2   0  -1 2242.88   32.62
  -2   0  -1 2253.37   29.56
  -2   0   0 7832.10   60.61
  -2   0   0 7782.99   55.04
   2   0   0 7901.35   56.49
  -2   0   1 2301.39   33.74
  -2   0   1 2234.95   25.12
   2   0   1 2234.82   36.57
   2   0   1 2292.04   35.78
  -2   0   2  154.16   10.10
  -2   0   2  167.61   10.36
   2   0   2  148.49    9.88
  -2   0   2  166.94   12.26
   2   0   2  153.98   11.52
   2   0   2  150.64   11.81
  -2   0   2  137.09    8.95
   2   0   2  150.67   10.07
  -2   0   3  152.79   11.22
   2   0   3  141.52    5.49
   2   0   3  176.86   13.30
  -2   0   3  155.64   12.48
   2   0   3  137.01   12.74
   2   0   3  159.44   13.27
  -2   0   3  137.43    9.50
  -2   0   4   80.98    9.27
   2   0   4   68.96    5.72
  -2   0   4   73.07    4.27
   2   0   4   73.32   10.32
  -2   0   4   76.14    7.67
  -2   0   5  497.01   23.77
   2   0   5  442.16   16.77
  -2   0   5  493.51   29.29
  -2   0   5  500.47   13.19
   2   0   5  467.15   26.01
  -2   0   5  502.77   20.40
   2   0   5  463.07   24.42
  -2   0   6  671.37   29.60
  -2   0   6  634.70   36.34
   2   0   6  649.21   33.18
   2   0   6  588.80   28.84
   2   0   6  621.83   28.81
  -2   0   7   36.59   10.39
   2   0   7   45.18   11.06
  -2   0   8   61.79   14.22
  -2   1  -8   10.75   10.08
   2   1  -7   41.94   12.66
   2  -1  -7   24.77   10.92
  -2   1  -7   33.55   12.36
  -2  -1  -7   31.00   11.28
   2  -1  -6  203.93   22.40
   2   1  -6  187.66   21.10
   2  -1  -6  230.46   22.83
  -2  -1  -6  181.82   21.23
  -2  -1  -6  173.26   20.63
  -2   1  -6  168.01   20.66
   2   1  -5  227.69   20.62
   2  -1  -5  231.35   21.20
   2  -1  -5  232.67   20.67
  -2   1  -5  239.03   22.92
  -2  -1  -5  247.74   21.73
  -2   1  -5  247.51   22.28
  -2  -1  -5  250.74   22.32
   2   1  -5  253.54   16.08
   2  -1  -4  135.67   15.32
   2  -1  -4  143.09   14.59
   2   1  -4  115.25   13.86
  -2   1  -4  127.73   14.53
  -2  -1  -4  135.47   14.26
  -2   1  -4  127.13   15.01
  -2  -1  -4  120.26   14.28
   2   1  -4  133.95   11.34
   2  -1  -4  133.41    9.47
   2   1  -3  175.80   14.23
   2  -1  -3  173.34   12.75
   2   1  -3  171.72   11.30
   2  -1  -3  169.04   14.13
   2  -1  -3  179.06   13.63
   2   1  -3  179.41   13.84
  -2  -1  -3  190.82   14.09
  -2  -1  -3  169.52   14.21
  -2   1  -3  154.87   14.34
  -2   1  -3  172.46   14.21
   2  -1  -3  176.35    9.73
   2   1  -3  181.41   11.93
   2   1  -2   68.86    8.02
   2   1  -2   50.81    5.84
   2  -1  -2   56.13    7.43
   2  -1  -2   63.19    7.23
   2   1  -2   57.83    6.90
   2  -1  -2   75.08    7.67
  -2  -1  -2   63.64    7.00
  -2   1  -2   74.61    9.00
  -2  -1  -2   56.48    7.69
  -2   1  -2   70.81    8.12
   2   1  -2   65.35    6.81
   2  -1  -2   64.53    5.65
   2  -1  -1  119.60    9.11
   2   1  -1  127.82    8.38
   2  -1  -1  133.85    7.41
   2   1  -1  108.67    6.20
  -2  -1  -1  133.22    9.83
   2  -1  -1  118.72    5.85
  -2   1  -1  134.94    9.64
  -2   1  -1  122.60    9.48
   2   1  -1  128.93    8.74
  -2  -1  -1  127.42    6.81
   2  -1   0 3729.48   43.18
   2   1   0 3700.06   42.49
  -2  -1   0 3587.15   39.08
   2  -1   0 3691.18   38.93
  -2   1   0 3650.06   39.70
  -2   1   0 3660.11   37.54
   2  -1   1  132.53    8.64
  -2  -1   1  126.33    8.17
  -2   1   1  111.49    9.16
  -2  -1   1  118.22    6.17
   2   1   1  114.65    6.39
  -2  -1   1  119.88   10.06
  -2   1   1  120.58    6.26
   2  -1   1  150.81   10.16
   2  -1   1  120.73   10.40
   2   1   1  138.75    9.59
  -2  -1   1  118.90    8.65
  -2   1   2   55.36    6.87
  -2  -1   2   62.58    6.29
  -2   1   2   63.24    6.57
   2   1   2   55.94    6.40
  -2  -1   2   63.55    6.60
   2   1   2   58.78    7.31
   2  -1   2   74.88    8.44
   2  -1   2   60.71    8.29
  -2   1   2   60.22    3.57
  -2  -1   2   63.67    8.01
   2  -1   2   66.50    7.23
  -2  -1   2   60.89    6.79
   2   1   2   60.59    6.47
  -2   1   3  188.23   13.33
  -2  -1   3  178.31   11.14
  -2   1   3  165.54   12.76
  -2  -1   3  159.85   14.42
   2  -1   3  172.21   13.20
   2  -1   3  176.71    6.73
   2   1   3  186.17   13.66
  -2  -1   3  175.78   13.08
  -2   1   3  157.24    5.94
   2  -1   3  171.22   13.75
   2  -1   3  193.85   14.54
  -2  -1   3  163.39   11.11
   2   1   3  178.44   13.49
  -2   1   4  121.86   11.82
  -2  -1   4  135.81   10.81
   2  -1   4  146.25    8.19
  -2  -1   4  117.67   13.68
   2   1   4  121.27    7.67
   2  -1   4  129.15   13.09
   2   1   4  123.67   12.81
  -2   1   4  140.24   12.98
  -2   1   4  123.32    8.81
  -2  -1   4  132.25   10.73
   2   1   4  129.14   12.68
  -2   1   5  222.18   17.23
  -2  -1   5  238.53   15.70
   2  -1   5  247.35   12.66
  -2  -1   5  212.55   19.84
   2   1   5  221.79   12.25
  -2  -1   5  244.18    8.17
   2  -1   5  242.71   19.02
   2   1   5  238.05   19.31
  -2   1   5  237.28   10.74
  -2   1   5  264.03   13.36
  -2  -1   5  258.00   16.03
   2   1   5  220.58   17.47
  -2   1   6  179.01   16.75
  -2  -1   6  220.60   15.85
  -2  -1   6  179.65   19.90
  -2   1   6  166.88   18.90
   2  -1   6  200.47   18.81
   2   1   6  172.10   17.74
  -2  -1   6  181.11   14.40
   2  -1   6  150.20   14.86
   2   1   6  195.92   17.03
   2  -1   6  180.14   16.10
   2   1   6  179.08   14.58
  -2   1   7   33.32   11.01
  -2  -1   7   21.29    9.22
   2  -1   7   32.45    9.81
   2   1   7   23.51    8.41
  -2   1   8  -15.11    8.83
  -2  -1   8  -32.33   10.97
   2   2  -7   -1.97    7.34
   2  -2  -7   11.28    9.11
  -2   2  -7   -4.50    8.80
   2   2  -6   53.80   12.24
   2  -2  -6   56.79   12.81
   2  -2  -6   62.45   13.41
  -2  -2  -6   48.46   11.93
  -2  -2  -6   69.09   13.16
  -2   2  -6   42.20   12.82
   2   2  -5   95.05   14.30
   2  -2  -5  119.18   15.47
   2  -2  -5  106.79   15.08
  -2   2  -5  127.79   17.30
  -2  -2  -5  104.18   14.72
  -2  -2  -5  114.71   15.01
  -2   2  -5  109.05   15.78
   2   2  -4   30.99    8.25
   2  -2  -4   20.76    7.33
   2  -2  -4   35.50    8.68
  -2  -2  -4   26.38    8.05
  -2  -2  -4   17.95    6.78
  -2   2  -4   21.54    8.07
  -2  -2  -4   24.01    7.35
  -2   2  -4   21.03    7.45
   2   2  -4   23.35    6.06
   2  -2  -4   23.81    4.14
   2   2  -3  707.15   27.75
   2  -2  -3  738.32   28.47
   2   2  -3  614.89   19.76
   2  -2  -3  646.18   25.98
   2  -2  -3  675.12   25.98
  -2  -2  -3  753.52   27.47
  -2  -2  -3  671.03   25.04
  -2  -2  -3  673.14   27.26
  -2   2  -3  670.39   29.42
   2  -2  -3  677.76   14.22
   2  -2  -3  663.39   16.73
   2   2  -3  715.75   24.96
  -2   2  -3  686.82   28.34
   2  -2  -2   31.66    3.89
   2  -2  -2   29.41    5.82
   2   2  -2   36.99    6.29
   2   2  -2   28.53    4.56
  -2  -2  -2   40.72    6.05
   2  -2  -2   25.29    5.65
   2  -2  -2   45.23    6.29
  -2   2  -2   34.25    3.31
  -2   2  -2   36.04    6.45
  -2   2  -2   37.39    7.67
  -2  -2  -2   49.44    7.30
  -2   2  -2   33.95    6.33
   2   2  -2   35.82    3.66
   2   2  -2   27.14    5.12
   2  -2  -2   30.45    3.88
  -2  -2  -2   38.58    5.39
   2   2  -1 1145.07   23.24
  -2   2  -1 1129.15   23.41
   2  -2  -1 1104.15   26.97
   2  -2  -1 1102.51   21.40
  -2  -2  -1 1070.06   18.95
  -2  -2  -1 1067.45   16.99
  -2   2  -1 1051.74   26.35
  -2   2  -1 1147.29   26.78
   2  -2  -1 1116.98   19.61
  -2  -2  -1 1097.67   25.92
  -2  -2  -1 1076.64   16.36
   2   2  -1 1134.99   26.53
   2   2  -1 1063.23   22.43
   2  -2   0   27.90    4.94
  -2   2   0   34.36    5.45
   2   2   0   25.83    5.31
   2   2   0   18.71    4.33
  -2  -2   0   21.97    4.41
  -2   2   0   30.45    5.12
  -2   2   0   36.39    4.86
   2  -2   0   34.17    5.17
   2  -2   0   45.16    4.66
   2   2   0   32.91    5.30
  -2   2   1 1078.73   27.26
   2  -2   1 1108.95   23.46
   2   2   1 1083.34   18.01
  -2  -2   1 1060.29   18.73
   2   2   1 1068.17   18.37
  -2  -2   1 1137.33   28.56
   2  -2   1 1083.03   26.03
  -2   2   1 1025.18   19.46
   2  -2   1 1099.47   25.80
  -2  -2   1 1159.25   24.74
  -2  -2   1 1087.59   26.00
   2   2   1 1072.76   29.10
  -2   2   2   36.51    6.31
  -2  -2   2   29.37    4.38
   2  -2   2   27.96    4.37
   2   2   2   37.01    5.21
  -2  -2   2   34.58    5.30
   2   2   2   31.77    2.91
  -2   2   2   35.08    5.27
  -2  -2   2   37.84    7.35
   2  -2   2   24.40    5.84
   2  -2   2   39.44    6.81
  -2   2   2   35.84    3.74
   2   2   2   36.71    6.21
   2   2   2   36.06    4.83
  -2  -2   2   38.87    6.87
   2   2   2   35.18    7.01
  -2  -2   2   24.48    5.15
  -2   2   3  675.97   25.84
  -2  -2   3  675.36   19.61
   2  -2   3  685.28   15.47
  -2  -2   3  692.96   28.83
  -2  -2   3  713.89   26.58
   2   2   3  683.87   25.42
  -2   2   3  623.59   15.02
   2  -2   3  691.72   26.37
  -2  -2   3  652.83   23.30
   2   2   3  671.47   26.68
   2   2   3  703.78   25.31
  -2  -2   4   25.93    4.82
   2   2   4   28.20    7.21
  -2   2   4   35.61    7.25
  -2  -2   4   23.32    7.68
   2  -2   4   24.73    4.33
  -2   2   4   29.27    5.97
   2  -2   4   18.27    6.35
  -2  -2   4   24.67    5.96
  -2  -2   5  110.27    9.86
   2   2   5  112.25   13.06
  -2   2   5  105.08   12.68
   2  -2   5  104.22    8.79
  -2  -2   5  102.96   14.11
   2   2   5   89.84    8.42
  -2  -2   5   85.01    4.78
   2   2   5  102.07   12.96
   2  -2   5  104.18   12.94
  -2  -2   5  102.69   11.40
  -2   2   6   41.15    8.85
   2   2   6   44.47    8.55
  -2  -2   6   34.99   10.19
   2   2   6   52.64   10.56
   2  -2   6   53.65   10.63
   2  -2   6   46.46    8.94
   2   2   6   36.67    6.73
  -2  -2   6   60.11    9.41
  -2   2   7    0.68    3.69
  -2   2   7  -14.32    8.52
  -2  -2   7   -2.95    6.47
   2  -2   7   -9.04    7.29
   2   2   7    0.06    6.35
  -2   2   8   28.26   11.15
  -2  -2   8   24.51   10.18
   2   3  -7  140.21   20.24
   2  -3  -7  199.47   23.78
   2  -3  -7  205.30   24.30
  -2  -3  -7  180.51   23.22
  -2   3  -7  184.10   24.14
   2  -3  -6    6.64    6.82
   2  -3  -6    5.70    7.29
   2   3  -6   17.47    9.47
  -2  -3  -6    4.25    6.46
  -2   3  -6    1.14    7.48
   2   3  -5  493.96   29.77
   2  -3  -5  525.66   31.37
   2  -3  -5  492.54   29.96
  -2  -3  -5  518.15   30.78
  -2   3  -5  468.96   31.47
  -2   3  -5  484.91   31.92
  -2  -3  -5  453.70   29.03
  -2  -3  -5  463.89   28.27
   2   3  -4  585.07   29.40
   2  -3  -4  581.82   28.88
  -2  -3  -4  568.91   28.07
   2  -3  -4  521.34   27.00
   2   3  -4  527.19   30.34
  -2   3  -4  540.06   30.39
  -2  -3  -4  540.69   26.29
  -2   3  -4  530.27   29.80
  -2  -3  -4  546.26   28.12
   2  -3  -4  549.65   14.48
   2  -3  -3    2.93    2.35
   2   3  -3    5.31    2.95
   2   3  -3    1.50    4.91
   2  -3  -3    2.98    4.91
  -2   3  -3    5.87    2.62
   2  -3  -3    4.12    5.11
  -2  -3  -3   -3.21    5.03
  -2   3  -3   13.63    6.78
  -2  -3  -3    1.57    3.93
  -2   3  -3   10.81    5.46
  -2  -3  -3   -1.32    3.34
   2   3  -3    5.12    4.08
   2   3  -3    1.49    5.68
   2   3  -2  329.32   16.30
   2  -3  -2  323.74   17.78
   2  -3  -2  345.36   16.35
   2   3  -2  316.25   12.65
  -2   3  -2  314.12   11.13
  -2  -3  -2  325.03   15.18
   2  -3  -2  315.75   15.47
   2   3  -2  328.96   17.49
  -2   3  -2  324.29   18.29
  -2   3  -2  330.98   16.91
  -2  -3  -2  339.97   16.92
  -2  -3  -2  314.43   12.76
   2  -3  -2  307.06   12.75
   2   3  -2  308.71   11.53
   2   3  -2  347.89   17.33
  -2   3  -2  340.19   17.86
  -2   3  -1  260.36   11.69
   2   3  -1  227.04   10.76
   2  -3  -1  247.77   14.03
   2  -3  -1  285.15   12.18
  -2  -3  -1  225.58    9.28
  -2  -3  -1  246.16    9.96
   2   3  -1  228.56   14.00
   2  -3  -1  254.16   11.09
  -2   3  -1  269.80   13.92
  -2   3  -1  263.80   13.57
  -2  -3  -1  258.78   13.05
   2   3  -1  265.87   14.03
   2   3  -1  225.45   11.69
   2  -3   0  652.02   19.98
  -2   3   0  641.77   19.46
  -2  -3   0  684.56   19.44
   2   3   0  673.13   19.98
   2  -3   0  634.39   15.31
  -2   3   0  688.66   19.78
   2  -3   0  706.37   19.42
  -2   3   0  608.89   15.94
  -2  -3   0  648.96   20.19
   2   3   0  647.78   21.16
   2   3   0  655.42   20.65
  -2  -3   0  656.03   21.26
  -2   3   1  235.18   14.40
   2  -3   1  258.44   11.85
   2   3   1  253.62   10.56
  -2  -3   1  259.76   14.49
  -2  -3   1  260.98   11.93
   2  -3   1  239.21   13.62
   2  -3   1  248.94   13.03
  -2   3   1  266.58   11.45
  -2   3   1  253.61    7.51
   2   3   1  245.04   12.26
  -2  -3   1  248.09   13.62
  -2  -3   1  250.51   11.98
   2   3   1  282.34   15.90
  -2   3   2  329.68   18.04
   2  -3   2  304.90   12.47
   2   3   2  305.92   10.56
  -2  -3   2  312.36   14.60
   2   3   2  337.27   14.57
  -2  -3   2  320.52   18.12
  -2   3   2  303.84   11.76
  -2  -3   2  340.55   17.42
   2  -3   2  316.93   17.56
   2  -3   2  339.69   17.37
   2   3   2  318.62   15.62
   2   3   2  307.38   12.49
  -2  -3   2  297.93   15.88
  -2  -3   2  294.77   11.62
   2   3   2  322.21   18.12
  -2   3   3    7.00    5.17
   2   3   3   -2.07    4.10
   2  -3   3    4.42    2.31
  -2  -3   3    1.11    2.18
   2   3   3    3.04    3.14
  -2  -3   3    0.94    3.07
  -2  -3   3   -2.95    5.19
   2  -3   3    3.41    2.47
  -2   3   3    5.58    2.73
  -2   3   3    5.22    2.54
   2  -3   3   -0.92    4.15
   2   3   3    3.18    3.36
  -2  -3   3    7.08    4.17
  -2  -3   3    1.08    1.33
  -2  -3   4  504.84   17.02
  -2   3   4  548.96   26.97
  -2  -3   4  567.23   28.95
   2  -3   4  555.50   18.59
   2  -3   4  563.84   26.35
  -2   3   4  550.98   22.74
  -2  -3   4  581.87   25.82
   2   3   4  562.21   26.85
  -2   3   5  452.03   26.53
  -2  -3   5  488.49   17.91
  -2  -3   5  512.59   30.27
   2  -3   5  495.65   19.76
   2  -3   5  498.71   26.81
  -2  -3   5  507.23   26.08
   2  -3   5  501.22   27.37
   2   3   5  494.83   26.70
   2   3   6    2.09    4.58
  -2   3   6   10.70    5.88
  -2  -3   6   -0.83    5.87
   2   3   6    6.60    6.77
   2  -3   6    8.97    5.87
   2  -3   6   11.08    5.91
  -2  -3   6    1.77    4.57
  -2   3   7  177.57   19.25
  -2  -3   7  163.20   20.03
   2  -3   7  182.35   19.13
   2   3   7  174.20   19.93
   2  -3   7  182.67   19.30
  -2   3   8   33.07   11.39
  -2  -3   8   24.30   10.67
   2  -4  -7   -0.66    7.41
   2   4  -7    3.80    7.67
   2  -4  -7   -1.03    8.78
  -2  -4  -7   -1.97    7.41
  -2   4  -7    4.37    7.32
   2  -4  -6  194.61   22.04
   2   4  -6  200.55   21.44
  -2  -4  -6  220.92   23.21
   2  -4  -6  188.64   21.14
  -2  -4  -6  201.83   21.92
  -2   4  -6  203.62   23.74
   2  -4  -5   -3.69    6.33
  -2  -4  -5   -2.76    7.83
   2  -4  -5    0.29    5.34
   2   4  -5    5.65    5.88
  -2  -4  -5    1.83    6.11
   2   4  -5    3.67    6.93
  -2   4  -5    1.54    6.40
   2  -4  -4    4.47    2.59
   2  -4  -4    5.66    5.47
   2  -4  -4    6.10    6.11
   2   4  -4    3.38    5.78
  -2  -4  -4    0.46    5.94
  -2  -4  -4    5.60    5.30
  -2   4  -4   11.44    6.86
  -2   4  -4    3.86    6.04
   2   4  -4    6.08    7.15
   2   4  -3   52.37    5.27
   2  -4  -3   48.21    5.94
   2  -4  -3   45.40    8.52
  -2   4  -3   53.45    6.11
  -2  -4  -3   69.56    9.73
   2   4  -3   46.51    8.63
   2  -4  -3   58.40    8.95
  -2  -4  -3   50.00    8.40
  -2   4  -3   58.54   10.41
   2   4  -3   49.23    4.97
   2   4  -3   41.83    9.05
  -2   4  -3   61.64    9.83
   2   4  -2  254.10   14.46
   2  -4  -2  248.50   16.66
   2  -4  -2  238.22   14.03
   2   4  -2  250.40   11.09
  -2   4  -2  254.00   11.63
   2  -4  -2  271.61   15.12
  -2  -4  -2  241.39   13.57
   2   4  -2  237.52   16.59
  -2   4  -2  233.54   16.17
   2   4  -2  236.93    9.50
  -2   4  -2  256.03   15.29
  -2  -4  -2  239.43   14.52
   2   4  -2  256.98   15.91
   2  -4  -2  253.27   12.84
   2   4  -2  261.29   16.07
  -2   4  -2  271.85   16.63
   2   4  -2  250.77   11.89
   2   4  -1   10.95    4.52
  -2  -4  -1    8.97    4.28
   2  -4  -1   13.48    4.29
   2  -4  -1   12.40    4.51
  -2   4  -1   14.41    3.94
   2  -4  -1   17.15    3.84
   2   4  -1    7.70    3.99
  -2  -4  -1    8.30    2.97
  -2  -4  -1   14.95    3.80
  -2   4  -1   15.85    4.77
  -2   4  -1   13.61    4.35
   2  -4  -1   10.34    3.98
  -2  -4  -1   10.77    4.64
   2   4  -1   13.07    4.31
   2   4  -1   11.36    3.66
   2  -4   0 2191.14   39.07
  -2   4   0 2257.89   39.00
   2   4   0 2236.79   38.71
  -2  -4   0 2288.41   37.92
   2  -4   0 2169.74   36.44
  -2   4   0 2198.35   37.55
   2  -4   0 2287.46   29.99
  -2   4   0 2188.58   31.50
  -2  -4   0 2305.68   40.20
   2   4   0 2305.63   40.46
  -2  -4   0 2261.44   41.23
   2   4   0 2258.09   41.32
  -2   4   1   16.49    5.54
   2  -4   1    9.47    3.18
   2   4   1    6.91    5.41
  -2  -4   1   10.00    3.53
  -2  -4   1    8.32    4.75
   2   4   1   11.06    3.33
  -2   4   1   12.36    3.37
   2  -4   1   12.86    4.90
  -2   4   1   10.47    1.91
   2  -4   1   10.93    4.11
  -2  -4   1    8.79    4.56
  -2  -4   1    7.08    3.13
   2   4   1    7.95    3.41
  -2   4   2  259.92   16.87
   2  -4   2  260.48   11.78
   2   4   2  249.99   12.78
   2   4   2  252.05   11.20
  -2  -4   2  276.81   17.20
   2  -4   2  258.21   15.56
  -2  -4   2  272.25   15.77
  -2   4   2  202.93    7.13
  -2   4   2  227.93   11.61
   2  -4   2  256.77   16.35
   2   4   2  269.85   13.23
  -2  -4   2  234.07   15.32
   2   4   2  240.71   10.92
  -2  -4   2  238.77   12.00
   2   4   2  257.57   16.88
   2  -4   3   50.35    5.35
   2   4   3   44.65    8.63
  -2   4   3   44.79    8.50
  -2  -4   3   45.99    5.13
  -2  -4   3   44.77    8.76
  -2   4   3   48.08    5.91
   2  -4   3   55.33    8.61
  -2   4   3   55.72    5.80
  -2  -4   3   51.14    8.22
   2   4   3   47.55    6.03
   2   4   3   41.93    6.26
  -2  -4   4    4.74    1.81
   2  -4   4    2.22    1.98
   2   4   4   -0.29    4.65
  -2   4   4    5.11    5.58
   2  -4   4    5.39    3.11
  -2  -4   4   -3.23    6.07
   2  -4   4    7.46    5.57
  -2   4   4    5.42    3.28
  -2  -4   4    5.66    4.30
  -2  -4   5    2.43    2.57
   2   4   5    3.14    4.54
  -2   4   5   -1.35    4.45
   2  -4   5   -1.92    3.00
  -2  -4   5    2.64    5.87
  -2   4   5   -0.85    3.35
   2  -4   5    0.94    5.70
  -2  -4   5   -6.16    4.90
   2  -4   5    4.83    5.38
  -2   4   6  180.00   18.93
  -2  -4   6  192.30   20.63
   2  -4   6  186.35   18.36
  -2  -4   6  202.44   18.54
   2  -4   6  202.99   20.31
   2   4   6  190.19   18.09
  -2   4   7    5.10    5.38
  -2  -4   7  -16.10    7.31
   2  -4   7   -9.72    7.05
   2   4   7   -1.77    6.04
   2  -4   7   17.79    6.98
  -2   4   8   -0.43    4.51
  -2  -4   8   13.60    7.61
   2  -5  -7   64.46   14.82
   2   5  -7   57.45   13.17
   2  -5  -7   42.00   13.61
  -2  -5  -7   61.72   14.56
  -2   5  -7   69.56   16.63
  -2  -5  -6   84.76   15.45
   2  -5  -6   68.45   13.51
   2   5  -6   61.54   12.79
   2  -5  -6   86.12   15.44
  -2  -5  -6   74.52   14.01
   2   5  -6  100.06   17.71
  -2   5  -6   85.27   16.82
   2   5  -5   60.00   11.30
   2  -5  -5   45.14   11.24
   2  -5  -5   42.18   10.40
  -2  -5  -5   56.76   11.51
  -2  -5  -5   52.63   11.10
   2   5  -5   54.42   12.44
  -2   5  -5   46.34   11.33
   2  -5  -4    3.30    2.58
   2   5  -4    3.60    5.19
  -2   5  -4   14.42    5.11
   2  -5  -4    6.66    6.02
  -2  -5  -4   12.31    6.49
   2  -5  -4    7.70    6.19
   2   5  -4    6.74    2.91
  -2  -5  -4    5.53    5.21
   2   5  -4    9.41    6.49
  -2   5  -4    2.17    5.58
   2   5  -3   77.06    6.05
  -2  -5  -3   82.69   10.19
   2  -5  -3   83.34   10.69
  -2   5  -3   64.29    7.33
   2  -5  -3   65.78    9.98
   2   5  -3   82.20   10.21
  -2   5  -3   70.51   11.13
   2   5  -3   76.70    6.47
  -2  -5  -3   80.49   10.09
  -2   5  -3   84.75   11.79
   2  -5  -3   83.25    8.51
   2   5  -3   79.22   11.48
   2   5  -3   72.51    6.88
   2   5  -2  252.07   14.72
   2  -5  -2  251.73   14.31
  -2   5  -2  251.47   11.58
   2   5  -2  263.89   11.41
  -2   5  -2  240.58   12.77
  -2  -5  -2  259.29   14.40
   2  -5  -2  250.04   15.07
   2   5  -2  214.85   10.73
   2   5  -2  256.62   16.38
  -2   5  -2  245.87   17.19
  -2  -5  -2  248.30   14.89
   2  -5  -2  234.19   13.87
  -2   5  -2  269.32   17.75
   2   5  -2  253.81   13.35
  -2   5  -1   12.11    3.54
   2   5  -1   11.90    4.43
  -2  -5  -1   14.32    4.71
   2  -5  -1   14.73    3.51
   2  -5  -1   16.80    4.63
   2  -5  -1   11.80    4.65
  -2  -5  -1   11.51    3.26
   2   5  -1   15.32    5.05
  -2   5  -1   15.83    4.80
  -2   5  -1   18.50    4.99
   2  -5  -1    9.38    3.91
   2   5  -1   20.20    5.55
  -2  -5  -1    9.54    4.11
   2   5  -1   15.45    4.25
  -2   5   0   18.11    5.13
   2  -5   0   11.94    4.68
   2   5   0   20.67    5.97
  -2  -5   0   15.25    4.79
   2   5   0   18.40    4.98
  -2  -5   0   18.07    5.32
  -2   5   0    8.55    3.17
   2  -5   0   14.47    3.38
  -2   5   0   16.51    4.52
   2  -5   0   22.50    5.56
   2   5   0   19.12    4.69
  -2  -5   0   17.31    4.92
   2   5   0   11.05    2.22
  -2  -5   1   11.79    4.04
   2   5   1   15.02    5.67
  -2   5   1   19.89    6.01
   2  -5   1   12.25    3.74
   2   5   1   19.52    4.22
  -2  -5   1   19.12    6.41
  -2   5   1   14.52    3.94
   2  -5   1   14.12    4.60
   2  -5   1   17.46    5.43
   2   5   1    8.29    3.57
  -2  -5   1   11.77    3.59
  -2  -5   1   16.93    5.47
   2  -5   2  239.61   13.31
  -2   5   2  223.04   16.55
   2  -5   2  263.25   12.49
   2   5   2  252.90   12.70
  -2  -5   2  254.64   17.18
   2  -5   2  269.93   17.31
   2   5   2  242.03   10.88
   2  -5   2  259.51   16.08
  -2   5   2  235.51   13.23
   2   5   2  234.84   12.97
  -2  -5   2  263.20   16.91
  -2  -5   2  272.68   15.71
  -2  -5   2  262.82   14.03
   2   5   2  257.59   17.44
   2  -5   3   77.21    6.50
  -2   5   3   85.03   11.63
   2   5   3   81.34   11.46
  -2  -5   3   74.96   10.91
   2  -5   3   67.04    9.14
   2  -5   3   82.24   10.36
  -2   5   3   75.56    8.01
  -2   5   3   75.61    5.40
  -2  -5   3   77.09   10.65
  -2  -5   3   81.06    7.77
   2   5   3   65.03    7.17
   2   5   3   72.30    8.27
   2  -5   4    9.72    2.54
  -2   5   4    2.33    5.38
  -2  -5   4   10.77    3.03
   2   5   4    0.46    3.94
  -2  -5   4    7.80    6.03
   2  -5   4    8.23    4.22
  -2   5   4    5.84    3.00
   2  -5   4    2.78    4.95
  -2  -5   4    3.73    5.09
   2  -5   4    7.43    5.48
   2   5   4    8.24    3.21
  -2   5   5   59.84   11.55
   2   5   5   47.11    9.92
   2  -5   5   48.37    7.68
  -2  -5   5   40.36    9.89
   2  -5   5   45.23    9.70
  -2  -5   5   62.59   11.58
   2  -5   5   51.53   10.56
  -2   5   6   58.42   12.38
   2   5   6   75.20   12.03
  -2  -5   6  103.47   15.67
   2  -5   6   65.87   11.85
  -2  -5   6   83.92   13.84
   2  -5   6   92.87   14.66
  -2   5   7   57.29   11.85
  -2  -5   7   51.32   11.37
   2  -5   7   55.95   11.39
   2  -5   7   54.86   12.27
  -2  -5   8   -5.91    5.92
   2  -6  -7   14.93    9.18
  -2  -6  -7   19.92   10.10
   2  -6  -7   18.31    9.95
   2   6  -7   10.57    8.33
  -2  -6  -7   14.20    8.39
  -2   6  -7   12.45    9.17
   2   6  -6  119.84   17.10
   2  -6  -6  123.76   18.01
  -2  -6  -6  104.82   17.01
   2  -6  -6  110.84   17.15
  -2  -6  -6  113.03   16.96
  -2   6  -6  108.49   18.55
   2   6  -6  140.35   20.61
   2  -6  -5  246.08   22.18
   2   6  -5  256.66   22.14
   2  -6  -5  243.79   22.26
  -2  -6  -5  300.51   24.47
  -2   6  -5  233.61   23.77
  -2  -6  -5  240.33   21.21
   2   6  -5  269.50   25.77
   2  -6  -4   23.39    5.36
   2   6  -4   25.10    7.62
  -2   6  -4   30.89    5.86
   2  -6  -4   19.67    7.36
   2  -6  -4   25.99    8.38
  -2  -6  -4   43.08    9.19
  -2  -6  -4   35.83    7.89
   2   6  -4   32.35    5.28
   2   6  -4   28.36    9.33
  -2   6  -4   39.49   10.47
   2   6  -3  597.93   15.94
   2   6  -3  604.65   26.59
   2  -6  -3  601.83   25.77
  -2   6  -3  597.66   23.05
  -2  -6  -3  607.14   26.29
   2  -6  -3  591.30   27.14
   2   6  -3  663.28   31.33
  -2  -6  -3  565.42   25.31
   2   6  -3  620.62   19.56
   2   6  -3  598.49   21.01
   2  -6  -3  580.21   23.50
   2  -6  -3  542.55   12.14
  -2   6  -3  600.21   29.87
   2   6  -2  122.59   10.53
  -2   6  -2  136.86    9.00
   2   6  -2  124.64    8.26
   2  -6  -2  118.90   10.09
   2  -6  -2  143.20   12.34
  -2   6  -2  116.48   10.11
  -2  -6  -2  133.66   11.23
   2   6  -2  113.89    8.94
   2   6  -2  119.58   11.82
  -2  -6  -2  137.45   11.55
   2   6  -2  130.05   10.78
  -2   6  -2  158.47   14.45
   2  -6  -2  113.68   10.81
   2  -6  -1  113.41    7.70
   2  -6  -1  111.81   11.61
  -2   6  -1  111.68    9.12
  -2  -6  -1  129.17    9.10
  -2   6  -1  131.41   10.48
   2   6  -1  126.60    9.68
  -2  -6  -1  102.34    9.69
   2  -6  -1  119.17   11.04
   2   6  -1  134.29   11.71
   2  -6   0  147.04   12.27
  -2   6   0  126.58   11.53
   2   6   0  140.49   11.55
  -2  -6   0  138.42   11.74
   2   6   0  129.62    6.70
  -2   6   0  142.50   11.43
   2  -6   0  131.13   11.23
   2  -6   0  136.90    8.66
   2   6   0  151.88   13.58
   2  -6   0  124.87   11.60
  -2  -6   0  129.90   11.19
   2   6   0  172.77   12.73
  -2  -6   0  133.77   12.16
   2  -6   1  109.61    9.83
  -2   6   1  115.47   12.18
   2   6   1  123.88   10.31
  -2  -6   1  121.73   11.98
  -2   6   1  132.19   10.87
   2  -6   1  115.23   10.44
   2  -6   1  102.91   10.64
   2   6   1  110.05   11.84
  -2  -6   1  125.43    8.84
  -2  -6   1  129.57   12.00
   2   6   1  129.91   10.59
  -2  -6   1  123.78   11.20
   2  -6   2  115.81    9.38
  -2   6   2  127.83   13.53
   2  -6   2  116.84    9.07
   2   6   2  134.86   10.33
  -2  -6   2  132.92   13.61
   2   6   2  118.87    7.71
   2  -6   2  120.67   11.97
  -2   6   2  117.35   10.34
   2   6   2  121.06   10.05
  -2  -6   2  138.75   13.71
   2   6   2  115.88   12.85
  -2  -6   2  125.50   11.28
  -2  -6   2  117.05   10.73
  -2   6   3  562.03   29.71
   2  -6   3  581.99   17.66
   2  -6   3  573.88   24.37
  -2  -6   3  592.74   28.85
   2   6   3  615.15   22.01
   2   6   3  549.18   21.56
   2  -6   3  634.25   27.59
  -2   6   3  558.75   22.57
  -2  -6   3  619.33   23.13
   2   6   3  605.55   29.12
   2   6   3  598.53   21.07
  -2  -6   3  595.00   28.96
  -2  -6   4   28.88    5.21
   2  -6   4   25.70    3.53
   2   6   4   40.22    9.06
  -2   6   4   32.65    8.75
  -2  -6   4   39.36    9.39
   2  -6   4   27.00    6.37
   2  -6   4   24.42    7.44
  -2   6   4   36.49    4.61
  -2  -6   4   34.15    8.59
   2  -6   4   28.74    8.75
   2   6   4   30.14    5.04
  -2   6   5  261.00   23.24
  -2  -6   5  250.65   22.46
   2  -6   5  283.14   18.10
   2  -6   5  276.87   21.42
   2   6   5  246.45   20.63
  -2  -6   5  265.45   22.41
   2  -6   5  262.06   23.45
   2   6   6  115.38   14.84
  -2   6   6  101.73   16.01
  -2  -6   6   71.98   13.33
   2  -6   6  118.77   15.49
  -2  -6   6  117.57   16.49
   2  -6   6  127.74   17.58
  -2   6   7   18.43    7.76
  -2  -6   7    2.54    4.94
   2  -6   7    8.49    6.41
  -2  -6   7   23.20    8.70
   2  -6   7    7.19    7.11
  -2  -6   8   66.21   14.31
   2  -7  -7   69.05   15.58
  -2  -7  -7   54.33   13.96
   2  -7  -7   48.35   13.55
   2   7  -7   56.02   12.87
  -2  -7  -7   65.62   13.84
   2   7  -7   73.70   17.35
  -2   7  -7   50.72   14.40
   2  -7  -6    6.54    8.11
   2   7  -6    1.17    5.15
   2  -7  -6   22.00    9.59
  -2  -7  -6   11.80    8.21
  -2  -7  -6  -12.34    7.31
   2   7  -6   -1.03    8.17
  -2   7  -6    3.48    6.88
   2  -7  -5  282.91   23.70
   2   7  -5  247.43   22.02
   2  -7  -5  271.36   23.75
  -2  -7  -5  256.67   22.87
  -2  -7  -5  265.07   21.90
  -2   7  -5  281.57   26.81
   2   7  -5  297.15   27.51
   2  -7  -4   41.30    9.55
  -2  -7  -4   47.77   10.29
   2   7  -4   40.86    8.58
   2  -7  -4   40.28    9.55
   2   7  -4   57.78    7.29
  -2  -7  -4   40.26    8.66
  -2   7  -4   42.08   10.52
   2   7  -4   44.38   10.84
   2   7  -3  137.41    7.80
   2   7  -3  128.22   12.65
   2  -7  -3  117.66   12.30
   2  -7  -3  129.83   14.07
  -2  -7  -3  113.90   12.43
   2   7  -3  125.16   14.71
  -2  -7  -3  116.86   12.32
   2   7  -3  123.61    9.82
  -2   7  -3   97.44   13.24
   2  -7  -3  121.04    6.54
   2   7  -3  130.37   11.17
   2   7  -2   66.75    8.86
   2   7  -2   48.61    7.29
  -2   7  -2   53.13    6.31
  -2   7  -2   74.10    8.80
   2  -7  -2   55.67    8.97
   2  -7  -2   62.73    7.56
  -2  -7  -2   58.45    8.52
  -2  -7  -2   69.16    8.73
   2   7  -2   60.41    7.58
  -2   7  -2   66.57   10.18
   2  -7  -2   61.06    6.62
   2   7  -2   56.58    8.98
  -2   7  -1  131.82   10.54
   2  -7  -1  136.97    8.44
  -2   7  -1  124.93   11.13
  -2  -7  -1  149.40   10.63
   2   7  -1  136.53   10.52
  -2  -7  -1  139.95   11.40
   2   7  -1  133.20   12.95
   2  -7   0  135.61   12.28
  -2   7   0  126.54   11.81
  -2  -7   0  122.94   11.97
   2  -7   0  143.02   12.34
   2  -7   0  122.92    8.67
   2   7   0  116.17    7.11
   2   7   0  114.59   12.87
  -2  -7   0  124.17   11.84
   2  -7   1  140.33   11.66
  -2   7   1  121.79   13.03
   2   7   1  142.76   11.76
  -2  -7   1  152.06   13.78
   2  -7   1  135.54   11.50
   2  -7   1  157.38   13.55
   2   7   1  138.09   14.14
  -2  -7   1  134.53   13.08
   2   7   1  140.37   12.09
  -2  -7   1  141.42   12.95
   2  -7   2   62.07    6.92
  -2   7   2   62.04   10.59
   2  -7   2   61.41    7.19
  -2  -7   2   48.92    7.97
   2   7   2   56.71   10.24
   2   7   2   58.35    7.67
  -2  -7   2   68.83   10.82
   2  -7   2   67.77    9.65
  -2  -7   2   56.51   10.15
   2   7   2   63.16    7.77
  -2  -7   2   51.43    7.80
   2   7   2   44.58    5.10
   2  -7   3  109.60    8.30
  -2   7   3  120.71   15.84
   2  -7   3  112.80   10.98
  -2  -7   3  127.25   14.40
   2   7   3  123.20   11.00
   2  -7   3  136.00   14.08
   2   7   3  117.12   10.28
   2   7   3  124.89   14.88
   2   7   3  119.41    9.97
  -2  -7   3  111.67   14.47
   2  -7   3  122.17   14.77
  -2  -7   3  115.78   11.52
   2   7   4   49.80   10.10
   2  -7   4   38.36    4.06
  -2  -7   4   49.23    7.71
  -2   7   4   61.60   12.51
  -2  -7   4   42.55   10.36
   2  -7   4   54.58    9.97
   2   7   4   53.47    6.22
  -2  -7   4   51.15   10.90
   2  -7   4   33.84    9.66
  -2   7   5  289.26   25.45
  -2  -7   5  230.77   21.72
   2  -7   5  257.22   18.40
   2  -7   5  246.22   20.85
   2   7   5  267.66   22.60
  -2  -7   5  249.79   22.92
   2  -7   5  283.98   25.36
   2   7   6   -1.87    4.35
  -2   7   6   16.75    8.14
  -2  -7   6   14.97    7.32
   2  -7   6   -6.44    6.31
  -2  -7   6    3.32    6.07
   2  -7   6    6.87    6.87
  -2   7   7   58.43   13.41
  -2  -7   7   49.19   12.52
   2  -7   7   44.70   11.91
  -2  -7   7   37.47   11.15
   2  -7   7   55.04   13.38
  -2  -8  -7    0.14    6.82
   2   8  -7   10.17    7.04
   2   8  -7  -10.30    8.86
   2   8  -6   37.86   11.07
   2  -8  -6   34.51   11.27
  -2  -8  -6   35.21   11.38
   2  -8  -6   41.51   12.40
  -2  -8  -6   42.06   10.51
  -2   8  -6   16.16   10.31
   2   8  -6   32.17   11.17
   2   8  -5  231.66   21.09
   2  -8  -5  255.08   22.62
   2  -8  -5  219.17   21.91
  -2  -8  -5  218.15   21.94
   2   8  -5  240.46   24.66
  -2  -8  -5  220.26   20.30
  -2   8  -5  214.64   24.09
   2  -8  -4   90.56   13.62
   2  -8  -4   95.04   12.82
  -2  -8  -4  105.27   14.24
   2   8  -4  104.74   13.15
  -2  -8  -4   81.69   11.48
  -2   8  -4  103.14   15.52
   2   8  -4   80.04   14.36
   2   8  -3   73.70    6.04
   2   8  -3   89.34   10.28
  -2  -8  -3   81.80   11.48
   2   8  -3   86.91   10.64
   2  -8  -3   66.78   10.90
   2  -8  -3   88.31   10.81
  -2  -8  -3   81.73   10.49
   2   8  -3   67.12    8.17
  -2   8  -3   99.85   14.20
   2  -8  -3   76.48    5.87
   2   8  -3   88.28   12.77
   2   8  -2  111.88   10.20
  -2   8  -2  132.31    9.76
   2  -8  -2  122.22   10.12
   2  -8  -2  137.37   13.82
  -2  -8  -2  129.44   12.15
   2   8  -2  135.61   13.42
  -2  -8  -2  137.98   12.39
   2   8  -2  125.96   11.33
  -2   8  -2  144.03   15.05
   2  -8  -2  106.43    9.35
   2   8  -2  136.46   12.86
  -2   8  -1  441.81   19.69
   2  -8  -1  362.69   12.77
   2  -8  -1  386.71    8.72
   2   8  -1  429.60   18.96
   2   8  -1  452.14   23.37
  -2  -8  -1  427.11   20.94
   2  -8  -1  435.49   20.52
  -2   8   0  222.16   15.90
  -2  -8   0  222.26   16.68
   2  -8   0  219.19   12.38
   2  -8   0  241.26   17.03
  -2  -8   0  213.41   15.79
   2   8   0  223.87   17.39
   2  -8   0  224.56   16.34
   2   8   0  216.97   10.30
   2  -8   1  400.56   11.93
   2  -8   1  429.33   21.23
  -2   8   1  438.29   24.45
  -2  -8   1  456.88   24.43
   2  -8   1  436.09   21.14
   2  -8   1  402.97   22.13
   2   8   1  451.16   25.21
  -2  -8   1  479.77   25.08
   2  -8   1  436.20   24.21
   2  -8   2  100.13    8.29
   2  -8   2  120.42   10.35
  -2   8   2  141.39   16.41
  -2  -8   2  120.66   14.31
   2  -8   2  126.97   13.14
   2   8   2  108.25    7.81
   2   8   2  119.61   14.66
  -2  -8   2  130.20   14.40
   2   8   2  129.72   11.46
   2  -8   2  124.41   14.92
  -2  -8   2  143.24   12.50
  -2   8   3   86.27   13.89
   2   8   3   93.18   13.23
  -2  -8   3  101.17   13.82
   2  -8   3   74.38    8.95
   2  -8   3   85.21   11.93
  -2  -8   3   89.70   13.27
   2  -8   3   79.86   12.70
   2   8   3   83.64    8.77
   2   8   3   65.82    7.95
   2   8   4   75.93   12.48
  -2   8   4  101.51   15.89
  -2  -8   4  102.19   15.06
   2  -8   4  100.65   13.59
   2  -8   4  108.26   16.49
  -2  -8   4  106.17   15.29
  -2   8   5  183.95   22.36
  -2  -8   5  223.82   21.75
   2  -8   5  257.28   21.84
   2   8   5  240.67   22.08
  -2  -8   5  264.01   24.17
   2  -8   5  241.39   24.40
   2   8   6   30.67   10.01
  -2   8   6   29.82   10.12
  -2  -8   6   47.86   11.49
   2  -8   6   25.37    8.40
  -2  -8   6   48.77   11.52
   2  -8   6   34.85   10.44
  -2   8   7    7.72    6.66
  -2  -8   7   33.62   10.46
   2  -8   7    9.09    8.17
   2  -8   7   10.06    7.50
  -2  -8   7   28.00    9.50
   2   9  -7   53.58   13.78
  -2  -9  -6    4.97    7.14
   2   9  -6    8.36    7.36
   2  -9  -6    2.91    7.03
  -2  -9  -6    4.57    7.18
   2   9  -6   -6.21    9.10
  -2   9  -6   12.31    9.59
   2   9  -5   60.42   11.31
   2  -9  -5   58.74   12.70
   2  -9  -5   57.67   12.14
  -2  -9  -5   42.03   11.02
  -2  -9  -5   59.59   11.80
   2   9  -5   53.24   13.10
  -2   9  -5   58.67   13.91
   2  -9  -4  249.68   19.65
   2   9  -4  209.99   18.05
   2  -9  -4  233.71   21.75
  -2  -9  -4  230.56   20.82
   2   9  -4  256.89   23.76
  -2  -9  -4  242.98   19.24
  -2   9  -4  244.22   23.78
   2  -9  -3  112.75   11.91
   2   9  -3   97.59   11.61
   2   9  -3  125.49   12.80
   2   9  -3  103.57    7.29
  -2  -9  -3  112.31   13.06
   2  -9  -3  104.29   13.81
  -2  -9  -3  115.52   12.51
   2   9  -3  130.07   15.53
   2  -9  -3   98.39    7.41
  -2   9  -3  103.80   15.09
   2   9  -2  251.42   15.23
   2  -9  -2  253.90   13.90
  -2   9  -2  257.41   13.99
  -2  -9  -2  260.06   17.39
   2  -9  -2  267.77   19.59
  -2  -9  -2  233.45   16.38
   2   9  -2  236.60   17.85
  -2   9  -2  280.28   21.28
   2   9  -2  250.38   18.25
  -2  -9  -2  259.93   16.20
   2  -9  -2  238.79   14.67
   2   9  -1    1.95    5.68
   2   9  -1    4.38    2.73
  -2   9  -1   -0.85    4.22
   2  -9  -1    6.88    4.68
   2   9  -1    4.91    3.82
  -2  -9  -1    5.73    4.72
  -2   9   0   72.72   10.45
   2   9   0   75.95   12.21
  -2  -9   0   80.26   11.01
   2  -9   0   77.81    8.36
   2  -9   0   89.08   11.51
   2  -9   0   89.10   11.73
   2   9   0   76.82    6.97
  -2  -9   0   76.44   10.52
   2   9   1   -3.25    5.67
  -2   9   1    2.53    6.00
   2  -9   1    0.51    1.48
  -2  -9   1    1.10    5.98
   2  -9   1    3.42    3.89
   2  -9   1    9.18    5.76
   2  -9   1   -1.18    5.30
  -2  -9   1    5.97    5.58
  -2   9   2  270.26   22.01
   2  -9   2  248.47   12.38
  -2  -9   2  221.77   19.04
   2   9   2  208.34   11.12
   2  -9   2  287.02   20.46
   2   9   2  256.60   20.96
  -2  -9   2  249.30   20.53
   2  -9   2  274.42   21.88
   2  -9   3  104.20   10.34
  -2   9   3  121.08   16.86
   2   9   3   99.33   14.38
  -2  -9   3  105.65   15.02
   2  -9   3  108.09   13.17
   2  -9   3  119.06   16.20
  -2  -9   3  114.29   15.22
   2   9   3  103.38   10.83
   2   9   3   82.77    8.92
  -2   9   4  255.30   24.58
  -2  -9   4  229.49   22.05
   2  -9   4  259.14   21.95
   2   9   4  221.09   21.16
  -2  -9   4  249.11   23.11
   2  -9   4  254.69   24.21
  -2   9   5   64.42   14.83
   2   9   5   47.92   11.75
  -2  -9   5   78.86   13.81
   2  -9   5   55.33   11.57
  -2  -9   5   63.47   12.98
   2  -9   5   73.34   15.08
   2   9   6    3.68    4.42
  -2   9   6    9.59    8.50
  -2  -9   6    7.79    6.08
   2  -9   6   10.96    7.48
  -2  -9   6   13.36    7.74
   2  -9   6   -3.73    6.20
  -2  -9   7   59.02   13.35
  -2   9   7   39.75   12.71
  -2  -9   7   59.73   14.43
   2  -9   7   65.77   14.69
   2  10  -7   31.38   10.18
   2 -10  -6   21.81   10.27
  -2 -10  -6   29.46   11.41
   2  10  -6    3.94    6.26
   2  10  -6   28.31   12.37
  -2  10  -6   24.17   11.01
   2 -10  -5    2.37    6.20
  -2 -10  -5    3.64    6.60
   2  10  -5   -2.46    4.94
  -2 -10  -5   14.47    6.08
   2  10  -5   -1.46    6.07
  -2  10  -5    2.67    8.71
  -2 -10  -4   81.26   13.44
   2 -10  -4   74.70   13.81
   2  10  -4   86.20   12.01
   2 -10  -4   80.43   11.84
  -2 -10  -4   81.61   11.67
  -2  10  -4   76.25   14.29
   2  10  -4   91.63   15.62
   2  10  -3   65.24   10.89
  -2  10  -3   70.31    6.93
  -2 -10  -3   56.18   10.53
   2  10  -3   65.44    9.64
   2 -10  -3   59.90    9.03
   2 -10  -3   59.45   11.94
  -2 -10  -3   75.27   10.68
  -2  10  -3   54.65   11.61
   2 -10  -3   59.18    6.44
   2  10  -3   64.93   12.07
   2 -10  -2  193.65   11.84
   2  10  -2  237.55   15.01
  -2  10  -2  214.37   13.46
   2 -10  -2  232.85   19.47
  -2 -10  -2  208.01   16.57
  -2 -10  -2  219.12   16.32
   2  10  -2  226.05   17.74
  -2  10  -2  199.70   18.91
  -2 -10  -2  229.31   16.13
   2  10  -2  232.88   18.99
   2 -10  -2  202.67   14.53
   2  10  -1   12.59    6.76
  -2  10  -1   18.97    6.12
   2  10  -1   13.33    3.93
   2  10  -1   17.76    5.29
  -2 -10  -1   15.82    6.17
   2 -10  -1   21.38    6.33
   2  10   0   64.19   11.41
  -2  10   0   77.80   11.13
   2 -10   0   66.84    8.44
   2 -10   0   68.29   11.42
   2  10   0   58.17    6.78
  -2 -10   0   70.97   11.01
   2  10   1   19.63    8.35
  -2  10   1   10.75    6.52
  -2 -10   1   18.08    7.63
   2 -10   1   15.07    6.29
   2 -10   1    5.99    6.45
  -2 -10   1   24.43    7.75
   2  10   1   13.43    3.27
  -2  10   2  214.39   20.62
   2 -10   2  202.85   10.47
  -2 -10   2  217.26   19.87
   2 -10   2  205.87   18.76
  -2 -10   2  256.01   21.45
   2  10   2  184.72   18.82
   2 -10   2  200.96   20.13
  -2  10   3   75.53   14.29
   2  10   3   69.62   13.29
  -2 -10   3   61.86   12.22
   2 -10   3   63.58   11.39
  -2 -10   3   70.15   13.13
   2 -10   3   76.13   13.76
   2  10   4   95.59   15.60
  -2  10   4   65.68   15.27
  -2 -10   4   55.89   12.60
   2 -10   4   73.78   12.97
  -2 -10   4   64.50   13.61
   2 -10   4   62.71   14.21
  -2  10   5  -10.31    8.06
   2  10   5    0.46    5.59
  -2 -10   5    7.36    7.33
   2 -10   5    2.22    6.23
  -2 -10   5    8.33    6.83
   2 -10   5    3.04    6.37
  -2  10   6   15.53   10.09
   2  10   6   15.99    7.98
  -2 -10   6   35.03   10.89
   2 -10   6   24.37    9.61
  -2 -10   6   14.88    7.76
   2 -10   6   33.30   11.02
  -2 -10   7   44.92   12.06
  -2 -11  -6   48.30   12.76
   2 -11  -6   62.91   14.91
   2  11  -6   73.84   13.85
  -2  11  -6   63.19   16.83
   2  11  -6   88.06   18.14
   2  11  -5   42.28    9.66
   2 -11  -5   67.32   14.36
  -2 -11  -5   78.75   14.70
   2  11  -5   67.30   15.28
  -2  11  -5   53.85   13.92
  -2 -11  -4    6.92    6.01
   2 -11  -4    4.03    6.68
   2  11  -4   -0.59    3.41
  -2 -11  -4   13.70    6.61
  -2  11  -4   -3.64    6.13
   2  11  -4   -8.81    6.77
   2  11  -3  123.09   14.64
  -2  11  -3  110.60    8.96
   2  11  -3   95.10   11.08
  -2 -11  -3  100.59   13.64
   2 -11  -3  106.42   15.46
  -2 -11  -3   96.77   12.10
  -2  11  -3   93.64   15.20
   2 -11  -3  111.82    9.24
   2  11  -3  130.82   16.06
  -2  11  -2   48.81    7.38
   2  11  -2   48.27   10.57
   2  11  -2   55.85    7.71
  -2 -11  -2   48.76    9.49
   2 -11  -2   56.34   11.33
  -2 -11  -2   58.91    9.26
  -2 -11  -2   59.67    9.17
  -2  11  -2   47.62   10.86
   2 -11  -2   54.54    8.23
   2  11  -2   50.07    9.86
   2  11  -1   26.68    9.05
   2  11  -1   32.78    5.29
  -2  11  -1   15.98    6.31
   2  11  -1   27.86    6.45
  -2 -11  -1   29.03    7.66
   2 -11  -1   34.61    8.03
   2  11   0  102.01   14.22
  -2  11   0   91.56   12.53
   2 -11   0   80.83    9.67
   2  11   0   79.55    8.37
   2 -11   0   79.04   12.45
  -2 -11   0   89.42   12.60
   2  11   1   28.83    9.96
  -2  11   1   24.65    8.51
  -2 -11   1   24.03    9.07
   2 -11   1   16.61    6.66
  -2 -11   1   38.61    9.41
   2  11   1   29.61    5.17
   2 -11   1   34.65    9.78
   2  11   2   55.83   12.37
  -2  11   2   48.56   11.77
  -2 -11   2   36.44   10.58
   2 -11   2   51.42   10.98
  -2 -11   2   50.50   10.80
   2 -11   2   51.21   12.03
   2  11   3   92.74   15.17
  -2  11   3  112.56   18.52
  -2 -11   3   95.49   15.08
   2 -11   3  101.11   14.62
  -2 -11   3   83.23   14.55
   2 -11   3  101.33   17.29
  -2  11   4   13.32    9.71
   2  11   4    8.19    7.07
  -2 -11   4    9.02    8.25
   2 -11   4    2.25    6.42
  -2 -11   4    0.97    5.28
   2 -11   4   15.13    8.83
  -2  11   5   68.04   16.84
   2  11   5   51.97   11.55
  -2 -11   5   48.10   12.14
   2 -11   5   43.90   12.93
  -2 -11   5   66.58   13.80
   2 -11   5   66.24   15.36
   2  11   6   69.21   13.44
  -2  11   6   85.82   17.97
  -2 -11   6   45.80   12.85
   2 -11   6   65.05   13.39
  -2 -11   6   54.60   14.44
   2 -11   6   89.57   17.94
  -2 -12  -6   28.29   10.02
   2  12  -6   35.09   11.71
   2 -12  -5   15.52    9.89
  -2 -12  -5    5.21    6.66
   2  12  -5   -4.28    6.64
  -2  12  -5    1.40    5.10
  -2 -12  -4   86.37   14.48
   2  12  -4   97.62   12.17
   2 -12  -4  117.87   17.92
  -2 -12  -4  103.77   13.59
  -2  12  -4   92.03   16.50
   2  12  -4  107.62   16.75
   2  12  -3   19.61    8.35
  -2 -12  -3   13.86    7.79
   2 -12  -3    3.24    7.42
   2  12  -3    2.15    3.41
  -2 -12  -3    3.19    4.06
  -2  12  -3   13.00    7.87
   2  12  -3    8.63    6.34
   2  12  -2   70.35   12.54
  -2  12  -2   85.66    9.95
   2 -12  -2   90.07   13.97
   2  12  -2   76.00    8.77
  -2 -12  -2   74.11   12.22
  -2 -12  -2   75.00   10.81
  -2  12  -2   97.98   14.79
   2 -12  -2   83.16   10.86
   2  12  -2  100.69   13.33
  -2 -12  -2   79.82   10.92
  -2  12  -1    1.11    4.42
   2  12  -1   -0.70    2.33
   2  12  -1   -8.18    7.30
   2 -12  -1   -2.67    4.25
  -2 -12  -1   -5.64    4.80
   2  12  -1    3.01    4.06
   2  12   0    5.75    6.74
  -2  12   0    3.43    5.21
   2  12   0    5.84    4.06
   2 -12   0    0.83    4.58
  -2 -12   0   13.02    6.60
   2  12   1  -12.89    7.57
  -2  12   1   -4.19    7.53
  -2 -12   1    2.56    5.83
   2 -12   1   -3.39    5.12
   2  12   1    3.93    2.97
   2  12   2   74.02   13.62
  -2  12   2   57.41   13.35
  -2 -12   2   77.33   13.89
   2 -12   2   79.95   13.53
  -2 -12   2   77.18   13.71
   2 -12   2   62.74   13.37
   2  12   3   -2.35    6.55
  -2  12   3   11.53    8.23
  -2 -12   3   19.56    8.94
   2 -12   3    0.67    6.00
  -2 -12   3    4.11    6.54
   2 -12   3    2.98    6.24
   2  12   4   97.56   15.94
  -2  12   4  110.18   19.48
  -2 -12   4  109.26   17.24
   2 -12   4  120.97   17.22
  -2 -12   4   96.22   16.65
   2 -12   4  104.29   18.14
   2  12   5    2.73    5.31
  -2  12   5   11.43    9.55
  -2 -12   5   -4.09    7.05
   2 -12   5   19.99    8.46
  -2 -12   5    6.26    7.24
   2 -12   5   22.13   10.19
   2  12   6   11.34    8.49
  -2 -12   6   37.79   11.46
   2 -12   6   41.06   10.88
   2 -13  -5    9.24    9.69
  -2 -13  -5   18.81    9.11
   2  13  -5   15.82    8.49
  -2  13  -5   27.15   11.79
   2 -13  -4   -2.58    8.10
  -2 -13  -4   -7.67    6.98
  -2  13  -4    0.68    5.87
   2  13  -4   -1.25    6.46
   2  13  -3  139.95   17.45
   2 -13  -3  131.86   18.21
  -2 -13  -3  138.76   16.90
  -2 -13  -3  119.62   14.03
   2  13  -3  149.27   17.92
  -2  13  -3  142.99   19.83
   2  13  -2   32.24   10.21
  -2  13  -2   35.95    7.15
   2 -13  -2   29.78   10.94
  -2 -13  -2   28.60    8.63
  -2 -13  -2   41.85    9.12
  -2  13  -2   41.82   11.26
   2 -13  -2   23.12    7.29
   2  13  -2   47.08    9.98
  -2 -13  -2   29.73    7.59
   2  13  -1   -1.74    7.38
  -2  13  -1   -3.36    6.08
  -2  13  -1   10.39    7.53
   2 -13  -1    4.44    4.81
  -2 -13  -1   -2.96    4.68
   2  13  -1    0.09    3.80
   2  13   0   98.49   15.61
  -2  13   0  101.01   14.25
   2  13   0   65.48    8.56
  -2 -13   0   84.08   14.51
   2 -13   0   91.00   14.18
   2  13   1   -4.44    6.99
  -2  13   1    3.59    6.87
  -2 -13   1    5.74    5.75
   2 -13   1   -6.75    7.43
  -2 -13   2   28.16   10.41
   2  13   2   28.10   10.25
  -2  13   2   31.04   10.95
  -2 -13   2   38.76   11.03
   2 -13   2   32.52   10.44
   2  13   3  142.70   19.75
  -2  13   3  162.35   22.13
  -2 -13   3  149.61   19.67
   2 -13   3  143.73   18.57
  -2 -13   3  129.61   18.50
   2 -13   3  111.93   19.12
   2  13   4   -6.90    7.13
  -2  13   4    3.49   10.23
  -2 -13   4    9.90    8.27
   2 -13   4    8.76    8.13
  -2 -13   4   21.91    9.20
   2 -13   4    1.80    5.92
  -2  13   5   25.87   11.99
   2  13   5   -1.25    7.00
  -2 -13   5   15.00    8.84
   2 -13   5   29.01    9.95
  -2 -13   5    9.28    8.33
   2 -13   5   15.25    9.74
   2  13   6   28.63   10.18
   2 -13   6   28.76   10.73
  -2 -14  -5   16.91    8.73
   2  14  -5    7.73    7.61
  -2 -14  -4   65.58   14.00
   2 -14  -4  102.03   18.24
  -2  14  -4   71.25   16.06
   2  14  -4   92.93   16.75
   2 -14  -3   51.25   13.04
  -2 -14  -3   41.32   10.81
  -2  14  -3   47.99   12.32
   2  14  -3   48.33   11.93
   2  14  -2   56.12   12.84
  -2  14  -2   51.31    8.74
   2 -14  -2   59.06   12.70
  -2 -14  -2   61.46   11.78
  -2 -14  -2   71.67   11.06
  -2  14  -2   70.98   13.70
  -2 -14  -2   76.76   11.32
   2 -14  -2   51.64    9.40
   2  14  -2   45.86   10.14
   2  14  -1  115.35   17.36
  -2  14  -1  118.74   14.64
  -2  14  -1  115.61   15.98
   2 -14  -1  124.71   15.59
  -2 -14  -1  113.10   14.97
   2  14  -1  111.15   12.54
   2  14   0   21.45    9.32
  -2  14   0   24.32    8.38
   2 -14   0   31.12    9.45
  -2 -14   0   27.84    9.17
   2  14   1  100.95   17.19
  -2  14   1  109.10   16.77
  -2 -14   1  122.44   17.39
   2 -14   1  136.33   18.52
   2  14   2   58.17   14.61
  -2  14   2   69.68   14.98
  -2 -14   2   53.08   12.13
   2 -14   2   56.75   14.36
  -2 -14   3   42.75   12.19
   2  14   3   30.62   10.50
  -2  14   3   53.87   14.64
  -2 -14   3   47.34   12.28
   2 -14   3   28.03   11.48
   2  14   4  101.44   17.36
  -2  14   4  119.40   20.99
  -2 -14   4   62.76   15.48
   2 -14   4   93.57   16.96
  -2 -14   4   87.78   18.45
   2 -14   4  104.87   20.24
   2  14   5   27.22    9.67
   2 -14   5   11.16    7.68
   2  15  -5   29.42    9.60
  -2 -15  -4   20.78    9.63
  -2  15  -4   16.89    9.78
   2 -15  -3   49.24   13.05
  -2 -15  -3   31.32    9.95
  -2  15  -3   45.85   13.68
   2  15  -3   46.78   11.39
   2  15  -2   14.01    9.08
   2 -15  -2   10.11    6.27
  -2 -15  -2    3.92    6.19
  -2 -15  -2   10.63    6.13
  -2  15  -2   19.69    7.43
  -2 -15  -2   -1.27    4.52
   2  15  -1   41.79   11.88
  -2  15  -1   33.93    9.04
  -2  15  -1   34.89    9.81
  -2 -15  -1   47.66   10.72
   2 -15  -1   57.26   11.71
   2  15   0    8.63    8.79
  -2  15   0    7.54    6.96
   2 -15   0   23.71    8.56
  -2 -15   0   10.10    6.99
   2  15   1   62.15   13.75
  -2  15   1   39.09   11.58
  -2 -15   1   48.81   11.94
   2 -15   1   42.20   11.68
   2  15   2    8.07    8.66
  -2  15   2   16.84    9.99
  -2 -15   2   -2.61    6.36
   2 -15   2   18.05    9.62
   2  15   3   49.13   13.81
  -2  15   3   37.56   13.33
  -2 -15   3   33.71   11.51
   2 -15   3   30.83   13.77
  -2 -15   4    5.29    8.76
   2  15   4    6.08    8.05
  -2 -16  -4   27.82   10.38
   2 -16  -3    6.16    8.98
  -2 -16  -3   -3.64    6.41
  -2 -16  -2   63.04   12.93
   2 -16  -2   43.94   11.97
   2  16  -2   68.66   14.99
  -2  16  -2   47.92   12.94
  -2 -16  -2   48.78    9.92
  -2  16  -1   38.29    9.32
   2  16  -1   38.76   12.41
  -2  16  -1   37.66   10.31
   2 -16  -1   45.43   10.60
  -2 -16  -1   42.07   10.25
   2  16   0    8.50    7.57
  -2  16   0    9.02    6.97
   2 -16   0    4.30    6.02
  -2 -16   0    6.65    6.42
  -2  16   1   26.40   11.09
   2  16   1   36.63   12.52
  -2 -16   1   42.66   12.90
   2 -16   1   42.71   12.18
   2  16   2   36.44   13.39
  -2  16   2   38.60   12.99
  -2 -16   2   44.73   13.01
   2 -16   2   53.91   14.20
  -2  16   3   20.19   11.55
   2  16   3    7.14    8.59
  -2 -16   3    4.84    7.16
   2 -16   3    2.88    7.51
  -2 -17  -3   37.01   11.53
  -2  17  -3   31.66   13.40
  -2 -17  -2   17.96    8.19
   2  17  -2   21.86   10.57
  -2  17  -2   30.41   11.27
  -2 -17  -1    4.40    5.39
   2  17  -1    1.13    6.89
  -2  17  -1    4.92    7.05
   2 -17  -1  -11.79    6.32
  -2 -17  -1    9.52    6.46
  -2  17   0    1.17    6.23
   2  17   0   15.98    9.08
   2 -17   0   17.04    7.19
  -2 -17   0   -1.30    4.52
  -2  17   1  -13.24    8.39
   2  17   1   14.01    9.51
   2 -17   1   -4.77    5.98
  -2 -17   1    5.48    7.42
  -2  17   2   13.17    9.89
  -2 -17   2   15.42    9.27
   2 -17   2   15.11    8.67
  -2 -18  -2    4.10    6.82
  -2  18  -2    1.27    6.16
  -2 -18  -1   15.07    8.06
  -2  18  -1   12.71    7.85
  -2 -18  -1    8.61    7.97
  -2  18   0   -5.33    7.47
   2  18   0   -0.09    6.10
  -2  18   0    4.71    6.05
   2 -18   0   -6.29    6.38
  -2 -18   0   -0.55    5.66
  -2  18   1    5.52    8.59
   2 -18   1   25.46   10.68
  -2 -18   1    9.96    7.81
  -2  19   0   19.27    7.06
   2 -19   0   30.54   10.29
   2  19   1   65.11   15.44
  -3   0  -8   -7.82    9.17
   3   0  -7  -12.02    8.87
  -3   0  -7   -1.32    9.40
  -3   0  -7   -2.32    6.54
   3   0  -6   -4.43    8.91
  -3   0  -6   -3.03    7.25
  -3   0  -6  -18.50    8.93
   3   0  -5   -3.90    5.58
   3   0  -5    2.21    6.12
  -3   0  -5   -3.74    7.25
  -3   0  -5  -11.16    6.71
   3   0  -4    1.65    4.63
   3   0  -4   -1.44    6.37
  -3   0  -4    3.85    5.52
   3   0  -4   -3.26    3.95
  -3   0  -4   -1.99    4.94
   3   0  -3    5.50    3.47
   3   0  -3   -2.99    4.76
   3   0  -3   -2.41    4.14
  -3   0  -3   -1.41    4.91
   3   0  -3   -0.45    3.17
  -3   0  -3    1.09    4.20
   3   0  -2    1.46    2.96
   3   0  -2    0.66    4.09
   3   0  -2   -3.30    2.99
   3   0  -2   -0.42    1.30
  -3   0  -2   -0.38    4.31
  -3   0  -2    1.13    3.33
   3   0  -2   -0.26    2.90
   3   0  -1   -0.89    2.54
  -3   0  -1   -1.99    2.05
   3   0  -1    1.10    1.71
   3   0  -1   -1.91    2.81
  -3   0  -1   -2.98    3.83
   3   0  -1    1.36    3.20
   3   0   0   -0.65    3.03
  -3   0   0    0.88    2.99
  -3   0   1   -0.41    3.29
   3   0   1    0.59    2.67
   3   0   1    0.76    3.33
   3   0   1   -5.50    4.83
  -3   0   2   -0.45    3.45
   3   0   2   -0.42    2.16
  -3   0   2    0.70    1.90
   3   0   2   -7.49    5.19
  -3   0   3    0.10    3.29
  -3   0   3    1.51    2.77
   3   0   3   -0.84    2.58
   3   0   3    1.82    3.18
  -3   0   4    0.52    2.80
   3   0   4  -12.83    6.59
  -3   0   5   -2.64    3.78
  -3   0   5   -3.45    6.91
   3   0   5   -3.53    6.33
  -3   0   5    5.32    3.81
  -3   0   6    6.01    4.35
   3   0   6   -2.23    6.42
  -3   0   6    0.06    7.78
   3   0   6   -2.01    5.89
  -3   0   7  -15.84    9.70
   3   0   7    5.71    6.06
  -3   0   8   -1.42    5.92
   3   0   8   -3.35    6.06
   3   1  -7    7.78    9.34
   3  -1  -7   16.10    9.92
  -3  -1  -7   21.60    9.70
  -3  -1  -7   23.27   10.34
  -3   1  -7   21.03    9.98
   3  -1  -6   39.59   10.98
   3   1  -6   52.68   12.87
   3  -1  -6   52.12   12.48
  -3   1  -6   60.30   13.54
  -3  -1  -6   49.91   12.35
  -3   1  -6   41.99   12.17
  -3  -1  -6   56.43   12.44
   3  -1  -5   19.23    7.55
   3   1  -5   11.89    7.86
   3  -1  -5   19.85    8.49
  -3   1  -5   19.11    8.66
  -3  -1  -5   19.81    8.05
  -3  -1  -5    9.40    6.66
  -3   1  -5   27.93    9.16
   3  -1  -4   59.26    9.89
   3   1  -4   61.79   11.13
   3  -1  -4   66.19   11.65
  -3   1  -4   44.28   10.16
  -3  -1  -4   36.48    9.22
  -3   1  -4   39.72    8.57
   3  -1  -4   41.27    6.30
   3   1  -4   44.61    7.45
  -3  -1  -4   39.03    8.23
   3   1  -3  479.94   24.12
   3  -1  -3  473.24   23.80
   3   1  -3  486.31   21.35
   3   1  -3  492.93   22.07
   3  -1  -3  499.73   22.79
  -3   1  -3  456.93   25.40
  -3  -1  -3  481.24   25.26
  -3  -1  -3  516.56   23.16
   3  -1  -3  448.17   11.89
   3  -1  -3  484.71   18.75
   3   1  -3  508.51   21.69
  -3   1  -3  513.45   24.37
   3  -1  -2  452.42   20.54
   3  -1  -2  396.58   19.70
   3   1  -2  439.83   20.42
   3   1  -2  409.95   18.35
   3  -1  -2  420.98   17.10
   3   1  -2  429.57   16.67
  -3   1  -2  418.54   21.42
   3  -1  -2  416.62   10.62
   3   1  -2  414.24    7.61
  -3  -1  -2  436.21   21.37
   3  -1  -2  428.06   17.26
   3   1  -2  445.14   19.21
   3   1  -2  396.54   14.24
  -3  -1  -2  413.60   16.80
  -3   1  -2  421.41   18.85
   3  -1  -1  850.57   26.30
   3   1  -1  887.13   25.69
  -3  -1  -1  816.32   17.10
   3  -1  -1  857.14   18.53
   3   1  -1  825.98   15.65
  -3  -1  -1  858.70   26.39
   3   1  -1  834.04   18.71
   3  -1  -1  895.05   19.60
  -3   1  -1  829.75   26.06
   3   1  -1  880.30   25.78
   3  -1   0 2729.86   45.59
   3   1   0 2774.18   45.12
  -3   1   0 2788.87   44.81
   3  -1   0 2791.27   41.29
  -3   1   0 2747.33   40.76
  -3   1   0 2848.70   42.67
  -3  -1   0 2806.75   41.87
  -3   1   1  851.29   25.94
   3  -1   1  871.02   25.69
  -3  -1   1  853.38   24.56
   3  -1   1  836.29   26.56
   3  -1   1  849.33   25.25
  -3   1   1  818.63   19.79
  -3  -1   1  835.27   14.09
   3   1   1  810.98   16.20
  -3  -1   1  871.75   27.98
  -3   1   2  429.62   19.64
  -3  -1   2  423.51   18.20
   3  -1   2  410.97   18.19
  -3  -1   2  428.81   15.68
   3   1   2  460.10   17.20
  -3   1   2  406.18   15.65
  -3  -1   2  461.36   21.61
  -3   1   2  386.13   10.98
   3  -1   2  432.14   21.35
  -3   1   3  477.60   22.82
  -3  -1   3  469.88   20.28
  -3   1   3  472.13   20.90
  -3  -1   3  493.19   21.25
   3   1   3  466.83   21.32
  -3  -1   3  493.87   26.88
   3   1   3  461.30   24.14
   3  -1   3  467.80   24.44
  -3  -1   3  467.61   20.56
   3   1   3  487.52   21.01
  -3   1   4   46.94    8.38
  -3  -1   4   48.81    7.59
  -3  -1   4   40.55   10.02
   3  -1   4   31.13    8.09
   3   1   4   55.22   10.27
  -3  -1   4   48.66    7.92
  -3   1   5   11.82    5.27
  -3  -1   5   10.00    4.59
  -3  -1   5    3.93    7.58
   3  -1   5   10.24    6.42
   3   1   5   13.55    6.19
   3   1   5    9.04    6.04
  -3  -1   5   14.14    5.51
  -3   1   6   30.28    7.57
  -3  -1   6   51.08    8.53
   3   1   6   49.29   11.01
  -3   1   6   27.88    9.65
  -3  -1   6   45.49   11.69
   3  -1   6   58.44   11.72
   3   1   6   49.93   11.66
  -3  -1   6   55.59    8.54
  -3   1   7   12.49    7.90
  -3  -1   7    5.39    8.21
   3   1   7   10.58    6.66
  -3   1   8   -7.14    6.99
   3  -1   8   -6.42    7.18
   3   1   8    0.40    4.22
   3   2  -7   23.00   10.22
   3  -2  -7   16.97    9.68
  -3  -2  -7   22.20   10.79
  -3   2  -7   12.52    9.34
  -3  -2  -7   26.06   10.26
   3  -2  -6   17.56    9.23
   3   2  -6    9.25    7.75
   3  -2  -6    3.55    7.01
  -3   2  -6   14.65    8.88
  -3  -2  -6   12.51    8.20
  -3   2  -6   17.36    8.41
  -3  -2  -6   22.49    9.91
   3  -2  -5   31.60    9.12
   3   2  -5   26.08    9.97
   3  -2  -5   39.40   10.47
  -3   2  -5   38.38   10.73
  -3  -2  -5   26.98    9.30
  -3   2  -5   33.28   10.39
  -3  -2  -5   46.09   10.59
   3   2  -4   30.64    6.36
   3   2  -4   33.77    9.06
   3  -2  -4   22.13    7.15
   3  -2  -4   30.17    8.54
  -3   2  -4   27.52    8.51
  -3  -2  -4   33.06    8.32
   3  -2  -4   35.44    5.59
  -3  -2  -4   29.84    7.65
  -3   2  -4   30.30    8.85
   3   2  -3  386.18   21.69
   3   2  -3  367.52   17.97
   3  -2  -3  393.02   21.91
   3  -2  -3  355.25   19.52
  -3   2  -3  371.33   23.15
  -3  -2  -3  373.90   22.43
  -3  -2  -3  379.49   19.55
  -3   2  -3  365.44   21.13
   3  -2  -3  380.98   12.77
   3  -2  -3  360.05   15.43
   3   2  -2  394.31   20.10
   3  -2  -2  424.22   19.92
   3  -2  -2  412.62   20.69
   3   2  -2  403.49   17.82
  -3   2  -2  380.44    9.58
   3  -2  -2  402.30   17.35
  -3  -2  -2  396.19   15.78
  -3   2  -2  391.57   21.01
   3  -2  -2  393.46   12.33
  -3  -2  -2  386.89   20.13
   3   2  -2  358.06    8.64
   3   2  -2  370.92   14.33
   3  -2  -2  366.79   15.55
   3   2  -2  445.89   19.99
  -3   2  -2  392.13   19.26
   3  -2  -1 1059.23   30.43
   3   2  -1 1057.00   27.77
  -3  -2  -1 1036.09   20.38
   3  -2  -1 1055.08   22.18
  -3   2  -1 1034.94   29.12
  -3  -2  -1 1035.95   29.11
  -3   2  -1 1049.99   30.10
   3  -2  -1 1139.56   23.54
   3   2  -1 1140.96   30.46
   3   2  -1 1007.62   26.98
  -3  -2  -1 1028.38   18.71
   3  -2   0  125.48   10.72
  -3   2   0  157.51   11.56
   3   2   0  141.56   10.72
  -3  -2   0  128.79    9.86
  -3   2   0  151.71   10.01
   3  -2   0  132.39   10.02
  -3   2   0  143.21   10.66
   3   2   0  141.21   11.16
   3   2   0  151.69   12.18
  -3   2   1 1101.31   30.53
   3  -2   1 1065.27   28.23
   3   2   1 1021.90   16.72
  -3  -2   1  996.67   15.90
  -3  -2   1 1059.18   31.06
   3  -2   1 1080.79   28.89
   3  -2   1 1051.61   29.94
  -3   2   1 1053.41   23.86
  -3   2   2  389.77   20.05
   3  -2   2  402.17   17.75
  -3  -2   2  383.51   17.04
   3   2   2  397.79   15.71
  -3  -2   2  397.64   15.41
  -3  -2   2  393.54   21.89
   3  -2   2  371.27   20.22
  -3   2   2  388.10   12.70
  -3  -2   2  420.92   20.60
  -3  -2   2  379.27   18.40
  -3   2   3  350.99   20.29
  -3  -2   3  347.16   16.76
   3  -2   3  372.53   17.77
  -3  -2   3  380.07   23.83
  -3  -2   3  360.31   18.72
   3   2   3  384.56   19.55
  -3   2   3  363.08   10.83
   3  -2   3  392.83   22.17
  -3  -2   3  354.46   18.96
   3   2   3  343.88   21.89
   3   2   3  378.73   18.00
  -3   2   4   32.04    7.68
  -3  -2   4   26.84    5.70
   3   2   4   31.72    8.02
  -3  -2   4   33.17    9.52
   3  -2   4   34.37    8.31
  -3   2   4   23.73    2.90
  -3  -2   4   36.82    7.43
  -3   2   5   44.71    9.49
  -3  -2   5   44.20    7.25
   3   2   5   43.37    9.39
  -3  -2   5   33.35    9.62
   3  -2   5   36.67    9.36
   3   2   5   39.81   10.03
  -3  -2   5   50.47    8.43
  -3   2   6   20.44    7.46
   3   2   6    5.02    6.01
  -3  -2   6    4.87    7.17
   3  -2   6   12.70    7.16
   3   2   6    5.43    7.67
  -3  -2   6   13.24    5.80
  -3  -2   7   25.84   10.17
   3  -2   7   23.28    8.08
   3   2   7   16.27    7.99
  -3   2   8   10.24    8.52
  -3  -2   8   -0.10    4.78
   3   2   8   -3.66    4.51
   3   3  -7    4.17    8.28
   3  -3  -7   -3.37    8.05
   3  -3  -7    5.93    7.18
  -3  -3  -7   -5.99    7.63
  -3   3  -7   -0.28    3.97
   3  -3  -6  109.65   16.62
   3   3  -6   75.52   15.03
   3  -3  -6   92.46   16.14
  -3  -3  -6   96.06   16.13
  -3   3  -6   99.56   17.43
  -3   3  -6  101.75   16.89
  -3  -3  -6   87.39   14.16
   3  -3  -5   41.15   10.36
   3   3  -5   48.35   11.46
   3  -3  -5   47.03   11.03
  -3   3  -5   56.27   12.76
  -3  -3  -5   40.53   10.61
  -3  -3  -5   37.41    9.51
  -3   3  -5   35.65   10.87
   3   3  -4   57.55    7.71
   3  -3  -4   50.23    9.47
   3  -3  -4   58.01   11.39
   3   3  -4   70.61   11.79
  -3  -3  -4   59.16   10.28
  -3   3  -4   52.45   11.72
  -3  -3  -4   60.07   11.14
   3  -3  -4   56.64    6.10
  -3  -3  -4   72.30   10.46
   3  -3  -4   66.00    5.32
  -3   3  -4   55.29   11.02
   3  -3  -3   36.16    4.81
   3   3  -3   47.40    8.89
   3   3  -3   43.98    6.43
   3   3  -3   42.09    4.65
  -3   3  -3   35.58    3.86
  -3  -3  -3   35.81    7.06
   3  -3  -3   34.54    7.15
   3  -3  -3   48.06    9.24
  -3  -3  -3   49.39    9.09
  -3   3  -3   32.28    9.00
  -3   3  -3   49.53    8.92
  -3  -3  -3   45.97    7.17
   3  -3  -3   35.10    5.07
   3   3  -2    4.61    2.93
   3   3  -2    6.93    4.66
   3  -3  -2    6.01    4.49
   3   3  -2    3.53    3.02
   3  -3  -2    5.48    3.57
  -3  -3  -2    5.51    3.52
  -3   3  -2    9.81    2.60
  -3  -3  -2    6.00    4.44
  -3   3  -2    4.11    4.62
   3   3  -2    6.17    3.93
  -3   3  -2    4.84    4.41
  -3  -3  -2    1.85    2.60
   3  -3  -1  538.48   22.60
   3   3  -1  551.26   20.27
  -3   3  -1  535.09   20.21
   3  -3  -1  554.10   17.68
  -3  -3  -1  554.34   16.40
  -3  -3  -1  484.50   12.87
   3  -3  -1  553.14   17.89
  -3   3  -1  543.83   21.87
  -3  -3  -1  562.43   21.80
  -3   3  -1  600.41   23.28
  -3  -3  -1  527.68   11.36
   3   3  -1  606.64   23.85
   3   3  -1  555.05   20.84
   3  -3   0  488.39   20.23
  -3   3   0  471.84   19.57
  -3  -3   0  501.37   19.00
   3   3   0  462.32   18.71
   3  -3   0  488.61   16.16
   3  -3   0  492.00   18.80
  -3   3   0  487.11   17.44
  -3   3   0  502.00   19.42
   3   3   0  502.53   20.80
   3   3   0  464.24   21.72
  -3   3   1  551.65   22.62
   3  -3   1  557.22   21.18
  -3  -3   1  578.09   23.40
  -3  -3   1  515.37   12.86
   3   3   1  539.08   17.37
  -3  -3   1  606.70   19.72
  -3   3   1  572.94   18.97
   3  -3   1  558.28   21.22
  -3   3   1  583.04   15.90
   3  -3   1  544.37   22.39
   3   3   1  570.87   22.57
  -3  -3   1  558.01   22.80
   3   3   1  510.12   24.49
  -3   3   2    6.63    4.80
   3  -3   2    3.28    2.46
   3   3   2    2.54    4.83
  -3  -3   2    1.10    5.73
  -3  -3   2    7.33    3.05
   3   3   2    5.68    2.12
   3   3   2    2.40    2.75
  -3   3   2    3.83    2.00
   3  -3   2    4.48    5.23
  -3  -3   2    0.78    3.62
  -3  -3   2    5.36    4.47
  -3  -3   3   41.77    6.06
  -3   3   3   39.33    8.15
   3   3   3   39.64    8.69
   3  -3   3   44.22    6.24
  -3  -3   3   29.17    6.23
   3   3   3   43.10    3.78
   3   3   3   27.18    5.86
  -3  -3   3   28.48    8.08
  -3   3   3   40.41    4.60
   3  -3   3   38.42    8.27
   3   3   3   40.93    6.32
  -3  -3   3   41.51    7.29
  -3   3   4   73.04   11.18
  -3  -3   4   57.93    7.47
   3   3   4   60.68   10.63
   3  -3   4   64.20    7.90
   3   3   4   54.04    4.28
  -3  -3   4   72.45   12.84
  -3   3   4   56.46    5.32
   3  -3   4   58.11   10.03
  -3   3   4   61.75    8.44
  -3  -3   4   62.42    9.43
  -3   3   5   43.44    9.46
   3   3   5   36.19    9.17
  -3  -3   5   43.59    6.58
  -3  -3   5   43.26   11.11
   3  -3   5   45.42    9.40
  -3  -3   5   49.20    9.28
  -3   3   6   70.79   13.14
   3   3   6   77.08   12.84
  -3  -3   6   82.06   14.76
   3  -3   6   95.01   14.63
   3   3   6   84.68   14.09
   3  -3   6   92.18   13.65
  -3  -3   6  100.02   12.86
  -3   3   7    4.43    5.33
  -3  -3   7    7.36    8.15
   3  -3   7   13.10    7.18
   3   3   7   -5.04    6.81
   3  -3   7   -5.96    4.72
   3   3   8   -0.38    2.65
  -3  -4  -8  -13.84    9.96
   3  -4  -7   10.55    8.19
   3  -4  -7   37.29   12.06
   3   4  -7   23.59   10.17
  -3  -4  -7    9.37    7.86
  -3   4  -7   29.65   12.30
   3  -4  -6   13.11    8.38
   3   4  -6   24.18   10.08
   3  -4  -6   21.83    9.61
  -3  -4  -6   -5.71    6.78
  -3   4  -6    7.37    8.55
   3  -4  -5    4.44    7.05
   3  -4  -5    2.61    5.36
  -3  -4  -5    0.81    6.25
   3   4  -5   -3.08    5.86
  -3  -4  -5    5.37    6.56
  -3   4  -5   -2.18    6.35
  -3   4  -5    4.75    7.30
   3  -4  -4   20.60    4.29
   3   4  -4   11.83    3.90
   3  -4  -4   21.06    8.27
   3   4  -4   15.85    6.89
   3  -4  -4   21.60    7.48
  -3  -4  -4   18.59    6.94
  -3   4  -4   16.79    8.01
  -3  -4  -4   24.67    8.12
  -3   4  -4   18.93    8.06
  -3  -4  -4   21.87    5.94
   3   4  -3  360.25   21.35
   3   4  -3  386.24   17.44
   3  -4  -3  396.95   22.24
  -3   4  -3  354.04   13.74
   3  -4  -3  394.38   21.32
  -3  -4  -3  360.84   19.82
  -3  -4  -3  363.06   22.13
  -3   4  -3  392.96   25.20
  -3  -4  -3  371.62   17.58
   3  -4  -3  351.22   13.98
  -3   4  -3  364.69   22.85
   3   4  -3  417.59   15.04
   3  -4  -3  378.44   16.29
   3  -4  -2   30.33    6.37
   3  -4  -2   28.27    5.37
   3   4  -2   30.68    5.42
   3   4  -2   32.60    6.96
   3   4  -2   33.62    5.91
  -3   4  -2   29.56    4.40
  -3  -4  -2   33.29    5.76
   3  -4  -2   30.06    6.11
  -3  -4  -2   21.33    6.36
  -3   4  -2   38.04    8.14
  -3   4  -2   25.97    6.73
  -3  -4  -2   23.44    3.69
  -3   4  -1  647.21   22.32
   3   4  -1  599.86   21.40
  -3  -4  -1  628.39   19.20
  -3  -4  -1  625.50   15.84
   3   4  -1  599.03   25.20
  -3   4  -1  652.19   24.45
   3  -4  -1  609.18   20.42
  -3   4  -1  657.65   25.27
  -3  -4  -1  650.46   24.29
   3   4  -1  600.53   22.70
   3  -4   0    0.30    2.42
  -3   4   0   -0.60    3.28
   3   4   0    2.65    4.58
   3   4   0    3.34    2.80
  -3  -4   0    5.34    4.36
   3  -4   0   -0.69    3.42
  -3   4   0   -0.21    2.63
   3  -4   0    1.11    2.51
  -3   4   0    2.14    2.90
   3   4   0   -3.14    3.03
   3  -4   1  631.63   22.82
  -3   4   1  597.03   25.37
   3   4   1  633.70   20.73
  -3  -4   1  632.12   25.14
   3  -4   1  629.76   23.07
  -3   4   1  622.62   21.22
   3  -4   1  605.34   23.65
  -3   4   1  613.21   16.06
  -3  -4   1  624.18   19.57
  -3  -4   1  632.28   24.85
   3   4   1  619.20   24.03
   3   4   1  622.55   26.82
  -3   4   2   29.93    7.31
   3  -4   2   29.71    5.38
   3   4   2   18.17    6.69
  -3  -4   2   25.47    4.92
  -3  -4   2   33.05    7.92
   3   4   2   30.64    4.47
   3   4   2   27.10    4.58
  -3   4   2   27.47    4.81
   3  -4   2   25.11    7.17
   3   4   2   32.05    6.35
  -3  -4   2   35.27    7.24
  -3  -4   2   34.87    6.64
  -3   4   3  370.34   22.66
   3  -4   3  371.62   17.24
  -3  -4   3  377.21   24.16
   3   4   3  375.97   13.39
  -3  -4   3  398.88   20.31
  -3   4   3  362.56   14.80
   3  -4   3  391.47   22.90
  -3  -4   3  382.61   21.83
   3   4   3  349.86   23.46
   3   4   3  364.77   16.49
  -3   4   4   19.99    7.29
   3  -4   4   22.79    4.69
   3   4   4   12.46    6.42
  -3  -4   4   27.61    9.11
   3   4   4   12.53    2.90
   3  -4   4   22.64    7.75
  -3   4   4   25.79    5.22
  -3   4   4   19.31    4.07
  -3  -4   4   11.76    5.22
  -3   4   5    0.73    4.46
   3   4   5    2.10    5.52
  -3  -4   5    2.06    6.68
   3  -4   5   -5.20    5.60
  -3  -4   5    4.40    5.71
  -3   4   6   10.89    5.94
   3   4   6   20.49    8.15
  -3  -4   6   14.34    8.04
   3  -4   6   13.38    7.97
   3  -4   6   15.69    7.66
  -3  -4   6   19.17    6.69
  -3   4   7    7.84    5.46
  -3  -4   7   19.98    9.22
   3  -4   7   -0.98    4.22
   3   4   7   14.54    8.29
   3  -4   7   11.78    6.41
   3   4   8   13.07    7.60
  -3  -5  -8    7.98    8.33
   3  -5  -7   17.62    9.23
   3   5  -7    9.63    7.93
   3  -5  -7   20.54    9.38
  -3  -5  -7   -0.18    7.20
  -3   5  -7   -5.89    9.07
   3  -5  -6    1.93    6.07
  -3  -5  -6    8.71    8.14
   3   5  -6   12.64    8.57
   3  -5  -6    9.50    8.11
  -3  -5  -6    5.45    7.76
  -3   5  -6   11.61    9.55
   3  -5  -5   49.20   11.31
  -3  -5  -5   52.83   11.51
   3  -5  -5   54.14   11.62
   3   5  -5   41.60   10.13
  -3  -5  -5   50.87   11.50
  -3   5  -5   39.03   11.49
  -3   5  -5   52.44   12.47
   3   5  -4  109.15    9.36
   3   5  -4  138.65   15.64
   3  -5  -4  134.67   15.12
   3  -5  -4  139.69   15.29
  -3  -5  -4  131.35   14.94
  -3   5  -4  118.28    9.91
  -3   5  -4  108.20   16.09
  -3  -5  -4  115.81   14.39
   3  -5  -4  122.18   10.11
  -3   5  -4  144.98   17.53
   3   5  -3  281.70   19.19
   3   5  -3  291.43   14.99
   3  -5  -3  293.76   19.07
  -3   5  -3  283.68   13.91
   3  -5  -3  264.00   18.27
  -3  -5  -3  252.89   16.81
  -3  -5  -3  247.82   18.57
  -3   5  -3  259.71   21.16
  -3   5  -3  300.83   21.62
   3  -5  -3  285.76   12.52
   3  -5  -3  270.62   15.10
   3   5  -3  289.49   14.10
   3  -5  -2   13.23    4.24
   3   5  -2   13.58    5.15
   3   5  -2   15.34    5.04
   3   5  -2   10.87    3.49
   3  -5  -2   16.42    5.28
  -3  -5  -2    7.37    4.02
   3  -5  -2   16.14    5.37
  -3   5  -2    9.47    3.08
  -3   5  -2   15.82    6.87
  -3  -5  -2   27.27    6.62
  -3   5  -2   13.05    6.49
  -3   5  -1  664.77   23.37
  -3  -5  -1  658.34   17.64
  -3  -5  -1  665.93   21.62
  -3   5  -1  702.98   26.33
   3  -5  -1  652.89   22.76
  -3  -5  -1  683.91   25.35
   3   5  -1  692.02   25.69
   3  -5   0   63.75    8.57
  -3   5   0   80.65    9.63
   3   5   0   64.66    9.35
  -3  -5   0   70.92    8.82
   3   5   0   70.16    8.69
  -3   5   0   63.60    8.22
   3  -5   0   61.23    6.35
  -3   5   0   71.60    7.46
   3  -5   0   76.06    8.76
  -3  -5   0   51.21    2.98
  -3  -5   0   66.97    9.34
  -3  -5   0   59.74    8.97
   3  -5   1  669.54   24.54
  -3   5   1  683.04   27.48
   3   5   1  664.99   23.07
  -3  -5   1  703.49   27.35
  -3  -5   1  668.44   20.02
  -3   5   1  640.20   16.32
   3  -5   1  692.54   26.31
  -3   5   1  693.06   24.01
   3  -5   1  678.88   24.41
  -3  -5   1  676.01   27.28
   3   5   1  665.56   26.22
  -3  -5   1  682.78   26.26
   3   5   1  688.18   29.19
  -3   5   2   16.49    6.71
   3  -5   2   10.26    3.65
  -3  -5   2   10.42    3.78
   3   5   2   15.71    6.98
  -3  -5   2    8.90    5.71
   3   5   2    4.64    2.66
  -3   5   2   14.89    4.09
   3  -5   2   16.74    6.46
  -3   5   2    9.85    2.03
   3   5   2    9.30    4.18
  -3  -5   2    6.65    4.09
  -3  -5   2   11.83    4.88
  -3   5   3  286.00   21.68
   3  -5   3  279.03   15.19
  -3  -5   3  268.16   20.82
   3   5   3  279.25   13.36
  -3   5   3  237.76   10.20
  -3   5   3  286.32   14.71
   3  -5   3  272.48   19.81
   3   5   3  250.33   13.43
   3   5   3  264.24   16.23
  -3  -5   3  277.51   19.45
  -3  -5   3  274.59   14.45
   3   5   3  291.23   22.16
  -3   5   4  127.19   15.91
   3  -5   4  130.07   10.35
  -3  -5   4  147.22   17.30
   3   5   4  120.82    8.74
   3  -5   4  134.60   14.89
  -3   5   4  123.12    9.66
  -3   5   4  110.01    9.36
   3   5   4  132.22   12.84
  -3  -5   4  133.93   15.31
   3   5   4  136.10   16.07
  -3   5   5   30.09    9.14
   3   5   5   42.60   10.53
  -3  -5   5   47.41   11.45
   3  -5   5   40.06    9.68
  -3  -5   5   51.37   10.11
  -3   5   6    8.89    6.04
   3   5   6   10.49    7.01
  -3  -5   6    2.20    7.08
   3  -5   6    9.08    7.02
   3  -5   6    4.28    4.97
  -3  -5   6   13.35    6.57
  -3   5   7    7.99    6.93
  -3  -5   7   30.51    9.96
   3  -5   7   11.56    6.96
   3   5   7    0.98    5.58
   3  -5   7   24.74    9.14
   3  -6  -7   -7.92    8.40
   3   6  -7   22.17    9.92
   3  -6  -7    6.60    8.95
  -3  -6  -7   -2.12    7.05
  -3   6  -7   -8.04    8.30
  -3  -6  -6   -3.36    7.26
   3  -6  -6  -13.97    8.82
   3   6  -6   -8.56    7.15
   3  -6  -6   -9.30    8.25
  -3  -6  -6  -10.79    7.49
  -3   6  -6    0.56    7.04
   3  -6  -5   17.00    8.17
  -3  -6  -5   19.09    8.54
   3   6  -5   22.45    8.36
   3  -6  -5   16.07    8.01
  -3  -6  -5   24.90   10.18
  -3   6  -5   27.47   10.30
   3   6  -4   83.56    7.83
   3  -6  -4   78.39    9.13
  -3   6  -4   82.31    8.99
   3  -6  -4   89.15   12.77
   3  -6  -4   97.88   13.41
  -3  -6  -4   80.75   12.56
   3   6  -4  115.34   14.16
  -3  -6  -4   90.27   13.32
  -3   6  -4  102.68   16.51
  -3   6  -4   84.61   13.92
   3   6  -4   91.47   14.66
   3   6  -3   18.67    5.19
   3   6  -3   32.71    5.65
   3  -6  -3   25.05    5.53
   3   6  -3   21.75    6.97
  -3   6  -3   23.08    5.29
   3  -6  -3   10.43    6.23
   3  -6  -3   26.69    7.10
  -3  -6  -3   23.59    6.63
   3   6  -3   15.28    3.78
  -3  -6  -3   41.17    8.75
  -3   6  -3   32.99    9.31
   3   6  -3   36.34    9.10
  -3   6  -3   31.83    8.90
   3   6  -2  182.94   14.03
   3  -6  -2  185.55   13.39
   3   6  -2  154.98   11.37
  -3   6  -2  199.34   12.90
   3  -6  -2  191.20   14.96
  -3   6  -2  175.55   12.22
  -3  -6  -2  167.09   12.10
  -3   6  -2  185.39   16.73
   3   6  -2  165.33   10.99
   3   6  -2  152.93   13.18
  -3  -6  -2  183.23   15.10
   3   6  -2  171.43   13.40
  -3   6  -2  180.55   16.02
   3  -6  -1   71.94    7.49
  -3   6  -1   66.17    8.47
   3   6  -1   67.88    9.76
  -3  -6  -1   66.29    6.52
  -3  -6  -1   57.36    7.83
  -3   6  -1   63.72    8.90
   3  -6  -1   74.95    9.09
  -3   6   0   52.04    8.36
   3   6   0   53.87   10.47
   3   6   0   53.90    8.06
  -3  -6   0   57.06    8.40
  -3   6   0   56.38    7.04
   3  -6   0   53.31    6.15
   3  -6   0   46.67    7.73
  -3  -6   0   62.72    8.88
  -3   6   1   73.50   10.59
   3   6   1   65.12   10.52
  -3  -6   1   56.88    8.65
   3  -6   1   63.86    8.20
   3   6   1   64.84    8.09
  -3  -6   1   68.77   10.23
   3  -6   1   67.79    9.74
   3  -6   1   63.83    8.65
  -3   6   1   65.22    5.25
  -3  -6   1   54.75    6.35
  -3  -6   1   67.39   10.09
   3  -6   2  168.84   12.56
  -3   6   2  184.63   16.77
  -3  -6   2  174.12   16.19
   3   6   2  175.95   12.18
  -3   6   2  156.46   12.14
   3  -6   2  195.17   16.20
   3   6   2  193.95   17.79
  -3  -6   2  153.63   14.90
  -3  -6   2  171.60   13.62
  -3  -6   2  182.15   13.87
  -3   6   3   21.59    8.01
   3  -6   3   15.88    4.08
  -3  -6   3   25.65    5.36
   3   6   3   22.85    8.78
   3   6   3   20.04    4.41
  -3  -6   3   22.92    8.01
   3  -6   3   21.16    7.00
  -3   6   3   21.52    5.00
   3   6   3   16.04    3.96
  -3  -6   3   26.27    7.49
   3   6   4  102.04   14.48
  -3   6   4   92.81   14.16
  -3  -6   4   87.36   14.02
   3   6   4   73.61    7.85
   3  -6   4   83.95   12.93
   3   6   4   73.61    9.30
  -3  -6   4   93.92   13.79
   3   6   5   25.88    8.99
  -3   6   5   15.33    7.88
  -3  -6   5   23.54    8.83
   3  -6   5   31.75    9.11
   3  -6   5   26.36    9.41
  -3  -6   5   31.48    8.45
  -3   6   6    0.43    5.76
   3   6   6   -4.27    5.04
  -3  -6   6    9.28    9.37
   3  -6   6   -1.59    5.04
   3  -6   6   -0.08    5.08
  -3  -6   6   -5.50    5.36
  -3  -6   7   -1.70    6.10
   3  -6   7    4.90    6.65
   3  -6   7   -1.48    5.66
  -3  -7  -7   21.97    9.80
   3   7  -7   10.21    6.58
   3  -7  -7   27.47   10.90
  -3  -7  -7    4.59    8.57
   3  -7  -6   12.41    7.76
   3   7  -6   -0.08    3.72
   3  -7  -6   -4.73    7.30
  -3  -7  -6    8.57    7.79
  -3  -7  -6   -8.23    7.20
  -3   7  -6   -3.14    7.73
   3  -7  -5   69.32   12.82
   3   7  -5   66.39   12.20
   3  -7  -5   71.00   13.28
  -3  -7  -5   63.61   12.36
  -3  -7  -5   57.20   11.73
   3   7  -5   73.95   15.48
  -3   7  -5   79.20   16.16
   3   7  -4   41.06    9.24
  -3  -7  -4   45.15   10.19
   3  -7  -4   47.32   10.52
   3  -7  -4   37.92    9.60
  -3  -7  -4   51.87   10.67
  -3   7  -4   54.93   12.42
   3   7  -4   44.05   10.89
   3   7  -3   29.54    6.34
   3   7  -3   23.65    4.68
  -3  -7  -3   21.88    6.67
   3   7  -3   31.88    7.31
  -3   7  -3   33.03    6.30
   3  -7  -3   22.34    6.83
   3  -7  -3   26.19    7.75
   3   7  -3   21.53    4.79
  -3  -7  -3   19.33    7.98
  -3   7  -3   35.77    9.58
   3   7  -3   32.15    8.90
   3  -7  -2  120.36   11.07
  -3   7  -2  120.18   10.51
   3   7  -2  114.33    9.96
   3   7  -2  141.82   12.58
   3  -7  -2  148.80   13.81
  -3   7  -2  121.17   11.08
  -3  -7  -2  137.58   11.70
  -3   7  -2  129.89   14.32
   3   7  -2  114.43   10.00
   3   7  -2  132.86   12.83
  -3  -7  -2  138.05   13.44
   3   7  -2  134.39   12.94
  -3   7  -2  133.55   15.02
   3  -7  -1  120.01    9.08
  -3   7  -1  141.41   12.19
  -3  -7  -1  126.27    9.47
  -3  -7  -1  131.70   11.79
  -3   7  -1  138.29   12.88
   3  -7  -1  124.26   12.11
   3   7  -1  131.19    9.67
   3   7  -1  132.60   13.81
  -3  -7  -1  140.95   13.16
  -3   7   0  177.08   15.10
  -3  -7   0  197.01   15.04
  -3   7   0  174.39   11.84
   3  -7   0  144.25   12.94
   3  -7   0  185.20   11.14
   3   7   0  184.98   16.29
  -3  -7   0  167.16   14.43
  -3   7   1  120.71   13.38
  -3  -7   1  149.22   14.87
   3  -7   1  141.87   13.58
   3  -7   1  124.11   11.70
   3   7   1  139.17   15.78
  -3  -7   1  121.93   13.60
  -3  -7   1  136.48    9.19
   3  -7   2  128.77   11.49
  -3   7   2  130.71   15.57
  -3  -7   2  132.49   15.18
   3   7   2  116.14   10.74
   3  -7   2  145.18   14.37
  -3  -7   2  142.65   14.92
  -3  -7   2  139.20   12.24
   3   7   2  141.72   16.39
  -3   7   3   26.95    8.72
  -3  -7   3   23.30    5.27
   3   7   3   26.77    8.52
   3  -7   3   29.23    5.40
   3   7   3   24.55    5.27
  -3  -7   3   20.36    7.93
   3  -7   3   22.39    7.67
   3   7   3   25.67    4.69
  -3  -7   3   33.64    8.34
   3   7   4   43.35   11.11
  -3   7   4   37.93   10.40
  -3  -7   4   34.22   10.43
   3  -7   4   38.33    9.94
  -3  -7   4   38.62    9.76
   3   7   5   80.47   13.80
  -3   7   5   68.11   13.03
  -3  -7   5   48.44   12.07
   3  -7   5   74.67   13.12
   3  -7   5   58.15   12.06
  -3  -7   5   75.04   13.47
  -3   7   6    1.86    5.57
   3   7   6    5.53    5.08
  -3  -7   6    3.68    6.19
   3  -7   6    4.24    7.20
   3  -7   6    7.86    6.65
  -3  -7   6  -10.57    6.28
  -3   7   7   -1.85    5.18
  -3  -7   7    6.89    6.27
   3  -7   7    6.78    7.13
   3  -7   7    0.44    6.26
  -3  -7   7   -0.95    5.17
  -3  -8  -7   -8.90    8.28
   3   8  -7   -5.65    6.59
   3  -8  -7   -3.72    7.69
   3  -8  -6   -3.82    7.97
   3   8  -6   -0.65    4.99
  -3  -8  -6   18.51    9.45
   3  -8  -6    2.07    7.13
  -3  -8  -6    3.91    6.59
  -3   8  -6    1.48    8.70
   3  -8  -5    7.30    6.13
  -3  -8  -5   10.03    7.33
   3   8  -5    3.70    5.46
   3  -8  -5    9.87    8.01
  -3  -8  -5    6.23    6.25
   3   8  -5   -2.52    6.28
  -3   8  -5   -2.74    7.11
   3   8  -4   28.81    6.46
   3  -8  -4   18.48    7.32
   3  -8  -4   32.70    9.69
   3   8  -4   19.75    7.29
  -3  -8  -4   12.85    7.04
  -3  -8  -4   15.24    6.59
  -3   8  -4   18.69    8.93
   3   8  -4   24.84   10.00
   3   8  -3   74.90    9.97
   3   8  -3   51.10    6.70
   3   8  -3   63.24   10.11
  -3  -8  -3   58.71   10.01
   3  -8  -3   67.74    9.92
   3  -8  -3   49.49   10.07
  -3  -8  -3   66.14   10.36
   3   8  -3   56.38    7.60
  -3   8  -3   61.59   11.85
   3   8  -3   57.41   11.02
   3   8  -2   28.29    7.71
   3   8  -2   35.59    6.89
  -3   8  -2   25.97    5.95
  -3  -8  -2   29.89    6.55
   3  -8  -2   27.22    7.74
   3  -8  -2   23.67    6.13
  -3  -8  -2   26.57    7.36
  -3   8  -2   29.32    8.74
   3   8  -2   32.08    7.37
  -3  -8  -1   44.82    6.62
   3  -8  -1   36.42    5.58
  -3   8  -1   41.17    7.54
   3   8  -1   40.91    9.15
  -3  -8  -1   29.76    7.37
   3   8  -1   34.03    6.09
  -3   8   0   92.66   11.40
   3   8   0   63.03   11.37
  -3  -8   0   80.89   11.67
   3  -8   0   83.78    8.15
   3  -8   0   88.41   11.30
  -3  -8   0   83.79   11.32
  -3   8   1   41.69    9.78
   3   8   1   48.19   10.62
  -3  -8   1   55.33   10.16
   3  -8   1   43.57    8.17
   3  -8   1   46.55    9.26
  -3  -8   1   36.83    8.32
  -3   8   2   22.05    8.26
   3  -8   2   21.53    5.45
   3   8   2   29.23    9.02
  -3  -8   2   29.09    8.14
   3  -8   2   28.78    5.53
   3  -8   2   24.42    7.86
  -3  -8   2   19.95    6.02
  -3  -8   2   27.27    8.38
  -3   8   3   67.78   12.67
   3  -8   3   41.60    6.81
   3   8   3   65.83   12.55
  -3  -8   3   57.82   11.53
   3  -8   3   46.93   10.05
   3   8   3   58.63    6.00
  -3  -8   3   45.76   11.19
   3   8   4   19.07    7.58
  -3   8   4   17.58    8.89
  -3  -8   4   14.68    7.60
   3  -8   4   25.48    8.23
   3  -8   4   22.97    8.91
  -3  -8   4   25.52    8.88
   3   8   5    0.39    6.25
  -3   8   5   -4.75    7.34
  -3  -8   5    2.91    6.26
   3  -8   5   -4.74    6.33
   3  -8   5    8.37    7.25
  -3  -8   5   12.23    6.88
   3   8   6   -2.86    5.27
  -3  -8   6    8.24    7.20
   3  -8   6    5.04    6.15
  -3  -8   6   -1.26    5.72
   3  -8   6   11.61    7.18
  -3   8   7    9.15    7.94
  -3  -8   7   -3.67    6.47
   3  -8   7  -17.70    8.18
   3  -8   7   -9.16    8.18
  -3  -8   7    3.28    6.05
   3   9  -7   10.01    7.50
   3  -9  -7   19.85   10.93
  -3  -9  -6   16.26    8.60
   3   9  -6   -4.73    4.57
   3  -9  -6   18.99    8.94
   3  -9  -6   12.20    7.69
  -3  -9  -6   -6.51    7.31
   3   9  -6   -0.48    6.79
  -3   9  -6   -7.56   10.37
  -3  -9  -5   37.71   10.19
   3  -9  -5   33.65   10.68
   3   9  -5   50.30   11.17
   3  -9  -5   42.41   11.40
  -3  -9  -5   37.48   10.86
   3   9  -5   51.15   13.62
  -3   9  -5   29.80    9.74
   3   9  -4   27.48    6.56
   3  -9  -4   25.83    9.17
   3  -9  -4   15.48    6.88
   3   9  -4   25.69    8.70
  -3  -9  -4   27.76    8.64
  -3  -9  -4    9.68    6.23
  -3   9  -4   19.59    8.19
   3   9  -4   24.40    9.37
   3   9  -3  132.61   14.14
   3  -9  -3  143.31   13.84
   3  -9  -3  131.10   16.35
  -3  -9  -3  155.66   15.23
   3   9  -3  140.74   16.20
  -3  -9  -3  149.68   16.21
  -3   9  -3  146.88   17.74
   3   9  -3  161.50   14.92
   3  -9  -3  132.76   10.43
  -3   9  -2  150.80   12.25
   3  -9  -2  150.80   11.97
   3   9  -2  156.23   13.50
   3  -9  -2  145.25   15.43
  -3  -9  -2  144.48   13.24
   3   9  -2  161.87   14.62
  -3  -9  -2  141.83   14.38
  -3   9  -2  197.47   18.67
   3   9  -2  143.70   14.94
   3  -9  -1  220.01   11.80
  -3   9  -1  232.85   16.45
  -3  -9  -1  228.84   14.49
   3   9  -1  240.73   14.21
  -3  -9  -1  251.20   18.53
   3   9  -1  247.33   19.46
   3  -9   0   57.91    5.28
  -3   9   0   78.47   11.32
   3   9   0   75.10   12.14
  -3  -9   0   67.91   10.90
   3  -9   0   63.96   10.51
   3   9   0   55.42    4.61
   3  -9   0   60.15    7.22
  -3  -9   0   80.04   11.40
  -3   9   1  264.70   20.84
  -3  -9   1  262.32   20.43
   3  -9   1  240.68   19.17
   3   9   1  268.67   22.03
  -3  -9   1  254.46   20.55
   3  -9   2  149.02   10.98
  -3   9   2  145.50   17.80
  -3  -9   2  128.51   16.34
   3  -9   2  139.21   15.42
   3   9   2  145.71   17.75
  -3  -9   2  151.60   12.80
  -3  -9   2  164.33   17.54
   3   9   3  143.99   18.24
  -3   9   3  132.85   17.65
  -3  -9   3  131.92   17.10
   3  -9   3  157.94   17.12
  -3  -9   3  145.72   17.57
   3  -9   3  146.92   17.86
   3   9   4   27.20    9.31
  -3   9   4   22.37    9.05
  -3  -9   4   18.74    8.53
   3  -9   4   25.85    8.37
  -3  -9   4   13.42    7.83
   3  -9   4   18.58    8.72
   3   9   5   60.98   13.83
  -3   9   5   54.54   14.30
  -3  -9   5   34.68   11.14
   3  -9   5   38.60   10.62
   3  -9   5   35.08   11.30
  -3  -9   5   48.44   12.62
   3   9   6   -9.37    6.45
  -3   9   6   -0.82    7.06
  -3  -9   6    0.46    6.13
   3  -9   6    0.32    6.30
   3  -9   6  -12.45    7.94
  -3  -9   6   -8.25    7.42
   3  -9   7   23.24    9.24
  -3  -9   7   16.46   10.30
   3  10  -6  -10.99    6.43
  -3 -10  -6   -3.35    6.75
   3 -10  -6  -12.21    8.59
   3 -10  -6    2.85    6.62
   3  10  -6   -4.04    7.63
  -3  10  -6   -2.42    8.94
  -3 -10  -5   86.59   15.04
   3 -10  -5   68.19   14.17
   3  10  -5   92.54   14.34
   3 -10  -5   68.16   11.71
  -3 -10  -5   83.35   14.26
   3  10  -5   97.71   17.63
  -3  10  -5   76.53   16.71
   3 -10  -4   22.08    8.82
   3  10  -4   28.63    8.03
  -3 -10  -4   21.34    8.21
   3 -10  -4   19.40    7.53
  -3 -10  -4   16.17    7.30
  -3  10  -4   15.35    7.95
   3  10  -4    5.90    6.48
   3  10  -3   32.55    8.50
   3 -10  -3   30.40    7.29
  -3 -10  -3   30.56    8.74
   3  10  -3   42.24    8.52
   3 -10  -3   35.74    9.83
  -3 -10  -3   32.33    8.13
  -3  10  -3   42.96   10.44
   3  10  -3   32.47    8.75
   3 -10  -3   29.98    5.98
   3  10  -2    6.34    6.34
  -3  10  -2   10.17    4.60
   3  10  -2    8.35    4.30
   3 -10  -2    6.98    6.29
   3 -10  -2   10.35    4.40
  -3 -10  -2   10.59    5.52
  -3 -10  -2   12.98    6.33
   3 -10  -2    6.67    4.25
  -3  10  -2   17.49    9.09
   3  10  -2   12.65    6.06
  -3 -10  -1    4.84    4.66
   3 -10  -1    2.10    3.11
   3  10  -1    7.71    7.01
  -3  10  -1    3.00    5.32
   3 -10  -1    8.06    4.63
  -3 -10  -1    7.14    5.17
   3  10  -1    5.53    4.04
   3  10   0  122.07   15.68
  -3  10   0  111.30   13.77
  -3 -10   0  118.75   14.57
   3  10   0   96.66    6.88
   3 -10   0  106.55    9.60
   3 -10   0  107.94   13.81
   3 -10   0  109.96   13.75
  -3 -10   0   88.01   12.60
  -3  10   1    3.49    6.94
   3  10   1   15.25    8.33
  -3 -10   1    6.50    7.43
   3 -10   1    2.40    2.11
   3 -10   1    4.94    5.60
   3 -10   1    4.11    6.70
  -3 -10   1    4.31    4.68
  -3  10   2    8.04    7.24
   3  10   2    8.13    9.67
  -3 -10   2   12.11    7.76
   3 -10   2    3.71    2.42
   3 -10   2    5.32    6.69
   3 -10   2    7.40    6.61
  -3 -10   2    6.35    6.05
   3  10   3   20.88   10.23
  -3  10   3   40.26   11.60
  -3 -10   3   31.75   10.81
   3 -10   3   29.27    9.33
   3 -10   3   20.18    8.48
  -3 -10   3   31.83   10.42
   3  10   4   11.41    8.65
  -3  10   4   20.89    9.67
  -3 -10   4   33.09   10.35
   3 -10   4   26.82    9.78
  -3 -10   4   25.13    9.44
   3 -10   4    2.43    6.76
   3  10   5   59.74   13.39
  -3  10   5  106.39   18.33
  -3 -10   5   82.69   15.22
   3 -10   5   83.31   15.67
   3 -10   5   77.21   17.04
  -3 -10   5   75.46   15.41
   3  10   6   10.24    6.74
  -3  10   6   24.23   10.26
  -3 -10   6    2.92    7.08
   3 -10   6    6.30    6.69
   3 -10   6   -0.28    6.35
  -3 -10   6   17.32    9.10
   3  11  -6    6.42    4.94
  -3 -11  -6   11.31    8.50
   3  11  -6   -6.39    8.50
  -3 -11  -5    4.54    7.15
   3 -11  -5   11.40    8.43
   3  11  -5  -10.67    4.67
   3 -11  -5    4.50    6.79
  -3 -11  -5   -7.68    6.97
  -3  11  -5    5.51    7.57
   3  11  -5    5.92    7.08
   3 -11  -4   53.21   12.45
   3  11  -4   56.91   10.61
  -3 -11  -4   63.17   12.92
   3 -11  -4   68.79   11.51
  -3 -11  -4   65.74   12.59
  -3  11  -4   74.28   15.76
   3  11  -4   96.13   15.85
   3  11  -3    7.77    6.71
  -3  11  -3    3.96    4.35
   3  11  -3    9.53    5.36
  -3 -11  -3   -3.89    5.78
   3 -11  -3   -4.21    8.33
   3 -11  -3    0.55    4.69
  -3 -11  -3  -13.09    6.56
  -3  11  -3    4.49    6.01
   3  11  -3    0.90    5.01
   3  11  -2  116.20   14.92
   3  11  -2  108.60   11.38
  -3  11  -2   90.61   10.56
   3 -11  -2   97.93    9.45
  -3 -11  -2  114.09   13.22
   3 -11  -2  119.56   15.48
  -3 -11  -2  115.84   14.04
  -3  11  -2  110.12   15.49
   3 -11  -2  125.80   13.13
   3  11  -2  118.95   13.30
  -3 -11  -1    3.33    4.15
   3  11  -1   15.12    7.72
  -3  11  -1    2.04    5.08
   3 -11  -1    0.51    4.65
  -3 -11  -1    5.36    5.27
   3  11  -1    2.11    3.03
  -3  11   0    6.28    6.93
   3  11   0    8.96    7.18
   3 -11   0    2.24    5.17
   3  11   0    5.25    2.44
  -3 -11   0    6.83    5.77
  -3  11   1   -6.01    6.37
   3  11   1   -1.81    8.02
  -3 -11   1   -1.75    7.25
   3 -11   1    6.47    6.16
   3 -11   1    1.51    5.08
  -3 -11   1    4.08    5.55
   3  11   2  114.68   17.31
  -3  11   2  106.57   16.62
  -3 -11   2   99.05   15.47
   3 -11   2   96.28   14.62
   3 -11   2   78.89   14.88
  -3 -11   2  101.58   15.34
   3  11   3    0.56    6.82
  -3  11   3   10.23    8.60
  -3 -11   3    2.95    8.02
   3 -11   3    5.02    5.97
   3 -11   3    6.15    6.79
  -3 -11   3    9.12    7.42
   3  11   4   78.70   15.60
  -3  11   4   83.12   16.73
  -3 -11   4   84.67   15.70
   3 -11   4   78.21   14.68
   3 -11   4   72.28   16.43
  -3 -11   4  100.90   16.94
   3  11   5   -1.77    6.68
  -3  11   5   -4.10    7.46
  -3 -11   5    3.04    8.42
   3 -11   5    7.52    7.14
  -3 -11   5   17.25    9.12
   3 -11   5  -13.19    8.79
   3  11   6    0.17    6.54
   3 -11   6   -3.64    7.45
  -3 -11   6    7.60    7.60
  -3 -12  -6   23.93   10.55
   3  12  -6   18.71   11.72
   3 -12  -5    1.14    5.65
   3  12  -5   10.87    5.87
  -3 -12  -5   10.87    7.80
   3 -12  -4   -1.87    7.07
  -3 -12  -4    1.91    6.02
   3  12  -4   -3.49    4.82
  -3 -12  -4  -12.39    6.57
  -3  12  -4   -0.39    6.00
   3  12  -4    3.95    5.69
   3  12  -3   60.49   11.44
  -3 -12  -3   56.24   11.10
   3 -12  -3   59.42   11.87
   3  12  -3   83.60   11.51
  -3 -12  -3   60.73   11.95
  -3  12  -3   73.12   14.34
   3  12  -3   67.02   12.49
   3  12  -2    4.13    3.79
   3  12  -2    6.57    6.79
  -3  12  -2    6.96    4.44
   3 -12  -2    1.19    7.10
  -3 -12  -2   -7.50    6.50
  -3 -12  -2   13.64    6.87
  -3  12  -2    7.89    6.63
  -3 -12  -2    8.31    5.85
   3 -12  -2    2.60    4.43
   3  12  -2    3.50    5.02
   3  12  -1  286.88   16.71
  -3  12  -1  285.59   20.58
  -3 -12  -1  272.02   19.07
   3  12  -1  286.72   17.51
  -3 -12  -1  300.07   22.49
   3 -12  -1  290.79   22.75
   3  12  -1  305.80   24.99
   3  12   0   -3.70    7.93
  -3  12   0  -10.74    6.84
   3 -12   0    4.05    5.34
  -3 -12   0    5.47    5.16
  -3  12   1  276.26   23.94
  -3 -12   1  258.55   23.67
   3 -12   1  281.20   24.13
  -3 -12   1  270.61   24.33
   3 -12   1  288.96   25.29
   3  12   1  326.99   27.35
   3  12   2    4.32    7.91
  -3  12   2   -1.11    7.11
  -3 -12   2    5.30    7.62
   3 -12   2    9.06    6.91
   3 -12   2   14.28    8.51
  -3 -12   2   11.62    7.77
  -3  12   3   67.90   14.81
   3  12   3  110.11   18.00
  -3 -12   3   74.33   14.54
   3 -12   3   89.55   15.24
   3 -12   3  111.58   18.16
  -3 -12   3   61.82   14.51
  -3  12   4   13.24   10.49
   3  12   4   10.50    8.57
  -3 -12   4   -7.11    8.30
   3 -12   4    3.50    6.44
  -3 -12   4    6.96    6.72
   3 -12   4   -9.95    8.04
  -3  12   5   23.75   10.76
   3  12   5   14.57    9.34
  -3 -12   5   19.78    9.88
   3 -12   5    6.47    6.56
  -3 -12   5   25.16   10.60
   3 -12   5   -1.82    6.53
   3  12   6    1.20    6.06
   3 -12   6    3.44    6.49
  -3 -13  -5   39.69   11.38
   3  13  -5   53.93   13.93
   3 -13  -4   21.95   10.36
  -3 -13  -4   13.89    7.56
  -3 -13  -4   13.92    7.66
  -3  13  -4   -4.28    6.96
   3  13  -4   11.99    7.32
   3  13  -3   20.92    9.05
  -3 -13  -3   21.01    8.45
   3 -13  -3   16.28    9.58
  -3 -13  -3    6.20    6.31
  -3  13  -3    8.70    7.21
   3  13  -3   13.91    6.76
   3  13  -2  165.89   19.25
  -3  13  -2  115.87   12.64
   3 -13  -2  136.53   17.95
  -3 -13  -2  125.43   15.06
  -3 -13  -2  117.42   14.95
  -3  13  -2  137.46   18.57
  -3 -13  -2  132.43   15.31
   3 -13  -2  132.13   14.93
   3  13  -2  135.84   14.83
  -3 -13  -1  123.42   13.81
   3  13  -1  145.51   18.71
   3  13  -1  127.54   11.28
  -3  13  -1  106.99   13.92
  -3 -13  -1  117.39   15.37
   3 -13  -1  126.03   15.78
  -3  13   0  115.40   15.60
   3  13   0  151.43   19.37
  -3 -13   0  124.69   16.31
   3 -13   0  112.60   16.50
  -3 -13   1  136.32   18.04
   3  13   1  153.93   20.23
  -3  13   1  120.66   17.06
  -3 -13   1  131.04   18.01
   3 -13   1  105.53   17.28
   3  13   2  145.59   20.51
  -3  13   2  131.94   19.00
  -3 -13   2  148.10   19.45
   3 -13   2  133.44   18.32
  -3 -13   2  138.97   19.59
   3 -13   2  145.01   20.76
  -3  13   3   10.18    9.01
   3  13   3   28.71   10.91
  -3 -13   3   23.97   11.67
   3 -13   3   14.34    7.76
   3 -13   3   25.17   10.06
  -3 -13   3   11.33    6.51
  -3  13   4   24.20   10.98
   3  13   4   16.09   10.83
  -3 -13   4   20.92    9.51
   3 -13   4    6.91    7.37
  -3 -13   4    8.90    7.47
   3 -13   4   23.98   10.51
   3  13   5   76.94   17.21
   3 -13   5   49.00   13.15
  -3 -14  -5   13.61    8.54
  -3 -14  -4  -10.36    7.91
   3 -14  -4   22.41   11.11
  -3  14  -4    8.28    9.00
   3  14  -3   -3.68    6.94
  -3 -14  -3   18.22    8.15
   3 -14  -3   15.13    9.16
  -3 -14  -3    0.51    5.17
  -3  14  -3    6.42    8.22
   3  14  -2   11.22    7.55
   3 -14  -2   11.15    7.58
  -3 -14  -2   14.74    7.53
  -3 -14  -2    9.46    6.21
  -3 -14  -2   14.43    6.66
  -3  14  -2   24.31    9.27
   3 -14  -2    7.22    4.98
  -3 -14  -1    4.35    5.57
   3  14  -1    1.84    6.89
  -3  14  -1    1.50    5.98
   3 -14  -1  -10.29    5.83
  -3 -14  -1   -8.88    6.51
  -3  14   0    3.63    5.39
   3  14   0    0.40    8.34
   3 -14   0   -2.20    6.48
  -3 -14   0    1.26    5.56
   3  14   1   13.40    9.74
  -3  14   1   -0.64    5.69
   3 -14   1   14.19    8.42
  -3 -14   1   13.35    7.65
  -3  14   2   10.89    8.46
   3  14   2   10.12    8.37
  -3 -14   2   10.60    8.93
   3 -14   2   18.98    7.54
   3 -14   2   -4.03    7.39
  -3 -14   2    7.43    7.28
   3  14   3    8.98    9.01
  -3  14   3   18.29   10.12
  -3 -14   3   14.32    9.42
   3 -14   3    9.02    7.77
   3 -14   3   17.32    9.64
  -3 -14   3    8.37    7.95
   3  14   4    3.93    7.66
  -3  14   4    4.13    8.52
  -3 -14   4    4.85    7.62
   3 -14   4    4.07    7.23
   3 -14   4    8.67    8.62
  -3 -14   4   19.40    9.99
  -3 -15  -4   -0.60    5.71
  -3 -15  -3   13.32    7.48
   3 -15  -3    1.16    6.70
   3  15  -3    3.47    6.83
  -3  15  -3    8.06    8.40
   3  15  -2   21.46   10.32
   3 -15  -2   23.93   10.30
  -3 -15  -2   22.14    8.76
  -3 -15  -2   34.43    9.69
  -3  15  -2   21.63    9.31
  -3 -15  -2   44.12   10.23
  -3 -15  -1   12.94    6.02
   3  15  -1   18.39   10.43
  -3  15  -1   -5.22    5.63
  -3  15  -1   21.44    9.21
   3 -15  -1   17.77    6.91
  -3 -15  -1   17.62    7.64
   3  15   0   11.10    9.19
  -3  15   0   15.09    9.14
   3 -15   0    3.87    6.81
  -3 -15   0   -7.25    6.51
  -3  15   1   13.58    8.53
   3  15   1   11.92    9.36
   3 -15   1    9.58    7.80
  -3 -15   1    6.65    7.21
  -3  15   2   20.79   10.29
   3  15   2   36.51   12.08
   3 -15   2   28.00   12.61
  -3 -15   2   16.58    8.81
   3  15   3   -5.60    8.68
  -3  15   3   -0.55    7.60
  -3 -15   3   -2.22    7.50
   3 -15   3   -1.38    8.25
   3 -15   3   -5.30    7.98
  -3 -15   3   26.34   10.64
  -3 -16  -4   -3.89    7.29
  -3 -16  -3   19.19    8.76
   3  16  -3    8.22    7.68
  -3  16  -3    4.79    8.80
   3 -16  -2    9.14    7.57
  -3 -16  -2    7.67    6.80
   3  16  -2   16.75    9.03
  -3  16  -2  -10.39    8.72
  -3 -16  -2   -9.42    6.81
  -3 -16  -1   45.15   10.85
   3  16  -1   51.98   13.90
  -3  16  -1   41.73   10.52
  -3  16  -1   50.04   13.06
   3 -16  -1   59.28   12.08
  -3 -16  -1   40.98   10.43
   3  16   0   32.38   12.60
  -3  16   0   38.81   12.00
   3 -16   0   33.04   12.64
  -3 -16   0   30.04    9.66
  -3  16   1   56.66   14.09
   3  16   1   54.53   14.77
   3 -16   1   27.22   11.58
  -3 -16   1   52.46   13.63
  -3  16   2   -4.67    8.53
   3  16   2    0.38    8.67
   3 -16   2   11.74    9.46
  -3 -16   2   -4.86    7.07
  -3 -17  -3   40.99   11.58
   3  17  -3   49.36   12.99
  -3 -17  -2   10.70    8.14
   3  17  -2    5.60    8.15
  -3  17  -2   -8.84    8.26
  -3 -17  -1    6.08    7.30
   3  17  -1    1.15    7.96
  -3  17  -1   21.98    9.12
  -3 -17  -1   26.12    9.34
   3  17   0   24.63   11.93
  -3  17   0   11.59    8.93
   3 -17   0   19.10    8.75
  -3 -17   0    8.55    7.36
  -3  17   1   19.14    9.84
   3 -17   1   21.22    9.20
  -3 -17   1   29.10   10.50
  -3  17   2   22.46   11.48
  -3 -18  -1   12.74    7.87
  -3 -18  -1   54.06   12.77
  -3  18   0    1.22    9.30
   3 -18   0   10.34    6.26
  -3 -18   0   -0.91    6.06
  -3  18   1   -0.56    7.49
   3 -18   1   12.19    9.13
   4   0  -7   17.56    9.93
  -4   0  -7   14.22    9.79
  -4   0  -7   12.95    9.21
   4   0  -6   72.36   14.95
  -4   0  -6   76.18   15.63
  -4   0  -6   72.06   14.67
   4   0  -5  160.42   19.19
  -4   0  -5  164.05   20.28
  -4   0  -5  146.46   17.32
   4   0  -4  555.41   31.07
   4   0  -4  514.64   27.17
  -4   0  -4  556.02   29.36
  -4   0  -4  522.54   31.87
   4   0  -3  201.59   17.52
   4   0  -3  193.13   14.57
  -4   0  -3  161.69   16.55
   4   0  -3  161.85   10.21
  -4   0  -3  208.72   15.91
  -4   0  -2  128.03    4.65
   4   0  -2  125.40    9.66
  -4   0  -2  147.85   14.35
   4   0  -2  136.20    7.34
  -4   0  -2  135.52   11.27
   4   0  -1   46.99    5.99
  -4   0  -1   49.95    8.19
  -4   0  -1   48.46    5.99
   4   0  -1   60.11    5.01
   4   0   0  101.11   10.10
  -4   0   0  101.75   10.12
  -4   0   1   53.64    8.20
   4   0   1   48.94    8.42
  -4   0   2  146.17   13.35
   4   0   2  117.42   13.21
   4   0   2  123.87    9.68
  -4   0   3  177.53   14.95
   4   0   3  200.70   17.71
  -4   0   3  192.15   13.18
  -4   0   4  564.83   27.41
   4   0   4  506.64   30.01
  -4   0   5  173.13   16.29
  -4   0   5  152.96   19.74
   4   0   5  159.15   18.21
  -4   0   6   63.14   10.54
  -4   0   6   80.95   16.45
   4   0   6   57.90   13.05
   4   0   6   63.43   12.79
   4   0   7   -2.60    5.72
  -4   0   7   -1.37    7.44
  -4  -1  -8   17.04    9.06
   4   1  -7   21.45   10.52
   4  -1  -7    7.59    7.55
  -4   1  -7   22.40    9.44
  -4  -1  -7   12.32    9.82
  -4  -1  -7   21.45    8.66
  -4   1  -7   37.30   11.92
   4   1  -6   98.97   16.96
   4  -1  -6   91.47   16.41
  -4   1  -6   75.86   15.73
  -4  -1  -6   90.45   16.85
  -4  -1  -6   95.54   15.52
  -4   1  -6   99.76   16.85
   4  -1  -5   43.64   10.22
   4   1  -5   35.72   10.98
   4  -1  -5   46.28   11.88
  -4   1  -5   38.45   11.59
  -4  -1  -5   23.29    8.90
  -4  -1  -5   36.58    9.42
  -4   1  -5   29.74   10.02
   4  -1  -4   89.92   12.13
   4  -1  -4  124.74   15.52
   4   1  -4   99.69   14.71
  -4   1  -4   79.62   13.61
  -4  -1  -4   84.73   14.14
   4  -1  -4   73.01    4.03
   4  -1  -4   64.17    3.83
  -4  -1  -4   85.95   12.14
  -4   1  -4   99.15   13.47
   4   1  -3  120.50   14.00
   4  -1  -3  112.94   13.64
   4  -1  -3  124.92   12.04
  -4   1  -3  129.86   15.10
  -4  -1  -3  104.36   13.85
  -4   1  -3  118.33   12.83
   4   1  -3   95.70    7.78
  -4  -1  -3  116.49   11.77
   4  -1  -2   95.64   11.46
   4  -1  -2   65.27    7.41
   4   1  -2   74.00    7.22
  -4  -1  -2   62.44    9.91
  -4   1  -2   64.24   10.47
   4  -1  -2   79.52    6.22
   4   1  -2   59.37    4.94
  -4  -1  -2   70.94    7.92
  -4   1  -2   83.59    9.46
   4  -1  -2   70.81    8.68
   4   1  -2   65.94    8.16
   4  -1  -1  383.34   15.69
  -4  -1  -1  420.63   21.16
   4   1  -1  387.05   15.78
  -4   1  -1  418.14   21.05
  -4  -1  -1  403.83   15.03
   4  -1  -1  391.35   13.32
  -4   1   0  795.90   27.87
   4  -1   0  780.38   25.63
   4   1   0  806.33   26.02
  -4   1   0  744.84   24.99
  -4  -1   0  789.06   26.36
  -4  -1   0  822.56   26.39
  -4   1   1  404.96   20.34
   4   1   1  397.04   20.59
   4  -1   1  370.37   19.92
   4   1   1  373.51   10.91
  -4  -1   1  399.13   21.25
  -4   1   2   71.39    9.52
  -4  -1   2   70.24    9.29
   4  -1   2   80.80   10.91
   4   1   2   80.90   10.80
  -4  -1   2   76.10    6.48
  -4  -1   2   73.15   11.57
   4   1   2   80.08    7.56
  -4   1   3   98.09   11.89
  -4  -1   3  114.99   11.68
   4  -1   3   99.45   13.33
   4   1   3   86.63   12.55
  -4  -1   3  107.79   10.09
  -4  -1   3  112.25   14.96
   4   1   3  105.25   10.45
  -4   1   4   93.04   12.52
  -4  -1   4   82.45   10.62
  -4  -1   4  103.79   15.35
   4  -1   4   99.78   13.90
   4   1   4   99.94   13.99
  -4   1   5   50.96   10.09
  -4  -1   5   48.91    9.13
  -4  -1   5   40.80   11.91
   4  -1   5   47.71   11.39
   4   1   5   34.07   10.02
   4   1   5   42.18   10.22
  -4   1   6  106.40   13.98
  -4  -1   6   92.98   12.02
   4   1   6   64.39   13.62
   4  -1   6   80.45   14.55
   4   1   6   71.19   14.28
  -4   1   6   92.64   17.50
  -4  -1   6   74.63   15.85
   4  -1   7   15.30    7.72
   4   1   7    7.60    6.07
  -4   1   7   23.91   11.30
  -4  -1   7   29.56   11.01
   4  -1   7   23.05    9.50
   4   1   7   14.80    8.52
   4   2  -7    6.05    7.33
   4  -2  -7   11.63    6.74
  -4  -2  -7   14.80   10.11
  -4  -2  -7   10.53    7.14
  -4   2  -7   25.67   11.99
   4   2  -6   60.11   13.55
   4  -2  -6   64.51   13.78
   4  -2  -6   53.49   12.32
  -4   2  -6   57.62   14.23
  -4  -2  -6   54.77   14.02
  -4  -2  -6   57.91   13.58
  -4   2  -6   53.14   12.47
   4  -2  -5    9.57    6.55
   4   2  -5    7.15    8.22
   4  -2  -5   28.82   10.40
  -4   2  -5   20.79    9.76
  -4  -2  -5   24.99    9.64
  -4  -2  -5   15.02    6.99
  -4   2  -5   11.50    8.24
   4  -2  -4   12.06    2.61
   4  -2  -4    7.39    6.05
   4   2  -4   15.52    8.19
   4  -2  -4   11.34    7.39
  -4   2  -4   11.03    7.11
  -4  -2  -4    0.68    5.37
   4  -2  -4    8.19    4.48
  -4  -2  -4    6.77    5.15
  -4   2  -4   12.72    7.02
   4   2  -3  254.92   19.81
   4  -2  -3  252.82   19.24
   4  -2  -3  242.78   16.59
  -4   2  -3  265.25   21.20
  -4  -2  -3  264.12   20.62
  -4  -2  -3  263.21   16.54
  -4   2  -3  258.77   18.86
   4  -2  -3  246.59   15.10
   4   2  -3  231.62   11.76
   4  -2  -2   37.74    8.35
   4   2  -2   25.50    5.73
   4  -2  -2   29.08    5.38
  -4  -2  -2   36.81    7.98
   4   2  -2   25.79    3.75
  -4   2  -2   29.86    7.49
   4  -2  -2   24.38    4.38
  -4  -2  -2   31.45    5.31
  -4   2  -2   34.29    7.44
   4  -2  -2   27.00    5.89
  -4  -2  -1  156.62    9.81
   4  -2  -1  143.70    8.97
   4  -2  -1  150.56   10.42
  -4   2  -1  169.71   13.76
   4   2  -1  153.08   10.42
  -4  -2  -1  154.34   13.51
   4   2  -1  138.90   12.43
  -4   2   0  899.50   29.87
   4  -2   0  944.20   28.42
  -4   2   0 1001.82   30.19
  -4   2   0  988.26   28.79
  -4  -2   0  945.96   28.49
  -4   2   1  168.53   13.97
   4   2   1  134.80    5.43
  -4  -2   1  153.60   14.05
  -4   2   1  159.47   10.78
   4  -2   1  152.14   13.41
  -4   2   1  165.47   11.37
  -4   2   2   21.32    6.42
  -4  -2   2   27.67    8.52
   4   2   2   24.00    4.39
  -4  -2   2   28.31    4.21
   4  -2   2   29.52    7.81
  -4   2   2   35.37    5.06
  -4  -2   2   29.59    6.58
  -4   2   3  259.38   18.96
  -4  -2   3  234.46   16.19
  -4  -2   3  249.96   15.00
   4   2   3  223.51   15.10
  -4  -2   3  273.94   21.97
   4  -2   3  259.94   20.07
  -4   2   3  236.24    9.62
   4   2   3  228.80   19.99
  -4   2   4   17.35    6.58
  -4  -2   4   11.06    4.89
  -4  -2   4    4.32    6.90
   4  -2   4   11.40    7.35
   4   2   4    2.73    6.53
  -4  -2   4    9.78    4.94
   4   2   4    3.81    5.90
  -4   2   5   20.44    7.25
   4   2   5    8.46    7.15
  -4  -2   5   17.17    6.04
  -4  -2   5    5.62    8.26
   4  -2   5   16.33    8.37
   4   2   5   16.15    8.13
  -4  -2   5   13.04    5.78
  -4   2   6   58.22   11.15
   4   2   6   37.55   10.26
   4  -2   6   58.78   12.22
   4   2   6   53.80   12.40
  -4  -2   6   54.17   14.47
   4   2   7    8.54    6.35
  -4   2   7   10.43    9.42
  -4  -2   7    7.98    8.73
   4  -2   7    7.51    7.49
   4   2   7   24.28   10.13
   4  -3  -7   29.45   10.27
   4   3  -7    7.84    8.92
   4  -3  -7   10.03    8.59
  -4  -3  -7   23.95   11.53
  -4   3  -7    5.69    8.07
   4  -3  -6    5.75    7.63
   4   3  -6   15.53    8.71
   4  -3  -6   17.93    8.45
  -4   3  -6   19.67    8.61
  -4  -3  -6    8.67    7.94
  -4  -3  -6   20.03    7.93
  -4   3  -6   17.47    7.35
   4   3  -5  435.94   31.00
   4  -3  -5  423.63   30.08
   4  -3  -5  397.71   28.05
  -4  -3  -5  464.94   28.05
  -4   3  -5  412.36   30.80
  -4   3  -5  416.77   32.54
  -4  -3  -5  377.73   29.39
   4  -3  -4   59.89    6.03
   4  -3  -4   59.86   10.44
   4   3  -4   56.24   11.45
   4  -3  -4   51.39   10.51
  -4   3  -4   58.80   12.39
  -4  -3  -4   41.84   10.66
  -4   3  -4   57.01   11.05
   4   3  -4   48.45    3.66
   4  -3  -4   55.55    7.62
  -4  -3  -4   56.47    9.39
   4   3  -3  248.74   19.51
   4  -3  -3  229.86   18.20
   4  -3  -3  207.76   15.74
  -4   3  -3  187.28    6.70
  -4   3  -3  253.57   20.97
  -4  -3  -3  231.24   19.35
  -4  -3  -3  224.98   14.68
   4   3  -3  223.69   12.15
   4  -3  -3  190.37   12.28
   4  -3  -3  216.15   13.96
  -4   3  -3  209.19   17.95
   4  -3  -2  625.20   27.01
   4  -3  -2  578.55   22.15
  -4  -3  -2  543.59   17.93
  -4  -3  -2  538.60   26.68
   4  -3  -2  587.00   19.14
  -4   3  -2  563.28   27.81
  -4   3  -2  576.77   26.23
   4   3  -2  524.12   21.42
  -4   3  -1  334.20   18.52
   4  -3  -1  332.99   14.55
  -4  -3  -1  356.10   15.19
   4  -3  -1  311.71   15.36
  -4   3  -1  294.70   18.05
  -4  -3  -1  290.85   17.91
  -4  -3  -1  314.98   10.97
   4   3  -1  301.73   18.41
  -4   3   0   10.02    5.24
   4   3   0    3.95    5.84
  -4  -3   0   14.41    5.38
  -4   3   0   13.10    4.97
   4  -3   0    4.71    4.80
  -4   3   0   12.49    4.93
  -4   3   1  303.77   19.45
  -4  -3   1  346.47   20.90
  -4  -3   1  313.92    7.01
   4  -3   1  307.51   19.05
  -4  -3   1  343.20   16.55
  -4   3   1  340.75   17.00
  -4   3   1  329.96   14.97
   4   3   1  324.00   22.69
  -4   3   2  604.41   27.96
  -4  -3   2  598.90   29.45
   4   3   2  558.56   17.75
  -4  -3   2  569.31   17.67
  -4  -3   2  598.05   25.96
   4  -3   2  567.77   27.41
  -4   3   2  539.97   19.22
   4   3   2  604.69   31.55
  -4   3   3  257.78   19.76
   4   3   3  208.94   14.49
  -4  -3   3  212.41   14.27
  -4  -3   3  237.36   21.26
   4  -3   3  245.29   19.98
  -4   3   3  220.25   11.05
  -4  -3   3  214.85   16.95
   4   3   3  201.82   19.37
  -4  -3   4   66.97    9.36
  -4   3   4   63.06   10.88
   4   3   4   56.33   11.49
  -4  -3   4   57.17   12.44
   4  -3   4   61.84   12.04
  -4  -3   4   58.81    9.95
  -4   3   5  402.48   27.79
  -4  -3   5  382.38   21.19
  -4  -3   5  466.13   33.08
   4  -3   5  441.35   29.87
   4   3   5  419.77   29.42
  -4  -3   5  428.67   26.19
   4   3   5  386.00   28.63
  -4   3   6   19.57    7.64
   4   3   6   17.09    8.04
  -4  -3   6    8.50   10.38
   4  -3   6    1.60    7.10
   4   3   6   19.33    9.02
  -4  -3   6   11.86    5.64
  -4   3   7   10.40    6.35
   4   3   7   17.75    8.12
  -4  -3   7   13.92    9.28
   4  -3   7   11.59    9.75
   4   3   7   33.38   11.15
   4  -3   7   20.82    7.67
   4  -4  -7    0.59    5.09
   4   4  -7   -0.12    7.06
   4  -4  -7   19.57    9.76
  -4  -4  -7    9.45    9.31
   4  -4  -6  103.58   16.37
   4   4  -6  103.24   17.57
   4  -4  -6   67.79   14.27
  -4  -4  -6   70.68   14.99
  -4   4  -6   80.81   17.15
  -4   4  -6   87.74   16.73
   4  -4  -5   49.92   12.33
   4   4  -5   51.49   11.83
   4  -4  -5   57.10   12.92
  -4   4  -5   53.26   13.20
  -4  -4  -5   59.37   12.75
  -4  -4  -5   72.31   11.77
  -4   4  -5   30.99   10.76
   4   4  -4    9.71    6.63
   4  -4  -4    7.58    6.97
   4  -4  -4   10.59    5.70
  -4   4  -4    1.09    5.60
  -4  -4  -4    5.83    6.17
  -4   4  -4   12.54    7.08
  -4  -4  -4   21.50    6.01
   4  -4  -3   21.76    4.94
   4   4  -3   16.87    6.94
   4   4  -3   16.72    4.57
   4  -4  -3   15.12    6.89
  -4  -4  -3   15.22    5.34
   4  -4  -3   10.43    4.85
  -4   4  -3    9.68    2.85
  -4   4  -3   20.65    8.09
   4   4  -3   11.93    2.01
  -4  -4  -3   19.86    7.35
   4   4  -3   14.39    1.96
  -4   4  -3   26.82    8.47
   4  -4  -3   12.89    4.27
  -4  -4  -3   17.10    4.88
   4   4  -2   52.86    8.06
   4  -4  -2   76.90   10.13
  -4  -4  -2   50.27    6.40
   4  -4  -2   57.62    8.09
  -4   4  -2   71.04   11.01
  -4  -4  -2   47.97    8.98
  -4  -4  -2   62.54    5.71
   4  -4  -2   64.90    7.49
  -4   4  -2   65.07   10.20
   4   4  -1   25.47    7.02
  -4   4  -1   28.97    7.20
  -4  -4  -1   25.58    5.18
  -4  -4  -1   20.81    6.44
  -4   4  -1   18.74    6.09
   4  -4  -1   20.86    5.41
  -4  -4  -1   19.34    2.57
  -4   4   0 1025.25   33.84
  -4  -4   0 1109.54   32.65
   4  -4   0 1089.51   32.18
  -4   4   0 1107.86   30.90
   4   4   0 1056.72   36.40
   4   4   1   16.60    7.64
  -4   4   1   11.12    6.09
   4   4   1   21.78    4.91
  -4  -4   1   19.61    7.21
  -4  -4   1   19.56    2.45
   4  -4   1   25.14    7.17
  -4   4   1   24.18    4.70
  -4   4   1   22.98    5.37
  -4  -4   1   23.66    5.25
  -4   4   2   60.76   10.68
   4   4   2   57.40   11.84
   4   4   2   58.20    5.97
   4   4   2   61.85    6.50
  -4  -4   2   55.64   10.63
  -4  -4   2   59.47    6.28
   4  -4   2   43.06    9.58
  -4   4   2   56.93    7.21
  -4   4   2   63.95    6.34
  -4  -4   2   61.95    9.61
  -4  -4   2   64.28    9.41
  -4   4   3   20.03    7.54
   4   4   3   18.71    8.56
   4   4   3   11.24    2.70
  -4  -4   3   31.90    9.96
  -4  -4   3   14.57    4.51
   4   4   3   15.01    4.93
   4  -4   3   23.00    7.77
  -4   4   3   15.86    4.13
  -4  -4   3   17.21    6.31
  -4   4   4    8.49    6.01
   4   4   4   13.47    7.97
  -4  -4   4    2.98    7.39
   4  -4   4   12.65    7.39
  -4  -4   4   16.62    6.43
  -4   4   5   56.27   11.80
   4   4   5   44.26   11.23
  -4  -4   5   50.39   12.87
   4  -4   5   46.99   11.35
  -4  -4   5   59.04   10.89
  -4   4   6   83.73   14.37
   4   4   6   76.68   13.74
  -4  -4   6   68.25   15.41
   4  -4   6   79.26   15.58
   4   4   6   96.62   16.17
  -4  -4   6  105.56   14.44
  -4   4   7    5.12    5.71
   4   4   7   15.14    7.64
  -4  -4   7    8.69    8.08
   4  -4   7   -0.52    7.23
   4   4   7   -8.30    6.64
   4  -5  -7   17.08    8.63
   4  -5  -7   14.34    8.97
  -4  -5  -7    4.78    7.70
  -4   5  -7   -4.29    8.38
   4  -5  -6    9.16    5.63
   4   5  -6   13.23    9.44
   4  -5  -6    8.85    8.57
  -4   5  -6   20.42    9.88
  -4  -5  -6   29.46   10.87
  -4   5  -6   14.33    9.90
   4   5  -5   65.99   12.88
   4  -5  -5   82.30   13.59
   4  -5  -5   62.73   12.76
  -4   5  -5   62.89   14.67
  -4  -5  -5   90.88   15.33
  -4   5  -5   70.10   14.17
   4   5  -4   23.66    4.33
  -4  -5  -4   23.31    7.43
   4  -5  -4   28.64    8.71
   4  -5  -4   31.98    8.35
   4   5  -4   23.49    8.32
  -4   5  -4   20.39    9.08
  -4  -5  -4   26.98    8.47
  -4   5  -4   41.14   10.38
   4  -5  -3   85.18    9.76
   4   5  -3  105.67   13.73
  -4   5  -3   87.84    7.75
   4  -5  -3   98.56   11.88
  -4  -5  -3   86.01   10.39
   4  -5  -3   87.83   12.37
  -4  -5  -3   81.30   12.33
  -4   5  -3  102.73   14.63
  -4   5  -3   97.78   13.46
   4  -5  -3   87.90    9.03
   4   5  -3   90.33    9.23
   4  -5  -2  177.20   14.67
   4  -5  -2  184.15   14.01
  -4   5  -2  155.50   10.82
  -4  -5  -2  180.03   11.74
   4  -5  -2  174.46   12.76
  -4   5  -2  168.63   16.43
  -4  -5  -2  185.62   16.51
   4   5  -2  179.75   14.14
  -4   5  -2  155.34   15.47
  -4   5  -1   98.98   10.95
   4   5  -1   87.98   11.37
  -4  -5  -1   84.33    8.89
  -4  -5  -1   84.37   10.88
  -4   5  -1   91.51   11.15
   4  -5  -1   94.03   10.17
  -4   5   0  657.16   27.58
  -4  -5   0  655.23   26.02
   4  -5   0  624.22   25.62
  -4   5   0  675.08   24.60
   4  -5   0  625.60   21.30
   4   5   0  630.44   29.94
  -4   5   1  105.89   12.44
   4   5   1   69.16   12.57
   4   5   1   76.90    8.96
  -4  -5   1   80.01    5.69
  -4  -5   1   93.88   11.89
  -4  -5   1   82.61    8.20
   4  -5   1   84.80   10.90
  -4   5   1   94.83    8.23
  -4  -5   1  107.74   12.96
  -4   5   2  187.29   17.45
   4   5   2  154.74   11.31
  -4  -5   2  175.07   16.93
  -4  -5   2  165.70   10.76
  -4  -5   2  173.71   14.16
   4  -5   2  176.91   16.10
  -4   5   2  180.43   12.92
  -4   5   2  163.23    9.19
  -4  -5   2  179.23   16.44
   4   5   2  161.79   17.59
  -4   5   3   80.99   13.05
   4   5   3   68.48   12.84
   4   5   3   81.57    7.41
  -4  -5   3   76.14    9.12
  -4  -5   3  120.65   16.32
  -4   5   3   87.91    8.88
   4  -5   3   85.99   13.09
  -4  -5   3   86.46   12.21
  -4   5   4   34.98    9.75
   4   5   4   30.10    9.51
  -4  -5   4   30.58    9.52
   4  -5   4   20.72    7.88
  -4  -5   4   27.41    7.87
  -4   5   5   81.88   14.21
   4   5   5   71.61   13.72
  -4  -5   5   88.87   15.92
   4  -5   5   57.03   12.80
  -4  -5   5   77.69   13.11
  -4   5   6   16.97    7.49
   4   5   6   24.59    8.63
  -4  -5   6   16.66    7.96
   4  -5   6   16.09    8.85
  -4  -5   6   25.55    8.72
  -4   5   7   27.29   10.10
   4   5   7   24.45    9.62
  -4  -5   7   13.38    8.79
   4  -5   7   19.08    9.18
   4   5   7   18.98   10.26
   4  -5   7   18.39    8.26
   4  -6  -7   23.24   11.21
  -4  -6  -7    7.76    9.42
   4  -6  -6   30.52   10.43
   4   6  -6   36.90   11.38
   4  -6  -6   21.09    8.38
  -4  -6  -6   38.28   12.48
  -4   6  -6   37.99   11.70
  -4  -6  -5   88.27   13.74
   4   6  -5   73.56   13.92
   4  -6  -5   84.86   14.23
   4  -6  -5   66.49   12.56
  -4  -6  -5   78.93   14.79
  -4   6  -5   60.83   14.45
  -4   6  -5   63.99   14.03
   4   6  -4  278.95   23.16
   4  -6  -4  311.05   23.81
   4  -6  -4  244.16   20.90
  -4  -6  -4  274.74   20.50
  -4   6  -4  252.39   24.28
  -4  -6  -4  264.76   23.18
   4   6  -4  295.79   14.78
  -4   6  -4  310.41   26.25
   4   6  -3  408.64   24.98
   4  -6  -3  397.63   24.01
  -4   6  -3  388.72   17.63
   4  -6  -3  403.08   24.06
  -4  -6  -3  409.08   21.66
  -4   6  -3  446.24   29.47
   4   6  -3  399.89   14.57
  -4  -6  -3  382.03   25.35
   4   6  -3  407.60   19.79
  -4   6  -3  336.57   24.85
   4  -6  -2  252.59   17.05
   4  -6  -2  268.11   17.73
  -4   6  -2  227.20   14.04
  -4  -6  -2  225.53   13.61
  -4   6  -2  292.48   22.23
  -4  -6  -2  246.67   19.04
   4   6  -2  245.38   17.06
  -4   6  -2  252.35   19.92
  -4   6  -1   97.97   11.35
   4   6  -1   84.23   11.78
  -4  -6  -1   82.28   10.97
  -4   6  -1  109.41   12.25
   4  -6  -1   95.59   10.73
  -4  -6  -1   95.20   10.04
  -4  -6  -1   91.63    7.08
  -4   6   0   53.41    9.65
   4   6   0   55.14   10.63
  -4  -6   0   55.79    9.24
   4  -6   0   50.57    8.91
   4  -6   0   43.53    6.21
  -4   6   0   51.15    7.66
  -4   6   1   89.12   12.82
   4   6   1   82.96   12.98
   4   6   1   88.56   10.49
  -4  -6   1   90.08   12.19
   4  -6   1   95.40   11.53
  -4  -6   1   91.10    8.20
  -4   6   1   95.82    8.40
  -4  -6   1   96.08   12.49
  -4   6   2  264.27   21.46
   4   6   2  239.71   15.31
  -4  -6   2  278.76   21.94
  -4  -6   2  200.97   12.57
  -4   6   2  244.25   10.19
   4  -6   2  248.61   19.40
  -4  -6   2  253.31   16.96
  -4  -6   2  290.51   20.94
   4   6   2  262.37   22.69
  -4   6   3  401.03   26.98
   4   6   3  378.26   17.61
  -4  -6   3  410.32   28.36
   4  -6   3  375.72   25.39
  -4   6   3  338.13   10.10
  -4  -6   3  392.23   25.42
   4   6   3  414.73   29.23
  -4   6   4  279.51   23.80
  -4  -6   4  272.35   24.59
   4  -6   4  283.63   23.64
  -4  -6   4  280.81   23.15
   4   6   4  280.07   25.09
  -4   6   5   70.89   14.03
   4   6   5   77.67   14.31
  -4  -6   5   75.12   14.63
   4  -6   5   75.74   14.12
  -4  -6   5   80.64   13.59
  -4   6   6   37.94   10.93
   4   6   6   18.29    8.56
  -4  -6   6   37.93   11.99
   4  -6   6   41.90   12.04
   4  -6   6   36.77   10.69
  -4  -6   6   28.20    9.47
  -4   6   7   35.77   10.57
   4   6   7   27.19    8.73
   4  -6   7   22.39    9.37
   4  -6   7   26.96   10.76
  -4  -7  -7   21.05   11.09
  -4  -7  -6   -2.46    7.00
   4  -7  -6   -6.75    6.84
   4   7  -6  -20.34    8.83
   4  -7  -6  -13.02    8.86
  -4  -7  -6   12.25    8.37
  -4   7  -6   -5.77    8.18
   4   7  -5   12.46    7.36
   4  -7  -5   24.95    8.77
   4  -7  -5   20.40    9.59
  -4  -7  -5    2.14    6.69
  -4  -7  -5   11.43    7.71
  -4   7  -5   12.93    7.99
   4   7  -4   42.50    6.97
   4  -7  -4   30.56    8.97
   4   7  -4   52.21   10.66
   4  -7  -4   49.36   10.95
  -4  -7  -4   44.47    9.70
  -4  -7  -4   41.20   10.78
  -4   7  -4   76.55   14.79
  -4   7  -4   57.86   12.80
   4   7  -3   32.49    7.00
   4   7  -3   17.51    6.81
   4  -7  -3   13.71    7.07
  -4  -7  -3   14.48    6.11
  -4   7  -3   25.53    5.20
   4  -7  -3   14.51    5.90
  -4   7  -3   21.26    8.33
  -4  -7  -3   32.06    8.88
  -4   7  -3   18.20    8.17
   4  -7  -2   59.44    9.22
   4   7  -2   61.72    9.68
   4   7  -2   59.39    9.94
  -4   7  -2   54.16    8.73
   4  -7  -2   52.89    9.49
  -4  -7  -2   45.57    7.18
  -4   7  -2   50.15   10.50
  -4  -7  -2   46.71    9.78
  -4   7  -2   38.27    9.25
   4  -7  -1   83.55    9.48
  -4   7  -1   85.13   10.80
   4   7  -1   86.78   12.38
  -4  -7  -1   74.43    7.22
  -4  -7  -1   77.31    9.79
  -4   7  -1   92.99   11.94
  -4  -7  -1   77.38   11.52
   4  -7  -1   76.78   10.53
  -4   7   0  142.34   14.27
  -4  -7   0  145.13   14.20
  -4   7   0  161.84   12.92
   4  -7   0  146.33   14.14
   4  -7   0  134.17   10.40
  -4  -7   0  139.80   15.00
   4   7   0  155.96   16.18
  -4   7   1   89.33   12.69
   4   7   1   89.53   14.09
  -4  -7   1   87.18   12.15
   4  -7   1   84.03   11.76
  -4   7   1   71.24    7.43
  -4  -7   1   66.77    6.96
  -4  -7   1   96.14   12.83
  -4   7   2   63.45   12.24
   4   7   2   56.35   12.03
   4   7   2   43.39    7.38
  -4  -7   2   43.95   10.31
   4  -7   2   70.32   11.50
  -4   7   2   39.06    3.04
  -4  -7   2   59.84    8.60
  -4  -7   2   57.68   10.59
  -4   7   3   16.49    8.76
   4   7   3   22.63   10.27
  -4  -7   3   20.23    9.62
   4  -7   3   25.08    8.33
  -4  -7   3   14.83    6.78
  -4   7   4   50.32   11.85
   4   7   4   41.39   11.31
  -4  -7   4   48.62   12.49
   4  -7   4   47.15   11.27
  -4  -7   4   46.66   10.37
  -4   7   5   21.58    9.25
   4   7   5   21.47    9.23
  -4  -7   5   24.51   10.00
   4  -7   5   13.35    8.36
  -4  -7   5   21.74    9.20
  -4   7   6    7.57    5.85
   4   7   6    4.46    6.23
  -4  -7   6    2.08    6.83
   4  -7   6   21.67    8.70
   4  -7   6   10.51    8.72
  -4  -7   6   11.38    7.08
  -4   7   7   19.65    9.09
   4  -7   7   28.01   10.19
   4  -7   7   39.72   13.97
  -4  -8  -7   18.32   10.39
   4  -8  -6   55.29   14.33
   4   8  -6   58.85   13.54
   4  -8  -6   78.93   15.78
  -4  -8  -6   52.39   12.77
  -4  -8  -6   53.68   14.97
  -4   8  -6   80.70   18.01
  -4  -8  -5   18.31    8.74
   4  -8  -5   11.08    7.49
   4   8  -5   19.06    8.88
   4  -8  -5    8.87    7.31
  -4  -8  -5   19.23    8.94
  -4   8  -5   33.65   11.58
   4   8  -4   38.05    7.29
   4   8  -4   23.98    8.32
   4  -8  -4   50.20   11.18
  -4  -8  -4   24.01    7.98
   4  -8  -4   33.35   10.32
  -4  -8  -4   35.25    9.65
  -4   8  -4   32.25   10.55
   4   8  -3   51.09    8.95
   4   8  -3   42.73    9.31
   4  -8  -3   61.96   10.63
   4  -8  -3   55.74   10.33
  -4  -8  -3   64.38   10.09
  -4  -8  -3   35.57    9.80
  -4   8  -3   40.58   10.94
  -4   8  -3   28.84    9.32
   4   8  -2   52.24    9.40
  -4   8  -2   51.60    8.38
   4   8  -2   52.60    9.83
  -4  -8  -2   51.86    8.04
   4  -8  -2   58.19    9.73
   4  -8  -2   69.29    9.69
  -4   8  -2   61.47   11.57
  -4  -8  -2   70.83   11.74
  -4   8  -2   61.19   11.89
   4  -8  -1  362.87   17.76
  -4   8  -1  381.78   21.85
  -4  -8  -1  380.80   16.59
  -4  -8  -1  381.25   21.39
  -4   8  -1  425.56   24.43
   4  -8  -1  389.63   22.82
  -4  -8  -1  368.14   22.88
   4   8  -1  390.23   24.81
  -4   8   0   25.30    8.06
   4   8   0   40.15    9.42
  -4  -8   0   27.32    7.94
  -4   8   0   27.64    6.51
   4  -8   0   29.75    5.71
   4  -8   0   46.37    9.17
  -4  -8   0   30.82    8.30
  -4   8   1  365.16   24.71
  -4  -8   1  395.01   24.93
   4  -8   1  358.73   23.50
   4   8   1  330.72   25.35
  -4  -8   1  351.93   24.57
  -4  -8   1  359.71   14.04
  -4   8   2   54.73   11.54
   4   8   2   45.33   11.66
  -4  -8   2   55.60   12.28
   4  -8   2   59.01   11.04
  -4  -8   2   56.10    8.72
  -4  -8   2   60.38   11.60
  -4   8   3   50.01   11.20
   4   8   3   32.51   10.54
  -4  -8   3   46.54   12.13
   4  -8   3   35.61   10.12
  -4  -8   3   47.40   10.58
  -4   8   4   31.43   10.65
   4   8   4   44.86   13.18
  -4  -8   4   49.40   12.62
   4  -8   4   29.54    9.38
  -4  -8   4   45.73   10.62
  -4   8   5    8.77    7.23
   4   8   5   20.14    9.86
  -4  -8   5   14.85   10.36
   4  -8   5    9.85    7.09
   4  -8   5   18.90    9.67
  -4  -8   5   19.69    8.94
  -4   8   6   95.89   17.10
   4   8   6   45.64   13.52
  -4  -8   6   52.18   13.51
   4  -8   6   67.46   13.75
   4  -8   6   55.24   12.95
  -4  -8   6   52.42   12.97
  -4  -9  -6   -2.72    7.86
   4   9  -6   11.01    7.69
   4  -9  -6    5.80    7.61
   4  -9  -6    3.53    4.32
  -4  -9  -6   10.54    6.80
   4  -9  -5   46.14   11.89
   4   9  -5   62.08   12.56
   4  -9  -5   59.41   12.43
  -4  -9  -5   62.19   12.78
  -4  -9  -5   52.07   12.08
  -4   9  -5   50.57   12.99
   4   9  -4   87.30   11.07
   4  -9  -4   91.29   14.56
  -4  -9  -4   96.15   13.46
   4   9  -4   74.40   12.74
   4  -9  -4   86.58   13.01
  -4  -9  -4   77.97   13.88
  -4   9  -4   96.00   17.41
   4   9  -3  139.28   15.28
   4  -9  -3  129.93   14.32
  -4  -9  -3  138.45   14.31
   4  -9  -3  126.34   15.82
  -4  -9  -3  122.26   15.84
  -4   9  -3  126.25   17.47
   4   9  -3  141.06   14.69
   4   9  -2  233.28   17.89
   4  -9  -2  269.20   17.33
  -4   9  -2  254.32   17.59
   4  -9  -2  229.15   19.37
  -4  -9  -2  256.60   16.81
  -4  -9  -2  241.87   20.32
   4   9  -2  277.01   20.91
  -4   9  -2  262.02   22.67
   4  -9  -1  120.68   10.39
  -4   9  -1  110.80   12.86
   4   9  -1  106.06   15.00
  -4  -9  -1  113.50   10.01
   4  -9  -1  112.72   13.48
  -4   9   0   29.70    8.52
   4   9   0   29.82    9.70
  -4  -9   0   34.58    8.83
   4  -9   0   31.25    6.01
   4  -9   0   35.41    9.27
  -4  -9   0   29.12    8.25
  -4   9   1  107.09   14.88
   4   9   1  117.66   16.58
  -4  -9   1  105.73   14.49
   4  -9   1  116.95   14.44
  -4  -9   1  100.80   13.88
  -4   9   2  229.87   21.92
  -4  -9   2  275.10   23.45
   4  -9   2  261.50   21.80
   4   9   2  245.79   24.07
  -4  -9   2  239.16   21.50
  -4   9   3  122.92   17.33
   4   9   3  137.12   19.04
  -4  -9   3  156.07   19.20
   4  -9   3  136.75   16.78
  -4  -9   3  134.25   17.73
  -4   9   4   75.33   14.83
   4   9   4   79.81   16.47
  -4  -9   4   94.39   16.26
   4  -9   4   77.29   14.39
  -4  -9   4   86.56   15.11
  -4   9   5   53.91   13.62
   4   9   5   61.38   13.10
  -4  -9   5   42.80   12.27
   4  -9   5   80.78   14.44
   4  -9   5   65.14   15.09
  -4  -9   5   66.30   14.21
  -4   9   6   23.54   10.09
   4   9   6    5.44    7.65
  -4  -9   6   23.71   10.30
   4  -9   6    0.16    6.57
   4  -9   6  -11.20    7.13
  -4  -9   6    4.44    6.74
  -4 -10  -6   25.99   11.02
   4  10  -6    7.28    7.46
   4 -10  -6   36.89   10.89
  -4 -10  -6   29.06   11.06
   4 -10  -5   -6.15    6.59
   4  10  -5    9.70    6.25
  -4 -10  -5    2.20    6.78
   4 -10  -5   15.65    9.24
  -4 -10  -5   -0.62    4.52
  -4  10  -5   -7.10    7.62
  -4 -10  -4   -6.62    6.56
   4 -10  -4   -3.77    6.24
   4  10  -4    3.10    4.59
   4 -10  -4   -2.03    6.61
  -4 -10  -4    6.55    6.61
  -4  10  -4   -0.99    6.14
   4  10  -3   98.55   13.23
   4  10  -3   79.92   11.96
  -4 -10  -3   81.93   12.13
   4 -10  -3   93.13   12.12
   4 -10  -3  107.99   15.12
  -4 -10  -3   89.03   14.04
  -4  10  -3   87.29   15.25
   4 -10  -3   79.41    9.52
   4  10  -2   19.65    8.42
  -4  10  -2   17.31    6.05
   4  10  -2   20.38    6.35
  -4 -10  -2   10.46    5.30
   4 -10  -2   17.73    5.99
   4 -10  -2   26.29    8.20
  -4 -10  -2   23.80    8.12
  -4  10  -2   32.63   10.43
  -4 -10  -1   28.93    6.16
  -4  10  -1   24.93    7.56
   4 -10  -1   22.42    5.21
   4  10  -1   31.41    9.90
   4 -10   0  149.86   10.16
  -4  10   0  145.82   16.58
  -4 -10   0  147.45   16.39
   4 -10   0  177.88   17.72
   4  10   0  171.71   19.57
  -4 -10   0  161.52   17.20
  -4  10   1   42.22   11.29
   4  10   1   42.45   11.43
  -4 -10   1   32.06    9.60
   4 -10   1   30.17    9.05
  -4 -10   1   41.62    9.51
  -4  10   2    7.88    7.37
   4  10   2    4.10    7.75
  -4 -10   2   17.41    9.00
   4 -10   2   11.70    6.92
  -4 -10   2   18.13    7.42
  -4  10   3   86.90   16.10
   4  10   3   84.87   16.39
  -4 -10   3   80.93   15.18
   4 -10   3   80.01   14.15
  -4 -10   3  109.79   16.67
  -4  10   4   -8.23    8.06
   4  10   4  -12.64    8.85
  -4 -10   4   11.57    8.48
   4 -10   4    3.06    6.56
   4 -10   4  -17.98    9.26
  -4 -10   4    6.62    6.49
  -4  10   5    1.09    7.14
   4  10   5   -2.95    6.63
  -4 -10   5    7.81    8.69
   4 -10   5    1.16    5.80
   4 -10   5    5.36    7.54
  -4 -10   5   11.36    9.12
   4  10   6   28.30   10.83
   4 -10   6   12.87    9.42
  -4 -10   6    9.22    7.51
  -4 -11  -6   14.39    9.66
   4  11  -6   20.90    7.54
   4 -11  -5   37.04   11.81
  -4 -11  -5   54.91   12.81
   4  11  -5   44.84   11.36
  -4 -11  -5   39.97   11.60
  -4  11  -5   70.27   17.29
   4 -11  -4   58.63   13.17
   4  11  -4   69.59   12.82
  -4 -11  -4   58.08   10.96
  -4 -11  -4   53.63   11.91
  -4  11  -4   61.57   14.98
   4  11  -3   36.26    9.47
  -4 -11  -3   29.49    8.34
   4  11  -3   24.84    7.61
   4 -11  -3   30.56    7.48
   4 -11  -3   16.13    8.59
  -4 -11  -3   35.75    9.58
  -4  11  -3   25.94   10.52
   4  11  -2    8.39    6.53
   4  11  -2    6.14    4.70
  -4  11  -2    8.59    4.98
  -4 -11  -2   10.23    5.20
   4 -11  -2   11.80    7.88
   4 -11  -2    3.68    4.04
  -4 -11  -2    7.53    6.73
  -4  11  -2    6.80    7.14
   4 -11  -2   11.21    5.46
  -4 -11  -1   71.26    9.57
   4 -11  -1   64.13    7.39
  -4  11  -1   71.29   11.73
   4  11  -1   83.86   14.49
  -4 -11  -1   62.68   11.68
  -4  11   0  100.23   14.57
   4  11   0   99.17   15.70
  -4 -11   0   91.02   13.76
   4 -11   0   91.69   14.09
  -4 -11   0   99.95   14.17
  -4  11   1   69.56   12.96
   4  11   1   76.05   14.57
  -4 -11   1   77.97   13.93
   4 -11   1   74.86   13.54
  -4 -11   1   80.89   13.77
  -4  11   2    4.40    7.74
   4  11   2   -1.03    8.33
  -4 -11   2    3.06    8.11
   4 -11   2   14.47    7.12
  -4 -11   2   12.82    7.74
  -4  11   3   42.44   13.42
   4  11   3   44.44   12.75
  -4 -11   3   42.10   12.37
   4 -11   3   53.27   12.96
   4 -11   3   43.40   11.81
  -4 -11   3   32.08   11.49
  -4  11   4   69.04   15.00
   4  11   4   74.52   16.50
  -4 -11   4   62.11   14.06
   4 -11   4   71.19   14.62
   4 -11   4   58.56   13.11
  -4 -11   4   74.98   15.67
  -4  11   5   86.30   17.22
   4  11   5   79.35   16.08
  -4 -11   5   49.74   13.96
   4 -11   5   41.56   12.26
   4 -11   5   60.96   14.69
  -4 -11   5   72.19   15.66
   4  11   6    8.88    7.93
   4 -12  -5    1.54    6.66
   4  12  -5   -0.77    6.03
  -4 -12  -5  -11.31    8.75
   4 -12  -4   31.46   10.70
   4  12  -4   41.45   10.10
  -4 -12  -4   51.17   11.73
  -4 -12  -4   40.09   10.99
  -4  12  -4   42.16   13.00
   4  12  -3   16.15    7.72
  -4 -12  -3   16.18    7.78
   4  12  -3   12.65    5.77
   4 -12  -3   18.69    8.71
  -4 -12  -3    2.50    6.75
  -4  12  -3   11.06    7.53
   4  12  -2  110.12   15.96
   4  12  -2   94.16   11.71
  -4  12  -2   98.18   12.36
  -4 -12  -2  103.87   12.72
   4 -12  -2  108.12   16.02
  -4 -12  -2  102.77   15.10
   4 -12  -2   94.14   12.94
  -4  12  -2  130.38   18.34
  -4 -12  -1   14.10    5.72
   4  12  -1   -1.10    6.68
  -4  12  -1    2.15    5.19
   4 -12  -1    9.01    5.73
  -4 -12  -1   20.36    8.00
  -4  12   0   -0.79    6.76
   4  12   0   13.88    9.46
  -4 -12   0  -10.35    7.50
   4 -12   0    6.04    6.83
   4 -12   0    8.93    6.83
  -4 -12   0    6.50    6.07
  -4  12   1   11.10    7.93
   4  12   1    9.73    8.36
  -4 -12   1    0.70    6.99
   4 -12   1    6.31    7.35
   4 -12   1   13.61    7.66
  -4 -12   1    6.72    7.53
  -4  12   2   98.49   16.41
   4  12   2   98.49   17.87
  -4 -12   2   98.06   16.66
   4 -12   2   91.62   16.28
   4 -12   2  122.38   18.06
  -4 -12   2  107.83   17.23
  -4  12   3   17.15    9.35
   4  12   3   26.14   11.26
  -4 -12   3   16.17    9.90
   4 -12   3   14.45    7.97
   4 -12   3    6.67    6.94
  -4 -12   3   15.10    8.06
  -4  12   4   31.87   12.32
   4  12   4   68.87   16.06
  -4 -12   4   47.61   13.23
   4 -12   4   46.32   12.52
   4 -12   4   22.43   10.09
  -4 -12   4   40.39   13.38
   4  12   5   33.88   12.43
   4 -12   5   12.05    9.26
   4 -13  -4   18.88    9.46
  -4 -13  -4   14.29    9.38
  -4 -13  -4   -0.12    6.47
  -4  13  -4   28.55   11.71
   4  13  -3   13.59    8.88
  -4 -13  -3   11.37    7.11
   4 -13  -3   21.06    9.49
  -4 -13  -3   23.19    9.71
  -4  13  -3   18.58    8.57
   4  13  -2   80.05   14.57
  -4  13  -2   92.74   12.30
   4  13  -2   69.04    9.94
  -4 -13  -2   79.32   11.92
   4 -13  -2   82.61   15.12
  -4 -13  -2   94.99   15.29
  -4  13  -2  101.26   16.99
   4 -13  -2   88.58   12.92
  -4 -13  -1   16.89    6.36
  -4  13  -1   23.89    7.69
   4  13  -1   26.99    6.64
   4 -13  -1   20.35    7.68
  -4 -13  -1   14.88    6.97
   4  13   0  169.64   21.35
  -4  13   0  140.45   17.85
   4 -13   0  132.74   18.24
  -4 -13   0  128.14   17.48
  -4  13   1   25.95    9.01
   4  13   1   41.06   12.92
  -4 -13   1   20.45    9.42
   4 -13   1   26.89    9.93
   4 -13   1   23.59    9.11
  -4 -13   1   29.55   10.94
  -4  13   2  100.22   17.28
   4  13   2  105.78   18.75
  -4 -13   2   79.07   15.30
   4 -13   2   91.15   15.41
   4 -13   2   87.02   16.22
  -4 -13   2  104.27   16.80
  -4  13   3   27.77   11.04
   4  13   3   35.32   12.33
  -4 -13   3   16.37    9.50
   4 -13   3   26.02    9.89
   4 -13   3   10.94    8.07
  -4 -13   3   44.98   12.54
  -4  13   4    4.61    9.00
   4  13   4   -1.46    8.01
  -4 -13   4    2.83    7.98
   4 -13   4  -12.61    8.99
   4 -13   4    6.42    7.87
  -4 -13   4   -2.40    6.10
  -4 -14  -3    2.00    5.79
   4 -14  -3   17.27    9.21
  -4 -14  -3    1.15    5.49
  -4  14  -3    1.86    7.09
   4  14  -2   18.73    9.30
   4 -14  -2   28.58    9.82
  -4 -14  -2   10.09    6.40
  -4 -14  -2   30.38   10.65
  -4 -14  -1    3.05    4.79
   4  14  -1    0.15    7.36
  -4  14  -1    9.02    6.57
  -4 -14  -1   12.57    8.06
   4 -14  -1    5.28    5.82
   4  14   0    7.22    8.13
  -4  14   0   30.80   10.54
   4 -14   0   26.56    9.24
  -4 -14   0   15.26    9.23
   4  14   1   20.07   10.62
  -4  14   1    2.57    7.04
  -4 -14   1   -1.30    7.14
   4 -14   1   -2.70    5.78
   4 -14   1    6.24    7.88
  -4 -14   1   11.11    7.57
  -4  14   2   23.46   10.75
   4  14   2   25.28   12.04
  -4 -14   2   28.23   11.11
   4 -14   2    5.20    7.18
   4 -14   2   42.02   13.25
  -4 -14   2   14.98    7.99
  -4  14   3   10.16    8.82
   4  14   3   25.55   11.37
  -4 -14   3   20.64    9.72
   4 -14   3   27.49   10.64
  -4 -14   3   26.11   10.31
   4 -14   3    9.38    8.16
   4  15  -3   39.86   13.02
  -4 -15  -3   13.21    7.82
   4  15  -2   14.42    8.96
   4 -15  -2   18.17    8.98
  -4 -15  -2   26.64   10.32
  -4  15  -2   16.33    9.92
   4  15  -1   29.40   12.17
  -4  15  -1   14.23    7.58
  -4 -15  -1    9.29    5.97
  -4 -15  -1   13.67    7.44
   4 -15  -1   20.03    8.08
   4  15   0   -3.04    7.84
  -4  15   0   14.56    8.26
  -4 -15   0   -6.78    7.17
   4  15   1    5.76    9.07
  -4  15   1   20.58    9.74
  -4 -15   1   15.29    8.27
   4 -15   1   34.49   12.02
   4  15   2   13.08   11.56
  -4  15   2   10.32    8.72
  -4 -15   2    5.38    7.23
   4 -15   2    2.49    6.69
  -4 -15   2   -0.02    5.10
   4 -15   2   16.16    9.63
   4  16  -3    2.02    7.57
   4  16  -2   20.00   10.37
  -4 -16  -2   44.68   11.79
   4  16  -1   52.86   15.38
  -4 -16  -1   57.10   13.38
  -4  16  -1   78.77   15.13
  -4 -16  -1   43.74   12.26
   4  16   0   -2.04    9.77
  -4  16   0   15.52    8.26
  -4 -16   0    1.22    5.59
   4 -16   0   17.34    7.82
   4  16   1   86.88   17.97
  -4  16   1   71.82   16.36
  -4 -16   1   38.89   13.01
   4 -16   1   43.25   13.63
  -4  16   2   31.04   12.10
   4 -16   2   19.66   10.88
  -4 -17  -1    7.70    7.03
  -4 -17  -1   22.66   10.08
  -4  17   0   32.60   11.65
   4 -17   0   56.60   13.70
  -4 -17   0   31.34   10.69
  -4  17   1   38.47   11.90
   4 -17   1   45.62   13.40
   4 -18   0   22.10    9.42
  -5   0  -7  -10.07    7.68
  -5   0  -6    0.04    6.60
  -5   0  -6   12.91    8.30
   5   0  -5    2.50    7.83
  -5   0  -5   -6.65    7.07
  -5   0  -5   -6.63    6.57
   5   0  -4   -4.97    7.08
   5   0  -4    7.98    4.91
  -5   0  -4   -2.87    7.18
  -5   0  -4   -3.45    5.06
   5   0  -3    0.24    5.56
   5   0  -3   -0.62    3.12
  -5   0  -3    4.27    5.87
  -5   0  -3  -13.24    5.67
   5   0  -3  -13.88    5.11
   5   0  -2   -3.30    3.02
   5   0  -2    0.53    2.43
  -5   0  -2   -2.46    5.41
  -5   0  -2    1.92    3.73
   5   0  -1   -6.38    3.96
  -5   0  -1    0.94    6.06
   5   0  -1   -2.10    1.79
  -5   0  -1   -2.10    3.80
   5   0   0   -5.65    6.32
  -5   0   0    7.74    4.72
   5   0   0    0.97    1.05
   5   0   1  -22.27    7.25
  -5   0   1  -12.72    5.20
   5   0   1    0.36    1.55
  -5   0   2   -0.18    4.39
   5   0   2   -8.64    6.11
   5   0   2   -1.01    2.19
  -5   0   3    2.68    4.47
   5   0   3   -5.00    6.02
  -5   0   4    2.26    5.50
  -5   0   4   -6.94   10.46
  -5   0   5   -0.23    4.58
  -5   0   5   -2.84    8.94
  -5   0   6   -9.45    5.93
  -5   0   6   -5.93    8.63
   5   0   6  -13.40    7.82
   5   0   6  -20.28    8.66
   5   0   7   -1.94    5.27
  -5   1  -7   23.52   10.24
   5   1  -6    5.95    8.60
   5  -1  -6    4.18    8.35
  -5   1  -6    7.65    9.15
  -5  -1  -6   14.48    9.37
  -5  -1  -6    7.26    7.64
  -5   1  -6    4.48    6.41
   5  -1  -5   85.20   13.16
   5   1  -5   82.08   15.25
   5  -1  -5   92.12   16.33
  -5   1  -5   92.58   16.90
  -5  -1  -5   74.25   15.70
  -5  -1  -5   90.91   13.60
  -5   1  -5   80.77   14.02
   5   1  -4  197.38   21.02
   5  -1  -4  221.78   21.38
   5  -1  -4  197.97   17.43
  -5  -1  -4  181.04   20.45
  -5  -1  -4  198.79   17.88
  -5   1  -4  192.13   20.81
  -5   1  -4  193.53   18.64
   5   1  -3   21.12    8.81
   5  -1  -3   18.91    7.90
   5   1  -3   15.33    5.05
   5  -1  -3   11.55    4.84
  -5   1  -3   12.05    7.13
  -5  -1  -3   27.34    8.50
  -5  -1  -3   12.22    5.27
  -5   1  -3    9.60    6.23
   5  -1  -2   31.80    5.49
   5  -1  -2   35.89    5.22
  -5  -1  -2   28.93    8.02
   5   1  -2   25.84    4.44
  -5   1  -2   37.64    8.84
  -5  -1  -2   33.75    6.27
  -5   1  -2   35.43    7.51
   5   1  -2   27.55    7.20
  -5   1  -1   80.15   11.12
   5  -1  -1   68.90    8.31
   5   1  -1   70.50    8.47
  -5  -1  -1   71.79   10.41
  -5  -1  -1   77.19    8.07
   5  -1  -1   65.50    5.97
   5  -1   0  359.82   19.77
   5   1   0  348.18   19.53
  -5   1   0  348.59   19.69
  -5  -1   0  352.03   20.31
  -5  -1   0  360.71   19.88
  -5   1   1   68.24   10.52
  -5   1   1   77.21    9.74
   5  -1   1   85.53   11.43
   5   1   1   49.62    9.60
   5   1   1   62.82    4.18
  -5  -1   1   84.58   12.24
  -5  -1   2   28.09    7.49
  -5   1   2   44.79    8.91
   5  -1   2   35.90    8.57
   5   1   2   24.35    7.96
  -5  -1   2   36.31    9.50
   5  -1   2   27.17    5.02
   5   1   2   28.10    4.77
  -5   1   3    8.46    5.90
  -5  -1   3    7.94    5.25
   5  -1   3    9.23    6.55
   5   1   3   11.45    7.14
  -5  -1   3   14.19    8.66
  -5  -1   3    9.85    3.73
   5   1   3   10.64    3.95
  -5   1   4  195.29   18.51
  -5  -1   4  181.26   16.67
  -5  -1   4  224.25   23.37
   5  -1   4  193.31   20.19
   5   1   4  178.52   19.52
  -5   1   5   87.27   12.97
  -5  -1   5   88.70   12.68
  -5  -1   5  121.65   19.17
   5  -1   5   92.79   15.45
   5   1   5   69.92   13.91
   5   1   5   75.71   14.19
  -5   1   6    0.92    3.03
   5   1   6   -6.95    6.49
   5  -1   6    7.77    6.97
   5   1   6   20.90    9.26
  -5   1   6   10.85   10.78
  -5  -1   6   -3.19   10.35
   5  -1   7   12.75    7.99
   5   1   7    3.12    5.36
  -5   2  -7   21.29   11.25
   5  -2  -6   44.10   11.52
   5   2  -6   56.79   13.21
   5  -2  -6   40.53   12.90
  -5   2  -6   35.78   11.57
  -5  -2  -6   22.23    9.92
  -5  -2  -6   61.86   13.41
  -5   2  -6   39.88   12.03
   5  -2  -5   79.52   13.41
   5   2  -5   72.46   14.50
   5  -2  -5   95.79   16.91
  -5   2  -5   95.23   16.91
  -5  -2  -5   95.43   17.28
  -5  -2  -5   88.69   13.14
  -5   2  -5   99.98   15.70
   5   2  -4   94.38   15.33
   5  -2  -4   96.21   14.92
   5  -2  -4  104.55   13.48
  -5   2  -4  102.45   15.99
  -5  -2  -4   92.54   14.86
  -5   2  -4   82.72   12.94
  -5  -2  -4   92.87   12.01
   5   2  -3  196.82   19.24
   5  -2  -3  191.47   18.34
   5  -2  -3  170.14   14.43
  -5   2  -3  200.67   20.42
  -5  -2  -3  147.73   17.19
  -5  -2  -3  184.33   14.47
  -5   2  -3  182.74   16.85
   5   2  -3  181.19   12.98
   5   2  -2    8.74    5.51
   5  -2  -2    2.03    2.64
  -5  -2  -2    5.63    5.34
   5   2  -2    3.73    2.99
  -5   2  -2    6.95    5.55
   5  -2  -2    7.29    3.60
  -5  -2  -2    1.90    3.47
  -5   2  -2    1.88    4.19
  -5  -2  -1   92.37    8.81
   5  -2  -1   82.23    7.19
   5  -2  -1   99.24   10.02
  -5  -2  -1   85.54   11.53
   5   2  -1   81.31    9.14
  -5   2  -1   90.42   11.61
   5   2  -1   91.29   12.18
  -5   2   0  350.81   21.48
   5  -2   0  296.76   18.43
   5   2   0  279.47   17.95
  -5   2   0  298.36   18.45
  -5  -2   0  314.71   19.65
  -5  -2   0  339.65   19.27
  -5   2   1   80.65   11.37
   5  -2   1   92.65   11.87
   5   2   1   73.11   10.64
  -5   2   1   99.04   10.18
  -5  -2   1   80.21   11.88
  -5   2   2    5.91    5.14
   5   2   2    5.16    2.64
  -5  -2   2    6.15    6.13
   5  -2   2    6.85    5.93
   5   2   2    5.88    6.66
  -5   2   3  159.47   16.51
  -5  -2   3  160.43   11.48
   5   2   3  168.76   13.37
  -5  -2   3  147.08   18.30
   5  -2   3  162.49   17.84
   5   2   3  182.64   18.78
   5   2   3  188.06   20.29
  -5   2   4   87.76   13.68
  -5  -2   4   97.39   12.42
  -5  -2   4   98.81   16.38
   5  -2   4   99.00   15.19
   5   2   4  102.72   15.67
   5   2   4   88.95   15.23
  -5   2   5   65.92   12.51
   5   2   5   74.83   14.66
  -5  -2   5   98.22   12.59
   5  -2   5   86.74   14.84
   5   2   5   88.01   15.20
  -5  -2   5   66.56   15.03
  -5   2   6   33.89    9.69
   5   2   6   32.76   10.15
  -5  -2   6   19.71   11.29
   5  -2   6   40.62   11.67
   5   2   6   45.28   12.16
   5   2   7   15.13    7.80
   5  -2   7   -0.52    4.82
   5  -3  -7   -7.52    6.98
  -5   3  -7  -16.52   10.23
   5   3  -6   41.27   12.59
   5  -3  -6   37.34   10.76
   5  -3  -6   35.58   10.42
  -5   3  -6   44.18   14.42
  -5  -3  -6   32.72   11.46
  -5   3  -6   23.32   10.26
   5  -3  -5    0.06    7.02
   5   3  -5    1.19    6.21
   5  -3  -5   -3.47    4.61
  -5   3  -5    7.27    6.81
  -5  -3  -5    3.75    6.90
  -5  -3  -5   -0.98    3.83
  -5   3  -5    8.35    6.79
   5   3  -4   13.95    9.18
   5  -3  -4   11.43    5.42
   5  -3  -4    4.27    7.07
  -5   3  -4   12.07    7.91
  -5  -3  -4    5.14    6.53
  -5   3  -4   25.03    8.36
  -5  -3  -4   13.33    5.30
   5   3  -3  195.88   19.27
   5  -3  -3  193.06   18.97
   5  -3  -3  180.86   15.20
  -5  -3  -3  171.39   13.40
  -5   3  -3  166.77   19.04
  -5  -3  -3  179.00   18.81
  -5   3  -3  165.24   16.88
   5   3  -3  164.85   12.53
   5  -3  -2   13.62    7.13
   5   3  -2    8.89    4.95
   5  -3  -2   12.65    4.28
  -5  -3  -2   16.66    3.86
  -5  -3  -2    7.55    5.72
   5   3  -2   11.72    3.63
  -5   3  -2    9.85    6.44
   5  -3  -2    9.12    4.05
  -5  -3  -2    8.38    3.36
  -5   3  -2   15.10    6.04
   5   3  -1    1.13    5.39
  -5  -3  -1    2.58    3.56
   5  -3  -1    2.90    2.46
   5  -3  -1   -0.10    3.54
   5   3  -1  -10.92    4.77
  -5  -3  -1   -0.36    4.63
  -5   3  -1    3.19    4.51
  -5   3   0  199.53   16.60
  -5  -3   0  213.85   15.81
   5  -3   0  198.39   15.45
  -5   3   0  186.13   14.61
  -5  -3   0  185.38   16.24
   5   3   0  203.82   18.94
  -5   3   1    1.23    4.83
   5   3   1   -1.65    6.88
   5  -3   1   -0.91    4.94
  -5   3   1    4.60    3.84
  -5  -3   1   -0.13    6.48
  -5   3   2    7.82    6.31
   5   3   2   13.00    8.31
  -5  -3   2   13.77    7.53
  -5  -3   2   14.32    2.99
   5   3   2   11.26    2.87
  -5   3   2   17.38    5.05
   5  -3   2   10.34    6.45
  -5   3   2   12.89    4.69
  -5   3   3  164.77   17.47
   5   3   3  148.31   12.11
  -5  -3   3  165.78   11.76
  -5  -3   3  163.76   19.14
   5  -3   3  133.23   16.27
   5   3   3  182.70   20.13
  -5   3   4    7.46    6.03
   5   3   4    1.28    7.19
   5  -3   4   -2.46    6.66
   5   3   4    1.30    6.17
  -5  -3   4   12.29    9.12
  -5   3   5    6.38    6.38
   5   3   5  -12.89    8.51
   5  -3   5    5.13    6.89
   5   3   5   -4.86    6.22
  -5  -3   5   -0.68    8.41
  -5   3   6   44.44   11.46
   5   3   6   26.98    8.61
   5  -3   6   23.69   10.35
   5   3   6   32.32   10.06
  -5  -3   6   42.71   13.49
   5   3   7    5.22    6.34
   5  -4  -7   17.18    9.42
   5  -4  -6   31.21    9.83
   5   4  -6   54.42   14.31
   5  -4  -6   60.52   14.82
  -5   4  -6   45.61   13.31
  -5  -4  -6   19.75   10.63
  -5   4  -6   54.91   14.61
   5  -4  -5   34.92    9.15
   5   4  -5   30.96   10.86
   5  -4  -5   44.45   11.82
  -5   4  -5   45.47   12.83
  -5  -4  -5   36.25   11.40
  -5   4  -5   35.86   10.82
   5   4  -4   73.74   14.37
   5  -4  -4   68.62   13.44
   5  -4  -4   73.75   11.54
  -5   4  -4   95.33   15.98
  -5  -4  -4   70.08   13.25
  -5   4  -4   59.04   12.33
  -5  -4  -4   80.71   10.46
   5   4  -3    6.79    6.92
   5  -4  -3   -0.30    5.98
   5   4  -3   -2.13    3.71
   5  -4  -3    2.25    4.40
  -5  -4  -3    4.89    6.85
   5   4  -3    3.29    1.68
  -5   4  -3    9.78    7.47
  -5   4  -3    4.26    5.54
  -5  -4  -3    2.05    3.33
   5  -4  -2   25.01    7.76
   5   4  -2   15.08    5.43
   5  -4  -2   22.98    6.03
  -5  -4  -2   19.97    4.45
  -5  -4  -2   15.97    7.10
  -5   4  -2   21.58    7.68
   5   4  -2   21.88    4.67
   5  -4  -2   25.42    5.66
  -5   4  -2   22.12    7.65
  -5  -4  -2   20.43    4.01
  -5   4  -1   13.78    6.56
   5   4  -1    7.71    5.66
   5  -4  -1   21.74    4.97
  -5  -4  -1   12.50    4.79
   5  -4  -1    7.50    4.41
  -5   4  -1   10.87    6.08
  -5  -4  -1   21.42    7.56
  -5  -4  -1   10.54    2.79
   5   4   0   10.84    7.65
  -5   4   0    8.74    6.01
  -5  -4   0   16.46    6.32
   5  -4   0    8.95    5.15
  -5   4   0   15.85    5.81
  -5   4   1   14.56    7.71
   5   4   1   21.87    8.96
  -5  -4   1   19.16    7.71
   5  -4   1   15.39    6.54
  -5   4   1   15.54    4.97
  -5  -4   1   12.92    4.95
  -5   4   2   19.15    7.59
   5   4   2   24.31    9.55
   5  -4   2   30.69    8.85
  -5   4   2   29.86    5.89
  -5   4   2   22.21    5.44
  -5  -4   2   19.50    8.10
  -5  -4   2   23.34    3.80
  -5   4   3    5.26    6.37
   5   4   3   -8.73    7.75
   5  -4   3    3.06    6.94
  -5  -4   3    2.26    2.84
  -5  -4   3    1.27    6.95
  -5   4   4   81.83   13.79
   5   4   4   53.70   13.41
   5  -4   4   65.33   13.18
  -5  -4   4   95.48   16.00
  -5   4   5   52.55   11.54
   5   4   5   45.33   12.30
   5  -4   5   27.48   10.60
   5   4   5   53.38   12.74
  -5  -4   5   43.13   12.58
  -5   4   6   26.81    9.09
   5   4   6   32.67   10.07
   5  -4   6   33.28   11.46
   5   4   6   27.59   10.51
  -5  -4   6   42.36   12.81
  -5   4   7    8.94    6.84
   5   4   7   17.38    8.29
   5   5  -6    3.17    8.86
   5  -5  -6    0.24    7.47
   5  -5  -6    1.13    4.84
  -5   5  -6  -17.93    9.98
  -5  -5  -6    8.70    8.68
  -5   5  -6    0.68    7.24
   5  -5  -5   81.10   13.83
   5   5  -5   93.78   16.61
   5  -5  -5   71.35   14.69
  -5   5  -5   88.24   17.26
  -5  -5  -5   75.63   14.77
  -5   5  -5   66.88   13.81
   5   5  -4  236.52   22.69
   5  -5  -4  221.67   21.20
   5  -5  -4  195.00   18.65
  -5   5  -4  262.03   25.69
  -5  -5  -4  203.27   21.86
  -5   5  -4  208.88   21.79
   5   5  -3   26.86    8.47
   5  -5  -3   18.58    7.79
   5   5  -3   16.75    5.76
   5  -5  -3   16.74    6.02
  -5  -5  -3   18.40    7.81
  -5   5  -3   17.80    8.99
   5   5  -3   14.84    3.27
  -5   5  -3    9.21    5.78
  -5  -5  -3   13.56    3.64
   5  -5  -2   99.37   12.86
   5   5  -2   94.10   12.07
   5  -5  -2   78.75    9.73
  -5   5  -2  112.46   15.30
  -5  -5  -2   83.31   13.01
   5  -5  -2   98.05   10.52
  -5  -5  -2   82.65    4.73
  -5   5  -2   98.81   13.29
  -5   5  -1  159.95   15.43
   5  -5  -1  150.80   12.42
  -5  -5  -1  169.49   13.25
   5  -5  -1  161.09   13.79
  -5   5  -1  153.93   15.45
  -5  -5  -1  164.89   16.31
   5   5  -1  163.09   16.05
  -5   5   0   88.68   11.89
   5   5   0   72.82   12.77
  -5  -5   0   76.66   10.65
   5  -5   0   89.92   11.30
  -5   5   0  104.42   11.48
  -5   5   1  160.55   16.51
  -5  -5   1  151.14   15.85
  -5  -5   1  142.23   11.38
   5  -5   1  159.05   15.70
  -5   5   1  152.14   12.13
   5   5   1  171.28   18.73
  -5   5   2  117.60   14.83
   5   5   2  120.49   16.92
  -5  -5   2   88.95    6.96
  -5  -5   2   98.92   14.85
   5  -5   2  104.39   14.39
  -5   5   2  108.79    9.42
  -5   5   3   19.45    8.29
   5   5   3   14.81   10.29
  -5  -5   3   11.35    8.20
   5  -5   3   15.88    7.98
  -5   5   3   12.53    3.63
  -5  -5   3   12.33    6.78
  -5   5   4  237.67   22.66
  -5  -5   4  234.90   24.26
   5  -5   4  221.07   22.04
  -5  -5   4  227.19   21.22
   5   5   4  240.24   24.34
  -5   5   5   60.44   13.43
   5   5   5   75.26   15.01
  -5  -5   5  100.94   16.89
   5  -5   5   65.31   14.00
  -5  -5   5   81.82   13.54
  -5   5   6    7.87    6.86
   5   5   6   12.10    8.34
  -5  -5   6   -9.63    7.76
   5  -5   6   13.72    6.79
   5   5   6    7.59    8.25
  -5  -5   6   11.78    6.10
  -5   5   7  -18.12    8.40
   5   5   7   -3.76    5.65
   5  -6  -6   28.20   10.56
   5   6  -6   20.61    9.83
   5  -6  -6   14.55    8.95
  -5  -6  -6   33.17   11.86
  -5   6  -6   34.10   13.65
  -5   6  -6   29.33   12.99
   5   6  -5   17.44    8.47
   5  -6  -5   11.20    9.00
   5  -6  -5    0.90    3.59
  -5   6  -5    4.91    6.39
  -5  -6  -5   -0.56    7.40
  -5   6  -5    3.61    6.96
   5  -6  -4    9.47    5.76
   5   6  -4   12.81    7.28
   5  -6  -4   12.29    8.50
  -5   6  -4   16.64    8.50
  -5  -6  -4   21.79    9.41
  -5   6  -4   12.88    8.50
   5   6  -3   11.27    6.80
   5   6  -3    9.72    5.50
   5  -6  -3   11.11    5.44
   5  -6  -3    5.67    5.64
  -5  -6  -3   14.06    7.23
  -5   6  -3    2.76    5.53
  -5   6  -3    2.98    6.27
   5  -6  -2   53.96    9.82
   5   6  -2   41.42    8.98
  -5  -6  -2   48.67    6.06
   5  -6  -2   43.10    8.26
  -5   6  -2   39.30   10.65
  -5  -6  -2   34.17    9.46
   5  -6  -2   41.02    7.97
  -5   6  -2   48.12   10.28
   5   6  -1   19.93    8.44
  -5   6  -1   16.89    6.69
  -5  -6  -1   26.33    6.63
  -5  -6  -1   22.29    7.74
  -5   6  -1   32.05    8.44
   5  -6  -1   22.01    6.32
  -5   6   0    4.76    5.01
   5   6   0    1.08    5.95
  -5  -6   0    4.28    5.33
   5  -6   0    1.75    4.39
  -5   6   0   12.82    5.36
  -5  -6   0    1.25    1.18
  -5   6   1   17.61    8.47
   5   6   1   27.97    9.68
  -5  -6   1   21.87    7.57
  -5  -6   1   20.89    2.37
   5  -6   1   18.11    7.42
  -5   6   1   25.25    5.83
  -5  -6   1   21.51    4.93
  -5   6   2   59.55   11.88
   5   6   2   52.33   12.53
   5   6   2   46.78    7.04
  -5  -6   2   49.51   11.05
  -5  -6   2   44.36    5.45
   5  -6   2   52.38   10.74
  -5   6   2   40.49    5.91
  -5  -6   2   43.04   10.45
  -5   6   3   14.55    7.92
   5   6   3    7.65    7.84
  -5  -6   3    4.37    7.12
   5  -6   3   17.48    7.85
  -5  -6   3   10.53    6.54
  -5   6   4   24.30    8.75
   5   6   4   25.60    9.74
  -5  -6   4   19.26    8.96
   5  -6   4   14.14    7.76
  -5  -6   4   15.00    7.85
  -5   6   5   11.26    7.36
   5   6   5    8.50    8.80
  -5  -6   5   20.84   10.15
   5  -6   5    5.45    6.73
  -5  -6   5    8.40    6.65
  -5   6   6   23.00    9.31
   5   6   6   19.74   10.90
  -5  -6   6   47.37   14.09
   5  -6   6   18.56    9.40
   5   6   6   18.83    9.49
  -5  -6   6   28.64   10.23
   5   6   7    0.83    5.96
   5  -7  -6   50.42   13.22
   5   7  -6   44.75   12.92
   5  -7  -6   55.29   13.76
  -5  -7  -6   57.81   14.95
  -5   7  -6   71.96   17.62
   5   7  -5   17.56    8.58
   5  -7  -5   20.76    9.22
   5  -7  -5   27.44    9.67
  -5  -7  -5   13.79    8.30
  -5   7  -5   20.05   10.20
  -5   7  -5   12.91    8.82
  -5  -7  -4   14.37    6.31
   5  -7  -4    5.57    5.17
   5   7  -4   15.01    7.05
   5  -7  -4   16.73    8.94
  -5   7  -4    9.68    7.96
  -5  -7  -4    8.30    7.12
  -5   7  -4   10.49    8.66
   5   7  -3   61.59   11.50
   5   7  -3   54.92    9.58
   5  -7  -3   51.55   10.24
   5  -7  -3   69.74   11.90
  -5  -7  -3   65.81    9.05
  -5   7  -3   63.87   13.85
  -5  -7  -3   72.71   13.46
  -5   7  -3   57.27   12.55
   5  -7  -2    2.43    5.11
   5   7  -2    1.05    5.19
   5  -7  -2    8.32    5.62
  -5  -7  -2    7.67    3.56
  -5   7  -2    2.76    5.51
  -5  -7  -2    3.19    5.64
   5  -7  -2    3.37    4.41
  -5   7  -2    4.06    5.34
  -5   7  -1   24.27    7.31
   5   7  -1   20.07    7.63
  -5  -7  -1   17.90    7.08
  -5   7  -1   24.32    7.63
   5  -7  -1   26.63    7.56
  -5  -7  -1   14.18    6.31
  -5   7   0   58.80   10.81
   5   7   0   39.26   10.41
  -5  -7   0   32.55    3.14
  -5  -7   0   47.76    9.51
  -5   7   0   61.64    9.60
   5  -7   0   56.11   10.13
  -5   7   1   33.07    9.76
   5   7   1   29.16   10.58
  -5  -7   1   19.08    3.28
  -5  -7   1   17.27    7.78
   5  -7   1   10.99    6.32
  -5   7   1   28.12    5.77
  -5  -7   1   26.96    4.59
  -5   7   2    6.66    6.54
   5   7   2    1.96    6.77
  -5  -7   2    3.96    6.98
   5  -7   2   -0.33    5.66
  -5   7   2    6.72    3.12
  -5  -7   2    2.12    5.49
  -5   7   3   60.53   12.67
   5   7   3   47.33   13.67
  -5  -7   3   82.04   14.99
   5  -7   3   59.18   11.91
  -5  -7   3   54.38   11.66
  -5   7   4   21.15    9.29
   5   7   4    6.07    7.54
  -5  -7   4   -0.45    7.20
   5  -7   4    7.94    8.69
  -5  -7   4   18.41    9.31
  -5   7   5    9.13    9.04
   5   7   5   26.14   10.08
  -5  -7   5   12.92    9.51
   5  -7   5   14.89    8.58
  -5  -7   5   34.24   10.26
  -5   7   6   51.05   13.02
   5   7   6   60.41   15.43
   5  -7   6   51.64   13.81
  -5  -7   6   47.84   12.20
   5   8  -6  -13.81    8.34
   5  -8  -6  -20.75    9.92
  -5  -8  -6   -0.26    7.87
  -5  -8  -5    4.68    5.92
   5  -8  -5   12.14    7.54
   5   8  -5   19.98    8.54
   5  -8  -5   18.90    9.58
  -5  -8  -5    5.59    7.06
  -5   8  -5   10.23    8.43
   5  -8  -4    9.84    6.51
   5   8  -4    3.15    5.69
   5  -8  -4   19.05    8.45
  -5  -8  -4   -1.24    5.44
  -5  -8  -4   10.88    8.03
  -5   8  -4   -3.96    6.67
  -5   8  -4   -3.34    7.21
   5   8  -3   20.92    8.06
   5   8  -3   18.97    7.12
   5  -8  -3   11.45    6.93
  -5  -8  -3   15.57    5.95
   5  -8  -3    7.03    5.33
  -5   8  -3   15.48    8.13
  -5  -8  -3   13.46    8.46
  -5   8  -3    9.97    7.56
  -5   8  -2    5.80    5.61
   5  -8  -2    7.14    5.86
   5   8  -2    0.60    6.18
  -5  -8  -2    6.68    4.26
   5  -8  -2   10.10    5.51
  -5   8  -2   15.39    7.85
  -5  -8  -2    2.36    6.16
  -5   8  -2    8.15    6.27
   5  -8  -1   22.94    6.67
  -5   8  -1   23.01    7.53
   5   8  -1   20.08    7.81
  -5   8  -1   23.43    7.95
  -5  -8  -1   28.70    9.21
   5  -8  -1   19.08    6.65
  -5  -8  -1   20.59    3.93
  -5  -8  -1   27.24    7.55
  -5   8   0   11.21    6.67
   5   8   0    5.37    7.73
  -5  -8   0    2.64    5.59
  -5   8   0    8.82    5.19
   5  -8   0   15.87    7.15
  -5   8   1   28.77    9.72
   5   8   1   20.40   10.19
  -5  -8   1   27.08    9.11
   5  -8   1   29.31    8.38
  -5   8   1   28.30    5.90
  -5  -8   1   28.99    9.07
  -5   8   2    5.25    6.88
   5   8   2    2.74    7.29
  -5  -8   2   20.90    9.86
   5  -8   2    6.63    6.18
  -5  -8   2   -5.89    6.29
  -5   8   3   17.40    8.47
   5   8   3   14.19    9.16
  -5  -8   3   18.89    8.89
   5  -8   3    4.38    5.20
  -5  -8   3   18.81    8.75
  -5   8   4   -1.33    6.99
   5   8   4    2.80    9.12
  -5  -8   4    7.36    9.51
   5  -8   4    4.89    7.30
  -5  -8   4    6.95    6.69
  -5   8   5   26.65   10.34
   5   8   5   32.48   11.64
  -5  -8   5   19.71    9.51
   5  -8   5   33.13   10.47
  -5  -8   5   23.70    9.41
  -5   8   6    3.54    7.30
   5   8   6   18.61    7.82
  -5  -8   6   10.97    7.81
   5  -9  -6   19.61    9.37
  -5  -9  -6   74.96   16.99
   5  -9  -5   14.03    7.97
   5   9  -5   30.82    9.72
   5  -9  -5   31.95    9.88
  -5  -9  -5   14.58    8.50
  -5   9  -5   15.43    9.17
  -5  -9  -4   21.38    7.62
   5  -9  -4   31.20    9.58
   5   9  -4   27.34    8.75
   5  -9  -4   30.61    8.97
  -5  -9  -4   54.66   13.42
  -5   9  -4   32.42   11.73
   5   9  -3   80.85   11.79
   5   9  -3   68.02   12.53
  -5  -9  -3   52.64    9.17
   5  -9  -3   60.79   11.32
   5  -9  -3   64.57   12.11
  -5  -9  -3   54.60   12.21
  -5   9  -3   79.12   15.15
  -5   9  -3   60.29   13.69
   5   9  -2  178.91   17.59
   5  -9  -2  161.92   15.07
  -5   9  -2  148.02   15.45
   5   9  -2  122.19   15.45
   5  -9  -2  160.27   16.74
  -5  -9  -2  143.97   11.85
  -5   9  -2  169.04   19.52
  -5  -9  -2  135.64   17.19
  -5   9  -2  146.14   18.51
  -5   9  -1   33.52    9.10
   5  -9  -1   25.47    6.89
   5   9  -1   29.67    9.44
  -5   9  -1   42.05    9.98
  -5  -9  -1   24.50    8.87
   5  -9  -1   36.32    8.98
  -5  -9  -1   24.47    5.12
  -5  -9  -1   33.57    8.78
  -5   9   0   -3.36    7.17
   5   9   0    4.86    7.11
  -5  -9   0   -0.28    2.48
  -5  -9   0    0.29    6.07
  -5   9   0   -0.04    3.85
   5  -9   0  -10.26    6.74
  -5   9   1   39.56   10.72
   5   9   1   40.20   12.23
  -5  -9   1   34.97    9.85
   5  -9   1   28.49    9.57
  -5  -9   1   28.77    9.03
  -5   9   2  130.77   18.02
   5   9   2  150.63   20.71
  -5  -9   2  155.64   18.76
   5  -9   2  169.71   18.97
  -5  -9   2  154.35   18.85
  -5   9   3   64.24   14.64
   5   9   3   62.57   14.38
  -5  -9   3   52.51   12.94
   5  -9   3   67.16   13.96
  -5  -9   3   67.21   13.43
  -5   9   4   37.97   11.37
   5   9   4   28.15   12.19
  -5  -9   4   29.87   11.43
   5  -9   4   10.18    7.68
  -5  -9   4   24.41    8.88
  -5   9   5   25.23   10.99
   5   9   5   18.09   10.13
  -5  -9   5   19.95   10.10
   5  -9   5   18.88    9.74
  -5  -9   5   29.45   10.77
  -5  -9   6   54.23   13.73
  -5 -10  -6   31.31   13.36
   5 -10  -5   14.79    8.04
   5  10  -5   30.04   10.33
   5 -10  -5   11.56    8.18
  -5 -10  -5   19.30    9.21
  -5  10  -5   17.65    9.66
   5 -10  -4   41.38   10.79
   5  10  -4   45.07   11.30
   5 -10  -4   44.32   10.44
  -5 -10  -4   27.75   10.87
  -5  10  -4   39.43   12.87
   5  10  -3   43.19   10.47
   5  10  -3   48.26   10.38
   5 -10  -3   49.08   10.22
   5 -10  -3   67.72   12.60
  -5 -10  -3   53.28   12.54
  -5  10  -3   50.83   12.80
   5 -10  -2  132.11   13.81
   5  10  -2  132.53   15.26
  -5  10  -2  114.35   13.68
   5  10  -2  120.48   15.95
   5 -10  -2  143.27   16.88
  -5 -10  -2  127.17   16.94
  -5  10  -2  132.08   17.63
  -5  10  -1   21.02    7.75
   5 -10  -1   18.96    5.76
   5  10  -1   27.21    9.72
  -5 -10  -1   25.47    8.63
   5 -10  -1   19.30    7.82
  -5  10   0    1.26    6.48
   5  10   0    7.78    8.12
  -5 -10   0    9.03    6.28
   5 -10   0   10.64    6.75
  -5  10   1   25.31    8.58
   5  10   1   26.05   11.00
  -5 -10   1   28.34    9.58
   5 -10   1   30.05   10.09
  -5 -10   1   21.80    8.60
  -5  10   2  124.53   17.98
   5  10   2  138.62   20.15
  -5 -10   2  136.09   18.09
   5 -10   2  143.39   18.10
  -5 -10   2  160.99   19.77
  -5  10   3   64.96   13.79
   5  10   3   59.71   14.72
  -5 -10   3   60.35   13.71
   5 -10   3   64.11   13.23
  -5 -10   3   62.17   13.22
  -5  10   4   52.86   13.96
   5  10   4   54.37   15.06
  -5 -10   4   63.70   15.64
   5 -10   4   37.40   11.48
  -5 -10   4   64.11   14.17
  -5  10   5   14.45   10.03
   5  10   5   17.19   10.03
   5 -10   5   -2.61    6.90
   5 -10   5   18.91   10.44
  -5 -10   5   21.84    9.59
   5 -11  -5   14.81    7.92
   5  11  -5   40.43   10.59
  -5 -11  -5   25.29   11.20
   5 -11  -4    2.11    5.27
   5  11  -4    8.05    6.75
  -5 -11  -4   -5.20    7.37
  -5  11  -4  -14.54   10.43
   5  11  -3   10.76    7.33
   5  11  -3   14.13    6.38
   5 -11  -3    9.30    6.89
  -5 -11  -3   23.63   10.17
  -5  11  -3   16.43    8.65
   5  11  -2   22.24    7.65
  -5  11  -2   17.75    7.09
   5  11  -2   25.33    9.43
   5 -11  -2   19.02    7.54
  -5 -11  -2   22.09    9.12
  -5  11  -2    8.91    7.73
  -5  11  -1    8.19    6.88
   5  11  -1   21.80    8.90
  -5 -11  -1    6.60    5.54
  -5  11   0    1.66    6.11
   5  11   0   -0.81    7.94
  -5 -11   0    5.58    7.65
   5 -11   0    2.10    6.56
  -5  11   1   11.35    8.16
   5  11   1   17.45    9.98
  -5 -11   1    9.14    7.34
   5 -11   1    8.70    6.90
  -5 -11   1    7.68    6.86
  -5  11   2   25.28    9.99
   5  11   2   16.20    9.22
  -5 -11   2   14.64    8.93
   5 -11   2   35.58   11.16
  -5 -11   2   26.75    9.59
  -5  11   3   24.08   11.13
   5  11   3   27.33   11.98
  -5 -11   3   18.30    8.98
   5 -11   3   21.17   10.03
  -5 -11   3   11.69    7.03
  -5  11   4    3.78    7.24
   5  11   4   -6.10    9.72
  -5 -11   4    2.02    7.23
   5 -11   4    7.80    7.68
   5 -11   4    4.97    8.96
  -5 -11   4    4.33    7.34
   5  12  -5   18.91    7.96
  -5 -12  -5   16.33   10.85
   5 -12  -4   20.14    8.71
   5  12  -4   15.63    7.77
  -5 -12  -4   18.49   10.19
   5  12  -3   15.44    7.76
   5  12  -3   24.89    7.54
   5 -12  -3   26.51   10.50
  -5 -12  -3   12.89    8.10
  -5  12  -3   16.91   10.19
   5  12  -2    0.03    7.06
  -5  12  -2    2.64    4.24
   5  12  -2    7.41    4.72
   5 -12  -2   11.84    7.16
  -5 -12  -2   13.50    8.30
  -5  12  -2   12.97    7.92
  -5  12  -1   15.80    7.31
   5  12  -1   18.22    9.14
  -5 -12  -1   15.67    7.16
  -5  12   0   16.30    7.81
   5  12   0   32.60   12.52
  -5 -12   0   -6.61    7.12
   5 -12   0   22.38    9.56
  -5 -12   0   19.39    8.37
  -5  12   1   25.19    9.51
   5  12   1   18.86    9.34
  -5 -12   1   16.81    9.25
   5 -12   1   22.63    9.59
  -5 -12   1   29.24    9.77
  -5  12   2    3.64    7.29
   5  12   2    5.31    8.63
  -5 -12   2   11.36    8.22
   5 -12   2  -12.19    7.29
  -5 -12   2   12.36    7.56
  -5  12   3   28.68   12.18
   5  12   3   18.54   11.64
  -5 -12   3   26.97   11.89
   5 -12   3   22.43    9.14
   5 -12   3   37.29   11.10
  -5 -12   3   15.14    8.28
   5  12   4    1.60    8.76
   5 -12   4    9.89    8.57
  -5 -12   4  -17.75   10.56
  -5 -13  -4  -14.13    9.02
   5 -13  -3    2.76    5.66
  -5 -13  -3    2.10    6.52
  -5  13  -3   -8.98    9.33
   5  13  -2   62.73   13.44
   5  13  -2   51.98   10.07
  -5  13  -2   76.61   12.35
   5 -13  -2   88.04   15.25
  -5 -13  -2   68.42   13.87
  -5  13  -2   66.09   14.01
   5  13  -1   64.54   14.47
  -5  13  -1   44.31   10.58
  -5 -13  -1   49.74   11.90
   5 -13  -1   37.91    9.58
  -5  13   0   28.99   10.01
   5  13   0   35.40   12.15
   5 -13   0   23.98   10.07
   5 -13   0   36.51    9.95
  -5 -13   0   37.24   10.14
  -5  13   1   44.80   12.49
   5  13   1   54.00   14.58
  -5 -13   1   32.54   11.49
   5 -13   1   31.29   11.69
   5 -13   1   47.23   12.50
  -5 -13   1   46.08   12.46
  -5  13   2   63.48   14.75
   5  13   2   66.83   16.10
  -5 -13   2   61.25   15.15
   5 -13   2   82.76   16.47
   5 -13   2   71.83   14.81
  -5 -13   2   70.47   15.76
  -5  13   3   21.84   10.57
   5  13   3  -10.34    8.73
  -5 -13   3   20.61   10.73
   5 -13   3    1.30    7.67
   5 -13   3   -6.88    7.81
  -5 -13   3   23.10    9.58
  -5 -14  -4   11.64    8.88
   5 -14  -3   -5.39    6.14
  -5 -14  -3  -12.10    7.86
   5  14  -2   24.47    9.64
   5 -14  -2    8.23    7.27
  -5 -14  -2   30.27   10.63
  -5  14  -2   16.56    9.31
   5  14  -1   -2.93    6.75
  -5  14  -1    7.38    6.72
  -5 -14  -1    4.16    6.26
  -5  14   0    1.75    6.18
   5  14   0   17.44   10.84
   5 -14   0    1.99    6.16
  -5 -14   0    0.54    4.86
  -5  14   1    5.50    8.39
   5  14   1   11.70   11.83
  -5 -14   1   17.34   11.65
   5 -14   1    3.42    7.35
   5 -14   1   -3.69    7.08
  -5 -14   1   -2.44    5.91
  -5  14   2   33.02   11.37
   5  14   2   33.97   14.17
  -5 -14   2    6.16    9.39
   5 -14   2   40.49   13.34
   5 -14   2   14.86    9.21
  -5 -14   2   15.14    8.85
  -5 -15  -3   22.01   10.92
   5  15  -2   44.71   12.91
  -5 -15  -2   65.98   15.34
   5  15  -1    4.40    7.64
  -5  15  -1    1.24    4.75
  -5 -15  -1   -1.90    4.59
   5  15   0  -14.43   10.74
  -5  15   0   -0.47    6.21
   5 -15   0   -1.08    6.50
  -5 -15   0   16.24    7.87
  -5  15   1   18.69    9.46
   5  15   1   10.51   11.26
   5 -15   1    0.84    6.78
  -5 -15   1    6.05    7.37
   5  16  -2   -8.67   10.17
  -5 -16  -2    5.09    7.63
  -5 -16  -1   -7.81    7.31
  -5  16   0    0.07    7.15
   5 -16   0   -2.35    6.67
  -5  16   1    9.20    8.99
   5 -16   1   -0.65    5.30
  -5  17   0    5.21    6.93
   5 -17   0  -17.97    8.40
   6   0  -6   23.92   11.58
  -6   0  -6    7.96    8.33
  -6   0  -6    4.60    6.67
   6   0  -5   22.18   10.22
  -6   0  -5   43.79   12.69
  -6   0  -5   23.72    8.34
   6   0  -4   36.21   10.97
  -6   0  -4   38.44   11.39
  -6   0  -4   35.55    9.85
   6   0  -3  253.73   23.00
   6   0  -3  235.99   16.09
  -6   0  -3  199.82   21.23
   6   0  -3  242.15   17.72
  -6   0  -3  261.39   19.61
   6   0  -2  434.36   17.17
   6   0  -2  469.86   19.09
  -6   0  -2  491.12   30.21
  -6   0  -2  475.01   24.31
   6   0  -1  225.29   15.78
  -6   0  -1  213.55   18.58
   6   0  -1  176.26    7.16
  -6   0  -1  200.78   14.52
   6   0   0    9.09    5.75
  -6   0   0   14.19    7.16
  -6   0   0   18.64    7.16
   6   0   1  206.28   18.66
  -6   0   1  213.34   17.23
   6   0   1  180.64    8.25
  -6   0   1  215.70   19.79
  -6   0   2  442.97   27.70
   6   0   2  448.81   28.77
  -6   0   2  469.06   30.51
  -6   0   3  277.33   22.19
   6   0   3  232.70   22.04
  -6   0   3  242.62   23.92
  -6   0   4   45.68   10.48
   6   0   4   42.77   11.22
  -6   0   4   23.04   11.70
  -6   0   5   19.70    7.23
  -6   0   5   34.58   13.24
   6   0   5   13.16    9.54
  -6   0   6   -2.62    5.06
   6   0   6   19.75    9.99
   6   0   6   16.10    9.37
   6  -1  -6    0.61    8.55
  -6  -1  -6  -12.17    7.97
  -6   1  -6  -16.59    8.97
   6   1  -5   11.23    8.81
   6  -1  -5   18.65    9.40
  -6   1  -5   24.74   10.38
  -6  -1  -5   48.58   13.10
  -6  -1  -5   24.29    8.85
  -6   1  -5   22.92    9.62
   6   1  -4   62.81   13.81
   6  -1  -4   64.01   14.09
   6  -1  -4   38.03    8.63
  -6   1  -4   64.12   13.69
  -6  -1  -4   55.44   12.70
  -6   1  -4   50.20   10.92
  -6  -1  -4   69.20   11.20
   6  -1  -3   50.24   12.20
   6   1  -3   19.74    6.31
   6   1  -3   29.73   10.22
   6  -1  -3   29.00    6.54
  -6   1  -3   38.12   11.03
  -6  -1  -3   29.11    9.09
  -6  -1  -3   29.69    7.82
  -6   1  -3   30.94    7.35
  -6   1  -2   85.08    7.25
   6  -1  -2   63.12    7.47
   6  -1  -2   68.50    8.06
  -6  -1  -2   69.20   12.58
   6   1  -2   62.74    7.71
  -6   1  -2   99.77   14.21
  -6  -1  -2   74.44    9.51
  -6   1  -2   71.92   10.68
   6   1  -2   64.54   11.55
   6  -1  -1  191.26   14.79
   6   1  -1  207.17   15.28
  -6   1  -1  193.68   18.14
  -6  -1  -1  224.22   19.46
  -6  -1  -1  199.31   14.03
   6  -1  -1  192.62    9.84
  -6   1  -1  187.19   14.41
   6  -1   0   25.60    7.18
   6   1   0   26.24    7.60
  -6   1   0   30.49    7.78
  -6  -1   0   46.41    9.36
  -6  -1   0   46.92    9.38
   6  -1   0   35.27    3.75
   6  -1   1  220.78   18.99
   6   1   1  187.99   18.00
  -6   1   1  210.50   16.97
  -6  -1   1  205.19   17.44
  -6  -1   1  213.28   19.76
  -6   1   2   91.35   13.61
   6  -1   2   65.45   12.48
   6   1   2   51.12   11.60
  -6   1   2   91.94   11.29
  -6  -1   2   91.54   14.87
  -6  -1   3   34.83    8.83
  -6   1   3   46.88   10.26
   6  -1   3   24.98    9.46
   6   1   3   33.88    9.98
  -6  -1   3   35.39   11.72
  -6   1   4   64.97   12.03
  -6  -1   4   52.89   10.81
  -6  -1   4   60.45   14.82
   6  -1   4   34.69   10.31
   6   1   4   64.35   13.41
  -6   1   5   28.80    9.27
  -6  -1   5   14.70    7.59
  -6   1   5    6.01   10.86
  -6  -1   5   -7.18   10.38
   6  -1   5   22.10    8.91
   6   1   5    7.14    8.30
   6   1   5   14.80    9.42
   6   1   6    0.53    7.44
  -6   1   6   22.72    8.12
   6  -1   6    3.32    7.31
   6   1   6   14.37    9.85
  -6   2  -7   -6.50    9.31
   6  -2  -6   19.35   10.73
  -6  -2  -6    3.36    7.99
  -6   2  -6    0.36    5.12
   6  -2  -5   54.82   10.66
   6   2  -5   59.27   15.12
   6  -2  -5   76.80   16.10
  -6   2  -5   51.23   14.21
  -6  -2  -5   50.36   13.44
  -6   2  -5   61.98   13.61
   6   2  -4   12.86    9.23
   6  -2  -4   18.82    9.95
   6  -2  -4   18.47    6.49
  -6   2  -4   26.03   10.40
  -6  -2  -4   18.83   10.19
  -6   2  -4    9.07    6.77
  -6  -2  -4   23.46    7.32
   6  -2  -3   81.17   14.91
   6   2  -3   75.92   10.40
   6   2  -3   91.98   14.93
   6  -2  -3   67.11    9.55
  -6   2  -3   82.52   14.40
  -6  -2  -3   90.52   14.77
  -6   2  -3   83.96   12.88
  -6  -2  -3   97.19   11.62
   6   2  -2    8.61    6.14
  -6   2  -2   12.37    4.00
  -6  -2  -2   11.59    3.54
   6  -2  -2   14.73    4.34
  -6  -2  -2    7.40    5.32
   6   2  -2   -1.89    5.20
  -6   2  -2   19.50    8.05
   6  -2  -2    7.79    4.08
  -6  -2  -2   10.22    4.99
  -6   2  -2   15.19    6.52
   6  -2  -1   49.61    5.85
  -6  -2  -1   55.97    7.86
   6  -2  -1   71.35    9.77
   6   2  -1   42.44    8.18
  -6  -2  -1   62.47   11.47
  -6   2  -1   49.59   10.33
   6   2  -1   57.02   11.45
  -6  -2   0   11.28    6.11
   6  -2   0   13.24    3.06
  -6  -2   0   17.74    7.13
   6  -2   0    2.00    5.37
  -6   2   0   10.24    5.73
   6   2   0   -2.12    5.93
   6   2   0   16.77    9.30
  -6   2   1   63.17   11.15
   6  -2   1   69.80   11.29
   6   2   1   40.37    9.76
  -6   2   1   68.75    9.95
  -6  -2   1   53.08   11.07
  -6   2   2   22.70    8.42
  -6  -2   2   -4.28    9.96
  -6   2   2   10.47    5.11
   6  -2   2   15.08    7.23
   6   2   2    0.05    7.44
  -6   2   3   76.78   13.76
  -6  -2   3   79.33   15.11
   6  -2   3   96.12   14.89
   6   2   3   87.69   14.62
   6   2   3   85.06   16.34
  -6   2   4   22.62    7.97
  -6  -2   4    4.81   10.05
   6  -2   4   25.72    9.41
   6   2   4   19.08    9.13
   6   2   4   11.37    8.76
   6   2   5   69.63   15.00
  -6   2   5   62.35   12.50
   6  -2   5   42.74   12.43
   6   2   5   81.40   16.56
  -6  -2   5   56.56   15.24
   6   2   6    0.36    6.96
   6  -2   6  -19.43   10.64
   6  -3  -6  102.72   19.20
   6  -3  -6   70.19   14.28
  -6   3  -6  106.49   19.13
   6  -3  -5   14.02    6.97
   6   3  -5   29.87   11.80
   6  -3  -5   28.43   11.59
  -6   3  -5   15.72    8.36
  -6  -3  -5   16.20    9.50
  -6   3  -5   12.05    8.13
   6   3  -4   -3.83    8.24
   6  -3  -4   15.96    6.01
   6  -3  -4   -3.94    8.74
  -6   3  -4   13.79    8.35
  -6  -3  -4    7.77    6.11
  -6   3  -4   16.73    7.46
   6  -3  -3   41.02   10.88
   6   3  -3   26.40    7.01
   6   3  -3   32.54   10.78
   6  -3  -3   25.21    6.49
  -6   3  -3   34.51   10.83
  -6  -3  -3   22.45    8.79
  -6   3  -3   24.33    8.49
  -6  -3  -3   27.55    6.56
  -6  -3  -2  157.92   10.32
   6  -3  -2  135.49   11.82
  -6   3  -2  152.22   17.64
   6  -3  -2  160.53   13.01
   6   3  -2  147.40   11.26
  -6  -3  -2  142.93   16.85
   6   3  -2  153.86   16.00
  -6  -3  -2  156.52   11.49
  -6   3  -2  146.22   15.52
   6   3  -1   87.41   13.89
  -6  -3  -1  103.79   10.63
   6  -3  -1  118.55    9.68
   6   3  -1  104.11   11.75
  -6  -3  -1  111.21   14.56
   6  -3  -1  116.44   11.89
  -6   3  -1  146.37   15.87
  -6   3   0  873.27   37.12
  -6  -3   0  917.17   34.45
   6  -3   0  888.08   34.68
  -6   3   0  884.74   34.78
   6   3   0  864.57   34.19
  -6  -3   0  866.59   36.42
   6   3   0  901.59   42.57
   6   3   1   95.73   15.79
  -6   3   1  118.05   15.37
   6  -3   1  114.42   14.41
   6   3   1  123.16   14.68
  -6   3   1  121.26   12.75
  -6  -3   1  103.57   14.23
  -6   3   2  169.61   18.33
   6   3   2  150.31   20.03
   6   3   2  140.16   16.94
   6  -3   2  175.08   18.83
  -6   3   2  168.30   13.95
  -6  -3   2  180.93   19.65
   6   3   3    6.96    8.49
  -6   3   3   28.98    9.23
   6  -3   3   18.88    8.20
  -6   3   3   35.81    7.33
   6   3   3   10.50    7.27
  -6  -3   3   32.80   12.18
  -6   3   4    2.62    6.58
   6   3   4  -10.92    9.07
   6  -3   4   -2.23    6.60
   6   3   4    7.07    7.61
  -6  -3   4    5.14    9.17
  -6   3   5   27.20    8.58
   6   3   5   10.70    8.65
   6  -3   5   19.02    9.12
   6   3   5   15.71    8.44
  -6  -3   5   29.56   13.06
  -6   3   6   71.43   14.31
   6   3   6  106.98   18.84
   6  -4  -6   18.76    7.90
   6  -4  -6   -4.39    8.21
  -6   4  -6   -1.45    7.39
   6   4  -5  141.38   20.74
   6  -4  -5  173.68   22.50
   6  -4  -5  146.99   17.76
  -6   4  -5  149.01   21.55
  -6  -4  -5  159.09   22.42
  -6   4  -5  146.88   20.71
   6   4  -4   24.46    9.58
   6  -4  -4   17.78    6.33
   6  -4  -4   16.45    8.44
  -6   4  -4   12.48    7.47
  -6  -4  -4   27.23   10.00
  -6   4  -4   15.93    8.63
   6  -4  -3   28.94    9.17
   6   4  -3   17.19    6.29
   6   4  -3   29.55    9.88
   6  -4  -3   25.90    7.42
  -6  -4  -3   23.92    9.32
  -6   4  -3   27.48    9.35
  -6   4  -3   18.87    7.84
   6  -4  -2  140.92   17.25
  -6  -4  -2  136.83   10.40
   6  -4  -2  120.40   11.77
  -6   4  -2  135.26   17.03
  -6  -4  -2  119.60    8.88
   6  -4  -2  146.43   13.09
   6   4  -2  131.11   11.04
  -6  -4  -2  153.16   18.00
  -6   4  -2  140.14   16.30
   6   4  -2  122.11   14.78
   6  -4  -1  135.30   11.21
  -6  -4  -1  182.49   14.39
   6  -4  -1  150.58   14.04
  -6   4  -1  165.18   16.90
   6   4  -1  164.52   14.52
  -6  -4  -1  172.26   17.73
   6   4  -1  146.82   17.44
  -6  -4  -1  143.45    9.13
   6   4   0   68.23   13.67
  -6   4   0   84.35   12.94
   6  -4   0  108.26   13.50
  -6  -4   0   82.01   12.68
  -6   4   0   84.71   11.90
  -6  -4   0   81.89   11.59
  -6   4   1  164.85   17.56
   6   4   1  139.64   18.68
   6  -4   1  194.72   18.46
  -6   4   1  160.13   14.29
  -6  -4   1  150.80   13.77
  -6  -4   1  148.08   16.52
   6   4   2  133.88   19.33
  -6   4   2  131.91   16.45
   6  -4   2  113.15   16.02
  -6   4   2  127.56   12.24
  -6  -4   2  140.22   17.95
  -6   4   3   21.76    8.20
   6   4   3   34.78   13.16
  -6   4   3   20.85    5.28
   6  -4   3   24.02    9.38
   6   4   3   19.40    9.33
  -6  -4   3   12.07    8.41
  -6   4   4   12.07    6.88
   6   4   4    6.63    8.59
   6  -4   4   15.03    9.09
   6   4   4   24.55    9.69
  -6  -4   4   16.65   10.85
  -6   4   5  155.37   20.17
   6   4   5  174.17   23.26
   6  -4   5  179.48   22.50
   6   4   5  136.55   20.32
  -6  -4   5  167.27   23.87
  -6   4   6    9.55    7.06
   6   4   6   11.79    9.21
   6  -5  -6  -16.50    8.24
   6  -5  -6  -10.68    9.97
  -6   5  -6   12.32    8.97
   6  -5  -5    4.81    4.89
   6   5  -5   10.71    8.77
   6  -5  -5    3.75    8.67
  -6   5  -5   11.79    8.94
  -6  -5  -5    3.72    6.22
  -6   5  -5    7.74    6.77
   6   5  -4  210.54   23.30
   6  -5  -4  187.89   21.47
   6  -5  -4  176.73   18.00
  -6   5  -4  225.67   25.38
  -6  -5  -4  200.11   22.84
  -6   5  -4  181.96   21.40
   6  -5  -3    2.89    6.93
   6   5  -3   10.06    5.35
   6   5  -3   23.76    9.32
   6  -5  -3   11.10    5.56
  -6  -5  -3   28.14   10.38
  -6   5  -3   23.06    8.95
  -6   5  -3    2.95    5.87
   6  -5  -2  120.78   15.73
   6   5  -2  103.58   13.65
   6  -5  -2   93.31   10.88
  -6  -5  -2  118.44   10.35
  -6   5  -2   95.81   14.31
  -6  -5  -2  112.51   15.80
   6   5  -2   99.52   10.21
   6  -5  -2  114.17   12.38
  -6   5  -2  117.02   15.04
   6   5  -1   36.70   10.47
  -6   5  -1   49.68   10.06
  -6  -5  -1   53.27   11.54
   6  -5  -1   51.14    9.33
   6  -5  -1   46.79    7.54
  -6  -5  -1   56.34    9.11
   6   5   0   76.55   13.74
  -6   5   0   63.21   11.46
   6  -5   0   62.46   10.58
  -6  -5   0   76.83   12.29
  -6   5   0   73.59   11.15
  -6  -5   0   44.20    9.22
   6   5   1   45.11   12.47
  -6   5   1   55.14   11.55
   6  -5   1   51.61   11.03
  -6   5   1   52.44    8.56
  -6  -5   1   39.46   10.28
  -6   5   2   99.08   15.44
   6   5   2  107.73   17.81
   6  -5   2   85.58   13.95
  -6   5   2  129.54   11.97
  -6  -5   2  104.40   16.41
  -6   5   3   10.40    7.44
   6   5   3    1.06    8.45
  -6  -5   3    8.53    7.67
   6  -5   3    9.45    8.32
  -6   5   4  201.22   22.63
  -6  -5   4  224.80   25.18
   6  -5   4  206.15   22.61
   6   5   4  226.49   25.71
  -6   5   5  -13.54    8.29
   6   5   5   -8.80    8.54
   6  -5   5   -9.81    8.08
   6   5   5    5.70    7.08
  -6  -5   5    9.29    8.67
  -6   5   6   -8.64    7.15
   6   5   6   10.54    8.23
   6  -6  -6    9.74    7.56
   6  -6  -5   18.27    8.47
   6   6  -5   29.15   10.73
   6  -6  -5   25.16   10.97
  -6   6  -5   57.18   13.19
  -6  -6  -5   25.69   10.53
  -6   6  -5   16.85    8.09
   6   6  -4   37.22   12.27
   6  -6  -4   24.97    8.05
   6  -6  -4   46.26   12.11
  -6   6  -4   46.64   13.73
  -6  -6  -4   31.80   10.11
  -6   6  -4   27.93   11.62
   6   6  -3  333.30   26.99
   6  -6  -3  310.81   25.21
   6  -6  -3  297.08   21.78
  -6   6  -3  312.44   28.06
  -6  -6  -3  310.60   27.05
   6   6  -3  270.20   20.09
  -6   6  -3  284.13   25.39
   6  -6  -2   76.71   12.89
   6   6  -2   45.34   10.80
   6  -6  -2   47.97    8.68
  -6   6  -2   67.08   12.63
  -6  -6  -2   48.25   11.89
   6  -6  -2   67.98   10.05
  -6   6  -1  201.82   18.84
   6  -6  -1  176.74   14.49
  -6  -6  -1  189.56   15.75
   6  -6  -1  189.39   16.95
  -6   6  -1  203.89   19.37
  -6  -6  -1  190.54   19.72
   6   6  -1  197.69   20.03
   6   6   0    7.77    7.80
  -6   6   0    8.46    6.99
  -6  -6   0   11.80    6.55
   6  -6   0   10.03    5.84
  -6  -6   0   10.68    6.38
  -6   6   0   10.10    5.47
  -6   6   1  176.81   19.42
  -6  -6   1  195.36   19.42
   6  -6   1  182.04   18.46
  -6   6   1  190.66   15.31
   6   6   1  177.31   21.35
  -6   6   2   56.21   12.45
   6   6   2   57.58   14.61
  -6  -6   2   66.32   13.90
   6  -6   2   43.11   10.75
  -6   6   2   67.17    8.58
  -6   6   3  320.35   27.06
  -6  -6   3  303.81   27.45
   6  -6   3  341.14   27.96
   6   6   3  330.40   30.16
  -6   6   4   35.79   11.63
   6   6   4   31.25   12.36
   6  -6   4   25.80   10.22
  -6  -6   4   32.46   12.08
  -6   6   5   40.57   12.01
   6   6   5   30.36   11.66
  -6  -6   5   27.13   11.60
   6  -6   5   29.10   10.64
   6   6   5   16.68    8.66
   6  -7  -6    5.51    4.08
   6   7  -5    3.48    7.86
   6  -7  -5   22.59   10.11
   6  -7  -5   19.18    8.68
  -6   7  -5   -5.68    8.47
  -6  -7  -5   14.98    9.06
  -6   7  -5   13.72    9.34
   6   7  -4   11.44    7.76
   6  -7  -4   -9.18    5.70
   6  -7  -4    2.68    6.75
  -6   7  -4   11.75    8.92
  -6  -7  -4    6.16    7.23
  -6   7  -4    8.03    9.42
   6  -7  -3   29.95    9.05
   6   7  -3   37.62   10.29
   6   7  -3   32.60    8.47
   6  -7  -3   29.69    8.69
  -6  -7  -3   34.07   10.72
  -6   7  -3   46.70   12.95
  -6   7  -3   23.59    9.48
   6  -7  -2   52.56   11.23
   6   7  -2   39.83   10.13
  -6   7  -2   44.15   10.75
  -6  -7  -2   40.30   10.68
   6  -7  -2   49.74    9.31
   6  -7  -2   40.20    8.31
   6   7  -1   70.48   13.34
  -6   7  -1   57.92   11.24
  -6  -7  -1   77.00   13.23
  -6   7  -1   59.81   11.26
   6  -7  -1   65.47   10.57
   6  -7  -1   53.76    9.07
  -6  -7  -1   60.03   10.29
  -6   7   0   13.32    8.02
   6   7   0   29.05   11.18
  -6   7   0   28.39    7.49
   6  -7   0   32.60    8.77
  -6  -7   0   24.30    8.36
  -6   7   1   52.99   12.28
   6   7   1   60.19   13.92
   6  -7   1   64.18   12.21
  -6   7   1   70.10    9.45
  -6  -7   1   54.96   12.03
  -6   7   2   45.96   11.74
   6   7   2   34.35   12.01
   6  -7   2   39.52   10.87
  -6  -7   2   43.43   11.60
  -6   7   3   52.94   12.34
   6   7   3   33.54   13.43
   6  -7   3   22.36    9.63
  -6  -7   3   18.88    9.83
  -6   7   4    4.35    7.84
   6   7   4   12.33    8.72
   6  -7   4    0.17    6.28
  -6  -7   4   11.41   11.96
  -6   7   5    2.87    6.69
   6   7   5   16.82    9.74
  -6  -7   5   -2.92    8.55
   6  -7   5   14.93    8.93
   6   8  -5   34.20   11.14
   6  -8  -5   19.65    9.15
   6  -8  -5   28.58    9.29
  -6  -8  -5   14.43    9.83
  -6   8  -5   47.25   14.37
  -6   8  -5   36.78   13.39
   6   8  -4   28.44    9.79
   6  -8  -4   22.50    7.62
   6  -8  -4   31.10    9.92
  -6   8  -4   47.71   12.76
  -6  -8  -4   40.86   11.32
  -6   8  -4   52.04   14.26
   6   8  -3   27.47    9.25
   6   8  -3   39.26    9.51
   6  -8  -3   35.26    9.61
   6  -8  -3   38.51   10.09
  -6   8  -3   38.54   11.90
  -6  -8  -3   16.33    9.45
  -6   8  -3   35.30   10.89
   6  -8  -2   14.66    7.09
   6   8  -2   13.72    7.16
   6  -8  -2   14.64    6.30
  -6   8  -2   15.85    8.38
  -6  -8  -2    5.74    6.81
   6  -8  -2   17.86    6.85
  -6   8  -2   16.32    9.19
   6   8  -1    1.32    7.10
  -6   8  -1    2.39    6.86
  -6  -8  -1   -0.36    5.32
  -6   8  -1   13.73    6.89
   6  -8  -1    3.17    5.62
  -6  -8  -1    3.53    4.95
  -6   8   0  114.92   15.96
   6   8   0  126.89   18.46
  -6   8   0  132.54   14.61
   6  -8   0  141.45   16.73
  -6  -8   0  102.43   14.00
  -6   8   1    9.68    7.33
   6   8   1   -3.53    7.77
   6  -8   1    5.69    6.03
  -6  -8   1   15.11    8.64
  -6   8   2   18.82    9.21
   6   8   2   20.10   10.95
   6  -8   2    0.87    6.47
  -6  -8   2   16.95    9.08
  -6   8   3   44.59   11.68
   6   8   3   35.33   12.58
  -6  -8   3   53.05   13.28
   6  -8   3   39.11   11.36
  -6   8   4   39.23   12.13
   6   8   4   45.07   13.41
  -6  -8   4   34.87   13.05
   6  -8   4   27.55   10.00
  -6  -8   4   47.88   12.03
  -6   8   5   15.53    9.33
   6   8   5   28.30   11.22
  -6  -8   5   23.99    9.72
   6   9  -5   24.48   10.60
   6  -9  -5   10.81    7.34
   6  -9  -5   29.06   10.97
  -6  -9  -5   26.19   11.81
   6   9  -4   46.01   12.22
   6  -9  -4   31.91    9.57
   6  -9  -4   38.13   10.66
  -6  -9  -4   47.54   13.72
  -6   9  -4   49.55   14.59
  -6   9  -4   47.58   15.00
   6   9  -3   15.41    6.95
   6   9  -3   13.87    7.30
   6  -9  -3   16.10    6.86
   6  -9  -3    6.37    5.29
  -6   9  -3   24.53   10.07
  -6  -9  -3   14.22    8.89
  -6   9  -3   13.36    8.94
   6  -9  -2  162.51   17.02
   6   9  -2  144.63   17.75
   6  -9  -2  149.45   16.73
  -6   9  -2  167.68   20.49
  -6  -9  -2  136.25   18.73
  -6   9  -2  163.65   20.15
   6  -9  -1   14.84    6.28
  -6   9  -1   -4.21    7.41
   6   9  -1    2.56    7.01
  -6   9  -1    8.14    5.83
  -6  -9  -1   -2.44    6.10
   6  -9  -1    2.07    5.05
  -6  -9  -1    2.17    5.39
  -6   9   0  120.57   16.97
   6   9   0  158.41   20.77
   6  -9   0  153.80   17.83
  -6  -9   0  139.66   16.42
  -6   9   1   -0.39    7.80
   6   9   1   -0.55    8.53
   6  -9   1   12.95    7.91
  -6  -9   1    8.50    7.56
  -6   9   2  157.72   20.04
   6   9   2  207.99   24.74
  -6  -9   2  156.06   19.38
   6  -9   2  150.80   19.25
  -6   9   3   17.58   10.16
   6   9   3    1.76    7.78
  -6  -9   3    7.47    7.89
   6  -9   3   12.58    8.42
  -6  -9   3   19.15    9.10
  -6   9   4   38.31   12.13
   6   9   4   43.64   15.41
  -6  -9   4   53.19   14.13
   6  -9   4   26.88   10.63
  -6  -9   4   47.20   12.71
  -6  -9   5   46.41   14.15
   6 -10  -5   23.74    9.79
   6 -10  -4   21.57    8.81
   6  10  -4    7.33    6.86
  -6 -10  -4   14.24    8.84
  -6  10  -4   20.34    9.83
   6  10  -3   43.16   10.32
   6 -10  -3   68.17   13.33
  -6 -10  -3   65.25   14.79
  -6  10  -3   81.51   16.23
  -6  10  -3   65.99   15.73
  -6  10  -2  -18.69    7.83
   6  10  -2    3.42    4.28
   6 -10  -2   -4.00    5.08
   6  10  -2   -7.63    6.94
   6 -10  -2    6.86    5.37
  -6 -10  -2    5.35    7.53
  -6  10  -2   -9.96    6.64
  -6  10  -2    5.20    6.08
   6 -10  -1    7.04    5.40
  -6  10  -1    5.73    5.96
   6  10  -1    5.47    7.98
  -6 -10  -1    2.30    6.23
   6 -10  -1    0.89    6.65
  -6  10  -1   11.49    6.77
  -6 -10  -1    7.03    6.62
  -6  10   0  149.72   18.40
   6  10   0  119.52   18.84
   6 -10   0  127.30   17.48
  -6 -10   0  128.20   16.77
  -6  10   1   -0.75    6.79
   6  10   1    0.15    8.72
   6 -10   1    9.09    7.46
  -6 -10   1    5.02    7.27
  -6  10   2   10.43    8.55
   6  10   2   -8.12    8.99
  -6 -10   2    2.29    7.41
   6 -10   2    2.02    5.47
  -6  10   3   79.01   17.06
   6  10   3   59.87   15.54
  -6 -10   3   85.43   16.72
   6 -10   3   64.56   15.06
  -6 -10   3   80.16   15.78
  -6  10   4   23.74   12.17
   6  10   4   26.76   12.15
  -6 -10   4   46.14   13.92
  -6 -10   4   52.76   13.13
   6 -11  -4   72.20   14.08
   6  11  -4   58.13   12.92
  -6 -11  -4   47.90   14.90
   6  11  -3   53.63   11.74
   6 -11  -3   73.47   13.57
  -6 -11  -3   57.56   14.20
  -6  11  -3   61.68   15.15
   6  11  -2   48.59   11.05
   6  11  -2   43.58   11.73
  -6  11  -2   30.56    9.43
   6 -11  -2   57.84   12.73
  -6 -11  -2   53.81   12.92
  -6  11  -2   42.71   12.19
  -6  11  -1   24.91    9.06
   6  11  -1   20.85   10.12
  -6 -11  -1   28.93    9.14
   6 -11  -1   26.87    9.40
  -6  11   0    8.52    7.48
   6  11   0   11.14    9.28
   6 -11   0   -0.64    5.88
  -6 -11   0   13.51    8.01
  -6  11   1   19.62    9.06
   6  11   1   31.23   13.68
  -6 -11   1   34.29   10.99
   6 -11   1   43.25   10.73
  -6  11   2   73.22   15.21
   6  11   2   51.55   15.08
  -6 -11   2   42.02   12.78
   6 -11   2   52.47   13.34
  -6 -11   2   59.10   14.74
  -6  11   3   55.14   13.87
   6  11   3   50.45   15.65
  -6 -11   3   35.88   13.29
   6 -11   3   46.16   13.13
  -6 -11   3   34.18   13.44
  -6 -12  -4   17.33   10.07
   6  12  -4   19.36    8.75
   6  12  -3   36.68    9.85
   6 -12  -3   28.22   10.54
  -6 -12  -3   36.16   12.12
   6  12  -2    0.97    4.55
  -6  12  -2   10.63    6.43
   6  12  -2    0.24    6.39
   6 -12  -2    0.10    4.92
  -6 -12  -2   -9.13    8.01
  -6  12  -2  -15.44    9.11
  -6  12  -1   62.00   13.44
   6  12  -1   61.23   14.14
  -6 -12  -1   94.90   16.51
  -6  12   0   59.59   13.23
   6  12   0   56.62   14.77
   6 -12   0   38.37   11.04
  -6 -12   0   40.62   11.55
  -6  12   1   83.11   16.14
   6  12   1   88.36   18.20
  -6 -12   1   59.25   13.56
   6 -12   1   99.05   17.23
  -6  12   2    0.56    7.62
   6  12   2   -9.27   10.03
  -6 -12   2   10.69    8.14
   6 -12   2    2.11    7.22
  -6 -12   2    7.56    7.44
  -6 -12   3   30.50   11.97
  -6 -13  -3   -1.79    7.57
   6 -13  -3   12.24    7.48
   6  13  -2   24.27    9.56
   6  13  -2   30.06    8.93
  -6 -13  -2   10.13   10.04
   6 -13  -2   20.67    8.43
  -6  13  -1   31.52   10.12
   6  13  -1   48.94   14.56
  -6 -13  -1   32.02   10.09
  -6  13   0    3.92    6.18
   6  13   0   26.08   11.97
   6 -13   0   23.98    9.80
  -6 -13   0   -7.11    6.99
  -6  13   1   48.36   13.51
   6  13   1   33.46   13.57
   6 -13   1   56.53   14.15
  -6 -13   1   38.16   12.47
  -6  13   2   30.48   11.90
  -6 -13   2   22.81    9.22
   6  14  -2   -2.38    7.99
   6 -14  -2   21.14    9.92
  -6 -14  -2   16.44    9.44
   6  14  -1   12.65    8.34
  -6  14  -1    4.93    7.01
  -6 -14  -1   20.54    9.86
   6 -14  -1    5.66    5.79
  -6  14   0   43.40   12.38
   6  14   0   66.01   15.73
   6 -14   0   29.06   10.25
  -6 -14   1    2.30    7.97
  -6  14   1    1.74    7.23
   6 -14   1    3.26    7.61
   6  15  -2   -2.72    7.02
  -6  15  -1   -7.64    7.28
  -6  15   0   21.73    9.77
   6 -15   0   29.40   11.23
   7   0  -5    3.01    8.06
  -7   0  -5   -1.64    7.85
   7   0  -4    9.86    9.87
  -7   0  -4   -3.37    6.59
  -7   0  -4    6.84    6.63
   7   0  -3   -8.48    6.54
   7   0  -3    0.43    7.18
  -7   0  -3   -1.24    6.64
  -7   0  -3   10.33    5.58
   7   0  -2    0.49    3.81
  -7   0  -2    5.27    6.18
  -7   0  -2    0.42    4.15
  -7   0  -1    8.71    6.80
   7   0  -1  -11.38    6.03
  -7   0  -1   -0.76    5.11
   7   0   0   -8.82    5.61
  -7   0   0    2.07    5.10
  -7   0   0   -3.55    5.48
   7   0   1  -13.17    7.73
  -7   0   1    4.33    5.12
  -7   0   1   -2.99    8.88
  -7   0   2    4.31    4.68
   7   0   2    4.01    6.79
  -7   0   2   -2.99    7.45
   7   0   3  -10.59    8.01
  -7   0   3  -24.10   11.25
  -7   0   4   -6.22    5.78
  -7   0   4   -3.49    7.11
   7   0   4    2.51    6.82
  -7   0   5   -8.10    5.88
  -7   0   5   -9.64   10.60
   7   0   5   14.87   10.00
   7   0   5  -13.47    9.56
   7   1  -5   41.58   13.50
   7  -1  -5   35.35   12.45
  -7   1  -5   32.68   14.60
  -7  -1  -5    4.71    7.48
   7   1  -4   11.59    8.32
   7  -1  -4    2.22    7.74
  -7   1  -4   -7.12    7.26
  -7  -1  -4   -3.28    6.87
  -7   1  -4  -11.25    7.06
   7   1  -3   27.26    8.31
   7   1  -3   29.93   11.50
   7  -1  -3   50.50   13.30
  -7   1  -3   30.19    9.79
  -7  -1  -3   27.27   10.55
  -7  -1  -3   41.52    8.55
  -7   1  -3   30.85    8.71
   7  -1  -2   -1.98    3.48
  -7  -1  -2    0.29    6.84
   7   1  -2   -2.72    3.59
  -7   1  -2    6.50    7.90
  -7  -1  -2   -6.10    4.56
  -7   1  -2    2.34    4.59
   7   1  -2    2.15    6.90
  -7   1  -1  114.71   15.41
   7  -1  -1   97.70   12.16
   7   1  -1   86.40   11.42
  -7  -1  -1   88.57   13.79
  -7   1  -1   97.12   11.89
  -7  -1  -1   97.45   11.32
   7  -1   0    7.24    5.35
   7   1   0    0.18    5.18
  -7   1   0    1.05    5.54
  -7  -1   0    9.52    6.40
  -7   1   0    4.32    6.13
  -7  -1   0    3.03    5.41
  -7  -1   1  115.25   14.72
   7  -1   1  107.12   14.74
   7   1   1  124.66   15.99
  -7   1   1  128.13   14.94
  -7   1   1   81.79   14.38
  -7  -1   1  101.66   15.20
  -7   1   2    0.84    5.14
   7  -1   2  -11.79    8.09
   7   1   2    7.18    7.03
  -7  -1   2   -4.07    5.56
  -7  -1   2   -0.65    7.14
  -7   1   3   41.00   10.71
  -7   1   3   16.41    9.30
  -7  -1   3   55.58   16.34
   7  -1   3   27.14    9.79
   7   1   3   36.40   10.92
  -7   1   4   11.02    7.54
  -7   1   4    6.75    7.34
  -7  -1   4    3.10    6.65
   7  -1   4   12.71    8.85
   7   1   4   -9.47    8.49
   7   1   4    8.93    8.13
  -7   1   5   14.75    7.89
  -7   1   5   35.64   13.81
  -7  -1   5   16.42   12.23
   7  -1   5   51.05   14.14
   7   1   5    3.62    6.60
   7   1   5   23.41   11.44
  -7   1   6   -1.44    6.14
   7   2  -5   31.77   12.04
   7  -2  -5   28.72   13.56
  -7   2  -5   28.25   11.62
  -7  -2  -5   32.13   13.01
  -7   2  -5    9.24   10.58
   7   2  -4   16.53   10.02
   7  -2  -4   35.46   12.08
  -7   2  -4   20.11    9.35
  -7  -2  -4   17.94    9.40
  -7   2  -4   38.04   10.20
   7  -2  -3    7.63    9.14
   7   2  -3   15.46    9.64
   7   2  -3   16.98    7.29
  -7   2  -3    4.78    7.26
  -7  -2  -3    2.96    7.09
  -7   2  -3   21.53    8.09
   7   2  -2   67.10   12.17
   7  -2  -2   38.10    7.17
  -7  -2  -2   54.68   12.16
  -7   2  -2   36.88   10.56
  -7  -2  -2   39.54    7.69
  -7   2  -2   48.63   10.44
   7   2  -1   42.88   11.82
  -7   2  -1   31.10    7.99
  -7  -2  -1   47.29    8.44
   7  -2  -1   33.55    8.43
   7   2  -1   32.13    7.90
  -7  -2  -1   43.69   10.62
  -7   2  -1   48.95   10.66
  -7  -2   0   -3.49    6.03
  -7   2   0    0.05    4.20
   7  -2   0   -2.53    4.24
   7   2   0   -3.05    5.64
  -7  -2   0    7.45    6.34
   7   2   0    1.34    7.97
  -7  -2   1   34.54   10.38
  -7  -2   1   57.80   11.17
   7  -2   1   40.37   10.41
   7   2   1   36.12    9.88
  -7   2   1   36.85    8.55
   7   2   1   59.26   14.37
  -7   2   2   68.87   13.45
  -7  -2   2   54.13   13.22
   7  -2   2   48.40   11.20
   7   2   2   50.19   12.24
  -7   2   2   49.38    9.61
   7   2   2   64.88   15.48
  -7   2   3    5.51    7.47
  -7  -2   3    1.67    9.07
   7  -2   3    7.92    7.23
  -7   2   3   20.40    6.80
   7   2   3   22.29   10.06
   7   2   3   23.19   11.75
   7   2   4   23.07   11.76
  -7   2   4    6.72    5.69
   7  -2   4    2.76    6.55
   7   2   4   18.01    9.48
  -7  -2   4   24.82   10.34
  -7   2   5   -0.16    9.04
  -7  -2   5   15.03   11.38
   7   2   5   26.98   12.79
  -7   2   5   24.53    9.29
  -7   2   6   48.68   12.88
  -7   3  -6   14.13   10.01
   7  -3  -5    1.70    9.33
  -7   3  -5   -1.73    8.40
  -7   3  -5   10.28    6.22
   7   3  -4   15.83    7.67
   7  -3  -4    9.13    9.42
  -7   3  -4    9.20    8.55
  -7  -3  -4   -6.07    6.89
  -7   3  -4   -0.97    5.93
   7  -3  -3   89.19   15.60
   7   3  -3   78.06   15.18
  -7   3  -3   80.50   15.78
  -7  -3  -3   67.00   13.78
  -7   3  -3   73.49   13.17
   7   3  -2   -2.91    6.71
  -7   3  -2    0.20    6.51
   7  -3  -2    0.37    4.11
  -7   3  -2    7.92    5.89
   7   3  -1    3.76    8.07
  -7  -3  -1   -5.63    5.52
   7  -3  -1    6.08    5.03
   7   3  -1   -2.78    4.66
  -7  -3  -1    8.20    6.75
  -7   3  -1    4.20    6.61
  -7  -3  -1    1.48    3.02
   7   3   0    1.83    8.03
  -7   3   0    5.37    5.27
   7  -3   0    7.41    5.50
   7   3   0   -3.45    5.21
  -7  -3   0    4.31    5.59
  -7  -3   0    1.21    5.76
  -7   3   1   21.95    9.41
   7   3   1    5.69    8.54
   7  -3   1    7.00    6.08
  -7   3   1    3.36    4.87
  -7  -3   1    9.06    6.72
   7   3   1    2.25    5.46
  -7  -3   1    3.17    5.78
   7   3   2  -11.56    9.81
  -7   3   2    3.51    6.21
   7  -3   2  -10.39    7.88
   7   3   2   -2.47    7.83
  -7   3   2    7.16    5.00
  -7  -3   2   -3.65    7.21
   7   3   3   73.94   17.25
  -7   3   3   59.32   13.35
   7  -3   3   55.26   13.10
   7   3   3   65.22   13.46
  -7   3   3   60.68    9.98
  -7  -3   3   49.45   13.69
   7   3   4    4.29    8.71
  -7   3   4   -1.42    5.07
   7  -3   4   -2.04    6.27
   7   3   4   -5.73    7.11
  -7  -3   4    1.11    7.71
   7   3   5    9.84    9.32
  -7   3   5    5.83    7.33
   7  -4  -5    5.26    8.92
  -7   4  -5    4.03    7.89
   7   4  -4   -4.45    7.09
   7  -4  -4   10.31    8.74
  -7   4  -4    0.06    6.43
  -7  -4  -4   12.48    8.42
  -7   4  -4    4.10    6.79
   7  -4  -3   -5.65    7.03
   7   4  -3    0.32    7.12
  -7   4  -3  -10.21    7.04
  -7  -4  -3  -10.70    8.27
  -7   4  -3   -9.71    7.39
   7   4  -2  110.67   15.43
  -7  -4  -2   90.22   15.13
  -7   4  -2   94.42   15.50
   7  -4  -2  119.39   12.71
  -7   4  -2   91.42   13.85
   7   4  -1   10.10    8.80
  -7  -4  -1   18.12    6.35
   7  -4  -1    3.90    4.50
   7   4  -1    8.36    5.05
  -7  -4  -1   12.32    7.37
  -7   4  -1    3.49    6.80
  -7  -4   0  251.35   20.29
   7  -4   0  226.03   19.84
  -7   4   0  244.74   20.90
   7   4   0  218.08   19.42
  -7  -4   0  258.78   23.19
   7   4   0  238.65   24.72
   7   4   1   10.36    9.56
  -7   4   1    9.60    7.18
  -7   4   1   23.12    7.08
   7  -4   1   17.23    7.96
   7   4   1    3.64    5.71
  -7  -4   1   17.07    7.52
  -7  -4   1   14.85    8.10
   7   4   2  113.31   19.94
  -7   4   2   95.16   15.34
   7  -4   2   96.63   15.28
  -7   4   2  110.29   12.81
   7   4   2  122.14   17.08
  -7  -4   2  109.55   16.96
   7   4   3    2.09    8.76
  -7   4   3   11.92    8.02
   7   4   3    7.51    6.89
  -7  -4   3    0.68    7.61
   7   4   4   -2.00    8.11
  -7   4   4    6.97    6.53
   7  -4   4    4.14    7.95
   7   4   4  -14.59    9.23
  -7  -4   4    8.03    9.06
  -7   4   5   -6.41    6.75
   7   4   5    1.14    7.71
   7  -5  -5   61.75   15.84
  -7   5  -5   46.04   14.04
   7   5  -4    1.52    7.67
   7  -5  -4   -3.12    7.46
  -7   5  -4   -1.97    6.72
  -7  -5  -4   -1.23    6.64
  -7   5  -4   22.70    9.64
   7   5  -3    2.65    6.63
   7  -5  -3    3.72    6.42
  -7  -5  -3    1.02    5.16
  -7   5  -3   -5.23    8.99
  -7   5  -3   -1.30    5.25
   7  -5  -2   -2.09    7.16
   7   5  -2   -3.36    6.29
   7  -5  -2    4.97    3.36
  -7  -5  -2    5.22    6.56
  -7   5  -2   -1.37    5.96
   7  -5  -2   -0.64    3.78
  -7   5  -2    4.54    5.31
   7   5  -1    4.20    7.79
   7   5  -1   15.58    6.51
  -7   5  -1   11.92    6.55
  -7  -5  -1   23.26    9.17
   7  -5  -1   30.36    8.10
  -7  -5  -1   26.63    7.30
   7  -5  -1   15.49    4.54
  -7   5   0   22.70    9.81
   7   5   0   22.28    9.94
   7  -5   0   17.75    7.19
  -7  -5   0    0.96    5.95
   7   5   0   -0.13    5.03
  -7   5   0   19.08    7.36
  -7  -5   0   16.11    6.91
   7   5   1   15.95   10.26
  -7   5   1   19.99    8.68
   7  -5   1   17.47    8.53
   7   5   1   18.98    8.60
  -7   5   1   18.61    6.31
  -7  -5   1   11.57    8.70
   7   5   2   14.29   11.35
  -7   5   2    3.55    6.64
   7  -5   2    8.59    7.29
   7   5   2   -3.33    6.56
  -7  -5   2    5.80    7.46
   7   5   3    7.63    9.68
  -7   5   3    9.99    7.31
   7  -5   3    5.79    6.35
   7   5   3   -1.02    7.30
  -7  -5   3   14.41    9.30
  -7   5   4    8.60    7.21
   7   5   4    9.58    9.62
   7  -5   4    4.98    7.65
   7   5   4    1.41    6.84
  -7  -5   4   13.06    9.56
  -7   5   5   44.72   12.05
   7  -6  -5   40.69   12.31
  -7   6  -5   19.63   11.23
   7   6  -4   15.39    9.22
   7  -6  -4    5.47    7.05
  -7   6  -4   -7.17    8.19
  -7   6  -4   12.94    9.47
   7  -6  -3    7.26    7.72
   7   6  -3   -2.37    7.55
  -7  -6  -3   17.04    9.12
  -7   6  -3   -1.65    7.25
  -7   6  -3   14.41    8.40
   7  -6  -2   46.05   11.54
   7   6  -2   35.23   10.53
   7  -6  -2   42.97    7.95
  -7   6  -2   38.44   10.19
  -7  -6  -2   45.93   10.90
   7  -6  -2   51.07   10.06
  -7   6  -2   39.98   10.89
   7   6  -1   22.53   10.09
  -7   6  -1   28.34    8.80
   7   6  -1   43.76    9.13
  -7  -6  -1   38.55   10.74
   7  -6  -1   22.09    7.25
   7  -6  -1   23.45    6.34
  -7  -6  -1   31.48    8.08
   7   6   0   67.29   15.47
  -7   6   0   63.58   12.88
   7  -6   0   66.25   11.72
  -7  -6   0   53.55   12.02
  -7   6   0   77.38   12.33
  -7  -6   0   92.84   13.57
   7   6   1    9.65    9.29
  -7   6   1   35.39   11.09
   7  -6   1   32.88   10.10
  -7   6   1   35.39    8.06
  -7  -6   1   16.77    8.46
  -7   6   2   49.91   13.32
   7   6   2   43.64   13.23
   7  -6   2   54.24   12.40
  -7  -6   2   40.46   10.94
  -7   6   3    5.64    7.24
   7   6   3    2.73    9.35
   7  -6   3    6.09    7.64
  -7  -6   3    2.49    7.98
  -7   6   4    7.73    7.64
   7   6   4    9.96    9.46
  -7  -6   4    2.30    9.98
   7  -6   4   16.36    9.53
   7   6   4    1.74    6.56
   7  -7  -5   -0.42    7.28
   7   7  -4   28.29   10.93
   7  -7  -4    9.16    7.55
  -7   7  -4   26.18   11.84
  -7  -7  -4    3.77    6.86
  -7   7  -4  -11.75    8.80
   7   7  -3   55.59   13.24
   7  -7  -3   42.59   11.53
   7  -7  -3   54.60   11.18
  -7  -7  -3   54.93   13.58
  -7   7  -3   67.06   14.80
  -7   7  -3   36.19   11.92
   7   7  -2   -0.78    5.33
   7  -7  -2   22.42    8.74
   7  -7  -2    8.26    5.01
  -7   7  -2    3.07    6.14
  -7  -7  -2   12.99    8.41
   7  -7  -2    6.59    5.95
  -7   7  -2   11.63    6.82
   7   7  -1  120.06   17.74
  -7   7  -1  157.46   18.94
  -7  -7  -1  124.83   17.82
   7  -7  -1  131.12   15.88
   7  -7  -1  137.30   14.31
  -7  -7  -1  117.07   14.08
   7   7   0    2.71    7.77
  -7   7   0   12.77    8.16
  -7  -7   0    1.99    5.17
  -7   7   0   18.08    7.59
   7  -7   0   14.99    7.34
  -7  -7   0    7.79    6.69
  -7   7   1  176.75   20.73
   7   7   1  169.09   22.95
   7  -7   1  137.02   17.96
  -7  -7   1  156.51   18.39
  -7   7   2   12.81    8.36
   7   7   2    9.77   10.42
   7  -7   2   14.62    7.97
  -7  -7   2   -3.73    7.20
  -7   7   3   52.06   13.58
   7   7   3   63.10   16.37
   7  -7   3   53.76   13.00
  -7  -7   3   49.82   13.84
  -7   7   4    6.98    8.13
   7   7   4   17.44   10.76
  -7  -7   4   -2.53    7.46
   7  -7   4   -0.04    6.91
   7  -8  -5   -7.30    9.35
   7   8  -4   13.06    9.03
   7  -8  -4    7.48    7.90
  -7   8  -4   25.72   11.27
  -7  -8  -4   -0.39    6.53
  -7   8  -4    9.31    9.23
   7   8  -3   29.23   10.40
   7  -8  -3   13.76    6.16
   7  -8  -3    2.79    7.82
  -7   8  -3   30.58   11.48
  -7  -8  -3   40.69   12.10
  -7   8  -3   37.68   11.35
   7  -8  -2   15.21    8.22
   7   8  -2   17.23    8.50
   7  -8  -2   12.27    5.79
  -7   8  -2   14.75    8.60
  -7  -8  -2   12.34    8.59
   7  -8  -2    8.88    6.69
  -7   8  -2   13.96    7.36
  -7   8  -1   25.59   10.03
   7   8  -1   24.31   11.14
  -7   8  -1   15.84    7.37
  -7  -8  -1   31.52   10.06
   7  -8  -1   24.13    8.71
   7  -8  -1   13.37    5.85
  -7  -8  -1   18.88    7.33
   7   8   0   76.88   15.98
  -7   8   0  100.37   15.86
  -7  -8   0   80.39   14.38
   7  -8   0  107.78   15.92
  -7  -8   0   97.29   14.20
  -7   8   1   13.16    8.47
   7   8   1   39.11   12.09
   7  -8   1   21.80    9.88
  -7  -8   1   27.49   10.27
  -7   8   2   34.21   11.32
   7   8   2   27.84   12.18
   7  -8   2   24.15    8.98
  -7  -8   2   24.47   10.14
  -7   8   3   25.86   10.35
   7   8   3   36.04   13.88
   7  -8   3   52.76   13.33
  -7  -8   3   14.84   11.64
   7   9  -4   -3.53    7.14
  -7   9  -4  -12.61    9.61
   7   9  -3   47.51   11.07
   7  -9  -3   27.69    9.01
   7  -9  -3   46.96   11.00
  -7   9  -3   41.29   13.02
  -7  -9  -3   40.39   14.57
  -7   9  -3   37.80   13.53
   7  -9  -2   15.66    7.63
   7   9  -2   27.42   10.89
   7  -9  -2   13.06    6.74
  -7   9  -2   27.59   10.42
  -7  -9  -2   12.37   10.60
  -7   9  -2    8.41    6.07
   7  -9  -1   19.29    7.59
   7   9  -1   25.59   10.09
  -7   9  -1   20.92    8.82
   7  -9  -1   24.90    9.01
  -7  -9  -1    7.66    6.15
   7  -9  -1   27.12    7.70
  -7  -9  -1   18.97    7.87
  -7   9   0    8.50    8.15
   7   9   0   -4.57    7.01
  -7  -9   0    3.76    7.73
   7  -9   0    2.95    6.65
  -7  -9   0    0.61    5.85
  -7   9   1   27.74    9.77
   7   9   1   11.75    9.68
   7  -9   1   36.21   11.40
  -7  -9   1   20.95    9.65
  -7   9   2   17.65    8.97
   7   9   2   27.63   12.92
   7  -9   2   24.64    9.84
  -7  -9   2   38.88   11.66
  -7   9   3   46.20   12.86
   7   9   3   41.27   14.24
   7  -9   3   34.92   11.43
  -7  -9   3   52.44   13.66
  -7  10  -4   19.52   12.82
   7 -10  -4    3.70    6.08
   7  10  -3    5.80    5.38
   7 -10  -3   22.17    7.64
  -7 -10  -3   27.38   11.64
  -7  10  -3    9.58    8.02
   7  10  -2   19.97   10.03
   7 -10  -2   22.39    7.42
  -7 -10  -2   16.19   10.20
  -7  10  -2   33.44   12.27
   7  10  -1    0.23    6.77
  -7  10  -1   10.92    7.56
   7 -10  -1    1.84    5.33
  -7 -10  -1   15.74    9.01
   7 -10  -1   13.29    5.75
  -7 -10  -1    1.66    5.19
  -7  10   0   28.43   10.49
   7  10   0   47.59   13.49
  -7 -10   0   44.16   11.59
   7 -10   0   33.71   11.06
  -7 -10   0   56.11   12.24
  -7  10   1    7.10    7.86
   7  10   1    7.95    9.87
   7 -10   1    8.31    7.12
  -7 -10   1   12.43    8.04
  -7  10   2   31.56   11.11
   7  10   2   26.72   11.99
   7 -10   2   31.08   11.39
  -7 -10   2   29.86   11.54
  -7 -10   3   15.08    9.65
   7  11  -3   -7.61    6.50
   7 -11  -3    3.83    5.21
   7  11  -2   -4.33    5.94
   7  11  -2   -7.25    8.95
  -7 -11  -2    8.36    8.12
   7 -11  -2   -9.31    6.14
  -7  11  -1   21.16    9.53
   7  11  -1   31.53   11.72
   7 -11  -1   33.95   10.93
  -7 -11  -1   27.69    9.78
   7 -11  -1   33.16    9.14
  -7  11   0   11.16    7.56
   7  11   0    5.01    9.68
  -7 -11   0   -7.34    6.86
   7 -11   0   10.19    7.57
  -7 -11   0   17.33    8.76
  -7  11   1   24.22   10.08
   7  11   1   42.07   14.77
   7 -11   1   22.96   10.00
  -7 -11   1   24.39   10.30
  -7 -11   2   11.13    9.15
   7  12  -3   22.89    8.96
   7 -12  -3    2.49    4.24
   7  12  -2   10.87    6.70
   7  12  -2   22.87   10.33
   7 -12  -2   11.66    7.54
  -7  12  -1   13.62    8.09
   7  12  -1   -9.42    9.68
   7 -12  -1   10.47    6.49
  -7  12   0   23.52   10.73
   7  12   0   14.99   10.70
   7 -12   0   16.81    9.43
  -7 -12   0   -9.59    8.12
   7 -12   1    0.55    9.58
  -7 -12   1   15.64    9.61
   7 -13  -2   -5.94    5.08
  -7  13  -1   16.15    8.68
   7  13  -1   10.90    9.12
   7 -13  -1    2.55    4.91
  -7 -13   0   -7.16    8.86
  -7 -13   1    7.46    8.97
   8   0  -3   89.22   17.87
  -8   0  -3   87.29   16.91
  -8   0  -2   91.95   15.41
   8   0  -2   81.53   14.16
  -8   0  -1   13.95    7.04
   8   0  -1  -13.44    6.05
   8   0   0   13.10    7.66
  -8   0   0   14.34    5.69
  -8   0   0    4.82    5.42
   8   0   1   -0.54    6.19
  -8   0   1   10.30    7.22
  -8   0   1   -4.33    8.13
   8   0   2  100.13   16.22
  -8   0   2  103.25   15.19
  -8   0   2  128.48   19.23
   8   0   3   65.72   14.82
  -8   0   3  105.90   15.10
  -8   0   3   87.10   17.89
  -8   0   4   16.08   12.12
   8   1  -3   14.67    8.57
   8  -1  -3    5.89    8.81
  -8   1  -3    3.10    5.69
  -8  -1  -3    0.82    5.94
   8   1  -2   -7.26    5.90
  -8   1  -2    4.46    6.63
  -8  -1  -2   -9.48    7.49
  -8   1  -2   10.12    6.47
  -8   1  -1    9.59    6.89
   8  -1  -1   15.40    6.43
  -8  -1  -1   11.51    7.07
   8   1  -1   12.11    6.74
   8   1  -1    8.39    8.59
  -8   1   0    3.91    6.08
  -8  -1   0   -0.39    5.79
   8  -1   0   -5.57    5.90
  -8   1   0    3.68    5.88
   8   1   0    3.94    6.35
  -8  -1   0    5.85    6.29
   8   1   0    5.23    8.80
  -8   1   1    7.13    7.95
  -8  -1   1   13.30    8.95
   8  -1   1    2.52    7.17
   8   1   1    7.96    7.45
  -8   1   1    4.26    5.61
  -8  -1   1    6.38    6.26
  -8   1   2   -0.19    7.78
  -8  -1   2  -14.92    9.86
  -8  -1   2   -1.32    5.51
   8  -1   2   -4.09    5.64
   8   1   2   -3.05    6.36
  -8   1   2   -0.90    5.01
  -8   1   3    3.09    9.94
  -8  -1   3   12.09   10.38
  -8   1   3    8.63    5.61
   8  -1   3    8.74    8.04
   8   1   3  -13.79    8.70
  -8  -1   3    3.84    6.00
   8   1   3    5.35   10.11
  -8   1   4    5.16    9.73
  -8  -1   4   -7.64    9.38
   8  -2  -4   43.21   13.83
   8  -2  -3   22.33   10.09
   8   2  -3    4.19    7.13
  -8   2  -3   18.35   10.06
  -8  -2  -3    4.76    7.19
  -8   2  -3    2.57    6.07
   8   2  -2    0.28    5.82
  -8  -2  -2    2.69    6.20
  -8   2  -2    8.38    9.37
  -8   2  -2   13.78    6.47
   8   2  -1  -14.45    9.98
   8  -2  -1   20.01    7.19
   8   2  -1   -0.72    5.21
  -8  -2  -1    8.41    7.07
  -8   2  -1   -2.35    5.32
   8   2   0   41.13   13.29
  -8   2   0   21.43    8.15
  -8  -2   0   23.68    8.43
  -8   2   0   23.14    7.57
   8  -2   0   36.66    9.43
   8   2   0   31.86    9.95
  -8  -2   0   47.21   11.65
  -8   2   1  -15.17    8.92
  -8  -2   1   -7.35    7.48
   8  -2   1    1.74    6.48
  -8   2   1    1.30    5.76
   8   2   1   -7.33    7.73
  -8  -2   1    6.92    7.63
   8   2   1    1.15    9.91
  -8   2   2    1.62    7.76
  -8  -2   2   -6.39    8.48
   8  -2   2   -3.86    6.80
  -8  -2   2    8.88    7.10
   8   2   2    3.90    6.31
  -8   2   2   -3.01    4.59
  -8   2   3   -2.43    5.81
   8   2   3   -7.68   10.18
   8  -2   3    7.01    7.91
   8   2   3    3.69    7.36
  -8   2   3  -16.14   11.05
  -8  -2   3   -5.86    9.37
  -8   2   4   11.56   10.45
  -8  -2   4   20.85   11.01
  -8   2   4   27.93    9.77
   8  -3  -4   44.77   14.64
  -8   3  -4   45.22   11.91
   8  -3  -3   17.71   10.79
   8   3  -3   13.12   10.20
  -8   3  -3   23.35   10.49
  -8  -3  -3   -0.02    6.53
  -8   3  -3    6.41    6.56
   8   3  -2    1.58    6.23
  -8  -3  -2   -7.62    6.76
  -8   3  -2    2.97    5.04
  -8   3  -2   10.04    6.82
   8   3  -1  136.63   19.39
   8  -3  -1  133.40   15.29
   8   3  -1  144.92   15.63
  -8  -3  -1  125.19   17.94
  -8   3  -1  136.91   18.34
   8   3   0   16.89   11.41
   8  -3   0   15.09    8.12
   8   3   0   26.04    9.45
  -8  -3   0   16.46    8.78
  -8   3   0   23.72    8.10
  -8  -3   0   20.40    7.53
   8   3   1  201.43   25.85
  -8  -3   1  133.10   18.03
  -8   3   1  131.14   15.84
   8  -3   1  140.55   18.36
   8   3   1  130.13   17.67
  -8  -3   1  133.63   17.73
  -8   3   2   11.55    8.93
   8   3   2   12.34   10.41
   8  -3   2    1.22    6.63
   8   3   2   -0.21    6.83
  -8   3   2    1.89    5.23
  -8  -3   2   -9.67    6.14
  -8  -3   2  -12.45    8.48
   8   3   3   27.86   12.98
  -8   3   3    4.31    5.84
   8  -3   3    4.91    7.26
   8   3   3    3.80    6.98
  -8  -3   3    8.48    9.10
  -8   3   4   36.79   11.54
   8  -4  -4   66.55   15.75
  -8   4  -4   49.15   13.17
   8  -4  -3   31.00   12.07
   8   4  -3   37.71   12.11
  -8   4  -3   49.63   12.98
  -8  -4  -3   22.94   10.00
  -8   4  -3   44.37   11.32
   8  -4  -2   23.35   10.10
   8   4  -2   -7.41    6.96
  -8  -4  -2   10.93    8.06
  -8   4  -2   17.85    8.60
  -8   4  -2   27.16    9.05
   8   4  -1   16.38    9.84
   8  -4  -1   10.91    6.18
  -8  -4  -1   12.52    7.77
  -8   4  -1   30.60    9.77
   8   4   0   21.12   11.31
   8  -4   0   45.89   10.76
   8   4   0   36.08    9.97
  -8  -4   0   30.54   10.18
  -8   4   0   36.79    9.91
  -8  -4   0   43.93    9.65
   8   4   1   34.44   13.26
  -8   4   1   35.81    8.89
   8  -4   1   24.34    9.78
  -8  -4   1   28.70   10.06
   8   4   1   20.40    9.14
  -8  -4   1   31.52   10.10
   8   4   2   21.91   12.26
  -8   4   2   16.66    8.68
   8  -4   2   22.76    9.23
   8   4   2   12.18    8.67
  -8  -4   2   18.62    6.81
  -8  -4   2   -6.38    7.58
   8   4   3   36.94   13.90
  -8   4   3   50.83   12.92
  -8  -4   3   44.25   13.87
   8  -4   3   16.39    9.91
   8   4   3   35.71   12.68
   8  -5  -4    1.40    9.53
  -8   5  -4   11.60    8.19
   8  -5  -3  -14.61    9.32
   8   5  -3    2.85    7.81
  -8  -5  -3   -3.56    7.59
  -8   5  -3   13.15    8.15
  -8   5  -3   -5.95    6.92
   8  -5  -2   15.21    9.16
   8   5  -2    3.24    6.62
  -8  -5  -2    6.13    7.02
  -8   5  -2   12.75    7.47
  -8   5  -2    6.05    6.97
   8   5  -1   30.03   11.04
  -8  -5  -1   40.66   12.35
  -8   5  -1   55.50   12.37
   8  -5  -1   36.21    9.21
   8   5   0   -0.90    8.78
   8  -5   0   -9.84    6.51
   8   5   0   -4.76    5.73
  -8   5   0    9.36    5.60
  -8  -5   0    2.87    6.40
  -8  -5   0    1.73    4.79
  -8   5   1   46.21   12.49
   8   5   1   51.16   15.94
   8  -5   1   46.16   11.74
  -8  -5   1   65.42   13.54
   8   5   1   41.53   11.69
  -8  -5   1   52.65   11.92
   8   5   2   34.81   14.38
  -8   5   2   15.35    8.87
   8  -5   2   14.67    8.45
   8   5   2   -1.48    7.01
  -8  -5   2   13.26    8.59
   8   5   3    7.52   10.81
  -8   5   3    2.65    6.53
  -8  -5   3    5.24    8.84
   8  -5   3    0.93    7.01
   8   5   3   -5.20    7.86
   8  -6  -4   11.17    8.66
  -8   6  -4   10.54    9.24
   8  -6  -3   25.47    9.70
   8   6  -3   29.50   11.83
  -8   6  -3   37.44   12.84
  -8   6  -3   18.56    9.42
   8  -6  -2   16.23    8.83
   8   6  -2    7.94    7.73
  -8  -6  -2    9.71    8.70
  -8   6  -2    1.66    5.73
  -8   6  -2    7.34    6.50
   8   6  -1    3.01    8.46
  -8   6  -1   10.24    7.59
  -8  -6  -1   11.92    8.44
   8  -6  -1    5.94    6.12
   8   6   0   10.32    8.45
   8  -6   0   21.03    8.65
   8   6   0   10.09    8.57
  -8   6   0    6.91    5.97
  -8  -6   0   12.46    8.89
  -8  -6   0   25.22    8.49
   8   6   1    0.15    9.15
  -8   6   1    2.96    6.86
   8  -6   1   -6.18    6.70
  -8  -6   1    1.10    5.70
   8   6   1   -3.61    6.19
  -8  -6   1   -0.68    5.55
   8   6   2    0.53    7.50
  -8   6   2    6.26    8.37
  -8  -6   2   15.32    8.70
   8  -6   2  -12.06    7.38
   8   6   2   -0.86    7.15
  -8  -6   3   19.93    9.63
   8  -6   3   17.96   10.03
   8   6   3   36.66   11.95
   8  -7  -4   44.13   13.37
   8  -7  -3   32.20   11.43
  -8   7  -3   30.47   11.95
  -8   7  -3   13.59    9.07
   8   7  -2    6.10    7.86
   8  -7  -2   36.56   11.14
  -8   7  -2   29.54   10.10
  -8  -7  -2    7.68    8.52
  -8   7  -2   12.42    7.07
   8   7  -1    5.33    7.84
  -8   7  -1   -7.88    6.76
  -8  -7  -1    7.72    6.91
   8  -7  -1    5.44    5.87
  -8   7   0   12.70    9.27
  -8  -7   0   21.78   11.25
   8   7   0   11.31    8.54
   8  -7   0   11.36    6.56
  -8  -7   0    6.36    5.65
   8   7   1    4.20    7.77
  -8   7   1    8.74    8.15
   8  -7   1    0.84    7.06
  -8  -7   1    2.64    6.42
   8   7   1   -2.85    8.20
  -8  -7   1    1.89    5.79
   8   7   2   35.07   13.74
  -8   7   2   25.96   10.71
   8  -7   2   14.02    9.49
   8   7   2   22.36    9.89
  -8  -7   2   25.01   10.58
  -8  -7   3   30.37   11.33
   8  -8  -3   28.47   11.40
  -8   8  -3   50.07   13.72
   8  -8  -2    7.83    7.40
   8   8  -2    6.63    7.67
  -8   8  -2    3.62    6.05
  -8   8  -2   -0.43    5.20
   8   8  -1   13.28    8.51
  -8  -8  -1    4.55    7.25
   8  -8  -1    2.14    5.52
  -8   8   0  108.79   17.47
   8   8   0   94.78   19.53
  -8  -8   0   73.76   16.77
   8  -8   0   65.23   13.58
  -8  -8   0   65.75   13.22
   8   8   1   22.49   12.14
  -8   8   1    6.58    7.57
   8  -8   1   13.89    7.59
  -8  -8   1    9.55    6.60
  -8  -8   1    2.65    6.54
   8  -8   2    2.23    7.78
  -8  -8   2    5.52    7.52
  -8   9  -3   13.03    7.69
   8   9  -1  -10.57    7.86
   8  -9  -1   -3.22    6.93
   8   9   0   20.34   11.39
  -8   9   0   23.96   10.94
   8  -9   0   17.31    8.45
   8   9   1   -9.09   10.19
   8  -9   1   18.17    9.26
  -8  -9   1    0.49    6.49
  -8  -9   2    4.94    6.83
   8  10  -1   14.66   10.66
   8 -10  -1   22.95    9.24
   8  10   0   19.45   11.36
   8 -10   0   -2.88    7.09
  -8 -10   1   12.77    8.38
   8  11  -1    0.02    9.33
   8 -11  -1   18.07    9.34
  -8 -11   1   12.92    8.67
  -9   0  -2    7.56    8.10
  -9   0  -1   10.39    8.36
   9   0  -1   -3.68    9.26
   9   0   0   -6.23    6.88
  -9   0   0   -6.52    7.64
   9   0   1   -0.02    7.94
  -9   0   1   -4.27    7.41
  -9   0   1   -2.45    7.79
   9   0   2   -7.79    7.71
  -9   0   2   13.40    7.95
  -9   0   2   -0.85   10.17
  -9   0   3    6.22   11.08
  -9   1  -2   14.36    9.36
  -9  -1  -2   -4.61    7.47
   9   1  -1   17.02   10.65
  -9  -1  -1   28.51   10.51
  -9   1  -1   10.55    7.54
  -9   1   0   20.00   10.04
   9  -1   0   -8.83    8.37
   9   1   0   -5.49    6.77
  -9  -1   0    8.89    8.89
   9   1   0   -9.74    9.99
  -9   1   1   -7.77    8.38
  -9  -1   1   -3.19    7.76
   9  -1   1    3.36    7.45
   9   1   1   -0.92    6.32
  -9   1   1   10.76    8.18
  -9  -1   1   10.06    7.89
   9   1   1   20.54   12.07
   9  -1   2  -17.99    9.24
   9   1   2   18.23    9.63
  -9   1   2   -9.84    7.36
  -9  -1   2   23.76    9.58
  -9   1   2   10.93    9.48
  -9  -1   2   10.23    9.35
  -9  -1   3    7.14    7.14
  -9   2  -2    4.36    6.47
  -9  -2  -1   -7.73    7.63
  -9   2  -1  -13.39    7.93
   9   2   0   90.88   19.72
  -9   2   0  100.96   16.72
   9  -2   0  100.72   15.96
   9   2   0   71.69   13.02
  -9  -2   0  108.25   18.18
   9   2   1   -2.92    9.51
  -9   2   1    0.78    7.54
   9  -2   1   -1.55    6.26
   9   2   1    2.51    6.62
  -9  -2   1    5.98    7.37
  -9   2   1    9.45    8.08
  -9  -2   1   13.81    8.28
   9  -2   2   16.23    9.20
   9   2   2   22.00   10.63
  -9  -2   2   13.20    8.00
  -9   2   2   40.65   12.95
  -9  -2   3   16.76    9.18
   9  -3  -2   -8.83    9.10
  -9   3  -2    0.08    6.15
   9   3  -1   -1.58    7.60
  -9  -3  -1   -1.97    5.21
  -9   3  -1    2.01    5.78
   9   3   0  -10.49   11.18
   9  -3   0   -6.12    6.01
   9   3   0   -2.39    5.47
  -9  -3   0   -5.09    7.06
  -9   3   0  -13.14    7.31
  -9   3   1    8.53    7.27
  -9  -3   1    2.28    5.24
   9  -3   1    3.29    6.07
   9   3   1   -2.24    6.68
  -9  -3   1   -4.56    8.06
  -9   3   2  -19.18   10.88
  -9  -3   2    5.03    8.05
  -9  -3   2   -3.33    5.65
   9  -3   2   -9.11    8.45
   9   3   2    1.65    7.40
  -9  -3   3   26.14   10.65
   9  -4  -2   15.53   10.29
  -9   4  -2   21.11    9.62
  -9   4  -2    9.51    7.39
   9   4  -1    9.96    8.50
  -9   4  -1    4.38    6.73
   9   4   0    7.21    9.71
   9  -4   0  -11.79    7.83
  -9  -4   0   19.25    9.98
  -9   4   0   10.16    7.57
   9   4   1    1.21    8.87
  -9  -4   1    2.20    5.79
   9  -4   1    5.53    7.30
   9   4   1    1.35    6.80
  -9  -4   1    9.68    7.94
  -9  -4   2   11.12    9.23
   9  -4   2   26.19   11.90
  -9  -4   2    4.53    8.82
   9   4   2   13.23    8.59
  -9   5  -3    5.13    8.16
   9  -5  -2    8.67    8.40
  -9   5  -2    8.93    8.61
   9   5  -1   32.35   11.51
  -9   5  -1    3.71    5.78
   9   5   0    0.16    6.31
   9  -5   0   -1.32    6.69
   9  -5   1   20.18    9.81
   9   5   1   14.45    8.67
  -9  -5   2   -1.46    6.29
   9   5   2   10.77    8.98
  -9   6  -2   13.17    8.48
  -9   6  -2   10.78    8.58
   9   6  -1   19.37   10.67
   9   6   0   74.50   17.19
   9  -6   0   63.01   13.28
   9  -6   1  -10.37    8.79
   9   6   1   -6.23    6.83
  -9  -6   2   30.31   11.55
   9  -7  -2  -20.33   10.25
   9   7  -1    9.57    9.18
   9  -7   0   27.13   10.66
   9   7   1    9.93    8.84
   9   8  -1   11.05    8.94
   9  -8   0   -4.13    7.47
   9   8   1    1.96    7.50
  10   0   1   58.78   14.89
  10   1   1  -14.74   11.13
   0   0   0    0.00    0.00


TITL px360 in Pna2(1)
REM Pna2(1) (#33, found as P2(1)nb in bca setting)
CELL 0.71073   7.329248  14.342707   6.348462  90.0000  90.0000  90.0000
ZERR   13.00   0.000755   0.001465   0.000504   0.0000   0.0000   0.0000
LATT -1
SYMM -x,-y, z+1/2
SYMM  x+1/2,-y+1/2, z
SYMM -x+1/2, y+1/2, z+1/2
SFAC C H N O
UNIT 13.00 13.00 13.00 13.00
TREF
HKLF 4
END
_computing_structure_solution     'SHELXT 2018/2 (Sheldrick, 2018)'
;
_shelx_hkl_checksum              7213
_olex2_submission_original_sample_id px360
_olex2_submission_special_instructions 'No special instructions were received'
_oxdiff_exptl_absorpt_empirical_details
;
Empirical correction (ABSPACK) includes:
- Absorption correction using spherical harmonics
- Frame scaling
;
_oxdiff_exptl_absorpt_empirical_full_max 1.244
_oxdiff_exptl_absorpt_empirical_full_min 0.801
loop_
_space_group_symop_operation_xyz
'x, y, z'
'-x, -y, z+1/2'
'x+1/2, -y+1/2, z'
'-x+1/2, y+1/2, z+1/2'
loop_
_atom_site_label
_atom_site_type_symbol
_atom_site_fract_x
_atom_site_fract_y
_atom_site_fract_z
_atom_site_U_iso_or_equiv
_atom_site_adp_type
_atom_site_occupancy
_atom_site_site_symmetry_order
_atom_site_calc_flag
_atom_site_refinement_flags_posn
_atom_site_refinement_flags_adp
_atom_site_refinement_flags_occupancy
_atom_site_disorder_assembly
_atom_site_disorder_group
O1 O 0.4666(3) 0.42661(15) 0.6151(4) 0.0238(5) Uani 1 1 d . . . . .
O3 O 0.1818(3) 0.43187(15) 0.5256(4) 0.0292(6) Uani 1 1 d . . . . .
O2 O 0.2491(3) 0.38158(17) 0.8409(4) 0.0325(6) Uani 1 1 d . . . . .
N2 N 0.8112(4) 0.35598(18) 0.4845(4) 0.0218(6) Uani 1 1 d . . . . .
N5 N 0.2840(4) 0.41155(19) 0.6663(4) 0.0248(6) Uani 1 1 d . . . . .
N3 N 0.7881(4) 0.3920(2) 0.2941(4) 0.0294(7) Uani 1 1 d . . . . .
N1 N 0.8629(4) 0.26781(19) 0.4828(5) 0.0280(6) Uani 1 1 d . . . . .
N4 N 0.8266(4) 0.3247(2) 0.1597(5) 0.0336(8) Uani 1 1 d . . . . .
C3 C 0.5952(5) 0.3901(2) 0.7694(5) 0.0227(7) Uani 1 1 d . . . . .
C2 C 0.7809(5) 0.4095(3) 0.6770(5) 0.0238(7) Uani 1 1 d . . . . .
C1 C 0.8716(5) 0.2510(3) 0.2775(5) 0.0303(8) Uani 1 1 d . . . . .
H3A H 0.568(4) 0.326(2) 0.779(5) 0.015(8) Uiso 1 1 d . . . . .
H2A H 0.873(4) 0.390(2) 0.778(5) 0.013(8) Uiso 1 1 d . . . . .
H2B H 0.803(5) 0.476(3) 0.646(5) 0.025(9) Uiso 1 1 d . . . . .
H3B H 0.591(5) 0.425(3) 0.901(6) 0.031(10) Uiso 1 1 d . . . . .
H1 H 0.909(5) 0.189(3) 0.217(5) 0.030(10) Uiso 1 1 d . . . . .
loop_
_atom_site_aniso_label
_atom_site_aniso_U_11
_atom_site_aniso_U_22
_atom_site_aniso_U_33
_atom_site_aniso_U_23
_atom_site_aniso_U_13
_atom_site_aniso_U_12
O1 0.0213(12) 0.0279(12) 0.0223(11) 0.0034(10) 0.0008(10) -0.0020(10)
O3 0.0264(13) 0.0308(13) 0.0304(14) 0.0017(12) -0.0076(11) 0.0009(11)
O2 0.0335(14) 0.0380(14) 0.0261(13) 0.0052(12) 0.0087(10) -0.0013(12)
N2 0.0246(14) 0.0241(13) 0.0167(13) 0.0016(12) -0.0013(13) 0.0011(12)
N5 0.0274(16) 0.0220(14) 0.0251(16) -0.0034(12) 0.0022(13) 0.0011(11)
N3 0.0355(18) 0.0319(17) 0.0209(17) 0.0039(13) -0.0014(13) 0.0054(14)
N1 0.0338(16) 0.0269(14) 0.0233(15) 0.0028(13) 0.0004(14) 0.0044(12)
N4 0.0410(19) 0.0378(17) 0.0221(16) -0.0012(14) 0.0013(14) 0.0057(14)
C3 0.0274(19) 0.0234(17) 0.0173(17) -0.0007(15) -0.0039(14) -0.0002(15)
C2 0.0262(18) 0.0268(18) 0.0185(16) -0.0025(13) -0.0035(15) 0.0014(14)
C1 0.033(2) 0.035(2) 0.0234(19) -0.0041(17) 0.0011(15) 0.0039(16)
loop_
_atom_type_symbol
_atom_type_description
_atom_type_scat_dispersion_real
_atom_type_scat_dispersion_imag
_atom_type_scat_source
C C 0.0033 0.0016 'International Tables Vol C Tables 4.2.6.8 and 6.1.1.4'
H H 0.0000 0.0000 'International Tables Vol C Tables 4.2.6.8 and 6.1.1.4'
N N 0.0061 0.0033 'International Tables Vol C Tables 4.2.6.8 and 6.1.1.4'
O O 0.0106 0.0060 'International Tables Vol C Tables 4.2.6.8 and 6.1.1.4'
loop_
_geom_angle_atom_site_label_1
_geom_angle_atom_site_label_2
_geom_angle_atom_site_label_3
_geom_angle
_geom_angle_site_symmetry_1
_geom_angle_site_symmetry_3
_geom_angle_publ_flag
N5 O1 C3 114.1(2) . . ?
N3 N2 C2 122.6(3) . . ?
N1 N2 N3 113.7(3) . . ?
N1 N2 C2 123.7(3) . . ?
O3 N5 O1 112.8(3) . . ?
O3 N5 O2 129.2(3) . . ?
O2 N5 O1 118.0(3) . . ?
N4 N3 N2 106.1(3) . . ?
N2 N1 C1 101.3(3) . . ?
N3 N4 C1 105.6(3) . . ?
O1 C3 C2 104.8(3) . . ?
O1 C3 H3A 105.0(19) . . ?
O1 C3 H3B 112(2) . . ?
C2 C3 H3A 113.2(19) . . ?
C2 C3 H3B 106(2) . . ?
H3A C3 H3B 116(3) . . ?
N2 C2 C3 111.5(3) . . ?
N2 C2 H2A 107.1(19) . . ?
N2 C2 H2B 108(2) . . ?
C3 C2 H2A 108.3(19) . . ?
C3 C2 H2B 114(2) . . ?
H2A C2 H2B 108(3) . . ?
N1 C1 N4 113.2(3) . . ?
N1 C1 H1 123.4(19) . . ?
N4 C1 H1 123.4(19) . . ?
loop_
_geom_bond_atom_site_label_1
_geom_bond_atom_site_label_2
_geom_bond_distance
_geom_bond_site_symmetry_2
_geom_bond_publ_flag
O1 N5 1.394(3) . ?
O1 C3 1.456(4) . ?
O3 N5 1.201(4) . ?
O2 N5 1.216(4) . ?
N2 N3 1.326(4) . ?
N2 N1 1.320(4) . ?
N2 C2 1.460(4) . ?
N3 N4 1.318(4) . ?
N1 C1 1.327(4) . ?
N4 C1 1.336(4) . ?
C3 C2 1.508(5) . ?
C3 H3A 0.95(3) . ?
C3 H3B 0.98(4) . ?
C2 H2A 0.97(3) . ?
C2 H2B 0.99(4) . ?
C1 H1 1.00(4) . ?
loop_
_geom_contact_atom_site_label_1
_geom_contact_atom_site_label_2
_geom_contact_distance
_geom_contact_site_symmetry_1
_geom_contact_site_symmetry_2
_geom_contact_publ_flag
? ? ? ? ? ?
loop_
_geom_hbond_atom_site_label_D
_geom_hbond_atom_site_label_H
_geom_hbond_atom_site_label_A
_geom_hbond_distance_DH
_geom_hbond_distance_HA
_geom_hbond_distance_DA
_geom_hbond_angle_DHA
_geom_hbond_site_symmetry_A
? ? ? ? ? ? ? ?
loop_
_geom_torsion_atom_site_label_1
_geom_torsion_atom_site_label_2
_geom_torsion_atom_site_label_3
_geom_torsion_atom_site_label_4
_geom_torsion
_geom_torsion_site_symmetry_1
_geom_torsion_site_symmetry_2
_geom_torsion_site_symmetry_3
_geom_torsion_site_symmetry_4
_geom_torsion_publ_flag
O1 C3 C2 N2 -65.8(4) . . . . ?
N2 N3 N4 C1 -0.1(3) . . . . ?
N2 N1 C1 N4 -0.4(4) . . . . ?
N5 O1 C3 C2 177.0(2) . . . . ?
N3 N2 N1 C1 0.3(4) . . . . ?
N3 N2 C2 C3 98.3(4) . . . . ?
N3 N4 C1 N1 0.3(4) . . . . ?
N1 N2 N3 N4 -0.2(4) . . . . ?
N1 N2 C2 C3 -81.3(4) . . . . ?
C3 O1 N5 O3 -171.5(3) . . . . ?
C3 O1 N5 O2 9.2(4) . . . . ?
C2 N2 N3 N4 -179.8(3) . . . . ?
C2 N2 N1 C1 180.0(3) . . . . ?
