#------------------------------------------------------------------------------
#$Date: 2021-09-06 13:54:42 +0300 (Mon, 06 Sep 2021) $
#$Revision: 268711 $
#$URL: file:///home/coder/svn-repositories/cod/cif/7/70/76/7707640.cif $
#------------------------------------------------------------------------------
#
# This file is available in the Crystallography Open Database (COD),
# http://www.crystallography.net/
#
# All data on this site have been placed in the public domain by the
# contributors.
#
data_7707640
loop_
_publ_author_name
'Feuerstein, Wolfram'
'Breher, Frank'
_publ_section_title
;
 Non-palindromic (C^C^D) gold(III) pincer complexes are not accessible by
 intramolecular oxidative addition of biphenylenes - an experimental and
 quantum chemical study.
;
_journal_issue                   28
_journal_name_full
'Dalton transactions (Cambridge, England : 2003)'
_journal_page_first              9754
_journal_page_last               9767
_journal_paper_doi               10.1039/d1dt00953b
_journal_volume                  50
_journal_year                    2021
_chemical_formula_moiety         'C17 H14 Au Cl N2'
_chemical_formula_sum            'C17 H14 Au Cl N2'
_chemical_formula_weight         478.733
_space_group_crystal_system      triclinic
_space_group_IT_number           2
_space_group_name_Hall           '-P 1'
_space_group_name_H-M_alt        'P -1'
_symmetry_Int_Tables_number      2
_atom_sites_solution_primary     dual
_audit_creation_date             2020-02-09
_audit_creation_method
;
Olex2 1.3
(compiled Nov 21 2019 18:26:39 for OlexSys, GUI svn.r6003)
;
_audit_update_record
;
2020-07-22 deposited with the CCDC.	2021-06-09 downloaded from the CCDC.
;
_cell_angle_alpha                83.91(3)
_cell_angle_beta                 67.45(3)
_cell_angle_gamma                88.61(3)
_cell_formula_units_Z            2
_cell_length_a                   8.5300(17)
_cell_length_b                   9.0320(18)
_cell_length_c                   10.772(2)
_cell_measurement_reflns_used    15298
_cell_measurement_temperature    200
_cell_measurement_theta_max      29.25
_cell_measurement_theta_min      2.05
_cell_volume                     762.0(3)
_computing_molecular_graphics    'Olex2 1.3 (Dolomanov et al., 2009)'
_computing_publication_material  'Olex2 1.3 (Dolomanov et al., 2009)'
_computing_structure_refinement  'olex2.refine 1.3 (Bourhis et al., 2015)'
_computing_structure_solution    'SHELXT 2014/5 (Sheldrick, 2014)'
_diffrn_ambient_temperature      200
_diffrn_detector                 'image plate (34 cm diameter)'
_diffrn_detector_area_resol_mean 6.67
_diffrn_detector_type            STOE
_diffrn_measured_fraction_theta_full 0.9996
_diffrn_measured_fraction_theta_max 0.9996
_diffrn_measurement_device       '2-circle goniometer'
_diffrn_measurement_device_type  'STOE IPDS 2'
_diffrn_measurement_method       'rotation method'
_diffrn_radiation_collimation    '0.5 mm diameter, monocapillary'
_diffrn_radiation_monochromator  'plane graphite'
_diffrn_radiation_polarisn_norm  0
_diffrn_radiation_type           'Mo K\a'
_diffrn_radiation_wavelength     0.71073
_diffrn_reflns_av_R_equivalents  0.0517
_diffrn_reflns_av_unetI/netI     0.0321
_diffrn_reflns_Laue_measured_fraction_full 0.9996
_diffrn_reflns_Laue_measured_fraction_max 0.9996
_diffrn_reflns_limit_h_max       10
_diffrn_reflns_limit_h_min       -10
_diffrn_reflns_limit_k_max       10
_diffrn_reflns_limit_k_min       -10
_diffrn_reflns_limit_l_max       12
_diffrn_reflns_limit_l_min       -12
_diffrn_reflns_number            10302
_diffrn_reflns_point_group_measured_fraction_full 0.9996
_diffrn_reflns_point_group_measured_fraction_max 0.9996
_diffrn_reflns_theta_full        25.2417
_diffrn_reflns_theta_max         25.35
_diffrn_reflns_theta_min         2.06
_diffrn_source
'sealed X-ray tube, 12 x 0.4 mm long-fine focus'
_diffrn_source_current           40
_diffrn_source_power             2.000
_diffrn_source_voltage           50
_exptl_absorpt_coefficient_mu    9.822
_exptl_absorpt_correction_T_max  0.4671
_exptl_absorpt_correction_T_min  0.2859
_exptl_absorpt_correction_type   numerical
_exptl_absorpt_process_details
'Stoe & Cie, X-RED, version 1.28b: Program for data reduction and absorptioncorrection, Stoe &CieGmbH, Darmatadt, Germany, 2005.'
_exptl_crystal_colour            'clear colourless'
_exptl_crystal_colour_lustre     clear
_exptl_crystal_colour_primary    colourless
_exptl_crystal_density_diffrn    2.086
_exptl_crystal_description       irregular
_exptl_crystal_F_000             449.634
_exptl_crystal_size_max          0.4
_exptl_crystal_size_mid          0.3
_exptl_crystal_size_min          0.3
_refine_diff_density_max         0.7079
_refine_diff_density_min         -1.6635
_refine_diff_density_rms         0.1661
_refine_ls_d_res_high            0.8301
_refine_ls_d_res_low             9.8938
_refine_ls_goodness_of_fit_ref   1.0453
_refine_ls_hydrogen_treatment    constr
_refine_ls_matrix_type           full
_refine_ls_number_constraints    25
_refine_ls_number_parameters     191
_refine_ls_number_reflns         2783
_refine_ls_number_restraints     0
_refine_ls_restrained_S_all      1.0453
_refine_ls_R_factor_all          0.0243
_refine_ls_R_factor_gt           0.0239
_refine_ls_shift/su_max          0.0003
_refine_ls_shift/su_mean         0.0000
_refine_ls_structure_factor_coef Fsqd
_refine_ls_weighting_details
'w=1/[\s^2^(Fo^2^)+(0.0401P)^2^+0.6049P] where P=(Fo^2^+2Fc^2^)/3'
_refine_ls_weighting_scheme      calc
_refine_ls_wR_factor_gt          0.0595
_refine_ls_wR_factor_ref         0.0597
_reflns_Friedel_coverage         0.0
_reflns_limit_h_max              10
_reflns_limit_h_min              -9
_reflns_limit_k_max              10
_reflns_limit_k_min              -10
_reflns_limit_l_max              12
_reflns_limit_l_min              0
_reflns_number_gt                2720
_reflns_number_total             2783
_reflns_threshold_expression     I>=2u(I)
_iucr_refine_instructions_details
;
TITL hw_a.res in P-1
REM Old TITL hw in P1
REM SHELXT solution in P-1
REM R1 0.063, Rweak 0.011, Alpha 0.044, Orientation as input
REM Formula found by SHELXT: C17 N1 Cl Au
CELL 0.71073 8.53 9.032 10.772 83.908 67.453 88.607
ZERR 2 0.0017 0.0018 0.0022 0.03 0.03 0.03
LATT 1
SFAC C H Au Cl N
UNIT 34 28 2 2 4

L.S. 40
PLAN  20
BOND $H
LIST 6
fmap 2
acta 
MORE -1
CONF 
OMIT 0 56
OMIT 9 -3 4
WGHT 0.040122 0.604913
FVAR 0.476143
REM <olex2.extras>
REM <HklSrc "%.\\hw_a.hkl">
REM </olex2.extras>

Au1   3     0.73392  0.58076  0.87598  11.00000  0.02860  0.02882  0.03132 =
 0.00088 -0.01233  0.00032 
Cl1   4     0.82415  0.80052  0.91587  11.00000  0.04729  0.03011  0.04929 =
 -0.00258 -0.02101 -0.00187 
N1    5     0.56193  0.36033  0.77655  11.00000  0.02751  0.03117  0.03225 =
 0.00277 -0.01340 -0.00219 
N2    5     0.71448  0.25163  0.87541  11.00000  0.02867  0.03207  0.03475 =
 0.00298 -0.01361 -0.00114 
C13   1     0.66738  0.38650  0.83984  11.00000  0.02859  0.03601  0.02923 =
 0.00626 -0.01091 -0.00235 
C2    1     0.30063  0.45314  0.75355  11.00000  0.03064  0.03391  0.03512 =
 -0.00010 -0.00879 -0.00466 
AFIX 43
H2    2     0.24174  0.37204  0.81228  11.00000 -1.20000 
AFIX 0
C15   1     0.63723  0.14069  0.83821  11.00000  0.03484  0.02956  0.04130 =
 0.00515 -0.01465 -0.00302 
AFIX 43
H15   2     0.64877  0.03853  0.85389  11.00000 -1.20000 
AFIX 0
C12   1     0.62825  0.78579  0.50647  11.00000  0.03331  0.03219  0.03014 =
 0.00013 -0.01373  0.00026 
C11   1     0.70547  0.90901  0.41970  11.00000  0.04594  0.02845  0.03760 =
 0.00155 -0.01733  0.00079 
AFIX 43
H11   2     0.64605  0.97880  0.38583  11.00000 -1.20000 
AFIX 0
C6    1     0.55604  0.59235  0.63737  11.00000  0.02707  0.03076  0.03111 =
 -0.00198 -0.01319  0.00208 
C1    1     0.47672  0.47036  0.72159  11.00000  0.03131  0.02964  0.02892 =
 0.00090 -0.01293  0.00224 
C5    1     0.46536  0.69698  0.58274  11.00000  0.03336  0.02885  0.03029 =
 0.00050 -0.01489  0.00157 
C14   1     0.54301  0.20864  0.77549  11.00000  0.03410  0.02710  0.03946 =
 0.00195 -0.01566 -0.00267 
AFIX 43
H14   2     0.47729  0.16289  0.73825  11.00000 -1.20000 
AFIX 0
C4    1     0.29642  0.68196  0.61044  11.00000  0.03087  0.03672  0.04031 =
 -0.00405 -0.02064  0.00635 
AFIX 43
H4    2     0.23824  0.75026  0.57393  11.00000 -1.20000 
AFIX 0
C8    1     0.88800  0.69265  0.52672  11.00000  0.03138  0.03916  0.03380 =
 0.00166 -0.01267 -0.00127 
AFIX 43
H8    2     0.94677  0.62239  0.56079  11.00000 -1.20000 
AFIX 0
C7    1     0.71781  0.68136  0.56001  11.00000  0.03372  0.03007  0.02797 =
 -0.00116 -0.01114 -0.00058 
C3    1     0.21543  0.55398  0.69940  11.00000  0.02824  0.04088  0.04450 =
 -0.00086 -0.01576 -0.00099 
AFIX 43
H3    2     0.10007  0.53819  0.72165  11.00000 -1.20000 
AFIX 0
C16   1     0.82545  0.22266  0.95095  11.00000  0.03441  0.03649  0.04452 =
 0.00482 -0.02297  0.00210 
AFIX 23
H16a  2     0.91462  0.15588  0.90478  11.00000 -1.20000 
H16b  2     0.87846  0.31539  0.95371  11.00000 -1.20000 
AFIX 0
C9    1     0.97022  0.81896  0.43640  11.00000  0.03587  0.05040  0.03338 =
 -0.00077 -0.01019 -0.00623 
AFIX 43
H9    2     1.08655  0.83271  0.41074  11.00000 -1.20000 
AFIX 0
C10   1     0.88177  0.92134  0.38603  11.00000  0.04365  0.03888  0.03469 =
 0.00354 -0.01056 -0.01055 
AFIX 43
H10   2     0.94090  1.00226  0.32717  11.00000 -1.20000 
AFIX 0
C17   1     0.72719  0.15431  1.09302  11.00000  0.05646  0.05872  0.03989 =
 -0.00057 -0.02571 -0.00321 
AFIX 137
H17a  2     0.67801  0.06076  1.09046  11.00000 -1.50000 
H17b  2     0.80222  0.13841  1.14043  11.00000 -1.50000 
H17c  2     0.63869  0.22016  1.13876  11.00000 -1.50000 
AFIX 0
HKLF 4

END
Q1 1 0.72 0.518519 0.777778 11 0.05 0.71

  REM The information below was added by Olex2.
  REM
  REM R1 = 0.0239 for 2720 Fo > 4sig(Fo) and 0.0243 for all 2783 data
  REM 191 parameters refined using 0 restraints
  REM Highest difference peak 0.7079, deepest hole -1.6635
  REM Mean Shift 0.0000, Max Shift 0.0003.

  REM +++ Tabular Listing of Refinement Information +++
  REM R1_all = 0.0243
  REM R1_gt = 0.0239
  REM wR_ref = 0.0597
  REM GOOF = 1.0453
  REM Shift_max = 0.0003
  REM Shift_mean = 0.0000
  REM Reflections_all = 2783
  REM Reflections_gt = 2720
  REM Parameters = 191
  REM Hole = -1.6635
  REM Peak = 0.7079
  REM Flack = n/a

  
;
_cod_data_source_file            d1dt00953b2.cif
_cod_data_source_block           hw_a_CCDC4
_cod_depositor_comments
'Adding full bibliography for 7707636--7707640.cif.'
_cod_database_code               7707640
_olex2_refinement_description
;
1. Fixed Uiso
 At 1.2 times of:
  All C(H) groups, All C(H,H) groups
 At 1.5 times of:
  All C(H,H,H) groups
2.a Secondary CH2 refined with riding coordinates:
 C16(H16a,H16b)
2.b Aromatic/amide H refined with riding coordinates:
 C2(H2), C15(H15), C11(H11), C14(H14), C4(H4), C8(H8), C3(H3), C9(H9), C10(H10)
2.c Idealised Me refined as rotating group:
 C17(H17a,H17b,H17c)
;
_iucr_refine_fcf_details
;
data_hw_a_CCDC5
_computing_structure_refinement   'ShelXL (Sheldrick, 2015)'
_shelx_refln_list_code            4
loop_
  _space_group_symop_id
  _space_group_symop_operation_xyz
  1  x,y,z
  2  -x,-y,-z

_space_group_crystal_system       triclinic
_space_group_IT_number            2
_space_group_name_H-M_alt         'P -1'
_space_group_name_Hall            '-P 1'
_symmetry_space_group_name_H-M    'P -1'
_symmetry_space_group_name_Hall   '-P 1'
_symmetry_Int_Tables_number       2
_cell_length_a                    8.5300(17)
_cell_length_b                    9.0320(18)
_cell_length_c                    10.772(2)
_cell_angle_alpha                 83.91(3)
_cell_angle_beta                  67.45(3)
_cell_angle_gamma                 88.61(3)
_cell_volume                      762.0(3)
loop_
  _refln_index_h
  _refln_index_k
  _refln_index_l
  _refln_F_squared_calc
  _refln_F_squared_meas
  _refln_F_squared_sigma
  _refln_F_squared_weight
  _refln_observed_status
-9 -1 1 205.363 189.656 30.432 17.941 o
-9 0 1 97.839 89.944 18.272 49.117 o
-9 1 1 451.521 428.863 18.781 21.249 o
-9 2 1 935.648 720.076 190.405 0.525 o
-8 -4 1 177.679 184.328 7.513 91.759 o
-8 -3 1 4.183 10.345 3.183 1427.770 o
-8 -3 2 892.283 872.774 137.002 0.970 o
-8 -2 1 761.995 817.961 161.140 0.727 o
-8 -2 2 319.492 334.452 13.561 36.285 o
-8 -2 3 1030.980 909.670 100.140 1.634 o
-8 -1 1 1911.870 1992.180 379.148 0.132 o
-8 -1 2 171.644 161.025 3.447 125.387 o
-8 -1 3 209.739 236.214 9.734 65.634 o
-8 0 1 1753.540 1796.800 65.516 1.919 o
-8 0 2 1213.650 1109.440 254.694 0.294 o
-8 0 3 1.397 4.586 3.438 1497.640 o
-8 1 1 1988.470 2001.580 380.590 0.131 o
-8 1 2 1789.870 1781.400 81.422 1.552 o
-8 1 3 277.035 266.724 9.295 53.555 o
-8 2 1 955.507 928.467 35.653 6.070 o
-8 2 2 1789.280 1796.840 76.781 1.642 o
-8 2 3 809.920 804.028 24.639 9.291 o
-8 3 1 8.516 16.768 3.820 922.845 o
-8 3 2 968.734 986.314 21.455 7.734 o
-8 3 3 1172.810 1069.230 14.885 6.657 o
-8 4 1 445.610 440.133 16.999 22.808 o
-8 4 2 135.182 126.888 4.733 152.565 o
-8 5 1 598.995 600.195 10.569 18.947 o
-7 -6 1 22.312 9.928 4.775 580.921 o
-7 -5 1 922.346 922.244 36.035 6.183 o
-7 -5 2 42.543 42.203 7.472 236.336 o
-7 -5 3 796.536 687.714 10.202 13.346 o
-7 -4 1 1601.990 1711.450 83.778 1.617 o
-7 -4 2 85.738 85.490 3.278 268.182 o
-7 -4 3 338.059 337.389 11.969 37.535 o
-7 -3 1 2675.610 2703.980 423.402 0.104 o
-7 -3 2 1211.630 1223.820 24.893 5.341 o
-7 -3 3 52.945 58.455 4.778 328.031 o
-7 -3 4 1119.870 1082.900 36.062 5.055 o
-7 -2 1 3163.350 3343.170 101.343 0.689 o
-7 -2 2 2852.350 3167.940 513.795 0.071 o
-7 -2 3 432.709 447.161 19.592 20.848 o
-7 -2 4 127.389 125.690 3.311 175.614 o
-7 -1 1 695.535 786.035 25.848 10.202 o
-7 -1 2 2407.750 2508.220 113.185 0.835 o
-7 -1 3 1841.460 1907.420 46.470 2.247 o
-7 -1 4 215.907 219.696 8.025 73.406 o
-7 -1 5 238.249 234.293 13.334 48.469 o
-7 0 1 2.388 1.492 2.534 2593.550 o
-7 0 2 726.246 792.377 32.915 8.182 o
-7 0 3 1924.460 1964.420 43.350 2.193 o
-7 0 4 612.352 577.935 13.863 17.543 o
-7 0 5 10.223 8.735 3.922 931.108 o
-7 1 1 202.009 230.743 8.900 71.414 o
-7 1 2 439.501 429.750 57.306 5.175 o
-7 1 3 1947.480 2012.270 34.557 2.312 o
-7 1 4 1437.240 1378.280 11.647 4.717 o
-7 1 5 205.539 175.689 44.057 9.404 o
-7 2 1 1561.240 1587.510 53.403 2.567 o
-7 2 2 8.109 5.820 2.472 1874.060 o
-7 2 3 586.480 587.290 94.990 2.008 o
-7 2 4 2436.480 1955.180 445.354 0.096 o
-7 2 5 1013.800 914.551 134.067 0.991 o
-7 3 1 4017.680 4084.060 145.583 0.400 o
-7 3 2 1492.100 1499.510 277.041 0.245 o
-7 3 3 15.746 25.766 8.378 242.261 o
-7 3 4 1000.920 937.357 41.154 5.205 o
-7 4 1 2492.640 2475.270 119.077 0.778 o
-7 4 2 1867.920 1912.440 33.408 2.505 o
-7 4 3 232.522 213.129 12.020 54.869 o
-7 4 4 101.401 95.851 3.313 228.855 o
-7 5 1 175.917 203.706 36.325 13.415 o
-7 5 2 1884.420 1535.310 390.873 0.126 o
-7 5 3 395.210 374.836 12.720 31.181 o
-7 6 1 13.690 14.192 3.657 903.880 o
-7 6 2 1691.500 1486.440 69.255 1.991 o
-7 7 1 104.551 111.617 10.256 105.940 o
-6 -7 1 1204.050 1154.630 213.003 0.412 o
-6 -7 2 65.909 48.290 13.624 87.573 o
-6 -6 1 2927.550 2874.200 62.037 1.037 o
-6 -6 2 1563.570 1364.940 74.871 1.971 o
-6 -6 3 16.102 16.355 3.061 1018.490 o
-6 -5 1 2825.440 3012.240 50.487 1.126 o
-6 -5 2 1292.160 1173.920 144.254 0.828 o
-6 -5 3 155.541 132.213 11.811 75.537 o
-6 -5 4 222.780 220.984 15.376 44.292 o
-6 -4 1 1189.470 1273.940 38.327 4.343 o
-6 -4 2 3073.150 3232.630 97.147 0.737 o
-6 -4 3 823.590 757.354 270.198 0.268 o
-6 -4 4 80.446 79.567 3.247 287.505 o
-6 -4 5 489.240 460.141 62.768 4.336 o
-6 -3 1 639.661 696.865 128.395 1.134 o
-6 -3 2 3657.720 3971.680 136.741 0.456 o
-6 -3 3 2767.040 2587.040 641.431 0.047 o
-6 -3 4 1425.000 1496.000 47.605 3.059 o
-6 -3 5 43.537 42.905 3.820 455.114 o
-6 -2 1 512.634 569.115 15.598 19.563 o
-6 -2 2 367.291 383.822 13.468 31.626 o
-6 -2 3 2420.080 2580.330 486.036 0.081 o
-6 -2 4 1791.590 1839.350 59.139 2.025 o
-6 -2 5 770.854 732.170 40.343 6.624 o
-6 -2 6 224.715 198.748 11.963 57.155 o
-6 -1 1 3117.160 3416.760 93.321 0.730 o
-6 -1 2 152.827 160.455 5.030 126.116 o
-6 -1 3 573.938 615.974 14.839 17.614 o
-6 -1 4 2110.400 2135.710 45.648 1.883 o
-6 -1 5 1344.230 1330.620 35.020 4.049 o
-6 -1 6 1.183 4.938 2.386 2779.970 o
-6 0 1 3414.140 3675.250 124.775 0.533 o
-6 0 2 1162.800 1231.780 20.805 5.843 o
-6 0 3 167.984 168.891 4.584 118.434 o
-6 0 4 1726.570 1742.970 50.996 2.353 o
-6 0 5 1757.080 1750.720 55.771 2.184 o
-6 0 6 553.967 505.828 12.335 21.142 o
-6 1 1 5220.570 5375.240 158.897 0.273 o
-6 1 2 3132.170 3319.140 103.826 0.684 o
-6 1 3 378.624 388.718 5.093 40.545 o
-6 1 4 773.536 747.794 28.223 9.061 o
-6 1 5 2215.470 2140.550 71.544 1.408 o
-6 1 6 1628.490 1616.970 57.738 2.328 o
-6 2 1 2607.740 2664.240 69.459 1.138 o
-6 2 2 4400.980 4360.470 101.668 0.454 o
-6 2 3 2673.430 2725.620 80.722 1.007 o
-6 2 4 14.265 14.748 2.825 1170.450 o
-6 2 5 759.487 730.995 24.320 10.225 o
-6 2 6 1503.130 1490.220 43.598 3.105 o
-6 3 1 281.124 292.387 5.284 60.274 o
-6 3 2 2204.450 2206.440 11.237 2.147 o
-6 3 3 3103.360 2985.580 10.288 1.168 o
-6 3 4 808.410 760.441 5.184 13.147 o
-6 3 5 97.996 87.480 2.705 252.950 o
-6 3 6 560.843 524.093 21.328 15.689 o
-6 4 1 312.361 322.225 13.800 36.813 o
-6 4 2 1040.200 1046.050 25.232 6.614 o
-6 4 3 1286.140 1248.370 22.283 5.143 o
-6 4 4 1213.670 1165.150 30.320 5.047 o
-6 4 5 48.023 51.638 2.804 480.071 o
-6 4 6 165.510 128.362 25.785 25.080 o
-6 5 1 1168.090 1209.140 27.058 5.397 o
-6 5 2 228.878 221.106 5.214 80.909 o
-6 5 3 438.494 446.774 17.635 22.375 o
-6 5 4 1779.000 1710.260 61.692 2.028 o
-6 5 5 631.478 607.159 27.688 11.273 o
-6 6 1 1974.980 2061.510 66.906 1.641 o
-6 6 2 355.539 361.800 15.387 30.265 o
-6 6 3 187.956 190.003 9.359 77.010 o
-6 6 4 715.403 673.221 18.584 12.773 o
-6 7 1 2192.660 2152.070 115.675 0.893 o
-6 7 2 1218.730 1146.250 39.594 4.348 o
-6 7 3 226.979 208.006 10.880 60.393 o
-6 8 1 557.505 544.190 11.480 20.802 o
-5 -8 1 2388.940 2326.750 40.549 1.648 o
-5 -8 2 1096.840 999.929 133.347 0.985 o
-5 -7 1 698.404 704.817 16.107 13.538 o
-5 -7 2 2185.260 2107.760 46.349 1.820 o
-5 -7 3 1072.490 1008.490 102.442 1.545 o
-5 -6 1 33.346 42.808 2.914 609.634 o
-5 -6 2 1656.360 1789.440 19.927 3.279 o
-5 -6 3 2221.380 2249.780 48.386 1.704 o
-5 -6 4 782.350 771.966 11.566 12.611 o
-5 -6 5 25.964 21.526 3.781 663.146 o
-5 -5 1 265.436 264.010 7.976 59.197 o
-5 -5 2 679.049 704.151 24.644 11.181 o
-5 -5 3 1587.130 1693.620 287.043 0.228 o
-5 -5 4 1109.590 1072.880 57.643 3.366 o
-5 -5 5 191.507 196.202 10.857 67.685 o
-5 -4 1 1003.710 1081.170 12.026 8.063 o
-5 -4 2 171.906 180.793 4.536 113.593 o
-5 -4 3 1277.850 1279.070 224.415 0.371 o
-5 -4 4 3845.230 4021.100 120.196 0.482 o
-5 -4 5 1412.310 1406.700 52.015 2.950 o
-5 -4 6 2.095 3.020 2.732 2233.620 o
-5 -3 1 3390.690 3807.070 55.822 0.788 o
-5 -3 2 3363.170 3582.290 105.587 0.619 o
-5 -3 3 631.064 659.674 25.008 11.918 o
-5 -3 4 3105.680 3115.740 83.402 0.817 o
-5 -3 5 3446.800 3342.710 367.883 0.128 o
-5 -3 6 514.003 498.590 24.134 15.258 o
-5 -3 7 36.188 32.194 5.412 381.151 o
-5 -2 1 5781.170 6261.060 123.950 0.263 o
-5 -2 2 3950.990 4328.420 105.222 0.495 o
-5 -2 3 1799.370 1886.820 68.625 1.781 o
-5 -2 4 1366.530 1418.660 43.859 3.413 o
-5 -2 5 2179.430 2295.860 44.123 1.779 o
-5 -2 6 1056.280 981.018 34.280 5.681 o
-5 -2 7 215.370 169.790 64.239 4.625 o
-5 -1 1 2428.850 2593.640 67.327 1.249 o
-5 -1 2 4593.570 4929.400 93.582 0.422 o
-5 -1 3 3725.200 3825.600 117.578 0.513 o
-5 -1 4 142.918 150.331 5.921 127.007 o
-5 -1 5 695.993 690.425 16.104 13.709 o
-5 -1 6 1330.570 1301.680 33.552 4.213 o
-5 -1 7 411.038 401.660 9.550 32.922 o
-5 0 1 994.624 1082.460 9.191 8.340 o
-5 0 2 3813.270 4073.080 56.402 0.664 o
-5 0 3 3490.490 3622.860 18.272 0.883 o
-5 0 4 871.452 874.119 10.285 10.732 o
-5 0 5 559.464 529.080 66.641 3.792 o
-5 0 6 953.133 974.132 32.384 6.406 o
-5 0 7 2363.880 2059.420 34.564 1.846 o
-5 0 8 694.835 607.564 14.068 15.177 o
-5 1 1 146.113 148.207 4.202 141.288 o
-5 1 2 3076.530 3006.420 49.144 1.035 o
-5 1 3 5425.290 5551.550 57.825 0.364 o
-5 1 4 3509.620 3543.730 74.142 0.723 o
-5 1 5 71.019 75.941 2.750 332.319 o
-5 1 6 735.373 746.681 15.853 12.640 o
-5 1 7 2476.250 2429.300 28.391 1.656 o
-5 1 8 1056.660 969.185 12.160 8.078 o
-5 2 1 4483.100 4483.970 64.978 0.508 o
-5 2 2 25.742 38.848 5.348 413.146 o
-5 2 3 2390.700 2328.170 51.951 1.514 o
-5 2 4 4561.100 4537.840 53.068 0.512 o
-5 2 5 1699.650 1714.770 30.878 2.993 o
-5 2 6 13.973 16.580 2.303 1362.520 o
-5 2 7 368.940 384.958 7.939 38.732 o
-5 3 1 6448.330 6453.410 177.735 0.195 o
-5 3 2 1479.480 1476.350 26.676 3.892 o
-5 3 3 235.395 233.537 10.038 60.160 o
-5 3 4 1798.090 1825.530 30.761 2.733 o
-5 3 5 2278.330 2218.280 46.667 1.697 o
-5 3 6 472.811 474.156 14.006 23.658 o
-5 3 7 68.168 69.808 3.247 334.017 o
-5 4 1 2810.010 2794.330 63.886 1.081 o
-5 4 2 1559.450 1579.280 46.066 2.842 o
-5 4 3 117.269 109.540 5.093 171.201 o
-5 4 4 784.857 786.173 27.955 8.867 o
-5 4 5 1608.750 1580.460 62.189 2.228 o
-5 4 6 723.480 691.321 30.680 9.106 o
-5 4 7 8.132 7.858 2.724 1610.220 o
-5 5 1 1357.160 1417.630 34.061 3.952 o
-5 5 2 3772.740 3803.250 138.326 0.449 o
-5 5 3 980.844 1007.910 41.383 5.129 o
-5 5 4 29.879 35.844 2.610 719.347 o
-5 5 5 1391.810 1390.970 49.086 3.132 o
-5 5 6 1656.260 1498.780 328.986 0.176 o
-5 6 1 606.931 634.802 12.790 17.379 o
-5 6 2 2452.070 2558.840 45.457 1.474 o
-5 6 3 3450.180 3127.720 270.299 0.214 o
-5 6 4 570.418 575.756 23.174 14.143 o
-5 6 5 356.704 354.440 12.224 35.070 o
-5 6 6 1005.940 944.395 211.160 0.427 o
-5 7 1 226.339 227.653 9.728 63.395 o
-5 7 2 366.396 378.001 13.943 31.208 o
-5 7 3 3008.270 2953.100 91.672 0.811 o
-5 7 4 929.421 932.474 31.578 6.752 o
-5 7 5 45.719 43.027 9.041 177.949 o
-5 8 1 596.104 573.428 15.933 17.083 o
-5 8 2 40.072 39.254 6.749 276.320 o
-5 8 3 717.529 675.036 14.190 14.014 o
-5 9 1 762.898 674.779 123.238 1.209 o
-4 -9 1 348.751 283.611 36.538 11.697 o
-4 -9 2 1188.310 1076.910 9.165 6.845 o
-4 -8 1 19.449 20.121 3.500 805.036 o
-4 -8 2 906.910 884.878 30.942 7.112 o
-4 -8 3 1833.200 1740.460 18.967 2.986 o
-4 -7 1 2398.330 2456.510 30.706 1.688 o
-4 -7 2 145.434 135.864 3.788 150.000 o
-4 -7 3 440.363 490.847 20.489 19.310 o
-4 -7 4 2052.370 1932.590 32.420 2.270 o
-4 -7 5 788.431 697.979 7.912 13.784 o
-4 -6 1 4564.450 4739.960 104.017 0.415 o
-4 -6 2 1055.910 1074.490 6.342 7.982 o
-4 -6 3 146.049 137.217 14.186 62.173 o
-4 -6 4 1304.980 1355.940 26.294 4.634 o
-4 -6 5 1671.370 1670.710 49.717 2.500 o
-4 -6 6 254.846 225.870 47.185 8.069 o
-4 -5 1 2786.370 3016.440 26.549 1.276 o
-4 -5 2 1821.730 1912.480 20.246 2.828 o
-4 -5 3 17.667 23.812 2.888 954.730 o
-4 -5 4 1057.100 1136.740 35.194 5.270 o
-4 -5 5 2676.870 2820.580 124.772 0.684 o
-4 -5 6 1159.660 1164.610 18.697 6.188 o
-4 -5 7 68.574 55.940 10.145 134.277 o
-4 -4 1 2783.530 2815.180 35.646 1.284 o
-4 -4 2 10783.800 11041.000 269.238 0.074 o
-4 -4 3 1784.530 1842.290 99.931 1.222 o
-4 -4 4 7.947 22.708 6.080 443.031 o
-4 -4 5 2346.670 2455.090 94.531 1.022 o
-4 -4 6 2915.420 2995.010 90.265 0.836 o
-4 -4 7 719.082 670.758 200.649 0.481 o
-4 -3 1 1365.910 1391.160 25.594 4.406 o
-4 -3 2 8551.860 8746.070 176.613 0.128 o
-4 -3 3 7834.220 8183.360 238.657 0.122 o
-4 -3 4 785.684 854.181 24.564 9.299 o
-4 -3 5 46.965 54.950 4.976 339.508 o
-4 -3 6 1704.200 1714.620 37.417 2.798 o
-4 -3 7 1866.290 1770.920 52.843 2.140 o
-4 -3 8 546.942 429.601 53.147 5.623 o
-4 -2 1 1204.090 1259.130 24.015 5.359 o
-4 -2 2 1173.010 1209.470 20.755 5.851 o
-4 -2 3 6496.540 6636.120 241.528 0.152 o
-4 -2 4 1076.030 1068.070 43.371 4.548 o
-4 -2 5 729.567 730.678 15.569 12.937 o
-4 -2 6 930.223 924.083 19.673 8.540 o
-4 -2 7 1502.070 1455.500 35.132 3.505 o
-4 -2 8 887.961 819.870 153.294 0.791 o
-4 -1 1 1634.990 1556.670 19.157 3.622 o
-4 -1 2 124.494 130.569 4.457 163.261 o
-4 -1 3 2733.930 2818.520 8.848 1.421 o
-4 -1 4 2939.570 2854.110 103.507 0.764 o
-4 -1 5 583.360 585.596 17.990 16.265 o
-4 -1 6 74.494 83.022 3.657 285.802 o
-4 -1 7 1853.540 1826.940 65.130 1.841 o
-4 -1 8 1345.720 1282.990 72.955 2.229 o
-4 0 1 5214.640 5366.990 54.619 0.393 o
-4 0 2 585.169 623.433 15.273 17.039 o
-4 0 3 989.163 978.349 17.954 8.035 o
-4 0 4 5753.740 5804.740 146.744 0.254 o
-4 0 5 4914.030 5076.180 73.521 0.414 o
-4 0 6 2266.960 2333.930 19.036 1.958 o
-4 0 7 1045.820 1044.990 15.152 7.607 o
-4 0 8 1823.250 1816.480 34.634 2.611 o
-4 0 9 1565.020 1390.470 191.218 0.485 o
-4 1 1 14298.600 13760.900 302.036 0.047 o
-4 1 2 4636.890 4302.060 67.543 0.495 o
-4 1 3 880.719 924.651 12.287 10.057 o
-4 1 4 3769.730 3986.520 48.107 0.702 o
-4 1 5 6024.110 6281.720 80.340 0.284 o
-4 1 6 2347.680 2451.850 53.403 1.485 o
-4 1 7 65.416 93.013 10.743 117.654 o
-4 1 8 1263.590 1197.110 76.420 2.198 o
-4 1 9 433.267 405.806 144.317 0.933 o
-4 2 1 5347.720 5025.000 82.313 0.368 o
-4 2 2 8712.780 8173.410 121.652 0.145 o
-4 2 3 3521.180 3439.050 73.559 0.734 o
-4 2 4 15.081 48.328 11.023 144.081 o
-4 2 5 1838.420 1916.760 13.358 2.889 o
-4 2 6 1815.280 1915.980 52.129 2.136 o
-4 2 7 820.662 797.970 185.694 0.553 o
-4 2 8 24.248 23.863 8.353 233.812 o
-4 2 9 160.525 107.147 26.347 24.523 o
-4 3 1 1156.520 1164.170 22.999 5.879 o
-4 3 2 4738.210 4729.410 88.489 0.426 o
-4 3 3 3901.250 3846.370 10.696 0.746 o
-4 3 4 909.581 907.623 6.621 10.368 o
-4 3 5 1099.500 1059.580 28.134 5.957 o
-4 3 6 1624.210 1649.790 55.510 2.386 o
-4 3 7 1557.110 1544.710 61.934 2.304 o
-4 3 8 183.173 173.911 11.714 66.844 o
-4 4 1 7.996 10.688 2.433 1745.280 o
-4 4 2 2322.610 2238.620 16.293 1.969 o
-4 4 3 3697.130 3672.640 8.760 0.824 o
-4 4 4 1500.480 1536.270 26.599 3.760 o
-4 4 5 7.242 5.795 2.301 2109.040 o
-4 4 6 1278.210 1263.490 55.835 3.069 o
-4 4 7 1457.940 1503.940 78.742 1.884 o
-4 4 8 1000.630 923.761 57.999 3.637 o
-4 5 1 1398.100 1531.600 26.124 4.066 o
-4 5 2 257.811 270.937 5.030 67.710 o
-4 5 3 3105.680 3124.850 47.240 1.012 o
-4 5 4 3887.140 3878.450 82.377 0.597 o
-4 5 5 1220.670 1266.810 41.637 4.037 o
-4 5 6 39.682 47.192 3.755 469.458 o
-4 5 7 852.725 868.614 118.539 1.266 o
-4 5 8 1521.440 1405.990 226.306 0.358 o
-4 6 1 4123.360 4360.900 72.430 0.551 o
-4 6 2 819.140 863.179 30.894 7.736 o
-4 6 3 969.724 1012.260 24.902 7.191 o
-4 6 4 2541.430 2585.360 50.285 1.367 o
-4 6 5 2493.800 2457.560 98.669 0.943 o
-4 6 6 242.055 233.735 10.753 56.572 o
-4 6 7 165.296 143.645 19.079 39.899 o
-4 7 1 3524.880 3572.460 104.978 0.598 o
-4 7 2 2133.690 2102.940 21.116 2.219 o
-4 7 3 10.924 17.907 3.132 1101.430 o
-4 7 4 768.165 711.101 162.010 0.723 o
-4 7 5 1085.990 1087.080 50.092 3.937 o
-4 7 6 557.151 524.720 23.174 14.795 o
-4 8 1 1326.170 1397.320 26.574 4.476 o
-4 8 2 1202.480 1154.460 29.152 5.202 o
-4 8 3 279.172 266.827 53.154 6.406 o
-4 8 4 96.967 93.921 4.830 207.345 o
-4 8 5 396.181 365.805 63.214 4.462 o
-4 9 1 513.636 483.040 11.168 23.821 o
-4 9 2 709.159 674.574 23.803 11.255 o
-4 9 3 1084.200 1035.730 36.643 5.214 o
-3 -9 1 2134.590 2037.310 26.526 2.194 o
-3 -9 2 393.527 351.528 7.719 38.278 o
-3 -9 3 249.977 236.446 21.812 27.653 o
-3 -8 1 3012.860 3063.930 71.496 0.918 o
-3 -8 2 2097.040 2002.320 10.757 2.423 o
-3 -8 3 140.156 113.794 65.502 4.535 o
-3 -8 4 793.666 733.534 17.864 11.393 o
-3 -8 5 1605.370 1380.760 203.540 0.432 o
-3 -7 1 921.363 963.942 30.305 6.893 o
-3 -7 2 3811.840 3938.740 48.633 0.697 o
-3 -7 3 1098.080 1098.060 8.852 7.432 o
-3 -7 4 0.859 2.426 4.990 774.761 o
-3 -7 5 601.451 604.230 26.465 12.095 o
-3 -7 6 908.815 840.187 101.891 1.637 o
-3 -6 1 720.992 794.873 21.519 11.025 o
-3 -6 2 3358.400 3365.600 31.387 0.941 o
-3 -6 3 2835.310 2917.730 67.920 1.021 o
-3 -6 4 317.991 323.745 23.157 22.296 o
-3 -6 5 285.989 278.940 140.685 0.993 o
-3 -6 6 1294.550 1292.600 101.230 1.453 o
-3 -6 7 1599.970 1485.370 57.099 2.453 o
-3 -5 1 4.166 14.239 2.480 1847.790 o
-3 -5 2 2284.960 2397.450 38.378 1.725 o
-3 -5 3 5559.520 5813.850 93.132 0.315 o
-3 -5 4 2274.020 2407.280 63.895 1.411 o
-3 -5 5 60.353 56.482 7.449 205.974 o
-3 -5 6 1536.520 1592.450 56.777 2.475 o
-3 -5 7 2532.680 2418.970 190.341 0.418 o
-3 -5 8 1222.470 1060.610 36.538 4.704 o
-3 -4 1 4549.840 4871.760 46.349 0.500 o
-3 -4 2 171.669 183.716 3.587 118.133 o
-3 -4 3 5198.010 5473.910 62.068 0.383 o
-3 -4 4 6011.090 6382.280 126.002 0.249 o
-3 -4 5 1522.850 1569.470 18.529 3.923 o
-3 -4 6 22.133 24.569 3.089 821.829 o
-3 -4 7 1406.130 1352.330 81.422 1.887 o
-3 -4 8 1745.290 1711.850 88.362 1.456 o
-3 -3 1 11113.100 11752.700 324.727 0.063 o
-3 -3 2 1548.220 1588.140 25.524 3.612 o
-3 -3 3 1032.810 1035.110 17.826 7.490 o
-3 -3 4 4389.800 4628.300 71.484 0.499 o
-3 -3 5 4628.100 4828.630 137.059 0.349 o
-3 -3 6 780.073 783.537 13.297 12.222 o
-3 -3 7 182.098 181.120 3.623 113.147 o
-3 -3 8 1154.580 1046.730 32.909 5.285 o
-3 -3 9 1022.740 910.682 170.993 0.635 o
-3 -2 1 7974.620 8193.250 86.009 0.171 o
-3 -2 2 5376.440 5659.230 102.113 0.322 o
-3 -2 3 49.623 44.314 2.600 506.280 o
-3 -2 4 2488.500 2535.030 55.852 1.354 o
-3 -2 5 4077.240 4050.260 63.047 0.603 o
-3 -2 6 1874.910 1842.970 41.812 2.355 o
-3 -2 7 1.308 6.057 3.786 1239.250 o
-3 -2 8 804.422 814.452 150.175 0.828 o
-3 -2 9 1340.520 1262.930 231.024 0.350 o
-3 -1 1 4741.920 4744.200 71.015 0.452 o
-3 -1 2 7120.970 7147.960 92.748 0.210 o
-3 -1 3 1665.000 1624.910 24.702 3.324 o
-3 -1 4 95.129 92.835 3.438 239.611 o
-3 -1 5 2592.020 2489.950 42.140 1.439 o
-3 -1 6 4162.850 4149.300 23.104 0.646 o
-3 -1 7 610.963 637.012 83.135 2.523 o
-3 -1 8 15.511 13.607 3.228 1008.640 o
-3 -1 9 1346.060 1357.800 254.128 0.292 o
-3 0 1 2829.320 2861.930 25.517 1.299 o
-3 0 2 10343.100 10119.300 168.695 0.098 o
-3 0 3 14099.900 13924.200 379.727 0.042 o
-3 0 4 1211.270 1221.880 46.597 3.776 o
-3 0 5 1954.870 1923.410 35.901 2.332 o
-3 0 6 6280.760 6285.190 110.199 0.251 o
-3 0 7 4024.640 4139.090 59.990 0.611 o
-3 0 8 203.988 222.753 4.246 92.181 o
-3 0 9 179.855 184.680 3.629 113.354 o
-3 1 1 469.900 505.504 13.925 23.219 o
-3 1 2 11237.700 11004.000 231.382 0.076 o
-3 1 3 15150.000 14447.600 189.331 0.049 o
-3 1 4 3565.250 3632.440 47.679 0.793 o
-3 1 5 65.635 68.694 2.246 379.783 o
-3 1 6 2354.380 2425.560 28.637 1.755 o
-3 1 7 2822.790 2848.620 33.864 1.265 o
-3 1 8 1005.500 1048.340 185.955 0.541 o
-3 1 9 170.539 167.954 12.669 64.440 o
-3 1 10 552.917 491.349 24.129 14.659 o
-3 2 1 7324.140 7096.640 206.958 0.151 o
-3 2 2 139.110 156.521 4.266 142.805 o
-3 2 3 4484.620 4344.150 96.320 0.457 o
-3 2 4 5616.320 5507.110 138.142 0.275 o
-3 2 5 1043.680 1018.200 34.755 5.604 o
-3 2 6 63.831 72.528 2.992 353.071 o
-3 2 7 1241.870 1321.150 26.549 4.911 o
-3 2 8 1729.140 1840.260 14.768 3.162 o
-3 2 9 400.264 428.698 10.886 31.328 o
-3 3 1 5295.310 5116.130 81.108 0.370 o
-3 3 2 1335.230 1291.920 35.684 4.086 o
-3 3 3 2690.800 2666.780 12.478 1.492 o
-3 3 4 3590.250 3537.550 79.767 0.686 o
-3 3 5 2977.060 2991.070 89.253 0.828 o
-3 3 6 276.889 282.308 8.770 53.826 o
-3 3 7 554.102 570.140 10.250 21.053 o
-3 3 8 1915.010 1996.360 13.236 2.687 o
-3 3 9 962.387 997.821 18.096 8.159 o
-3 4 1 4875.350 4750.190 62.104 0.449 o
-3 4 2 2036.270 2015.720 33.673 2.218 o
-3 4 3 301.643 298.354 7.640 51.724 o
-3 4 4 3066.400 3072.180 27.886 1.121 o
-3 4 5 3708.400 3681.180 90.144 0.616 o
-3 4 6 1475.110 1461.860 41.314 3.281 o
-3 4 7 5.777 7.119 2.674 1816.810 o
-3 4 8 1757.770 1463.440 158.440 0.653 o
-3 4 9 1442.430 1390.630 15.086 4.575 o
-3 5 1 6565.290 6716.050 69.516 0.252 o
-3 5 2 7640.100 7927.820 116.833 0.174 o
-3 5 3 2127.590 2166.050 56.599 1.680 o
-3 5 4 488.433 495.908 10.314 25.204 o
-3 5 5 2786.900 2792.510 69.638 1.047 o
-3 5 6 3965.270 4046.260 73.750 0.595 o
-3 5 7 656.425 702.259 14.261 14.928 o
-3 5 8 106.296 100.399 4.202 202.914 o
-3 5 9 836.801 763.030 43.149 5.840 o
-3 6 1 979.422 991.293 29.276 6.629 o
-3 6 2 7775.220 8171.150 167.995 0.149 o
-3 6 3 4495.900 4659.670 64.290 0.496 o
-3 6 4 307.453 307.843 4.713 55.313 o
-3 6 5 580.214 587.564 12.774 18.777 o
-3 6 6 1829.590 1780.610 23.460 2.874 o
-3 6 7 1321.450 1186.920 136.684 0.903 o
-3 6 8 125.736 121.461 18.336 45.715 o
-3 7 1 42.759 48.929 2.449 548.835 o
-3 7 2 1817.860 1830.550 56.285 2.074 o
-3 7 3 2224.070 2357.030 420.493 0.107 o
-3 7 4 598.042 631.401 15.974 16.334 o
-3 7 5 2.428 7.057 2.162 2808.900 o
-3 7 6 575.620 553.507 9.868 20.755 o
-3 7 7 980.767 890.103 51.888 4.224 o
-3 8 1 126.643 123.523 2.825 182.383 o
-3 8 2 180.666 177.828 30.070 18.728 o
-3 8 3 1559.300 1528.090 41.525 3.057 o
-3 8 4 859.270 853.966 205.129 0.456 o
-3 8 5 221.515 220.705 42.452 9.899 o
-3 8 6 141.835 116.520 17.105 49.621 o
-3 9 1 1033.230 1039.610 21.058 7.135 o
-3 9 2 41.422 41.921 2.795 557.837 o
-3 9 3 923.637 804.962 151.275 0.808 o
-3 9 4 1729.320 1691.430 43.787 2.590 o
-3 9 5 983.029 861.308 179.637 0.582 o
-3 10 1 2009.270 1919.520 75.495 1.511 o
-3 10 2 636.031 594.817 24.257 12.558 o
-2 -10 1 977.772 887.006 80.058 2.367 o
-2 -10 2 1113.740 998.487 32.420 5.598 o
-2 -9 1 820.497 856.185 24.766 8.935 o
-2 -9 2 2760.300 2648.620 134.753 0.628 o
-2 -9 3 2153.340 2163.570 115.565 0.901 o
-2 -9 4 241.080 219.163 32.839 15.250 o
-2 -8 1 61.550 66.069 3.593 347.144 o
-2 -8 2 2124.930 2108.010 10.604 2.312 o
-2 -8 3 2409.000 2501.400 11.852 1.781 o
-2 -8 4 1390.850 1401.020 9.669 4.905 o
-2 -8 5 44.019 50.954 35.949 15.066 o
-2 -7 1 2223.150 2358.930 38.190 1.795 o
-2 -7 2 32.222 32.434 3.431 604.671 o
-2 -7 3 1088.420 1140.220 37.250 4.956 o
-2 -7 4 1662.430 1568.120 734.567 0.037 o
-2 -7 5 827.282 808.252 23.598 9.327 o
-2 -7 6 2.831 4.631 4.678 831.619 o
-2 -7 7 793.857 705.298 12.571 12.778 o
-2 -6 1 3234.270 3357.990 58.216 0.881 o
-2 -6 2 396.628 432.522 11.460 30.814 o
-2 -6 3 999.015 1087.730 33.501 5.785 o
-2 -6 4 2229.450 2600.670 75.206 1.247 o
-2 -6 5 3390.980 3481.310 87.777 0.697 o
-2 -6 6 125.196 135.489 6.837 131.920 o
-2 -6 7 725.337 688.936 50.483 5.250 o
-2 -6 8 1708.170 1316.770 622.332 0.051 o
-2 -5 1 10131.900 10707.900 301.877 0.074 o
-2 -5 2 2736.240 2868.860 17.559 1.382 o
-2 -5 3 113.344 130.329 6.367 147.387 o
-2 -5 4 4074.190 4230.050 209.716 0.270 o
-2 -5 5 6283.830 6710.110 92.629 0.253 o
-2 -5 6 2261.750 2264.670 166.268 0.535 o
-2 -5 7 21.360 18.915 4.460 604.343 o
-2 -5 8 1054.310 958.465 11.778 8.175 o
-2 -4 1 16111.400 17058.200 545.882 0.027 o
-2 -4 2 11158.100 11141.100 63.180 0.095 o
-2 -4 3 2554.200 2673.520 54.880 1.294 o
-2 -4 4 414.748 410.936 7.161 34.589 o
-2 -4 5 3235.070 3428.930 100.319 0.674 o
-2 -4 6 4745.420 4681.260 250.244 0.197 o
-2 -4 7 600.013 634.912 35.131 9.039 o
-2 -4 8 3.284 5.213 3.407 1423.750 o
-2 -4 9 787.615 681.510 65.824 3.500 o
-2 -3 1 1710.380 1672.230 40.555 2.728 o
-2 -3 2 14978.500 15538.200 99.237 0.051 o
-2 -3 3 5833.100 5793.640 176.713 0.223 o
-2 -3 4 2286.660 2474.820 58.241 1.456 o
-2 -3 5 455.335 448.998 10.055 28.253 o
-2 -3 6 2997.590 2985.940 66.524 0.965 o
-2 -3 7 2204.590 2152.350 69.326 1.442 o
-2 -3 8 216.245 233.198 9.416 66.007 o
-2 -3 9 120.582 130.913 26.511 24.849 o
-2 -2 1 13.252 33.080 3.947 706.586 o
-2 -2 2 6316.380 6631.410 84.548 0.258 o
-2 -2 3 4319.040 4306.020 100.550 0.467 o
-2 -2 4 2176.260 2141.510 35.455 1.973 o
-2 -2 5 54.189 55.170 2.854 434.435 o
-2 -2 6 2542.600 2510.370 48.009 1.409 o
-2 -2 7 3528.150 3506.820 124.893 0.529 o
-2 -2 8 899.893 867.221 242.222 0.330 o
-2 -2 9 0.622 3.105 2.669 2491.340 o
-2 -2 10 1098.730 1058.510 35.519 5.229 o
-2 -1 1 650.477 627.162 22.468 12.797 o
-2 -1 2 921.851 873.878 20.819 8.663 o
-2 -1 3 6819.000 6652.190 92.031 0.231 o
-2 -1 4 5146.900 5033.760 52.002 0.417 o
-2 -1 5 2704.260 2723.460 66.085 1.118 o
-2 -1 6 985.965 1004.000 11.348 8.623 o
-2 -1 7 4261.610 4352.240 38.900 0.591 o
-2 -1 8 3473.470 3651.890 67.161 0.746 o
-2 -1 9 640.181 603.622 140.243 0.964 o
-2 -1 10 100.598 98.858 6.812 162.133 o
-2 0 1 24280.500 23288.500 319.258 0.019 o
-2 0 2 1402.270 1440.050 16.808 4.573 o
-2 0 3 7721.510 7489.330 134.788 0.171 o
-2 0 4 18435.800 17935.600 480.058 0.026 o
-2 0 5 11718.000 11556.300 180.473 0.077 o
-2 0 6 481.906 502.723 8.637 26.416 o
-2 0 7 1546.240 1618.860 16.999 3.829 o
-2 0 8 3161.760 3369.230 58.526 0.899 o
-2 0 9 1984.410 2223.570 31.960 2.185 o
-2 0 10 200.867 228.171 3.625 94.467 o
-2 1 1 25852.300 23448.800 1469.130 0.006 o
-2 1 2 6144.590 5620.180 85.815 0.292 o
-2 1 3 219.162 243.718 5.429 79.712 o
-2 1 4 5377.340 5330.990 19.839 0.400 o
-2 1 5 5300.630 5175.130 21.328 0.414 o
-2 1 6 2950.240 2995.720 31.833 1.176 o
-2 1 7 0.589 6.772 2.248 2990.300 o
-2 1 8 757.787 819.163 12.669 12.416 o
-2 1 9 1606.240 1760.520 298.375 0.211 o
-2 1 10 671.152 685.603 33.731 8.739 o
-2 2 1 6172.920 5913.040 154.695 0.229 o
-2 2 2 8026.920 7817.400 141.991 0.157 o
-2 2 3 1901.930 1769.580 6.722 2.966 o
-2 2 4 24.998 55.124 6.303 317.083 o
-2 2 5 3112.920 2992.780 38.679 1.075 o
-2 2 6 3487.060 3586.030 49.723 0.812 o
-2 2 7 458.518 498.034 14.770 23.146 o
-2 2 8 338.177 349.687 7.370 44.369 o
-2 2 9 1469.930 1562.210 272.776 0.253 o
-2 2 10 1085.730 1162.220 10.887 7.178 o
-2 3 1 5436.270 5309.500 133.219 0.294 o
-2 3 2 9963.740 9806.170 68.243 0.118 o
-2 3 3 4391.880 4344.580 60.546 0.537 o
-2 3 4 109.773 121.240 4.503 181.696 o
-2 3 5 2887.030 2837.220 80.461 0.929 o
-2 3 6 5060.510 5084.790 115.147 0.346 o
-2 3 7 2513.850 2606.860 74.588 1.138 o
-2 3 8 6.668 16.139 4.722 702.252 o
-2 3 9 523.837 529.847 25.680 14.019 o
-2 3 10 1511.010 1445.760 281.759 0.238 o
-2 4 1 1443.940 1551.230 28.232 3.823 o
-2 4 2 6275.830 6336.760 24.059 0.292 o
-2 4 3 8557.660 8360.460 222.231 0.117 o
-2 4 4 2427.490 2404.550 82.498 1.127 o
-2 4 5 28.815 33.137 1.865 857.684 o
-2 4 6 4603.750 4745.920 146.304 0.338 o
-2 4 7 3856.160 3923.420 134.093 0.448 o
-2 4 8 1432.540 1534.740 48.528 2.975 o
-2 4 9 0.834 2.609 2.225 3428.370 o
-2 4 10 682.647 609.687 149.277 0.853 o
-2 5 1 3550.660 3664.580 104.272 0.591 o
-2 5 2 1794.200 1886.870 30.432 2.698 o
-2 5 3 5850.040 5899.040 97.714 0.291 o
-2 5 4 6644.780 6848.560 208.543 0.166 o
-2 5 5 1307.600 1358.950 49.086 3.304 o
-2 5 6 430.815 445.709 15.980 24.184 o
-2 5 7 1794.500 1952.600 29.238 2.672 o
-2 5 8 1350.640 1350.820 39.631 3.746 o
-2 5 9 255.377 252.756 5.475 69.203 o
-2 6 1 6691.160 6764.650 232.106 0.153 o
-2 6 2 7.388 19.194 4.833 655.771 o
-2 6 3 1266.700 1339.860 28.150 4.685 o
-2 6 4 3823.090 4052.210 64.996 0.642 o
-2 6 5 2091.560 2111.860 74.100 1.440 o
-2 6 6 182.043 184.321 6.176 98.485 o
-2 6 7 536.468 552.364 10.648 21.831 o
-2 6 8 801.967 832.300 22.920 9.597 o
-2 6 9 872.696 693.439 163.347 0.706 o
-2 7 1 3206.080 3212.130 107.971 0.661 o
-2 7 2 777.424 774.995 16.834 11.568 o
-2 7 3 241.669 244.730 6.940 68.826 o
-2 7 4 884.557 910.187 154.784 0.774 o
-2 7 5 2447.830 2526.100 419.073 0.107 o
-2 7 6 390.628 381.401 23.011 19.831 o
-2 7 7 147.422 150.185 6.430 119.781 o
-2 7 8 903.038 853.896 161.316 0.717 o
-2 8 1 1536.860 1567.410 23.289 3.741 o
-2 8 2 1876.760 1951.970 56.586 1.960 o
-2 8 3 176.409 174.888 6.938 97.595 o
-2 8 4 263.031 254.486 33.673 14.244 o
-2 8 5 1959.930 2102.970 41.631 2.114 o
-2 8 6 1231.440 1213.690 227.204 0.364 o
-2 8 7 78.220 65.559 23.238 33.600 o
-2 9 1 811.685 839.420 17.126 10.638 o
-2 9 2 3203.680 3234.960 83.680 0.780 o
-2 9 3 1532.240 1542.870 15.877 4.007 o
-2 9 4 5.909 6.465 2.351 2151.040 o
-2 9 5 672.399 643.537 137.817 0.992 o
-2 9 6 1855.100 1653.490 72.566 1.735 o
-2 10 1 77.219 69.553 7.322 185.108 o
-2 10 2 939.189 948.100 5.811 9.812 o
-2 10 3 1827.750 1745.920 40.541 2.508 o
-2 10 4 337.664 330.028 4.202 49.717 o
-1 -10 1 172.870 135.416 16.843 47.249 o
-1 -10 2 176.877 162.804 4.961 113.000 o
-1 -9 1 2907.850 2640.340 250.491 0.258 o
-1 -9 2 240.722 223.715 13.211 49.166 o
-1 -9 3 472.988 472.547 17.203 21.175 o
-1 -9 4 2645.710 2547.540 27.348 1.497 o
-1 -9 5 1405.590 1283.700 10.293 5.074 o
-1 -8 1 4162.290 4035.080 98.421 0.505 o
-1 -8 2 1519.120 1556.840 16.739 4.002 o
-1 -8 3 25.445 24.472 6.837 316.802 o
-1 -8 4 801.108 775.067 406.860 0.119 o
-1 -8 5 1294.350 1290.420 46.755 3.524 o
-1 -8 6 654.283 606.248 8.160 17.992 o
-1 -7 1 2247.400 2422.460 48.048 1.627 o
-1 -7 2 2307.590 2390.320 57.981 1.472 o
-1 -7 3 689.823 698.244 26.024 10.674 o
-1 -7 4 72.583 95.541 8.160 158.935 o
-1 -7 5 2193.300 2120.070 11.215 2.214 o
-1 -7 6 1745.130 1721.840 10.293 3.315 o
-1 -7 7 487.499 446.055 7.012 28.618 o
-1 -6 1 2222.930 2327.630 52.657 1.616 o
-1 -6 2 6020.640 6355.200 126.129 0.249 o
-1 -6 3 3922.280 4429.120 83.366 0.548 o
-1 -6 4 183.121 190.587 5.193 102.434 o
-1 -6 5 2183.730 2277.800 23.598 2.036 o
-1 -6 6 3914.580 3901.200 74.764 0.612 o
-1 -6 7 1731.540 1680.230 44.991 2.559 o
-1 -6 8 50.533 45.718 19.628 47.631 o
-1 -5 1 861.694 907.180 24.448 8.430 o
-1 -5 2 7083.270 7788.790 19.180 0.219 o
-1 -5 3 11552.400 12424.900 173.105 0.076 o
-1 -5 4 3313.390 3698.670 31.979 0.899 o
-1 -5 5 46.914 58.352 5.734 294.563 o
-1 -5 6 2885.060 2864.650 20.930 1.285 o
-1 -5 7 2693.420 2684.900 12.164 1.485 o
-1 -5 8 1744.830 1619.680 31.979 2.967 o
-1 -5 9 1.202 4.304 5.139 718.137 o
-1 -4 1 2975.310 3030.280 82.434 0.866 o
-1 -4 2 1252.910 1383.370 76.308 2.142 o
-1 -4 3 4804.520 4702.010 65.722 0.455 o
-1 -4 4 7294.860 7492.920 91.526 0.199 o
-1 -4 5 1220.910 1259.960 27.504 5.044 o
-1 -4 6 189.176 202.961 6.812 89.012 o
-1 -4 7 1824.930 1839.250 46.088 2.314 o
-1 -4 8 2043.500 1957.170 86.764 1.305 o
-1 -4 9 514.849 485.002 27.440 13.579 o
-1 -4 10 84.073 82.477 3.935 258.165 o
-1 -3 1 7472.560 7633.090 108.213 0.186 o
-1 -3 2 1238.920 1346.120 10.632 5.699 o
-1 -3 3 867.823 851.990 21.264 9.184 o
-1 -3 4 8862.150 9057.990 134.898 0.131 o
-1 -3 5 3525.100 3429.460 73.406 0.735 o
-1 -3 6 267.353 277.510 4.266 66.489 o
-1 -3 7 1020.100 1066.880 19.666 7.279 o
-1 -3 8 2336.950 2473.030 82.250 1.150 o
-1 -3 9 1885.360 1851.660 102.553 1.153 o
-1 -3 10 2.752 1.232 3.048 1870.960 o
-1 -2 1 8146.400 8022.160 70.666 0.172 o
-1 -2 2 2684.850 2772.270 43.329 1.297 o
-1 -2 3 1068.920 1091.740 18.514 6.975 o
-1 -2 4 6031.550 6082.470 67.670 0.297 o
-1 -2 5 10742.300 10816.100 208.104 0.084 o
-1 -2 6 1128.440 1068.440 25.462 6.050 o
-1 -2 7 43.969 45.579 2.555 544.359 o
-1 -2 8 2931.050 3179.660 71.739 0.924 o
-1 -2 9 2916.470 2860.690 342.553 0.150 o
-1 -2 10 659.000 715.574 30.171 9.682 o
-1 -1 1 7014.060 6747.610 47.123 0.239 o
-1 -1 2 12702.600 11932.300 225.935 0.065 o
-1 -1 3 5815.360 5766.270 27.376 0.342 o
-1 -1 4 1740.160 1656.370 7.831 3.429 o
-1 -1 5 11534.200 11332.200 184.220 0.079 o
-1 -1 6 5869.820 5937.280 151.257 0.242 o
-1 -1 7 1211.830 1310.690 32.279 4.650 o
-1 -1 8 514.600 522.387 13.370 21.627 o
-1 -1 9 2491.200 2623.060 96.963 0.937 o
-1 -1 10 2120.280 2267.670 51.505 1.728 o
-1 -1 11 288.480 296.402 14.398 38.366 o
-1 0 1 10907.700 10592.900 219.245 0.082 o
-1 0 2 55592.800 40114.800 1895.250 0.003 o
-1 0 3 17545.700 16331.100 276.220 0.036 o
-1 0 4 92.518 83.783 2.971 262.571 o
-1 0 5 4936.820 4973.190 56.147 0.438 o
-1 0 6 8471.790 8616.830 113.758 0.148 o
-1 0 7 2624.190 2766.650 43.541 1.329 o
-1 0 8 671.094 740.632 15.534 13.877 o
-1 0 9 1186.520 1278.260 42.274 4.064 o
-1 0 10 1686.230 1751.480 49.723 2.432 o
-1 0 11 888.465 830.427 180.600 0.580 o
-1 1 1 5562.570 5320.020 118.851 0.303 o
-1 1 2 14354.800 13140.500 475.723 0.036 o
-1 1 3 11391.500 10072.500 215.157 0.081 o
-1 1 4 2106.370 1910.230 37.648 2.131 o
-1 1 5 98.945 98.641 5.472 189.118 o
-1 1 6 2608.090 2512.370 92.356 0.960 o
-1 1 7 3950.500 4151.830 72.411 0.593 o
-1 1 8 1827.250 2022.970 324.848 0.177 o
-1 1 9 44.802 51.000 2.396 530.035 o
-1 1 10 1096.780 1219.210 21.201 6.192 o
-1 1 11 878.579 826.902 52.978 4.410 o
-1 2 1 8924.750 8352.680 17.650 0.155 o
-1 2 2 849.198 831.780 17.954 10.085 o
-1 2 3 7172.850 6898.720 83.771 0.217 o
-1 2 4 4757.790 4537.460 65.697 0.470 o
-1 2 5 1419.780 1383.240 32.406 3.917 o
-1 2 6 968.164 938.242 25.173 7.411 o
-1 2 7 3948.550 4063.900 201.385 0.291 o
-1 2 8 2325.310 2488.120 75.939 1.222 o
-1 2 9 336.071 346.397 6.758 45.680 o
-1 2 10 651.985 696.824 18.202 13.747 o
-1 2 11 752.672 803.467 8.340 13.398 o
-1 3 1 6281.260 5821.350 56.847 0.296 o
-1 3 2 241.138 280.146 10.685 53.632 o
-1 3 3 5270.230 5212.830 77.374 0.372 o
-1 3 4 8826.570 8432.870 201.164 0.119 o
-1 3 5 3699.750 3574.190 95.862 0.605 o
-1 3 6 31.137 37.782 5.304 398.105 o
-1 3 7 2207.800 2234.150 68.972 1.424 o
-1 3 8 3778.260 3871.860 161.254 0.386 o
-1 3 9 1614.870 1730.140 52.518 2.445 o
-1 3 10 13.095 19.696 4.794 611.489 o
-1 3 11 478.707 493.753 21.774 17.443 o
-1 4 1 9996.180 9095.640 264.945 0.088 o
-1 4 2 2263.360 2247.980 40.619 1.777 o
-1 4 3 1226.340 1244.620 34.412 4.559 o
-1 4 4 7624.360 7482.040 191.933 0.149 o
-1 4 5 9151.850 9115.850 221.722 0.105 o
-1 4 6 2509.030 2469.070 56.720 1.352 o
-1 4 7 270.129 323.961 32.599 14.552 o
-1 4 8 2503.350 2609.250 92.304 0.976 o
-1 4 9 2445.310 2612.920 36.620 1.543 o
-1 4 10 688.008 669.346 107.027 1.581 o
-1 5 1 12740.900 12268.300 351.912 0.052 o
-1 5 2 9584.320 9822.240 355.491 0.071 o
-1 5 3 1934.000 2021.680 52.815 1.959 o
-1 5 4 1409.790 1539.670 74.323 2.035 o
-1 5 5 4475.530 4780.520 210.396 0.247 o
-1 5 6 3367.610 3599.730 89.486 0.683 o
-1 5 7 418.310 434.188 17.410 23.514 o
-1 5 8 212.068 208.632 3.951 92.842 o
-1 5 9 1129.800 1135.130 28.389 5.615 o
-1 5 10 815.129 813.162 32.852 7.555 o
-1 6 1 3180.320 3339.520 105.354 0.667 o
-1 6 2 6507.320 6589.690 134.449 0.220 o
-1 6 3 3190.210 3342.980 107.415 0.656 o
-1 6 4 257.769 284.669 8.340 57.735 o
-1 6 5 1196.200 1315.780 30.911 4.791 o
-1 6 6 2361.310 2542.530 106.223 0.899 o
-1 6 7 1340.220 1431.890 58.582 2.737 o
-1 6 8 14.861 13.506 2.674 1231.060 o
-1 6 9 544.963 561.883 12.536 20.388 o
-1 6 10 886.497 819.199 21.583 9.105 o
-1 7 1 218.555 216.578 5.916 81.997 o
-1 7 2 2080.620 2068.150 55.446 1.769 o
-1 7 3 2538.270 2484.590 74.546 1.152 o
-1 7 4 559.451 599.256 20.552 15.379 o
-1 7 5 754.812 823.371 11.890 12.581 o
-1 7 6 1853.660 1918.320 330.387 0.172 o
-1 7 7 1648.770 1714.500 39.536 2.822 o
-1 7 8 142.971 136.921 3.947 150.149 o
-1 7 9 160.332 150.267 6.217 115.099 o
-1 8 1 435.298 450.894 3.876 33.585 o
-1 8 2 1576.680 1542.580 285.007 0.232 o
-1 8 3 2861.690 2917.000 79.591 0.931 o
-1 8 4 1803.360 1777.000 50.178 2.270 o
-1 8 5 67.828 74.108 2.386 357.048 o
-1 8 6 739.686 759.445 12.097 13.347 o
-1 8 7 1062.680 1121.820 39.728 4.842 o
-1 8 8 1130.220 1010.770 35.589 5.194 o
-1 9 1 1832.850 1901.200 48.843 2.204 o
-1 9 2 25.716 26.884 3.884 623.822 o
-1 9 3 2121.290 2129.430 368.995 0.138 o
-1 9 4 2644.540 2556.720 72.509 1.117 o
-1 9 5 1352.180 1375.480 40.937 3.642 o
-1 9 6 17.755 25.566 4.775 557.377 o
-1 9 7 359.793 347.629 9.335 39.413 o
-1 10 1 2428.120 2336.530 55.701 1.445 o
-1 10 2 550.406 561.006 14.830 19.013 o
-1 10 3 217.048 212.800 7.068 78.138 o
-1 10 4 469.406 483.309 23.238 16.781 o
-1 10 5 1034.330 900.183 181.492 0.568 o
0 -10 1 1695.770 1717.020 258.828 0.274 o
0 -10 2 1696.780 1606.270 14.997 3.496 o
0 -10 3 368.838 345.713 7.057 41.707 o
0 -9 1 1815.330 1881.730 17.890 2.905 o
0 -9 2 3045.890 3028.620 95.055 0.774 o
0 -9 3 1934.110 1941.870 13.894 2.694 o
0 -9 4 22.700 20.223 5.139 493.501 o
0 -9 5 373.141 353.467 22.937 20.686 o
0 -8 1 446.357 445.353 12.003 27.168 o
0 -8 2 863.493 900.739 10.586 10.626 o
0 -8 3 2263.940 2376.350 39.698 1.735 o
0 -8 4 989.191 998.951 49.843 4.271 o
0 -8 5 7.963 13.904 3.589 1046.550 o
0 -8 6 338.706 297.588 53.813 6.113 o
0 -8 7 1645.450 1584.500 20.731 3.521 o
0 -7 1 745.684 770.817 14.070 12.708 o
0 -7 2 596.304 602.318 15.900 16.746 o
0 -7 3 1725.160 1842.590 18.967 3.098 o
0 -7 4 3871.770 4005.670 152.396 0.397 o
0 -7 5 453.424 474.265 41.903 8.396 o
0 -7 6 535.248 570.538 33.964 10.144 o
0 -7 7 2567.680 2372.940 49.181 1.423 o
0 -7 8 1436.040 1316.880 16.541 4.685 o
0 -6 1 4631.440 4847.530 49.786 0.487 o
0 -6 2 43.020 49.102 5.898 305.418 o
0 -6 3 2270.380 2507.220 101.649 0.966 o
0 -6 4 8317.480 8564.880 386.592 0.074 o
0 -6 5 2395.760 2546.530 173.546 0.484 o
0 -6 6 5.562 1.103 4.367 925.109 o
0 -6 7 1422.450 1403.420 26.024 4.188 o
0 -6 8 2849.540 2651.070 1327.540 0.011 o
0 -6 9 929.962 795.889 8.421 10.677 o
0 -5 1 15056.000 15007.300 133.685 0.051 o
0 -5 2 2978.900 3179.380 71.205 0.913 o
0 -5 3 854.534 1009.400 32.861 6.761 o
0 -5 4 5233.060 5774.920 78.734 0.352 o
0 -5 5 8537.580 9080.810 204.423 0.118 o
0 -5 6 1513.580 1564.000 11.027 4.140 o
0 -5 7 2.659 9.704 4.514 850.523 o
0 -5 8 1548.760 1445.260 44.109 3.044 o
0 -5 9 1877.980 1715.520 69.692 1.763 o
0 -5 10 497.701 326.769 230.006 0.373 o
0 -4 1 9808.110 9473.860 136.416 0.113 o
0 -4 2 11467.000 11551.100 340.697 0.059 o
0 -4 3 1664.100 1733.660 63.517 2.069 o
0 -4 4 479.430 536.707 27.127 13.874 o
0 -4 5 5223.370 5267.580 73.441 0.378 o
0 -4 6 3598.470 3686.090 54.491 0.757 o
0 -4 7 836.172 812.882 14.261 11.024 o
0 -4 8 152.525 159.723 4.343 131.891 o
0 -4 9 1439.160 1388.290 63.659 2.442 o
0 -4 10 920.566 875.101 19.482 8.876 o
0 -3 1 1038.810 1008.120 15.916 7.734 o
0 -3 2 16076.800 15950.500 71.897 0.047 o
0 -3 3 5125.960 5201.540 52.710 0.410 o
0 -3 4 468.242 493.366 8.404 27.524 o
0 -3 5 1958.880 1925.670 35.710 2.330 o
0 -3 6 5035.210 5016.520 108.601 0.359 o
0 -3 7 1975.990 2103.960 62.377 1.709 o
0 -3 8 33.207 47.733 3.061 574.501 o
0 -3 9 1591.140 1591.200 269.444 0.257 o
0 -3 10 2180.840 2315.200 64.105 1.485 o
0 -3 11 797.590 754.105 32.597 7.904 o
0 -2 1 3125.840 3210.260 53.288 0.961 o
0 -2 2 9305.020 8633.070 147.922 0.125 o
0 -2 3 12664.200 11621.500 80.015 0.077 o
0 -2 4 722.961 651.470 16.286 13.522 o
0 -2 5 905.965 878.489 13.624 9.860 o
0 -2 6 6999.480 6901.770 84.252 0.223 o
0 -2 7 6279.680 6370.030 33.864 0.289 o
0 -2 8 942.773 1000.530 10.862 9.108 o
0 -2 9 283.697 303.538 6.048 57.333 o
0 -2 10 1834.170 1832.560 158.574 0.630 o
0 -2 11 1369.110 1350.220 20.246 4.722 o
0 -1 1 1564.430 1500.010 49.532 2.763 o
0 -1 2 7242.310 6712.280 110.840 0.206 o
0 -1 3 25008.400 20520.100 1017.520 0.010 o
0 -1 4 10227.200 9362.050 103.444 0.113 o
0 -1 5 1545.120 1515.680 21.761 3.838 o
0 -1 6 2927.790 2890.720 31.929 1.211 o
0 -1 7 6925.370 7009.750 94.212 0.219 o
0 -1 8 5660.500 6049.130 106.054 0.290 o
0 -1 9 740.750 792.421 21.239 10.872 o
0 -1 10 206.423 223.599 8.455 73.253 o
0 -1 11 1457.620 1571.930 81.543 1.788 o
0 0 1 8202.750 6689.910 182.695 0.149 o
0 0 2 273.288 272.631 6.581 60.707 o
0 0 3 14147.800 12000.400 140.816 0.063 o
0 0 4 19439.300 16960.300 211.536 0.032 o
0 0 5 6869.940 6691.650 159.718 0.191 o
0 0 6 1133.010 1167.890 21.519 6.109 o
0 0 7 2606.720 2651.040 32.066 1.458 o
0 0 8 4550.870 4768.730 62.138 0.486 o
0 0 9 1676.940 1774.130 46.285 2.531 o
0 0 10 24.266 26.901 6.135 370.238 o
0 0 11 674.116 714.557 14.794 14.288 o
0 1 0 21575.800 15993.500 702.353 0.018 o
0 1 1 11854.200 10405.900 220.391 0.076 o
0 1 2 116.009 114.503 5.666 161.551 o
0 1 3 473.003 538.311 28.522 13.235 o
0 1 4 3281.130 3013.880 42.019 0.992 o
0 1 5 8721.440 8221.590 193.645 0.124 o
0 1 6 2531.800 2521.460 76.392 1.130 o
0 1 7 350.964 373.936 19.145 25.230 o
0 1 8 2432.660 2541.070 91.037 1.018 o
0 1 9 2096.100 2164.820 47.304 1.856 o
0 1 10 144.133 154.965 3.925 142.547 o
0 1 11 43.716 52.665 5.552 318.706 o
0 2 0 219.743 213.129 17.780 38.068 o
0 2 1 16203.800 14491.200 140.491 0.047 o
0 2 2 332.167 387.983 11.396 36.925 o
0 2 3 7911.420 7682.540 174.491 0.149 o
0 2 4 5368.590 5282.220 87.485 0.351 o
0 2 5 8293.790 7906.580 203.647 0.130 o
0 2 6 4070.330 3871.650 74.419 0.591 o
0 2 7 30.268 31.628 2.648 735.533 o
0 2 8 2221.470 2273.710 69.262 1.402 o
0 2 9 2556.050 2644.750 92.443 0.956 o
0 2 10 1756.810 1834.090 54.179 2.185 o
0 2 11 209.920 199.623 34.125 14.686 o
0 3 0 1183.790 1172.820 21.837 5.810 o
0 3 1 13375.200 11371.500 256.235 0.060 o
0 3 2 15011.400 13729.500 207.537 0.051 o
0 3 3 4526.590 4236.610 105.354 0.440 o
0 3 4 292.715 316.232 9.682 47.378 o
0 3 5 10954.800 10397.100 294.295 0.071 o
0 3 6 8977.220 8633.620 214.280 0.112 o
0 3 7 2609.030 2597.250 62.375 1.217 o
0 3 8 27.471 36.129 5.539 394.730 o
0 3 9 1617.420 1661.870 76.711 1.787 o
0 3 10 2759.990 2727.580 70.599 1.060 o
0 3 11 1182.000 1187.120 55.064 3.322 o
0 4 0 2578.750 2449.330 31.059 1.552 o
0 4 1 1764.870 1609.070 30.426 2.983 o
0 4 2 15244.800 14092.400 315.686 0.043 o
0 4 3 13791.800 13047.900 329.250 0.048 o
0 4 4 6878.860 6862.000 178.755 0.178 o
0 4 5 2889.000 2910.520 93.473 0.831 o
0 4 6 4615.980 4654.150 91.284 0.437 o
0 4 7 5100.740 5338.320 185.700 0.247 o
0 4 8 1220.160 1273.200 53.479 3.283 o
0 4 9 27.689 29.496 4.075 569.756 o
0 4 10 1055.390 1081.610 41.306 4.780 o
0 4 11 1173.960 1144.580 192.971 0.497 o
0 5 0 9802.580 9659.370 164.552 0.107 o
0 5 1 2640.060 2625.670 50.423 1.302 o
0 5 2 2960.280 2951.620 92.627 0.816 o
0 5 3 6701.870 6501.720 112.724 0.228 o
0 5 4 4583.760 4516.130 115.992 0.401 o
0 5 5 632.259 599.089 17.165 15.441 o
0 5 6 1178.100 1206.950 35.538 4.690 o
0 5 7 1100.150 1132.740 29.960 5.608 o
0 5 8 1916.960 1965.820 47.100 2.121 o
0 5 9 201.046 208.463 5.674 89.847 o
0 5 10 412.177 402.666 144.698 0.930 o
0 5 11 741.878 743.085 49.879 5.216 o
0 6 0 6498.640 6558.930 16.387 0.275 o
0 6 1 2775.770 2862.040 44.593 1.220 o
0 6 2 6.367 10.125 1.982 2310.490 o
0 6 3 2568.770 2577.580 56.847 1.292 o
0 6 4 3934.900 4038.350 47.960 0.663 o
0 6 5 1839.730 2027.410 60.215 1.881 o
0 6 6 60.723 65.148 2.738 388.421 o
0 6 7 1187.910 1240.590 50.550 3.546 o
0 6 8 2383.590 2396.100 71.936 1.263 o
0 6 9 541.695 523.152 7.850 23.541 o
0 6 10 82.841 71.627 14.629 73.345 o
0 7 0 3066.590 3048.780 25.739 1.134 o
0 7 1 2812.070 2952.340 11.841 1.327 o
0 7 2 301.925 309.364 4.214 56.811 o
0 7 3 1666.600 1719.660 45.467 2.606 o
0 7 4 3580.560 3502.690 91.260 0.647 o
0 7 5 2869.590 2890.990 48.948 1.142 o
0 7 6 140.819 143.744 3.105 156.084 o
0 7 7 653.472 666.056 21.252 12.903 o
0 7 8 1440.520 1445.810 23.938 4.160 o
0 7 9 1520.590 1389.550 277.122 0.246 o
0 8 0 2827.590 2949.810 18.178 1.303 o
0 8 1 3519.100 3642.050 31.578 0.847 o
0 8 2 2395.240 2460.330 30.229 1.693 o
0 8 3 59.017 85.530 13.298 88.526 o
0 8 4 1211.920 1177.080 11.345 6.284 o
0 8 5 2285.640 2300.290 68.243 1.377 o
0 8 6 1837.070 1861.820 49.931 2.194 o
0 8 7 182.953 174.072 3.810 113.613 o
0 8 8 311.309 296.332 16.331 33.073 o
0 8 9 1088.470 962.178 83.336 2.135 o
0 9 0 240.905 246.935 31.071 16.519 o
0 9 1 2659.530 2717.630 43.165 1.326 o
0 9 2 3372.380 3459.020 34.825 0.911 o
0 9 3 1436.720 1482.550 19.864 4.274 o
0 9 4 14.155 16.890 3.411 944.488 o
0 9 5 1062.030 1131.110 31.210 5.657 o
0 9 6 1918.690 1922.200 28.980 2.514 o
0 9 7 688.809 664.745 20.964 12.486 o
0 10 0 582.079 570.146 15.638 17.615 o
0 10 1 616.967 618.034 11.078 17.974 o
0 10 2 493.844 535.294 9.018 24.828 o
0 10 3 1534.210 1548.310 34.685 3.354 o
0 10 4 197.255 199.214 5.366 94.271 o
0 10 5 135.111 122.059 18.272 45.277 o
1 -10 0 1436.020 1427.620 210.905 0.410 o
1 -10 1 146.128 149.776 3.766 144.247 o
1 -10 2 442.278 464.591 9.868 28.697 o
1 -10 3 1926.920 1645.530 15.879 2.946 o
1 -9 0 4462.500 4696.950 30.553 0.541 o
1 -9 1 955.866 1034.490 21.583 7.634 o
1 -9 2 322.842 328.475 4.833 51.202 o
1 -9 3 1058.710 987.392 50.725 4.051 o
1 -9 4 1751.540 1640.120 102.752 1.222 o
1 -9 5 919.806 827.140 30.876 7.218 o
1 -8 0 1274.440 1310.360 14.006 5.482 o
1 -8 1 1801.320 1852.740 56.883 2.065 o
1 -8 2 1074.350 1101.000 19.108 6.855 o
1 -8 3 27.307 37.996 11.689 127.165 o
1 -8 4 1368.070 1369.860 51.828 3.054 o
1 -8 5 1641.470 1656.040 45.432 2.687 o
1 -8 6 568.819 595.201 8.381 20.846 o
1 -8 7 190.072 181.485 94.834 2.177 o
1 -7 0 776.906 827.068 14.006 11.800 o
1 -7 1 2908.560 3075.200 86.456 0.852 o
1 -7 2 2915.240 2946.290 71.236 0.967 o
1 -7 3 1156.680 1128.020 24.039 5.883 o
1 -7 4 3812.750 3944.040 90.864 0.578 o
1 -7 5 3370.650 3607.510 101.891 0.631 o
1 -7 6 2520.070 2690.040 126.372 0.707 o
1 -7 7 90.101 100.873 6.175 183.076 o
1 -7 8 659.219 635.365 406.199 0.120 o
1 -6 0 118.908 104.662 2.897 202.633 o
1 -6 1 4537.130 4561.710 59.050 0.505 o
1 -6 2 11772.800 11437.600 132.157 0.082 o
1 -6 3 3632.460 3689.090 100.133 0.592 o
1 -6 4 90.179 91.046 4.555 224.982 o
1 -6 5 4377.850 4699.870 183.471 0.290 o
1 -6 6 3196.900 3223.730 163.842 0.440 o
1 -6 7 2899.290 3067.570 69.692 0.963 o
1 -6 8 60.973 62.512 4.324 321.791 o
1 -6 9 743.937 663.514 7.697 15.099 o
1 -5 0 3045.340 2962.920 75.055 0.902 o
1 -5 1 1574.840 1564.750 46.845 2.801 o
1 -5 2 8685.000 8616.430 83.771 0.150 o
1 -5 3 10657.800 10480.400 346.261 0.065 o
1 -5 4 2853.700 2932.770 149.948 0.531 o
1 -5 5 562.931 590.739 32.200 10.442 o
1 -5 6 1032.290 1100.270 72.537 2.593 o
1 -5 7 4868.350 4905.380 54.254 0.451 o
1 -5 8 678.257 695.193 37.471 7.758 o
1 -5 9 113.214 107.095 4.767 181.526 o
1 -5 10 807.072 683.716 10.435 13.150 o
1 -4 0 8485.520 7744.230 212.943 0.125 o
1 -4 1 2040.520 1972.310 39.969 2.128 o
1 -4 2 1524.690 1526.460 22.974 3.839 o
1 -4 3 6375.130 6127.580 214.186 0.176 o
1 -4 4 4312.440 4379.480 76.972 0.514 o
1 -4 5 650.335 716.392 16.081 14.317 o
1 -4 6 801.731 789.264 8.220 12.671 o
1 -4 7 2038.000 2014.620 30.886 2.262 o
1 -4 8 3590.760 3632.850 161.755 0.405 o
1 -4 9 21.544 25.282 3.183 805.651 o
1 -4 10 236.661 227.780 16.228 40.486 o
1 -4 11 1004.020 927.851 38.613 5.502 o
1 -3 0 13569.900 12116.600 272.658 0.056 o
1 -3 1 5510.200 5074.050 89.820 0.346 o
1 -3 2 31.287 45.086 3.884 513.184 o
1 -3 3 4763.230 4779.030 96.129 0.409 o
1 -3 4 8769.960 8826.400 178.881 0.123 o
1 -3 5 3084.130 3081.860 31.069 1.100 o
1 -3 6 124.390 134.897 9.337 104.489 o
1 -3 7 3448.430 3503.360 78.684 0.722 o
1 -3 8 7503.630 7324.940 213.898 0.143 o
1 -3 9 920.144 921.608 11.969 9.660 o
1 -3 10 18.339 18.513 4.473 629.439 o
1 -3 11 1109.710 1051.780 55.949 3.497 o
1 -2 0 13499.200 12358.000 126.848 0.066 o
1 -2 1 13657.600 12443.800 107.859 0.066 o
1 -2 2 2081.490 2066.680 38.830 2.055 o
1 -2 3 4615.440 4483.850 53.426 0.508 o
1 -2 4 12660.300 11827.100 80.467 0.076 o
1 -2 5 14306.500 13930.500 134.926 0.057 o
1 -2 6 1499.490 1447.060 17.572 4.207 o
1 -2 7 848.424 858.273 17.891 9.957 o
1 -2 8 3903.860 4056.760 55.708 0.650 o
1 -2 9 4020.900 4124.300 43.032 0.648 o
1 -2 10 294.365 304.877 5.157 57.048 o
1 -2 11 6.731 5.337 2.483 1990.610 o
1 -1 0 13134.100 12161.900 249.105 0.060 o
1 -1 1 13131.500 12573.800 414.826 0.044 o
1 -1 2 27066.900 22108.600 148.080 0.019 o
1 -1 3 1047.650 944.391 10.950 8.361 o
1 -1 4 5165.640 4641.930 62.362 0.424 o
1 -1 5 12816.800 11866.300 80.467 0.075 o
1 -1 6 9644.340 9394.030 89.062 0.124 o
1 -1 7 902.109 903.382 30.241 7.196 o
1 -1 8 687.387 731.599 5.880 15.919 o
1 -1 9 3858.040 3985.960 15.916 0.736 o
1 -1 10 2046.280 2154.420 320.375 0.180 o
1 -1 11 366.568 400.339 10.632 34.905 o
1 -1 12 286.568 287.802 78.839 3.058 o
1 0 0 2853.990 2738.040 18.008 1.349 o
1 0 1 12579.500 11294.300 643.150 0.030 o
1 0 2 26790.300 23379.500 442.050 0.016 o
1 0 3 9920.610 9039.720 143.674 0.114 o
1 0 4 7.695 54.983 23.576 34.935 o
1 0 5 4257.410 3928.150 67.801 0.573 o
1 0 6 9759.680 9202.020 86.686 0.124 o
1 0 7 1878.530 1811.500 21.328 2.800 o
1 0 8 4.562 10.970 2.500 1922.420 o
1 0 9 2331.850 2422.020 42.898 1.628 o
1 0 10 2296.710 2426.420 30.929 1.783 o
1 0 11 462.821 495.267 3.960 30.068 o
1 0 12 0.115 1.296 2.682 2658.310 o
1 1 0 423.272 456.747 14.006 26.147 o
1 1 1 2428.910 2116.970 65.124 1.390 o
1 1 2 1435.420 1270.560 25.912 4.360 o
1 1 3 36259.100 30932.300 514.686 0.009 o
1 1 4 122.002 111.361 7.318 134.951 o
1 1 5 740.477 697.396 15.662 13.008 o
1 1 6 6614.530 6245.210 160.497 0.205 o
1 1 7 4762.380 4554.710 102.935 0.408 o
1 1 8 233.763 226.627 5.272 78.539 o
1 1 9 258.718 262.242 7.513 61.865 o
1 1 10 2248.280 2356.260 58.875 1.505 o
1 1 11 1349.430 1451.780 28.663 4.208 o
1 1 12 251.453 250.428 13.618 45.446 o
1 2 0 7814.260 7281.730 148.392 0.165 o
1 2 1 3142.370 2837.310 53.530 1.018 o
1 2 2 5375.670 5032.690 95.613 0.351 o
1 2 3 18376.200 18024.200 334.522 0.030 o
1 2 4 5793.930 5616.880 114.220 0.287 o
1 2 5 395.284 461.382 14.325 27.025 o
1 2 6 2835.190 2687.830 67.358 1.066 o
1 2 7 6662.710 6312.610 170.541 0.195 o
1 2 8 3215.330 3273.140 65.881 0.862 o
1 2 9 332.269 350.353 17.126 29.236 o
1 2 10 994.327 1032.810 43.820 4.792 o
1 2 11 1936.030 1922.890 123.110 0.893 o
1 2 12 1117.100 1100.160 18.896 6.609 o
1 3 0 18873.200 17409.600 234.459 0.033 o
1 3 1 5447.940 4795.980 67.416 0.385 o
1 3 2 290.395 288.976 8.340 52.451 o
1 3 3 10967.300 10596.400 276.117 0.073 o
1 3 4 22403.500 21262.200 580.707 0.018 o
1 3 5 480.847 383.986 11.924 27.047 o
1 3 6 816.358 868.789 23.728 9.121 o
1 3 7 5570.520 5384.820 63.787 0.355 o
1 3 8 5792.890 5747.890 107.391 0.290 o
1 3 9 2063.680 2136.320 58.439 1.705 o
1 3 10 2.184 6.066 6.335 471.984 o
1 3 11 1471.210 1413.970 45.648 3.138 o
1 3 12 1082.850 1086.590 49.264 4.009 o
1 4 0 13129.600 12563.300 180.276 0.064 o
1 4 1 20108.900 18154.300 319.570 0.028 o
1 4 2 1199.250 1110.240 20.239 6.009 o
1 4 3 4000.400 3991.000 124.127 0.458 o
1 4 4 10447.300 10244.100 222.066 0.087 o
1 4 5 7655.410 7296.590 221.728 0.137 o
1 4 6 1182.010 1169.990 30.369 5.155 o
1 4 7 43.499 62.082 5.539 308.186 o
1 4 8 4569.750 4689.620 130.177 0.370 o
1 4 9 2047.020 2040.770 51.684 1.874 o
1 4 10 258.443 262.112 12.012 48.655 o
1 4 11 195.371 209.508 9.919 70.259 o
1 5 0 4303.980 4377.460 46.794 0.570 o
1 5 1 11457.600 11009.500 219.054 0.077 o
1 5 2 4212.690 3988.870 92.945 0.515 o
1 5 3 405.269 379.724 10.187 33.398 o
1 5 4 1223.630 1170.390 28.144 5.164 o
1 5 5 3828.970 3643.970 113.780 0.524 o
1 5 6 2012.810 1938.850 80.976 1.412 o
1 5 7 1129.710 1165.570 46.061 4.062 o
1 5 8 2450.820 2470.290 81.798 1.114 o
1 5 9 1285.810 1340.930 34.380 4.235 o
1 5 10 790.009 760.454 49.526 5.108 o
1 5 11 8.051 10.446 2.674 1579.230 o
1 6 0 86.591 96.868 3.325 253.901 o
1 6 1 3295.260 3372.870 51.609 0.889 o
1 6 2 6345.590 6339.930 114.012 0.244 o
1 6 3 1345.440 1356.590 46.176 3.393 o
1 6 4 8.789 17.418 1.893 1836.720 o
1 6 5 3523.590 3586.110 87.001 0.666 o
1 6 6 3851.700 3883.270 135.016 0.447 o
1 6 7 670.352 652.895 27.407 10.700 o
1 6 8 210.640 219.945 37.805 12.220 o
1 6 9 2330.640 2276.650 73.209 1.298 o
1 6 10 559.601 585.272 16.428 17.600 o
1 6 11 459.186 399.398 70.026 3.639 o
1 7 0 90.251 103.788 3.693 233.498 o
1 7 1 1834.140 1980.770 57.870 1.956 o
1 7 2 4612.840 4836.560 76.731 0.452 o
1 7 3 2527.380 2521.080 35.739 1.526 o
1 7 4 63.163 74.329 8.022 178.055 o
1 7 5 1599.450 1615.150 31.317 3.271 o
1 7 6 3362.100 3410.460 33.240 0.927 o
1 7 7 1784.260 1762.580 43.086 2.488 o
1 7 8 251.409 259.228 13.007 46.740 o
1 7 9 474.189 444.638 4.202 30.892 o
1 7 10 501.697 535.801 17.890 18.919 o
1 8 0 1681.750 1735.080 35.016 2.889 o
1 8 1 2.852 7.707 2.609 2089.480 o
1 8 2 2088.030 2214.170 23.111 2.185 o
1 8 3 3706.910 3840.830 67.543 0.676 o
1 8 4 2040.200 2175.910 39.218 2.035 o
1 8 5 213.139 198.173 4.138 93.730 o
1 8 6 1276.110 1215.990 25.543 5.047 o
1 8 7 1882.640 1871.840 19.853 2.764 o
1 8 8 1429.010 1376.310 46.842 3.189 o
1 8 9 78.229 78.702 5.857 217.695 o
1 9 0 4100.060 4059.900 357.486 0.127 o
1 9 1 1025.590 1112.010 20.424 7.011 o
1 9 2 6.045 15.613 2.917 1401.220 o
1 9 3 2248.650 2404.810 51.302 1.590 o
1 9 4 2724.000 2800.130 64.120 1.112 o
1 9 5 1060.790 1053.690 15.152 7.461 o
1 9 6 12.668 13.378 2.276 1504.670 o
1 9 7 765.334 699.039 36.601 7.446 o
1 9 8 705.973 665.506 18.823 12.908 o
1 10 0 1378.910 1443.030 190.364 0.496 o
1 10 1 1063.120 1083.050 196.319 0.486 o
1 10 2 259.642 250.565 6.303 66.268 o
1 10 3 300.337 297.788 9.423 48.136 o
1 10 4 899.057 896.657 38.569 5.990 o
1 10 5 652.671 625.265 23.034 12.571 o
1 10 6 43.138 32.041 12.606 107.651 o
2 -10 0 572.932 549.699 99.949 1.839 o
2 -10 1 2042.000 1896.420 62.322 1.736 o
2 -10 2 1887.370 1729.630 91.567 1.337 o
2 -10 3 286.251 263.549 8.404 54.758 o
2 -9 0 60.252 65.254 3.064 376.199 o
2 -9 1 1323.330 1343.480 23.238 4.757 o
2 -9 2 2258.390 2321.330 48.443 1.650 o
2 -9 3 754.975 757.452 29.223 8.941 o
2 -9 4 0.431 2.336 4.202 1089.670 o
2 -9 5 735.692 689.837 7.637 15.001 o
2 -9 6 1110.080 1034.720 52.048 3.792 o
2 -8 0 956.354 938.258 26.337 7.326 o
2 -8 1 62.736 75.612 6.102 234.604 o
2 -8 2 1788.260 1892.540 45.261 2.346 o
2 -8 3 2569.780 2456.710 108.035 0.848 o
2 -8 4 299.766 296.035 5.398 56.471 o
2 -8 5 126.376 124.917 35.508 14.638 o
2 -8 6 1690.390 1636.620 19.628 3.381 o
2 -8 7 1575.620 1486.670 11.069 4.066 o
2 -7 0 2606.750 2770.380 75.565 1.065 o
2 -7 1 510.823 536.376 19.243 17.829 o
2 -7 2 4413.650 4663.340 148.881 0.347 o
2 -7 3 4591.540 4621.760 55.011 0.500 o
2 -7 4 2575.750 2567.380 35.525 1.480 o
2 -7 5 50.907 57.642 3.815 389.114 o
2 -7 6 1101.640 1097.160 28.208 5.850 o
2 -7 7 2603.040 2737.850 59.547 1.214 o
2 -7 8 1694.570 1679.340 56.900 2.252 o
2 -6 0 9081.530 9065.490 174.361 0.118 o
2 -6 1 3023.130 2972.360 26.663 1.168 o
2 -6 2 618.174 617.711 16.788 15.698 o
2 -6 3 5257.770 5242.640 128.068 0.312 o
2 -6 4 5243.170 5346.040 82.226 0.364 o
2 -6 5 2533.300 2754.060 44.804 1.373 o
2 -6 6 158.449 168.221 5.302 118.697 o
2 -6 7 3423.480 3421.570 118.190 0.571 o
2 -6 8 3104.410 3072.520 123.505 0.613 o
2 -6 9 1319.040 1310.760 66.384 2.495 o
2 -5 0 10212.600 10234.800 311.745 0.073 o
2 -5 1 9187.270 8995.320 156.091 0.122 o
2 -5 2 2051.420 1879.680 24.032 2.437 o
2 -5 3 1230.000 1249.110 25.594 5.162 o
2 -5 4 2649.440 2708.420 63.614 1.164 o
2 -5 5 7624.840 7838.490 148.892 0.163 o
2 -5 6 946.057 994.705 15.113 8.667 o
2 -5 7 409.174 409.852 9.805 32.504 o
2 -5 8 2424.950 2497.770 44.814 1.517 o
2 -5 9 889.719 880.519 22.918 8.570 o
2 -5 10 182.066 169.704 8.468 86.596 o
2 -4 0 4363.890 4485.790 172.646 0.313 o
2 -4 1 5309.550 4914.250 99.057 0.356 o
2 -4 2 6213.380 6107.170 86.588 0.274 o
2 -4 3 672.154 760.055 9.380 15.290 o
2 -4 4 1375.590 1384.200 41.199 3.568 o
2 -4 5 4781.050 4885.980 83.899 0.422 o
2 -4 6 4879.640 5247.000 40.902 0.443 o
2 -4 7 139.725 135.373 6.685 125.348 o
2 -4 8 1450.150 1430.490 31.875 3.803 o
2 -4 9 1003.760 1027.840 28.261 6.521 o
2 -4 10 1970.950 1936.510 95.549 1.209 o
2 -4 11 66.425 52.516 12.170 104.073 o
2 -3 0 324.746 334.257 5.221 50.022 o
2 -3 1 3863.790 3657.530 37.027 0.743 o
2 -3 2 9542.640 9297.390 66.317 0.129 o
2 -3 3 3747.050 3970.860 87.980 0.594 o
2 -3 4 392.941 380.826 15.343 27.927 o
2 -3 5 6942.940 7113.230 91.799 0.218 o
2 -3 6 10721.000 10387.600 225.627 0.084 o
2 -3 7 800.291 774.492 16.617 11.306 o
2 -3 8 291.053 286.677 7.895 53.541 o
2 -3 9 3174.920 3150.550 71.802 0.859 o
2 -3 10 2519.320 2553.420 34.882 1.527 o
2 -3 11 1618.490 1550.330 15.649 3.756 o
2 -2 0 428.753 402.561 5.157 35.321 o
2 -2 1 8156.260 7664.010 142.922 0.156 o
2 -2 2 13469.700 12598.700 228.159 0.059 o
2 -2 3 19402.500 18320.300 165.009 0.032 o
2 -2 4 505.086 445.892 10.887 25.203 o
2 -2 5 3563.790 3352.160 52.702 0.813 o
2 -2 6 8102.600 7765.290 157.925 0.150 o
2 -2 7 6090.480 5991.540 95.343 0.278 o
2 -2 8 517.995 501.786 8.340 24.850 o
2 -2 9 210.568 198.441 4.966 91.382 o
2 -2 10 2076.500 2137.430 35.295 2.079 o
2 -2 11 3298.250 3249.850 31.763 0.981 o
2 -2 12 102.493 106.041 3.348 218.625 o
2 -1 0 18228.400 15451.700 271.254 0.035 o
2 -1 1 8.300 33.699 5.144 538.188 o
2 -1 2 12893.400 12288.100 628.232 0.030 o
2 -1 3 26280.300 21966.900 717.124 0.013 o
2 -1 4 14265.800 12806.400 139.670 0.060 o
2 -1 5 859.298 829.471 13.179 10.788 o
2 -1 6 2914.330 2903.690 22.887 1.252 o
2 -1 7 8274.610 7935.420 21.073 0.177 o
2 -1 8 5372.060 5396.880 79.066 0.355 o
2 -1 9 654.337 660.257 16.668 14.577 o
2 -1 10 961.599 996.950 17.381 8.255 o
2 -1 11 1730.330 1742.200 29.095 2.960 o
2 -1 12 947.944 934.657 16.744 8.732 o
2 0 0 29326.500 27006.500 600.386 0.012 o
2 0 1 10236.500 10323.900 160.944 0.099 o
2 0 2 62.301 83.872 6.176 226.774 o
2 0 3 6941.850 6458.270 151.972 0.197 o
2 0 4 14108.200 12813.600 288.408 0.051 o
2 0 5 3085.260 2962.200 89.229 0.807 o
2 0 6 45.954 54.849 3.120 461.928 o
2 0 7 4136.910 4061.730 87.789 0.533 o
2 0 8 4186.480 4072.320 56.889 0.596 o
2 0 9 744.916 749.858 9.959 13.774 o
2 0 10 97.171 98.149 3.183 236.272 o
2 0 11 1305.440 1380.070 33.806 4.158 o
2 0 12 1109.920 1137.950 33.434 5.233 o
2 1 0 6323.450 6207.560 26.208 0.293 o
2 1 1 12411.900 11557.000 372.812 0.052 o
2 1 2 1021.950 949.990 35.271 5.779 o
2 1 3 1603.240 1579.450 25.517 3.491 o
2 1 4 7972.760 7223.980 176.623 0.151 o
2 1 5 5674.330 5479.630 147.755 0.263 o
2 1 6 161.893 154.887 7.576 102.331 o
2 1 7 1442.830 1393.950 33.934 3.770 o
2 1 8 3911.680 3805.310 78.239 0.611 o
2 1 9 2744.150 2843.380 76.322 1.001 o
2 1 10 98.786 107.664 2.894 230.331 o
2 1 11 535.084 560.328 19.218 16.994 o
2 1 12 1531.950 1514.450 28.509 3.636 o
2 2 0 6989.840 6932.910 191.642 0.167 o
2 2 1 11419.500 10105.000 211.177 0.081 o
2 2 2 2639.600 2262.780 59.209 1.312 o
2 2 3 972.542 1012.400 40.605 5.235 o
2 2 4 9676.320 9696.390 220.458 0.097 o
2 2 5 9246.050 8610.110 274.824 0.094 o
2 2 6 6391.010 6500.350 207.157 0.176 o
2 2 7 0.674 31.252 11.441 144.879 o
2 2 8 2913.710 2950.600 82.124 0.895 o
2 2 9 5203.570 5371.260 196.389 0.231 o
2 2 10 2555.390 2623.570 74.483 1.120 o
2 2 11 57.201 60.504 3.820 360.452 o
2 2 12 453.436 455.392 23.811 16.994 o
2 3 0 2092.020 2182.620 48.641 1.830 o
2 3 1 17044.600 15727.100 450.596 0.030 o
2 3 2 20425.400 18748.500 350.293 0.026 o
2 3 3 4414.980 4178.710 126.618 0.408 o
2 3 4 33.072 54.223 11.133 132.261 o
2 3 5 10181.700 9743.480 250.413 0.086 o
2 3 6 12374.200 12004.100 366.173 0.052 o
2 3 7 3702.680 3522.700 138.736 0.466 o
2 3 8 101.727 105.216 4.270 204.521 o
2 3 9 2752.350 2891.560 72.375 1.021 o
2 3 10 3209.820 3215.370 105.736 0.671 o
2 3 11 814.727 800.872 41.574 6.090 o
2 3 12 1.528 11.446 5.342 633.281 o
2 4 0 273.108 243.631 5.348 66.603 o
2 4 1 3569.210 3633.000 21.680 0.853 o
2 4 2 13531.200 13255.700 133.454 0.063 o
2 4 3 11705.600 11246.400 265.715 0.068 o
2 4 4 1702.850 1620.410 36.657 2.901 o
2 4 5 934.836 958.481 22.562 7.946 o
2 4 6 5177.480 5048.450 135.536 0.312 o
2 4 7 4973.090 5093.340 148.941 0.304 o
2 4 8 34.217 45.321 7.258 255.929 o
2 4 9 127.167 126.366 7.258 128.372 o
2 4 10 1548.580 1536.490 41.848 3.056 o
2 4 11 663.137 658.772 16.031 14.643 o
2 4 12 18.543 14.982 3.688 811.160 o
2 5 0 2489.010 2304.250 23.365 1.734 o
2 5 1 510.181 522.401 4.403 26.375 o
2 5 2 1332.170 1244.140 34.525 4.232 o
2 5 3 4055.680 3855.080 132.482 0.438 o
2 5 4 3410.280 3343.140 101.655 0.646 o
2 5 5 70.528 83.067 3.293 306.733 o
2 5 6 2648.800 2658.470 121.934 0.718 o
2 5 7 2722.300 2744.780 84.523 0.959 o
2 5 8 985.529 942.870 33.908 6.125 o
2 5 9 39.293 41.397 4.247 445.165 o
2 5 10 548.975 574.261 18.718 16.793 o
2 5 11 1352.640 1265.040 51.208 3.195 o
2 6 0 5166.750 5027.160 53.664 0.414 o
2 6 1 597.091 569.029 9.041 20.078 o
2 6 2 88.013 83.901 3.656 256.143 o
2 6 3 6310.310 6218.730 196.007 0.189 o
2 6 4 5440.810 5287.580 189.386 0.232 o
2 6 5 334.343 334.955 11.269 39.143 o
2 6 6 1076.130 1081.920 12.020 7.477 o
2 6 7 3440.470 3435.200 149.602 0.459 o
2 6 8 2150.670 2171.460 104.081 1.016 o
2 6 9 247.505 240.614 11.211 53.785 o
2 6 10 6.172 9.387 3.756 1073.670 o
2 6 11 1728.570 1585.400 42.243 2.714 o
2 7 0 5033.370 5279.000 91.122 0.373 o
2 7 1 1954.660 1909.520 23.933 2.556 o
2 7 2 16.174 35.241 7.385 289.100 o
2 7 3 3259.490 3276.690 124.390 0.576 o
2 7 4 4987.950 4616.490 244.960 0.197 o
2 7 5 2724.620 2754.550 94.976 0.878 o
2 7 6 92.234 102.549 4.585 213.008 o
2 7 7 419.668 432.303 16.235 24.647 o
2 7 8 1884.990 1924.380 18.422 2.737 o
2 7 9 1928.610 1891.360 67.777 1.710 o
2 7 10 242.624 234.449 8.843 63.122 o
2 8 0 2209.800 2274.700 57.745 1.570 o
2 8 1 4086.150 4328.750 42.232 0.618 o
2 8 2 2127.760 2300.260 58.562 1.603 o
2 8 3 180.088 182.647 7.131 93.634 o
2 8 4 1922.100 2092.430 21.901 2.499 o
2 8 5 2683.340 2844.160 77.468 1.012 o
2 8 6 1899.950 1816.250 23.562 2.721 o
2 8 7 105.114 98.570 4.902 192.972 o
2 8 8 654.186 595.404 52.976 5.196 o
2 8 9 1235.580 1142.970 12.154 6.208 o
2 9 0 304.187 318.717 10.431 44.372 o
2 9 1 1909.070 2110.910 65.633 1.692 o
2 9 2 2898.710 2951.260 87.018 0.866 o
2 9 3 914.127 942.839 31.925 6.757 o
2 9 4 112.347 119.791 3.183 197.820 o
2 9 5 1123.960 1166.960 39.084 4.636 o
2 9 6 1082.880 1069.500 8.404 7.685 o
2 9 7 196.011 188.267 28.522 20.130 o
2 9 8 48.582 35.859 12.606 105.584 o
2 10 0 8.455 8.129 4.344 830.067 o
2 10 1 290.757 296.970 6.350 56.104 o
2 10 2 1062.010 1078.780 13.499 7.490 o
2 10 3 735.667 742.218 14.402 13.034 o
2 10 4 5.201 10.711 3.474 1215.710 o
2 10 5 473.795 435.013 15.916 22.819 o
2 10 6 777.206 726.006 129.229 1.103 o
3 -10 0 1364.090 1246.140 32.525 4.258 o
3 -10 1 113.654 102.189 5.666 169.070 o
3 -10 2 589.209 478.067 44.383 7.137 o
3 -10 3 1738.840 1197.680 136.868 0.846 o
3 -9 0 1835.640 1764.550 52.588 2.181 o
3 -9 1 610.856 612.473 13.115 17.440 o
3 -9 2 4.941 8.037 2.480 2030.660 o
3 -9 3 783.673 704.315 78.371 2.651 o
3 -9 4 1426.170 1414.430 30.241 3.964 o
3 -9 5 439.514 395.171 11.027 29.815 o
3 -8 0 1527.510 1543.210 32.393 3.464 o
3 -8 1 2022.050 2047.840 47.234 1.975 o
3 -8 2 271.751 269.587 7.831 58.058 o
3 -8 3 382.699 414.642 14.470 28.640 o
3 -8 4 2461.090 2726.180 102.261 0.888 o
3 -8 5 1718.040 1688.080 41.255 2.684 o
3 -8 6 71.888 69.910 5.139 256.795 o
3 -8 7 594.697 569.899 12.571 18.703 o
3 -7 0 2542.340 2634.950 67.906 1.185 o
3 -7 1 6051.100 6167.520 163.672 0.221 o
3 -7 2 2022.890 2111.350 79.703 1.387 o
3 -7 3 3.171 18.959 4.013 935.447 o
3 -7 4 2509.940 2598.650 47.622 1.406 o
3 -7 5 4170.700 4352.840 88.616 0.508 o
3 -7 6 2291.320 2291.830 72.234 1.325 o
3 -7 7 138.075 133.125 9.924 94.531 o
3 -7 8 792.301 759.812 68.810 3.222 o
3 -6 0 421.290 421.111 13.521 27.575 o
3 -6 1 5927.300 6091.610 166.944 0.224 o
3 -6 2 7095.080 7338.060 343.985 0.097 o
3 -6 3 2383.400 2564.410 68.823 1.260 o
3 -6 4 9.818 24.863 5.140 557.927 o
3 -6 5 4851.770 5159.530 60.667 0.432 o
3 -6 6 4663.210 4812.770 134.067 0.352 o
3 -6 7 1887.950 2019.570 32.654 2.420 o
3 -6 8 20.651 26.632 3.541 736.924 o
3 -6 9 1327.110 1234.380 98.930 1.502 o
3 -6 10 1245.960 1137.100 50.262 3.553 o
3 -5 0 734.243 670.740 24.749 10.709 o
3 -5 1 290.594 278.167 9.041 51.523 o
3 -5 2 6768.730 7000.650 222.289 0.155 o
3 -5 3 5465.080 5414.420 142.249 0.280 o
3 -5 4 1125.340 1148.930 17.508 6.519 o
3 -5 5 881.607 954.668 16.808 9.269 o
3 -5 6 2680.590 2839.650 76.322 1.022 o
3 -5 7 1278.220 1345.500 23.875 4.888 o
3 -5 8 88.935 110.007 6.354 176.127 o
3 -5 9 259.994 262.826 6.679 63.910 o
3 -5 10 1153.220 1125.350 16.815 6.473 o
3 -4 0 2737.970 2715.800 69.898 1.076 o
3 -4 1 765.984 938.615 33.233 7.402 o
3 -4 2 3424.880 3605.020 90.208 0.669 o
3 -4 3 6003.820 6168.350 92.082 0.280 o
3 -4 4 3302.180 3461.240 44.248 0.902 o
3 -4 5 44.121 61.283 3.438 433.867 o
3 -4 6 3223.900 3310.640 81.623 0.777 o
3 -4 7 2466.640 2527.710 57.583 1.350 o
3 -4 8 3115.630 3228.780 72.827 0.859 o
3 -4 9 3.352 7.065 2.788 1884.660 o
3 -4 10 1058.360 996.843 34.889 5.573 o
3 -4 11 2090.510 1911.480 56.019 1.812 o
3 -3 0 8564.280 8519.570 139.167 0.140 o
3 -3 1 2056.760 2109.360 52.581 1.822 o
3 -3 2 812.030 766.104 11.905 12.120 o
3 -3 3 17756.100 17528.200 1076.990 0.012 o
3 -3 4 8502.100 8307.650 227.331 0.116 o
3 -3 5 1759.310 1782.700 50.550 2.305 o
3 -3 6 1585.270 1563.440 24.626 3.581 o
3 -3 7 6589.600 6513.250 208.422 0.171 o
3 -3 8 6032.960 5960.690 190.477 0.203 o
3 -3 9 2187.540 2167.130 27.631 2.048 o
3 -3 10 187.544 176.520 29.453 19.305 o
3 -3 11 2000.560 1939.340 8.342 2.631 o
3 -2 0 15380.700 14571.800 366.746 0.039 o
3 -2 1 15725.000 15379.800 671.321 0.023 o
3 -2 2 980.115 991.950 21.613 7.609 o
3 -2 3 7433.750 8011.830 187.588 0.149 o
3 -2 4 9266.250 8936.500 119.991 0.129 o
3 -2 5 8239.570 7909.900 284.936 0.104 o
3 -2 6 1626.770 1567.940 33.215 3.200 o
3 -2 7 735.419 697.106 7.464 14.956 o
3 -2 8 3672.270 3614.920 27.090 0.816 o
3 -2 9 5427.790 5415.620 111.020 0.317 o
3 -2 10 107.018 110.854 16.831 54.246 o
3 -2 11 252.366 229.878 5.915 71.324 o
3 -2 12 1268.270 1236.000 18.405 5.472 o
3 -1 0 5709.070 5308.930 123.838 0.290 o
3 -1 1 22304.800 20706.000 917.794 0.012 o
3 -1 2 10774.600 11319.000 245.456 0.077 o
3 -1 3 657.774 631.099 20.669 13.318 o
3 -1 4 5882.660 5870.580 180.791 0.217 o
3 -1 5 7692.710 6918.370 263.487 0.122 o
3 -1 6 11191.000 11039.500 270.363 0.071 o
3 -1 7 99.509 93.088 4.971 201.715 o
3 -1 8 2165.050 2160.670 23.365 2.124 o
3 -1 9 3367.370 3276.260 58.050 0.855 o
3 -1 10 1124.720 1148.410 22.665 6.111 o
3 -1 11 94.527 103.915 2.842 241.745 o
3 -1 12 278.027 267.383 7.958 56.878 o
3 0 0 695.660 732.621 9.313 15.088 o
3 0 1 4724.420 4692.330 88.100 0.430 o
3 0 2 14839.000 14480.200 549.059 0.030 o
3 0 3 1775.990 1576.540 44.354 2.588 o
3 0 4 1373.080 1359.330 47.376 3.277 o
3 0 5 6593.080 6490.660 195.763 0.179 o
3 0 6 7314.510 7236.770 266.797 0.124 o
3 0 7 571.586 545.959 14.707 18.688 o
3 0 8 1265.760 1267.550 33.298 4.476 o
3 0 9 2967.320 2969.110 48.695 1.087 o
3 0 10 2561.410 2504.080 59.330 1.290 o
3 0 11 319.586 355.415 12.542 37.294 o
3 0 12 4.892 15.036 4.022 936.622 o
3 1 0 587.796 578.989 15.280 17.527 o
3 1 1 2063.310 2018.630 49.962 1.901 o
3 1 2 18767.200 17667.700 532.073 0.024 o
3 1 3 6469.010 5831.340 213.325 0.178 o
3 1 4 62.385 63.265 2.816 382.320 o
3 1 5 3803.790 3686.630 124.439 0.492 o
3 1 6 6563.390 6263.550 187.363 0.188 o
3 1 7 6031.650 6206.170 155.650 0.228 o
3 1 8 9.802 33.019 10.423 166.553 o
3 1 9 939.849 926.564 25.169 7.648 o
3 1 10 3574.100 3526.330 116.954 0.551 o
3 1 11 2236.600 2148.630 118.794 0.856 o
3 1 12 107.714 118.451 4.138 191.061 o
3 2 0 4415.790 4612.380 76.895 0.487 o
3 2 1 755.123 814.958 15.471 11.905 o
3 2 2 9731.290 8977.600 158.451 0.114 o
3 2 3 16567.700 15408.500 426.388 0.033 o
3 2 4 3948.600 3637.680 100.904 0.549 o
3 2 5 3.589 25.963 8.259 265.603 o
3 2 6 4968.010 4879.220 214.025 0.227 o
3 2 7 9442.430 9294.550 346.621 0.074 o
3 2 8 3896.170 3893.080 157.359 0.387 o
3 2 9 56.149 57.082 5.412 290.859 o
3 2 10 989.427 1022.270 24.066 7.135 o
3 2 11 2414.090 2409.300 74.094 1.222 o
3 2 12 961.656 975.672 39.536 5.463 o
3 3 0 12828.900 12982.700 183.529 0.065 o
3 3 1 5465.640 5469.070 102.425 0.322 o
3 3 2 1383.530 1305.940 27.758 4.375 o
3 3 3 12289.400 12032.600 356.255 0.053 o
3 3 4 11618.800 11308.100 260.225 0.069 o
3 3 5 3807.180 3741.060 132.674 0.464 o
3 3 6 368.254 380.865 11.332 34.563 o
3 3 7 5716.620 6057.300 264.499 0.156 o
3 3 8 5469.530 5666.120 243.368 0.178 o
3 3 9 864.802 906.175 29.427 7.555 o
3 3 10 58.788 69.559 3.336 361.805 o
3 3 11 1874.150 1849.400 75.337 1.607 o
3 3 12 1201.560 1143.900 50.608 3.609 o
3 4 0 10449.300 10341.200 210.078 0.089 o
3 4 1 8915.750 8740.210 71.629 0.146 o
3 4 2 196.985 176.963 3.565 107.149 o
3 4 3 2486.280 2532.540 70.239 1.207 o
3 4 4 7237.190 7182.450 164.748 0.173 o
3 4 5 4378.700 4152.680 121.977 0.422 o
3 4 6 315.867 328.245 20.309 25.872 o
3 4 7 1168.340 1214.260 27.567 5.345 o
3 4 8 2972.140 2984.590 80.036 0.888 o
3 4 9 1149.910 1211.780 59.024 3.117 o
3 4 10 7.990 16.780 6.881 368.327 o
3 4 11 524.767 504.859 12.669 22.011 o
3 4 12 996.212 852.882 99.949 1.660 o
3 5 0 2131.900 2094.010 21.409 2.223 o
3 5 1 4496.670 4374.500 57.172 0.526 o
3 5 2 3432.820 3368.160 52.129 0.848 o
3 5 3 112.810 109.620 2.671 210.306 o
3 5 4 2594.430 2603.880 65.009 1.197 o
3 5 5 4895.630 4845.690 104.170 0.383 o
3 5 6 1586.710 1627.170 49.334 2.651 o
3 5 7 133.833 129.517 3.756 162.926 o
3 5 8 1950.380 1918.610 68.257 1.677 o
3 5 9 2079.090 2014.610 47.782 1.928 o
3 5 10 842.587 825.806 14.643 10.790 o
3 5 11 4.982 3.571 2.101 2779.340 o
3 5 12 527.482 476.658 24.957 14.760 o
3 6 0 767.801 793.057 10.613 12.850 o
3 6 1 5187.650 5050.130 33.399 0.426 o
3 6 2 6074.180 6086.440 63.486 0.297 o
3 6 3 130.182 137.339 5.904 139.144 o
3 6 4 1367.790 1374.850 45.967 3.344 o
3 6 5 4631.320 4640.420 59.451 0.488 o
3 6 6 2969.630 2982.930 67.416 0.969 o
3 6 7 343.562 334.132 5.666 46.974 o
3 6 8 426.597 441.019 19.032 21.614 o
3 6 9 2358.080 2360.530 111.994 0.870 o
3 6 10 1738.960 1676.530 310.447 0.195 o
3 6 11 378.454 292.932 89.846 2.352 o
3 7 0 44.709 59.322 4.648 359.042 o
3 7 1 3102.580 3095.360 11.269 1.141 o
3 7 2 4473.410 4442.770 45.151 0.542 o
3 7 3 2382.100 2447.100 99.560 0.965 o
3 7 4 2.104 7.835 3.056 1691.210 o
3 7 5 660.970 687.247 10.024 16.246 o
3 7 6 3820.940 3793.710 150.047 0.414 o
3 7 7 2420.160 2509.540 66.327 1.283 o
3 7 8 192.038 188.130 5.986 95.073 o
3 7 9 464.322 428.697 34.442 11.145 o
3 7 10 1286.390 1114.650 225.028 0.371 o
3 8 0 1346.550 1279.700 119.425 1.115 o
3 8 1 7.015 8.880 2.677 1678.820 o
3 8 2 1966.300 1985.910 40.033 2.201 o
3 8 3 3916.350 3898.480 142.980 0.421 o
3 8 4 1628.200 1604.030 59.266 2.288 o
3 8 5 53.372 82.026 12.988 93.582 o
3 8 6 1578.360 1553.740 81.225 1.732 o
3 8 7 2144.490 2116.900 37.938 1.980 o
3 8 8 692.914 659.111 7.260 16.442 o
3 8 9 6.332 3.277 2.211 2447.940 o
3 9 0 1918.590 1926.980 106.818 1.077 o
3 9 1 927.895 934.880 27.726 7.321 o
3 9 2 322.718 330.773 9.168 44.189 o
3 9 3 1507.680 1511.290 32.711 3.531 o
3 9 4 1461.990 1515.010 30.044 3.747 o
3 9 5 153.463 163.797 6.685 111.274 o
3 9 6 91.621 93.894 2.894 255.708 o
3 9 7 1179.670 1119.180 39.142 4.535 o
3 9 8 406.988 426.727 75.565 3.198 o
3 10 0 922.165 824.398 47.234 4.933 o
3 10 1 559.933 533.257 5.120 23.510 o
3 10 2 2.231 1.148 3.028 1935.570 o
3 10 3 764.714 732.270 17.572 11.873 o
3 10 4 939.793 879.885 9.932 9.888 o
3 10 5 481.702 424.120 13.608 24.644 o
3 10 6 0.924 2.239 2.638 2562.000 o
4 -9 0 70.219 66.106 2.983 342.841 o
4 -9 1 870.979 865.281 38.072 6.250 o
4 -9 2 1432.730 1380.040 77.091 1.990 o
4 -9 3 253.336 262.319 10.735 53.033 o
4 -9 4 41.972 38.531 7.258 249.130 o
4 -9 5 1338.190 1306.540 54.562 3.014 o
4 -8 0 356.031 348.804 12.018 35.638 o
4 -8 1 909.612 923.646 31.069 6.964 o
4 -8 2 2664.880 2763.540 84.854 0.971 o
4 -8 3 1444.090 1465.650 97.969 1.438 o
4 -8 4 62.337 64.634 4.206 320.275 o
4 -8 5 1002.160 1078.520 30.553 6.127 o
4 -8 6 2132.390 2086.560 91.166 1.187 o
4 -8 7 1300.960 1105.800 163.786 0.664 o
4 -7 0 2141.740 2080.770 267.880 0.248 o
4 -7 1 279.087 286.766 4.099 63.342 o
4 -7 2 2589.550 2675.460 71.872 1.121 o
4 -7 3 4183.920 4323.900 237.043 0.228 o
4 -7 4 2022.190 2144.800 39.727 2.061 o
4 -7 5 141.402 142.596 4.226 146.645 o
4 -7 6 1382.900 1469.720 26.676 4.177 o
4 -7 7 2411.920 2441.720 56.968 1.409 o
4 -7 8 1441.770 1445.500 33.991 3.707 o
4 -6 0 5017.280 5152.080 147.494 0.302 o
4 -6 1 1640.340 1681.340 53.355 2.417 o
4 -6 2 540.054 572.180 16.044 18.486 o
4 -6 3 3487.080 3743.720 152.299 0.434 o
4 -6 4 5963.830 6488.560 147.020 0.232 o
4 -6 5 1620.770 1634.920 57.486 2.335 o
4 -6 6 315.817 317.893 5.386 52.246 o
4 -6 7 2570.570 2641.030 91.035 0.964 o
4 -6 8 2158.470 2306.780 62.768 1.520 o
4 -6 9 411.487 412.888 20.649 21.021 o
4 -5 0 5120.430 5420.640 130.616 0.311 o
4 -5 1 5144.490 5254.420 138.726 0.304 o
4 -5 2 164.348 167.871 4.711 119.838 o
4 -5 3 775.738 797.625 26.165 9.297 o
4 -5 4 3753.480 3870.560 99.252 0.565 o
4 -5 5 2068.850 2213.630 17.897 2.262 o
4 -5 6 40.239 46.330 3.297 507.274 o
4 -5 7 834.917 835.177 26.594 8.543 o
4 -5 8 1798.010 1914.430 59.330 1.982 o
4 -5 9 1228.810 1281.550 37.018 4.312 o
4 -5 10 74.010 50.550 14.325 79.052 o
4 -4 0 2480.820 2511.740 49.589 1.429 o
4 -4 1 5981.570 6095.450 222.296 0.179 o
4 -4 2 3027.810 3184.100 69.005 0.911 o
4 -4 3 39.268 45.127 11.248 129.355 o
4 -4 4 2283.510 2426.750 52.766 1.541 o
4 -4 5 7048.750 7368.390 73.145 0.217 o
4 -4 6 2380.850 2575.310 51.251 1.452 o
4 -4 7 0.839 15.925 4.075 986.992 o
4 -4 8 1986.120 2113.110 33.170 2.228 o
4 -4 9 3260.290 3335.920 63.914 0.851 o
4 -4 10 1267.300 1286.570 15.407 5.510 o
4 -4 11 1.555 2.721 2.958 2008.460 o
4 -3 0 1487.730 1498.760 32.081 3.618 o
4 -3 1 9699.080 10035.300 234.264 0.092 o
4 -3 2 8528.000 8704.110 124.365 0.143 o
4 -3 3 495.417 444.197 11.248 25.433 o
4 -3 4 1884.130 1904.980 40.360 2.338 o
4 -3 5 10785.900 11600.800 205.115 0.081 o
4 -3 6 7265.460 7672.660 66.518 0.205 o
4 -3 7 1175.420 1189.470 41.252 4.282 o
4 -3 8 503.667 512.386 14.261 21.610 o
4 -3 9 3928.110 3684.140 97.141 0.560 o
4 -3 10 2770.690 2751.390 59.521 1.139 o
4 -3 11 766.867 737.676 18.896 11.476 o
4 -3 12 114.761 104.281 5.465 170.320 o
4 -2 0 126.979 181.055 28.958 20.772 o
4 -2 1 6430.130 6556.290 156.153 0.208 o
4 -2 2 11556.200 10991.100 399.362 0.053 o
4 -2 3 7561.180 7697.550 208.833 0.141 o
4 -2 4 657.027 695.761 37.486 7.874 o
4 -2 5 1340.920 1348.630 42.783 3.594 o
4 -2 6 9735.190 9895.240 441.031 0.056 o
4 -2 7 4190.940 4088.470 173.724 0.330 o
4 -2 8 467.825 479.942 13.266 24.327 o
4 -2 9 1253.590 1202.400 29.223 4.908 o
4 -2 10 2824.630 2792.360 27.631 1.311 o
4 -2 11 1291.840 1270.240 16.617 5.376 o
4 -2 12 83.334 80.540 13.040 86.412 o
4 -1 0 6750.150 6588.360 182.274 0.182 o
4 -1 1 6.505 14.740 2.755 1496.870 o
4 -1 2 7355.820 7475.180 124.038 0.185 o
4 -1 3 14571.200 14576.300 283.350 0.046 o
4 -1 4 10201.800 10054.000 119.029 0.107 o
4 -1 5 132.885 175.373 4.763 136.188 o
4 -1 6 5386.410 5432.760 276.856 0.157 o
4 -1 7 5138.020 4927.320 246.806 0.189 o
4 -1 8 1695.590 1685.330 53.318 2.353 o
4 -1 9 9.596 11.431 2.276 1730.780 o
4 -1 10 1099.480 1097.770 9.098 7.410 o
4 -1 11 1045.530 1065.430 18.075 7.265 o
4 -1 12 743.528 748.867 17.635 12.043 o
4 0 0 10552.700 11074.600 228.280 0.082 o
4 0 1 2961.490 3009.880 70.987 0.945 o
4 0 2 2592.470 2842.520 66.208 1.138 o
4 0 3 5740.210 5782.360 107.347 0.292 o
4 0 4 7099.620 7115.420 149.086 0.185 o
4 0 5 237.207 206.487 7.205 73.291 o
4 0 6 1751.620 1762.390 76.132 1.688 o
4 0 7 5419.990 5375.020 192.570 0.228 o
4 0 8 2084.790 2005.680 69.526 1.546 o
4 0 9 1133.140 1182.650 37.493 4.716 o
4 0 10 445.738 448.676 10.352 28.547 o
4 0 11 2026.910 2106.680 57.884 1.752 o
4 0 12 1831.060 1777.720 31.833 2.694 o
4 1 0 13033.500 13937.400 224.233 0.058 o
4 1 1 2887.130 2837.560 46.307 1.163 o
4 1 2 64.419 70.248 3.690 327.758 o
4 1 3 5303.620 5294.690 64.135 0.380 o
4 1 4 6398.480 6081.210 147.240 0.224 o
4 1 5 4729.110 4387.250 112.481 0.401 o
4 1 6 55.474 71.353 3.629 356.959 o
4 1 7 2951.550 2895.300 116.953 0.681 o
4 1 8 5360.320 5491.980 137.654 0.288 o
4 1 9 3515.170 3612.080 67.543 0.740 o
4 1 10 36.796 44.325 3.309 535.901 o
4 1 11 1469.310 1413.900 36.771 3.550 o
4 1 12 1993.700 1896.560 31.906 2.375 o
4 2 0 8578.980 8758.420 107.716 0.146 o
4 2 1 11925.300 12092.900 161.310 0.075 o
4 2 2 1627.490 1448.460 31.133 3.395 o
4 2 3 493.620 468.488 15.125 22.128 o
4 2 4 6114.670 5916.860 244.206 0.163 o
4 2 5 16374.500 15625.600 583.693 0.026 o
4 2 6 4493.570 4585.070 260.813 0.192 o
4 2 7 7.681 23.298 4.688 663.893 o
4 2 8 3239.290 3294.320 131.839 0.547 o
4 2 9 4431.430 4500.570 127.573 0.392 o
4 2 10 2655.830 2718.180 85.247 0.977 o
4 2 11 35.538 43.454 5.730 342.263 o
4 2 12 492.844 489.746 18.325 19.502 o
4 3 0 2269.660 2328.920 57.802 1.515 o
4 3 1 12178.400 13078.100 218.667 0.065 o
4 3 2 10283.000 10140.700 109.624 0.107 o
4 3 3 4131.250 4073.950 60.799 0.597 o
4 3 4 1069.840 1118.610 49.300 4.000 o
4 3 5 8225.120 8240.030 236.814 0.117 o
4 3 6 9561.740 9486.130 344.576 0.074 o
4 3 7 751.586 764.596 41.128 6.499 o
4 3 8 294.457 307.707 11.078 44.588 o
4 3 9 3214.140 3274.200 185.375 0.375 o
4 3 10 2413.270 2441.560 61.978 1.352 o
4 3 11 196.043 205.500 9.848 70.885 o
4 3 12 209.155 200.885 12.026 58.995 o
4 4 0 186.695 197.811 3.424 107.656 o
4 4 1 2257.410 2358.010 45.005 1.682 o
4 4 2 6822.000 6776.230 119.488 0.215 o
4 4 3 4033.030 3885.210 70.583 0.605 o
4 4 4 575.757 592.905 16.016 17.305 o
4 4 5 2091.950 2131.530 75.306 1.417 o
4 4 6 4122.460 4123.790 172.460 0.335 o
4 4 7 804.106 817.858 16.744 10.944 o
4 4 8 1.766 12.048 2.969 1662.250 o
4 4 9 1047.660 1107.990 44.999 4.426 o
4 4 10 1409.190 1495.920 74.291 2.052 o
4 4 11 504.747 504.253 16.680 20.078 o
4 4 12 31.768 25.491 4.229 535.416 o
4 5 0 1133.520 1262.240 16.992 6.178 o
4 5 1 16.885 19.804 2.586 1107.870 o
4 5 2 2903.520 2880.670 39.972 1.184 o
4 5 3 4666.630 4458.030 72.770 0.474 o
4 5 4 1089.080 1162.440 26.097 5.952 o
4 5 5 865.654 904.344 33.106 6.949 o
4 5 6 3361.880 3389.980 77.729 0.756 o
4 5 7 3061.760 3108.240 92.619 0.777 o
4 5 8 553.936 570.880 23.174 14.456 o
4 5 9 17.243 22.429 2.351 1134.390 o
4 5 10 1663.350 1636.210 65.442 2.058 o
4 5 11 1617.910 1486.430 69.934 2.029 o
4 5 12 470.214 386.560 94.919 2.079 o
4 6 0 2341.080 2380.030 50.137 1.551 o
4 6 1 221.571 232.062 3.364 87.091 o
4 6 2 2790.710 2830.240 15.134 1.368 o
4 6 3 5689.660 5671.160 97.258 0.307 o
4 6 4 2872.150 2907.610 62.775 1.046 o
4 6 5 159.204 166.842 5.953 113.710 o
4 6 6 1524.450 1591.290 33.354 3.381 o
4 6 7 3205.310 3226.180 41.376 0.984 o
4 6 8 3029.270 3009.800 78.111 0.881 o
4 6 9 580.586 553.152 16.319 17.531 o
4 6 10 394.470 358.155 19.554 23.491 o
4 6 11 1463.400 1330.910 78.487 1.944 o
4 7 0 3723.520 3652.030 81.662 0.645 o
4 7 1 1633.380 1651.860 6.983 3.716 o
4 7 2 15.835 42.755 11.769 129.079 o
4 7 3 1929.340 2070.720 73.657 1.545 o
4 7 4 4028.970 4170.620 133.176 0.425 o
4 7 5 3000.650 3108.960 82.960 0.846 o
4 7 6 189.916 189.916 4.393 103.746 o
4 7 7 693.478 744.349 7.802 15.305 o
4 7 8 2089.790 2178.730 381.822 0.129 o
4 7 9 1048.650 1054.900 177.169 0.590 o
4 7 10 33.521 21.390 8.913 202.121 o
4 8 0 1487.980 1515.910 49.583 2.860 o
4 8 1 3446.390 3449.270 98.739 0.644 o
4 8 2 1560.540 1468.830 26.572 3.694 o
4 8 3 25.314 25.738 2.411 896.203 o
4 8 4 1621.420 1688.810 49.295 2.565 o
4 8 5 2250.420 2311.220 33.743 1.845 o
4 8 6 724.103 768.901 127.573 1.133 o
4 8 7 65.300 77.768 3.732 313.059 o
4 8 8 542.767 558.244 19.482 16.700 o
4 8 9 869.598 779.348 28.840 8.061 o
4 9 0 406.628 420.329 7.067 34.937 o
4 9 1 1486.560 1457.360 244.451 0.311 o
4 9 2 1083.730 999.032 99.586 1.615 o
4 9 3 69.133 77.207 3.506 311.401 o
4 9 4 378.171 386.871 16.871 26.631 o
4 9 5 952.605 969.337 23.111 7.696 o
4 9 6 672.393 656.284 12.211 15.719 o
4 9 7 6.862 3.474 2.375 2177.280 o
4 9 8 312.622 293.731 15.662 34.289 o
4 10 2 1125.910 1079.630 15.019 6.919 o
4 10 3 274.370 248.129 16.946 35.524 o
4 10 4 19.635 23.601 2.779 945.015 o
5 -9 0 928.590 927.524 19.991 8.494 o
5 -9 1 127.411 130.712 4.038 165.336 o
5 -9 2 128.870 119.233 9.614 102.885 o
5 -9 3 1134.350 987.787 19.991 6.754 o
5 -9 4 1408.660 1176.900 77.857 2.052 o
5 -8 0 2524.570 2449.610 56.338 1.353 o
5 -8 1 573.487 585.695 91.736 2.144 o
5 -8 2 29.992 31.399 3.461 625.188 o
5 -8 3 1327.260 1286.240 93.328 1.624 o
5 -8 4 2225.520 1997.760 181.422 0.479 o
5 -8 5 1216.890 1098.140 135.957 0.931 o
5 -8 6 4.657 6.545 4.464 860.720 o
5 -7 0 2718.070 2805.470 450.899 0.092 o
5 -7 1 3301.770 3466.150 51.315 0.875 o
5 -7 2 1414.590 1479.790 10.090 4.647 o
5 -7 3 57.158 57.758 3.877 362.488 o
5 -7 4 2163.110 2118.040 95.193 1.121 o
5 -7 5 3525.420 3653.050 103.578 0.598 o
5 -7 6 1441.610 1429.860 235.794 0.334 o
5 -7 7 36.647 40.150 3.666 516.458 o
5 -7 8 1010.570 832.832 85.773 2.124 o
5 -6 0 350.151 344.994 7.615 42.966 o
5 -6 1 3837.590 4110.400 118.554 0.483 o
5 -6 2 4044.370 4337.920 104.469 0.486 o
5 -6 3 1876.160 1742.560 963.690 0.021 o
5 -6 4 1008.150 988.181 95.275 1.765 o
5 -6 5 2901.170 2959.690 309.402 0.179 o
5 -6 6 2564.840 2712.290 67.584 1.163 o
5 -6 7 298.130 314.887 15.915 34.064 o
5 -6 8 96.909 104.432 16.426 57.667 o
5 -6 9 1323.150 1293.200 48.975 3.341 o
5 -5 0 687.652 746.481 18.909 12.539 o
5 -5 1 1345.200 1486.520 68.486 2.305 o
5 -5 2 2842.570 3133.320 46.832 1.115 o
5 -5 3 1590.920 1621.060 107.824 1.193 o
5 -5 4 14.829 18.905 4.631 629.870 o
5 -5 5 1745.310 1746.750 49.843 2.361 o
5 -5 6 1366.320 1450.870 12.130 4.840 o
5 -5 7 1237.610 1285.490 47.093 3.622 o
5 -5 8 25.618 27.683 4.108 588.284 o
5 -5 9 1026.610 990.996 29.159 6.389 o
5 -5 10 1622.300 1559.140 58.702 2.335 o
5 -4 0 1644.400 1690.330 59.655 2.217 o
5 -4 1 126.941 129.667 3.756 169.363 o
5 -4 2 4567.880 4986.790 209.936 0.241 o
5 -4 3 5576.430 5651.060 132.525 0.279 o
5 -4 4 2270.520 2336.390 22.275 1.928 o
5 -4 5 462.721 452.731 7.499 29.598 o
5 -4 6 2740.750 2809.300 23.378 1.374 o
5 -4 7 5285.420 5569.940 198.618 0.223 o
5 -4 8 1644.980 1735.630 55.418 2.319 o
5 -4 9 63.101 68.274 4.902 284.875 o
5 -4 10 2202.780 2138.470 94.835 1.110 o
5 -4 11 1804.520 1591.300 41.949 2.609 o
5 -3 0 5091.610 5119.350 100.197 0.363 o
5 -3 1 809.156 821.201 13.370 11.495 o
5 -3 2 5886.160 6407.310 216.773 0.182 o
5 -3 3 8787.630 9044.690 456.902 0.059 o
5 -3 4 7657.890 7935.060 196.505 0.142 o
5 -3 5 997.753 1056.340 8.421 8.479 o
5 -3 6 1466.980 1553.200 51.172 2.799 o
5 -3 7 4704.890 5203.970 108.792 0.376 o
5 -3 8 6530.920 6828.140 141.612 0.210 o
5 -3 9 723.472 752.967 34.467 7.987 o
5 -3 10 270.042 258.137 10.654 51.346 o
5 -3 11 1368.600 1132.300 112.184 1.243 o
5 -2 0 9489.680 9400.620 225.160 0.099 o
5 -2 1 5820.880 5735.950 152.842 0.247 o
5 -2 2 356.389 345.522 7.576 42.334 o
5 -2 3 2328.000 2322.710 10.903 1.948 o
5 -2 4 6438.830 6796.490 146.640 0.211 o
5 -2 5 6167.100 6626.570 146.227 0.223 o
5 -2 6 242.994 264.291 7.930 63.343 o
5 -2 7 1388.940 1490.390 60.985 2.544 o
5 -2 8 4588.780 4742.810 217.335 0.235 o
5 -2 9 1501.890 1542.680 65.881 2.227 o
5 -2 10 2.309 4.475 2.389 2639.950 o
5 -2 11 547.033 529.727 11.842 21.234 o
5 -2 12 876.082 784.211 126.758 1.125 o
5 -1 0 4873.610 4995.580 102.814 0.380 o
5 -1 1 9715.410 9423.540 207.523 0.101 o
5 -1 2 4820.960 4595.670 80.270 0.438 o
5 -1 3 179.503 167.795 6.430 101.133 o
5 -1 4 3791.850 3903.750 80.128 0.617 o
5 -1 5 7356.890 7508.290 152.960 0.172 o
5 -1 6 1215.130 1289.710 62.774 2.783 o
5 -1 7 364.059 377.470 14.787 30.209 o
5 -1 8 1720.000 1785.750 75.489 1.714 o
5 -1 9 2438.400 2449.520 94.208 1.000 o
5 -1 10 218.062 225.026 5.208 83.582 o
5 -1 11 27.333 40.267 2.456 744.562 o
5 -1 12 999.518 986.329 29.859 6.459 o
5 0 0 3045.650 3275.240 56.529 0.960 o
5 0 1 4620.680 4353.790 75.446 0.481 o
5 0 2 4821.900 4618.540 72.757 0.448 o
5 0 3 28.574 45.288 7.258 265.185 o
5 0 4 3438.570 3492.300 117.769 0.567 o
5 0 5 6421.570 6436.180 31.445 0.279 o
5 0 6 4691.640 4781.970 96.256 0.415 o
5 0 7 284.462 316.087 11.396 44.477 o
5 0 8 1097.870 1091.630 26.421 6.055 o
5 0 9 4858.640 4842.940 197.746 0.249 o
5 0 10 3225.690 3139.220 135.213 0.544 o
5 0 11 407.358 396.551 13.004 29.514 o
5 0 12 388.801 365.741 13.469 30.885 o
5 1 0 360.709 396.013 7.131 39.929 o
5 1 1 4689.650 4715.090 90.272 0.429 o
5 1 2 7354.490 7238.190 207.969 0.149 o
5 1 3 4033.380 3883.060 108.889 0.501 o
5 1 4 8.235 13.708 3.247 1187.810 o
5 1 5 4469.000 4506.260 92.719 0.457 o
5 1 6 8485.000 8282.730 69.883 0.161 o
5 1 7 3864.210 3723.950 115.332 0.510 o
5 1 8 5.119 10.143 2.529 1885.060 o
5 1 9 2197.750 2286.380 71.681 1.378 o
5 1 10 4062.080 4044.710 164.089 0.357 o
5 1 11 1098.250 1091.620 50.293 3.891 o
5 1 12 107.975 106.636 23.493 31.381 o
5 2 0 1724.750 1826.110 38.784 2.643 o
5 2 1 848.593 929.910 29.350 7.596 o
5 2 2 4780.110 4600.970 83.262 0.437 o
5 2 3 15688.800 15704.000 527.037 0.029 o
5 2 4 3500.220 3448.960 67.990 0.760 o
5 2 5 27.480 37.931 2.356 772.359 o
5 2 6 4485.110 4447.460 150.111 0.347 o
5 2 7 6272.090 6165.610 109.435 0.255 o
5 2 8 2309.160 2278.960 118.030 0.837 o
5 2 9 7.136 7.200 2.123 2236.480 o
5 2 10 1262.950 1343.190 43.288 3.741 o
5 2 11 1543.390 1536.600 58.814 2.428 o
5 2 12 531.442 522.920 74.928 3.124 o
5 3 0 9311.990 9991.090 252.369 0.092 o
5 3 1 1036.800 1142.430 22.468 6.641 o
5 3 2 1432.400 1502.120 32.075 3.749 o
5 3 3 7955.300 8253.150 144.860 0.153 o
5 3 4 7528.830 7907.580 319.379 0.099 o
5 3 5 231.902 216.542 4.505 83.009 o
5 3 6 1345.790 1370.520 45.252 3.428 o
5 3 7 4159.960 4141.990 124.772 0.435 o
5 3 8 3166.930 3121.480 62.764 0.913 o
5 3 9 72.767 77.681 2.422 333.603 o
5 3 10 668.731 668.943 17.212 14.037 o
5 3 11 1600.930 1600.560 58.311 2.348 o
5 3 12 644.557 617.552 31.826 9.740 o
5 4 0 5525.510 5632.350 141.203 0.273 o
5 4 1 2950.880 3068.650 62.138 0.994 o
5 4 2 5.603 45.093 12.924 111.450 o
5 4 3 2414.670 2442.990 44.553 1.545 o
5 4 4 5048.880 5427.560 147.011 0.294 o
5 4 5 522.681 502.720 16.426 19.735 o
5 4 6 15.012 27.352 3.947 718.993 o
5 4 7 2045.200 2122.600 59.846 1.699 o
5 4 8 2139.200 2149.250 84.293 1.263 o
5 4 9 786.802 809.668 17.486 11.066 o
5 4 10 74.751 79.082 4.266 270.862 o
5 4 11 702.657 699.714 37.423 7.620 o
5 4 12 1303.510 1288.730 64.750 2.593 o
5 5 0 1353.510 1404.470 29.680 4.213 o
5 5 1 7564.220 7584.130 131.832 0.175 o
5 5 2 58.507 61.851 2.709 405.966 o
5 5 3 748.440 732.925 23.684 10.498 o
5 5 4 4095.750 4408.830 113.227 0.456 o
5 5 5 3769.220 4037.540 123.566 0.480 o
5 5 6 571.078 601.902 17.716 16.489 o
5 5 7 52.448 58.668 2.865 433.820 o
5 5 8 2727.500 2819.200 141.325 0.589 o
5 5 9 2961.210 2940.140 56.459 1.048 o
5 5 10 561.012 531.583 20.500 16.048 o
5 5 11 36.671 28.305 14.745 83.182 o
5 6 0 1763.280 1798.910 31.260 2.800 o
5 6 1 5301.850 5384.100 22.868 0.403 o
5 6 2 1819.540 1806.830 6.787 3.093 o
5 6 3 6.202 8.856 2.801 1632.820 o
5 6 4 991.473 1026.480 41.440 5.057 o
5 6 5 3902.400 4148.920 160.297 0.372 o
5 6 6 3040.380 3158.500 499.398 0.075 o
5 6 7 479.971 520.947 12.141 23.792 o
5 6 8 1019.840 1075.970 40.294 5.001 o
5 6 9 2296.240 2273.680 55.835 1.542 o
5 6 10 1360.290 1299.650 60.864 2.693 o
5 6 11 71.426 65.262 13.694 84.073 o
5 7 0 27.352 33.713 3.028 702.411 o
5 7 1 1509.990 1547.460 19.023 3.978 o
5 7 2 4351.530 4236.090 718.221 0.036 o
5 7 3 929.912 953.620 14.677 9.072 o
5 7 4 491.299 522.618 12.797 22.858 o
5 7 5 1585.330 1690.000 33.679 3.146 o
5 7 6 2788.360 2824.100 426.834 0.101 o
5 7 7 1036.520 1089.180 24.052 6.638 o
5 7 8 3.477 4.665 3.247 1544.910 o
5 7 9 792.830 778.427 16.870 11.326 o
5 7 10 616.413 558.576 190.157 0.538 o
5 8 0 601.558 615.209 9.805 18.920 o
5 8 1 121.468 113.905 5.857 154.564 o
5 8 2 1801.640 1614.880 157.811 0.647 o
5 8 3 1956.900 2018.540 78.933 1.454 o
5 8 4 487.254 503.853 12.083 23.885 o
5 8 5 63.631 74.616 3.968 312.895 o
5 8 6 1564.110 1421.210 94.410 1.474 o
5 8 7 925.181 904.477 13.179 9.558 o
5 8 8 169.589 169.470 4.430 118.389 o
5 8 9 87.825 75.328 4.011 255.823 o
5 9 0 664.556 620.816 13.052 16.038 o
5 9 1 36.781 48.907 8.228 209.753 o
5 9 2 419.262 361.514 97.166 2.006 o
5 9 3 1017.090 986.172 37.559 5.462 o
5 9 4 511.046 519.370 17.381 19.216 o
5 9 5 53.995 52.730 2.426 464.766 o
5 9 6 906.143 791.824 110.784 1.423 o
5 9 7 872.910 755.776 27.688 8.344 o
6 -8 0 2.966 7.389 2.685 2009.410 o
6 -8 1 979.031 973.068 57.356 3.681 o
6 -8 2 1965.890 1934.220 35.728 2.315 o
6 -8 3 849.819 754.614 10.586 11.841 o
6 -8 4 0.533 1.323 6.175 516.471 o
6 -8 5 891.964 878.840 140.707 0.923 o
6 -7 0 818.068 844.278 17.381 10.482 o
6 -7 1 17.946 30.311 3.533 749.344 o
6 -7 2 1584.650 1822.610 149.970 0.713 o
6 -7 3 3497.280 3709.720 290.214 0.187 o
6 -7 4 891.055 981.943 97.481 1.745 o
6 -7 5 7.770 3.308 5.073 673.913 o
6 -7 6 1280.750 1173.640 114.440 1.220 o
6 -7 7 1585.080 1453.190 34.405 3.358 o
6 -6 0 3296.520 3470.740 121.382 0.572 o
6 -6 1 245.332 257.294 7.258 65.702 o
6 -6 2 894.274 975.741 10.586 9.795 o
6 -6 3 3172.190 3371.630 236.181 0.267 o
6 -6 4 1942.640 2030.250 112.897 0.987 o
6 -6 5 111.208 88.465 4.678 195.800 o
6 -6 6 370.977 399.645 19.408 23.744 o
6 -6 7 1776.420 1637.720 242.797 0.308 o
6 -6 8 1077.940 992.060 495.298 0.081 o
6 -6 9 73.019 60.973 4.961 269.445 o
6 -5 0 2989.520 3225.340 82.632 0.837 o
6 -5 1 733.393 744.429 40.612 6.716 o
6 -5 2 17.324 12.461 7.278 317.257 o
6 -5 3 1258.780 1244.630 95.716 1.602 o
6 -5 4 2179.280 2270.470 102.112 1.016 o
6 -5 5 757.823 807.837 71.897 3.020 o
6 -5 6 63.717 53.262 4.367 325.133 o
6 -5 7 1995.950 1982.580 121.718 0.890 o
6 -5 8 2208.040 2282.580 70.354 1.392 o
6 -5 9 1239.780 1207.770 41.828 4.050 o
6 -5 10 4.924 5.105 3.268 1452.260 o
6 -4 0 3457.070 3560.600 99.300 0.631 o
6 -4 1 5000.610 5552.770 81.861 0.376 o
6 -4 2 446.440 493.843 26.906 14.801 o
6 -4 3 41.564 63.423 19.628 47.637 o
6 -4 4 4221.110 4340.140 250.075 0.211 o
6 -4 5 4969.930 4866.390 76.749 0.415 o
6 -4 6 1534.240 1576.260 41.220 3.071 o
6 -4 7 139.801 151.085 9.924 91.271 o
6 -4 8 3379.970 3536.340 95.496 0.661 o
6 -4 9 2211.850 2470.990 50.990 1.596 o
6 -4 10 855.135 889.696 30.750 7.445 o
6 -3 0 4447.980 4670.370 131.817 0.376 o
6 -3 1 5194.750 5391.290 95.811 0.350 o
6 -3 2 3504.220 3656.920 106.627 0.589 o
6 -3 3 511.195 541.516 18.746 18.062 o
6 -3 4 1703.740 1722.160 59.988 2.136 o
6 -3 5 7032.560 7339.420 239.710 0.139 o
6 -3 6 4909.600 4958.260 162.960 0.291 o
6 -3 7 727.733 760.488 16.541 12.475 o
6 -3 8 1247.520 1354.970 43.335 3.759 o
6 -3 9 1850.540 2030.510 43.471 2.236 o
6 -3 10 1931.970 1956.840 42.423 2.208 o
6 -3 11 129.606 122.325 3.674 171.245 o
6 -2 0 0.612 27.244 14.295 94.868 o
6 -2 1 2206.300 2183.170 76.265 1.336 o
6 -2 2 5436.370 5163.450 122.773 0.310 o
6 -2 3 3878.200 3697.730 159.852 0.389 o
6 -2 4 591.679 650.206 22.253 13.602 o
6 -2 5 5187.300 5497.730 49.600 0.393 o
6 -2 6 4038.230 4426.000 96.378 0.502 o
6 -2 7 1765.970 1969.320 42.977 2.383 o
6 -2 8 23.761 39.240 4.163 551.423 o
6 -2 9 1482.000 1579.690 28.516 3.678 o
6 -2 10 1247.810 1303.330 241.401 0.324 o
6 -2 11 1192.880 1170.080 64.041 2.817 o
6 -2 12 9.011 9.331 4.966 658.015 o
6 -1 0 2100.010 2121.990 46.070 1.891 o
6 -1 1 500.489 496.720 10.470 24.537 o
6 -1 2 3606.560 3527.860 91.933 0.638 o
6 -1 3 7739.440 7352.030 261.831 0.120 o
6 -1 4 1213.420 1221.580 45.868 3.820 o
6 -1 5 752.892 749.196 24.575 10.134 o
6 -1 6 3027.820 3362.680 73.909 0.859 o
6 -1 7 1719.970 1832.460 40.453 2.600 o
6 -1 8 735.875 751.202 20.239 11.451 o
6 -1 9 181.506 190.143 5.475 101.630 o
6 -1 10 1285.510 1351.630 29.032 4.547 o
6 -1 11 2301.080 2193.810 87.088 1.159 o
6 -1 12 311.678 283.119 19.412 28.227 o
6 0 0 2652.700 2691.570 62.304 1.178 o
6 0 1 10.555 25.646 7.785 283.170 o
6 0 2 2689.700 2612.010 91.461 0.932 o
6 0 3 5161.810 4997.680 181.118 0.256 o
6 0 4 3539.210 3489.290 111.154 0.579 o
6 0 5 62.773 66.346 4.711 295.581 o
6 0 6 2884.210 3005.250 43.165 1.146 o
6 0 7 3387.260 3499.140 55.007 0.832 o
6 0 8 5220.910 5491.060 124.852 0.311 o
6 0 9 221.794 236.416 6.950 74.384 o
6 0 10 1151.990 1129.230 27.306 5.624 o
6 0 11 2354.470 2215.450 92.557 1.076 o
6 0 12 1607.490 1408.480 245.985 0.306 o
6 1 0 4729.110 5084.770 66.641 0.441 o
6 1 1 1605.420 1633.530 46.731 2.711 o
6 1 2 136.224 136.887 10.696 87.896 o
6 1 3 4764.300 4529.120 140.561 0.344 o
6 1 4 7332.710 7457.210 179.461 0.161 o
6 1 5 2326.090 2412.530 32.070 1.753 o
6 1 6 88.503 97.914 2.610 263.234 o
6 1 7 3609.960 3779.740 40.862 0.781 o
6 1 8 4670.180 4742.710 71.745 0.459 o
6 1 9 2267.080 2351.510 14.519 1.979 o
6 1 10 50.034 49.830 2.801 473.834 o
6 1 11 885.084 834.031 128.274 1.096 o
6 1 12 1518.090 1368.230 52.206 2.816 o
6 2 0 5802.470 6417.440 238.402 0.168 o
6 2 1 7329.720 7593.990 186.840 0.156 o
6 2 2 2143.920 2189.860 58.161 1.636 o
6 2 3 488.865 492.744 16.362 20.972 o
6 2 4 5480.890 5660.520 81.652 0.336 o
6 2 5 7482.530 7587.820 127.121 0.179 o
6 2 6 2164.190 2260.840 35.769 1.923 o
6 2 7 55.669 63.122 4.024 351.025 o
6 2 8 2082.210 2023.500 54.740 1.798 o
6 2 9 3771.230 3719.980 177.678 0.353 o
6 2 10 433.305 433.765 8.473 31.337 o
6 2 11 62.119 66.351 5.348 271.250 o
6 2 12 823.247 823.865 37.308 6.689 o
6 3 0 2357.300 2499.040 91.984 1.038 o
6 3 1 5458.900 5690.000 97.805 0.320 o
6 3 2 4594.470 4891.640 154.115 0.321 o
6 3 3 281.859 295.117 9.274 50.993 o
6 3 4 2110.790 2306.020 39.874 1.895 o
6 3 5 4127.820 4279.840 80.391 0.538 o
6 3 6 3622.400 3736.470 89.055 0.629 o
6 3 7 27.865 28.219 2.246 858.529 o
6 3 8 1180.180 1166.930 31.515 5.075 o
6 3 9 2290.860 2361.360 63.146 1.424 o
6 3 10 1057.300 1049.030 29.407 6.057 o
6 3 11 3.920 3.389 3.134 1646.920 o
6 3 12 269.622 244.044 20.924 28.270 o
6 4 0 2.884 13.443 2.542 1917.020 o
6 4 1 2965.860 3107.800 64.175 0.970 o
6 4 2 1806.990 1888.800 37.945 2.504 o
6 4 3 1116.480 1190.460 36.156 4.872 o
6 4 4 210.127 211.875 7.231 79.389 o
6 4 5 1880.530 2016.120 29.943 2.483 o
6 4 6 2080.500 2098.540 92.239 1.189 o
6 4 7 497.256 530.458 19.291 18.204 o
6 4 8 226.654 225.059 7.888 70.896 o
6 4 9 1392.780 1420.200 50.608 3.034 o
6 4 10 1774.800 1712.340 27.889 2.937 o
6 4 11 480.276 442.281 89.635 2.301 o
6 4 12 5.598 3.503 2.521 2131.030 o
6 5 0 37.061 46.407 5.475 350.637 o
6 5 1 1483.470 1499.570 10.187 4.362 o
6 5 2 2316.080 2297.460 57.420 1.501 o
6 5 3 3130.270 3197.410 65.251 0.900 o
6 5 4 349.155 356.390 15.083 31.205 o
6 5 5 711.882 765.770 18.145 12.249 o
6 5 6 3065.170 3277.350 98.733 0.726 o
6 5 7 3991.850 4091.270 72.509 0.591 o
6 5 8 349.197 323.773 11.651 37.721 o
6 5 9 178.199 175.857 4.202 113.545 o
6 5 10 1877.200 1839.480 57.936 1.978 o
6 5 11 1391.510 1260.990 214.295 0.402 o
6 6 0 796.866 808.994 19.482 10.516 o
6 6 1 10.161 8.608 2.848 1415.190 o
6 6 2 1667.760 1687.900 40.483 2.783 o
6 6 3 2368.240 2406.430 40.326 1.636 o
6 6 4 4574.850 4974.400 114.802 0.386 o
6 6 5 1.528 3.754 2.492 2627.700 o
6 6 6 1169.210 1222.910 17.990 6.025 o
6 6 7 3327.980 3332.070 137.696 0.514 o
6 6 8 1848.680 1842.360 14.834 2.922 o
6 6 9 56.400 61.323 3.059 399.743 o
6 6 10 191.061 182.694 7.131 89.923 o
6 7 0 2389.730 2340.230 42.597 1.619 o
6 7 1 991.868 957.197 12.988 8.639 o
6 7 2 110.520 105.835 3.214 209.163 o
6 7 3 1259.570 1296.030 31.260 4.585 o
6 7 4 3462.020 3717.350 136.421 0.486 o
6 7 5 852.760 897.250 19.418 9.436 o
6 7 6 27.035 35.267 2.674 750.027 o
6 7 7 561.517 587.499 10.063 20.571 o
6 7 8 1020.250 961.749 166.155 0.669 o
6 7 9 257.890 253.031 4.457 71.076 o
6 8 0 1095.170 1005.250 32.845 5.619 o
6 8 1 1446.150 1354.540 222.556 0.372 o
6 8 2 262.127 232.389 15.783 39.567 o
6 8 3 244.243 228.653 4.087 78.740 o
6 8 4 1150.520 1123.390 28.319 5.556 o
6 8 5 1316.700 1343.790 50.276 3.238 o
6 8 6 23.354 21.568 3.488 745.028 o
6 8 7 14.918 17.781 3.502 895.635 o
6 8 8 913.649 845.658 57.102 3.928 o
7 -7 0 1269.290 1207.340 174.868 0.589 o
7 -7 1 2316.590 2324.320 16.761 1.928 o
7 -7 2 574.705 575.748 54.254 5.216 o
7 -7 3 16.428 19.258 3.998 739.235 o
7 -7 4 1432.270 1339.920 66.604 2.361 o
7 -7 5 1616.220 1377.310 117.330 1.078 o
7 -7 6 358.545 349.083 31.538 14.116 o
7 -6 0 617.380 619.665 6.035 19.450 o
7 -6 1 2082.530 2292.850 114.613 0.911 o
7 -6 2 1291.420 1368.590 30.656 4.403 o
7 -6 3 49.195 55.828 4.852 338.658 o
7 -6 4 571.903 530.812 22.054 15.045 o
7 -6 5 1633.740 1612.640 106.942 1.196 o
7 -6 6 952.370 879.937 118.653 1.244 o
7 -6 7 58.582 40.681 34.405 16.348 o
7 -6 8 488.566 460.076 69.030 3.677 o
7 -5 0 12.643 22.350 4.266 707.082 o
7 -5 1 826.765 774.464 222.258 0.392 o
7 -5 2 1408.170 1555.990 76.507 1.964 o
7 -5 3 579.189 629.079 66.803 3.697 o
7 -5 4 22.273 44.253 25.363 30.101 o
7 -5 5 1938.770 1937.860 155.021 0.638 o
7 -5 6 2289.800 2302.660 120.858 0.815 o
7 -5 7 911.207 954.994 13.233 9.430 o
7 -5 8 16.778 15.794 4.827 592.080 o
7 -5 9 1228.690 1142.950 101.649 1.491 o
7 -4 0 51.545 50.065 11.905 112.795 o
7 -4 1 94.678 103.123 3.187 236.222 o
7 -4 2 4136.080 3948.150 1927.600 0.005 o
7 -4 3 4285.060 4500.940 329.449 0.141 o
7 -4 4 702.103 607.831 272.130 0.265 o
7 -4 5 506.137 533.645 21.834 16.403 o
7 -4 6 3565.350 3657.020 187.220 0.344 o
7 -4 7 3129.430 3351.630 178.839 0.395 o
7 -4 8 620.795 648.099 41.220 7.336 o
7 -4 9 147.844 166.103 12.351 70.278 o
7 -4 10 1820.970 1563.620 950.877 0.022 o
7 -3 0 1313.840 1373.720 60.437 2.723 o
7 -3 1 318.007 303.801 50.799 6.812 o
7 -3 2 2136.620 2224.720 117.259 0.882 o
7 -3 3 6048.830 6134.600 252.942 0.157 o
7 -3 4 4327.640 4301.070 218.096 0.249 o
7 -3 5 157.983 134.839 13.674 63.472 o
7 -3 6 910.513 903.866 23.378 8.228 o
7 -3 7 3070.590 3290.780 25.340 1.081 o
7 -3 8 2214.690 2362.050 18.967 1.999 o
7 -3 9 145.554 143.080 4.555 140.437 o
7 -3 10 363.852 351.972 9.924 38.012 o
7 -3 11 1109.780 1006.440 44.592 4.432 o
7 -2 0 3728.390 3915.310 55.055 0.701 o
7 -2 1 1983.250 2033.830 68.109 1.623 o
7 -2 2 378.214 374.225 12.544 32.483 o
7 -2 3 4949.910 4789.600 97.759 0.390 o
7 -2 4 2598.780 2544.930 96.378 0.925 o
7 -2 5 958.339 985.628 23.157 7.589 o
7 -2 6 43.902 47.950 3.913 433.775 o
7 -2 7 1588.080 1655.710 9.669 3.804 o
7 -2 8 1867.550 2039.010 45.810 2.162 o
7 -2 9 654.873 734.544 30.680 9.493 o
7 -2 10 18.246 8.950 3.984 784.992 o
7 -2 11 980.909 972.062 33.787 6.094 o
7 -1 0 3661.370 3587.190 54.285 0.754 o
7 -1 1 3018.180 3012.290 513.222 0.071 o
7 -1 2 627.633 639.209 17.853 14.854 o
7 -1 3 1526.010 1536.690 73.012 1.990 o
7 -1 4 2521.290 2449.740 169.204 0.496 o
7 -1 5 1430.500 1469.600 49.901 2.969 o
7 -1 6 287.421 310.905 7.454 53.257 o
7 -1 7 152.872 161.075 5.539 121.770 o
7 -1 8 3443.760 3877.530 113.573 0.557 o
7 -1 9 2083.500 2336.830 49.850 1.755 o
7 -1 10 282.935 285.736 46.470 8.105 o
7 -1 11 404.444 399.950 12.459 30.203 o
7 0 0 2588.770 2653.800 66.276 1.177 o
7 0 1 3483.420 3480.680 93.442 0.657 o
7 0 2 1598.330 1564.360 62.118 2.248 o
7 0 3 1.726 5.391 2.971 1877.060 o
7 0 4 4036.140 4000.020 172.006 0.343 o
7 0 5 3271.370 3364.500 116.050 0.604 o
7 0 6 6099.310 6452.610 167.450 0.212 o
7 0 7 94.019 101.580 3.097 240.319 o
7 0 8 2408.780 2492.140 56.221 1.405 o
7 0 9 4277.820 4391.550 54.583 0.561 o
7 0 10 1617.460 1530.610 50.608 2.630 o
7 0 11 57.209 65.457 5.053 295.087 o
7 0 12 478.136 407.657 24.957 16.207 o
7 1 0 153.550 168.649 26.886 23.210 o
7 1 1 4041.090 4114.460 80.149 0.562 o
7 1 2 4223.670 4230.200 86.300 0.515 o
7 1 3 2195.170 2097.790 92.360 1.148 o
7 1 4 202.518 199.150 10.958 64.925 o
7 1 5 3253.380 3423.690 95.231 0.695 o
7 1 6 5060.710 5550.540 62.189 0.391 o
7 1 7 2248.280 2381.610 25.346 1.901 o
7 1 8 93.667 99.653 7.576 153.420 o
7 1 9 1907.600 1993.620 44.935 2.162 o
7 1 10 1108.020 1057.650 14.452 7.159 o
7 1 11 1153.230 1061.500 191.835 0.505 o
7 1 12 3.942 4.705 3.565 1305.440 o
7 2 0 1019.360 1070.300 46.336 4.429 o
7 2 1 703.260 721.115 23.352 11.179 o
7 2 2 3705.630 3787.360 83.205 0.631 o
7 2 3 5379.650 5303.130 174.237 0.250 o
7 2 4 1523.240 1499.570 71.038 2.065 o
7 2 5 271.150 282.034 8.086 56.478 o
7 2 6 2135.320 2297.530 46.030 1.787 o
7 2 7 4142.160 4401.530 59.336 0.572 o
7 2 8 137.327 135.438 2.873 164.794 o
7 2 9 186.205 177.629 6.048 98.928 o
7 2 10 1219.780 1244.140 14.782 5.886 o
7 2 11 971.687 948.316 15.216 8.633 o
7 2 12 195.438 188.178 13.825 54.218 o
7 3 0 2042.570 2192.790 69.014 1.525 o
7 3 1 18.296 30.614 2.825 892.850 o
7 3 2 1922.140 1834.950 47.882 2.166 o
7 3 3 3272.060 3375.520 154.758 0.458 o
7 3 4 2205.110 2212.310 109.292 0.944 o
7 3 5 79.617 84.060 2.825 294.933 o
7 3 6 1958.310 2014.620 69.892 1.612 o
7 3 7 2763.760 2899.630 98.600 0.827 o
7 3 8 969.547 995.247 25.912 7.115 o
7 3 9 85.986 100.695 4.102 234.358 o
7 3 10 655.019 618.526 30.951 9.912 o
7 3 11 1202.010 1144.190 47.545 3.815 o
7 4 0 1488.480 1565.820 32.489 3.522 o
7 4 1 518.544 544.991 9.677 23.182 o
7 4 2 350.746 357.838 14.597 31.789 o
7 4 3 2028.710 2068.020 78.493 1.414 o
7 4 4 2002.430 2026.880 99.162 1.136 o
7 4 5 294.329 330.488 46.406 8.010 o
7 4 6 348.666 366.993 8.977 40.064 o
7 4 7 1903.900 1994.540 78.447 1.494 o
7 4 8 2336.850 2248.600 44.566 1.669 o
7 4 9 562.976 570.980 18.336 16.712 o
7 4 10 18.555 19.769 3.670 781.702 o
7 4 11 1239.370 1074.520 44.202 4.047 o
7 5 0 1856.830 1863.440 62.068 1.892 o
7 5 1 2089.780 2099.780 53.543 1.783 o
7 5 2 96.119 98.138 3.438 233.397 o
7 5 3 702.424 690.103 17.374 13.214 o
7 5 4 3219.580 3350.190 105.032 0.662 o
7 5 5 3038.230 3089.050 8.324 1.177 o
7 5 6 448.484 465.154 7.767 29.909 o
7 5 7 339.092 368.881 12.415 35.529 o
7 5 8 2249.420 2267.400 56.726 1.562 o
7 5 9 1769.190 1743.360 67.486 1.880 o
7 5 10 197.617 196.345 5.857 92.254 o
7 6 0 1008.120 892.976 13.775 8.709 o
7 6 1 1822.110 1725.350 64.302 1.922 o
7 6 2 2035.540 2063.130 49.080 1.922 o
7 6 3 2.333 9.327 2.992 1688.700 o
7 6 4 1330.660 1353.280 23.772 4.685 o
7 6 5 2603.830 2620.720 306.955 0.187 o
7 6 6 1503.750 1601.160 19.471 3.905 o
7 6 7 14.890 14.617 4.729 629.811 o
7 6 8 542.900 532.973 13.879 20.192 o
7 6 9 1130.490 1076.220 204.935 0.447 o
7 6 10 691.995 628.935 30.999 9.536 o
7 7 0 20.095 8.874 3.098 1001.310 o
7 7 1 1068.870 982.166 153.089 0.773 o
7 7 2 2223.960 2089.200 70.726 1.428 o
7 7 3 388.670 374.887 61.114 4.743 o
7 7 4 52.113 53.948 2.672 458.414 o
7 7 5 923.284 942.469 6.416 9.998 o
7 7 6 764.062 751.364 7.449 13.807 o
7 7 7 392.165 373.977 45.203 7.924 o
7 7 8 102.818 90.089 23.811 31.055 o
7 8 3 805.568 730.123 11.399 12.603 o
7 8 4 3.225 7.773 2.947 1721.320 o
7 8 5 115.175 116.034 5.531 163.618 o
8 -6 1 2.208 2.647 4.055 1115.860 o
8 -6 2 681.136 679.933 120.616 1.270 o
8 -6 3 1249.510 1221.600 101.671 1.470 o
8 -6 4 788.569 749.495 437.516 0.103 o
8 -6 5 5.775 2.867 5.955 519.343 o
8 -6 6 470.871 403.050 45.212 7.558 o
8 -5 0 935.053 896.463 38.952 5.791 o
8 -5 1 360.907 275.477 92.764 2.220 o
8 -5 2 129.332 117.204 14.556 63.733 o
8 -5 3 1337.080 1453.810 853.440 0.027 o
8 -5 4 2153.180 2086.540 151.492 0.632 o
8 -5 5 561.099 539.688 40.580 8.056 o
8 -5 6 47.050 46.514 4.514 381.563 o
8 -5 7 1419.740 1305.550 43.227 3.452 o
8 -5 8 2082.460 1923.960 182.368 0.485 o
8 -4 0 1986.380 1974.730 396.338 0.121 o
8 -4 1 2696.970 2768.410 81.352 0.988 o
8 -4 2 215.791 231.617 9.042 67.801 o
8 -4 3 427.348 424.303 24.922 17.024 o
8 -4 4 2661.940 2710.650 175.972 0.452 o
8 -4 5 2631.050 2716.180 133.870 0.645 o
8 -4 6 309.293 294.968 15.438 34.879 o
8 -4 7 209.875 204.498 5.302 89.162 o
8 -4 8 2288.720 2248.990 38.816 1.778 o
8 -4 9 1392.380 1298.310 99.466 1.456 o
8 -3 0 1183.190 1207.450 27.122 5.332 o
8 -3 1 3116.430 3171.730 119.183 0.625 o
8 -3 2 2187.870 2136.460 99.630 1.059 o
8 -3 3 0.322 1.470 3.589 1498.410 o
8 -3 4 818.519 796.141 7.278 12.446 o
8 -3 5 3444.880 3123.230 234.417 0.266 o
8 -3 6 1557.310 1526.590 53.791 2.596 o
8 -3 7 31.751 31.583 5.514 389.615 o
8 -3 8 759.703 795.993 23.378 10.112 o
8 -3 9 1422.330 1055.230 699.699 0.040 o
8 -3 10 498.444 465.225 22.054 17.140 o
8 -2 0 64.338 65.663 2.914 366.402 o
8 -2 1 1774.940 1809.380 43.800 2.451 o
8 -2 2 2779.550 2685.870 184.541 0.417 o
8 -2 3 273.724 265.525 10.887 49.778 o
8 -2 4 77.835 76.571 5.514 229.573 o
8 -2 5 2159.340 1905.920 154.359 0.623 o
8 -2 6 1991.960 1924.380 9.966 2.647 o
8 -2 7 423.141 452.247 214.568 0.428 o
8 -2 8 98.272 112.071 7.719 143.641 o
8 -2 9 1424.160 1427.340 116.888 1.121 o
8 -2 10 1102.340 1123.680 16.483 6.820 o
8 -1 0 13.987 13.071 6.621 380.482 o
8 -1 1 613.659 615.787 104.208 1.685 o
8 -1 2 2172.820 2075.680 97.268 1.100 o
8 -1 3 1509.270 1487.190 71.363 2.071 o
8 -1 4 99.136 103.855 7.513 149.188 o
8 -1 5 127.112 156.661 6.303 130.548 o
8 -1 6 4032.240 3963.260 273.343 0.194 o
8 -1 7 1549.050 1663.730 35.307 3.185 o
8 -1 8 271.664 296.649 5.649 60.903 o
8 -1 9 592.385 565.953 80.501 2.702 o
8 -1 10 2008.650 2116.740 24.384 2.330 o
8 -1 11 1280.680 1276.290 17.470 5.371 o
8 0 0 665.471 695.772 16.814 13.986 o
8 0 1 81.434 87.657 17.062 56.521 o
8 0 2 1486.310 1459.250 78.812 1.878 o
8 0 3 4315.550 4027.070 152.021 0.367 o
8 0 4 2269.170 2206.550 90.127 1.132 o
8 0 5 48.707 48.918 6.188 278.447 o
8 0 6 3266.230 3469.560 101.470 0.660 o
8 0 7 3796.680 3897.520 94.018 0.574 o
8 0 8 1342.630 1400.310 26.481 4.422 o
8 0 9 6.227 9.650 3.105 1406.170 o
8 0 10 758.599 708.160 106.818 1.565 o
8 0 11 1483.150 1452.050 274.403 0.250 o
8 1 0 2341.240 2480.720 432.588 0.101 o
8 1 1 521.774 567.185 21.583 15.896 o
8 1 2 73.749 79.424 3.573 294.444 o
8 1 3 3476.650 2998.640 221.656 0.290 o
8 1 4 3504.540 3349.450 172.197 0.392 o
8 1 5 812.569 855.954 26.103 8.737 o
8 1 6 136.656 146.876 3.500 155.140 o
8 1 7 2980.810 3173.300 89.642 0.804 o
8 1 8 964.213 1041.130 24.122 7.232 o
8 1 9 1498.090 1543.630 32.202 3.537 o
8 1 10 36.144 40.778 4.132 473.100 o
8 1 11 809.261 683.494 18.775 11.303 o
8 2 0 2454.500 2623.970 102.616 0.898 o
8 2 1 2959.360 3018.690 83.899 0.862 o
8 2 2 568.784 549.292 46.933 6.535 o
8 2 3 354.611 361.652 15.025 30.835 o
8 2 4 3539.450 3482.450 157.443 0.426 o
8 2 5 2111.030 2213.950 47.431 1.820 o
8 2 6 399.992 413.141 6.909 35.898 o
8 2 7 574.396 595.012 19.927 15.429 o
8 2 8 1444.720 1389.300 202.183 0.443 o
8 2 9 1366.490 1403.740 38.836 3.691 o
8 2 10 181.049 169.919 9.012 83.410 o
8 2 11 561.626 531.656 10.187 21.508 o
8 3 0 1338.380 1318.040 262.142 0.276 o
8 3 1 2128.940 2163.510 101.413 1.052 o
8 3 2 967.229 949.693 32.469 6.385 o
8 3 3 37.728 41.519 2.758 592.826 o
8 3 4 2345.880 2325.910 127.998 0.750 o
8 3 5 1813.570 1787.330 112.231 1.054 o
8 3 6 710.364 760.084 24.066 10.668 o
8 3 7 34.620 38.681 2.600 651.674 o
8 3 8 1210.710 1246.490 17.826 5.758 o
8 3 9 1049.710 1101.840 29.052 6.003 o
8 3 10 1200.210 1210.210 37.244 4.485 o
8 3 11 198.470 182.122 39.594 11.433 o
8 4 0 379.334 382.316 7.576 38.331 o
8 4 1 1061.320 1003.060 26.994 6.420 o
8 4 2 1166.070 1159.950 44.241 4.119 o
8 4 3 117.788 146.054 11.539 84.455 o
8 4 4 342.416 330.946 9.996 40.762 o
8 4 5 1861.440 1953.290 35.258 2.447 o
8 4 6 1340.290 1420.080 25.721 4.436 o
8 4 7 677.714 710.592 20.455 12.477 o
8 4 8 330.161 307.183 54.046 6.074 o
8 4 9 1579.680 1611.900 6.984 3.924 o
8 4 10 1665.130 1454.450 465.314 0.090 o
8 5 0 2.092 3.746 2.925 1962.120 o
8 5 1 673.632 653.885 14.503 14.994 o
8 5 2 2071.700 2014.360 55.822 1.790 o
8 5 3 1967.670 1958.280 63.717 1.740 o
8 5 4 188.128 193.953 11.396 65.822 o
8 5 5 774.691 802.003 17.500 11.272 o
8 5 6 2151.850 2187.050 22.066 2.137 o
8 5 7 1955.920 1929.570 84.472 1.383 o
8 5 8 96.670 97.136 12.769 84.256 o
8 5 9 399.415 348.011 41.886 8.980 o
8 6 1 1.676 5.390 2.578 2368.620 o
8 6 2 1047.250 989.747 50.550 4.088 o
8 6 3 2244.990 2222.180 317.611 0.181 o
8 6 4 1028.090 1005.510 22.749 7.094 o
8 6 5 3.271 2.637 2.873 1970.740 o
8 6 6 762.319 761.000 5.111 14.031 o
8 6 7 1228.550 1253.730 40.237 4.129 o
8 6 8 862.192 718.718 152.460 0.804 o
8 7 4 708.822 659.048 59.795 4.185 o
8 7 5 170.430 179.331 3.545 120.250 o
9 -5 4 121.020 113.864 11.248 90.273 o
9 -4 1 493.748 485.624 45.457 7.248 o
9 -4 2 1940.350 1693.930 971.409 0.021 o
9 -4 3 1703.870 1432.030 886.720 0.025 o
9 -4 4 97.372 85.612 14.335 72.238 o
9 -4 5 365.331 342.037 27.789 16.699 o
9 -4 6 2126.760 1985.000 203.761 0.401 o
9 -4 7 1447.870 1163.090 403.993 0.119 o
9 -3 0 861.268 671.524 194.861 0.505 o
9 -3 1 10.227 7.898 2.775 1470.420 o
9 -3 2 1174.820 869.668 208.174 0.435 o
9 -3 3 2352.950 2149.310 167.371 0.528 o
9 -3 5 7.498 2.647 4.055 994.557 o
9 -3 6 794.340 704.150 16.761 11.847 o
9 -3 7 1303.900 1262.870 55.136 3.068 o
9 -3 8 493.326 481.769 6.215 27.686 o
9 -2 0 1090.040 1025.410 27.958 6.107 o
9 -2 1 370.774 380.920 6.661 40.206 o
9 -2 2 390.845 399.349 12.220 31.312 o
9 -2 3 1266.330 1152.150 364.841 0.146 o
9 -2 4 1082.490 984.387 29.773 6.052 o
9 -2 5 164.285 154.744 9.483 87.028 o
9 -2 6 185.291 168.663 11.468 68.240 o
9 -2 7 1330.530 1125.250 20.952 5.295 o
9 -2 8 1181.610 1169.240 19.187 6.021 o
9 -2 9 219.910 239.947 5.398 80.143 o
9 -1 0 1188.460 1098.440 31.247 5.197 o
9 -1 1 767.674 760.485 34.588 7.665 o
9 -1 2 29.398 31.334 2.731 736.280 o
9 -1 3 665.184 654.028 131.323 1.087 o
9 -1 4 1731.350 1556.580 75.756 1.772 o
9 -1 5 1536.920 1387.710 50.876 2.830 o
9 -1 6 60.174 50.427 8.977 165.877 o
9 -1 7 884.484 832.444 41.644 5.749 o
9 -1 8 2501.010 2443.100 44.999 1.484 o
9 -1 9 1398.960 1351.830 36.028 3.824 o
9 0 0 1111.880 991.999 78.232 2.314 o
9 0 1 2381.080 1832.130 432.373 0.102 o
9 0 2 1269.490 1204.130 68.434 2.511 o
9 0 3 127.859 121.043 4.839 159.847 o
9 0 4 1998.340 1761.880 134.751 0.790 o
9 0 5 3581.020 3460.860 99.626 0.618 o
9 0 6 1326.630 1300.410 49.914 3.278 o
9 0 7 20.256 23.148 2.755 942.903 o
9 0 8 967.014 957.356 64.684 3.185 o
9 0 9 1971.040 2007.350 50.862 1.971 o
9 0 10 672.988 639.130 100.070 1.794 o
9 1 0 121.309 136.894 4.266 165.539 o
9 1 1 1984.640 1980.790 341.528 0.161 o
9 1 2 1996.150 1946.690 73.400 1.547 o
9 1 3 413.203 405.781 23.436 18.652 o
9 1 4 261.968 231.548 14.191 43.757 o
9 1 5 1361.380 1355.380 49.341 3.201 o
9 1 6 1960.030 2111.470 64.430 1.680 o
9 1 7 533.430 583.979 14.446 19.382 o
9 1 8 30.695 35.145 3.374 613.336 o
9 1 9 1051.890 1052.300 15.324 7.518 o
9 1 10 949.877 892.532 17.740 8.777 o
9 2 0 165.307 173.532 4.266 120.647 o
9 2 1 395.843 388.803 22.092 20.448 o
9 2 2 2052.710 1907.750 75.310 1.494 o
9 2 3 1307.260 1222.230 155.174 0.726 o
9 2 4 73.427 79.809 4.138 276.934 o
9 2 5 341.368 350.448 14.006 33.495 o
9 2 6 1834.010 1853.910 23.747 2.797 o
9 2 7 900.625 913.190 22.347 8.435 o
9 2 8 2.228 5.214 2.750 2092.770 o
9 2 9 600.994 571.618 32.087 10.229 o
9 3 0 224.109 204.162 9.480 67.031 o
9 3 1 86.352 77.186 3.101 280.229 o
9 3 2 1702.130 1601.120 62.683 2.117 o
9 3 3 1156.770 1146.870 41.262 4.391 o
9 3 4 317.190 307.126 11.078 42.334 o
9 3 5 165.445 184.486 5.666 108.668 o
9 3 6 1176.090 1226.240 6.397 6.533 o
9 3 7 1849.710 1910.960 79.442 1.526 o
9 3 8 334.185 297.212 43.668 8.792 o
9 3 9 66.492 72.180 13.961 81.806 o
9 4 1 56.456 54.266 10.505 133.800 o
9 4 2 334.844 293.859 9.972 43.377 o
9 4 3 1357.230 1248.100 48.498 3.347 o
9 4 4 1115.210 1043.560 305.245 0.208 o
9 4 5 336.085 308.044 3.821 51.924 o
9 4 6 310.772 277.556 15.165 35.880 o
9 4 7 2144.500 2003.630 393.537 0.122 o
9 4 8 1383.110 1308.170 247.831 0.306 o
9 5 3 787.334 686.147 126.583 1.147 o
9 5 4 1486.540 1316.690 49.277 3.029 o
9 5 5 1432.870 1466.840 13.841 4.510 o
9 5 6 33.877 45.446 9.236 180.630 o
9 5 7 395.341 350.628 15.598 28.233 o
10 -2 4 160.206 115.321 56.680 5.981 o
10 -2 5 1334.770 950.932 99.907 1.528 o
10 -1 3 764.646 549.213 142.605 0.926 o
10 -1 4 128.231 128.346 16.871 51.307 o
10 -1 5 1135.750 1020.000 37.365 4.989 o
10 -1 6 1825.460 1534.390 15.195 3.277 o
10 -1 7 995.019 885.174 13.894 8.858 o
10 0 3 2039.130 1821.730 89.062 1.299 o
10 0 4 656.026 619.631 44.935 6.484 o
10 0 5 64.666 59.439 11.205 117.324 o
10 0 6 1305.110 1132.600 27.685 4.953 o
10 0 7 1090.420 983.975 26.803 6.335 o
10 1 3 1126.010 959.197 42.522 4.638 o
10 1 4 1155.860 919.252 57.259 3.440 o
10 1 5 244.290 223.632 12.147 52.224 o
10 1 6 285.440 272.664 46.088 8.237 o
10 1 7 777.881 687.043 37.174 7.295 o
10 2 4 1312.000 1163.430 78.605 2.098 o
10 2 5 578.630 566.395 5.165 22.023 o
10 2 6 2.682 13.196 9.539 210.384 o
10 2 7 740.660 626.869 75.140 2.905 o
;
_olex2_exptl_crystal_mounting_method 'glas needle'
_olex2_submission_original_sample_id WF-063
_olex2_submission_special_instructions 'No special instructions were received'
loop_
_space_group_symop_id
_space_group_symop_operation_xyz
1 x,y,z
2 -x,-y,-z
loop_
_atom_site_label
_atom_site_type_symbol
_atom_site_fract_x
_atom_site_fract_y
_atom_site_fract_z
_atom_site_U_iso_or_equiv
_atom_site_adp_type
_atom_site_occupancy
_atom_site_refinement_flags_posn
Au1 Au 0.733923(16) 0.580761(13) 0.875980(12) 0.02963(8) Uani 1.000000 .
Cl1 Cl 0.82415(16) 0.80052(12) 0.91587(12) 0.0416(2) Uani 1.000000 .
N1 N 0.5619(4) 0.3603(4) 0.7765(3) 0.0301(7) Uani 1.000000 .
N2 N 0.7145(4) 0.2516(4) 0.8754(3) 0.0319(7) Uani 1.000000 .
C13 C 0.6674(5) 0.3865(5) 0.8398(4) 0.0320(9) Uani 1.000000 .
C2 C 0.3006(5) 0.4531(5) 0.7535(4) 0.0346(8) Uani 1.000000 .
H2 H 0.2417(5) 0.3720(5) 0.8123(4) 0.0415(10) Uiso 1.000000 R
C15 C 0.6372(5) 0.1407(4) 0.8382(4) 0.0358(9) Uani 1.000000 .
H15 H 0.6488(5) 0.0385(4) 0.8539(4) 0.0430(10) Uiso 1.000000 R
C12 C 0.6283(5) 0.7858(4) 0.5065(4) 0.0317(8) Uani 1.000000 .
C11 C 0.7055(6) 0.9090(5) 0.4197(4) 0.0373(9) Uani 1.000000 .
H11 H 0.6460(6) 0.9788(5) 0.3858(4) 0.0448(11) Uiso 1.000000 R
C6 C 0.5560(5) 0.5924(4) 0.6374(4) 0.0292(7) Uani 1.000000 .
C1 C 0.4767(5) 0.4704(4) 0.7216(4) 0.0299(8) Uani 1.000000 .
C5 C 0.4654(5) 0.6970(4) 0.5827(4) 0.0303(8) Uani 1.000000 .
C14 C 0.5430(5) 0.2086(4) 0.7755(4) 0.0334(8) Uani 1.000000 .
H14 H 0.4773(5) 0.1629(4) 0.7382(4) 0.0401(10) Uiso 1.000000 R
C4 C 0.2964(5) 0.6820(5) 0.6104(4) 0.0340(8) Uani 1.000000 .
H4 H 0.2382(5) 0.7503(5) 0.5739(4) 0.0407(10) Uiso 1.000000 R
C8 C 0.8880(5) 0.6926(5) 0.5267(4) 0.0351(9) Uani 1.000000 .
H8 H 0.9468(5) 0.6224(5) 0.5608(4) 0.0421(10) Uiso 1.000000 R
C7 C 0.7178(5) 0.6814(4) 0.5600(4) 0.0309(8) Uani 1.000000 .
C3 C 0.2154(5) 0.5540(5) 0.6994(4) 0.0376(9) Uani 1.000000 .
H3 H 0.1001(5) 0.5382(5) 0.7217(4) 0.0451(11) Uiso 1.000000 R
C16 C 0.8254(5) 0.2227(5) 0.9509(4) 0.0368(9) Uani 1.000000 .
H16a H 0.9146(5) 0.1559(5) 0.9048(4) 0.0442(11) Uiso 1.000000 R
H16b H 0.8785(5) 0.3154(5) 0.9537(4) 0.0442(11) Uiso 1.000000 R
C9 C 0.9702(6) 0.8190(5) 0.4364(4) 0.0410(10) Uani 1.000000 .
H9 H 1.0866(6) 0.8327(5) 0.4107(4) 0.0492(11) Uiso 1.000000 R
C10 C 0.8818(6) 0.9213(5) 0.3860(4) 0.0408(10) Uani 1.000000 .
H10 H 0.9409(6) 1.0023(5) 0.3272(4) 0.0489(12) Uiso 1.000000 R
C17 C 0.7272(7) 0.1543(6) 1.0930(5) 0.0498(11) Uani 1.000000 .
H17a H 0.678(4) 0.061(2) 1.0905(5) 0.0747(17) Uiso 1.000000 GR
H17b H 0.8022(12) 0.138(4) 1.1404(14) 0.0747(17) Uiso 1.000000 GR
H17c H 0.639(3) 0.220(2) 1.1388(14) 0.0747(17) Uiso 1.000000 GR
loop_
_atom_site_aniso_label
_atom_site_aniso_U_11
_atom_site_aniso_U_22
_atom_site_aniso_U_33
_atom_site_aniso_U_12
_atom_site_aniso_U_13
_atom_site_aniso_U_23
Au1 0.02860(12) 0.02882(11) 0.03132(11) 0.00032(7) -0.01233(8) 0.00088(7)
Cl1 0.0473(6) 0.0301(5) 0.0493(6) -0.0019(4) -0.0210(5) -0.0026(4)
N1 0.0275(16) 0.0312(16) 0.0322(16) -0.0022(13) -0.0134(13) 0.0028(13)
N2 0.0287(17) 0.0321(17) 0.0348(17) -0.0011(13) -0.0136(14) 0.0030(13)
C13 0.029(2) 0.036(2) 0.0292(19) -0.0023(16) -0.0109(16) 0.0063(16)
C2 0.031(2) 0.034(2) 0.035(2) -0.0047(16) -0.0088(16) -0.0001(17)
C15 0.035(2) 0.0296(19) 0.041(2) -0.0030(16) -0.0147(17) 0.0051(16)
C12 0.033(2) 0.0322(19) 0.0301(19) 0.0003(16) -0.0137(16) 0.0001(15)
C11 0.046(2) 0.0284(19) 0.038(2) 0.0008(17) -0.0173(19) 0.0015(16)
C6 0.0271(18) 0.0308(19) 0.0311(19) 0.0021(15) -0.0132(15) -0.0020(15)
C1 0.031(2) 0.0296(19) 0.0289(18) 0.0022(15) -0.0129(16) 0.0009(15)
C5 0.033(2) 0.0288(18) 0.0303(19) 0.0016(15) -0.0149(16) 0.0005(15)
C14 0.034(2) 0.0271(18) 0.039(2) -0.0027(15) -0.0157(17) 0.0019(16)
C4 0.031(2) 0.037(2) 0.040(2) 0.0064(17) -0.0206(17) -0.0040(17)
C8 0.031(2) 0.039(2) 0.034(2) -0.0013(17) -0.0127(16) 0.0017(17)
C7 0.034(2) 0.0301(19) 0.0280(19) -0.0006(15) -0.0111(16) -0.0012(15)
C3 0.028(2) 0.041(2) 0.044(2) -0.0010(17) -0.0158(17) -0.0009(18)
C16 0.034(2) 0.036(2) 0.045(2) 0.0021(17) -0.0230(18) 0.0048(18)
C9 0.036(2) 0.050(3) 0.033(2) -0.0062(19) -0.0102(18) -0.0008(19)
C10 0.044(2) 0.039(2) 0.035(2) -0.0105(19) -0.0106(18) 0.0035(17)
C17 0.056(3) 0.059(3) 0.040(2) -0.003(2) -0.026(2) -0.001(2)
loop_
_atom_type_symbol
_atom_type_scat_dispersion_real
_atom_type_scat_dispersion_imag
_atom_type_scat_Cromer_Mann_a1
_atom_type_scat_Cromer_Mann_a2
_atom_type_scat_Cromer_Mann_a3
_atom_type_scat_Cromer_Mann_a4
_atom_type_scat_Cromer_Mann_b1
_atom_type_scat_Cromer_Mann_b2
_atom_type_scat_Cromer_Mann_b3
_atom_type_scat_Cromer_Mann_b4
_atom_type_scat_Cromer_Mann_c
_atom_type_scat_source
_atom_type_scat_dispersion_source
H 0.00000 0.00000 0.49300 0.32291 0.14019 0.04081 10.51090 26.12570 3.14236
57.79970 0.0030380000826
'International Tables Volume C Table 6.1.1.4 (pp. 500-502)'
'Henke, Gullikson and Davis, At. Data and Nucl. Data Tables, 1993, 54, 2'
C 0.00347 0.00161 2.31000 1.02000 1.58860 0.86500 20.84390 10.20750 0.56870
51.65120 0.215599998832
'International Tables Volume C Table 6.1.1.4 (pp. 500-502)'
'Henke, Gullikson and Davis, At. Data and Nucl. Data Tables, 1993, 54, 2'
Cl 0.14873 0.16029 11.46040 7.19640 6.25560 1.64550 0.01040 1.16620 18.51940
47.77840 -9.55739974976
'International Tables Volume C Table 6.1.1.4 (pp. 500-502)'
'Henke, Gullikson and Davis, At. Data and Nucl. Data Tables, 1993, 54, 2'
Au -1.84508 8.87037 16.88190 18.59130 25.55820 5.86000 0.46110 8.62160 1.48260
36.39560 12.0657997131
'International Tables Volume C Table 6.1.1.4 (pp. 500-502)'
'Henke, Gullikson and Davis, At. Data and Nucl. Data Tables, 1993, 54, 2'
N 0.00653 0.00323 12.21260 3.13220 2.01250 1.16630 0.00570 9.89330 28.99750
0.58260 -11.5290002823
'International Tables Volume C Table 6.1.1.4 (pp. 500-502)'
'Henke, Gullikson and Davis, At. Data and Nucl. Data Tables, 1993, 54, 2'
loop_
_diffrn_refln_index_h
_diffrn_refln_index_k
_diffrn_refln_index_l
_diffrn_refln_intensity_net
_diffrn_refln_intensity_u
-1 0 0 617.84 7.6
1 0 0 621.14 9
1 0 0 630.84 7.4
-1 0 0 608.74 9.1
-2 0 0 6083.59 19.6
2 0 0 6091.59 16.3
-2 0 0 6522.55 16.5
2 0 0 5649.73 18
3 0 0 173.68 2.8
3 0 0 162.28 2.7
-3 0 0 162.98 2.5
-3 0 0 165.98 3.1
4 0 0 2441.66 7.5
4 0 0 2401.86 8.7
-4 0 0 2605.84 9.4
-4 0 0 2596.24 7.8
5 0 0 713.53 4
-5 0 0 747.33 4.7
5 0 0 722.83 4.6
-5 0 0 777.82 3.9
-6 0 0 645.84 4.3
-6 0 0 616.34 3.4
6 0 0 567.54 3.4
6 0 0 623.64 4
7 0 0 570.54 3.9
-7 0 0 636.64 3.5
-7 0 0 616.64 4.3
7 0 0 578.64 3.4
8 0 0 148.99 2
-8 0 0 171.18 2.3
8 0 0 156.78 2.3
-8 0 0 154.48 2.5
9 0 0 223.98 2.4
9 0 0 253.07 3
-9 0 0 254.17 3.1
-9 0 0 160.38 2.6
-9 1 0 250.47 3.4
9 -1 0 239.08 3.2
9 -1 0 231.48 2.6
-9 1 0 269.17 2.6
8 -1 0 4.5 1.3
8 -1 0 0.9 1.3
-8 1 0 5.3 1.1
-8 1 0 -1.5 1.4
-7 1 0 811.42 5
7 -1 0 795.52 4.7
-7 1 0 851.61 4
7 -1 0 785.92 4
6 -1 0 466.45 2.9
-6 1 0 513.05 3.2
6 -1 0 476.85 3.8
-6 1 0 459.55 3.9
-5 1 0 1182.08 4.7
5 -1 0 1141.49 4.7
5 -1 0 1106.99 5.8
-5 1 0 1055.09 6
-4 1 0 1605.74 6
-4 1 0 1358.76 7.4
4 -1 0 1460.85 5.7
4 -1 0 1487.15 7.4
-3 1 0 1274.77 6
-3 1 0 1106.89 7.6
3 -1 0 1195.58 5.7
3 -1 0 1184.98 7.7
2 -1 0 3510.75 16
2 -1 0 3406.76 10.9
-2 1 0 3673.13 11.5
-2 1 0 3351.06 15.7
1 -1 0 2656.93 11.9
-1 1 0 2678.33 16.6
-1 1 0 2825.62 12.4
1 -1 0 2900.91 17.3
0 1 0 3981.5 21.9
0 1 0 3392.56 18.8
0 -1 0 3865.51 21.8
0 -1 0 3351.26 18.6
-1 -1 0 98.19 3.6
-1 -1 0 106.19 3.3
1 1 0 111.09 3.4
1 1 0 97.09 3.3
-2 -1 0 1407.56 7.9
2 1 0 1416.46 8.1
2 1 0 1386.66 8.2
-2 -1 0 1418.46 8.4
-3 -1 0 140.49 2.5
3 1 0 120.39 2.3
-3 -1 0 130.59 2.4
3 1 0 134.49 2.8
-4 -1 0 3198.28 9.5
4 1 0 3289.87 9.2
-4 -1 0 3167.78 8.6
4 1 0 2984.2 8.8
5 1 0 85.09 1.9
5 1 0 91.09 1.7
-5 -1 0 89.19 1.6
-5 -1 0 94.39 2.2
-6 -1 0 1199.18 4.7
6 1 0 1101.79 5.1
6 1 0 1145.79 4.8
-6 -1 0 1152.48 5.4
7 1 0 41.1 1.3
-7 -1 0 -0.2 1.4
-7 -1 0 39.1 1.7
7 1 0 38.3 1.6
8 1 0 530.95 3.7
8 1 0 549.74 3.7
-8 -1 0 623.24 4.2
-8 -1 0 -12.1 4.1
-9 -1 0 33.6 1.5
9 1 0 29.4 1.4
-9 -1 0 31.9 1.6
9 1 0 29.4 1.4
-9 2 0 243.88 3.7
9 -2 0 212.38 2.7
9 -2 0 232.88 3.5
-9 2 0 244.48 2.8
8 -2 0 15.2 1.4
-8 2 0 15.3 1.4
8 -2 0 13.9 1.1
-8 2 0 15.7 1.5
7 -2 0 881.11 5.4
-7 2 0 923.11 4.2
-7 2 0 858.71 5.4
7 -2 0 872.11 4.1
-6 2 0 1.3 1.3
-6 2 0 -0.1 0.9
6 -2 0 12.2 1.3
6 -2 0 0.9 1.4
-5 2 0 1918.61 8.3
-5 2 0 2213.48 6.3
5 -2 0 2126.39 6.3
5 -2 0 2185.18 8.6
-4 2 0 28.2 1.7
4 -2 0 34.6 1.9
4 -2 0 33 1.2
-4 2 0 59.19 1.7
-3 2 0 3162.58 12
3 -2 0 3054.79 12.3
-3 2 0 3422.86 8.8
3 -2 0 3370.56 8.9
2 -2 0 93.49 2.7
2 -2 0 89.79 1.9
-2 2 0 88.79 2.6
-2 2 0 93.19 2.1
1 -2 0 2747.33 12.2
-1 2 0 2797.82 10.7
-1 2 0 2911.61 13.1
1 -2 0 2770.62 10.6
0 2 0 41.5 2.2
0 2 0 43.7 2.1
0 -2 0 60.29 2.2
0 -2 0 43.8 2.1
-1 -2 0 1713.83 8.6
1 2 0 1680.63 8.5
1 2 0 1605.14 9.8
-1 -2 0 1556.24 10.3
2 2 0 1638.54 7.5
2 2 0 1402.96 8.2
-2 -2 0 1607.54 9
-2 -2 0 1601.44 7.4
3 2 0 983.4 6
-3 -2 0 1065.79 5.5
-3 -2 0 1082.09 6.1
3 2 0 1043.7 5.6
4 2 0 1929.01 6.8
-4 -2 0 2042.1 7
-4 -2 0 1957.7 7.1
4 2 0 2013.8 7.2
5 2 0 384.36 3.1
-5 -2 0 424.46 3.3
5 2 0 415.56 3.4
-5 -2 0 433.26 3.4
-6 -2 0 1581.44 6
-6 -2 0 1517.55 5.6
6 2 0 1315.17 5.3
6 2 0 1409.36 5.6
-7 -2 0 260.87 2.6
7 2 0 237.58 2.7
7 2 0 212.88 2.3
-7 -2 0 262.37 2.8
-8 -2 0 661.43 4.2
8 2 0 563.14 3.8
-8 -2 0 609.74 3.7
8 2 0 546.85 3.7
9 2 0 38.4 1.6
-9 -2 0 39.5 1.4
9 2 0 37.1 1.7
-9 -2 0 42.7 1.9
-9 3 0 201.48 3.6
9 -3 0 -26.3 2.3
9 -3 0 175.88 3.6
-9 3 0 97.59 2.5
-8 3 0 290.87 2.6
8 -3 0 254.47 2.6
8 -3 0 276.67 3.9
-8 3 0 270.47 3.7
-7 3 0 301.07 3.6
-7 3 0 350.46 2.7
7 -3 0 285.07 2.5
7 -3 0 292.27 3.6
6 -3 0 1045.5 6.3
-6 3 0 1004.6 5.9
6 -3 0 1006.9 4.3
-6 3 0 1146.39 4.6
5 -3 0 1129.39 4.5
-5 3 0 1115.99 6.2
-5 3 0 1189.18 4.6
5 -3 0 1213.58 6.7
-4 3 0 361.26 2.8
-4 3 0 325.87 3.8
4 -3 0 340.47 4.1
4 -3 0 325.47 2.6
3 -3 0 1857.81 6.2
-3 3 0 1936.21 8.8
-3 3 0 2027 6.5
3 -3 0 1886.81 8.6
2 -3 0 73.59 1.7
-2 3 0 79.39 2.3
2 -3 0 77.19 2
-2 3 0 74.79 1.7
1 -3 0 2778.52 9.6
1 -3 0 2509.15 10.4
1 -3 0 2887.51 10
1 -3 0 2765.32 10
0 3 0 272.37 3.2
0 -3 0 275.27 3.4
0 -3 0 250.07 3.4
0 3 0 263.27 3.6
-1 -3 0 3908.01 13.7
1 3 0 3790.82 12.9
-1 -3 0 4100.29 11.2
1 3 0 3927.11 11
2 3 0 511.75 3.8
2 3 0 468.15 4.3
-2 -3 0 509.05 3.9
-2 -3 0 476.25 4.7
3 3 0 2822.62 9.6
3 3 0 2916.11 8.4
-3 -3 0 3016 10.3
-3 -3 0 3011 8.6
-4 -3 0 546.55 3.6
-4 -3 0 553.84 4.2
4 3 0 493.65 3.9
4 3 0 515.95 3.6
-5 -3 0 2247.18 7.2
5 3 0 2230.18 6.6
5 3 0 2105.89 7.1
-5 -3 0 2449.45 7
6 3 0 529.65 3.4
6 3 0 529.75 3.7
-6 -3 0 596.44 3.7
-6 -3 0 607.44 3.7
-7 -3 0 517.05 3.6
-7 -3 0 530.25 3.6
7 3 0 486.45 3.6
7 3 0 452.45 3.4
-8 -3 0 -93.89 2.6
8 3 0 297.57 2.8
-8 -3 0 314.27 2.9
8 3 0 296.47 3
-9 -3 0 47.8 1.7
9 3 0 41.4 1.7
9 3 0 43.4 1.5
-9 -3 0 51.89 1.7
-8 4 0 -76.19 3.2
-8 4 0 490.95 4.9
8 -4 0 424.06 3.2
8 -4 0 479.45 5.1
7 -4 0 13.8 1.9
-7 4 0 -1.2 1.5
7 -4 0 11.1 1.2
-7 4 0 14.8 1.7
6 -4 0 837.62 6
-6 4 0 822.42 3.9
-6 4 0 862.91 5.7
6 -4 0 752.52 3.7
5 -4 0 358.56 4
5 -4 0 363.16 2.7
-5 4 0 394.16 2.8
-5 4 0 421.26 4
-4 4 0 589.04 4.7
-4 4 0 585.14 3.3
4 -4 0 558.64 3.4
4 -4 0 537.65 4.5
3 -4 0 586.44 4.4
-3 4 0 630.34 3.6
-3 4 0 659.93 5
3 -4 0 594.04 3.6
2 -4 0 936.21 5.7
2 -4 0 1009.6 5
2 -4 0 1094.89 5.7
1 -4 0 1724.43 6.9
1 -4 0 1606.44 7.4
1 -4 0 1821.52 7.1
1 -4 0 1843.82 7.2
0 4 0 578.24 4.6
0 -4 0 557.14 4.2
0 -4 0 557.74 4.4
0 4 0 533.75 3.9
1 4 0 2744.73 10
-1 -4 0 2949.8 10.6
1 4 0 2811.82 8.4
-1 -4 0 2889.91 8.6
-2 -4 0 57.69 1.8
-2 -4 0 52.89 2.1
2 4 0 52.79 1.9
2 4 0 56.39 1.8
-3 -4 0 2513.45 9.4
3 4 0 2276.57 8.2
-3 -4 0 2363.86 7.1
3 4 0 2270.77 7
-4 -4 0 45.8 1.9
-4 -4 0 44.4 1.3
4 4 0 46.3 1.5
4 4 0 42.8 1.7
5 4 0 1179.78 4.9
5 4 0 1326.57 5.8
-5 -4 0 1340.37 6.1
-5 -4 0 1288.47 5.3
6 4 0 4.4 1
-6 -4 0 2.5 1.3
6 4 0 1.9 1.3
-6 -4 0 2.3 1.1
-7 -4 0 375.76 3.2
-7 -4 0 357.86 3.1
7 4 0 329.47 3
7 4 0 356.86 3.2
8 4 0 84.69 1.9
-8 -4 0 88.79 2.1
-8 -4 0 90.69 1.9
8 4 0 82.89 1.8
-8 5 0 224.48 4
8 -5 0 204.38 4
8 -5 0 178.38 2.3
-8 5 0 217.18 2.4
7 -5 0 6.4 1
-7 5 0 4.2 1.4
-7 5 0 5.2 1.8
7 -5 0 0.7 1.9
-6 5 0 783.02 3.9
6 -5 0 678.83 3.6
-6 5 0 745.03 5.8
6 -5 0 719.43 6.1
5 -5 0 158.28 2.9
-5 5 0 178.28 2.8
-5 5 0 174.18 2.2
5 -5 0 164.48 2.1
4 -5 0 1172.48 6.2
-4 5 0 1278.27 4.7
4 -5 0 1209.08 4.6
3 -5 0 159.68 2.2
3 -5 0 154.78 2.4
3 -5 0 138.59 2.4
2 -5 0 2420.46 7.3
2 -5 0 2445.26 7.8
2 -5 0 2285.67 6.9
2 -5 0 2090.39 7.8
1 -5 0 710.73 4.4
1 -5 0 666.13 4.3
1 -5 0 692.33 4.2
1 -5 0 619.04 4
0 -5 0 2225.88 7.5
0 -5 0 2239.28 7.8
0 5 0 2116.99 6.9
1 5 0 983.1 5.7
-1 -5 0 1002.7 4.7
-1 -5 0 1022.8 5.9
1 5 0 968.9 4.6
-2 -5 0 533.55 3.5
-2 -5 0 503.15 4.6
2 5 0 525.75 4.1
2 5 0 519.45 3.4
-3 -5 0 481.95 3.1
3 5 0 478.95 3.8
-3 -5 0 482.45 4.4
3 5 0 460.25 3.1
4 5 0 283.27 3
-4 -5 0 283.27 2.6
4 5 0 281.47 2.5
-4 -5 0 302.37 3.4
-5 -5 0 333.37 3.4
-5 -5 0 328.87 2.8
5 5 0 298.07 2.6
5 5 0 319.27 3.2
6 5 0 7.9 1.4
6 5 0 8.3 1.1
-6 -5 0 13.9 1.4
-6 -5 0 10.9 1.5
7 5 0 382.66 3
-7 -5 0 458.95 3.5
7 5 0 438.16 3.7
-7 -5 0 416.96 3.6
8 5 0 0.2 1.1
-8 -5 0 0.1 1.7
-8 -5 0 1.7 1.4
8 5 0 1.4 1.3
-7 6 0 141.79 2
7 -6 0 138.19 2.1
7 -6 0 142.69 3.5
6 -6 0 680.93 5.5
6 -6 0 777.92 6.5
-6 6 0 852.41 4.3
6 -6 0 776.62 4.1
5 -6 0 74.89 2.2
5 -6 0 82.19 2.5
5 -6 0 78.19 1.5
4 -6 0 1094.89 6
4 -6 0 1183.98 4.7
4 -6 0 1129.09 4.5
4 -6 0 1271.67 6.1
3 -6 0 97.29 1.8
3 -6 0 95.89 1.9
3 -6 0 83.29 1.9
3 -6 0 102.29 1.8
2 -6 0 1964.7 7.3
2 -6 0 2005.2 6.4
2 -6 0 2175.88 7.1
2 -6 0 2067.89 6.7
1 -6 0 24.4 1.6
1 -6 0 23.1 1.1
1 -6 0 23.8 1.3
1 -6 0 24.1 1.4
0 -6 0 1491.65 6.6
0 -6 0 1480.05 5.7
0 -6 0 1491.15 6.3
-1 -6 0 21.5 1.3
1 6 0 24 1.2
-1 -6 0 20.3 1.5
1 6 0 20.9 1.3
-2 -6 0 1127.29 4.6
-2 -6 0 1110.39 6.3
2 6 0 1179.98 5.9
2 6 0 1141.99 4.7
-3 -6 0 182.88 2
-3 -6 0 179.88 2.8
3 6 0 169.68 2.4
3 6 0 183.18 2
-4 -6 0 528.55 3.4
4 6 0 528.75 3.4
4 6 0 530.75 4.1
-4 -6 0 587.64 4.7
5 6 0 386.46 3
-5 -6 0 420.16 3.2
5 6 0 407.56 3.6
-5 -6 0 422.96 3.9
6 6 0 174.58 2.6
6 6 0 177.18 2.4
-6 -6 0 194.68 2.7
-6 -6 0 187.68 2.6
7 6 0 201.08 2.3
-7 -6 0 213.78 2.9
-7 -6 0 197.98 2.6
7 6 0 197.98 2.9
7 -7 0 300.77 3
7 -7 0 269.07 3.1
7 -7 0 246.38 4.8
7 -7 0 58.09 5.1
6 -7 0 198.18 2.4
6 -7 0 191.28 3.8
6 -7 0 172.88 3.3
6 -7 0 193.28 2.4
5 -7 0 -15.6 5.6
5 -7 0 653.63 3.8
5 -7 0 604.24 5
5 -7 0 643.24 3.8
4 -7 0 90.99 4.6
4 -7 0 487.05 3.2
4 -7 0 469.65 4.1
4 -7 0 494.35 3.4
3 -7 0 557.24 3.4
3 -7 0 594.74 4.2
3 -7 0 655.73 4.1
3 -7 0 591.84 3.6
2 -7 0 674.33 3.9
2 -7 0 605.44 3.6
2 -7 0 638.74 3.9
2 -7 0 588.94 4
1 -7 0 183.28 2.4
1 -7 0 180.28 2.2
1 -7 0 195.08 2.2
1 -7 0 190.48 2.4
0 -7 0 678.93 3.8
0 -7 0 685.23 4.6
0 -7 0 687.33 4.5
0 -7 0 709.53 3.8
1 7 0 26 1.6
-1 -7 0 21.3 1.5
1 7 0 22.8 1.4
-1 -7 0 23.9 1.4
2 7 0 1200.08 4.7
-2 -7 0 1206.18 4.8
2 7 0 1246.38 6.2
-2 -7 0 1115.89 6.3
3 7 0 10.7 1.3
3 7 0 15.3 1
-3 -7 0 13.9 1.8
-3 -7 0 11.2 1.4
-4 -7 0 816.32 4.1
4 7 0 804.62 5.3
-4 -7 0 909.41 6.4
4 7 0 816.12 4.1
5 7 0 6.8 1.4
5 7 0 8.7 1.3
-5 -7 0 7.5 1.4
-5 -7 0 7.1 1.4
-6 -7 0 518.75 3.8
6 7 0 566.94 4.6
6 7 0 521.85 3.8
-6 -7 0 520.55 4.7
7 7 0 2.3 1.5
-7 -7 0 1.4 1.5
7 7 0 4.1 1.5
-7 -7 0 0.6 1.2
6 -8 0 0.5 1.8
6 -8 0 2 1.6
6 -8 0 1.8 1
6 -8 0 2 1
5 -8 0 569.14 3.6
5 -8 0 579.14 5.1
5 -8 0 509.35 5
5 -8 0 550.44 3.7
4 -8 0 88.99 2
4 -8 0 72.89 1.7
4 -8 0 77.39 1.7
4 -8 0 77.99 2.1
3 -8 0 364.86 3
3 -8 0 339.47 3.3
3 -8 0 333.77 2.8
3 -8 0 359.26 2.9
2 -8 0 194.78 2.6
2 -8 0 208.78 2.3
2 -8 0 231.48 2.5
2 -8 0 211.98 2.6
1 -8 0 309.17 3.1
1 -8 0 297.17 2.7
1 -8 0 291.87 2.8
1 -8 0 292.47 2.6
0 -8 0 682.83 4.4
0 -8 0 668.23 3.8
0 -8 0 657.43 4.7
0 -8 0 666.13 3.6
1 8 0 380.36 2.8
-1 -8 0 423.46 3.9
-1 -8 0 385.46 3.1
-1 -8 0 397.36 3.8
-2 -8 0 535.35 3.4
2 8 0 497.15 3.3
-2 -8 0 486.75 4.7
2 8 0 539.25 4.7
3 8 0 329.87 3.7
-3 -8 0 188.38 3.1
-3 -8 0 328.87 4.1
3 8 0 297.47 2.8
-4 -8 0 340.77 3.1
4 8 0 356.46 3.9
-4 -8 0 380.66 4.5
4 8 0 318.47 3
5 8 0 135.39 2.3
-5 -8 0 137.19 2.3
5 8 0 144.59 2.7
-5 -8 0 143.39 3
6 8 0 237.38 3.6
-6 -8 0 222.68 2.8
-6 -8 0 250.97 3.9
6 8 0 214.08 2.7
5 -9 0 201.28 3.5
5 -9 0 202.18 2.6
5 -9 0 221.58 2.7
5 -9 0 213.28 3.7
4 -9 0 16.5 1.4
4 -9 0 13.7 1.6
4 -9 0 15.3 1.3
4 -9 0 14.1 1.2
3 -9 0 408.26 3.3
3 -9 0 374.86 2.9
3 -9 0 434.96 3.5
3 -9 0 385.76 3.6
2 -9 0 17.4 1.4
2 -9 0 13 0.9
2 -9 0 15 1
2 -9 0 15 1.1
1 -9 0 1069.29 5.8
1 -9 0 1085.99 5.3
1 -9 0 1061.59 4.7
1 -9 0 1045.7 5
0 -9 0 58.09 1.9
0 -9 0 14 2
0 -9 0 57.29 1.8
0 -9 0 59.39 1.5
-1 -9 0 971.8 6.3
-1 -9 0 942.41 4.6
-1 -9 0 980.5 4.5
-1 -9 0 492.35 6.4
2 9 0 67.69 1.6
-2 -9 0 74.69 2.4
-2 -9 0 75.29 1.6
3 9 0 402.66 3.3
-3 -9 0 418.16 3.4
3 9 0 488.75 5.2
-3 -9 0 499.85 5.6
4 9 0 96.99 2.6
4 9 0 91.49 2
-4 -9 0 100.89 3
-4 -9 0 95.29 2
-5 -9 0 138.59 2.2
-5 -9 0 147.19 3.7
5 9 0 136.69 2.2
5 9 0 148.59 3.3
3 -10 0 279.07 3.3
3 -10 0 274.47 3
3 -10 0 308.57 3.3
3 -10 0 268.97 3
2 -10 0 138.59 2.3
2 -10 0 126.39 2.5
2 -10 0 112.79 2.3
2 -10 0 -4.8 2.6
1 -10 0 346.97 3.7
1 -10 0 320.77 3.2
1 -10 0 38.3 3.4
1 -10 0 343.37 3.9
0 -10 0 130.79 2.5
0 -10 0 113.69 2.8
0 -10 0 131.59 2.2
0 -10 0 134.39 2.3
-1 -10 0 333.17 3.1
-1 -10 0 48.3 4.4
-1 -10 0 340.47 3.1
-1 -10 0 327.97 4.2
-2 -10 0 2.2 2
-2 -10 0 1.9 1.6
-2 -10 0 1.5 1.6
-3 -10 0 191.08 2.6
3 10 0 185.68 2.5
-3 -10 0 203.88 4.3
-3 -10 0 135.09 5.1
-2 -10 1 218.28 2.7
2 10 -1 181.98 2.6
-1 -10 1 29.8 1.8
-1 -10 1 38.6 4
-1 -10 1 23.3 4
0 -10 1 395.36 6
0 -10 1 5.9 3.4
0 -10 1 403.66 5.6
0 -10 1 391.96 3.5
1 -10 1 33 1.7
1 -10 1 33.6 1.4
1 -10 1 34.7 1.8
1 -10 1 35.2 2.2
2 -10 1 468.15 4.9
2 -10 1 407.96 4.3
2 -10 1 442.76 3.6
2 -10 1 405.06 3.8
3 -10 1 26.7 1.8
3 -10 1 20.4 1.5
3 -10 1 24.1 1.5
3 -10 1 21.5 1.6
4 9 -1 71.69 2
-4 -9 1 34.3 3.4
4 9 -1 77.19 3.2
-4 -9 1 57.19 1.7
3 9 -1 461.45 3.4
-3 -9 1 460.75 8.9
-3 -9 1 456.05 3.5
-3 -9 1 496.15 8.4
-2 -9 1 187.78 5.4
-2 -9 1 216.68 6.5
-2 -9 1 198.28 2.5
2 9 -1 188.28 2.3
1 9 -1 603.64 4.1
-1 -9 1 244.68 7.9
-1 -9 1 630.04 4.1
-1 -9 1 601.64 8.1
0 -9 1 418.46 3.2
0 -9 1 422.26 5.1
0 -9 1 431.26 3.2
0 -9 1 437.56 4.8
1 -9 1 228.48 2.6
1 -9 1 243.98 2.5
1 -9 1 220.58 3.3
1 -9 1 238.98 3
2 -9 1 287.07 3
2 -9 1 316.37 3
2 -9 1 310.97 3.4
2 -9 1 303.77 3
3 -9 1 144.19 2.4
3 -9 1 134.89 2.4
3 -9 1 144.29 2.4
3 -9 1 132.99 2.1
4 -9 1 174.48 2.5
4 -9 1 220.58 3.1
4 -9 1 189.38 3.1
4 -9 1 203.08 2.8
5 -9 1 30.9 2.2
5 -9 1 30.2 1.7
5 -9 1 29.3 2
5 -9 1 28.6 1.6
5 8 -1 511.05 3.8
-5 -8 1 523.45 3.8
5 8 -1 530.25 5.6
-5 -8 1 567.94 5.8
-4 -8 1 4.2 1.5
-4 -8 1 7.1 1.8
4 8 -1 4.5 1.6
4 8 -1 2.2 1.5
-3 -8 1 724.63 7.6
3 8 -1 668.03 4
-3 -8 1 691.73 4.1
3 8 -1 747.43 6.8
-2 -8 1 15.4 1.7
2 8 -1 14.2 1.4
-2 -8 1 14.4 1.5
-2 -8 1 17 2.2
-1 -8 1 915.51 4.4
1 8 -1 894.31 4.5
-1 -8 1 1005 7.8
-1 -8 1 871.61 7.8
0 -8 1 100.69 1.9
0 8 -1 95.99 1.8
0 -8 1 97.99 2.4
0 -8 1 111.59 2.4
1 -8 1 395.56 3.7
1 -8 1 459.15 3.3
1 -8 1 398.56 3.2
1 -8 1 415.76 4.1
2 -8 1 16.6 1.3
2 -8 1 14.5 1.4
2 -8 1 14.4 1.4
2 -8 1 20.8 1.3
3 -8 1 493.25 3.8
3 -8 1 431.56 3.2
3 -8 1 475.75 3.6
3 -8 1 463.25 3.8
4 -8 1 201.88 2.5
4 -8 1 196.08 2.3
4 -8 1 209.48 3.1
4 -8 1 237.28 3
5 -8 1 8.7 2.4
5 -8 1 142.99 3
5 -8 1 130.29 2
5 -8 1 140.09 3.1
6 -8 1 149.19 5
6 -8 1 217.48 4.8
6 -8 1 225.08 2.8
6 -8 1 231.68 2.8
-6 -7 1 255.77 2.8
6 7 -1 289.47 3.8
-6 -7 1 -34.8 3.9
6 7 -1 257.47 2.9
-5 -7 1 160.08 2.1
5 7 -1 153.18 2.8
-5 -7 1 173.68 3.1
5 7 -1 155.28 2.3
-4 -7 1 557.04 3.6
4 7 -1 561.34 4.8
-4 -7 1 586.14 5.5
4 7 -1 542.45 3.4
3 7 -1 210.58 2.4
-3 -7 1 237.98 4.1
-3 -7 1 211.68 2.4
3 7 -1 231.88 3.4
-2 -7 1 539.25 3.4
2 7 -1 517.15 3.3
2 7 -1 554.94 5.4
-2 -7 1 552.54 6.3
-1 -7 1 558.44 5.5
-1 -7 1 497.65 5.5
-1 -7 1 561.34 3.5
1 7 -1 551.74 3.4
0 7 -1 173.48 2.2
0 -7 1 181.38 2.8
0 -7 1 167.98 2.1
0 -7 1 182.18 3
1 -7 1 681.73 4.4
1 -7 1 667.13 4.1
1 -7 1 756.52 4.1
1 -7 1 666.23 4.7
2 -7 1 115.29 2
2 -7 1 114.09 2.2
2 -7 1 135.39 2.1
2 -7 1 118.99 2.2
3 -7 1 1294.57 5.5
3 -7 1 1519.95 6.4
3 -7 1 1379.36 6.6
3 -7 1 1411.06 5.9
4 -7 1 61.59 2.3
4 -7 1 64.89 1.7
4 -7 1 66.49 1.7
4 -7 1 65.49 1.9
5 -7 1 797.72 4.3
5 -7 1 756.12 6.2
5 -7 1 774.22 4.2
5 -7 1 813.22 6.2
6 -7 1 5.1 1.8
6 -7 1 7.2 2
6 -7 1 7.2 1
7 -7 1 526.95 3.8
-7 -6 1 -1 1.3
7 6 -1 1.8 1.5
7 6 -1 4.7 1.4
-7 -6 1 3.6 1.6
6 6 -1 641.04 4.2
6 6 -1 628.44 5
-6 -6 1 637.94 4.2
-6 -6 1 701.63 4.9
-5 -6 1 10.2 1.1
5 6 -1 8.9 1.4
5 6 -1 10.3 1.5
-5 -6 1 9 1.4
-4 -6 1 1121.19 6.9
-4 -6 1 1113.69 4.9
4 6 -1 1032.8 4.8
4 6 -1 1038.7 6
3 6 -1 174.18 2.7
3 6 -1 181.68 2.1
-3 -6 1 199.88 3.5
-3 -6 1 173.58 2.2
-2 -6 1 765.22 4.1
2 6 -1 734.93 3.9
2 6 -1 785.22 6
-2 -6 1 798.52 7.2
-1 -6 1 490.15 5.5
-1 -6 1 529.95 3.4
1 6 -1 538.55 3.4
0 -6 1 1096.69 6.8
0 -6 1 1116.59 6.6
0 -6 1 1125.19 5.2
0 6 -1 1066.89 4.8
1 -6 1 1043.6 5.2
1 -6 1 1054.39 5.9
1 -6 1 1007 5.3
2 -6 1 694.53 4.1
2 -6 1 673.23 4.3
2 -6 1 654.83 4
2 -6 1 672.33 4.5
3 -6 1 1342.97 6.8
3 -6 1 1517.95 6.4
3 -6 1 1346.87 5.3
3 -6 1 1327.97 5.5
4 -6 1 370.86 3
4 -6 1 366.86 4
4 -6 1 407.86 3.8
-5 6 -1 989.6 4.3
5 -6 1 916.71 6.9
5 -6 1 839.02 6.6
5 -6 1 911.41 4.3
-6 6 -1 62.79 1.5
6 -6 1 56.99 2.7
6 -6 1 59.49 2.9
6 -6 1 53.89 1.4
7 -6 1 514.55 3.5
7 -6 1 433.66 8.5
-7 6 -1 545.75 3.6
7 -6 1 457.15 9
-8 6 -1 1.2 1.3
8 -6 1 0 1.3
7 5 -1 186.08 2.3
-7 -5 1 231.58 2.9
-7 -5 1 216.88 2.5
7 5 -1 205.78 2.9
-6 -5 1 707.53 4.5
6 5 -1 655.33 4.1
-6 -5 1 699.23 4.4
6 5 -1 672.13 4.4
5 5 -1 59.39 1.9
-5 -5 1 67.19 2
5 5 -1 55.19 1.5
-5 -5 1 59.79 1.8
4 5 -1 666.63 3.7
-4 -5 1 695.13 3.8
-4 -5 1 695.83 5
4 5 -1 682.63 4.8
3 5 -1 4.2 0.9
-3 -5 1 1.5 1.3
-3 -5 1 2.9 1.4
3 5 -1 3.1 1.1
2 5 -1 2358.76 6.9
-2 -5 1 2496.85 7.2
-2 -5 1 2629.24 12.7
2 5 -1 2293.17 9.8
-1 -5 1 189.18 3.8
1 5 -1 212.78 2.5
-1 -5 1 200.68 2.3
1 5 -1 215.48 3.6
0 5 -1 3321.07 8.8
0 -5 1 3378.96 12.5
0 -5 1 3487.15 9.2
0 -5 1 3422.86 11.9
1 -5 1 342.07 3.4
1 -5 1 371.76 3.5
1 -5 1 378.26 3.8
-1 5 -1 334.37 3
2 -5 1 1962.6 8
2 -5 1 1998.1 7.3
2 -5 1 2030 7
2 -5 1 2157.18 7.7
3 -5 1 58.09 2.1
3 -5 1 65.49 1.8
3 -5 1 59.39 1.7
-3 5 -1 66.19 1.5
4 -5 1 1168.78 4.8
4 -5 1 1177.08 7.2
4 -5 1 1083.39 7.2
-4 5 -1 1264.67 5
5 -5 1 281.57 4.2
5 -5 1 324.97 4.6
5 -5 1 328.17 2.7
-5 5 -1 368.26 2.8
6 -5 1 185.38 2.3
-6 5 -1 149.49 2.4
6 -5 1 179.68 3.9
6 -5 1 151.78 3.5
7 -5 1 177.78 2.2
-7 5 -1 -20 2.6
7 -5 1 191.58 4.6
-8 5 -1 -11.5 1.8
8 -5 1 73.89 4
8 -5 1 66.29 1.9
8 4 -1 40 1.5
8 4 -1 38 1.6
-8 -4 1 43.8 1.6
-8 -4 1 46 1.9
7 4 -1 360.06 3
7 4 -1 348.17 3.4
-7 -4 1 419.86 3.4
-7 -4 1 419.96 3.4
6 4 -1 261.87 2.8
6 4 -1 284.17 2.6
-6 -4 1 300.97 3
-6 -4 1 305.27 2.7
-5 -4 1 249.18 2.6
5 4 -1 237.98 2.5
-5 -4 1 250.97 2.9
5 4 -1 243.28 2.9
4 4 -1 642.44 4.5
-4 -4 1 668.93 4.7
4 4 -1 618.54 3.5
-4 -4 1 636.84 3.6
3 4 -1 1085.19 6.2
-3 -4 1 1137.29 6.9
-3 -4 1 1112.29 5
3 4 -1 1091.59 4.9
-2 -4 1 4130.89 15.6
2 4 -1 3744.03 9.3
-2 -4 1 4048.8 9.7
2 4 -1 3578.24 12.2
1 4 -1 711.73 4.4
-1 -4 1 638.74 7.5
-1 -4 1 697.23 4.3
1 4 -1 640.74 6.3
0 4 -1 2076.59 7.7
0 -4 1 2151.28 8
0 -4 1 2285.37 11.4
0 -4 1 2145.79 10.6
1 -4 1 463.85 4.4
1 -4 1 463.45 4.2
-1 4 -1 428.26 3.9
1 -4 1 436.26 4
2 -4 1 1141.99 6.3
2 -4 1 1061.99 6.8
-2 4 -1 1156.18 5.6
2 -4 1 1080.59 5.6
-3 4 -1 227.68 2.6
3 -4 1 205.78 2.3
3 -4 1 220.78 3.3
3 -4 1 190.48 3.3
4 -4 1 1219.38 8.3
-4 4 -1 1478.25 5.3
4 -4 1 1309.77 8.6
4 -4 1 1363.76 5.2
5 -4 1 29 2.1
-5 4 -1 30.6 1.9
-5 4 -1 31.2 1.2
5 -4 1 26.9 1.2
6 -4 1 1213.18 4.7
6 -4 1 1234.48 8.9
-6 4 -1 1306.47 4.8
-6 4 -1 1269.77 8.5
7 -4 1 22.2 1.2
-7 4 -1 25.8 1.9
-7 4 -1 23.7 1.2
7 -4 1 22.6 2
-8 4 -1 658.23 3.8
8 -4 1 619.64 7.1
8 -4 1 582.54 3.7
-8 4 -1 671.73 6.9
9 -4 1 114.39 2
-9 4 -1 116.79 2
-9 4 -1 99.49 3.8
9 -4 1 60.29 3.5
8 3 -1 0.9 1.3
-8 -3 1 3.9 1.4
8 3 -1 3.5 1.5
-8 -3 1 1.5 1.1
-7 -3 1 684.53 4.1
-7 -3 1 73.49 4.6
7 3 -1 575.64 3.6
7 3 -1 629.64 4.1
6 3 -1 159.98 2.4
6 3 -1 146.39 2
-6 -3 1 -9.8 2.4
-6 -3 1 178.28 2.5
-5 -3 1 881.91 4.2
5 3 -1 837.72 4
5 3 -1 845.42 4.8
-5 -3 1 888.91 4.7
4 3 -1 300.67 2.7
-4 -3 1 330.87 3.3
-4 -3 1 321.57 2.8
4 3 -1 311.57 3.2
3 3 -1 2549.44 9.5
-3 -3 1 2764.72 10
-3 -3 1 2818.62 8.1
3 3 -1 2523.85 7.6
-2 -3 1 399.26 5
2 3 -1 371.06 3.5
2 3 -1 355.86 4.3
-2 -3 1 391.36 3.6
1 3 -1 1723.63 7.2
1 3 -1 1646.14 10.8
-1 -3 1 1779.82 13.6
-1 -3 1 1759.92 7.4
0 -3 1 222.98 3.1
0 -3 1 236.38 4.8
0 -3 1 222.48 4.4
0 3 -1 234.08 3.3
-1 3 -1 1102.19 7.3
-1 3 -1 1182.68 7.4
1 -3 1 1187.28 7.6
1 -3 1 1126.69 7.6
2 -3 1 814.42 5.2
2 -3 1 863.41 6.6
-2 3 -1 822.72 5.3
2 -3 1 826.52 7.2
3 -3 1 468.65 3.5
-3 3 -1 501.35 3.6
3 -3 1 433.16 5.7
3 -3 1 483.05 5.7
-4 3 -1 2380.66 7.1
4 -3 1 2140.59 6.7
-4 3 -1 2381.66 12.1
4 -3 1 2253.77 12.6
5 -3 1 188.38 3.5
-5 3 -1 185.48 3.5
-5 3 -1 194.08 2
5 -3 1 175.98 2.1
-6 3 -1 1251.27 4.7
6 -3 1 1255.37 8
6 -3 1 1165.98 4.7
-6 3 -1 1254.37 7.7
7 -3 1 67.09 1.4
-7 3 -1 3.4 1.8
-7 3 -1 77.09 2.3
7 -3 1 73.19 2.5
8 -3 1 754.72 6.3
-8 3 -1 782.62 6.3
8 -3 1 654.63 3.7
-8 3 -1 742.63 3.9
-9 3 -1 0.2 1
9 -3 1 2 1.1
-9 3 -1 3.4 1.6
9 -3 1 2.5 1.8
-8 -2 1 -25.1 2.5
-8 -2 1 211.58 2.7
8 2 -1 182.18 2.3
8 2 -1 172.28 2.4
7 2 -1 699.63 3.9
-7 -2 1 768.02 4.2
-7 -2 1 827.22 4.3
7 2 -1 736.43 4.3
6 2 -1 122.49 2
-6 -2 1 133.59 2
6 2 -1 122.79 2.1
-6 -2 1 136.19 2.1
-5 -2 1 1491.65 5.5
5 2 -1 1325.07 5.1
-5 -2 1 1439.06 5.6
5 2 -1 1427.96 5.9
-4 -2 1 286.37 2.9
4 2 -1 269.67 2.6
4 2 -1 305.37 3.3
-4 -2 1 286.57 2.8
-3 -2 1 1890.91 7.8
-3 -2 1 1884.11 6.9
3 2 -1 1869.61 8
3 2 -1 1794.52 6.8
2 2 -1 10 1.7
-2 -2 1 6.5 1.5
-2 -2 1 5.5 1.6
2 2 -1 6.8 1.8
-1 -2 1 1830.62 8.4
-1 -2 1 1843.12 14.2
1 2 -1 1749.53 13.4
1 2 -1 1824.22 8.4
0 -2 1 690.63 13.6
0 -2 1 738.23 6.5
0 -2 1 697.03 12.3
0 2 -1 733.13 6.3
1 -2 1 2822.02 15.4
-1 2 -1 2834.22 14.9
1 -2 1 2735.23 13.2
-1 2 -1 2890.71 13.1
2 -2 1 1665.53 8
-2 2 -1 1764.42 8.2
2 -2 1 1758.82 14.7
2 -2 1 1841.82 13.9
3 -2 1 3404.76 9.7
3 -2 1 3162.88 18.2
-3 2 -1 3757.52 10
-3 2 -1 3108.99 16.9
-4 2 -1 1550.44 6
4 -2 1 1453.25 9.7
4 -2 1 1488.95 5.9
-4 2 -1 1340.87 9.1
-5 2 -1 1363.76 5
-5 2 -1 1130.79 7.4
5 -2 1 1303.07 5
5 -2 1 1295.97 7.9
-6 2 -1 448.76 4.4
6 -2 1 508.85 4.5
6 -2 1 470.25 3.1
-6 2 -1 529.95 3.1
-7 2 -1 422.86 4.5
7 -2 1 473.25 4.4
7 -2 1 436.26 3.1
-7 2 -1 492.85 3.1
8 -2 1 397.36 4.2
-8 2 -1 400.86 4.4
-8 2 -1 438.06 3
8 -2 1 391.46 2.9
-9 2 -1 88.49 1.7
-9 2 -1 89.19 2.7
9 -2 1 82.19 1.7
9 -2 1 87.69 2.5
9 1 -1 43.9 1.7
-9 -1 1 47.9 1.7
9 1 -1 41.3 1.9
-9 -1 1 2.7 1.6
-8 -1 1 472.35 3.6
8 1 -1 417.16 3.4
-8 -1 1 475.35 3.4
8 1 -1 -64.99 3.2
7 1 -1 161.58 2.1
-7 -1 1 191.58 2.3
-7 -1 1 185.18 2.3
7 1 -1 174.58 2.3
6 1 -1 723.03 4
-6 -1 1 843.62 4.1
-6 -1 1 774.92 4.2
6 1 -1 748.93 4.1
-5 -1 1 618.74 4
-5 -1 1 600.94 3.5
5 1 -1 536.15 3.5
5 1 -1 598.24 3.7
-4 -1 1 355.96 3
4 1 -1 339.17 3.2
4 1 -1 351.06 3
-4 -1 1 364.36 3.2
3 1 -1 1061.79 5.6
3 1 -1 1064.09 5.8
-3 -1 1 1046.1 5.5
-3 -1 1 1132.39 5.9
-2 -1 1 128.89 2.5
2 1 -1 148.79 3
-2 -1 1 153.88 2.7
2 1 -1 138.49 2.5
-1 -1 1 1562.34 8.9
-1 -1 1 1519.25 10.4
1 1 -1 1514.45 8.8
1 1 -1 1514.15 11
0 1 -1 349.07 5.7
0 1 -1 305.07 11.3
0 -1 1 346.37 5.8
0 -1 1 312.57 10.5
-1 1 -1 2766.12 15.5
1 -1 1 2705.53 25.9
-1 1 -1 3249.18 26.6
1 -1 1 2827.22 15.6
2 -1 1 5.7 1.4
-2 1 -1 7.6 1.9
2 -1 1 6.8 2.8
-2 1 -1 12.9 3.2
3 -1 1 4601.14 11.8
-3 1 -1 5104.79 12
3 -1 1 4288.47 18.4
-3 1 -1 4162.18 18.7
4 -1 1 2.4 1.1
4 -1 1 4.1 1.6
-4 1 -1 2.5 1.7
-4 1 -1 4 1
-5 1 -1 2267.47 6.6
-5 1 -1 2062.69 9.4
5 -1 1 2056.69 6.4
5 -1 1 2094.99 8.9
6 -1 1 111.79 2.3
6 -1 1 104.79 1.6
-6 1 -1 112.19 2.4
-6 1 -1 119.99 1.6
7 -1 1 710.83 4.8
-7 1 -1 -51.89 4
7 -1 1 663.23 3.7
-7 1 -1 706.63 5.1
8 -1 1 139.49 1.9
8 -1 1 140.09 2.5
-8 1 -1 -12.2 1.9
-8 1 -1 150.88 2.7
-9 1 -1 191.28 3
9 -1 1 175.28 2.9
9 -1 1 148.79 2.1
-9 1 -1 181.38 2.2
9 0 -1 -2.2 1.5
9 0 -1 19.8 1.4
-9 0 1 24.2 1.7
-9 0 1 22.1 1.4
-8 0 1 418.26 3.7
8 0 -1 408.96 3.4
8 0 -1 358.26 2.9
-8 0 1 448.66 3.3
-7 0 1 0.1 0.9
7 0 -1 0.5 1.2
-7 0 1 1.1 1.4
7 0 -1 -0.2 1.3
6 0 -1 745.93 4.2
-6 0 1 822.82 4.5
6 0 -1 819.52 3.9
-6 0 1 917.81 4
-5 0 1 247.28 2.5
5 0 -1 246.28 2.7
-5 0 1 251.07 2.9
5 0 -1 239.38 2.3
-4 0 1 1221.08 5.8
-4 0 1 1252.17 5.2
4 0 -1 1182.78 5.7
4 0 -1 1204.68 5.1
3 0 -1 660.03 4.3
-3 0 1 646.04 4.8
3 0 -1 629.54 4.6
-3 0 1 655.63 4.2
-2 0 1 5401.56 15
2 0 -1 5419.56 13.2
2 0 -1 5257.07 14.6
-2 0 1 5062.59 12.8
1 0 -1 2344.17 10.8
-1 0 1 2535.65 11.2
1 0 -1 2277.97 11.8
-1 0 1 2430.86 12.4
0 0 -1 1438.16 12.3
0 0 1 1441.16 12.1
0 0 1 1616.54 11.9
0 0 -1 1549.74 12.1
1 0 1 2962.9 19.3
-1 0 -1 2780.82 18.4
1 0 1 2275.17 13.3
-1 0 -1 2458.35 13.7
-2 0 -1 2464.05 14.6
2 0 1 2358.46 10.3
2 0 1 2359.36 14.4
-2 0 -1 2247.98 10.1
3 0 1 1092.79 6
3 0 1 1006 7.4
-3 0 -1 1035.7 7.6
-3 0 -1 1087.29 6.1
-4 0 -1 695.43 4.3
-4 0 -1 712.13 5.5
4 0 1 690.93 4.4
4 0 1 622.24 5
5 0 1 984.5 5.6
5 0 1 956.3 4.5
-5 0 -1 1060.89 6.1
-5 0 -1 975.7 4.4
6 0 1 4.2 1.2
-6 0 -1 10.8 1.5
-6 0 -1 3 0.8
6 0 1 3 1.4
-7 0 -1 876.01 5.3
7 0 1 771.32 4.7
7 0 1 749.82 3.9
-7 0 -1 786.32 3.8
-8 0 -1 -1.8 1.2
8 0 1 22.2 1.2
8 0 1 22.3 1.6
-8 0 -1 19.5 1.6
9 0 1 480.45 3.4
-9 0 -1 192.78 4.7
9 0 1 453.15 4.1
-9 0 -1 61.69 3.5
-9 1 1 100.19 2
-9 1 1 108.19 2.3
9 -1 -1 85.69 2.2
9 -1 -1 93.19 2
8 -1 -1 416.86 3.3
8 -1 -1 451.15 3.7
-8 1 1 499.95 3.5
-8 1 1 -58.29 4
7 -1 -1 47.7 1.4
7 -1 -1 49.3 1.4
-7 1 1 58.49 1.4
-7 1 1 52.49 1.6
-6 1 1 1145.69 5.7
-6 1 1 1327.77 5
6 -1 -1 1156.08 4.6
6 -1 -1 1223.58 5.6
-5 1 1 30.5 1.7
5 -1 -1 34.2 1.6
5 -1 -1 32.7 1.3
-5 1 1 35.6 1.3
4 -1 -1 3141.49 9.5
-4 1 1 2837.02 9.3
4 -1 -1 3245.88 8.1
-4 1 1 3163.58 7.8
3 -1 -1 117.89 1.9
-3 1 1 117.79 2.2
-3 1 1 101.59 2.4
3 -1 -1 116.99 2.5
2 -1 -1 4523.85 14
2 -1 -1 5860.61 12.5
-2 1 1 5639.34 12.3
-2 1 1 4668.53 14.6
1 -1 -1 1211.08 6.7
1 -1 -1 1144.29 7.8
-1 1 1 1279.47 7
-1 1 1 1159.58 7.8
0 -1 -1 2267.27 10.9
0 1 1 2455.25 12
0 -1 -1 2446.36 12
0 1 1 2288.17 10.9
1 1 1 501.05 5.4
-1 -1 -1 508.15 5.4
1 1 1 449.76 5.3
-1 -1 -1 457.15 5.3
-2 -1 -1 2569.84 10.6
2 1 1 2413.76 10.1
-2 -1 -1 2937.41 12.2
2 1 1 2608.44 11.5
3 1 1 450.85 4.1
-3 -1 -1 443.66 4.4
3 1 1 436.56 4.4
-3 -1 -1 494.25 4.3
4 1 1 653.93 4.4
-4 -1 -1 659.33 4.3
-4 -1 -1 650.83 4.7
4 1 1 604.74 4.5
5 1 1 1077.39 5
5 1 1 1013.2 5.3
-5 -1 -1 1134.69 5.8
-5 -1 -1 1057.09 4.7
6 1 1 352.16 2.8
-6 -1 -1 401.06 3.4
6 1 1 381.66 3.3
-6 -1 -1 357.16 2.7
-7 -1 -1 982.9 4.2
7 1 1 870.01 4.6
-7 -1 -1 938.21 5.2
7 1 1 925.21 4.2
-8 -1 -1 141.89 2.4
8 1 1 117.09 2.1
8 1 1 123.49 2.1
-8 -1 -1 132.59 2.1
-9 -1 -1 429.46 3.2
9 1 1 -25.3 3.4
9 1 1 452.35 3.8
-9 -1 -1 488.25 4.1
9 -2 -1 187.08 3.1
9 -2 -1 125.19 2.3
-9 2 1 -40.6 2.1
-9 2 1 196.58 3
8 -2 -1 204.28 2.9
-8 2 1 223.38 2.6
-8 2 1 228.18 3.1
8 -2 -1 191.28 2.3
-7 2 1 339.87 3.4
7 -2 -1 376.86 3.4
7 -2 -1 336.17 2.7
-7 2 1 383.06 2.8
-6 2 1 576.24 4.1
6 -2 -1 612.54 4.3
6 -2 -1 573.04 3.4
-6 2 1 645.84 3.5
-5 2 1 1035.2 4.3
5 -2 -1 1023.9 4.3
5 -2 -1 1032.5 5.6
-5 2 1 956.4 5.4
4 -2 -1 1114.69 4.6
4 -2 -1 1139.39 6.1
-4 2 1 1192.68 4.7
-4 2 1 1088.09 5.9
3 -2 -1 1516.65 7.3
-3 2 1 1714.43 6
3 -2 -1 1626.24 5.7
-3 2 1 1498.95 7.1
-2 2 1 1430.96 5.8
-2 2 1 1294.17 7.1
2 -2 -1 1342.07 5.7
2 -2 -1 1235.88 6.9
1 -2 -1 1900.01 7.5
1 -2 -1 1898.91 8.5
1 -2 -1 1884.51 7.6
-1 2 1 1891.51 8.6
0 2 1 3242.98 11
0 -2 -1 3220.68 10.9
0 2 1 3310.57 11.5
0 -2 -1 3373.76 11.5
-1 -2 -1 666.83 5.3
1 2 1 630.74 5.2
-1 -2 -1 613.24 5.1
1 2 1 661.23 5.2
2 2 1 2282.47 9
2 2 1 2253.87 9
-2 -2 -1 2168.48 9
-2 -2 -1 2454.65 9.4
3 2 1 177.28 2.5
-3 -2 -1 196.98 2.8
-3 -2 -1 180.68 2.6
3 2 1 185.28 2.6
-4 -2 -1 2804.72 8.5
-4 -2 -1 2806.32 8.6
4 2 1 2733.33 8.3
4 2 1 2624.34 8.2
-5 -2 -1 226.38 2.7
-5 -2 -1 218.78 2.6
5 2 1 196.48 2.5
5 2 1 202.58 2.4
6 2 1 1672.33 5.9
6 2 1 1628.44 5.9
-6 -2 -1 1815.92 6.6
-6 -2 -1 1778.32 6
-7 -2 -1 176.78 2.5
-7 -2 -1 168.98 2.3
7 2 1 165.18 2.5
7 2 1 147.29 2
-8 -2 -1 686.33 3.9
-8 -2 -1 753.02 4.5
8 2 1 670.93 4.1
8 2 1 636.64 3.8
9 2 1 78.69 1.9
9 2 1 79.09 2
-9 -2 -1 94.59 1.8
-9 -2 -1 97.89 2.2
-8 3 1 3.4 1.3
8 -3 -1 6 1.3
8 -3 -1 0.5 1.4
-8 3 1 3.9 1.5
7 -3 -1 882.01 4.1
-7 3 1 843.72 5.4
7 -3 -1 914.61 5.5
-7 3 1 1017.2 4.3
-6 3 1 63.59 1.9
-6 3 1 68.09 1.7
6 -3 -1 65.09 1.4
6 -3 -1 68.89 2
-5 3 1 1557.54 5
5 -3 -1 1377.96 4.7
-5 3 1 1406.26 6.3
5 -3 -1 1505.85 6.7
4 -3 -1 263.37 3.1
-4 3 1 280.97 2.3
-4 3 1 258.07 3
4 -3 -1 251.27 2.1
-3 3 1 1155.68 5.9
3 -3 -1 1119.79 5.7
-3 3 1 1217.18 4.9
3 -3 -1 1134.09 4.6
2 -3 -1 1153.58 5.9
-2 3 1 1179.48 6.2
2 -3 -1 1257.47 5.3
-1 3 1 1351.46 6.8
1 -3 -1 1290.27 5.8
1 -3 -1 1310.07 5.8
1 -3 -1 1338.17 6.5
0 -3 -1 2381.26 8.6
0 -3 -1 2571.44 8.7
0 -3 -1 2640.34 8.9
0 3 1 2714.83 9.1
-1 -3 -1 1039.3 5.7
1 3 1 1083.39 6
-1 -3 -1 1129.29 6.2
1 3 1 1099.29 5.6
-2 -3 -1 3331.87 10.5
2 3 1 3883.91 10
2 3 1 3442.06 10.1
-2 -3 -1 3533.25 10
3 3 1 1179.68 5.8
-3 -3 -1 1263.37 5.6
3 3 1 1292.17 5.8
-3 -3 -1 1214.98 6
4 3 1 3039.8 8.6
-4 -3 -1 2985.3 8.8
4 3 1 2799.32 7.9
-4 -3 -1 3047.6 8.4
5 3 1 254.57 2.6
-5 -3 -1 272.07 2.8
-5 -3 -1 264.87 2.9
5 3 1 247.08 2.5
6 3 1 1245.08 5.1
-6 -3 -1 1368.56 5.5
6 3 1 1260.67 5.2
-6 -3 -1 1289.17 5.3
-7 -3 -1 5.7 1.4
7 3 1 6.3 1.3
7 3 1 6.4 1.4
-7 -3 -1 8.1 1.1
-8 -3 -1 545.95 3.9
8 3 1 448.76 3.4
-8 -3 -1 516.65 3.6
8 3 1 454.55 3.4
-9 -3 -1 18.7 1.8
-9 -3 -1 18.8 1.4
9 3 1 15.9 1.2
9 3 1 17.3 1.4
-8 4 1 89.29 2.6
8 -4 -1 96.49 1.8
8 -4 -1 107.59 2.7
-8 4 1 104.89 2.1
-7 4 1 631.04 3.6
7 -4 -1 540.05 4.7
7 -4 -1 530.05 3.4
-7 4 1 496.25 4.7
-6 4 1 75.49 1.7
-6 4 1 79.39 2
6 -4 -1 64.99 1.4
6 -4 -1 77.89 2.2
5 -4 -1 591.44 3.2
5 -4 -1 648.34 4.5
-5 4 1 655.73 4.4
-5 4 1 654.73 3.4
4 -4 -1 2.9 1
4 -4 -1 2.4 1.3
-4 4 1 2.4 1
-4 4 1 1.9 1.2
3 -4 -1 1069.49 4.4
3 -4 -1 1057.39 5.4
-3 4 1 1109.69 5.7
2 -4 -1 333.47 2.6
-2 4 1 370.26 3.4
2 -4 -1 355.56 2.8
2 -4 -1 355.36 3.2
1 -4 -1 2173.28 6.9
1 -4 -1 1899.91 7.1
1 -4 -1 2006.3 6.6
1 -4 -1 2149.08 7.2
0 -4 -1 374.66 3.1
0 -4 -1 378.86 3.4
0 -4 -1 344.77 3.1
0 4 1 360.96 3.3
1 4 1 3910.01 9.6
1 4 1 4083.39 10.3
-1 -4 -1 4328.27 10.8
-1 -4 -1 4167.08 10.1
2 4 1 830.42 4.7
2 4 1 826.42 4.5
-2 -4 -1 805.42 4.8
-2 -4 -1 829.92 4.4
-3 -4 -1 1966.8 7.5
3 4 1 2039.5 7.1
-3 -4 -1 1980.2 6.5
3 4 1 1943.01 6.5
4 4 1 512.05 3.3
-4 -4 -1 558.84 4
4 4 1 523.85 3.7
-4 -4 -1 547.75 3.4
5 4 1 660.33 3.6
-5 -4 -1 722.83 3.8
5 4 1 684.93 4
-5 -4 -1 720.03 4.4
6 4 1 711.73 4.1
6 4 1 657.63 3.7
-6 -4 -1 701.83 4.3
-6 -4 -1 748.53 4
-7 -4 -1 119.69 1.9
7 4 1 123.79 2
7 4 1 131.19 2.2
-7 -4 -1 120.09 2.2
8 4 1 220.88 2.5
8 4 1 213.38 2.5
-8 -4 -1 244.58 2.8
-8 -4 -1 232.08 2.5
9 4 1 1.5 1.1
-9 -4 -1 14.1 1.4
-9 -4 -1 14.9 1.3
9 4 1 11 1.5
8 -5 -1 132.59 2
-8 5 1 139.69 3.2
8 -5 -1 130.49 3.2
-8 5 1 139.99 2
7 -5 -1 45.7 2
7 -5 -1 -4.9 1.6
-7 5 1 45.9 2
-7 5 1 51.39 1.6
6 -5 -1 272.07 3.4
-6 5 1 296.97 3.4
6 -5 -1 259.37 2.4
-6 5 1 276.97 2.5
-5 5 1 322.27 3.5
-5 5 1 342.97 2.5
5 -5 -1 306.97 2.4
5 -5 -1 304.77 3.4
-4 5 1 359.16 3.4
4 -5 -1 348.27 2.6
4 -5 -1 335.07 3.1
-3 5 1 1585.44 6.6
3 -5 -1 1524.35 5.1
3 -5 -1 1507.15 6
3 -5 -1 1493.45 5
2 -5 -1 884.01 4.5
2 -5 -1 751.82 4.5
2 -5 -1 821.32 3.9
2 -5 -1 852.91 4.1
1 -5 -1 2912.01 7.7
1 -5 -1 2553.94 7.8
1 -5 -1 2912.71 7.7
1 -5 -1 2718.03 7.2
0 5 1 619.14 3.9
0 -5 -1 590.84 3.7
0 -5 -1 559.14 3.7
0 -5 -1 610.04 3.6
1 5 1 2419.36 7.1
1 5 1 2406.66 7.7
-1 -5 -1 2542.85 7.4
-1 -5 -1 2627.24 8.2
-2 -5 -1 117.79 2
-2 -5 -1 119.79 2.1
2 5 1 118.29 1.9
2 5 1 117.99 2
-3 -5 -1 966.8 5.3
3 5 1 1003.5 4.9
3 5 1 968.9 4.5
-3 -5 -1 1022 4.6
4 5 1 3.7 1.2
-4 -5 -1 5.3 1.2
-4 -5 -1 3.2 1.1
4 5 1 5.2 1.2
-5 -5 -1 1749.12 6.9
-5 -5 -1 1798.62 6
5 5 1 1624.44 5.6
5 5 1 1716.23 6.5
6 5 1 333.97 2.8
6 5 1 338.17 3
-6 -5 -1 346.67 2.9
-6 -5 -1 341.47 3.3
7 5 1 514.85 3.7
-7 -5 -1 479.25 3.4
7 5 1 436.56 3.2
-7 -5 -1 478.65 3.7
8 5 1 137.99 2.4
8 5 1 154.88 2.6
-8 -5 -1 152.88 2.4
-8 -5 -1 146.99 2.5
-7 6 1 5.2 1.5
7 -6 -1 1.7 1
7 -6 -1 3.2 1.8
6 -6 -1 441.16 3.2
6 -6 -1 469.75 4.4
-6 6 1 528.55 4.4
6 -6 -1 452.05 3.4
5 -6 -1 138.49 2.5
5 -6 -1 140.19 1.8
5 -6 -1 144.69 1.9
-5 6 1 154.08 2.5
4 -6 -1 978.7 5.1
4 -6 -1 1022.5 4.4
4 -6 -1 962.8 4.2
3 -6 -1 199.58 2.4
3 -6 -1 235.78 2.5
3 -6 -1 228.18 2.1
3 -6 -1 231.08 2.3
2 -6 -1 1475.55 5.1
2 -6 -1 1626.84 5.7
2 -6 -1 1399.36 5.8
2 -6 -1 1612.64 5.5
1 -6 -1 709.23 3.8
1 -6 -1 788.32 4.1
1 -6 -1 806.82 4.1
1 -6 -1 720.43 4.2
0 -6 -1 614.74 3.7
0 -6 -1 664.63 3.9
0 6 1 668.93 4
0 -6 -1 648.94 3.7
1 6 1 739.03 4.2
-1 -6 -1 778.62 4.3
-1 -6 -1 774.72 4
-2 -6 -1 134.09 2.2
2 6 1 122.69 2
-2 -6 -1 130.89 1.7
2 6 1 128.09 1.9
3 6 1 1122.99 4.6
-3 -6 -1 1169.78 4.6
-3 -6 -1 1139.89 5.6
3 6 1 1144.29 5.2
-4 -6 -1 51.69 1.8
4 6 1 51.99 1.4
-4 -6 -1 53.69 1.4
4 6 1 52.69 1.6
5 6 1 1237.18 5.2
-5 -6 -1 1220.08 4.9
5 6 1 1206.28 5.5
-5 -6 -1 1216.18 5.9
6 6 1 2 1.5
6 6 1 2.4 1
-6 -6 -1 0.3 1.4
-6 -6 -1 3 1.5
7 6 1 370.56 3.1
-7 -6 -1 357.06 3.8
7 6 1 408.26 3.7
-7 -6 -1 420.36 3.3
8 6 1 2 1.1
8 6 1 1.8 1.3
-8 -6 -1 0.9 1.4
-8 -6 -1 0.3 1
7 -7 -1 23.9 1.3
7 -7 -1 21.6 2.2
7 -7 -1 19.2 2
7 -7 -1 30.2 1.5
6 -7 -1 502.55 4.9
6 -7 -1 517.25 3.5
6 -7 -1 365.46 4.5
6 -7 -1 503.15 3.4
5 -7 -1 56.99 1.9
5 -7 -1 53.69 1.3
5 -7 -1 47.3 2
5 -7 -1 48.1 1.3
4 -7 -1 758.62 4.7
4 -7 -1 895.81 4.9
4 -7 -1 803.32 3.9
4 -7 -1 788.82 3.9
3 -7 -1 10.5 1.1
3 -7 -1 10.1 1.3
3 -7 -1 12.4 1.3
3 -7 -1 11.2 0.9
2 -7 -1 797.52 4.1
2 -7 -1 673.23 3.6
2 -7 -1 698.33 4.2
2 -7 -1 743.63 3.9
1 -7 -1 47.4 1.6
1 -7 -1 47.6 1.3
1 -7 -1 47.9 1.4
1 -7 -1 53.99 1.6
0 -7 -1 666.53 3.9
0 -7 -1 678.63 3.8
0 -7 -1 664.63 3.8
0 -7 -1 667.53 3.5
-1 -7 -1 423.66 3.3
-1 -7 -1 437.26 3
1 7 1 434.36 3.4
-1 -7 -1 488.05 3
2 7 1 428.36 3.4
2 7 1 421.66 3
-2 -7 -1 453.35 3.5
-2 -7 -1 431.56 3.1
-3 -7 -1 702.83 4.6
-3 -7 -1 698.83 3.7
3 7 1 697.13 3.7
3 7 1 710.83 4.3
-4 -7 -1 380.06 3.6
4 7 1 371.66 3.3
-4 -7 -1 374.96 3
4 7 1 372.56 2.9
-5 -7 -1 357.06 2.9
5 7 1 338.37 2.9
-5 -7 -1 360.56 3.5
5 7 1 349.37 3.2
-6 -7 -1 219.18 3
-6 -7 -1 211.08 2.5
6 7 1 225.88 2.8
6 7 1 213.58 2.6
7 7 1 216.38 2.7
7 7 1 246.28 3.1
-7 -7 -1 15.4 3.2
-7 -7 -1 219.38 2.6
6 -8 -1 124.39 2.2
6 -8 -1 125.69 2.2
6 -8 -1 127.29 3.2
6 -8 -1 112.59 3
5 -8 -1 124.59 1.9
5 -8 -1 127.19 1.9
5 -8 -1 128.69 2.7
5 -8 -1 145.49 2.7
4 -8 -1 302.47 3.2
4 -8 -1 337.87 3.2
4 -8 -1 312.77 2.7
4 -8 -1 314.47 2.7
3 -8 -1 28.9 1.3
3 -8 -1 28 1.4
3 -8 -1 27.2 1.1
3 -8 -1 28.2 1.4
2 -8 -1 358.36 3
2 -8 -1 369.96 2.9
2 -8 -1 346.27 3.1
2 -8 -1 345.47 2.8
1 -8 -1 100.79 1.7
1 -8 -1 101.09 2
1 -8 -1 103.09 1.6
1 -8 -1 103.59 1.8
0 -8 -1 846.62 4.5
0 -8 -1 821.62 4.2
0 -8 -1 807.82 3.9
0 -8 -1 832.42 4.6
1 8 1 1.6 1.1
-1 -8 -1 2.4 1.4
-1 -8 -1 1.7 1.1
-1 -8 -1 1.4 1.2
-2 -8 -1 994.9 5.3
-2 -8 -1 986.3 4.4
2 8 1 959.2 5.4
-3 -8 -1 0.9 1
3 8 1 2 1.2
-3 -8 -1 4.1 1.4
3 8 1 1.5 1.4
4 8 1 815.72 5
4 8 1 725.53 4.2
-4 -8 -1 838.82 5.5
-4 -8 -1 773.92 4.2
-5 -8 -1 21.5 1.3
5 8 1 25.8 1.4
-5 -8 -1 29.7 1.7
5 8 1 26.8 1.3
6 8 1 307.17 3.7
-6 -8 -1 -18.2 4.2
-6 -8 -1 322.57 3.1
6 8 1 298.37 3
5 -9 -1 155.68 3
5 -9 -1 146.69 3.1
5 -9 -1 163.48 2.4
5 -9 -1 -21.1 2.1
4 -9 -1 106.79 2.3
4 -9 -1 106.49 1.9
4 -9 -1 105.99 2.2
4 -9 -1 117.79 2.1
3 -9 -1 241.18 2.6
3 -9 -1 219.18 2.5
3 -9 -1 243.88 2.6
3 -9 -1 238.58 2.8
2 -9 -1 176.98 2.3
2 -9 -1 189.88 2.2
2 -9 -1 192.28 2.3
2 -9 -1 201.48 2.4
1 -9 -1 466.55 3.3
1 -9 -1 428.06 3.2
1 -9 -1 409.56 3.4
1 -9 -1 414.26 3.3
0 -9 -1 639.04 4.2
0 -9 -1 630.24 4
0 -9 -1 586.44 3.6
0 -9 -1 615.04 3.9
-1 -9 -1 257.07 2.9
-1 -9 -1 249.68 3
-1 -9 -1 238.18 2.4
-1 -9 -1 262.87 2.4
-2 -9 -1 477.15 4
-2 -9 -1 500.05 3.4
2 9 1 511.95 4.2
-2 -9 -1 431.76 3.3
-3 -9 -1 208.08 3.3
-3 -9 -1 204.08 2.5
3 9 1 226.88 3.2
-4 -9 -1 347.87 4.3
4 9 1 353.26 3.8
-4 -9 -1 316.17 2.9
4 9 1 1 2.8
-5 -9 -1 1.4 1.3
5 9 1 11.2 1.6
5 9 1 13 1.2
-5 -9 -1 12.3 1.8
3 -10 -1 471.15 4.1
3 -10 -1 416.86 3.3
3 -10 -1 393.76 3.9
3 -10 -1 458.05 3.7
2 -10 -1 18.6 1.3
2 -10 -1 14 1
2 -10 -1 10.8 1.5
2 -10 -1 17.7 1.4
1 -10 -1 571.44 4.2
1 -10 -1 507.65 4.1
1 -10 -1 508.35 3.8
1 -10 -1 532.05 4.3
0 -10 -1 135.79 2.1
0 -10 -1 135.99 2.4
0 -10 -1 145.59 2.5
0 -10 -1 143.59 2.2
-1 -10 -1 254.57 3.2
-1 -10 -1 234.98 2.6
-1 -10 -1 -32.4 3.5
-1 -10 -1 256.37 2.7
-2 -10 -1 72.29 2.1
-2 -10 -1 65.19 1.9
-2 -10 -1 64.89 2.2
-2 -10 -1 66.89 1.7
-3 -10 -1 119.39 1.9
-3 -10 -1 119.59 3.1
3 10 1 122.39 3
-3 -10 -1 122.39 2
2 10 -2 218.78 2.8
-2 -10 2 233.48 2.8
1 10 -2 36.1 1.5
-1 -10 2 37.9 1.7
0 -10 2 364.16 3.4
1 -10 2 110.59 4.2
1 -10 2 100.59 2.2
1 -10 2 108.89 2.2
1 -10 2 103.39 3.7
2 -10 2 374.96 3.6
2 -10 2 343.17 4.8
2 -10 2 361.16 5.6
2 -10 2 438.86 3.6
3 -10 2 125.69 3
3 -10 2 120.29 2.8
3 -10 2 109.09 2.5
3 -10 2 68.59 2.5
4 9 -2 242.38 2.8
-4 -9 2 246.28 3.1
3 9 -2 78.19 1.7
-3 -9 2 81.69 2
2 9 -2 630.24 4
-2 -9 2 569.14 3.9
-1 -9 2 53.89 1.8
1 9 -2 47.9 1.6
0 -9 2 664.93 4
0 9 -2 708.03 4.1
1 -9 2 74.29 2.5
1 -9 2 73.79 1.9
1 -9 2 76.79 1.9
1 -9 2 70.49 2.9
2 -9 2 532.55 4.7
2 -9 2 553.94 3.7
2 -9 2 515.35 5.3
2 -9 2 495.05 3.8
3 -9 2 2.4 1.1
3 -9 2 1.4 1.4
3 -9 2 0.8 1
3 -9 2 2.7 1.1
4 -9 2 328.17 4.1
4 -9 2 255.27 3.2
4 -9 2 315.67 3.6
4 -9 2 358.26 3.9
5 -9 2 28.7 1.4
5 -9 2 26.5 1.5
5 -9 2 17.3 2.2
5 -9 2 30.2 2.4
-5 -8 2 37.8 4.5
-5 -8 2 235.48 3
5 8 -2 226.98 2.7
5 8 -2 238.18 4.9
4 8 -2 229.48 5.6
-4 -8 2 197.58 2.5
4 8 -2 193.78 2.7
-4 -8 2 210.48 5.6
3 8 -2 453.95 3.5
-3 -8 2 453.95 3.4
2 8 -2 475.65 3.4
-2 -8 2 480.15 3.4
1 8 -2 349.37 2.9
-1 -8 2 356.96 3.1
0 8 -2 206.58 2.3
0 -8 2 201.78 2.3
1 -8 2 262.97 3.7
-1 8 -2 239.98 2.5
1 -8 2 250.17 2.7
1 -8 2 256.07 4.2
2 -8 2 411.56 4.4
2 -8 2 428.46 3.8
2 -8 2 406.46 3.5
2 -8 2 459.45 3.5
3 -8 2 59.59 2
3 -8 2 56.59 1.7
3 -8 2 64.09 1.8
3 -8 2 64.39 2
4 -8 2 671.63 4.9
4 -8 2 579.94 4
4 -8 2 608.84 5.1
4 -8 2 650.43 4.3
5 -8 2 6.8 1.7
5 -8 2 8.6 1.3
5 -8 2 4.5 1.5
5 -8 2 6.1 2
6 -8 2 430.26 3.8
6 -8 2 446.46 3.8
6 7 -2 13.1 1.3
6 7 -2 14.2 2
-6 -7 2 1.3 1.7
-6 -7 2 4.6 1.7
5 7 -2 455.25 3.5
5 7 -2 518.75 5.3
-5 -7 2 476.25 3.6
-5 -7 2 485.55 5.1
4 7 -2 28.8 2
4 7 -2 32.2 1.4
-4 -7 2 30.9 1.7
-4 -7 2 29.5 2
-3 -7 2 879.31 4.4
-3 -7 2 892.61 9.2
3 7 -2 953.7 9.1
3 7 -2 891.31 4.4
2 7 -2 7.2 1.1
-2 -7 2 7.5 1.1
-1 -7 2 528.45 3.5
1 7 -2 554.74 3.5
0 -7 2 129.99 1.9
0 -7 2 137.79 4.7
0 7 -2 141.29 2
0 -7 2 148.99 5.5
1 -7 2 732.43 5.5
1 -7 2 653.53 4.1
1 -7 2 673.53 6.2
-1 7 -2 640.54 4
2 -7 2 1161.08 5.4
2 -7 2 1035.3 5.4
2 -7 2 1005 6.2
2 -7 2 1001.4 5.3
3 -7 2 443.16 3.5
3 -7 2 528.75 4
3 -7 2 491.35 4
3 -7 2 451.75 4
4 -7 2 574.24 5.1
4 -7 2 658.33 5.2
4 -7 2 614.04 4.1
4 -7 2 585.24 3.9
5 -7 2 336.37 5
5 -7 2 341.17 5
5 -7 2 333.07 3
-6 7 -2 446.46 3.4
6 -7 2 378.46 3.2
7 -7 2 118.79 2
-7 7 -2 143.39 2.3
6 6 -2 337.27 4
-6 -6 2 347.67 3.8
-6 -6 2 289.77 3.3
6 6 -2 277.57 3
5 6 -2 399.96 3.2
5 6 -2 416.46 4.2
-5 -6 2 395.86 4
-5 -6 2 410.66 3.1
4 6 -2 243.58 3.4
4 6 -2 246.08 2.4
-4 -6 2 244.38 2.7
-4 -6 2 237.18 3.4
3 6 -2 752.42 4
-3 -6 2 768.12 4.1
-3 -6 2 752.62 6.6
3 6 -2 786.22 6.4
2 6 -2 99.39 4.2
2 6 -2 93.89 1.9
-2 -6 2 103.39 2
-2 -6 2 90.89 4.2
-1 -6 2 1412.16 5.4
1 6 -2 1469.35 5.5
0 -6 2 8.6 1.1
0 -6 2 9.2 2.5
0 6 -2 14.6 1.5
0 -6 2 9.8 2.8
1 -6 2 2549.15 8
1 -6 2 2625.54 11.8
-1 6 -2 2560.54 7.8
1 -6 2 2691.73 10.3
2 -6 2 140.69 2.6
2 -6 2 148.09 2.5
2 -6 2 132.59 2.2
3 -6 2 1597.24 6.6
3 -6 2 1557.94 7.6
3 -6 2 1822.42 7.4
-4 6 -2 131.49 2
4 -6 2 140.79 2.7
4 -6 2 122.89 2.1
4 -6 2 124.19 2.9
5 -6 2 912.31 9.2
5 -6 2 1005.7 9.6
-5 6 -2 1024.9 4.8
5 -6 2 954.2 4.6
6 -6 2 218.88 2.5
-6 6 -2 223.68 2.6
-7 6 -2 317.07 2.7
7 -6 2 303.17 2.7
8 -6 2 121.79 2.5
-8 6 -2 176.48 2.5
7 5 -2 1.1 1.5
-7 -5 2 12 1.2
7 5 -2 8.8 1.5
-7 -5 2 9.5 1.4
-6 -5 2 91.59 3.2
6 5 -2 268.07 3.1
6 5 -2 265.57 2.8
-6 -5 2 315.67 3.2
5 5 -2 148.59 2.2
-5 -5 2 157.78 2.5
-5 -5 2 178.58 2.5
5 5 -2 152.78 2.6
4 5 -2 424.36 3.1
-4 -5 2 445.56 3.2
4 5 -2 436.86 4.2
-4 -5 2 426.26 4
3 5 -2 560.64 4.9
3 5 -2 528.55 3.4
-3 -5 2 556.64 3.4
-3 -5 2 528.45 4.8
2 5 -2 637.34 6.6
2 5 -2 651.23 3.8
-2 -5 2 656.23 3.9
-2 -5 2 642.54 7.2
1 5 -2 1765.22 6.1
-1 -5 2 1766.42 6.2
0 5 -2 722.03 4.3
0 -5 2 769.92 17
0 -5 2 721.43 4.4
0 -5 2 659.93 14.1
1 -5 2 1947.71 7.5
-1 5 -2 1991.1 7.4
1 -5 2 1886.71 9.1
1 -5 2 1974.9 11
2 -5 2 438.06 4.1
2 -5 2 426.66 4
-2 5 -2 415.46 3.7
3 -5 2 1546.15 6.6
3 -5 2 1427.56 8
3 -5 2 1663.53 7.8
-3 5 -2 1659.33 6.4
-4 5 -2 40.3 1.6
4 -5 2 37.1 1.3
4 -5 2 34.8 2.2
4 -5 2 39 2
5 -5 2 707.73 14.7
5 -5 2 690.83 14.8
5 -5 2 685.13 3.8
-5 5 -2 736.53 3.9
6 -5 2 4.2 1
-6 5 -2 0.9 1
-7 5 -2 369.86 2.9
7 -5 2 335.17 2.8
-8 5 -2 30.2 1.5
8 -5 2 23.6 1.2
7 4 -2 21.3 1.7
7 4 -2 17.1 1.4
-7 -4 2 19.5 1.4
-7 -4 2 19.9 1.5
6 4 -2 702.73 4
-6 -4 2 794.62 4.3
6 4 -2 681.03 4.6
-6 -4 2 741.73 4.4
5 4 -2 37.9 1.2
5 4 -2 41.9 1.8
-5 -4 2 43 1.3
-5 -4 2 42.1 1.6
4 4 -2 2313.47 8.8
-4 -4 2 2670.33 7.3
-4 -4 2 2462.85 8.5
4 4 -2 2477.35 6.9
3 4 -2 40.7 1.9
3 4 -2 42.7 1.5
-3 -4 2 41.5 1.5
-3 -4 2 41.2 1.7
-2 -4 2 2520.35 12
2 4 -2 2505.65 11.8
2 4 -2 2494.45 7.3
-2 -4 2 2568.04 7.5
1 4 -2 329.97 3.1
-1 -4 2 295.37 3.1
0 -4 2 2538.35 8.6
0 4 -2 2692.83 8.5
1 -4 2 328.57 4.3
-1 4 -2 351.56 3.7
1 -4 2 358.96 5.3
1 -4 2 346.27 3.7
2 -4 2 1370.86 7.3
-2 4 -2 1327.47 7.3
2 -4 2 1380.66 7.9
-2 4 -2 1445.86 6.9
3 -4 2 844.12 6.5
3 -4 2 786.92 4.7
3 -4 2 767.52 7.2
-3 4 -2 852.01 4.8
4 -4 2 656.53 10
4 -4 2 715.13 10.5
4 -4 2 708.43 4.2
-4 4 -2 744.73 4.1
5 -4 2 1082.99 4.6
-5 4 -2 1178.18 4.8
6 -4 2 104.89 2
-6 4 -2 117.09 1.8
7 -4 2 945.01 4.4
-7 4 -2 70.99 4.9
8 -4 2 49.99 1.7
-8 4 -2 54.09 1.4
9 -4 2 395.16 3.2
-9 4 -2 -45.3 3
8 3 -2 51.29 2.7
8 3 -2 180.28 2.9
-8 -3 2 224.88 2.8
-8 -3 2 221.88 2.9
-7 -3 2 290.87 2.8
7 3 -2 273.37 2.8
7 3 -2 261.47 2.7
-7 -3 2 283.07 2.7
6 3 -2 835.02 4.1
-6 -3 2 860.91 4.6
6 3 -2 927.01 5
-6 -3 2 983.7 4.6
5 3 -2 781.62 4.8
5 3 -2 798.72 4
-5 -3 2 886.71 4.3
-5 -3 2 764.82 4.4
4 3 -2 1856.31 5.9
4 3 -2 2020.9 8.1
-4 -3 2 2082.59 6.4
-4 -3 2 1995.9 7.2
3 3 -2 363.46 3.1
3 3 -2 377.56 4
-3 -3 2 359.26 3.1
-3 -3 2 341.67 3.5
2 3 -2 3552.44 9.3
2 3 -2 3559.34 13.8
-2 -3 2 3523.65 9.2
-2 -3 2 3434.16 12.5
-1 -3 2 308.57 6
-1 -3 2 307.57 3.2
1 3 -2 304.47 3.3
1 3 -2 294.97 6.1
0 3 -2 3599.94 10.8
0 -3 2 3632.54 10.9
-1 3 -2 10.9 1.6
1 -3 2 12.4 2
1 -3 2 8.7 1.7
-1 3 -2 8.5 1.7
2 -3 2 2089.39 11.6
-2 3 -2 2150.68 9.1
2 -3 2 2096.39 9.3
-2 3 -2 2076.39 10.9
3 -3 2 177.58 5.1
3 -3 2 172.78 5.6
3 -3 2 166.28 2.6
-3 3 -2 180.18 2.7
4 -3 2 1944.31 6.8
-4 3 -2 2000.7 6.7
5 -3 2 1403.66 5.2
-5 3 -2 1501.95 5.4
6 -3 2 708.83 9.8
6 -3 2 826.72 3.9
-6 3 -2 858.61 10.2
-6 3 -2 844.42 4.1
-7 3 -2 556.04 3.3
7 -3 2 447.76 6.4
7 -3 2 455.25 3.1
-7 3 -2 531.15 6.8
8 -3 2 463.15 6.1
-8 3 -2 522.35 6.5
-8 3 -2 529.75 3.6
8 -3 2 432.46 3.3
-9 3 -2 219.28 5.3
-9 3 -2 -47.5 2.2
9 -3 2 245.68 5.1
9 -3 2 185.48 2.7
-8 -2 2 77.19 1.8
8 2 -2 67.49 1.8
8 2 -2 71.69 2
-8 -2 2 83.29 1.7
-7 -2 2 760.52 4.4
7 2 -2 673.03 4
7 2 -2 17.9 4.4
-7 -2 2 737.43 4
-6 -2 2 98.89 2
-6 -2 2 84.89 1.6
6 2 -2 79.89 1.6
6 2 -2 86.99 2
-5 -2 2 1055.39 4.6
-5 -2 2 991.2 4.7
5 2 -2 900.11 4.2
5 2 -2 981.4 5
4 2 -2 262.67 2.6
4 2 -2 290.57 3.1
-4 -2 2 270.97 2.8
-4 -2 2 275.67 2.5
-3 -2 2 1260.67 5.9
3 2 -2 1231.18 5.3
3 2 -2 1327.27 6.7
-3 -2 2 1324.97 5.6
2 2 -2 1493.45 6.3
-2 -2 2 1528.55 6.5
2 2 -2 1547.55 8.6
-2 -2 2 1449.85 7.3
1 2 -2 600.84 4.5
1 2 -2 643.34 7.5
-1 -2 2 650.53 4.9
-1 -2 2 632.04 6.4
0 2 -2 2004.7 23.7
0 2 -2 1960.1 9.1
0 -2 2 1967.3 9.2
0 2 -2 1785.32 25.5
1 -2 2 443.26 6.1
-1 2 -2 486.45 5.6
-1 2 -2 480.05 6.9
1 -2 2 462.25 5.6
2 -2 2 2794.52 18.7
-2 2 -2 3018 19.4
-2 2 -2 2772.32 11
2 -2 2 2907.21 11.5
-3 2 -2 219.88 2.8
3 -2 2 229.68 2.8
-4 2 -2 2581.44 7.7
4 -2 2 2400.36 7.5
5 -2 2 75.69 3.1
-5 2 -2 79.49 1.5
-5 2 -2 71.59 2.9
5 -2 2 79.69 1.7
-6 2 -2 1132.89 8.3
6 -2 2 1097.69 4.5
-6 2 -2 1251.67 4.7
6 -2 2 1169.48 8.3
-7 2 -2 93.59 1.7
7 -2 2 76.99 1.6
7 -2 2 82.99 2.3
-7 2 -2 83.59 2.4
8 -2 2 498.95 5.6
8 -2 2 547.45 3.6
-8 2 -2 663.73 5.9
-8 2 -2 672.53 3.6
-9 2 -2 87.79 2.9
9 -2 2 87.09 2.6
9 -2 2 84.59 1.9
-9 2 -2 97.59 1.8
-8 -1 2 37.5 1.7
8 1 -2 35.8 1.6
-8 -1 2 38 1.6
8 1 -2 35.1 1.4
-7 -1 2 618.94 4.1
7 1 -2 535.05 3.5
7 1 -2 517.45 3.4
-7 -1 2 611.34 3.7
6 1 -2 36.2 1.6
6 1 -2 33.1 1.3
-6 -1 2 38.9 1.7
-6 -1 2 38.3 1.5
-5 -1 2 1186.48 5.1
5 1 -2 1050.49 4.5
5 1 -2 1126.69 4.9
-5 -1 2 1115.69 4.7
-4 -1 2 32.2 1.4
4 1 -2 27.8 1.3
-4 -1 2 28 1.2
4 1 -2 30.6 1.3
-3 -1 2 1649.23 6.3
3 1 -2 1550.14 6.1
3 1 -2 1618.54 6.6
-3 -1 2 1665.13 6.4
-2 -1 2 191.58 2.7
2 1 -2 187.48 2.9
-2 -1 2 208.18 2.8
2 1 -2 203.58 2.8
-1 -1 2 2735.03 10.4
1 1 -2 2792.32 11.6
1 1 -2 2604.84 10.1
0 1 -2 1488.65 9.1
0 -1 2 1598.94 9.1
0 1 -2 1503.55 10.5
0 -1 2 1476.15 10.2
1 -1 2 5135.59 20
-1 1 -2 5015.8 20.6
-1 1 -2 4967.2 18.5
1 -1 2 4951.6 17.6
-2 1 -2 2943.01 11.5
-2 1 -2 2407.56 21.6
2 -1 2 2717.03 11
3 -1 2 2605.84 9.1
-3 1 -2 2562.04 9
-3 1 -2 2373.86 20.2
-4 1 -2 1725.83 6.5
4 -1 2 1703.23 6.4
4 -1 2 1559.54 10.6
-4 1 -2 1714.73 11.7
-5 1 -2 1074.49 8.1
5 -1 2 1029.6 4.7
5 -1 2 985.4 7.1
-5 1 -2 1066.59 4.8
6 -1 2 762.02 5.6
-6 1 -2 846.62 6.3
6 -1 2 768.82 3.8
-6 1 -2 828.62 3.9
7 -1 2 131.09 2.6
-7 1 -2 142.59 2.1
7 -1 2 155.98 2.2
-7 1 -2 144.09 3
8 -1 2 422.36 4.5
-8 1 -2 519.05 4.9
8 -1 2 441.36 3
-8 1 -2 497.45 3.1
9 -1 2 5.8 1
-9 1 -2 7.2 1.1
9 -1 2 8.8 1.6
-9 1 -2 7.5 1.6
8 0 -2 215.48 2.7
-8 0 2 -59.29 2.8
8 0 -2 265.37 3
-8 0 2 290.87 3.4
-7 0 2 203.28 2.4
-7 0 2 180.28 2.5
7 0 -2 161.48 2.3
7 0 -2 170.38 2.3
-6 0 2 277.87 2.8
6 0 -2 266.77 2.6
6 0 -2 274.57 2.7
-6 0 2 293.37 2.4
5 0 -2 874.61 4.5
-5 0 2 930.01 4.7
5 0 -2 946.01 4.2
-5 0 2 934.01 4
-4 0 2 141.39 2
4 0 -2 134.19 2
4 0 -2 152.88 2.1
-4 0 2 136.09 2.1
-3 0 2 2393.56 7.2
3 0 -2 2314.17 7.2
3 0 -2 2199.68 7.6
-3 0 2 2243.08 7.8
-2 0 2 324.17 3.5
2 0 -2 314.97 3.2
2 0 -2 326.67 3.6
-2 0 2 338.87 3.2
1 0 -2 7573.94 17
1 0 -2 9999 18.5
1 0 -2 9111.89 19.2
-1 0 2 9628.94 19.9
0 0 2 59.09 2.1
0 0 -2 60.79 2.6
0 0 -2 66.29 2
0 0 2 59.69 2.1
1 0 2 5445.76 15.6
-1 0 -2 5451.65 15.7
1 0 2 5202.78 17.3
-1 0 -2 5000.3 17.5
-2 0 -2 21.3 1.9
-2 0 -2 15.9 1.7
-2 0 -2 21.7 1.9
2 0 2 17.4 1.5
3 0 2 2809.82 12.8
-3 0 -2 3461.45 14.7
-3 0 -2 3470.25 10.4
3 0 2 3259.47 10
4 0 2 649.34 4.2
4 0 2 585.14 5.2
-4 0 -2 665.23 4.4
-4 0 -2 663.43 5.7
5 0 2 1045.1 4.9
-5 0 -2 1099.89 6.8
5 0 2 994.2 6
-5 0 -2 1053.69 4.9
6 0 2 567.74 4.4
-6 0 -2 578.04 3.3
6 0 2 573.44 3.5
-6 0 -2 678.53 5
7 0 2 328.47 3.3
7 0 2 344.17 2.7
-7 0 -2 349.87 2.7
-7 0 -2 410.76 3.9
8 0 2 298.17 3.4
-8 0 -2 333.77 2.8
-8 0 -2 394.86 3.9
8 0 2 306.67 2.8
9 0 2 278.47 3.1
-9 0 -2 324.57 3.6
9 0 2 224.08 2.8
-9 0 -2 271.47 2.8
-8 1 2 424.66 3.2
8 -1 -2 358.66 2.9
8 -1 -2 390.06 3.5
-8 1 2 451.95 3.8
-7 1 2 17.7 2.1
-7 1 2 100.39 1.9
7 -1 -2 99.49 1.7
7 -1 -2 102.69 1.8
-6 1 2 785.02 3.8
6 -1 -2 789.32 3.8
6 -1 -2 686.93 4.1
-6 1 2 724.33 4.3
5 -1 -2 724.03 4.3
5 -1 -2 649.74 3.4
-5 1 2 681.23 4.3
-5 1 2 684.13 3.5
-4 1 2 1007.8 4.2
-4 1 2 940.61 5
4 -1 -2 953 4.2
4 -1 -2 991.9 5
3 -1 -2 2349.67 7.9
-3 1 2 2448.16 8.3
3 -1 -2 2478.15 7.1
-3 1 2 2649.93 7.2
2 -1 -2 1281.77 5.6
2 -1 -2 1204.58 6.2
-2 1 2 1266.47 6.4
-2 1 2 1324.07 5.6
1 -1 -2 3148.98 9.5
1 -1 -2 2702.23 9.7
1 -1 -2 3143.79 9.5
-1 1 2 2843.32 10.2
0 1 2 28.3 1.8
0 1 2 23.3 1.6
0 -1 -2 24.3 1.6
0 -1 -2 28.2 1.8
1 1 2 278.17 3.4
-1 -1 -2 278.77 3.4
1 1 2 305.17 3.8
-1 -1 -2 292.47 3.6
-2 -1 -2 220.78 3.1
-2 -1 -2 237.28 3.5
2 1 2 215.18 3.1
-2 -1 -2 187.48 3.1
3 1 2 4235.68 10.9
-3 -1 -2 4125.29 10.8
3 1 2 3573.04 11.8
-3 -1 -2 3952.2 12.5
4 1 2 15.2 1.6
-4 -1 -2 18 1.7
4 1 2 15.3 1.7
-4 -1 -2 14.9 1.7
5 1 2 1527.65 6.7
-5 -1 -2 1619.54 6
5 1 2 1622.94 6.1
-5 -1 -2 1814.82 7.5
6 1 2 26.7 1.6
-6 -1 -2 38.9 1.8
-6 -1 -2 31.5 1.4
6 1 2 26.9 1.4
7 1 2 941.81 5
-7 -1 -2 1037.7 5.5
7 1 2 953.4 4.5
-7 -1 -2 925.01 4.2
8 1 2 17.7 1.6
-8 -1 -2 15.1 1.5
8 1 2 18 1.2
-8 -1 -2 20.4 1.5
9 1 2 429.56 3.7
-9 -1 -2 447.26 3.2
-9 -1 -2 497.25 4
9 1 2 399.66 3.2
-8 2 2 460.95 3.4
8 -2 -2 377.96 3.6
-8 2 2 389.56 3.8
8 -2 -2 387.56 3.1
7 -2 -2 1.7 1.3
7 -2 -2 0.1 1
-7 2 2 1.9 1.3
-7 2 2 1.8 1
-6 2 2 1038.7 4.4
-6 2 2 976.7 5.1
6 -2 -2 1020.4 5.2
6 -2 -2 922.71 4.2
-5 2 2 9 0.9
-5 2 2 5.5 1.4
5 -2 -2 6.9 1.1
5 -2 -2 11.8 1.4
4 -2 -2 1854.71 6.8
-4 2 2 1932.61 5.6
-4 2 2 1777.32 6.7
4 -2 -2 1818.92 5.6
-3 2 2 35.8 1.1
3 -2 -2 31.4 1.7
3 -2 -2 37.5 1.4
-3 2 2 35.2 1.7
-2 2 2 1772.92 7.2
2 -2 -2 1803.62 6.1
2 -2 -2 1644.74 6.7
2 -2 -2 1835.82 6.1
1 -2 -2 197.78 2.7
1 -2 -2 177.18 2.2
-1 2 2 186.78 2.7
1 -2 -2 194.38 2.3
0 2 2 93.39 2
0 -2 -2 81.29 1.7
0 2 2 86.29 1.8
0 -2 -2 92.09 1.9
1 2 2 1103.49 5.7
-1 -2 -2 1107.79 5.8
1 2 2 1180.28 6.3
-1 -2 -2 1181.18 6.3
-2 -2 -2 482.95 4.1
-2 -2 -2 526.75 4.1
2 2 2 526.15 4
3 2 2 1970.9 7.1
-3 -2 -2 2072.99 7.9
3 2 2 1976.7 7.5
-3 -2 -2 2123.49 7.5
4 2 2 333.87 2.9
-4 -2 -2 347.67 3.2
-4 -2 -2 318.17 2.9
4 2 2 314.47 3
5 2 2 980.5 4.8
5 2 2 1061.49 4.8
-5 -2 -2 1040.9 4.7
-5 -2 -2 1090.69 5.2
-6 -2 -2 515.05 3.3
6 2 2 448.76 3.4
6 2 2 504.05 3.3
-6 -2 -2 513.95 3.8
7 2 2 855.41 4.2
-7 -2 -2 879.41 4.2
-7 -2 -2 903.21 4.9
7 2 2 796.52 4.4
8 2 2 125.89 2.1
-8 -2 -2 68.29 2.6
8 2 2 131.39 2.2
-8 -2 -2 133.79 1.9
9 2 2 433.46 3.5
-9 -2 -2 436.96 3.3
-9 -2 -2 492.95 4
9 2 2 380.06 3.1
-8 3 2 231.58 2.6
8 -3 -2 221.08 3.1
8 -3 -2 208.58 2.8
-8 3 2 231.78 3.2
-7 3 2 362.96 2.8
7 -3 -2 -4.1 2.9
7 -3 -2 289.67 3.4
-7 3 2 357.76 3.4
-6 3 2 498.45 3.1
6 -3 -2 499.45 3.1
6 -3 -2 510.05 4
-6 3 2 494.95 3.8
-5 3 2 348.37 2.6
-5 3 2 331.57 3.1
5 -3 -2 317.67 2.5
5 -3 -2 342.77 3.2
-4 3 2 1061.29 5.2
4 -3 -2 1112.79 5.3
-4 3 2 1107.79 4.3
4 -3 -2 1020.3 4
3 -3 -2 288.47 2.8
-3 3 2 313.37 3.1
3 -3 -2 283.47 2.3
2 -3 -2 2192.18 6.3
-2 3 2 2249.68 7.6
2 -3 -2 2208.78 6.4
2 -3 -2 2258.47 7.4
1 -3 -2 68.39 1.7
1 -3 -2 58.29 1.6
-1 3 2 63.69 1.8
0 -3 -2 3252.97 8.8
0 -3 -2 3133.69 8.3
0 3 2 3119.19 8.8
0 3 2 2954.6 8.1
1 3 2 63.39 1.5
-1 -3 -2 68.79 1.7
-1 -3 -2 60.79 1.8
-1 -3 -2 68.49 1.7
-2 -3 -2 4082.09 9.9
2 3 2 4280.47 10
-2 -3 -2 4389.06 10.3
3 3 2 306.57 3
-3 -3 -2 284.87 2.8
3 3 2 285.07 3
-3 -3 -2 306.97 2.9
4 3 2 2244.18 7.1
-4 -3 -2 2291.67 7.1
-4 -3 -2 2385.96 7.4
4 3 2 2275.97 7.2
-5 -3 -2 333.87 2.8
-5 -3 -2 353.46 3
5 3 2 321.67 2.9
5 3 2 352.46 2.9
-6 -3 -2 1183.28 5.1
6 3 2 1156.88 4.7
6 3 2 993.7 4.5
-6 -3 -2 1104.39 4.7
7 3 2 380.06 2.9
7 3 2 420.56 3.1
-7 -3 -2 447.26 3.3
-7 -3 -2 419.46 3.2
8 3 2 203.58 2.5
8 3 2 224.38 2.5
-8 -3 -2 201.78 2.3
-8 -3 -2 231.98 2.6
9 3 2 336.87 3.2
9 3 2 352.86 3.3
-9 -3 -2 354.66 3.2
-9 -3 -2 416.86 3.9
-8 4 2 26.6 1.6
-8 4 2 27.5 1.7
8 -4 -2 27.8 1.8
8 -4 -2 31.8 1.5
-7 4 2 449.06 3.3
7 -4 -2 410.56 3
-7 4 2 447.36 3.9
7 -4 -2 433.76 3.8
6 -4 -2 226.18 2.9
6 -4 -2 227.38 2.2
-6 4 2 254.97 2.4
-6 4 2 236.08 2.7
5 -4 -2 372.16 3.4
5 -4 -2 339.67 2.7
-5 4 2 369.86 3.3
4 -4 -2 516.35 3.7
-4 4 2 503.85 3.6
4 -4 -2 504.35 2.9
3 -4 -2 466.55 3.3
3 -4 -2 436.96 2.7
3 -4 -2 455.75 2.8
-3 4 2 479.05 3.5
2 -4 -2 1440.16 5.1
-2 4 2 1452.45 5.9
2 -4 -2 1434.76 5
2 -4 -2 1420.06 5.6
1 -4 -2 494.15 3.1
-1 4 2 519.65 3.7
1 -4 -2 495.35 3.2
1 -4 -2 533.65 3.4
0 -4 -2 3317.97 8.3
0 -4 -2 3225.48 7.9
0 4 2 3044.9 7.8
-1 -4 -2 234.18 2.7
1 4 2 251.57 2.4
-1 -4 -2 257.17 2.6
-1 -4 -2 260.37 2.5
-2 -4 -2 2940.51 8
-2 -4 -2 3049.5 8.1
2 4 2 3024.6 8
3 4 2 40.8 1.5
3 4 2 42 1.3
-3 -4 -2 38.4 1.3
-3 -4 -2 38.8 1.6
4 4 2 1577.34 5.8
4 4 2 1489.55 5.6
-4 -4 -2 1492.15 5.5
-4 -4 -2 1592.04 6
5 4 2 2.9 1
5 4 2 2.6 1.3
-5 -4 -2 12 1.1
-5 -4 -2 13.8 1.5
-6 -4 -2 427.76 3.2
6 4 2 445.56 3.2
6 4 2 397.26 3.2
-6 -4 -2 439.06 3.2
-7 -4 -2 82.49 1.9
7 4 2 86.69 1.8
-7 -4 -2 84.69 1.9
7 4 2 68.69 1.8
8 4 2 238.38 2.6
-8 -4 -2 251.57 2.8
8 4 2 287.07 2.8
-8 -4 -2 272.37 2.7
9 4 2 65.59 1.9
-9 -4 -2 65.79 1.8
9 4 2 60.59 1.6
-9 -4 -2 74.39 1.8
7 -5 -2 347.37 3
7 -5 -2 -12.7 4
-7 5 2 362.56 4.2
6 -5 -2 49.99 1.4
6 -5 -2 51.79 1.8
6 -5 -2 46.8 1.4
-6 5 2 53.19 1.7
5 -5 -2 826.32 3.9
-5 5 2 966.6 5.1
5 -5 -2 811.82 3.8
5 -5 -2 888.81 5.1
-4 5 2 62.39 1.7
4 -5 -2 60.39 1.5
4 -5 -2 63.59 1.3
4 -5 -2 57.69 1.7
3 -5 -2 1774.12 5.2
3 -5 -2 1750.82 6.1
-3 5 2 1899.71 6.6
3 -5 -2 1785.92 5.2
2 -5 -2 433.26 2.7
2 -5 -2 419.66 2.9
2 -5 -2 414.16 2.8
-2 5 2 448.36 3.4
1 -5 -2 2305.67 6.7
1 -5 -2 2326.27 6.4
1 -5 -2 2063.19 5.9
0 -5 -2 650.43 3.5
0 -5 -2 611.64 3.7
0 -5 -2 697.23 3.7
0 5 2 710.33 3.7
-1 -5 -2 870.21 4.3
1 5 2 864.31 4.2
-1 -5 -2 920.91 4.3
-1 -5 -2 959.6 4.4
-2 -5 -2 266.47 2.4
-2 -5 -2 296.47 2.7
2 5 2 285.27 2.6
3 5 2 742.03 3.8
-3 -5 -2 745.33 3.8
3 5 2 795.32 4
-3 -5 -2 773.92 4.1
4 5 2 623.04 3.5
-4 -5 -2 661.13 4
4 5 2 671.33 3.8
-4 -5 -2 659.53 3.5
5 5 2 14.9 1
5 5 2 11.3 1.3
-5 -5 -2 14.3 1.3
-5 -5 -2 14.4 1.4
-6 -5 -2 490.55 3.4
6 5 2 556.04 3.7
-6 -5 -2 531.85 3.3
6 5 2 507.15 3.2
-7 -5 -2 24.3 1.3
7 5 2 21 1.4
7 5 2 22.7 1.6
-7 -5 -2 20.6 1.3
-8 -5 -2 442.56 3.7
8 5 2 484.05 3.9
8 5 2 428.96 3.3
-8 -5 -2 475.15 3.6
7 -6 -2 324.27 3.1
-7 6 2 388.66 4.4
7 -6 -2 310.07 3
7 -6 -2 354.46 4.4
6 -6 -2 78.29 2
6 -6 -2 77.99 1.6
-6 6 2 95.19 2.1
6 -6 -2 78.79 1.7
-5 6 2 610.94 4.3
5 -6 -2 569.54 3.4
5 -6 -2 556.24 4.1
5 -6 -2 586.24 3.5
-4 6 2 221.48 2.6
4 -6 -2 186.18 2.3
4 -6 -2 193.08 2.2
4 -6 -2 185.08 2.2
3 -6 -2 1844.12 6.3
3 -6 -2 1753.12 5.3
3 -6 -2 1852.81 5.5
-3 6 2 2008.3 6.9
2 -6 -2 5.4 0.9
2 -6 -2 1.1 1.2
2 -6 -2 4.7 1.2
1 -6 -2 1507.05 5.1
1 -6 -2 1458.05 5
1 -6 -2 1583.64 5.4
1 -6 -2 1421.46 5.4
0 6 2 1.9 0.8
0 -6 -2 1.4 0.9
0 -6 -2 2.8 1.3
0 -6 -2 3 0.8
-1 -6 -2 1488.05 5.4
-1 -6 -2 1384.36 5.1
-1 -6 -2 1475.45 5.1
1 6 2 1400.06 5.2
-2 -6 -2 17 0.9
2 6 2 18.9 1.2
-2 -6 -2 18.9 1
-2 -6 -2 22.5 1.3
3 6 2 1353.66 4.9
-3 -6 -2 1374.36 5
-3 -6 -2 1434.06 5.6
3 6 2 1366.06 5.2
-4 -6 -2 653.23 4.1
4 6 2 630.34 3.8
-4 -6 -2 641.84 3.6
4 6 2 642.34 3.6
5 6 2 410.86 3
5 6 2 404.16 3.1
-5 -6 -2 412.26 3
-5 -6 -2 410.96 3.2
6 6 2 351.66 2.9
-6 -6 -2 387.36 3.1
-6 -6 -2 388.76 3.1
6 6 2 404.46 3.2
7 6 2 479.75 3.7
7 6 2 443.36 3.3
-7 -6 -2 456.15 3.3
-7 -6 -2 496.85 3.7
-8 -6 -2 244.98 2.9
8 6 2 202.78 2.6
8 6 2 244.28 3
-8 -6 -2 207.08 2.7
-6 7 2 292.57 3.7
6 -7 -2 267.87 3.7
6 -7 -2 250.97 2.5
6 -7 -2 247.28 2.5
5 -7 -2 87.09 2
5 -7 -2 79.59 1.6
-5 7 2 96.99 2.1
5 -7 -2 82.59 1.7
4 -7 -2 473.35 3
4 -7 -2 471.95 3
4 -7 -2 488.85 3.7
3 -7 -2 419.06 2.9
3 -7 -2 366.66 3.2
3 -7 -2 419.16 2.8
3 -7 -2 446.86 3.3
2 -7 -2 165.48 2
2 -7 -2 189.38 2.2
2 -7 -2 173.58 2
2 -7 -2 175.28 1.9
1 -7 -2 492.95 3.1
1 -7 -2 457.55 3.3
1 -7 -2 436.46 2.8
1 -7 -2 488.15 3
0 -7 -2 70.39 1.5
0 -7 -2 67.69 1.7
0 -7 -2 71.49 1.4
1 7 2 1064.89 4.6
-1 -7 -2 1069.29 4.4
-1 -7 -2 1152.98 4.4
-1 -7 -2 1091.29 4.6
-2 -7 -2 3.3 0.9
-2 -7 -2 4.6 1.2
-2 -7 -2 8.5 1.3
2 7 2 11 1.1
3 7 2 995 4.7
-3 -7 -2 999.1 4.3
-3 -7 -2 1030.3 4.9
4 7 2 4.1 1.1
-4 -7 -2 7.7 1.3
4 7 2 3.4 0.9
-4 -7 -2 14.3 1.1
5 7 2 927.31 4.3
-5 -7 -2 1020.4 4.6
-5 -7 -2 -58.49 5.6
5 7 2 944.21 4.7
6 7 2 23.8 1.3
6 7 2 23.7 1.6
-6 -7 -2 24.8 1.6
-6 -7 -2 23.8 1.4
7 7 2 496.35 4.2
-7 -7 -2 461.35 3.4
-7 -7 -2 515.65 4.2
7 7 2 439.56 3.3
5 -8 -2 1.5 1.3
5 -8 -2 9.8 1.4
5 -8 -2 9.5 1.3
5 -8 -2 10.6 1.4
4 -8 -2 256.97 2.4
4 -8 -2 274.07 2.7
4 -8 -2 270.67 2.6
4 -8 -2 241.98 2.8
3 -8 -2 46 1.5
3 -8 -2 37.9 1.5
3 -8 -2 40.2 1.4
3 -8 -2 1.3 1.6
2 -8 -2 429.26 2.9
2 -8 -2 457.15 2.9
2 -8 -2 408.56 3.2
2 -8 -2 469.55 3.2
1 -8 -2 -46 3.3
1 -8 -2 339.47 2.8
1 -8 -2 377.56 2.7
1 -8 -2 335.87 2.7
0 -8 -2 575.64 3.6
0 -8 -2 545.35 3.6
0 -8 -2 546.25 3.4
0 -8 -2 563.44 3.4
-1 -8 -2 515.95 3.1
-1 -8 -2 485.45 3.2
-1 -8 -2 505.15 3.3
1 8 2 499.35 3.4
-2 -8 -2 508.65 3.5
-2 -8 -2 519.25 3.2
-2 -8 -2 563.34 3.4
2 8 2 486.45 3.5
-3 -8 -2 459.65 3.5
-3 -8 -2 426.56 3.2
-3 -8 -2 471.25 3.2
3 8 2 441.46 3.4
4 8 2 310.27 3
4 8 2 336.87 2.7
-4 -8 -2 346.37 2.9
-4 -8 -2 334.77 3.3
5 8 2 376.96 3.3
-5 -8 -2 410.56 3.1
5 8 2 370.56 3.1
-5 -8 -2 177.98 3.7
6 8 2 58.99 1.9
6 8 2 50.49 1.7
-6 -8 -2 57.09 1.9
-6 -8 -2 40.8 1.9
4 -9 -2 148.49 2.2
4 -9 -2 138.89 2.5
4 -9 -2 170.68 2.5
4 -9 -2 151.78 2.2
3 -9 -2 9.5 1.3
3 -9 -2 9 1.2
3 -9 -2 9.6 1.2
3 -9 -2 10 1.4
2 -9 -2 704.23 3.9
2 -9 -2 721.63 4
2 -9 -2 797.42 4.2
2 -9 -2 706.93 4.3
1 -9 -2 6 1.1
1 -9 -2 6.7 1.1
1 -9 -2 7.3 1.2
1 -9 -2 1.9 1.4
0 -9 -2 777.02 4.2
0 -9 -2 764.92 4
0 -9 -2 800.72 4.4
0 -9 -2 795.92 4.1
-1 -9 -2 2.3 1
-1 -9 -2 4.4 1.2
-1 -9 -2 4 1.3
2 9 2 719.83 4.4
-2 -9 -2 600.34 4
-2 -9 -2 675.43 4.3
-2 -9 -2 679.93 4
-3 -9 -2 67.99 1.7
-3 -9 -2 77.79 1.9
-3 -9 -2 77.19 1.9
3 9 2 77.39 1.8
-4 -9 -2 242.78 2.7
4 9 2 241.88 3
-4 -9 -2 162.38 3.3
5 9 2 78.29 2.1
-5 -9 -2 88.19 1.8
-5 -9 -2 -1.6 2.4
3 -10 -2 147.39 2.3
3 -10 -2 123.69 2.2
3 -10 -2 140.89 2.2
3 -10 -2 126.49 2.1
2 -10 -2 212.38 2.5
2 -10 -2 214.88 2.9
2 -10 -2 216.88 2.5
2 -10 -2 215.68 2.7
1 -10 -2 122.69 2.2
1 -10 -2 126.39 2.2
1 -10 -2 120.39 2.1
1 -10 -2 138.39 2.2
0 -10 -2 114.49 1.9
0 -10 -2 124.19 2.1
0 -10 -2 123.99 2
0 -10 -2 123.19 2
-1 -10 -2 57.39 1.8
-1 -10 -2 61.99 1.9
-1 -10 -2 53.59 1.5
-1 -10 -2 55.89 1.5
-2 -10 -2 251.17 2.7
2 10 2 245.88 3.2
-2 -10 -2 248.38 3.1
-2 -10 -2 235.08 2.5
-3 -10 -2 0.1 1.4
3 10 2 0.8 1.3
-3 -10 -2 0.6 1.4
-3 -10 -2 -0.5 1.4
-4 -10 -2 244.68 2.8
-4 -10 -2 248.18 2.9
-4 -10 -2 252.87 3.6
4 10 2 232.78 3.3
0 10 -3 76.99 1.8
0 -10 3 80.19 2.1
1 -10 3 373.06 3.6
2 -10 3 59.79 3.6
2 -10 3 54.79 3.8
2 -10 3 55.99 2
2 -10 3 64.19 2
3 -10 3 343.27 4.6
3 -10 3 167.78 3.8
3 -10 3 246.48 5.5
3 -10 3 285.97 4.1
3 9 -3 48.2 1.8
-3 -9 3 58.09 1.8
2 9 -3 516.65 4
-2 -9 3 464.25 3.8
1 9 -3 111.09 2
-1 -9 3 103.29 1.9
0 9 -3 443.46 3.6
0 -9 3 437.16 3.5
-1 9 -3 212.18 2.7
1 -9 3 235.18 2.8
2 -9 3 175.78 4.4
2 -9 3 151.78 2.3
2 -9 3 168.68 3.6
2 -9 3 190.58 2.5
3 -9 3 69.49 3
3 -9 3 168.38 3.4
3 -9 3 165.98 2.8
3 -9 3 177.58 2.7
4 -9 3 54.09 1.8
4 -9 3 57.89 2.3
4 -9 3 57.89 2.1
4 -9 3 67.79 2.1
5 -9 3 214.48 2.8
5 -9 3 222.38 4.7
5 -9 3 236.78 5.4
5 -9 3 231.48 3.2
4 8 -3 390.36 3.4
-4 -8 3 398.96 3.5
3 8 -3 -0.2 1.4
-3 -8 3 29.5 1.4
2 8 -3 565.14 3.8
-2 -8 3 569.04 3.8
1 8 -3 6.5 1.2
-1 -8 3 3.4 1.5
0 -8 3 529.35 3.7
0 8 -3 547.35 3.6
-1 8 -3 9.6 1
1 -8 3 4.3 1.4
2 -8 3 554.34 5
2 -8 3 526.35 3.9
2 -8 3 627.64 6.3
3 -8 3 103.49 2.1
3 -8 3 89.69 2.1
3 -8 3 89.49 2.3
3 -8 3 89.59 2.6
4 -8 3 304.57 3.4
4 -8 3 291.67 3.2
4 -8 3 359.16 4.3
4 -8 3 390.96 4.1
5 -8 3 268.97 2.9
5 -8 3 352.06 5.6
5 -8 3 273.67 3
5 -8 3 337.17 5.1
6 -8 3 171.08 2.4
5 7 -3 248.38 4.6
-5 -7 3 257.57 3
5 7 -3 178.78 2.9
4 7 -3 99.49 3.8
4 7 -3 108.69 4
4 7 -3 104.29 2.2
-4 -7 3 122.09 2.3
3 7 -3 248.18 2.7
-3 -7 3 249.88 3
-2 -7 3 249.78 2.5
2 7 -3 266.67 2.5
1 7 -3 163.98 2.3
-1 -7 3 152.18 2.3
0 7 -3 421.86 3.2
0 -7 3 413.26 3.3
1 -7 3 250.17 2.8
-1 7 -3 261.07 2.8
-2 7 -3 1046.7 5.2
2 -7 3 1038.4 6.2
2 -7 3 1026.6 5.5
2 -7 3 1102.49 7.7
3 -7 3 4.6 1.3
3 -7 3 5.7 1.5
3 -7 3 5.6 1.5
3 -7 3 1 1.3
4 -7 3 1083.69 6.8
4 -7 3 887.51 5.2
4 -7 3 1012.1 7.2
5 -7 3 15 1.4
5 -7 3 11.2 2.1
-5 7 -3 12.1 1.3
5 -7 3 11.8 2.4
6 -7 3 774.42 4.4
-6 7 -3 906.01 4.7
-7 7 -3 4.3 1.6
7 -7 3 4.4 1.1
-6 -6 3 4.3 1.7
6 6 -3 3.1 1.2
6 6 -3 3.6 1.5
-6 -6 3 4 1.3
-5 -6 3 494.95 4.8
5 6 -3 488.15 3.5
5 6 -3 523.55 5.3
-5 -6 3 535.55 3.8
-4 -6 3 35.2 1.8
4 6 -3 32.8 1.6
4 6 -3 33 1.9
-4 -6 3 16.5 1.7
3 6 -3 685.43 8
3 6 -3 720.93 8.1
-3 -6 3 662.33 4.1
3 6 -3 639.04 3.9
2 6 -3 254.57 2.6
-2 -6 3 239.38 2.4
1 6 -3 1023.5 4.7
-1 -6 3 985.7 4.5
0 6 -3 591.74 3.9
0 -6 3 545.65 3.7
1 -6 3 872.51 10
1 -6 3 806.02 4.6
1 -6 3 777.02 10.8
-1 6 -3 867.81 4.7
-2 6 -3 1141.49 5.6
2 -6 3 1175.38 6.5
2 -6 3 1173.58 5.9
2 -6 3 1314.47 8
3 -6 3 622.84 4.7
3 -6 3 554.44 4.4
3 -6 3 551.84 4.7
-3 6 -3 591.54 4.2
-4 6 -3 862.01 4.9
4 -6 3 757.32 4.7
4 -6 3 944.11 6.7
4 -6 3 887.91 7.3
-5 6 -3 -32.8 3.8
5 -6 3 404.16 3.3
-6 6 -3 816.72 4.3
6 -6 3 709.63 4.1
-7 6 -3 14 1.5
7 -6 3 11.8 1.1
-8 6 -3 298.07 2.8
8 -6 3 251.97 2.8
7 5 -3 148.79 2.3
7 5 -3 158.78 2.9
-7 -5 3 159.78 2.6
-7 -5 3 158.08 2.5
-6 -5 3 18.4 1.6
6 5 -3 30.8 1.4
6 5 -3 31.5 1.8
-6 -5 3 34.6 1.7
5 5 -3 384.96 3.1
-5 -5 3 406.46 3.3
5 5 -3 356.26 4.1
-5 -5 3 -15.7 4.1
4 5 -3 4.4 1.5
-4 -5 3 5 1.5
-4 -5 3 4 1.5
4 5 -3 6.3 1
-3 -5 3 1362.36 5.4
3 5 -3 1318.17 8.2
3 5 -3 1258.57 5
-3 -5 3 1360.46 7.9
2 5 -3 31.9 3.8
2 5 -3 24.5 3.7
2 5 -3 30.7 1.2
-2 -5 3 28.1 1.4
1 5 -3 2778.62 7.5
-1 -5 3 2857.11 7.8
0 5 -3 235.48 2.5
0 -5 3 220.58 2.7
1 -5 3 2283.77 14.2
-1 5 -3 2515.75 8.2
1 -5 3 2319.97 8.1
1 -5 3 2120.19 15.7
-2 5 -3 289.87 3.6
2 -5 3 299.87 4.2
2 -5 3 272.17 3.3
-2 5 -3 277.37 3.2
3 -5 3 1158.18 6.2
3 -5 3 1224.28 7.5
-3 5 -3 1291.77 6.2
4 -5 3 184.68 4.4
4 -5 3 161.58 2.4
4 -5 3 183.88 4
-4 5 -3 195.78 2.5
5 -5 3 343.07 2.9
-5 5 -3 391.96 3.1
6 -5 3 260.47 2.5
-6 5 -3 303.87 2.7
7 -5 3 126.59 2
-7 5 -3 156.88 2.1
8 -5 3 -47.7 2.9
-8 5 -3 339.27 2.9
-7 -4 3 85.49 2
-7 -4 3 74.79 1.9
7 4 -3 68.79 1.8
7 4 -3 76.89 2.2
-6 -4 3 196.08 2.4
-6 -4 3 -44.9 2.4
6 4 -3 3.4 2.8
6 4 -3 156.58 2.5
5 4 -3 280.17 2.8
-5 -4 3 -24 3.2
5 4 -3 281.37 3.4
-5 -4 3 310.07 2.7
-4 -4 3 322.37 3.6
4 4 -3 434.16 4.1
4 4 -3 428.16 3.3
-4 -4 3 452.35 3.2
-3 -4 3 1210.28 6.4
-3 -4 3 1269.47 5
3 4 -3 1206.68 7.5
3 4 -3 1244.98 5
2 4 -3 607.24 3.7
-2 -4 3 626.84 3.8
2 4 -3 562.94 6.4
2 4 -3 584.94 5.9
-1 -4 3 1081.29 5.1
1 4 -3 1051.49 4.9
0 4 -3 407.76 3.5
0 -4 3 378.96 3.3
-1 4 -3 1458.25 6.8
1 -4 3 1355.96 6.6
1 -4 3 1285.47 10.8
2 -4 3 173.78 3.2
-2 4 -3 174.78 2.9
2 -4 3 164.98 2.9
-2 4 -3 175.78 3
-3 4 -3 1318.57 8.4
3 -4 3 1396.46 6.8
3 -4 3 1388.56 9.3
-3 4 -3 1451.35 6.7
4 -4 3 12.1 1.5
-4 4 -3 7 1.5
5 -4 3 1249.28 5.4
-5 4 -3 1309.37 5.2
6 -4 3 19.1 1.6
-6 4 -3 10.2 1.1
7 -4 3 941.91 4.4
-7 4 -3 1091.29 4.5
8 -4 3 89.89 1.8
-8 4 -3 101.19 1.7
9 -4 3 336.37 2.9
-9 4 -3 -65.69 2.5
-7 -3 3 15.9 1.3
-7 -3 3 9.9 1.4
7 3 -3 12.9 1.6
7 3 -3 12.1 1.5
-6 -3 3 -43.9 4.1
-6 -3 3 685.33 4.1
6 3 -3 610.24 3.8
6 3 -3 331.97 4.3
-5 -3 3 137.59 2.2
-5 -3 3 164.38 2.2
5 3 -3 142.19 1.9
5 3 -3 154.68 2.5
4 3 -3 1994.6 7.9
-4 -3 3 1746.33 6.6
4 3 -3 1792.02 6
-4 -3 3 1918.61 6.3
-3 -3 3 232.08 2.8
3 3 -3 245.48 3.2
-3 -3 3 239.48 2.4
3 3 -3 224.88 2.4
2 3 -3 1255.97 5.4
2 3 -3 1414.56 8.5
-2 -3 3 1324.87 5.5
1 3 -3 174.18 4
1 3 -3 198.18 2.5
1 3 -3 201.88 5.2
-1 -3 3 192.48 2.7
0 3 -3 1191.28 6
0 -3 3 1167.38 5.9
1 -3 3 1018.6 8.4
-1 3 -3 1124.39 6.5
-1 3 -3 1111.89 10.3
1 -3 3 1066.69 6.3
2 -3 3 860.31 6.3
-2 3 -3 965.4 7.2
-2 3 -3 875.91 6.4
2 -3 3 909.01 6.8
-3 3 -3 4061.69 11.2
-3 3 -3 3118.09 17.3
3 -3 3 3554.54 19.1
3 -3 3 4302.57 11.8
-4 3 -3 103.19 1.9
4 -3 3 98.09 1.9
-5 3 -3 2153.78 6.5
5 -3 3 1946.61 6.2
6 -3 3 117.69 2
-6 3 -3 126.19 1.7
7 -3 3 1333.37 4.9
-7 3 -3 1448.06 5.1
-8 3 -3 0.5 1
8 -3 3 0.1 1.4
9 -3 3 445.26 3.5
-9 3 -3 521.15 3.4
-8 -2 3 231.08 2.8
8 2 -3 205.88 2.5
8 2 -3 99.09 2.7
-8 -2 3 231.18 2.8
-7 -2 3 99.59 1.7
7 2 -3 94.09 2
7 2 -3 94.19 1.9
-7 -2 3 115.89 2
-6 -2 3 -86.39 3.9
6 2 -3 546.15 3.5
-6 -2 3 624.64 3.8
6 2 -3 598.54 3.9
-5 -2 3 376.76 3.1
5 2 -3 421.46 3
-5 -2 3 466.05 3.1
5 2 -3 439.96 3.5
-4 -2 3 1468.65 5.6
-4 -2 3 1614.34 5.7
4 2 -3 1363.46 5.1
4 2 -3 1597.14 6.4
-3 -2 3 9.6 1.3
-3 -2 3 8.6 1.3
3 2 -3 10.3 1
3 2 -3 11 1.2
-2 -2 3 1023.9 5.1
2 2 -3 928.81 4.9
2 2 -3 974.6 6.1
1 2 -3 232.18 3.4
-1 -2 3 256.97 2.9
1 2 -3 246.38 2.9
1 2 -3 250.67 3.9
0 -2 3 2655.13 9.5
0 -2 3 2617.84 13.2
0 2 -3 2567.34 13.3
0 2 -3 2655.73 9.4
1 -2 3 1033.7 6.7
1 -2 3 1021 7.3
-1 2 -3 1038.5 8.4
-1 2 -3 976.2 7
-2 2 -3 4222.08 17.1
2 -2 3 4202.68 13
-2 2 -3 4156.48 14
2 -2 3 4015.2 15.6
-3 2 -3 1940.81 22.2
-3 2 -3 1837.12 7.8
3 -2 3 1781.12 7.5
4 -2 3 1697.93 6.5
-4 2 -3 1792.62 6.7
-5 2 -3 524.55 3.4
5 -2 3 528.85 3.6
6 -2 3 804.72 4.1
-6 2 -3 847.32 4
-6 2 -3 1024.3 12.3
-6 2 -3 815.82 12
7 -2 3 1050.09 4.5
-7 2 -3 1116.79 9.9
-7 2 -3 1113.19 4.5
8 -2 3 53.99 2.3
8 -2 3 57.69 1.6
-8 2 -3 66.49 2.8
-8 2 -3 62.29 1.4
9 -2 3 262.87 2.8
-9 2 -3 290.57 5.1
-9 2 -3 -58.69 2.5
-8 -1 3 59.29 1.8
8 1 -3 51.39 1.8
8 1 -3 47.6 1.7
-8 -1 3 54.99 1.7
-7 -1 3 447.66 3.2
-7 -1 3 453.65 3.4
7 1 -3 426.16 3.4
7 1 -3 402.16 3.1
-6 -1 3 136.49 1.8
-6 -1 3 151.88 2.1
6 1 -3 131.99 1.9
6 1 -3 139.39 2.1
-5 -1 3 950.8 4.4
-5 -1 3 780.32 4
5 1 -3 875.61 4.3
5 1 -3 861.41 4.5
-4 -1 3 639.84 3.7
-4 -1 3 644.84 3.8
4 1 -3 632.14 3.7
4 1 -3 639.34 3.8
-3 -1 3 381.96 3
3 1 -3 374.46 3.2
3 1 -3 353.46 2.9
-3 -1 3 364.16 3
-2 -1 3 1546.95 6.4
2 1 -3 1464.95 6.1
2 1 -3 1514.65 6.5
1 1 -3 1308.97 6.9
-1 -1 3 1292.37 6.4
1 1 -3 1327.57 6.6
1 1 -3 1301.17 6.4
0 -1 3 4138.19 13.4
0 1 -3 4293.87 13.9
0 -1 3 5253.47 13.8
0 1 -3 4776.82 13.6
-1 1 -3 208.88 3.5
1 -1 3 210.08 3.4
-1 1 -3 220.58 3.3
1 -1 3 215.58 3.2
2 -1 3 5039.9 16.5
-2 1 -3 4385.46 18
2 -1 3 4882.01 13.3
-2 1 -3 5353.96 14.4
3 -1 3 138.99 2.3
-3 1 -3 132.99 3.6
-3 1 -3 155.38 2.7
-3 1 -3 137.09 4
-4 1 -3 3071.99 15.5
-4 1 -3 3439.06 18.4
4 -1 3 3286.07 9
-4 1 -3 3364.06 9.2
5 -1 3 35.5 1.2
-5 1 -3 37.8 1.3
-5 1 -3 40.5 2.5
-5 1 -3 42.9 2
6 -1 3 1506.95 8.4
-6 1 -3 1831.12 10.7
6 -1 3 1629.74 5.7
-6 1 -3 1716.83 5.7
-7 1 -3 363.26 2.8
-7 1 -3 390.86 4.6
7 -1 3 302.57 3.7
7 -1 3 336.87 2.9
-8 1 -3 388.06 4.7
8 -1 3 322.07 2.8
-8 1 -3 346.67 2.6
8 -1 3 300.57 3.8
-9 1 -3 164.68 3.5
9 -1 3 -19.3 2
-9 1 -3 156.28 2.2
9 -1 3 133.99 2.9
10 -1 3 130.49 3.4
-10 1 -3 55.39 3.7
10 -1 3 140.09 2.4
-10 1 -3 -8.8 2.4
-8 0 3 -0.3 1.3
8 0 -3 -0.1 1.3
-8 0 3 2 1.6
8 0 -3 3 1.5
-7 0 3 476.05 3.3
-7 0 3 446.66 3.4
7 0 -3 412.36 3.3
7 0 -3 442.26 3.1
-6 0 3 41.2 1.5
6 0 -3 37.2 1.5
-6 0 3 35.4 1.6
6 0 -3 38.6 1.6
-5 0 3 820.92 3.8
5 0 -3 806.92 4.1
5 0 -3 830.12 3.9
-5 0 3 826.42 4.2
-4 0 3 226.08 2.1
-4 0 3 231.38 2.4
4 0 -3 213.38 2.3
4 0 -3 215.88 2.2
-3 0 3 3263.77 7.8
-3 0 3 2985.7 8.3
3 0 -3 3319.17 7.9
3 0 -3 3000.8 8.2
2 0 -3 1736.33 6.2
2 0 -3 1587.64 6.4
2 0 -3 1732.33 6.3
-2 0 3 1726.53 6.9
1 0 -3 3839.22 10.2
1 0 -3 3767.52 9.9
1 0 -3 3618.64 10.3
-1 0 3 3554.24 10.6
0 0 3 2690.93 9.7
0 0 -3 2813.92 9.4
0 0 3 2729.33 9.2
0 0 -3 2631.14 9.9
1 0 3 2135.09 8.4
-1 0 -3 2064.59 8.3
-1 0 -3 1928.71 8.9
1 0 3 2045.3 8.8
2 0 3 1597.94 8.2
-2 0 -3 1452.15 8.1
2 0 3 1395.86 6.7
-2 0 -3 1439.56 6.7
3 0 3 363.46 3.3
-3 0 -3 365.86 3.5
-3 0 -3 319.07 4
-3 0 -3 374.26 4.5
-4 0 -3 1293.37 5.5
-4 0 -3 1308.77 7.9
-4 0 -3 1415.86 7.6
4 0 3 1266.97 5.6
5 0 3 6.2 1.4
5 0 3 11.4 1
-5 0 -3 13.9 1.6
-5 0 -3 7.7 1
6 0 3 978.9 5.9
6 0 3 1136.29 4.9
-6 0 -3 1215.38 7.1
-6 0 -3 1177.78 4.9
7 0 3 0.5 1.3
7 0 3 0.4 1.4
-7 0 -3 1.8 1.3
-7 0 -3 2.2 1.4
-8 0 -3 919.31 4.2
8 0 3 832.72 5.4
8 0 3 888.41 4.3
-8 0 -3 1040.6 6.5
-9 0 -3 32.3 2.1
9 0 3 26.1 1.5
9 0 3 26.1 1.3
-9 0 -3 27.5 1.5
-10 0 -3 465.65 5.2
10 0 3 385.36 4.2
10 0 3 377.46 3.4
-10 0 -3 437.06 3.5
-8 1 3 64.09 1.8
-8 1 3 64.59 1.9
8 -1 -3 57.69 1.7
8 -1 -3 56.39 1.6
-7 1 3 474.85 3.1
7 -1 -3 426.76 3.3
7 -1 -3 457.35 3.5
-7 1 3 461.25 3.5
-6 1 3 91.69 2
-6 1 3 86.09 1.6
6 -1 -3 86.59 1.9
6 -1 -3 88.99 1.8
-5 1 3 1271.27 4.5
5 -1 -3 1207.98 5.1
-5 1 3 1265.67 5.3
5 -1 -3 1279.07 4.6
-4 1 3 217.68 2.2
4 -1 -3 206.28 2.2
4 -1 -3 202.28 2.5
-4 1 3 210.18 2.5
3 -1 -3 3174.68 8.4
-3 1 3 3288.47 8.6
3 -1 -3 3343.77 7.6
2 -1 -3 58.79 1.6
2 -1 -3 52.39 1.9
2 -1 -3 54.79 1.7
-2 1 3 53.59 1.7
1 -1 -3 2375.56 7.3
1 -1 -3 2226.18 7.8
-1 1 3 2225.98 8
0 1 3 123.09 2.4
0 -1 -3 110.89 2.1
0 -1 -3 108.39 1.9
0 1 3 140.99 2
-1 -1 -3 6962.2 14.6
1 1 3 6670.33 13.2
1 1 3 7179.18 14.7
-1 -1 -3 7261.77 14
-2 -1 -3 348.47 3.3
2 1 3 365.06 3.3
2 1 3 371.06 3.6
-2 -1 -3 347.57 3.5
-3 -1 -3 1215.88 6.4
-3 -1 -3 1342.07 5.7
-3 -1 -3 1473.55 7
3 1 3 1264.67 5.7
4 1 3 1199.78 5.3
-4 -1 -3 1225.28 5.3
-4 -1 -3 1164.18 6.3
5 1 3 863.71 4.2
5 1 3 840.42 5
-5 -1 -3 976.7 5.6
-5 -1 -3 862.21 4.3
-6 -1 -3 1136.69 6
6 1 3 1014.3 4.4
-6 -1 -3 1035.4 4.6
6 1 3 937.01 5.1
-7 -1 -3 464.55 3.2
7 1 3 441.96 3.4
7 1 3 459.55 3.1
-7 -1 -3 559.94 4.3
8 1 3 653.83 4.3
8 1 3 677.53 3.8
-8 -1 -3 759.12 3.8
-8 -1 -3 439.26 5.8
9 1 3 85.89 2
9 1 3 84.49 2
-9 -1 -3 87.89 1.8
-9 -1 -3 111.09 2.3
-10 -1 -3 253.57 3.4
10 1 3 206.68 2.5
10 1 3 221.18 3.1
-10 -1 -3 201.28 2.5
-8 2 3 191.48 2.4
8 -2 -3 181.08 2.7
8 -2 -3 163.98 2.4
-8 2 3 192.28 2.8
-7 2 3 143.19 2.2
7 -2 -3 -2.2 2.2
-7 2 3 132.59 2.1
7 -2 -3 129.89 2.1
-6 2 3 666.23 3.4
-6 2 3 625.44 3.9
6 -2 -3 586.04 3.5
6 -2 -3 578.84 3.8
-5 2 3 548.35 3
-5 2 3 497.45 3.4
5 -2 -3 541.05 3.1
5 -2 -3 510.35 3.6
4 -2 -3 819.62 4.4
4 -2 -3 760.82 3.5
-4 2 3 767.72 4.2
3 -2 -3 1066.59 5
-3 2 3 990.5 4.9
3 -2 -3 952 4
3 -2 -3 953.8 4.1
2 -2 -3 402.96 2.9
2 -2 -3 399.96 2.8
2 -2 -3 397.56 3.2
-2 2 3 404.56 3.4
-1 2 3 1612.44 6.3
-1 2 3 1583.54 5.5
1 -2 -3 1529.25 5.5
1 -2 -3 1535.15 6
0 -2 -3 1819.42 6.8
0 2 3 1755.82 6.1
0 -2 -3 1610.94 6.1
0 2 3 1793.22 6.9
1 2 3 4118.99 9.4
-1 -2 -3 4232.28 9.6
1 2 3 4154.28 10
-1 -2 -3 3807.52 9.8
-2 -2 -3 249.28 2.9
2 2 3 211.98 2.4
-2 -2 -3 231.28 2.6
-3 -2 -3 3326.27 8.5
-3 -2 -3 3333.27 9.2
3 2 3 3623.54 8.9
-3 -2 -3 3705.73 9.9
4 2 3 95.19 1.8
4 2 3 110.89 2.1
-4 -2 -3 110.89 2
-4 -2 -3 109.59 2.2
5 2 3 3733.13 8.6
-5 -2 -3 3799.52 9.8
-5 -2 -3 3439.66 8.3
5 2 3 3265.17 8.9
-6 -2 -3 107.19 1.6
6 2 3 113.99 1.8
-6 -2 -3 123.39 2.2
6 2 3 104.49 2
7 2 3 1064.79 5
7 2 3 1220.08 4.8
-7 -2 -3 1292.17 5.8
-7 -2 -3 1230.78 4.9
8 2 3 77.89 1.8
8 2 3 89.69 2
-8 -2 -3 87.09 1.9
-8 -2 -3 75.29 1.6
9 2 3 285.27 3.1
9 2 3 290.67 2.9
-9 -2 -3 62.49 3.7
-9 -2 -3 284.47 2.8
-8 3 3 250.07 3.4
8 -3 -3 237.28 3.2
8 -3 -3 240.88 2.8
7 -3 -3 0.6 1.5
7 -3 -3 8 1.4
-7 3 3 6.5 1.6
6 -3 -3 674.63 3.7
6 -3 -3 674.63 4.3
-6 3 3 681.83 4.2
5 -3 -3 50.39 1.5
-5 3 3 51.09 1.4
5 -3 -3 58.19 1.7
4 -3 -3 866.01 3.6
4 -3 -3 878.61 4.4
-4 3 3 875.41 4.4
4 -3 -3 871.21 3.7
-3 3 3 609.34 3.7
3 -3 -3 605.64 3.8
3 -3 -3 595.44 3.2
3 -3 -3 609.24 3.2
2 -3 -3 950.5 4
2 -3 -3 978.3 4.1
2 -3 -3 996.8 4.6
-2 3 3 1027.1 4.8
1 -3 -3 1190.78 4.7
-1 3 3 1217.58 5.3
-1 3 3 1126.99 4.5
1 -3 -3 1203.78 5.1
0 -3 -3 929.71 4.2
0 -3 -3 980.7 4.6
0 3 3 914.61 4.2
0 3 3 1029.1 4.8
-1 -3 -3 2385.36 7.2
-1 -3 -3 2352.26 6.8
1 3 3 2260.17 6.7
1 3 3 2626.84 7.5
-2 -3 -3 1017.7 4.8
-2 -3 -3 976.7 4.6
2 3 3 934.51 4.4
-2 -3 -3 861.01 4.4
-3 -3 -3 3014.6 8.1
-3 -3 -3 2640.34 7.2
3 3 3 2692.53 7.2
-3 -3 -3 2578.04 7.5
4 3 3 874.11 4.4
4 3 3 932.81 4.3
-4 -3 -3 948.91 4.4
-4 -3 -3 935.11 4.5
5 3 3 1774.92 6
-5 -3 -3 1849.81 6.2
5 3 3 1980.3 6.1
-5 -3 -3 1870.21 5.9
6 3 3 69.79 1.6
-6 -3 -3 67.89 1.7
-6 -3 -3 69.69 1.8
6 3 3 58.99 1.7
7 3 3 645.04 3.7
7 3 3 832.52 4.2
-7 -3 -3 808.62 4.3
-7 -3 -3 777.52 4
8 3 3 8.1 1.3
8 3 3 8.2 1.5
-8 -3 -3 10 1.2
-8 -3 -3 10.2 1.1
9 3 3 277.27 2.9
9 3 3 229.48 2.6
-9 -3 -3 260.97 2.7
-9 -3 -3 276.07 3.2
7 -4 -3 55.49 1.9
-7 4 3 51.09 1.6
7 -4 -3 42.1 1.6
7 -4 -3 45.6 1.4
-6 4 3 294.47 3
6 -4 -3 280.07 2.4
6 -4 -3 288.47 2.5
6 -4 -3 267.87 2.9
5 -4 -3 27.4 1.5
5 -4 -3 23.4 1
5 -4 -3 23.4 1
-5 4 3 27.4 1.4
4 -4 -3 836.12 3.7
-4 4 3 835.02 4.4
4 -4 -3 832.72 4.4
4 -4 -3 827.62 3.6
3 -4 -3 64.99 1.2
3 -4 -3 67.19 1.4
-3 4 3 75.39 1.8
3 -4 -3 66.49 1.3
2 -4 -3 1842.52 5.4
2 -4 -3 1969.9 6.1
2 -4 -3 1795.82 5.2
-2 4 3 2017.5 6.4
1 -4 -3 291.57 2.6
-1 4 3 291.37 2.6
1 -4 -3 267.67 2.2
0 -4 -3 2864.61 6.9
0 4 3 2898.51 7.1
0 -4 -3 2868.61 7.3
0 4 3 3232.68 8
-1 -4 -3 932.21 4.1
1 4 3 845.82 4
-1 -4 -3 937.81 4.4
-2 -4 -3 2357.06 6.8
-2 -4 -3 2622.04 6.9
-2 -4 -3 2682.83 7.2
2 4 3 2530.45 6.8
-3 -4 -3 572.34 3.3
3 4 3 566.94 3.3
-3 -4 -3 631.14 3.7
-3 -4 -3 529.85 3.3
4 4 3 907.51 4.1
-4 -4 -3 900.41 4.3
4 4 3 825.42 4
-4 -4 -3 890.01 4.2
5 4 3 527.75 3.3
-5 -4 -3 544.75 3.2
5 4 3 575.24 3.3
-5 -4 -3 567.24 3.5
-6 -4 -3 268.97 2.5
6 4 3 242.78 2.4
6 4 3 290.97 2.7
-6 -4 -3 277.57 2.5
7 4 3 408.66 3
-7 -4 -3 468.05 3.3
-7 -4 -3 491.95 3.3
7 4 3 508.05 3.4
-8 -4 -3 28.1 1.7
8 4 3 39.4 1.3
8 4 3 27 1.4
-8 -4 -3 32.4 1.3
9 4 3 319.27 3.1
9 4 3 259.07 3
-9 -4 -3 279.87 3.4
-9 -4 -3 270.07 2.8
7 -5 -3 83.19 2.1
7 -5 -3 80.39 2
7 -5 -3 81.19 1.7
-7 5 3 94.79 2
6 -5 -3 105.89 2.1
6 -5 -3 98.69 1.6
-6 5 3 112.49 2.1
6 -5 -3 91.99 1.7
5 -5 -3 216.78 2.3
-5 5 3 248.08 2.7
5 -5 -3 246.58 2.8
5 -5 -3 212.88 2.1
-4 5 3 746.93 4.2
4 -5 -3 679.53 3.3
4 -5 -3 713.03 3.5
4 -5 -3 706.23 4.1
-3 5 3 528.95 3.4
3 -5 -3 464.95 2.7
3 -5 -3 504.25 3.2
3 -5 -3 479.35 2.8
2 -5 -3 1305.97 4.5
2 -5 -3 1299.47 4.4
2 -5 -3 1397.46 5
-2 5 3 1361.46 5.2
1 -5 -3 460.85 3
1 -5 -3 434.16 2.8
-1 5 3 482.45 3.1
0 -5 -3 1479.95 4.8
0 5 3 1421.86 4.8
0 -5 -3 1524.35 5.2
1 5 3 85.29 1.4
-1 -5 -3 86.99 1.4
-1 -5 -3 92.99 1.7
-1 -5 -3 78.69 1.6
-2 -5 -3 775.62 3.8
-2 -5 -3 931.51 4.2
-2 -5 -3 919.61 4
2 5 3 867.41 3.9
-3 -5 -3 26.2 1.3
-3 -5 -3 23 1
3 5 3 25 1
-3 -5 -3 25.7 1.1
4 5 3 1037.2 4.3
-4 -5 -3 1042.7 4.6
-4 -5 -3 1002.3 4.2
4 5 3 963.3 4.2
-5 -5 -3 163.98 2.1
5 5 3 173.08 2.1
5 5 3 151.08 1.9
-5 -5 -3 179.18 2.3
-6 -5 -3 710.13 3.8
6 5 3 735.73 4
-6 -5 -3 764.62 3.9
6 5 3 687.73 3.8
7 5 3 142.89 2.1
-7 -5 -3 164.98 2.3
7 5 3 155.98 2.1
-7 -5 -3 161.18 2
8 5 3 465.35 3.4
-8 -5 -3 474.85 3.6
-8 -5 -3 437.26 3.3
8 5 3 402.86 3.1
9 5 3 146.69 2.1
9 5 3 174.98 2.3
-9 -5 -3 -9.7 2.7
-9 -5 -3 150.28 2.2
6 -6 -3 45.2 1.7
6 -6 -3 39.6 1.5
-6 6 3 48.3 1.7
6 -6 -3 39.2 1.6
5 -6 -3 817.22 4.8
5 -6 -3 690.43 3.9
-5 6 3 447.66 5
5 -6 -3 745.43 4
4 -6 -3 217.18 2
4 -6 -3 227.58 2.1
4 -6 -3 228.08 2.6
-4 6 3 252.97 2.7
-3 6 3 1109.59 5
3 -6 -3 1063.39 4.7
3 -6 -3 1026.3 3.9
3 -6 -3 1045.7 4.1
2 -6 -3 308.37 2.4
2 -6 -3 310.57 2.5
2 -6 -3 285.97 2.1
-2 6 3 318.77 2.9
1 -6 -3 781.72 3.5
1 -6 -3 708.93 3.3
1 -6 -3 788.42 3.8
0 6 3 602.04 3.3
0 -6 -3 579.84 3.2
0 -6 -3 542.05 3.3
0 -6 -3 609.14 3.3
-1 -6 -3 327.37 2.6
-1 -6 -3 271.77 2.3
-1 -6 -3 320.77 2.5
1 6 3 311.27 2.4
2 6 3 1387.16 4.9
-2 -6 -3 1502.15 5.1
-2 -6 -3 1281.07 4.6
-2 -6 -3 1473.95 5
-3 -6 -3 27.9 1.1
-3 -6 -3 30.7 1.1
3 6 3 29.9 1.3
-3 -6 -3 35.5 1.2
4 6 3 1252.17 4.8
-4 -6 -3 1271.57 5
-4 -6 -3 1331.57 4.9
-5 -6 -3 3.4 0.9
-5 -6 -3 0.9 1.3
5 6 3 0.4 1.2
5 6 3 2.3 1.2
6 6 3 512.25 3.5
-6 -6 -3 553.44 3.6
6 6 3 551.14 3.5
-6 -6 -3 562.14 3.4
7 6 3 3.2 1.3
7 6 3 1.3 1
-7 -6 -3 0.7 1.4
-7 -6 -3 3.5 1.4
-8 -6 -3 540.85 4
8 6 3 523.85 4.1
-8 -6 -3 507.35 4
8 6 3 65.59 3.8
6 -7 -3 43.3 1.4
6 -7 -3 43.7 1.6
-6 7 3 54.49 1.9
6 -7 -3 49.6 1.9
5 -7 -3 613.94 3.6
5 -7 -3 662.13 4.5
-5 7 3 738.73 4.7
5 -7 -3 681.33 3.8
4 -7 -3 2.6 1.1
-4 7 3 2.1 1.3
4 -7 -3 5.4 0.9
4 -7 -3 3.9 1.2
-3 7 3 593.94 3.7
3 -7 -3 494.55 3.1
3 -7 -3 532.95 3.3
3 -7 -3 -25.3 3.6
2 -7 -3 51.19 1.3
2 -7 -3 60.79 1.5
2 -7 -3 55.99 1.3
2 -7 -3 54.69 1.2
1 -7 -3 556.64 3.1
1 -7 -3 572.74 3.1
1 -7 -3 509.75 3.1
1 -7 -3 610.74 3.3
0 -7 -3 424.96 2.8
0 -7 -3 375.06 2.6
0 -7 -3 374.26 2.8
0 7 3 383.96 2.6
-1 -7 -3 558.94 3.2
-1 -7 -3 567.14 3.1
-1 -7 -3 598.84 3.2
1 7 3 559.74 3.2
2 7 3 692.33 3.7
-2 -7 -3 778.62 3.9
-2 -7 -3 803.02 3.8
-2 -7 -3 693.93 3.6
3 7 3 488.95 3.2
-3 -7 -3 623.74 3.6
-3 -7 -3 563.54 3.4
-3 -7 -3 541.95 3.4
4 7 3 434.66 3.1
-4 -7 -3 525.65 3.3
-4 -7 -3 448.36 3.1
-4 -7 -3 465.85 3.3
5 7 3 223.38 2.4
-5 -7 -3 211.88 2.3
-5 -7 -3 213.58 2.3
6 7 3 272.97 2.7
6 7 3 312.27 2.8
-6 -7 -3 299.97 3.1
-6 -7 -3 290.17 2.7
7 7 3 -0.9 1.8
7 7 3 84.99 2.1
-7 -7 -3 83.39 1.9
-7 -7 -3 93.49 2.1
5 -8 -3 147.29 2.1
5 -8 -3 151.88 2.4
5 -8 -3 159.78 2.2
4 -8 -3 64.19 1.4
4 -8 -3 55.09 1.8
4 -8 -3 64.29 1.6
4 -8 -3 -10.1 1.7
3 -8 -3 346.37 2.7
3 -8 -3 329.27 3
3 -8 -3 326.67 3
3 -8 -3 374.66 2.8
2 -8 -3 44.9 1.4
2 -8 -3 37.3 1.4
2 -8 -3 37 1.3
2 -8 -3 39 1.2
1 -8 -3 701.93 3.6
1 -8 -3 595.74 3.5
1 -8 -3 661.83 3.4
1 -8 -3 679.63 3.6
0 -8 -3 12.9 1.4
0 -8 -3 16.3 1.3
0 -8 -3 22.6 1
1 8 3 827.92 4
-1 -8 -3 859.21 4.2
-1 -8 -3 883.01 4.1
-1 -8 -3 910.21 4.1
-2 -8 -3 39.8 1.6
2 8 3 37.7 1.2
-2 -8 -3 43 1.4
-2 -8 -3 45.7 1.5
-3 -8 -3 933.81 4.3
3 8 3 807.42 4.2
-3 -8 -3 844.82 4.3
-3 -8 -3 943.01 4.5
-4 -8 -3 4.4 1.2
4 8 3 5.8 1.1
-4 -8 -3 6.1 0.9
-4 -8 -3 6.5 1.3
5 8 3 441.36 3.3
-5 -8 -3 411.46 3.1
-5 -8 -3 483.65 3.5
-5 -8 -3 493.15 3.3
6 8 3 52.39 1.7
-6 -8 -3 50.79 1.4
-6 -8 -3 52.89 1.8
7 8 3 166.78 2.5
-7 -8 -3 171.58 2.6
-7 -8 -3 167.98 2.3
7 8 3 157.38 2.2
4 -9 -3 222.68 2.6
4 -9 -3 223.28 2.9
4 -9 -3 263.97 3
4 -9 -3 230.08 2.7
3 -9 -3 -30.4 2.2
3 -9 -3 182.28 2.6
3 -9 -3 197.48 2.3
3 -9 -3 172.98 2.5
2 -9 -3 338.07 2.7
2 -9 -3 351.76 2.9
2 -9 -3 352.86 3.1
2 -9 -3 357.96 2.9
1 -9 -3 -31 3.5
1 -9 -3 460.75 3.4
1 -9 -3 474.85 3.1
1 -9 -3 518.65 3.3
0 -9 -3 344.67 2.8
0 -9 -3 331.17 2.7
0 -9 -3 324.27 3
0 -9 -3 341.97 2.7
1 9 3 570.54 3.5
-1 -9 -3 519.45 3.6
-1 -9 -3 558.84 3.5
-1 -9 -3 529.35 3.3
2 9 3 213.48 2.4
-2 -9 -3 196.18 2.4
-2 -9 -3 205.68 2.3
-2 -9 -3 237.98 2.5
3 9 3 326.17 2.8
-3 -9 -3 334.07 3
-3 -9 -3 359.96 3.1
-3 -9 -3 351.66 3
-4 -9 -3 16 1.2
4 9 3 17.4 1.3
-4 -9 -3 20.2 1.4
-4 -9 -3 16.3 1.4
5 9 3 212.78 2.7
-5 -9 -3 207.88 2.5
-5 -9 -3 216.78 2.8
-5 -9 -3 249.28 2.5
2 -10 -3 361.66 3.4
2 -10 -3 413.06 3.3
2 -10 -3 399.36 3.6
2 -10 -3 404.56 3.4
1 -10 -3 50.89 1.5
1 -10 -3 42.3 1.5
1 -10 -3 49.5 1.5
1 -10 -3 49.5 1.6
0 -10 -3 377.76 3.2
0 -10 -3 352.36 3.2
0 -10 -3 331.67 2.9
0 -10 -3 343.97 3
-1 -10 -3 70.69 1.7
-1 -10 -3 62.89 1.6
-1 -10 -3 71.29 1.7
-1 -10 -3 64.29 1.9
2 10 3 176.58 2.4
-2 -10 -3 172.18 2.4
-2 -10 -3 168.28 2.4
-2 -10 -3 157.88 2.1
-3 -10 -3 167.18 2.2
-3 -10 -3 177.98 2.4
3 10 3 156.18 2.3
-3 -10 -3 161.38 2.5
4 10 3 54.09 1.6
-4 -10 -3 43 1.8
-4 -10 -3 54.69 1.8
-4 -10 -3 65.89 1.6
2 9 -4 41.1 1.7
-2 -9 4 55.99 1.7
1 9 -4 571.44 4.1
-1 -9 4 583.84 4.2
0 9 -4 4.1 1.6
0 -9 4 5.1 1.7
-1 9 -4 394.36 3.4
1 -9 4 347.77 3.3
-2 9 -4 1.3 1.3
2 -9 4 -0.3 1.4
3 -9 4 324.97 4.7
3 -9 4 337.77 3.9
3 -9 4 304.87 3.8
3 -9 4 310.37 5.4
4 -9 4 10 1.7
4 -9 4 7.4 1.8
4 -9 4 2.5 2
4 -9 4 11.3 1.9
5 -9 4 325.27 6
5 -9 4 264.77 3.5
5 -9 4 226.18 3.7
5 -9 4 287.97 5.7
3 8 -4 161.98 2.4
-3 -8 4 170.08 2.3
2 8 -4 315.97 3.1
-2 -8 4 319.27 3.1
1 8 -4 -2 2.7
-1 -8 4 182.48 2.5
0 8 -4 238.08 2.7
0 -8 4 215.48 2.5
-1 8 -4 321.47 2.9
1 -8 4 297.97 3
-2 8 -4 67.89 1.6
2 -8 4 65.99 1.9
3 -8 4 587.94 6.1
3 -8 4 605.44 4.8
3 -8 4 565.04 5
3 -8 4 682.93 4.7
4 -8 4 17.8 1.8
4 -8 4 13.4 1.6
4 -8 4 13.4 1.5
4 -8 4 13.7 2
5 -8 4 553.04 7.9
5 -8 4 556.34 7.1
5 -8 4 435.66 4
5 -8 4 388.76 4
6 -8 4 0.3 1.4
4 7 -4 445.16 3.5
-4 -7 4 430.46 3.6
3 7 -4 1.4 1.6
-3 -7 4 -0.3 1.6
2 7 -4 386.46 3.1
-2 -7 4 53.39 3.6
-1 -7 4 19.8 1.2
1 7 -4 23.5 1.3
0 7 -4 942.11 4.7
0 -7 4 873.01 4.6
-1 7 -4 914.71 4.9
1 -7 4 873.51 4.8
2 -7 4 556.94 7.1
2 -7 4 596.74 6.6
2 -7 4 574.94 4.3
-2 7 -4 590.94 4.2
3 -7 4 617.44 4.8
3 -7 4 584.54 5.6
-3 7 -4 595.24 4.4
3 -7 4 553.34 4.8
-4 7 -4 472.35 4.1
4 -7 4 473.05 4.2
4 -7 4 511.45 4.8
4 -7 4 496.35 5.2
-5 7 -4 516.05 3.9
5 -7 4 522.25 11.2
5 -7 4 435.16 3.6
5 -7 4 506.75 10.6
-6 7 -4 243.28 2.9
6 -7 4 199.08 2.8
-7 7 -4 319.07 3.3
7 -7 4 288.87 3.1
5 6 -4 167.78 3.8
5 6 -4 171.88 3.2
5 6 -4 173.18 2.5
-5 -6 4 180.98 2.4
4 6 -4 324.27 4.6
4 6 -4 295.97 2.9
4 6 -4 301.27 4.8
-4 -6 4 314.27 3.1
3 6 -4 68.39 1.6
-3 -6 4 78.89 1.8
2 6 -4 572.54 3.5
-2 -6 4 606.64 3.6
1 6 -4 44 1.9
-1 -6 4 42.7 1.5
0 -6 4 1854.11 6.5
0 6 -4 2029.4 6.8
-1 6 -4 21.2 1.7
1 -6 4 20.3 1.3
-2 6 -4 1201.78 6
2 -6 4 1165.48 8.6
2 -6 4 1184.08 7.9
2 -6 4 1256.47 5.9
-3 6 -4 2.2 1.3
-3 6 -4 5.6 1.3
3 -6 4 4 1.5
3 -6 4 8.6 1.5
-4 6 -4 1539.85 6.6
4 -6 4 1492.75 9.2
4 -6 4 1498.85 8.4
4 -6 4 1358.46 6.7
5 -6 4 201.18 2.5
-5 6 -4 244.38 2.6
-6 6 -4 484.45 3.4
6 -6 4 433.26 3.4
7 -6 4 115.39 1.9
-7 6 -4 125.39 2
8 -6 4 -19.8 2.3
-8 6 -4 178.58 2.5
-6 -5 4 56.39 1.9
6 5 -4 45.9 2.1
6 5 -4 45.8 1.9
-5 -5 4 267.67 2.7
5 5 -4 242.18 3.5
5 5 -4 213.28 2.7
4 5 -4 235.98 3.7
4 5 -4 247.48 2.4
-4 -5 4 271.27 2.5
4 5 -4 267.47 3.4
3 5 -4 584.14 6.1
3 5 -4 517.15 3.4
3 5 -4 578.44 5.4
-3 -5 4 546.45 3.6
2 5 -4 911.21 4.4
-2 -5 4 1006.3 4.6
1 5 -4 845.72 4.2
-1 -5 4 831.22 4.2
0 5 -4 1327.17 5.6
0 -5 4 1291.47 5.5
-1 5 -4 698.73 4.4
1 -5 4 630.74 4.2
-2 5 -4 643.64 5.8
-2 5 -4 628.24 4.6
2 -5 4 614.24 4.5
2 -5 4 558.14 5.6
-3 5 -4 257.17 3.4
3 -5 4 249.97 3.3
-3 5 -4 270.97 3.4
3 -5 4 263.67 3.5
4 -5 4 956.1 8
4 -5 4 885.61 8.4
4 -5 4 824.32 4.9
-4 5 -4 893.51 5.1
5 -5 4 2.8 1.2
-5 5 -4 4.9 0.9
6 -5 4 490.55 3.5
-6 5 -4 536.85 3.5
7 -5 4 1.1 1.4
-7 5 -4 12.6 1.3
-8 5 -4 505.85 3.6
8 -5 4 437.16 3.5
9 -5 4 23.2 1.3
-9 5 -4 28.3 1.4
-6 -4 4 16.2 1.3
-6 -4 4 17.2 1.3
6 4 -4 18.5 1.7
6 4 -4 20 1.3
5 4 -4 854.91 4.5
5 4 -4 909.01 5.8
-5 -4 4 967.9 4.7
-4 -4 4 6.7 1.1
4 4 -4 2.9 1.5
4 4 -4 3.1 1.5
3 4 -4 1504.35 7.1
3 4 -4 1362.86 5.2
3 4 -4 1459.65 8
-3 -4 4 1490.65 5.4
2 4 -4 101.19 3.1
2 4 -4 91.89 1.6
-2 -4 4 92.69 1.6
2 4 -4 91.69 2.5
1 4 -4 1677.73 6.1
-1 -4 4 1719.23 6.1
0 4 -4 127.79 2.3
0 -4 4 115.49 2.2
-1 4 -4 1036.9 5.5
1 -4 4 965.2 10.2
1 -4 4 955.1 5.2
-1 4 -4 1004.3 11.8
2 -4 4 319.17 3.5
2 -4 4 279.97 3.7
-2 4 -4 324.77 4.4
-2 4 -4 328.37 3.6
3 -4 4 784.32 6.4
-3 4 -4 807.02 6.3
3 -4 4 753.12 5.2
-3 4 -4 799.92 5.3
4 -4 4 584.84 11.1
4 -4 4 545.35 4
4 -4 4 588.84 11.3
-4 4 -4 545.45 3.8
5 -4 4 524.45 3.7
-5 4 -4 534.55 3.6
-6 4 -4 1038.6 4.7
6 -4 4 925.21 4.6
7 -4 4 149.29 2
-7 4 -4 25.9 2.6
8 -4 4 572.04 3.8
-8 4 -4 651.83 3.8
9 -4 4 16.4 1.1
-9 4 -4 22.9 1.4
-7 -3 4 233.68 2.7
7 3 -4 230.88 2.7
7 3 -4 245.08 3.2
-7 -3 4 275.27 3.1
-6 -3 4 327.57 3
6 3 -4 318.77 3
-6 -3 4 375.46 3.2
6 3 -4 332.67 3.4
-5 -3 4 673.93 4
5 3 -4 677.23 4.1
5 3 -4 744.43 4.8
-5 -3 4 737.73 4.2
-4 -3 4 194.88 2.4
4 3 -4 183.18 2.4
4 3 -4 205.58 2.9
-3 -3 4 1071.39 4.5
3 3 -4 1019.1 5.3
3 3 -4 1027.1 4.6
3 3 -4 1087.09 6.4
-2 -3 4 543.65 3.5
2 3 -4 542.15 4.4
2 3 -4 570.64 3.6
2 3 -4 606.64 5.6
-1 -3 4 2039.4 6.7
1 3 -4 2036.7 10.1
1 3 -4 2023.9 6.8
1 3 -4 2204.78 12.1
0 3 -4 116.59 3.6
0 -3 4 110.09 2.2
0 3 -4 106.59 3.6
0 3 -4 113.29 2
1 -3 4 1904.21 9.9
1 -3 4 2067.99 7.8
-1 3 -4 1958.5 7.8
-1 3 -4 2075.69 12.6
2 -3 4 81.29 2.2
-2 3 -4 94.19 2.5
-2 3 -4 91.39 2.6
2 -3 4 80.19 2.2
-3 3 -4 1939.11 8.1
3 -3 4 1790.22 7.6
3 -3 4 1823.52 9.9
-3 3 -4 2031.7 11.3
4 -3 4 423.06 3.4
-4 3 -4 441.36 3.6
5 -3 4 1754.02 6.3
-5 3 -4 1843.12 6.4
6 -3 4 376.36 3
-6 3 -4 403.56 3
7 -3 4 922.01 4.4
-7 3 -4 1020.9 4.3
8 -3 4 178.68 2.3
-8 3 -4 181.98 2.1
-9 3 -4 -46.5 2.2
9 -3 4 -11.3 2.3
-7 -2 4 30.6 1.4
-7 -2 4 28.8 1.5
7 2 -4 28.3 1.5
7 2 -4 25.9 1.4
-6 -2 4 457.25 3.4
-6 -2 4 401.76 3.1
6 2 -4 386.96 3.1
6 2 -4 424.36 3.5
-5 -2 4 351.66 3
-5 -2 4 313.87 2.7
5 2 -4 298.17 2.5
5 2 -4 329.27 3
-4 -2 4 254.97 2.6
4 2 -4 221.88 2.4
4 2 -4 250.77 2.7
-3 -2 4 575.04 3.5
3 2 -4 615.34 3.8
3 2 -4 534.65 3.3
3 2 -4 581.44 4.2
2 2 -4 459.45 3.3
-2 -2 4 504.55 3.5
2 2 -4 495.65 4.1
2 2 -4 485.95 3.7
1 2 -4 1325.07 6.8
-1 -2 4 1415.36 5.8
1 2 -4 1372.46 6
1 2 -4 1388.46 7.1
0 -2 4 152.88 2.3
0 2 -4 138.19 2.8
0 2 -4 152.88 2.4
0 -2 4 141.99 2.6
1 -2 4 2730.53 9.2
1 -2 4 2684.43 10
-1 2 -4 2609.04 10.8
-1 2 -4 2679.53 9.7
2 -2 4 109.29 2.4
2 -2 4 94.99 2
-2 2 -4 99.49 2.4
-2 2 -4 102.29 2.7
3 -2 4 1994.9 7.6
3 -2 4 2051.09 10.1
-3 2 -4 2078.09 8
-3 2 -4 1945.81 11.8
4 -2 4 148.69 2.1
-4 2 -4 145.59 8.1
-4 2 -4 184.68 8.8
-4 2 -4 168.48 2.6
5 -2 4 1573.94 5.9
-5 2 -4 1507.45 5.8
6 -2 4 141.69 2.1
-6 2 -4 151.78 1.9
7 -2 4 554.94 3.3
-7 2 -4 598.64 3.4
-8 2 -4 16.1 1.5
8 -2 4 18.6 1.6
9 -2 4 215.68 2.6
-9 2 -4 229.18 2.4
10 -2 4 28.7 1.3
-10 2 -4 3 1.6
-7 -1 4 48.5 1.7
7 1 -4 45.7 1.6
-7 -1 4 55.59 1.6
7 1 -4 48.4 1.5
-6 -1 4 472.85 3.1
-6 -1 4 517.35 3.7
6 1 -4 461.75 3.4
6 1 -4 488.95 3.4
-5 -1 4 30.8 1.3
-5 -1 4 38.6 1.6
5 1 -4 33 1.6
5 1 -4 34.5 1.6
-4 -1 4 671.23 3.8
4 1 -4 599.84 3.5
4 1 -4 675.23 4
3 1 -4 18.9 1.4
3 1 -4 22.8 1.1
3 1 -4 20 1.1
-3 -1 4 21.5 1.4
-2 -1 4 1105.19 5.1
2 1 -4 1136.89 5.2
2 1 -4 1169.78 5.4
2 1 -4 1153.98 5.1
1 1 -4 372.96 3.3
-1 -1 4 381.16 3.4
1 1 -4 372.06 3.3
1 1 -4 376.16 3.5
0 1 -4 2137.99 8.1
0 1 -4 2039.8 7.9
0 -1 4 2120.89 7.9
0 -1 4 2185.18 7.8
-1 1 -4 1037.1 6.4
-1 1 -4 1100.19 5.9
1 -1 4 1039.5 5.6
1 -1 4 1030.4 5.7
2 -1 4 2957.1 9.1
-2 1 -4 2891.71 9.4
2 -1 4 2941.61 10.2
-2 1 -4 2787.62 11.1
3 -1 4 1322.87 5.9
-3 1 -4 1183.48 7.9
-3 1 -4 1333.07 6.1
3 -1 4 1457.25 7.8
-4 1 -4 2278.27 12
4 -1 4 2254.57 7.1
-4 1 -4 2343.17 7.4
-4 1 -4 2182.08 11.5
5 -1 4 841.92 4.3
-5 1 -4 923.61 8.5
-5 1 -4 913.11 4.6
-5 1 -4 901.11 7.5
-6 1 -4 303.97 4.3
6 -1 4 258.47 2.4
-6 1 -4 279.17 2.6
-6 1 -4 301.27 5
-7 1 -4 642.74 6.6
-7 1 -4 661.13 5.7
7 -1 4 507.85 3.3
-7 1 -4 530.25 3.3
-8 1 -4 27.4 1.8
-8 1 -4 27.6 2
-8 1 -4 20.4 1.1
8 -1 4 22.8 1.5
-9 1 -4 374.16 5.2
-9 1 -4 422.06 5.7
9 -1 4 325.97 2.8
-9 1 -4 351.26 2.8
-10 1 -4 37.1 2.3
-10 1 -4 37.3 2.5
10 -1 4 23.8 1.7
-10 1 -4 24.1 1.4
-7 0 4 125.99 2.3
7 0 -4 129.29 2.1
7 0 -4 137.59 2.3
-6 0 4 374.26 2.8
-6 0 4 436.06 3.3
6 0 -4 377.76 3.1
6 0 -4 396.06 2.9
-5 0 4 202.78 2.3
5 0 -4 194.88 2.5
5 0 -4 196.18 2.3
-4 0 4 1339.77 5.2
4 0 -4 1244.78 4.9
4 0 -4 1362.16 5
3 0 -4 290.07 2.4
-3 0 4 268.07 2.6
3 0 -4 297.57 2.6
3 0 -4 246.38 2.5
2 0 -4 3668.23 8.9
2 0 -4 4231.68 8.9
-2 0 4 4059.69 9.6
2 0 -4 4250.27 8.9
1 0 -4 18 1.3
-1 0 4 18.8 1.4
1 0 -4 20.4 1.4
1 0 -4 18.8 1.3
0 0 4 3689.53 9.6
0 0 -4 3867.91 9.9
0 0 4 3840.32 10.2
0 0 -4 3994.2 10.4
1 0 4 2.5 0.8
-1 0 -4 1.9 1.1
1 0 4 21.2 1.5
-1 0 -4 4.7 1.6
2 0 4 2994.7 9.5
-2 0 -4 2970.9 8.6
-2 0 -4 2651.33 9.5
2 0 4 2948.7 8.4
3 0 4 349.87 3.6
3 0 4 292.47 2.8
-3 0 -4 299.17 3.4
-3 0 -4 300.17 2.8
4 0 4 1667.43 6.1
-4 0 -4 1537.85 7.7
-4 0 -4 1568.44 5.8
-4 0 -4 1673.03 7.9
-5 0 -4 826.32 5.9
5 0 4 769.32 4.1
-5 0 -4 874.61 5.6
-5 0 -4 746.63 4
-6 0 -4 837.82 5.4
6 0 4 769.42 3.9
-6 0 -4 859.91 5.9
-6 0 -4 753.72 3.8
-7 0 -4 885.71 4.2
7 0 4 831.32 4.1
-7 0 -4 974 6.2
-7 0 -4 1013.2 5.9
8 0 4 470.95 3.2
-8 0 -4 506.95 3.1
-8 0 -4 550.94 5.3
-9 0 -4 475.75 5
9 0 4 355.26 2.9
-9 0 -4 408.56 3
10 0 4 121.09 2
-10 0 -4 155.48 3.7
-10 0 -4 172.88 3.3
-10 0 -4 136.69 2.3
-7 1 4 318.57 3.3
7 -1 -4 310.37 3.1
7 -1 -4 309.47 2.9
6 -1 -4 154.48 2.3
-6 1 4 174.08 2.2
6 -1 -4 177.08 2.2
-5 1 4 818.02 4.4
5 -1 -4 822.32 3.9
5 -1 -4 765.62 4.2
4 -1 -4 937.21 3.7
-4 1 4 897.11 4.4
4 -1 -4 878.11 3.9
4 -1 -4 894.01 4.2
3 -1 -4 830.92 4.2
3 -1 -4 809.72 3.7
-3 1 4 797.62 4.2
3 -1 -4 851.31 3.8
2 -1 -4 1213.18 4.6
2 -1 -4 1194.58 4.5
2 -1 -4 1214.08 5.2
-2 1 4 1215.68 5.2
1 -1 -4 448.86 3.1
1 -1 -4 414.16 3.4
-1 1 4 431.56 3.3
0 1 4 659.53 3.8
0 -1 -4 674.63 4
0 -1 -4 701.53 3.9
0 1 4 698.63 4.2
1 1 4 25 1.4
-1 -1 -4 22.7 1.4
1 1 4 22.7 1.3
-1 -1 -4 31.4 1.7
2 1 4 1784.92 6.9
-2 -1 -4 1596.14 6.6
-2 -1 -4 1618.54 6
2 1 4 1568.34 5.9
3 1 4 15.7 1.3
-3 -1 -4 13.1 1.1
-3 -1 -4 14 1.3
3 1 4 14.9 1.5
-4 -1 -4 1326.17 5.3
-4 -1 -4 1322.97 6.2
4 1 4 1381.26 5.4
-4 -1 -4 1499.15 6.5
5 1 4 1.3 1.1
-5 -1 -4 1.8 1
-5 -1 -4 3.4 1.2
-5 -1 -4 4.8 1
6 1 4 1592.44 5.3
-6 -1 -4 1737.03 7.3
-6 -1 -4 1678.03 5.5
-6 -1 -4 1815.32 6.9
7 1 4 41.8 1.3
-7 -1 -4 51.59 1.8
-7 -1 -4 44.4 1.3
8 1 4 685.03 4.4
8 1 4 764.52 4.1
-8 -1 -4 716.13 3.9
-8 -1 -4 907.11 5.5
9 1 4 47.5 1.7
9 1 4 50.89 1.7
-9 -1 -4 49.2 1.5
-9 -1 -4 64.89 2.1
-10 -1 -4 221.88 4
10 1 4 223.28 2.5
-10 -1 -4 181.68 2.6
7 -2 -4 239.58 3.5
7 -2 -4 121.29 4.3
7 -2 -4 490.55 3.4
-7 2 4 569.84 4.2
6 -2 -4 2.6 1.3
-6 2 4 3.8 1.4
6 -2 -4 2.3 1.4
6 -2 -4 4.2 1.1
5 -2 -4 1065.99 4.1
-5 2 4 1028.6 4.7
5 -2 -4 1020.2 4.1
5 -2 -4 991.4 4.5
4 -2 -4 9.6 1.4
4 -2 -4 6.5 1
-4 2 4 4.1 1.4
4 -2 -4 15.6 1.2
3 -2 -4 1204.28 4.3
3 -2 -4 1317.17 5.1
-3 2 4 1303.87 5.3
3 -2 -4 1199.78 4.3
2 -2 -4 13.9 1.1
2 -2 -4 14.1 0.9
2 -2 -4 8.9 1.3
-2 2 4 9.2 1.1
1 -2 -4 1049.2 4.3
-1 2 4 1062.29 4.9
-1 2 4 998.8 4.2
1 -2 -4 1009.5 4.5
0 -2 -4 1172.88 4.7
0 2 4 1270.37 5.2
0 2 4 1169.68 4.6
0 -2 -4 1185.48 5
-1 -2 -4 1296.27 5.4
1 2 4 1190.58 4.7
-1 -2 -4 1286.77 5
1 2 4 1333.77 5.4
2 2 4 2375.16 7.1
-2 -2 -4 2141.99 6.5
2 2 4 2127.79 6.5
-2 -2 -4 2155.68 6.9
3 2 4 792.32 3.9
-3 -2 -4 900.81 4.7
-3 -2 -4 832.52 4.2
-3 -2 -4 782.52 4.3
-4 -2 -4 1311.37 5.1
-4 -2 -4 1548.95 6
4 2 4 1226.78 4.8
-4 -2 -4 1310.07 5.6
5 2 4 802.92 4
-5 -2 -4 733.33 3.7
-5 -2 -4 786.82 4.5
-5 -2 -4 814.22 4.4
6 2 4 1275.77 4.8
-6 -2 -4 1257.27 4.8
-6 -2 -4 1328.27 5.7
7 2 4 281.97 2.8
-7 -2 -4 355.16 2.8
7 2 4 346.47 2.7
-7 -2 -4 371.86 3.3
8 2 4 671.53 4
8 2 4 812.12 4.2
-8 -2 -4 885.41 5
-8 -2 -4 800.32 4.1
9 2 4 15.4 1.4
9 2 4 18.9 1.6
-9 -2 -4 17.5 1.6
-9 -2 -4 20.5 1.6
-10 -2 -4 241.08 2.9
-10 -2 -4 333.07 3.9
10 2 4 242.58 3.1
10 2 4 253.47 2.8
-7 3 4 235.08 2.9
7 -3 -4 220.18 2.5
7 -3 -4 182.88 2.3
7 -3 -4 217.28 2.9
6 -3 -4 169.58 2.1
6 -3 -4 171.38 2.3
6 -3 -4 172.18 2.3
-6 3 4 176.48 2.2
-5 3 4 408.16 3.3
5 -3 -4 405.56 2.7
5 -3 -4 406.16 2.8
5 -3 -4 440.46 3.3
-4 3 4 200.18 2.3
4 -3 -4 207.38 2.2
4 -3 -4 208.58 1.9
4 -3 -4 205.38 2
-3 3 4 852.11 4.2
3 -3 -4 819.02 3.5
3 -3 -4 782.62 3.9
3 -3 -4 763.22 3.4
2 -3 -4 26.8 0.9
2 -3 -4 26 1.1
-2 3 4 31.2 1.2
2 -3 -4 26.3 1.1
-1 3 4 1824.22 5.4
1 -3 -4 1855.21 5.5
-1 3 4 2055.89 6.3
1 -3 -4 1939.51 6
0 -3 -4 71.39 1.5
0 3 4 68.59 1.5
0 -3 -4 68.29 1.5
0 3 4 80.09 1.8
1 3 4 4558.14 8.7
-1 -3 -4 4653.73 8.8
-1 -3 -4 4882.91 9.6
1 3 4 5241.08 9.9
-2 -3 -4 7.6 1
2 3 4 19.7 1.3
-2 -3 -4 7.6 0.9
2 3 4 11.6 1.1
-3 -3 -4 2424.76 6.8
-3 -3 -4 2560.24 6.7
-3 -3 -4 2773.62 7.4
3 3 4 2507.25 6.7
-4 -3 -4 246.58 2.4
-4 -3 -4 235.68 2.4
4 3 4 238.88 2.2
-4 -3 -4 291.37 2.5
5 3 4 1661.73 5.5
-5 -3 -4 1686.03 5.5
-5 -3 -4 1853.81 6.2
-5 -3 -4 1995.6 6.3
-6 -3 -4 504.85 3.3
6 3 4 540.35 3.1
-6 -3 -4 519.95 3.1
7 3 4 409.46 3.1
7 3 4 554.34 3.3
-7 -3 -4 515.85 3.6
-7 -3 -4 514.05 3.1
8 3 4 429.56 3.2
8 3 4 563.04 3.7
-8 -3 -4 589.34 3.9
-8 -3 -4 532.85 3.6
9 3 4 61.49 1.5
9 3 4 76.49 1.6
-9 -3 -4 68.69 2.1
-9 -3 -4 71.09 1.8
7 -4 -4 21.7 1.3
-7 4 4 22.1 1.6
7 -4 -4 20.2 1.5
7 -4 -4 23.1 1.7
6 -4 -4 276.77 2.5
-6 4 4 266.57 3
6 -4 -4 242.88 2.3
6 -4 -4 275.47 3
5 -4 -4 203.48 2.4
5 -4 -4 176.88 2
-5 4 4 175.88 2.3
5 -4 -4 163.28 1.8
4 -4 -4 336.37 2.5
4 -4 -4 341.47 2.6
-4 4 4 360.76 2.9
4 -4 -4 358.86 2.9
3 -4 -4 679.23 3.3
-3 4 4 714.23 3.9
3 -4 -4 693.63 3.8
3 -4 -4 702.43 3.3
2 -4 -4 517.15 2.8
2 -4 -4 517.45 2.8
2 -4 -4 565.84 3.3
-2 4 4 598.34 3.5
-1 4 4 1807.52 5.8
-1 4 4 1571.24 4.9
1 -4 -4 1684.63 5
1 -4 -4 1749.82 5.6
0 4 4 1461.75 4.8
0 -4 -4 1524.95 4.8
0 -4 -4 1548.65 5.2
0 4 4 1704.73 5.5
1 4 4 2157.78 5.8
1 4 4 2486.05 6.6
-1 -4 -4 2332.37 6.1
-1 -4 -4 2333.07 6.4
-2 -4 -4 338.07 2.6
2 4 4 367.66 2.5
-2 -4 -4 387.76 2.7
-2 -4 -4 374.96 2.8
-3 -4 -4 1752.12 5.7
3 4 4 1617.14 5.2
-3 -4 -4 1512.45 5.2
-3 -4 -4 1636.24 5.2
-4 -4 -4 148.49 2.1
-4 -4 -4 132.99 1.8
-4 -4 -4 128.09 1.7
4 4 4 131.09 1.8
-5 -4 -4 1347.67 4.9
-5 -4 -4 1196.28 4.6
5 4 4 1208.98 4.5
-5 -4 -4 1172.48 4.5
-6 -4 -4 49.4 1.7
6 4 4 50.39 1.7
-6 -4 -4 44.8 1.5
7 4 4 480.55 3.2
-7 -4 -4 511.55 3.4
7 4 4 384.96 2.8
-7 -4 -4 467.65 3.2
8 4 4 80.59 1.8
8 4 4 67.39 1.7
-8 -4 -4 76.99 1.7
-8 -4 -4 74.49 1.8
9 4 4 96.89 2.8
9 4 4 263.47 3
-9 -4 -4 280.67 3.2
-9 -4 -4 -32.2 3
6 -5 -4 426.16 3.7
6 -5 -4 374.26 2.9
6 -5 -4 362.26 2.8
-6 5 4 407.26 3.7
5 -5 -4 9 1.3
5 -5 -4 6.5 1.2
-5 5 4 7.2 1.2
5 -5 -4 8.8 0.9
4 -5 -4 826.52 3.7
4 -5 -4 912.41 4.4
4 -5 -4 875.11 3.9
-4 5 4 918.61 4.4
-3 5 4 118.19 1.9
3 -5 -4 107.89 1.5
3 -5 -4 116.19 1.9
3 -5 -4 110.29 1.6
2 -5 -4 1513.85 4.7
-2 5 4 1666.63 5.6
2 -5 -4 1623.04 5.3
2 -5 -4 1448.26 4.5
1 -5 -4 316.77 2.3
1 -5 -4 353.66 2.6
-1 5 4 383.66 2.8
0 -5 -4 1039.7 4.2
0 -5 -4 971.2 3.8
0 5 4 992.1 3.9
0 5 4 1105.79 4.4
-1 -5 -4 278.67 2.2
-1 -5 -4 258.07 2.2
1 5 4 258.87 2.1
-2 -5 -4 675.23 3.4
2 5 4 774.52 3.5
-2 -5 -4 799.62 3.5
-2 -5 -4 776.62 3.7
3 5 4 602.94 3.2
-3 -5 -4 541.05 3
-3 -5 -4 624.74 3.4
-3 -5 -4 596.14 3.1
-4 -5 -4 257.27 2.2
-4 -5 -4 249.28 2.3
-4 -5 -4 277.17 2.4
4 5 4 270.37 2.3
-5 -5 -4 965.5 4.1
-5 -5 -4 1089.59 4.5
5 5 4 996.8 4.3
-5 -5 -4 948.51 4.2
6 5 4 78.59 1.7
-6 -5 -4 75.89 1.5
-6 -5 -4 88.19 1.7
7 5 4 678.03 3.7
7 5 4 789.92 4.1
-7 -5 -4 784.62 4
-7 -5 -4 787.52 4
8 5 4 36.3 1.6
-8 -5 -4 48.2 1.7
8 5 4 48 1.7
-8 -5 -4 42 1.7
9 5 4 275.87 2.9
9 5 4 282.37 3.2
-9 -5 -4 300.07 3.2
-9 -5 -4 335.57 3.3
6 -6 -4 157.58 2.5
6 -6 -4 150.88 2.1
-6 6 4 164.08 2.7
6 -6 -4 141.59 2.2
5 -6 -4 123.39 1.8
5 -6 -4 144.69 2.4
-5 6 4 137.59 2.1
5 -6 -4 122.49 1.8
4 -6 -4 561.64 3.3
4 -6 -4 580.44 3.3
4 -6 -4 579.64 3.7
-4 6 4 628.44 3.8
3 -6 -4 67.59 1.3
3 -6 -4 69.69 1.4
-3 6 4 74.09 1.6
3 -6 -4 68.99 1.3
2 -6 -4 928.71 3.7
2 -6 -4 889.01 3.7
2 -6 -4 900.21 4
-2 6 4 962.6 4.3
1 -6 -4 60.99 1.2
1 -6 -4 61.99 1.3
1 -6 -4 68.79 1.4
-1 6 4 67.29 1.4
0 6 4 898.41 3.7
0 -6 -4 938.91 3.8
0 -6 -4 909.91 3.6
-1 -6 -4 3.1 1
-1 -6 -4 4.5 0.7
1 6 4 3.8 1.1
-1 -6 -4 3.6 0.8
-2 -6 -4 1289.17 4.6
-2 -6 -4 1073.49 4.2
2 6 4 1175.18 4.3
-2 -6 -4 1256.97 4.5
3 6 4 296.07 2.3
-3 -6 -4 292.77 2.3
-3 -6 -4 315.57 2.5
-3 -6 -4 345.47 2.6
-4 -6 -4 709.43 3.6
4 6 4 645.64 3.4
-4 -6 -4 656.13 3.5
-4 -6 -4 627.44 3.3
5 6 4 214.78 2.1
-5 -6 -4 241.28 2.2
-5 -6 -4 217.88 2.3
-5 -6 -4 256.47 2.4
6 6 4 1088.09 4.8
-6 -6 -4 1082.29 4.7
-6 -6 -4 1122.49 4.6
-6 -6 -4 1217.68 5
7 6 4 313.47 2.9
-7 -6 -4 295.87 2.7
-7 -6 -4 312.07 2.9
-8 -6 -4 226.88 2.8
8 6 4 238.08 2.8
-8 -6 -4 217.28 2.9
-5 7 4 235.58 3
5 -7 -4 197.28 2.1
5 -7 -4 218.18 2.9
5 -7 -4 206.88 2.3
4 -7 -4 168.38 1.9
-4 7 4 200.08 2.5
4 -7 -4 97.29 2.4
4 -7 -4 16.7 2.2
-3 7 4 151.78 2.1
3 -7 -4 141.19 1.7
3 -7 -4 148.79 2
3 -7 -4 134.29 1.7
2 -7 -4 -10.4 2.2
-2 7 4 223.98 2.3
2 -7 -4 199.78 2
2 -7 -4 204.18 1.9
1 -7 -4 133.19 1.8
1 -7 -4 128.49 1.7
1 -7 -4 145.59 1.8
0 -7 -4 732.03 3.7
0 7 4 793.62 3.7
0 -7 -4 782.12 3.5
0 -7 -4 862.91 3.8
-1 -7 -4 19.7 1
1 7 4 18.9 1.1
-1 -7 -4 14.6 0.8
-1 -7 -4 11.4 1.3
-2 -7 -4 999.3 4.2
2 7 4 1097.99 4.2
-2 -7 -4 1155.08 4.3
-2 -7 -4 869.01 4.6
-3 -7 -4 3.5 1
-3 -7 -4 -0.9 1.3
3 7 4 1.6 1
-3 -7 -4 2 1
4 7 4 889.11 4.1
-4 -7 -4 895.81 4.2
-4 -7 -4 955.4 4.3
-4 -7 -4 1038.7 4.4
-5 -7 -4 110.99 1.9
5 7 4 120.79 1.7
-5 -7 -4 115.49 1.9
-5 -7 -4 125.79 2
6 7 4 846.12 4.3
-6 -7 -4 857.31 4.4
-6 -7 -4 729.33 4.4
-6 -7 -4 925.71 4.7
-7 -7 -4 13.8 1.2
7 7 4 11.6 1.2
-7 -7 -4 11.4 1.4
-7 -7 -4 11.7 1.1
8 7 4 149.19 2.5
-8 -7 -4 115.19 2.6
-8 -7 -4 172.48 2.6
4 -8 -4 20.5 1.3
4 -8 -4 21 1.4
4 -8 -4 18.4 1.4
-4 8 4 24.9 1.5
3 -8 -4 190.58 2.1
3 -8 -4 210.68 2.3
3 -8 -4 16.4 2.3
2 -8 -4 57.09 1.4
2 -8 -4 61.99 1.4
2 -8 -4 10.8 1.8
2 -8 -4 58.79 1.3
1 -8 -4 399.46 2.7
1 -8 -4 365.36 3
1 -8 -4 439.36 3
1 -8 -4 401.46 2.8
0 -8 -4 260.97 2.4
0 -8 -4 269.17 2.2
0 -8 -4 269.57 2.3
-1 -8 -4 490.55 2.9
-1 -8 -4 462.85 3.1
-1 -8 -4 518.45 3
1 8 4 496.55 3
-2 -8 -4 489.55 3
-2 -8 -4 475.25 2.9
-2 -8 -4 462.65 3.2
2 8 4 467.75 3
3 8 4 361.46 2.7
-3 -8 -4 319.27 2.6
-3 -8 -4 393.96 2.9
-3 -8 -4 379.86 2.8
4 8 4 364.46 2.8
-4 -8 -4 379.16 2.8
-4 -8 -4 423.36 3.1
-4 -8 -4 368.06 2.7
-5 -8 -4 124.79 2.1
5 8 4 108.19 1.7
-5 -8 -4 112.69 2
-5 -8 -4 113.39 1.8
-6 -8 -4 246.68 2.7
6 8 4 261.47 2.8
-6 -8 -4 272.07 2.9
-6 -8 -4 242.38 2.4
-7 -8 -4 1.1 1.4
-7 -8 -4 1.9 1.5
7 8 4 3.2 1.2
-7 -8 -4 0.7 1.3
3 -9 -4 395.76 3.1
3 -9 -4 343.87 3.5
3 -9 -4 392.96 3.5
3 -9 -4 390.86 3.1
2 -9 -4 1.5 1
2 -9 -4 1 1
2 -9 -4 2 1.1
2 -9 -4 1.4 1.2
1 -9 -4 591.64 3.4
1 -9 -4 563.64 3.8
1 -9 -4 537.35 3.3
1 -9 -4 623.24 3.6
0 -9 -4 3.7 0.9
0 -9 -4 5.7 1
0 -9 -4 2.4 1
0 -9 -4 1.9 1
-1 -9 -4 582.54 3.6
-1 -9 -4 654.43 3.7
-1 -9 -4 651.63 3.6
1 9 4 646.84 3.7
2 9 4 25.9 1.1
-2 -9 -4 25.7 1.6
-2 -9 -4 28.3 1.2
-2 -9 -4 28.3 1.3
3 9 4 339.07 2.9
-3 -9 -4 324.77 2.8
-3 -9 -4 362.86 3
-3 -9 -4 348.17 3.1
4 9 4 84.39 1.8
-4 -9 -4 99.79 1.8
-4 -9 -4 76.79 1.7
-4 -9 -4 87.89 1.9
5 9 4 106.09 1.9
-5 -9 -4 115.89 1.9
-5 -9 -4 123.09 2.2
-5 -9 -4 126.19 2
2 -10 -4 75.39 1.9
2 -10 -4 74.49 1.7
2 -10 -4 71.79 1.8
2 -10 -4 77.49 1.8
1 -10 -4 117.19 2
1 -10 -4 119.49 2
1 -10 -4 94.29 1.9
1 -10 -4 105.89 1.8
0 -10 -4 43.3 1.4
0 -10 -4 43 1.5
0 -10 -4 45.1 1.5
0 -10 -4 49.5 1.6
-1 -10 -4 211.68 2.8
-1 -10 -4 186.28 2.3
-1 -10 -4 214.98 2.6
2 10 4 1.5 1.2
-2 -10 -4 4.9 1.3
-2 -10 -4 1.6 1.4
-2 -10 -4 1.2 1.2
3 10 4 199.08 2.6
-3 -10 -4 201.58 2.6
-3 -10 -4 204.78 2.4
-3 -10 -4 191.68 2.5
4 10 4 6.2 1.3
-4 -10 -4 4 1.4
-4 -10 -4 6 1.3
-4 -10 -4 4.7 1.1
1 9 -5 292.77 3.3
-1 -9 5 289.27 3.3
0 9 -5 85.99 2.3
0 -9 5 75.59 1.9
-1 9 -5 194.78 2.8
1 -9 5 180.78 2.6
-2 9 -5 157.48 2.5
2 -9 5 155.38 2.4
3 -9 5 89.59 2.5
4 -9 5 320.57 4.8
4 -9 5 263.07 4.3
4 -9 5 284.67 4.9
4 -9 5 312.87 4.4
3 8 -5 262.67 3.3
-3 -8 5 354.96 3.5
2 8 -5 16.4 1.8
-2 -8 5 0.1 1.4
1 8 -5 302.77 3
-1 -8 5 281.57 3
0 8 -5 2.4 1.4
0 -8 5 3.6 1
1 -8 5 364.86 3.4
-1 8 -5 385.46 3.4
-2 8 -5 32.9 1.5
2 -8 5 16.8 1.7
-3 8 -5 370.96 3.7
3 -8 5 383.26 5.4
3 -8 5 353.96 5.9
3 -8 5 406.46 4
4 -8 5 247.18 3.9
4 -8 5 224.38 3.4
4 -8 5 240.68 3.7
4 -8 5 265.87 3.7
5 -8 5 183.78 5.8
5 -8 5 240.58 3.5
5 -8 5 306.17 5.8
-6 8 -5 229.08 3.2
6 -8 5 165.28 2.9
-4 -7 5 157.68 2.7
4 7 -5 158.68 2.4
3 7 -5 131.49 2.2
-3 -7 5 143.49 2.5
2 7 -5 178.18 2.3
-2 -7 5 188.88 2.5
1 7 -5 482.15 3.5
-1 -7 5 478.95 3.7
0 7 -5 118.09 2.2
0 -7 5 99.09 1.8
-1 7 -5 840.82 4.6
1 -7 5 794.62 4.5
-2 7 -5 13.5 1.1
2 -7 5 12.3 1.4
3 -7 5 1010 6
3 -7 5 935.11 6.7
-3 7 -5 1018.9 5.7
3 -7 5 954.6 7.3
-4 7 -5 30.1 1.8
4 -7 5 32 1.9
4 -7 5 35.1 2.1
4 -7 5 32.5 1.9
-5 7 -5 901.11 5.3
5 -7 5 833.42 13.1
5 -7 5 750.52 5
5 -7 5 821.32 13.1
-6 7 -5 -0.4 1.3
6 -7 5 1.9 1.3
-7 7 -5 336.57 3.3
7 -7 5 283.37 3.3
-5 -6 5 5 1.3
5 6 -5 5.5 1.6
5 6 -5 1.9 1.7
5 6 -5 7.1 2.1
-4 -6 5 410.96 3.5
4 6 -5 371.66 5.8
4 6 -5 348.87 3.1
4 6 -5 387.66 6.4
3 6 -5 67.29 1.7
-3 -6 5 3.5 1.9
2 6 -5 769.32 4.2
-2 -6 5 809.12 4.3
1 6 -5 522.15 3.7
-1 -6 5 511.45 3.4
0 6 -5 617.14 3.9
0 -6 5 538.45 3.6
-1 6 -5 1108.69 5.4
1 -6 5 1025.5 5
2 -6 5 601.64 8.4
2 -6 5 595.74 8.4
-2 6 -5 640.84 4.5
2 -6 5 621.84 4.3
-3 6 -5 1128.39 7.5
3 -6 5 1197.18 6.5
-3 6 -5 1182.28 6.4
3 -6 5 1155.78 7.2
4 -6 5 374.36 4.5
4 -6 5 343.07 3.7
-4 6 -5 394.66 3.9
5 -6 5 596.64 4.3
-5 6 -5 736.93 4.5
6 -6 5 20.4 1.5
-6 6 -5 19.7 1.5
7 -6 5 340.47 3.3
-7 6 -5 388.96 3.4
8 -6 5 -0.7 1.3
-8 6 -5 2 1.3
-5 -5 5 50.09 1.5
5 5 -5 42.6 1.8
5 5 -5 38 1.8
5 5 -5 41.4 2.3
-4 -5 5 692.83 4.1
4 5 -5 670.03 5.4
4 5 -5 592.54 3.9
4 5 -5 574.34 5.9
-3 -5 5 12.2 1.1
3 5 -5 5.3 1.9
3 5 -5 14.7 1.5
3 5 -5 14.5 2.1
-2 -5 5 1542.35 5.6
2 5 -5 1500.35 5.5
1 5 -5 14.4 1.7
-1 -5 5 11.8 1.7
0 5 -5 2106.09 6.9
0 -5 5 2013.4 6.6
1 -5 5 125.89 2.2
-1 5 -5 140.49 2.1
2 -5 5 1798.32 7.3
2 -5 5 1648.94 9.3
-2 5 -5 1802.42 7.5
-2 5 -5 1836.22 10.9
3 -5 5 213.78 3
-3 5 -5 216.78 3.1
3 -5 5 206.08 3
-3 5 -5 229.48 3.2
4 -5 5 495.85 5.4
-4 5 -5 498.15 5.3
4 -5 5 495.15 4
-4 5 -5 513.55 4
5 -5 5 384.06 3.5
-5 5 -5 406.66 3.4
6 -5 5 167.48 2.2
-6 5 -5 200.08 2.5
7 -5 5 401.36 3.3
-7 5 -5 471.65 3.3
8 -5 5 111.59 2.2
-8 5 -5 129.99 2
6 4 -5 103.29 2.3
6 4 -5 105.09 1.9
6 4 -5 15.4 2.6
-6 -4 5 112.19 2.1
5 4 -5 297.67 3.2
-5 -4 5 336.57 3.2
5 4 -5 301.77 3
5 4 -5 344.57 3.8
-4 -4 5 593.74 3.7
4 4 -5 520.75 4.2
4 4 -5 523.05 3.4
4 4 -5 598.54 5.1
-3 -4 5 355.16 2.9
3 4 -5 353.56 3.5
3 4 -5 348.97 3
3 4 -5 375.16 4.5
-2 -4 5 811.72 4.3
2 4 -5 808.02 6
2 4 -5 719.73 3.9
2 4 -5 812.32 7.3
-1 -4 5 283.37 2.5
1 4 -5 266.17 5.6
1 4 -5 288.87 2.5
1 4 -5 303.87 6.8
0 -4 5 1211.28 5.3
0 4 -5 1177.98 5.1
1 -4 5 169.58 2.4
1 -4 5 148.89 3.9
-1 4 -5 160.38 2.3
-1 4 -5 159.88 4.9
2 -4 5 1100.29 5.8
2 -4 5 1042.7 6.5
-2 4 -5 1166.08 6.1
-2 4 -5 1108.69 7.8
3 -4 5 15.5 1.5
3 -4 5 12.4 1.4
-3 4 -5 15 1.8
-3 4 -5 12.7 1.5
-4 4 -5 1745.83 10.9
4 -4 5 1641.54 6.7
-4 4 -5 1672.93 6.9
4 -4 5 1662.33 10.1
5 -4 5 101.09 1.8
-5 4 -5 104.49 2
6 -4 5 1086.29 4.9
-6 4 -5 1121.09 5.1
7 -4 5 115.59 2.1
-7 4 -5 125.49 2
8 -4 5 583.94 3.7
-8 4 -5 644.64 3.7
9 -4 5 71.09 1.7
-9 4 -5 83.69 1.8
6 3 -5 11.1 1.4
-6 -3 5 7.1 1.2
6 3 -5 9.2 1.5
6 3 -5 11.2 1.5
5 3 -5 804.02 4.5
-5 -3 5 840.32 4.5
5 3 -5 379.16 4.4
5 3 -5 828.32 5.2
4 3 -5 11.6 1.3
-4 -3 5 14.7 1.1
4 3 -5 8.6 1.4
4 3 -5 11.6 1.5
-3 -3 5 1126.69 5.1
3 3 -5 1088.69 5.3
3 3 -5 1013.9 4.6
3 3 -5 1191.18 6.5
-2 -3 5 103.19 1.7
2 3 -5 108.19 2.2
2 3 -5 94.69 1.8
2 3 -5 102.69 2.5
-1 -3 5 759.12 4
1 3 -5 823.02 5.7
1 3 -5 756.82 4.2
1 3 -5 808.22 6.4
0 3 -5 455.75 4.9
0 -3 5 447.96 3.4
0 3 -5 427.96 4.9
0 3 -5 419.66 3.3
1 -3 5 718.03 4.4
1 -3 5 682.23 5.3
-1 3 -5 701.13 6.4
-1 3 -5 688.13 4.5
2 -3 5 1580.34 7
2 -3 5 1584.44 7
-2 3 -5 1689.93 8.6
-2 3 -5 1619.04 7.4
3 -3 5 377.36 3.4
3 -3 5 397.26 4
-3 3 -5 430.86 4.6
-3 3 -5 423.16 4
4 -3 5 2693.23 12.9
4 -3 5 2543.65 8
-4 3 -5 2789.92 15.1
-4 3 -5 2642.74 8.6
5 -3 5 240.58 2.7
-5 3 -5 238.38 2.7
6 -3 5 1608.74 5.8
-6 3 -5 1717.43 5.9
7 -3 5 27.8 1.3
-7 3 -5 34 1.6
-8 3 -5 758.52 4.1
8 -3 5 652.23 4
9 -3 5 0.8 1.3
-9 3 -5 0.4 1.3
6 2 -5 177.08 2.3
-6 -2 5 181.98 2.3
6 2 -5 132.69 2.1
6 2 -5 168.98 2.5
5 2 -5 541.45 3.4
-5 -2 5 528.85 3.7
5 2 -5 484.15 3.5
5 2 -5 524.15 3.8
4 2 -5 170.28 2.2
-4 -2 5 172.48 2.3
4 2 -5 153.08 2.2
4 2 -5 166.08 2.4
3 2 -5 924.01 4.5
3 2 -5 870.91 4.2
3 2 -5 926.41 5.1
-3 -2 5 956 4.5
-2 -2 5 13.3 1.3
2 2 -5 11.1 1.2
2 2 -5 13.5 1.4
2 2 -5 12.2 1.3
-1 -2 5 2390.46 7.1
1 2 -5 2368.76 7.4
1 2 -5 2574.94 8.4
1 2 -5 2511.15 8.5
0 -2 5 206.28 2.5
0 2 -5 195.08 2.7
0 -2 5 202.68 2.7
0 2 -5 192.48 2.4
1 -2 5 3111.69 9.5
1 -2 5 3256.27 9.1
-1 2 -5 3139.49 10.1
-1 2 -5 3109.59 9.5
2 -2 5 778.02 4.7
2 -2 5 779.22 4.8
-2 2 -5 734.63 4.9
-2 2 -5 739.83 5.4
3 -2 5 1725.73 6.6
-3 2 -5 1910.51 7.3
3 -2 5 1870.11 8
-3 2 -5 1607.34 8.9
4 -2 5 295.37 2.7
4 -2 5 334.97 4.3
-4 2 -5 310.67 3
-4 2 -5 283.07 4.8
5 -2 5 1482.95 5.6
-5 2 -5 1397.46 22
-5 2 -5 1523.45 5.8
-5 2 -5 1586.64 22.6
6 -2 5 1235.28 4.9
-6 2 -5 1257.77 5
7 -2 5 218.08 2.4
-7 2 -5 228.58 2.4
8 -2 5 395.36 3.1
-8 2 -5 465.35 3.2
9 -2 5 32.8 1.3
-9 2 -5 37.1 1.3
10 -2 5 234.98 2.6
-10 2 -5 189.68 2.7
7 1 -5 50.29 1.7
-7 -1 5 63.39 2
7 1 -5 51.09 1.9
7 1 -5 47.3 1.8
6 1 -5 306.57 2.8
-6 -1 5 322.57 3.1
6 1 -5 274.27 2.8
6 1 -5 303.47 2.9
-5 -1 5 165.18 2.1
5 1 -5 158.28 2.1
5 1 -5 143.89 2
5 1 -5 158.78 2.3
4 1 -5 139.49 1.9
4 1 -5 118.09 1.9
-4 -1 5 138.89 2.1
4 1 -5 133.49 1.9
3 1 -5 578.74 3.4
-3 -1 5 583.44 3.5
3 1 -5 532.85 3.3
3 1 -5 563.14 3.4
2 1 -5 648.64 3.8
-2 -1 5 619.24 3.7
2 1 -5 564.94 3.6
2 1 -5 635.74 3.8
1 1 -5 2644.84 7.7
1 1 -5 2628.24 7.7
-1 -1 5 2574.64 7.5
1 1 -5 2420.06 7.6
0 1 -5 353.16 3.3
0 1 -5 337.87 3.1
0 -1 5 351.66 3.1
0 -1 5 332.77 3
-1 1 -5 2637.34 8.7
-1 1 -5 2676.13 8.2
1 -1 5 2708.53 8
1 -1 5 2731.33 8.3
2 -1 5 184.28 2.4
-2 1 -5 196.58 3
-2 1 -5 182.78 2.5
2 -1 5 191.18 2.6
-3 1 -5 1400.06 7.4
3 -1 5 1583.34 5.9
3 -1 5 1743.53 7.2
-3 1 -5 1512.95 6.1
4 -1 5 40.8 1.7
4 -1 5 40 1.6
-4 1 -5 35 2
-4 1 -5 41.2 1.6
-5 1 -5 1669.53 9.6
5 -1 5 1763.62 5.7
-5 1 -5 1700.63 5.8
-5 1 -5 1557.64 9.2
-6 1 -5 187.78 3.9
-6 1 -5 181.28 3.5
-6 1 -5 164.48 1.9
6 -1 5 165.98 2.1
7 -1 5 316.77 2.7
-7 1 -5 355.16 4.7
-7 1 -5 331.07 2.8
-7 1 -5 371.06 5.6
-8 1 -5 34.9 2.4
8 -1 5 30.8 1.5
-8 1 -5 39.7 1.6
-8 1 -5 35.9 2
-9 1 -5 355.66 6.3
9 -1 5 296.97 2.9
-9 1 -5 315.57 2.8
-9 1 -5 334.87 5.6
-10 1 -5 243.08 2.7
10 -1 5 214.48 2.5
-10 1 -5 227.38 5.7
-10 1 -5 257.47 5.7
7 0 -5 0 1
7 0 -5 0.8 1.4
-7 0 5 1.5 1.6
7 0 -5 4.5 1.1
6 0 -5 388.66 2.9
-6 0 5 437.06 3.2
6 0 -5 359.46 3.1
6 0 -5 398.66 3.2
5 0 -5 127.69 1.7
-5 0 5 25.9 2.4
5 0 -5 122.49 2.1
5 0 -5 120.29 2
-4 0 5 1156.48 4.7
4 0 -5 1199.48 4.5
4 0 -5 1140.09 4.7
4 0 -5 1100.39 4.6
3 0 -5 460.85 3
-3 0 5 432.96 3
3 0 -5 411.26 2.8
3 0 -5 439.76 3
2 0 -5 2484.55 6.9
2 0 -5 2715.33 6.9
-2 0 5 2606.94 7.2
2 0 -5 2659.63 6.8
1 0 -5 1130.89 4.6
1 0 -5 1165.68 4.7
1 0 -5 1093.09 4.8
-1 0 5 1115.29 4.9
0 0 5 1420.26 5.4
0 0 -5 1489.45 5.9
0 0 5 1559.74 5.9
0 0 -5 1600.84 5.8
1 0 5 879.91 4.3
-1 0 -5 852.31 4.7
1 0 5 943.81 4.8
-1 0 -5 886.21 4.4
2 0 5 742.73 4.3
2 0 5 645.64 3.7
-2 0 -5 655.23 3.9
-2 0 -5 644.84 4.3
3 0 5 1617.14 6.5
3 0 5 1460.85 5.5
-3 0 -5 1469.95 5.5
-3 0 -5 1321.87 6.3
4 0 5 52.89 1.8
-4 0 -5 44.4 1.7
4 0 5 45.5 1.3
-4 0 -5 45.3 1.6
-5 0 -5 1457.75 7.1
5 0 5 1440.96 5.3
-5 0 -5 1485.35 7
-5 0 -5 1462.75 5.4
-6 0 -5 19.5 1.5
6 0 5 13.1 0.9
-6 0 -5 15.1 1.2
-6 0 -5 14.1 1.3
7 0 5 732.23 3.8
-7 0 -5 821.52 5.3
-7 0 -5 822.02 5.8
-7 0 -5 729.03 3.9
8 0 5 11.4 1.3
-8 0 -5 4.4 1.4
-8 0 -5 12 1.5
-8 0 -5 12.9 1.7
9 0 5 759.72 4.1
-9 0 -5 759.12 4.1
-9 0 -5 782.02 7.2
-9 0 -5 888.11 6.3
-10 0 -5 19.4 2.1
10 0 5 3.1 1.2
-10 0 -5 12.9 1.5
-10 0 -5 14.2 1.8
7 -1 -5 46 1.4
-7 1 5 8.1 1.9
7 -1 -5 42.3 1.7
7 -1 -5 11 1.7
6 -1 -5 483.45 3.1
-6 1 5 541.95 3.6
6 -1 -5 459.05 3.4
6 -1 -5 457.65 3.2
5 -1 -5 15.4 1.3
-5 1 5 17.9 1.2
5 -1 -5 17.3 1.3
5 -1 -5 17.8 1.2
4 -1 -5 1463.15 4.9
-4 1 5 1415.06 5.2
4 -1 -5 1367.96 5
4 -1 -5 1446.06 5.2
3 -1 -5 15 1.2
3 -1 -5 15.3 0.9
-3 1 5 15.9 0.9
3 -1 -5 16 1.2
2 -1 -5 1186.68 4.4
2 -1 -5 1166.58 4.7
2 -1 -5 1162.88 4.4
-2 1 5 1176.28 4.8
1 -1 -5 25.2 1.3
1 -1 -5 21.4 1.1
-1 1 5 20.9 1.1
0 1 5 1878.61 5.7
0 -1 -5 1990.7 6.1
0 -1 -5 1727.33 6.1
0 1 5 1837.82 6.1
-1 -1 -5 158.28 1.9
-1 -1 -5 152.88 2.3
1 1 5 171.28 2.3
1 1 5 152.08 1.8
2 1 5 1183.58 4.7
-2 -1 -5 1245.18 4.9
2 1 5 1357.16 5.4
-2 -1 -5 1186.68 5.3
-3 -1 -5 813.12 4.5
-3 -1 -5 804.92 3.9
3 1 5 939.91 4.7
3 1 5 798.02 4
-4 -1 -5 971 4.4
-4 -1 -5 1096.59 5.4
-4 -1 -5 986.2 4.9
4 1 5 952 4.2
-5 -1 -5 1102.99 5.4
-5 -1 -5 999 5.3
5 1 5 1010.5 4.2
-5 -1 -5 991.1 4.3
-6 -1 -5 564.94 4.1
6 1 5 549.74 3.2
-6 -1 -5 526.65 3.1
-6 -1 -5 556.24 3.8
-7 -1 -5 820.72 4.8
7 1 5 744.93 3.8
-7 -1 -5 823.02 5.2
-7 -1 -5 749.23 3.8
8 1 5 179.68 2.3
-8 -1 -5 209.18 3
-8 -1 -5 191.48 2.1
-8 -1 -5 202.98 2.7
-9 -1 -5 314.57 3.4
9 1 5 294.07 2.8
-9 -1 -5 290.47 2.7
-9 -1 -5 347.47 3.8
10 1 5 46 1.5
-10 -1 -5 56.79 2.2
-10 -1 -5 48.2 1.8
-10 -1 -5 56.49 2.3
7 -2 -5 215.68 2.5
7 -2 -5 18.9 2.7
7 -2 -5 204.98 2.5
-7 2 5 218.78 3
6 -2 -5 168.38 2.1
6 -2 -5 149.49 1.9
-6 2 5 184.38 2.5
6 -2 -5 166.38 2.3
5 -2 -5 389.76 2.7
-5 2 5 414.36 3.2
5 -2 -5 369.46 2.7
5 -2 -5 386.16 3
4 -2 -5 446.06 3.1
4 -2 -5 434.46 2.6
-4 2 5 430.96 3.1
4 -2 -5 428.76 2.6
3 -2 -5 242.88 2.3
3 -2 -5 224.88 2
-3 2 5 250.47 2.5
3 -2 -5 213.88 1.9
2 -2 -5 679.63 3.3
2 -2 -5 681.53 3.2
2 -2 -5 649.34 3.5
-2 2 5 705.93 3.9
-1 2 5 318.77 2.6
-1 2 5 313.07 2.3
1 -2 -5 286.37 2.5
1 -2 -5 331.57 2.4
0 -2 -5 1903.41 5.6
0 2 5 1839.32 5.9
0 2 5 1732.93 5.3
0 -2 -5 1689.93 5.6
1 2 5 99.59 1.7
1 2 5 113.09 1.7
-1 -2 -5 97.89 1.7
-1 -2 -5 106.89 1.9
-2 -2 -5 1905.91 6.2
2 2 5 2180.08 6.5
-2 -2 -5 1907.71 5.7
2 2 5 1838.82 5.5
-3 -2 -5 9.2 1
3 2 5 1.4 1.1
-3 -2 -5 2.4 1.1
3 2 5 4.2 0.9
-4 -2 -5 4039.5 9.2
-4 -2 -5 3545.25 8.5
-4 -2 -5 3229.48 7.5
4 2 5 3438.46 7.8
5 2 5 7.2 1.1
-5 -2 -5 9.1 0.8
-5 -2 -5 9.8 1.4
-5 -2 -5 8 1
-6 -2 -5 1782.72 6.1
-6 -2 -5 1769.72 6.4
6 2 5 1710.63 5.4
-6 -2 -5 1642.14 5.3
-7 -2 -5 66.29 1.7
-7 -2 -5 68.09 1.8
7 2 5 62.19 1.7
-7 -2 -5 59.49 1.6
8 2 5 501.05 3.3
-8 -2 -5 516.85 3.7
-8 -2 -5 470.15 3.2
-8 -2 -5 528.85 3.9
-9 -2 -5 73.29 1.8
9 2 5 81.19 1.9
-9 -2 -5 90.19 2.2
-9 -2 -5 76.09 1.6
10 2 5 125.29 2.3
-10 -2 -5 128.49 2.4
-10 -2 -5 129.79 2.2
-10 -2 -5 130.09 2.5
-6 3 5 19.6 1.2
6 -3 -5 22 1.5
6 -3 -5 18.6 1.1
6 -3 -5 19.9 1.2
-5 3 5 513.75 3.4
5 -3 -5 491.95 3.2
5 -3 -5 479.45 3.1
5 -3 -5 530.95 3.5
-4 3 5 249.08 2.4
4 -3 -5 257.47 2.6
4 -3 -5 234.18 2
4 -3 -5 228.18 2
3 -3 -5 653.13 3.3
-3 3 5 723.83 3.7
3 -3 -5 709.43 3.7
3 -3 -5 639.94 3.1
2 -3 -5 588.74 2.9
2 -3 -5 655.03 3.1
2 -3 -5 642.54 3.4
-2 3 5 702.63 3.7
1 -3 -5 806.82 3.5
-1 3 5 892.01 4.1
1 -3 -5 783.02 3.7
-1 3 5 772.22 3.4
0 -3 -5 2384.06 6
0 3 5 2215.98 5.8
0 3 5 2573.04 6.8
0 -3 -5 2278.87 6.3
-1 -3 -5 86.19 1.5
1 3 5 86.89 1.4
1 3 5 98.39 1.8
-1 -3 -5 80.69 1.3
2 3 5 2109.69 5.8
-2 -3 -5 2142.29 5.8
2 3 5 2416.96 6.6
-2 -3 -5 2189.58 6.3
3 3 5 815.72 3.7
-3 -3 -5 819.72 3.7
-3 -3 -5 914.91 4.1
4 3 5 1799.42 5.3
-4 -3 -5 2074.49 6.4
-4 -3 -5 1783.12 5.3
-4 -3 -5 1856.21 5.8
5 3 5 47.8 1.1
-5 -3 -5 47.7 1.7
-5 -3 -5 48.3 1.3
-5 -3 -5 52.69 1.4
-6 -3 -5 951.6 4.5
6 3 5 959 4.3
-6 -3 -5 938.51 4.2
-6 -3 -5 1034.8 4.6
7 3 5 18.6 1.1
-7 -3 -5 19.8 1.4
-7 -3 -5 18.8 1.3
-7 -3 -5 19.3 1.4
-8 -3 -5 422.76 3.2
-8 -3 -5 451.15 3.4
8 3 5 414.06 3.2
-8 -3 -5 301.27 3.3
-9 -3 -5 46.2 1.8
9 3 5 41.3 1.6
-9 -3 -5 38 1.6
-9 -3 -5 42 1.6
6 -4 -5 12.5 1.2
-6 4 5 12.2 1.6
6 -4 -5 11.4 1.2
6 -4 -5 10.8 1.2
5 -4 -5 403.76 3.3
-5 4 5 367.76 3.1
5 -4 -5 338.87 2.6
5 -4 -5 334.97 2.7
4 -4 -5 1.9 1.1
4 -4 -5 1.2 1.3
-4 4 5 1.4 1.2
4 -4 -5 0.9 0.8
3 -4 -5 811.92 3.6
3 -4 -5 837.42 4.1
-3 4 5 908.91 4.2
3 -4 -5 792.82 3.6
2 -4 -5 6.9 0.8
2 -4 -5 7.1 0.8
2 -4 -5 8.5 0.9
-2 4 5 7.6 0.9
-1 4 5 1958.6 5.2
1 -4 -5 2015.9 5.4
1 -4 -5 2148.78 5.9
-1 4 5 2173.98 6.1
0 -4 -5 659.53 3.3
0 -4 -5 625.84 3.1
0 4 5 736.13 3.5
0 4 5 623.64 3.1
-1 -4 -5 1710.73 5.4
1 4 5 1551.44 4.8
-1 -4 -5 1593.24 4.8
1 4 5 1782.22 5.4
2 4 5 206.58 1.8
-2 -4 -5 215.58 1.9
-2 -4 -5 213.98 2
2 4 5 236.98 2.2
3 4 5 906.41 3.7
-3 -4 -5 884.71 3.9
-3 -4 -5 942.11 3.8
-3 -4 -5 1040.6 4.3
4 4 5 458.35 2.7
-4 -4 -5 469.25 2.9
-4 -4 -5 543.45 3.1
-4 -4 -5 464.05 2.9
-5 -4 -5 108.99 1.8
-5 -4 -5 123.99 1.7
5 4 5 116.79 1.7
-5 -4 -5 105.99 1.5
-6 -4 -5 477.15 3.2
6 4 5 435.46 2.8
-6 -4 -5 460.15 3
-6 -4 -5 459.35 3.1
7 4 5 83.79 1.8
-7 -4 -5 69.99 1.5
-7 -4 -5 83.09 1.5
-7 -4 -5 24 1.8
-8 -4 -5 454.05 3.3
-8 -4 -5 421.36 3.2
-8 -4 -5 458.95 3.3
8 4 5 436.26 3.3
-9 -4 -5 70.59 2
9 4 5 70.29 1.6
-9 -4 -5 71.29 1.7
-9 -4 -5 67.19 1.7
-6 5 5 146.59 2.5
6 -5 -5 126.29 2
6 -5 -5 130.29 2
6 -5 -5 153.48 2.5
-5 5 5 343.67 3.1
5 -5 -5 312.07 2.7
5 -5 -5 329.47 2.9
5 -5 -5 283.97 2.5
4 -5 -5 275.17 2.2
-4 5 5 310.57 2.7
4 -5 -5 300.87 2.8
4 -5 -5 270.87 2.3
3 -5 -5 596.14 3.2
3 -5 -5 653.83 3.5
-3 5 5 670.73 3.7
3 -5 -5 619.04 3.3
2 -5 -5 284.47 2.2
-2 5 5 345.47 2.8
2 -5 -5 298.07 2.3
2 -5 -5 314.17 2.5
1 -5 -5 993 3.7
-1 5 5 1194.78 4.5
1 -5 -5 1084.39 4.1
0 5 5 128.79 1.5
0 -5 -5 130.09 1.5
0 -5 -5 135.79 1.6
0 5 5 149.99 1.7
1 5 5 783.52 3.4
1 5 5 921.71 3.9
-1 -5 -5 789.32 3.3
-1 -5 -5 822.42 3.6
2 5 5 19.2 1.1
-2 -5 -5 20 0.9
-2 -5 -5 17.2 0.9
3 5 5 1108.99 4
-3 -5 -5 1137.49 4
-3 -5 -5 1126.59 4.3
-3 -5 -5 1012.3 4.1
-4 -5 -5 185.88 2
-4 -5 -5 225.88 2.2
-4 -5 -5 210.38 2
4 5 5 198.38 1.9
5 5 5 901.91 4
-5 -5 -5 1014.5 4.3
-5 -5 -5 880.51 3.9
-5 -5 -5 868.71 3.9
-6 -5 -5 179.68 2
6 5 5 161.08 1.9
-6 -5 -5 182.38 2.2
-6 -5 -5 172.48 2.1
7 5 5 694.73 3.8
-7 -5 -5 699.93 3.8
-7 -5 -5 699.83 3.7
-7 -5 -5 706.73 3.8
8 5 5 181.48 2.2
-8 -5 -5 195.68 2.4
-8 -5 -5 175.98 2.2
-8 -5 -5 174.38 2.3
9 5 5 337.47 3.1
-9 -5 -5 338.47 3.3
-9 -5 -5 321.77 3.1
-9 -5 -5 332.67 3.1
-5 6 5 85.39 2.1
5 -6 -5 75.89 1.8
5 -6 -5 86.09 2.1
5 -6 -5 76.39 1.7
4 -6 -5 523.05 3.2
-4 6 5 620.64 3.9
4 -6 -5 577.04 3.7
4 -6 -5 519.65 3.4
3 -6 -5 134.49 1.8
-3 6 5 138.49 1.9
3 -6 -5 137.59 1.8
3 -6 -5 124.09 1.6
2 -6 -5 460.45 2.7
2 -6 -5 447.96 2.6
-2 6 5 535.15 3.4
2 -6 -5 489.65 3
1 -6 -5 295.27 2.5
-1 6 5 314.07 2.5
1 -6 -5 287.37 2.2
0 6 5 441.76 2.6
0 -6 -5 486.25 2.8
0 6 5 483.95 3
0 -6 -5 433.86 2.5
1 6 5 853.51 3.5
-1 -6 -5 805.32 3.3
-1 -6 -5 777.52 3.5
2 6 5 74.49 1.3
-2 -6 -5 82.99 1.5
-2 -6 -5 68.79 1.3
-2 -6 -5 77.99 1.3
-3 -6 -5 1016.7 4.2
3 6 5 1040.2 4
-3 -6 -5 1086.39 4.3
-3 -6 -5 1063.89 4
4 6 5 39.7 1.4
-4 -6 -5 38.8 1.4
-4 -6 -5 32.8 1.3
-4 -6 -5 39.3 1.2
-5 -6 -5 872.71 4.1
5 6 5 877.31 4.1
-5 -6 -5 955.2 4.1
-5 -6 -5 1046.6 4.3
-6 -6 -5 2.8 1.4
6 6 5 0.5 0.9
-6 -6 -5 0.9 1.2
-6 -6 -5 -0.4 1.2
7 6 5 619.34 3.8
-7 -6 -5 239.18 3.8
-7 -6 -5 610.94 3.6
-7 -6 -5 679.33 3.8
-8 -6 -5 0.4 1.4
8 6 5 -0.3 1.4
-8 -6 -5 0.2 1.1
-8 -6 -5 2.2 1.4
5 -7 -5 4.9 1.4
5 -7 -5 3.6 1.5
-5 7 5 11.6 1.5
5 -7 -5 11.1 1
4 -7 -5 236.08 2.3
4 -7 -5 259.97 2.9
4 -7 -5 225.08 2.2
-4 7 5 279.87 3
-3 7 5 0.6 1
3 -7 -5 1.9 0.9
3 -7 -5 2 1.2
3 -7 -5 1.9 0.9
2 -7 -5 -49.2 3.3
2 -7 -5 561.54 3
-2 7 5 579.54 3.5
2 -7 -5 591.04 3.4
1 -7 -5 186.08 1.9
1 -7 -5 185.18 2
-1 7 5 197.68 2.3
1 -7 -5 181.08 1.8
0 -7 -5 637.64 3.2
0 -7 -5 679.53 3.4
0 7 5 650.23 3.3
-1 -7 -5 341.37 2.5
1 7 5 368.66 2.5
-1 -7 -5 365.76 2.5
-1 -7 -5 387.66 2.6
-2 -7 -5 657.43 3.5
2 7 5 601.24 3.2
-2 -7 -5 570.94 3.3
-2 -7 -5 663.93 3.3
-3 -7 -5 147.69 2
3 7 5 155.38 1.7
-3 -7 -5 162.98 1.9
-3 -7 -5 155.78 1.9
-4 -7 -5 684.13 3.6
4 7 5 689.53 3.5
-4 -7 -5 678.93 3.4
-4 -7 -5 773.22 3.9
-5 -7 -5 399.46 3
-5 -7 -5 393.46 2.9
-5 -7 -5 365.16 2.8
5 7 5 374.86 2.9
6 7 5 192.18 2.1
-6 -7 -5 200.08 2.5
-6 -7 -5 205.48 2.4
-6 -7 -5 217.28 2.4
-7 -7 -5 218.78 2.6
-7 -7 -5 209.28 2.5
-7 -7 -5 213.58 2.5
7 7 5 213.18 2.6
8 7 5 39 1.7
-8 -7 -5 41 1.7
-8 -7 -5 43 1.7
-8 -7 -5 39.8 1.4
4 -8 -5 84.49 1.5
-4 8 5 92.99 2
4 -8 -5 0.1 2
4 -8 -5 78.09 1.5
-3 8 5 56.89 1.9
3 -8 -5 51.89 1.7
3 -8 -5 -7 1.5
3 -8 -5 49.1 1.3
2 -8 -5 447.76 2.9
2 -8 -5 476.25 3
-2 8 5 503.45 3.4
2 -8 -5 485.95 3.3
1 -8 -5 17.2 1
1 -8 -5 17.4 1.3
1 -8 -5 15.7 0.9
1 -8 -5 17.6 1.3
0 8 5 565.04 3.2
0 -8 -5 466.85 3.1
0 -8 -5 527.75 2.9
0 -8 -5 518.75 3.2
-1 -8 -5 45.9 1.6
1 8 5 43.8 1.1
-1 -8 -5 47.6 1.3
-1 -8 -5 43.2 1.2
-2 -8 -5 695.93 3.7
-2 -8 -5 596.64 3.5
-2 -8 -5 653.93 3.4
2 8 5 631.54 3.3
-3 -8 -5 11.2 1.3
-3 -8 -5 22.8 1
-3 -8 -5 19.6 1.3
3 8 5 10.8 1.2
-4 -8 -5 512.25 3.2
4 8 5 508.75 3.3
-4 -8 -5 528.15 3.3
-4 -8 -5 545.85 3.3
-5 -8 -5 19.6 1.2
-5 -8 -5 16.1 1
-5 -8 -5 14.9 1.4
5 8 5 16.2 1.2
6 8 5 289.27 3
-6 -8 -5 292.47 2.6
-6 -8 -5 342.77 3
-6 -8 -5 291.37 3
-7 -8 -5 29 1.5
7 8 5 21.8 1.3
-7 -8 -5 26.6 1.4
-7 -8 -5 27.5 1.3
3 -9 -5 219.18 2.3
3 -9 -5 178.08 2.6
3 -9 -5 187.48 2.5
3 -9 -5 -38 2.3
2 -9 -5 142.99 2.3
2 -9 -5 148.99 2.1
2 -9 -5 -57.29 2
2 -9 -5 153.18 2
1 -9 -5 320.97 2.7
1 -9 -5 332.97 2.9
1 -9 -5 280.07 2.8
1 -9 -5 309.57 2.6
0 -9 -5 250.87 2.3
0 -9 -5 250.77 2.4
0 -9 -5 241.78 2.6
0 -9 -5 279.57 2.5
-1 -9 -5 230.98 2.5
-1 -9 -5 245.38 2.2
1 9 5 243.08 2.3
-1 -9 -5 233.68 2.3
-2 -9 -5 274.37 2.6
2 9 5 259.97 2.3
-2 -9 -5 282.87 2.5
-2 -9 -5 235.88 2.6
-3 -9 -5 42.5 1.4
-3 -9 -5 37.4 1.3
-3 -9 -5 36.3 1.6
3 9 5 33.1 1.1
4 9 5 215.38 2.5
-4 -9 -5 207.28 2.3
-4 -9 -5 220.48 2.4
-4 -9 -5 238.48 2.7
-5 -9 -5 11.7 1.1
5 9 5 11.8 1.1
-5 -9 -5 12 1.1
-5 -9 -5 12.3 1.1
1 -10 -5 -70.49 2.1
1 -10 -5 206.78 2.3
1 -10 -5 204.08 2.7
1 -10 -5 211.88 2.4
0 -10 -5 30.8 1.5
0 -10 -5 27.5 1.7
0 -10 -5 2.5 1.7
0 -10 -5 27.9 1.4
-1 -10 -5 151.28 2
-1 -10 -5 138.19 2.1
-1 -10 -5 132.69 2.2
2 10 5 98.79 1.9
-2 -10 -5 91.89 1.7
-2 -10 -5 110.59 1.9
-2 -10 -5 92.49 1.9
3 10 5 98.39 1.9
-3 -10 -5 84.99 1.9
-3 -10 -5 101.69 2.1
-3 -10 -5 98.59 1.8
2 -9 6 246.88 3.4
-2 9 -6 223.28 3.1
-1 -8 6 135.49 2.4
1 8 -6 139.19 2.3
0 -8 6 51.79 2.1
0 8 -6 76.19 1.9
1 -8 6 133.09 2.4
-1 8 -6 136.89 2.5
2 -8 6 366.66 3.6
-2 8 -6 375.56 3.7
3 -8 6 16.8 1.7
-3 8 -6 14.9 1.6
4 -8 6 441.56 5.7
4 -8 6 510.25 5.3
4 -8 6 454.05 5.9
5 -8 6 2.2 1.9
5 -8 6 0.9 1.8
5 -8 6 1.4 1.6
-3 -7 6 211.58 2.8
3 7 -6 165.38 2.7
-2 -7 6 0.5 1.5
2 7 -6 1.6 1.5
-1 -7 6 390.96 3.3
1 7 -6 389.76 3.3
0 -7 6 121.89 2.1
0 7 -6 137.29 2.3
1 -7 6 581.94 4
-1 7 -6 639.24 4.3
2 -7 6 242.18 2.9
-2 7 -6 254.97 2.9
3 -7 6 511.65 6.7
-3 7 -6 561.54 4.4
3 -7 6 483.65 6.4
3 -7 6 491.95 4.4
-4 7 -6 343.07 4.3
4 -7 6 345.07 4.3
4 -7 6 318.47 4
-4 7 -6 327.77 4
-5 7 -6 -15 4.2
5 -7 6 321.27 6.5
5 -7 6 339.67 3.8
5 -7 6 311.37 6.3
6 -7 6 238.38 3.2
-6 7 -6 290.27 3.3
7 -7 6 71.69 2
-7 7 -6 85.99 2.1
-4 -6 6 58.69 1.8
4 6 -6 44.7 3.6
4 6 -6 -8.6 1.6
4 6 -6 50.89 4.1
-3 -6 6 314.97 3
3 6 -6 269.07 2.9
-2 -6 6 29.5 1.3
2 6 -6 32.6 1.7
-1 -6 6 867.91 4.5
1 6 -6 901.81 4.7
0 -6 6 0.4 1.4
0 6 -6 0.1 1.4
1 -6 6 694.33 4.3
-1 6 -6 768.62 4.6
-2 6 -6 39.3 1.7
2 -6 6 36.9 1.7
-3 6 -6 1170.88 7.9
-3 6 -6 1121.79 6.4
3 -6 6 1012.1 6.8
3 -6 6 1069.99 6.1
-4 6 -6 71.59 2.3
4 -6 6 71.09 2.5
4 -6 6 69.39 2.3
-4 6 -6 76.39 2.5
5 -6 6 658.33 10.7
5 -6 6 589.14 4.4
5 -6 6 639.64 10.7
-5 6 -6 627.14 4.4
6 -6 6 85.99 2
-6 6 -6 94.79 2
7 -6 6 171.98 2.5
-7 6 -6 225.78 2.8
8 -6 6 80.49 1.9
-8 6 -6 100.99 2
-4 -5 6 277.07 2.8
4 5 -6 264.07 3.8
4 5 -6 249.78 2.7
4 5 -6 266.07 4.5
-3 -5 6 375.06 3.4
3 5 -6 341.87 3.2
3 5 -6 335.77 5.7
3 5 -6 391.76 5.2
-2 -5 6 551.54 3.7
2 5 -6 476.15 3.4
-1 -5 6 645.04 3.7
1 5 -6 654.53 4
0 5 -6 352.06 3
0 -5 6 357.06 3
1 -5 6 233.78 2.5
-1 5 -6 266.67 2.8
2 -5 6 216.88 2.7
2 -5 6 227.38 3.9
-2 5 -6 230.98 2.9
-2 5 -6 233.28 4.8
3 -5 6 632.94 4.6
3 -5 6 596.44 4.7
-3 5 -6 688.53 5
-3 5 -6 660.73 5.5
-4 5 -6 12.1 1.5
4 -5 6 9.9 1.4
4 -5 6 9.5 1.6
-4 5 -6 10.1 1.5
5 -5 6 326.07 3.2
-5 5 -6 331.57 3.1
6 -5 6 12.6 1.4
-6 5 -6 11.5 1.4
7 -5 6 493.95 3.6
-7 5 -6 548.75 3.7
8 -5 6 9.9 1.4
-8 5 -6 11.2 1.5
5 4 -6 1.4 1.2
5 4 -6 0.6 1.1
5 4 -6 0.5 1.6
-5 -4 6 0.2 1.2
4 4 -6 678.03 4.8
-4 -4 6 695.43 4.2
4 4 -6 625.44 4
4 4 -6 749.82 6
3 4 -6 5 1.3
3 4 -6 5.4 1.5
3 4 -6 5.2 1.8
-3 -4 6 6.2 1.2
2 4 -6 1212.08 7.2
2 4 -6 969.9 4.7
2 4 -6 1182.18 8.7
-2 -4 6 1031.3 4.7
-1 -4 6 43.3 1.7
1 4 -6 43.1 2.3
1 4 -6 49 1.7
1 4 -6 48.1 2.7
0 -4 6 838.42 4.3
0 4 -6 802.32 9.5
0 4 -6 830.12 4.4
0 4 -6 879.61 9.7
1 -4 6 178.78 2.3
1 -4 6 176.48 3.5
-1 4 -6 177.38 2.5
-1 4 -6 187.68 4.4
2 -4 6 1158.58 6.5
2 -4 6 1201.28 5.6
-2 4 -6 1191.38 5.9
-2 4 -6 1209.28 8.4
3 -4 6 692.93 4.6
3 -4 6 756.32 4.9
-3 4 -6 808.92 5.5
-3 4 -6 757.02 5.8
-4 4 -6 628.14 5.6
4 -4 6 581.64 4
-4 4 -6 553.74 4.3
4 -4 6 587.74 4.9
5 -4 6 631.94 4
-5 4 -6 642.54 4.3
6 -4 6 367.06 3.2
-6 4 -6 348.37 3
7 -4 6 785.42 4.4
-7 4 -6 870.31 4.5
8 -4 6 63.79 1.6
-8 4 -6 70.79 1.9
9 -4 6 404.36 3.3
-9 4 -6 496.75 3.7
5 3 -6 118.19 2.1
5 3 -6 94.39 1.9
5 3 -6 115.49 2.4
-5 -3 6 124.69 2.2
4 3 -6 392.36 3.2
-4 -3 6 391.06 3
4 3 -6 364.86 2.9
4 3 -6 417.66 3.9
3 3 -6 181.58 2.4
-3 -3 6 178.48 2.2
3 3 -6 167.98 2.3
3 3 -6 184.08 2.8
2 3 -6 705.93 4.7
-2 -3 6 674.53 3.8
2 3 -6 636.84 3.9
2 3 -6 709.93 5.2
-1 -3 6 61.79 1.5
1 3 -6 64.09 1.8
1 3 -6 64.99 1.7
1 3 -6 60.59 1.9
0 3 -6 1213.68 6.7
0 -3 6 1154.68 4.9
0 3 -6 1111.79 6.5
0 3 -6 1085.99 5
1 -3 6 37.2 1.7
1 -3 6 27.8 1.4
-1 3 -6 26.6 1.8
-1 3 -6 29.3 1.7
2 -3 6 2391.46 8.1
2 -3 6 2453.85 7.8
-2 3 -6 2387.96 9.7
-2 3 -6 2168.88 8.1
3 -3 6 346.07 3.1
3 -3 6 355.46 3.4
-3 3 -6 373.16 3.7
-3 3 -6 343.87 3.9
4 -3 6 1768.52 8
4 -3 6 1709.73 6.4
-4 3 -6 1763.12 7
-4 3 -6 1717.43 9.6
-5 3 -6 384.76 7.3
5 -3 6 340.77 3
-5 3 -6 357.36 3.1
6 -3 6 1159.08 4.9
-6 3 -6 1085.19 5
7 -3 6 199.48 2.3
-7 3 -6 210.08 2.3
8 -3 6 333.47 2.9
-8 3 -6 357.86 2.9
9 -3 6 155.58 2.3
-9 3 -6 163.18 2.2
-6 -2 6 47.5 1.5
6 2 -6 41.3 1.4
6 2 -6 39.9 1.6
6 2 -6 52.49 1.9
5 2 -6 237.08 2.5
-5 -2 6 231.78 2.6
5 2 -6 194.68 2.4
5 2 -6 224.48 2.8
4 2 -6 217.38 2.3
-4 -2 6 215.28 2.4
4 2 -6 203.78 2.4
4 2 -6 197.98 2.6
-3 -2 6 429.86 3.3
3 2 -6 428.96 3.2
3 2 -6 386.66 3
3 2 -6 429.16 3.5
2 2 -6 573.84 3.8
-2 -2 6 592.44 3.6
2 2 -6 531.85 3.5
2 2 -6 579.24 4
1 2 -6 243.88 2.7
-1 -2 6 247.88 2.5
1 2 -6 223.78 2.3
1 2 -6 256.47 2.7
0 -2 6 1557.44 6.4
0 2 -6 1558.14 6.4
0 -2 6 1626.24 5.7
0 2 -6 1507.75 5.8
1 -2 6 318.27 3
-1 2 -6 331.77 3.2
1 -2 6 337.07 2.8
-1 2 -6 322.97 3.2
2 -2 6 1831.32 6.5
-2 2 -6 1763.22 6.9
2 -2 6 1797.32 6.6
-2 2 -6 1622.84 6.9
-3 2 -6 325.17 3.7
3 -2 6 355.96 3
-3 2 -6 359.06 3.2
3 -2 6 373.26 3.4
-4 2 -6 1870.91 9.5
4 -2 6 2196.98 6.9
4 -2 6 2388.16 9
-4 2 -6 2372.46 7.4
-5 2 -6 57.99 2.8
5 -2 6 63.29 1.7
-5 2 -6 57.59 1.5
6 -2 6 1024.8 4.6
-6 2 -6 981.1 4.6
7 -2 6 10.8 1.1
-7 2 -6 11 1.5
8 -2 6 434.36 3.3
-8 2 -6 437.96 3.1
9 -2 6 36 1.3
-9 2 -6 41.2 1.6
6 1 -6 0.9 1
-6 -1 6 0.7 1
6 1 -6 1.5 1.3
6 1 -6 1.5 1.1
5 1 -6 312.97 2.7
-5 -1 6 303.77 3
5 1 -6 276.07 2.6
5 1 -6 287.97 2.7
-4 -1 6 17.9 1.2
4 1 -6 20.9 1
4 1 -6 17.9 1.1
4 1 -6 17 1.3
3 1 -6 957.2 4.3
-3 -1 6 941.61 4.6
3 1 -6 926.61 4.4
3 1 -6 935.91 4.5
2 1 -6 227.68 2.2
-2 -1 6 236.18 2.3
2 1 -6 218.78 2.2
2 1 -6 227.98 2.4
1 1 -6 1396.96 5.4
1 1 -6 1417.56 5.4
-1 -1 6 1269.27 4.9
1 1 -6 1307.67 5.2
0 1 -6 682.03 4
0 -1 6 651.13 3.7
0 1 -6 653.43 3.9
0 -1 6 638.04 3.6
-1 1 -6 2147.49 7.1
1 -1 6 2068.69 6.6
-1 1 -6 2120.99 6.8
1 -1 6 2182.08 6.7
-2 1 -6 638.84 4.2
2 -1 6 660.33 3.8
-2 1 -6 671.33 4
2 -1 6 659.73 3.8
-3 1 -6 2294.37 8.4
3 -1 6 2543.45 6.9
-3 1 -6 2474.15 7.3
3 -1 6 2649.73 8.1
-4 1 -6 1053.59 6.1
4 -1 6 1177.68 4.8
-4 1 -6 1282.37 5.1
4 -1 6 1383.76 6.3
5 -1 6 318.97 2.7
-5 1 -6 253.77 3.4
-5 1 -6 299.47 2.7
-5 1 -6 266.07 3.4
-6 1 -6 768.32 6.5
6 -1 6 796.02 4
-6 1 -6 752.62 3.7
-6 1 -6 695.63 6.1
7 -1 6 71.69 1.7
-7 1 -6 72.69 2.8
-7 1 -6 66.89 1.5
-7 1 -6 75.19 2.5
-8 1 -6 999.1 8.8
8 -1 6 928.01 4.6
-8 1 -6 768.72 4.8
-8 1 -6 1067.99 10.2
-9 1 -6 14.8 2.2
-9 1 -6 14.3 2.7
9 -1 6 3.6 1.5
-9 1 -6 11.4 1.2
10 -1 6 344.17 3.3
-10 1 -6 351.06 3.1
6 0 -6 113.49 1.8
-6 0 6 112.49 2.2
6 0 -6 108.19 2
6 0 -6 124.19 2.1
-5 0 6 224.98 2.4
5 0 -6 193.28 2.3
5 0 -6 223.28 2.4
5 0 -6 237.58 2.3
4 0 -6 525.35 3.1
-4 0 6 544.25 3.4
4 0 -6 529.65 3.3
4 0 -6 518.65 3.2
3 0 -6 1447.76 5
-3 0 6 1489.65 5.4
3 0 -6 1378.56 5.1
3 0 -6 1385.76 5
2 0 -6 111.19 1.7
2 0 -6 121.09 1.9
-2 0 6 112.79 1.7
2 0 -6 111.49 1.8
1 0 -6 1869.41 6
1 0 -6 2017 6
1 0 -6 1975.5 5.8
-1 0 6 1944.41 6.1
0 0 6 254.47 2.2
0 0 -6 268.67 2.5
0 0 -6 278.57 2.5
0 0 6 258.97 2.5
1 0 6 2105.19 6.1
-1 0 -6 2011.7 6.7
-1 0 -6 2121.99 6.3
1 0 6 2093.09 6.4
2 0 6 14 1.1
2 0 6 11.9 0.9
-2 0 -6 12.6 1.3
-2 0 -6 9.8 1.5
-3 0 -6 1680.73 5.6
-3 0 -6 1453.25 6.1
3 0 6 1795.12 6.2
3 0 6 1603.54 5.4
4 0 6 381.16 2.8
-4 0 -6 381.26 2.8
-4 0 -6 380.96 3.3
4 0 6 463.85 3.5
-5 0 -6 1023.6 5.6
-5 0 -6 1049.89 5.5
-5 0 -6 1115.19 4.5
5 0 6 1109.49 4.4
-6 0 -6 711.03 5
-6 0 -6 695.73 4.8
6 0 6 679.03 3.5
-6 0 -6 659.93 3.5
7 0 6 1372.96 5.1
-7 0 -6 1587.54 8
-7 0 -6 1501.45 7.2
-7 0 -6 1472.75 5.2
8 0 6 742.13 3.9
-8 0 -6 862.51 6.6
-8 0 -6 782.42 3.9
-8 0 -6 821.42 5.7
9 0 6 290.67 2.7
-9 0 -6 274.07 2.9
-9 0 -6 347.37 4.7
-9 0 -6 295.77 4.3
-10 0 -6 273.87 5.3
10 0 6 263.37 2.7
-10 0 -6 240.88 2.9
-10 0 -6 260.67 4.5
6 -1 -6 378.06 3.1
-6 1 6 401.96 3.6
6 -1 -6 353.66 3.4
6 -1 -6 335.67 3
5 -1 -6 169.98 1.9
-5 1 6 181.78 2.3
5 -1 -6 168.38 2.1
5 -1 -6 158.48 2
-4 1 6 581.04 3.5
4 -1 -6 542.45 3.1
4 -1 -6 529.35 3.2
4 -1 -6 574.64 3.4
3 -1 -6 554.84 3.4
3 -1 -6 565.64 3.1
-3 1 6 531.95 3.4
3 -1 -6 543.55 3.2
2 -1 -6 692.23 3.3
2 -1 -6 659.63 3.6
2 -1 -6 688.53 3.4
-2 1 6 671.13 3.7
1 -1 -6 537.75 3.3
1 -1 -6 608.24 3.1
-1 1 6 551.24 3.4
0 1 6 587.34 3.1
0 -1 -6 608.74 3.2
0 -1 -6 525.85 3.4
0 1 6 550.24 3.3
1 1 6 1543.75 5.3
1 1 6 1378.36 4.8
-1 -1 -6 1383.86 4.8
-1 -1 -6 1361.16 5.1
2 1 6 40.6 1.3
-2 -1 -6 32.3 1
2 1 6 36.1 1.4
-2 -1 -6 32.5 1.2
3 1 6 1340.77 4.7
3 1 6 1578.14 5.6
-3 -1 -6 1380.46 4.8
-3 -1 -6 1402.66 5.6
-4 -1 -6 16 1.4
4 1 6 13.6 0.9
-4 -1 -6 18.9 1.1
4 1 6 16.4 1.3
-5 -1 -6 1863.01 6.6
5 1 6 1850.31 5.6
-5 -1 -6 1939.61 6.8
-5 -1 -6 1872.11 5.6
-6 -1 -6 24.3 1.5
6 1 6 21.9 1
-6 -1 -6 21.1 1
-6 -1 -6 22.8 1.4
-7 -1 -6 1282.67 5.9
-7 -1 -6 1294.77 6.4
7 1 6 1248.18 4.8
-7 -1 -6 1231.58 4.7
-8 -1 -6 35.1 1.6
8 1 6 32.3 1.5
-8 -1 -6 32.1 1.8
-8 -1 -6 33.4 1.5
9 1 6 453.05 3.3
-9 -1 -6 519.05 4.2
-9 -1 -6 499.85 4.7
-9 -1 -6 464.65 3.3
10 1 6 64.89 1.8
-10 -1 -6 11.9 2.4
-10 -1 -6 56.09 1.7
-10 -1 -6 75.49 2.6
6 -2 -6 321.67 2.9
6 -2 -6 322.47 2.9
6 -2 -6 354.56 3.3
-6 2 6 358.06 3.3
5 -2 -6 3.5 0.9
-5 2 6 5.3 1.1
5 -2 -6 2.3 0.9
5 -2 -6 3.4 1.4
4 -2 -6 427.46 2.7
-4 2 6 458.95 3.3
4 -2 -6 405.06 2.7
4 -2 -6 455.45 3.1
3 -2 -6 15.3 1.3
-3 2 6 17.7 1.1
3 -2 -6 15.2 0.9
3 -2 -6 17.5 1.1
2 -2 -6 823.62 3.4
2 -2 -6 835.72 3.4
-2 2 6 803.92 3.9
2 -2 -6 777.32 3.8
-1 2 6 213.58 2.1
-1 2 6 213.68 2
1 -2 -6 230.88 2.1
1 -2 -6 193.18 1.9
0 2 6 889.21 3.9
0 -2 -6 921.21 3.8
0 -2 -6 822.72 3.9
0 2 6 870.81 3.6
1 2 6 592.34 3.1
-1 -2 -6 630.24 3.2
1 2 6 640.24 3.4
-1 -2 -6 572.34 3.3
2 2 6 1641.54 5.4
2 2 6 1400.96 4.7
-2 -2 -6 1462.35 4.8
-2 -2 -6 1400.26 5
-3 -2 -6 1143.29 4.7
3 2 6 1005.3 4
-3 -2 -6 1049.2 4.1
3 2 6 1247.38 4.7
4 2 6 962.6 4
4 2 6 1224.08 4.9
-4 -2 -6 933.51 3.8
-4 -2 -6 1081.69 4.7
-5 -2 -6 1023.9 4.6
5 2 6 941.11 3.9
-5 -2 -6 972.3 4.1
-5 -2 -6 1125.29 4.9
-6 -2 -6 525.85 3.5
-6 -2 -6 531.95 3.7
6 2 6 512.95 3.1
-6 -2 -6 489.45 2.9
-7 -2 -6 542.35 3.9
7 2 6 538.75 3.3
-7 -2 -6 517.85 3.6
-7 -2 -6 490.95 3.1
8 2 6 94.19 1.6
-8 -2 -6 95.59 2
-8 -2 -6 88.29 1.8
-8 -2 -6 96.69 1.9
9 2 6 434.96 3.4
-9 -2 -6 422.86 4.1
-9 -2 -6 417.56 3.3
-9 -2 -6 402.96 3.7
10 2 6 0.8 1.1
-10 -2 -6 8.9 1.6
-10 -2 -6 -1.3 1.5
-10 -2 -6 0.4 1.3
-6 3 6 124.69 2.1
6 -3 -6 111.89 1.7
6 -3 -6 111.39 1.9
6 -3 -6 132.09 2.3
-5 3 6 113.79 1.9
5 -3 -6 105.59 1.8
5 -3 -6 99.39 1.6
5 -3 -6 113.19 1.9
-4 3 6 369.86 2.9
4 -3 -6 399.06 3
4 -3 -6 394.36 2.7
4 -3 -6 336.37 2.5
-3 3 6 68.19 1.8
3 -3 -6 64.79 1.2
3 -3 -6 66.79 1.5
3 -3 -6 57.99 1.3
2 -3 -6 1119.69 4
2 -3 -6 1123.39 4
-2 3 6 1254.87 4.9
2 -3 -6 1136.49 4.4
-1 3 6 7.2 0.9
1 -3 -6 7.4 0.9
-1 3 6 12.2 1.1
1 -3 -6 6.4 1
0 3 6 1866.41 5.1
0 -3 -6 1997.6 5.4
0 3 6 2092.69 5.9
0 -3 -6 1887.31 5.5
1 3 6 189.88 1.7
-1 -3 -6 191.48 1.9
-1 -3 -6 192.48 1.9
1 3 6 217.18 2.1
-2 -3 -6 2580.14 6.5
-2 -3 -6 2793.72 6.4
2 3 6 2940.91 6.9
2 3 6 2579.34 6.1
3 3 6 83.19 1.3
-3 -3 -6 89.49 1.7
-3 -3 -6 82.09 1.3
3 3 6 93.59 1.6
-4 -3 -6 2075.29 5.9
4 3 6 2062.29 5.5
-4 -3 -6 2060.99 5.5
-4 -3 -6 2438.56 6.5
-5 -3 -6 350.96 2.8
-5 -3 -6 308.67 2.5
5 3 6 300.17 2.3
-5 -3 -6 292.47 2.2
-6 -3 -6 873.91 4.3
6 3 6 814.22 3.8
-6 -3 -6 895.71 4.2
-6 -3 -6 815.52 3.7
-7 -3 -6 484.35 3.5
7 3 6 436.36 3
-7 -3 -6 426.66 2.9
-7 -3 -6 488.45 3.3
-8 -3 -6 175.78 2.3
8 3 6 171.48 2.4
-8 -3 -6 188.98 2.5
-8 -3 -6 155.48 2.1
9 3 6 278.27 2.8
-9 -3 -6 283.27 3.3
-9 -3 -6 274.67 2.7
-9 -3 -6 277.37 2.9
6 -4 -6 31.5 1.3
-6 4 6 31.3 1.4
6 -4 -6 28.4 1.2
6 -4 -6 -6.1 1.6
5 -4 -6 175.98 2.4
5 -4 -6 152.58 2.1
-5 4 6 164.38 2.4
5 -4 -6 139.59 1.9
4 -4 -6 322.47 2.8
4 -4 -6 277.37 2.5
-4 4 6 297.77 2.8
4 -4 -6 255.17 2.3
3 -4 -6 320.57 2.3
3 -4 -6 330.27 2.6
-3 4 6 369.86 3
3 -4 -6 316.97 2.3
2 -4 -6 1063.09 4
2 -4 -6 1046.7 4.2
-2 4 6 1198.98 4.7
2 -4 -6 1011.3 4
-1 4 6 550.24 2.8
1 -4 -6 525.55 3
-1 4 6 590.34 3.3
1 -4 -6 574.54 2.9
0 4 6 1111.69 4.3
0 4 6 1022.3 3.7
0 -4 -6 1072.39 3.8
0 -4 -6 1018.4 4.1
-1 -4 -6 265.67 2.2
1 4 6 251.17 2
-1 -4 -6 256.77 2.1
1 4 6 289.97 2.3
2 4 6 1080.89 4
2 4 6 1253.27 4.4
-2 -4 -6 1128.39 4.2
-2 -4 -6 1120.19 4
3 4 6 63.99 1.3
-3 -4 -6 68.19 1.3
3 4 6 82.19 1.5
-3 -4 -6 81.89 1.3
-4 -4 -6 1077.69 4.3
4 4 6 862.81 3.7
-4 -4 -6 895.71 3.6
-4 -4 -6 918.11 3.8
5 4 6 3.8 1.1
-5 -4 -6 6.3 1.2
-5 -4 -6 5.1 0.8
-5 -4 -6 8.8 1.2
-6 -4 -6 517.55 3.3
-6 -4 -6 438.06 2.8
6 4 6 447.36 2.8
-6 -4 -6 512.75 3.3
-7 -4 -6 88.59 1.7
-7 -4 -6 85.29 1.8
7 4 6 81.69 1.7
-7 -4 -6 78.09 1.5
8 4 6 314.07 2.9
-8 -4 -6 333.67 2.9
-8 -4 -6 330.37 2.8
-8 -4 -6 309.57 2.7
9 4 6 65.49 1.5
-9 -4 -6 64.19 1.7
-9 -4 -6 45.6 2.2
-9 -4 -6 65.59 1.7
5 -5 -6 381.16 3.4
-5 5 6 356.96 3.4
5 -5 -6 300.27 2.9
5 -5 -6 -78.89 2.6
4 -5 -6 9.4 1.4
4 -5 -6 13.2 1.2
-4 5 6 9.5 1.1
4 -5 -6 9.8 1.1
3 -5 -6 865.51 3.7
3 -5 -6 931.21 4.4
-3 5 6 953.2 4.5
3 -5 -6 931.61 3.8
2 -5 -6 95.39 1.4
2 -5 -6 94.99 1.6
2 -5 -6 103.69 1.8
-2 5 6 111.79 1.7
-1 5 6 863.61 4
1 -5 -6 783.22 3.4
1 -5 -6 810.42 3.7
0 5 6 263.27 2
0 -5 -6 269.77 2.1
0 5 6 304.47 2.5
0 -5 -6 262.87 2.2
1 5 6 403.96 2.5
-1 -5 -6 448.86 2.7
1 5 6 498.65 3
-1 -5 -6 416.36 2.5
2 5 6 554.44 2.8
-2 -5 -6 579.04 2.9
-2 -5 -6 581.44 3.1
2 5 6 701.03 3.3
-3 -5 -6 356.66 2.5
-3 -5 -6 393.86 2.5
3 5 6 342.37 2.3
-3 -5 -6 382.66 2.5
-4 -5 -6 802.82 3.8
4 5 6 760.52 3.5
-4 -5 -6 715.13 3.5
-4 -5 -6 794.92 3.5
5 5 6 130.09 1.7
-5 -5 -6 133.59 1.8
-5 -5 -6 150.08 1.8
-5 -5 -6 131.49 1.7
-6 -5 -6 760.92 3.9
6 5 6 684.73 3.5
-6 -5 -6 727.43 3.7
-6 -5 -6 806.32 4
7 5 6 104.79 1.9
-7 -5 -6 100.19 1.7
-7 -5 -6 110.09 1.9
-7 -5 -6 107.09 1.7
8 5 6 513.95 3.6
-8 -5 -6 487.75 3.3
-8 -5 -6 495.75 3.4
-8 -5 -6 487.45 3.4
9 5 6 5.6 1.5
-9 -5 -6 8.6 1.5
-9 -5 -6 14.2 1.4
-9 -5 -6 6.1 1.6
5 -6 -6 241.68 3
5 -6 -6 195.88 2.4
5 -6 -6 -62.19 2
-5 6 6 223.68 2.7
-4 6 6 60.09 1.7
4 -6 -6 51.99 1.3
4 -6 -6 56.29 1.7
4 -6 -6 47.5 1.2
-3 6 6 420.66 3.3
3 -6 -6 405.06 3.1
3 -6 -6 406.26 2.8
3 -6 -6 387.76 2.7
2 -6 -6 39.9 1.1
2 -6 -6 39.7 1.2
-2 6 6 46.9 1.5
2 -6 -6 42.4 1.4
1 -6 -6 538.65 3
1 -6 -6 568.24 3.1
-1 6 6 632.64 3.6
0 -6 -6 14.5 0.9
0 6 6 13.3 0.9
0 -6 -6 15 0.8
0 6 6 17.1 1.3
1 6 6 817.92 3.5
-1 -6 -6 839.02 3.7
-1 -6 -6 884.81 3.5
1 6 6 984.2 4
-2 -6 -6 235.28 2.1
2 6 6 247.28 2.1
-2 -6 -6 250.77 2
-2 -6 -6 246.68 2.1
-3 -6 -6 637.64 3.4
-3 -6 -6 688.63 3.3
3 6 6 661.73 3.3
-3 -6 -6 716.63 3.6
-4 -6 -6 339.87 2.5
-4 -6 -6 370.26 2.8
4 6 6 355.96 2.5
-4 -6 -6 377.96 2.6
5 6 6 712.33 3.4
-5 -6 -6 747.23 3.6
-5 -6 -6 -14 4.2
-5 -6 -6 696.63 3.6
6 6 6 270.87 2.5
-6 -6 -6 275.57 2.7
-6 -6 -6 270.57 2.5
-6 -6 -6 290.77 2.5
-7 -6 -6 378.76 3
-7 -6 -6 353.66 2.8
7 6 6 360.76 2.8
-7 -6 -6 359.76 2.9
8 6 6 172.38 2.5
-8 -6 -6 170.88 2.3
-8 -6 -6 171.38 2.2
-8 -6 -6 175.48 2.3
4 -7 -6 106.59 1.8
4 -7 -6 122.79 2.2
-4 7 6 134.69 2.2
4 -7 -6 114.49 2
3 -7 -6 126.39 1.8
3 -7 -6 125.19 2
-3 7 6 132.69 1.9
3 -7 -6 118.39 1.7
2 -7 -6 64.79 1.7
-2 7 6 94.09 1.7
2 -7 -6 87.89 1.7
2 -7 -6 91.89 1.6
1 -7 -6 400.56 2.7
1 -7 -6 450.05 2.9
1 -7 -6 -0.1 3.2
-1 7 6 469.35 3.3
0 -7 -6 31.9 1
0 7 6 35.4 1.4
0 7 6 31.6 1.3
0 -7 -6 32.2 1.1
1 7 6 761.92 3.5
-1 -7 -6 788.92 3.5
-1 -7 -6 768.22 3.5
-2 -7 -6 19.5 1
2 7 6 23.7 1.1
-2 -7 -6 24.3 1.3
-2 -7 -6 25.2 1
-3 -7 -6 794.92 3.7
3 7 6 808.22 3.6
-3 -7 -6 925.01 3.9
-3 -7 -6 913.81 4
-4 -7 -6 44.1 1.3
-4 -7 -6 39.9 1.2
4 7 6 43 1.3
-4 -7 -6 45.7 1.4
5 7 6 633.64 3.5
-5 -7 -6 642.24 3.7
-5 -7 -6 653.23 3.5
-5 -7 -6 -8.6 4.4
6 7 6 7.3 0.9
-6 -7 -6 10.5 1.4
-6 -7 -6 7.1 0.9
-6 -7 -6 8.1 1.1
-7 -7 -6 165.28 2.1
-7 -7 -6 169.68 2.3
7 7 6 171.68 2.3
-7 -7 -6 174.98 2.2
-3 8 6 2.9 1.4
3 -8 -6 26.9 1.1
3 -8 -6 28.3 1.5
3 -8 -6 27.4 1.3
2 -8 -6 -47.2 2.1
2 -8 -6 266.17 2.3
2 -8 -6 275.27 2.6
-2 8 6 300.57 2.9
1 -8 -6 163.98 2
-1 8 6 170.78 2.1
1 -8 -6 174.78 2
1 -8 -6 178.98 2.1
0 -8 -6 377.36 3
0 -8 -6 429.66 2.9
0 -8 -6 422.76 2.8
0 8 6 447.56 2.8
1 8 6 293.07 2.2
-1 -8 -6 257.97 2.4
-1 -8 -6 273.07 2.4
-1 -8 -6 273.27 2.2
2 8 6 428.56 2.8
-2 -8 -6 408.76 2.7
-2 -8 -6 396.76 3
-2 -8 -6 409.56 3.2
3 8 6 318.97 2.7
-3 -8 -6 320.57 2.7
-3 -8 -6 380.86 2.8
-3 -8 -6 386.26 3
-4 -8 -6 179.18 2
4 8 6 -10 2
-4 -8 -6 169.28 2.1
-4 -8 -6 180.48 2.1
5 8 6 337.07 2.7
-5 -8 -6 260.97 3
-5 -8 -6 362.36 2.7
-5 -8 -6 290.17 3.2
6 8 6 7 1.3
-6 -8 -6 4.7 1.3
-6 -8 -6 3.8 1.3
-6 -8 -6 2.8 1.1
2 -9 -6 344.27 3.1
2 -9 -6 346.27 3.1
2 -9 -6 419.66 3.3
2 -9 -6 384.86 3.1
1 -9 -6 6.3 1.3
1 -9 -6 7.6 1
1 -9 -6 5.1 1.3
1 -9 -6 1.3 1
0 -9 -6 420.86 3.3
0 -9 -6 442.56 3.2
0 -9 -6 441.96 3.1
1 9 6 3 0.9
-1 -9 -6 3 1
-1 -9 -6 4.1 1.2
-1 -9 -6 2 1.1
2 9 6 236.98 2.3
-2 -9 -6 244.78 2.6
-2 -9 -6 246.78 2.3
-2 -9 -6 241.38 2.6
-3 -9 -6 20.4 1.2
-3 -9 -6 22.3 1.3
3 9 6 22.1 1.3
-3 -9 -6 20 1.5
4 9 6 150.88 2.2
-4 -9 -6 139.59 2.4
-4 -9 -6 146.89 2.3
-4 -9 -6 154.78 2.1
5 9 6 35.1 2.3
-5 -9 -6 188.78 2.7
-5 -9 -6 195.48 2.3
-5 -9 -6 183.88 2.5
1 10 6 -0.2 1.1
-1 -10 -6 11 1
-1 -10 -6 7.8 1.1
-1 -10 -6 -0.8 1
2 10 6 175.18 2.3
-2 -10 -6 150.68 2.4
-2 -10 -6 171.88 2.3
-2 -10 -6 -6.6 2.3
3 10 6 0.5 1.2
-3 -10 -6 0.3 1
-3 -10 -6 0.7 1.3
-3 -10 -6 0.6 1.4
0 -8 7 354.86 3.4
0 8 -7 364.26 3.7
1 -8 7 45.7 1.9
-1 8 -7 2.7 2
2 -8 7 339.17 3.5
-2 8 -7 334.77 3.6
3 -8 7 126.29 2.7
-3 8 -7 131.99 2.7
4 -8 7 242.18 5.4
4 -8 7 260.57 5.6
-4 8 -7 42.5 4.4
4 -8 7 281.37 4.4
2 7 -7 156.78 2.7
-2 -7 7 162.48 2.5
1 7 -7 100.39 2.3
-1 -7 7 101.79 2.2
0 -7 7 548.35 4
0 7 -7 526.05 4.2
1 -7 7 23.9 1.3
-1 7 -7 21.1 1.6
2 -7 7 607.84 4.2
-2 7 -7 634.84 4.5
3 -7 7 28.2 1.4
-3 7 -7 32.7 1.7
-4 7 -7 574.44 6.5
-4 7 -7 577.04 5.1
4 -7 7 512.55 5.4
4 -7 7 549.45 5.2
5 -7 7 9.4 1.5
5 -7 7 10.2 2
5 -7 7 8.7 1.8
-5 7 -7 8.3 1.5
6 -7 7 337.07 4
-6 7 -7 321.47 4
-3 -6 7 349.96 3.5
3 6 -7 324.07 3.3
-2 -6 7 167.28 2.4
2 6 -7 144.39 2.3
-1 -6 7 370.76 3.3
1 6 -7 391.16 3.4
0 -6 7 323.77 3
0 6 -7 311.97 3.1
1 -6 7 680.03 4.2
-1 6 -7 711.63 4.4
2 -6 7 749.13 4.6
-2 6 -7 802.72 4.8
3 -6 7 454.95 3.8
-3 6 -7 476.85 4.1
3 -6 7 429.16 5.2
-3 6 -7 458.55 6.1
4 -6 7 555.94 4.5
-4 6 -7 653.93 5.4
4 -6 7 575.34 5
-4 6 -7 620.34 5.3
5 -6 7 69.69 2.7
-5 6 -7 55.89 2.9
5 -6 7 78.29 2
-5 6 -7 70.49 2
6 -6 7 419.46 3.8
-6 6 -7 309.37 3.7
7 -6 7 13.4 1.4
-7 6 -7 -2.2 1.2
-4 -5 7 14.8 1.6
4 5 -7 12.9 1.9
4 5 -7 13.2 1.3
4 5 -7 -0.4 2.3
-3 -5 7 609.54 4.1
3 5 -7 590.54 6.9
3 5 -7 499.15 3.7
3 5 -7 401.96 7.9
-2 -5 7 3.7 1.4
2 5 -7 4.6 1.6
2 5 -7 5.1 3.6
-1 -5 7 610.84 3.9
1 5 -7 606.54 3.9
0 -5 7 2.2 1.4
0 5 -7 2.2 1.5
1 -5 7 1123.79 5
-1 5 -7 1099.19 5.2
2 -5 7 87.39 1.8
2 -5 7 91.59 2.8
-2 5 -7 97.89 1.9
-2 5 -7 96.49 3.4
3 -5 7 286.47 3.4
3 -5 7 309.77 3.2
-3 5 -7 318.07 3.5
-3 5 -7 303.87 4.1
4 -5 7 171.68 2.6
-4 5 -7 206.48 3.4
4 -5 7 195.18 3.1
-4 5 -7 190.48 3
-5 5 -7 301.27 5
5 -5 7 317.27 4.6
5 -5 7 301.57 3.1
-5 5 -7 263.27 3
6 -5 7 476.95 3.6
-6 5 -7 421.76 3.4
7 -5 7 213.58 2.6
-7 5 -7 219.58 2.7
8 -5 7 286.17 3.1
-8 5 -7 305.77 3.2
4 4 -7 -0.2 3
-4 -4 7 163.28 2.3
4 4 -7 0.7 2.3
4 4 -7 152.38 3.6
-3 -4 7 302.87 3
3 4 -7 258.67 3.1
3 4 -7 350.86 4.7
3 4 -7 338.57 3.9
-2 -4 7 134.59 2.2
2 4 -7 163.58 3
2 4 -7 131.49 2.4
2 4 -7 157.68 3.4
1 4 -7 432.86 5
-1 -4 7 404.26 3
1 4 -7 410.86 3.3
1 4 -7 454.65 5.7
0 -4 7 183.78 2.2
0 4 -7 185.08 3.9
0 4 -7 177.88 2.5
0 4 -7 198.98 3.9
1 -4 7 457.05 3.3
-1 4 -7 486.55 5.8
1 -4 7 461.75 4.8
-1 4 -7 443.36 3.3
2 -4 7 32.8 1.7
2 -4 7 27.7 1.2
-2 4 -7 35.4 2
-2 4 -7 30 1.6
3 -4 7 532.25 3.9
3 -4 7 587.14 4.1
-3 4 -7 586.94 4.4
-3 4 -7 594.74 5
4 -4 7 2.1 1.3
-4 4 -7 4.4 1.5
-4 4 -7 6.1 1.6
4 -4 7 2 1.2
-5 4 -7 1356.46 9.7
5 -4 7 1260.67 5.5
-5 4 -7 1160.68 6
5 -4 7 1376.86 8.8
6 -4 7 35.9 1.3
-6 4 -7 31.4 1.6
7 -4 7 800.12 4.4
-7 4 -7 719.03 4.2
8 -4 7 45.6 1.7
-8 4 -7 47.1 1.7
9 -4 7 135.09 3.1
-9 4 -7 318.27 3.1
5 3 -7 8.5 1.3
-5 -3 7 8.8 1.5
5 3 -7 3.2 1.5
5 3 -7 5.6 1.6
-4 -3 7 428.06 3.5
4 3 -7 385.56 3.2
4 3 -7 418.36 4.2
4 3 -7 377.86 3.5
3 3 -7 42.4 1.5
-3 -3 7 41.7 1.7
3 3 -7 39.1 1.7
3 3 -7 40.5 1.7
2 3 -7 516.85 4.1
-2 -3 7 483.45 3.4
2 3 -7 446.26 3.4
2 3 -7 521.75 4.4
-1 -3 7 229.98 2.3
1 3 -7 260.27 3
1 3 -7 241.38 2.6
1 3 -7 241.98 3.1
0 3 -7 533.25 4.2
0 -3 7 467.75 3.2
0 3 -7 472.35 4.1
0 3 -7 449.16 3.3
1 -3 7 831.22 4.9
1 -3 7 817.12 4.2
-1 3 -7 783.22 5.2
-1 3 -7 741.53 4.4
2 -3 7 180.18 2.4
2 -3 7 181.98 2.2
-2 3 -7 173.08 2.8
-2 3 -7 162.98 2.5
3 -3 7 1452.35 5.8
-3 3 -7 1571.14 6.9
3 -3 7 1535.55 6.2
-3 3 -7 1326.97 6.7
4 -3 7 282.17 3.1
4 -3 7 242.98 2.4
-4 3 -7 292.97 3.1
-4 3 -7 271.97 3.6
5 -3 7 1256.47 7.5
5 -3 7 1170.38 5.2
-5 3 -7 1132.49 5.3
-5 3 -7 1217.28 8.7
6 -3 7 176.08 2.3
-6 3 -7 168.58 2.3
7 -3 7 751.62 4.1
-7 3 -7 740.13 4.2
8 -3 7 8.1 1.4
-8 3 -7 5.6 1.5
9 -3 7 273.67 3
-9 3 -7 298.67 3.1
5 2 -7 44.1 1.6
-5 -2 7 -0.4 1.6
5 2 -7 43.7 1.7
5 2 -7 -12.7 1.5
4 2 -7 335.47 2.8
-4 -2 7 347.17 3
4 2 -7 302.47 2.8
4 2 -7 334.97 3.2
3 2 -7 3.8 1
-3 -2 7 1 1.3
3 2 -7 -0.7 1.3
3 2 -7 0.3 0.9
2 2 -7 873.01 4.5
-2 -2 7 748.03 4
2 2 -7 747.93 4.1
2 2 -7 819.12 4.6
1 2 -7 11.1 1.2
1 2 -7 11 1.2
-1 -2 7 9.3 1
1 2 -7 10.1 1.3
0 -2 7 1417.16 5.9
0 2 -7 1443.26 6.1
0 -2 7 1443.26 5.1
0 2 -7 1468.55 5.5
1 -2 7 184.58 2.3
-1 2 -7 190.48 2.4
1 -2 7 206.98 2.2
-1 2 -7 192.98 2.6
2 -2 7 1345.67 5.4
-2 2 -7 1341.87 5.8
2 -2 7 1426.46 5.5
-2 2 -7 1305.87 5.9
-3 2 -7 157.28 2.6
3 -2 7 152.68 2.1
-3 2 -7 163.58 2.1
3 -2 7 157.98 2.2
-4 2 -7 818.42 5.7
4 -2 7 884.91 4.3
4 -2 7 992.5 5.3
-4 2 -7 983.7 4.8
-5 2 -7 307.07 4.3
5 -2 7 319.87 2.7
-5 2 -7 343.77 3
5 -2 7 378.96 3.8
-6 2 -7 433.76 5.7
6 -2 7 469.25 3.2
-6 2 -7 429.36 3.2
-6 2 -7 431.56 6.4
7 -2 7 373.56 3.1
-7 2 -7 377.16 3.1
8 -2 7 113.89 2
-8 2 -7 16.6 2.1
9 -2 7 259.77 2.5
-9 2 -7 250.27 2.5
-5 -1 7 98.29 2
5 1 -7 89.99 1.9
5 1 -7 85.29 1.7
5 1 -7 91.99 2.1
4 1 -7 437.46 3.1
-4 -1 7 372.86 3.4
4 1 -7 398.06 3.3
4 1 -7 435.76 3.3
-3 -1 7 45.1 2.2
3 1 -7 173.48 2.3
3 1 -7 142.89 2
3 1 -7 145.09 1.9
2 1 -7 1000.4 4.5
-2 -1 7 1003.3 4.5
2 1 -7 976.4 4.6
2 1 -7 966.2 4.4
1 1 -7 314.57 2.7
1 1 -7 305.87 2.7
-1 -1 7 287.17 2.5
1 1 -7 282.57 2.5
0 1 -7 1575.74 5.8
0 1 -7 1661.43 5.8
0 -1 7 1593.54 5.6
0 -1 7 1531.25 5.3
-1 1 -7 222.68 2.6
-1 1 -7 194.18 2.1
1 -1 7 194.08 2
1 -1 7 213.08 2.1
-2 1 -7 1781.02 6.5
2 -1 7 1810.12 5.8
-2 1 -7 1802.82 6.2
2 -1 7 1798.82 5.9
3 -1 7 25.1 1.4
-3 1 -7 20 1.6
3 -1 7 19.5 1
-3 1 -7 20 1.4
-4 1 -7 941.81 5.5
4 -1 7 1079.59 4.4
-4 1 -7 1148.99 4.8
4 -1 7 1260.07 5.5
5 -1 7 86.79 1.8
-5 1 -7 71.79 2
5 -1 7 90.09 1.9
-5 1 -7 89.29 1.8
-6 1 -7 423.16 4.3
6 -1 7 417.66 2.9
-6 1 -7 374.16 4.3
-6 1 -7 427.76 3.1
-7 1 -7 39.7 2.3
7 -1 7 37.8 1.2
-7 1 -7 33.9 2.2
-7 1 -7 34.9 1.2
8 -1 7 373.76 3.1
-8 1 -7 362.16 5.7
-8 1 -7 375.26 3.1
-8 1 -7 412.26 6.2
-9 1 -7 202.98 7.7
9 -1 7 200.58 2.5
-9 1 -7 210.68 7.3
-9 1 -7 171.38 2.4
10 -1 7 203.78 2.5
-10 1 -7 197.48 2.5
5 0 -7 466.85 3.4
-5 0 7 437.36 3.6
5 0 -7 484.65 3.4
5 0 -7 473.85 3.6
4 0 -7 242.58 2.4
-4 0 7 225.58 2.7
4 0 -7 234.78 2.7
4 0 -7 241.58 2.5
3 0 -7 949.6 4.1
-3 0 7 889.61 4.3
3 0 -7 951.4 4.5
3 0 -7 959.6 4.3
2 0 -7 361.06 2.5
-2 0 7 360.66 2.8
2 0 -7 377.76 3
2 0 -7 370.66 2.7
1 0 -7 615.34 3.5
1 0 -7 655.63 3.5
1 0 -7 632.34 3.4
-1 0 7 604.24 3.4
0 0 7 593.34 3.2
0 0 -7 592.34 3.4
0 0 -7 625.24 3.3
0 0 7 591.24 3.4
1 0 7 399.96 2.7
-1 0 -7 424.96 3.2
-1 0 -7 406.36 2.8
1 0 7 414.86 2.8
2 0 7 914.31 4
2 0 7 967.4 4.3
-2 0 -7 854.71 4.3
-2 0 -7 939.51 4.2
3 0 7 122.89 1.6
-3 0 -7 124.69 1.9
-3 0 -7 113.49 1.8
3 0 7 134.79 2
4 0 7 1370.36 5.5
-4 0 -7 1179.38 4.5
-4 0 -7 1121.59 5.4
4 0 7 1204.08 4.5
-5 0 -7 70.99 1.6
5 0 7 72.59 1.5
5 0 7 79.09 1.8
-5 0 -7 62.79 1.7
-6 0 -7 765.62 4.8
6 0 7 812.82 3.8
-6 0 -7 805.12 3.8
-6 0 -7 765.92 5
-7 0 -7 22.6 1.7
-7 0 -7 22.6 1.7
7 0 7 23.9 1.1
-7 0 -7 22.1 1.4
-8 0 -7 901.11 6
8 0 7 896.31 4.6
-8 0 -7 950 6.9
-8 0 -7 832.52 4.3
-9 0 -7 3.3 1.6
9 0 7 6.2 1.1
-9 0 -7 5.5 1.7
-9 0 -7 4.9 1
-10 0 -7 209.98 4.6
10 0 7 224.08 2.6
-10 0 -7 219.28 2.5
-10 0 -7 247.28 5.1
5 -1 -7 549.05 3.5
-5 1 7 573.14 3.8
5 -1 -7 540.75 3.8
5 -1 -7 540.25 3.6
4 -1 -7 18.4 1.3
-4 1 7 28.7 1.6
4 -1 -7 17.4 1.4
4 -1 -7 18.2 1.5
3 -1 -7 644.74 3.3
-3 1 7 617.94 3.7
3 -1 -7 669.63 3.5
3 -1 -7 646.24 3.7
2 -1 -7 1.4 1.2
2 -1 -7 2.7 1
2 -1 -7 1.7 0.8
-2 1 7 -0.1 1.3
1 -1 -7 920.31 4
1 -1 -7 973.9 3.9
-1 1 7 925.21 4.1
0 1 7 83.79 1.5
0 -1 -7 100.79 1.7
0 -1 -7 78.19 1.4
0 1 7 78.29 1.4
1 1 7 1017.8 4.3
1 1 7 1063.49 4
-1 -1 -7 1072.29 4.1
-1 -1 -7 956.3 4.4
-2 -1 -7 320.07 2.3
-2 -1 -7 293.97 2.5
2 1 7 337.77 2.6
2 1 7 310.57 2.4
3 1 7 1352.46 4.6
-3 -1 -7 1407.46 4.7
-3 -1 -7 1339.87 5.3
3 1 7 1529.35 5.3
4 1 7 601.84 3.1
-4 -1 -7 638.64 3.2
4 1 7 759.52 4
-4 -1 -7 648.14 3.8
-5 -1 -7 910.01 4.7
5 1 7 816.72 3.7
-5 -1 -7 826.62 3.7
-6 -1 -7 854.61 4.7
-6 -1 -7 894.01 4.7
6 1 7 844.42 3.9
-6 -1 -7 844.62 3.8
-7 -1 -7 558.24 4.3
7 1 7 542.75 3.2
-7 -1 -7 543.55 4
-7 -1 -7 524.85 3.1
8 1 7 743.23 3.8
-8 -1 -7 754.22 5.1
-8 -1 -7 742.53 4.7
-8 -1 -7 660.33 3.6
9 1 7 133.19 2
-9 -1 -7 142.59 2.9
-9 -1 -7 123.89 2
-9 -1 -7 135.59 2.6
10 1 7 162.68 2.3
-10 -1 -7 152.08 2.3
-10 -1 -7 121.29 3.5
-10 -1 -7 169.08 3.1
5 -2 -7 83.99 1.7
5 -2 -7 84.69 1.9
-5 2 7 86.99 1.8
5 -2 -7 93.59 1.9
4 -2 -7 185.58 2
4 -2 -7 -24 2.3
-4 2 7 130.99 2.5
4 -2 -7 213.08 2.5
3 -2 -7 318.57 2.7
3 -2 -7 296.27 2.4
-3 2 7 303.47 2.7
3 -2 -7 284.07 2.3
-2 2 7 120.99 1.9
2 -2 -7 117.69 1.7
2 -2 -7 107.79 1.6
2 -2 -7 107.69 1.5
-1 2 7 906.41 4.1
1 -2 -7 1006.2 3.8
1 -2 -7 827.42 3.9
0 2 7 7.3 1.1
0 -2 -7 8.8 1.1
0 2 7 7.5 0.8
0 -2 -7 5.1 0.8
1 2 7 1414.96 4.5
-1 -2 -7 1500.15 4.8
1 2 7 1493.95 5
-1 -2 -7 1311.27 4.7
2 2 7 3.4 0.9
-2 -2 -7 2.3 0.7
-2 -2 -7 1.5 1.1
2 2 7 11 0.9
3 2 7 1930.71 5.4
-3 -2 -7 2025.4 5.6
3 2 7 2367.86 6.3
-3 -2 -7 2132.69 6.2
-4 -2 -7 2.8 0.9
4 2 7 3.2 0.9
-4 -2 -7 6.9 0.7
4 2 7 4.1 0.9
5 2 7 1338.37 4.5
-5 -2 -7 1445.66 5.4
-5 -2 -7 1382.66 4.6
-5 -2 -7 1447.26 5.3
-6 -2 -7 13.6 1.2
6 2 7 11.9 1
-6 -2 -7 16.9 1
-6 -2 -7 13.7 1
7 2 7 1018.9 4.3
-7 -2 -7 958.3 4.2
-7 -2 -7 1027.9 5.3
-7 -2 -7 995.3 4.9
-8 -2 -7 125.79 2
8 2 7 139.99 1.8
-8 -2 -7 145.59 2.3
-8 -2 -7 128.49 1.9
-9 -2 -7 193.58 2.8
9 2 7 207.28 2.3
-9 -2 -7 225.08 3
-9 -2 -7 203.68 2.3
-10 -2 -7 48.4 2.7
10 2 7 156.78 2.3
-10 -2 -7 148.49 3
-10 -2 -7 145.39 2.4
-5 3 7 16.9 1.6
5 -3 -7 15.2 1
5 -3 -7 14.2 1.2
5 -3 -7 17.6 1.3
4 -3 -7 384.46 3.1
-4 3 7 369.06 3
4 -3 -7 327.87 2.6
4 -3 -7 328.37 2.6
-3 3 7 132.59 1.9
3 -3 -7 124.29 1.8
3 -3 -7 133.89 1.8
3 -3 -7 126.09 1.8
2 -3 -7 603.94 3
2 -3 -7 625.84 3
-2 3 7 593.64 3.5
2 -3 -7 524.25 3.2
1 -3 -7 511.65 2.9
-1 3 7 533.35 3.1
1 -3 -7 472.15 3
0 -3 -7 586.64 2.9
0 3 7 577.14 2.9
0 3 7 638.74 3.3
0 -3 -7 554.64 3.1
1 3 7 1215.88 4
-1 -3 -7 1221.38 4.1
-1 -3 -7 1175.38 4.4
1 3 7 1270.07 4.5
2 3 7 743.23 3.2
2 3 7 913.31 3.8
-2 -3 -7 772.32 3.3
-2 -3 -7 777.12 3.5
3 3 7 1556.34 4.9
-3 -3 -7 1405.76 4.8
3 3 7 1233.38 4.2
-3 -3 -7 1313.27 4.4
4 3 7 156.08 1.8
4 3 7 197.58 1.9
-4 -3 -7 181.68 1.9
-4 -3 -7 158.58 1.6
5 3 7 888.81 3.7
-5 -3 -7 899.91 3.8
-5 -3 -7 950.9 4.2
-5 -3 -7 1033.8 4.4
-6 -3 -7 6.4 1.2
6 3 7 5.4 0.9
-6 -3 -7 8.2 1.2
-6 -3 -7 5.9 0.9
-7 -3 -7 737.73 4
-7 -3 -7 628.74 3.8
7 3 7 647.34 3.5
-7 -3 -7 621.54 3.4
-8 -3 -7 8.4 1.2
8 3 7 8.1 1.3
-8 -3 -7 10.4 1.3
-8 -3 -7 8.2 1
-9 -3 -7 407.96 3.7
-9 -3 -7 479.55 3.9
9 3 7 451.85 3.4
-9 -3 -7 398.66 3.1
5 -4 -7 3.1 1.4
5 -4 -7 1.5 1.3
-5 4 7 1.7 1.1
5 -4 -7 1 1.2
4 -4 -7 382.96 3.2
-4 4 7 366.66 3.3
4 -4 -7 328.87 2.8
4 -4 -7 297.07 2.6
-3 4 7 0.4 1.1
3 -4 -7 2.8 1
3 -4 -7 2.6 1.2
3 -4 -7 0.8 0.9
2 -4 -7 842.62 3.7
2 -4 -7 844.92 3.7
2 -4 -7 884.41 4
-2 4 7 1003.6 4.4
1 -4 -7 86.89 1.5
1 -4 -7 60.29 1.5
-1 4 7 68.69 1.4
0 4 7 1166.78 4
0 -4 -7 1243.08 4.1
0 -4 -7 1111.19 4.2
0 4 7 1326.57 4.7
1 4 7 11.5 0.8
1 4 7 17.1 1.2
-1 -4 -7 12.8 0.8
-1 -4 -7 15.9 0.9
-2 -4 -7 1104.19 4.1
2 4 7 1124.09 3.9
-2 -4 -7 1123.49 3.8
2 4 7 1276.27 4.4
3 4 7 297.07 2.3
3 4 7 259.57 2.1
-3 -4 -7 276.07 2.3
-3 -4 -7 270.27 2
-4 -4 -7 184.78 1.9
4 4 7 173.38 1.8
-4 -4 -7 186.18 1.9
-4 -4 -7 198.28 2
-5 -4 -7 483.35 3.1
5 4 7 457.45 2.8
-5 -4 -7 460.95 2.8
-5 -4 -7 529.05 3.2
-6 -4 -7 130.29 1.9
-6 -4 -7 126.39 1.9
6 4 7 115.59 1.8
-6 -4 -7 110.79 1.6
-7 -4 -7 482.45 3.3
-7 -4 -7 477.25 3.4
7 4 7 458.45 3.1
-7 -4 -7 390.56 3
8 4 7 158.28 2.1
-8 -4 -7 176.68 2.3
-8 -4 -7 160.68 2.3
-8 -4 -7 147.79 2.2
9 4 7 478.85 3.6
-9 -4 -7 478.45 3.8
-9 -4 -7 -80.19 3.6
-9 -4 -7 419.36 3.4
4 -5 -7 200.08 2.3
4 -5 -7 212.38 2.5
-4 5 7 30.7 2.7
4 -5 -7 198.28 2.2
3 -5 -7 159.88 1.9
3 -5 -7 157.78 2.2
-3 5 7 170.88 2.3
3 -5 -7 150.58 1.9
2 -5 -7 434.56 2.7
2 -5 -7 431.66 2.7
2 -5 -7 440.96 3
-2 5 7 467.75 3.1
-1 5 7 107.79 1.8
1 -5 -7 94.69 1.5
1 -5 -7 94.79 1.5
0 5 7 250.27 2
0 -5 -7 252.57 2
0 5 7 282.57 2.4
0 -5 -7 246.28 2.1
-1 -5 -7 255.27 2.2
-1 -5 -7 262.47 2.1
1 5 7 301.07 2.4
1 5 7 239.48 2.1
2 5 7 590.34 3
-2 -5 -7 614.24 3.3
-2 -5 -7 599.34 2.9
2 5 7 692.13 3.4
3 5 7 26.8 0.9
3 5 7 32.5 1.1
-3 -5 -7 29.5 1.3
-3 -5 -7 29.3 1
-4 -5 -7 703.83 3.4
4 5 7 666.73 3.2
-4 -5 -7 672.73 3.3
-4 -5 -7 779.42 3.6
-5 -5 -7 13.5 1
5 5 7 11.1 1.1
-5 -5 -7 14.6 0.9
-5 -5 -7 12.5 1.3
-6 -5 -7 974.3 4.4
-6 -5 -7 939.71 4.2
6 5 7 880.01 4
-6 -5 -7 920.11 4.2
-7 -5 -7 89.79 1.6
-7 -5 -7 81.59 1.6
-7 -5 -7 86.49 1.9
7 5 7 75.19 1.7
8 5 7 465.05 3.4
-8 -5 -7 474.55 3.6
-8 -5 -7 379.66 3.3
-8 -5 -7 427.26 3.1
9 5 7 70.19 1.6
-9 -5 -7 89.69 2.1
-9 -5 -7 82.79 1.8
-9 -5 -7 77.79 1.9
-4 6 7 37 1.7
4 -6 -7 32.6 1.5
4 -6 -7 8.6 1.6
4 -6 -7 34.1 1.5
-3 6 7 334.17 3
3 -6 -7 156.18 2.5
3 -6 -7 293.97 2.8
3 -6 -7 257.27 2.4
2 -6 -7 126.89 1.7
2 -6 -7 125.29 1.8
-2 6 7 132.79 2.1
2 -6 -7 117.79 1.7
1 -6 -7 313.77 2.4
-1 6 7 352.96 2.7
1 -6 -7 307.47 2.6
0 6 7 323.37 2.7
0 6 7 257.77 2.1
0 -6 -7 270.07 2.2
0 -6 -7 283.87 2.4
-1 -6 -7 139.29 1.7
1 6 7 140.09 1.6
-1 -6 -7 143.99 1.7
1 6 7 170.38 1.9
-2 -6 -7 756.62 3.6
2 6 7 693.43 3.2
2 6 7 883.71 4.1
-2 -6 -7 801.32 3.4
-3 -6 -7 72.99 1.4
3 6 7 78.69 1.3
-3 -6 -7 76.79 1.3
-3 -6 -7 73.59 1.4
-4 -6 -7 707.03 3.6
4 6 7 721.43 3.3
-4 -6 -7 753.62 3.3
-4 -6 -7 739.83 3.7
-5 -6 -7 124.99 1.8
5 6 7 120.39 1.8
-5 -6 -7 108.49 1.7
-5 -6 -7 118.39 1.8
6 6 7 706.23 3.8
-6 -6 -7 826.62 4.3
-6 -6 -7 702.43 3.7
-6 -6 -7 798.32 4.2
7 6 7 2.3 1.3
-7 -6 -7 6.6 1.4
-7 -6 -7 1.5 1
-7 -6 -7 2 1.2
8 6 7 278.77 2.8
-8 -6 -7 285.47 2.7
-8 -6 -7 312.87 3
-8 -6 -7 256.37 2.9
3 -7 -7 201.38 2.3
3 -7 -7 221.88 2.6
-3 7 7 220.88 2.6
3 -7 -7 159.88 2.3
2 -7 -7 29.1 1.4
2 -7 -7 33.8 1.4
2 -7 -7 34.5 1.2
-2 7 7 38.5 1.6
1 -7 -7 397.66 2.9
-1 7 7 411.56 3.1
1 -7 -7 368.36 2.8
1 -7 -7 378.76 2.9
0 7 7 164.58 2.2
0 7 7 141.09 1.7
0 -7 -7 147.19 1.7
0 -7 -7 157.08 2.1
-1 -7 -7 387.56 2.8
1 7 7 436.26 3.1
-1 -7 -7 395.86 2.7
1 7 7 384.36 2.6
-2 -7 -7 87.59 1.5
2 7 7 105.89 1.7
-2 -7 -7 103.29 1.7
-2 -7 -7 96.09 1.6
-3 -7 -7 547.45 3.1
3 7 7 538.95 3
-3 -7 -7 604.34 3.2
-3 -7 -7 586.24 3.3
-4 -7 -7 172.68 2.1
4 7 7 162.58 2
-4 -7 -7 169.98 1.9
-4 -7 -7 169.68 2
-5 -7 -7 259.77 2.7
5 7 7 248.58 2.2
-5 -7 -7 227.28 2.5
-5 -7 -7 250.57 2.3
6 7 7 130.59 1.8
-6 -7 -7 133.09 2
-6 -7 -7 141.29 2
-6 -7 -7 128.19 1.9
7 7 7 50.99 2
-7 -7 -7 96.69 1.8
-7 -7 -7 73.19 1.8
-7 -7 -7 98.49 2
2 -8 -7 -2.3 0.9
2 -8 -7 17.9 1
2 -8 -7 17.3 1.1
-2 8 7 1 1.3
1 -8 -7 237.58 2.4
1 -8 -7 242.58 2.4
1 -8 -7 252.57 2.4
-1 8 7 286.47 2.7
0 -8 -7 38.5 1.4
0 8 7 38.6 1.3
0 -8 -7 41.3 1.4
-1 -8 -7 407.66 3.1
-1 -8 -7 430.96 3.2
1 8 7 429.96 2.8
-1 -8 -7 426.66 2.8
-2 -8 -7 18.7 1.1
-2 -8 -7 25.2 1
-2 -8 -7 22.6 1.1
2 8 7 21.4 1
3 8 7 495.35 3.1
-3 -8 -7 449.56 3.1
-3 -8 -7 492.45 3
-3 -8 -7 478.65 3.2
4 8 7 20.1 1
-4 -8 -7 15.9 1
-4 -8 -7 17.6 1
-4 -8 -7 16 1.1
-5 -8 -7 208.38 2.3
5 8 7 203.08 2.2
-5 -8 -7 195.78 2.4
-5 -8 -7 211.18 2.2
6 8 7 1.9 0.9
-6 -8 -7 3.1 1.5
-6 -8 -7 5.5 1.4
-6 -8 -7 5 1
1 -9 -7 74.59 1.6
1 -9 -7 82.89 1.8
1 -9 -7 79.49 1.7
0 -9 -7 154.68 2.1
0 -9 -7 140.29 2
0 -9 -7 156.48 2
1 9 7 166.28 2.1
-1 -9 -7 159.38 2.2
-1 -9 -7 126.79 2
-1 -9 -7 175.58 2.1
2 9 7 44.4 1.3
-2 -9 -7 40.9 1.5
-2 -9 -7 45.3 1.3
-2 -9 -7 4 1.4
3 9 7 262.67 2.5
-3 -9 -7 272.67 2.5
-3 -9 -7 248.18 2.7
-3 -9 -7 225.68 2.5
4 9 7 1.3 1.2
-4 -9 -7 2.1 1.2
-4 -9 -7 -0.1 0.9
-4 -9 -7 0.2 1.1
5 9 7 169.38 2.1
-5 -9 -7 177.58 2.5
-5 -9 -7 181.88 2.2
-5 -9 -7 146.59 2.7
0 -7 8 294.87 3.2
0 7 -8 302.37 3.3
1 -7 8 -31.2 2.6
-1 7 -8 152.98 2.6
2 -7 8 392.16 3.6
-2 7 -8 366.36 3.9
-3 7 -8 188.68 3
3 -7 8 157.48 2.6
-4 7 -8 352.16 5.9
-4 7 -8 320.57 4.4
4 -7 8 332.67 4.1
4 -7 8 310.87 4.8
-5 7 -8 209.18 4.4
5 -7 8 195.48 3.5
5 -7 8 95.29 4.3
-5 7 -8 202.98 4.3
-2 -6 8 56.89 3.4
2 6 -8 339.07 3.4
-1 -6 8 3.8 1.7
1 6 -8 12.7 1.6
0 -6 8 10.4 4.3
0 6 -8 612.34 4.1
1 -6 8 13.6 1.2
-1 6 -8 15.2 1.7
2 -6 8 670.53 4.3
-2 6 -8 726.53 4.8
3 -6 8 4.9 1.8
-3 6 -8 7.2 1.5
3 -6 8 5.8 1.3
-3 6 -8 5.3 2.2
4 -6 8 472.55 4.7
-4 6 -8 569.94 5
4 -6 8 522.65 4.7
-4 6 -8 523.85 5.4
5 -6 8 26 2
-5 6 -8 23.4 2.3
5 -6 8 26 1.7
-5 6 -8 2.8 1.8
6 -6 8 235.38 3.2
-6 6 -8 10.8 3.1
7 -6 8 116.89 2.3
-7 6 -8 85.59 2.4
3 5 -8 265.67 5.5
3 5 -8 233.98 2.8
3 5 -8 218.18 6
-3 -5 8 243.88 2.8
-2 -5 8 215.58 2.6
2 5 -8 209.88 7.8
2 5 -8 218.98 2.6
2 5 -8 224.98 8.2
-1 -5 8 360.26 3.1
1 5 -8 374.76 3.3
0 -5 8 318.37 2.8
0 5 -8 338.37 3.1
1 -5 8 149.79 2.1
-1 5 -8 166.78 2.4
2 -5 8 575.84 6.3
-2 5 -8 542.35 3.9
2 -5 8 587.74 3.8
-2 5 -8 550.84 7.3
3 -5 8 29.6 1.7
3 -5 8 22.1 1.4
-3 5 -8 24.3 1.6
-3 5 -8 23.1 2.1
4 -5 8 402.66 3.9
-4 5 -8 478.85 4.5
4 -5 8 436.86 4
-4 5 -8 419.86 4.4
5 -5 8 8.8 1.6
-5 5 -8 4.9 1.8
5 -5 8 5.6 1.2
-5 5 -8 4.4 1.5
6 -5 8 532.15 3.9
-6 5 -8 500.25 4.1
7 -5 8 3 1.5
-7 5 -8 4.2 1.6
8 -5 8 474.65 3.9
-8 5 -8 391.96 3.8
3 4 -8 432.96 4.5
-3 -4 8 375.96 3.5
3 4 -8 349.17 3.4
3 4 -8 430.96 5.6
-2 -4 8 1.4 1.5
2 4 -8 1.4 1.4
2 4 -8 0.4 1.5
2 4 -8 1.6 1.9
-1 -4 8 425.36 3.2
1 4 -8 495.55 5.2
1 4 -8 419.36 3.5
1 4 -8 485.45 5.6
0 -4 8 35.5 1.3
0 4 -8 35.6 2
0 4 -8 34.8 1.7
0 4 -8 40.3 2.1
-1 4 -8 972.7 6.5
1 -4 8 808.62 4.3
-1 4 -8 838.52 6.9
-1 4 -8 748.53 4.3
2 -4 8 321.57 3.5
2 -4 8 323.17 3
-2 4 -8 356.46 4.5
-2 4 -8 310.27 3.1
3 -4 8 712.43 4.6
3 -4 8 737.03 4.4
-3 4 -8 791.32 5.8
-3 4 -8 701.53 4.8
4 -4 8 459.75 3.5
-4 4 -8 489.55 4.6
-4 4 -8 500.15 4.5
4 -4 8 477.85 3.9
5 -4 8 362.56 3.1
5 -4 8 406.06 4.5
-5 4 -8 424.96 4.9
-5 4 -8 405.56 3.7
6 -4 8 822.32 4.5
-6 4 -8 779.02 4.6
7 -4 8 155.68 2.1
-7 4 -8 136.99 2.1
8 -4 8 501.15 3.8
-8 4 -8 518.75 3.9
4 3 -8 102.39 2
-4 -3 8 31.6 2.4
4 3 -8 100.89 2
4 3 -8 106.59 2.6
3 3 -8 254.97 3.1
-3 -3 8 246.68 2.7
3 3 -8 217.58 2.5
3 3 -8 232.38 3.4
2 3 -8 59.29 1.8
-2 -3 8 46.8 1.5
2 3 -8 51.99 1.9
2 3 -8 54.29 1.9
1 3 -8 604.54 4.6
-1 -3 8 553.64 3.6
1 3 -8 516.35 3.5
1 3 -8 594.64 4.7
0 3 -8 12.5 1.3
0 3 -8 9.3 1.2
0 -3 8 9.9 1.5
0 3 -8 11.2 1.7
1 -3 8 1722.23 7
-1 3 -8 1651.13 7.4
1 -3 8 1757.82 5.8
-1 3 -8 1492.95 6
2 -3 8 66.29 1.8
-2 3 -8 62.29 1.9
2 -3 8 68.39 1.5
-2 3 -8 59.99 1.9
3 -3 8 1367.06 5.6
-3 3 -8 1396.06 6.4
3 -3 8 1426.56 5.8
-3 3 -8 1187.78 6
4 -3 8 126.99 2.2
4 -3 8 110.19 1.7
-4 3 -8 117.09 2
-4 3 -8 111.49 2.5
5 -3 8 1459.95 5.6
-5 3 -8 1578.44 6.3
-5 3 -8 1556.54 8.7
5 -3 8 1643.44 7.6
6 -3 8 319.57 2.8
-6 3 -8 319.37 5.5
-6 3 -8 290.07 2.8
7 -3 8 539.65 3.5
-7 3 -8 531.05 3.6
8 -3 8 185.38 2.3
-8 3 -8 174.78 2.4
9 -3 8 110.29 1.9
-9 3 -8 107.89 2.1
4 2 -8 195.68 2.4
-4 -2 8 -38.6 2.2
4 2 -8 182.48 2.4
4 2 -8 188.98 2.7
3 2 -8 200.28 2.4
-3 -2 8 -17.4 2.3
3 2 -8 170.78 2.4
3 2 -8 188.98 2.5
2 2 -8 213.58 2.5
-2 -2 8 5.7 2.3
2 2 -8 208.18 2.3
2 2 -8 35.6 2.7
1 2 -8 750.32 4.3
-1 -2 8 680.43 3.7
1 2 -8 710.93 3.9
1 2 -8 753.72 4.4
0 2 -8 231.38 2.6
0 -2 8 222.38 2.2
0 2 -8 228.28 2.6
-1 2 -8 911.61 4.7
1 -2 8 959.5 4.3
1 -2 8 894.01 4.5
-1 2 -8 905.81 4.6
2 -2 8 116.59 1.9
-2 2 -8 109.59 1.8
2 -2 8 112.19 1.7
-2 2 -8 118.29 2.2
3 -2 8 824.42 4.2
-3 2 -8 831.62 4.5
3 -2 8 822.02 4.3
-3 2 -8 796.42 4.7
-4 2 -8 103.79 2.3
4 -2 8 103.09 1.8
4 -2 8 118.59 2
-4 2 -8 108.49 1.9
-5 2 -8 1009.2 6.8
5 -2 8 1211.08 5.9
5 -2 8 973.6 4.4
-5 2 -8 1113.09 4.8
-6 2 -8 9.8 1.8
6 -2 8 10 1
-6 2 -8 6.9 1
-7 2 -8 469.15 7.4
7 -2 8 485.05 3.4
-7 2 -8 435.66 3.2
-7 2 -8 477.95 8
8 -2 8 27.4 1.6
-8 2 -8 23.9 1.3
9 -2 8 269.67 2.9
-9 2 -8 260.97 2.7
4 1 -8 314.77 2.9
-4 -1 8 225.88 2.9
4 1 -8 293.07 2.8
4 1 -8 314.37 3.1
3 1 -8 2 1.1
-3 -1 8 3 1.1
3 1 -8 4.8 1
3 1 -8 0.9 1.3
2 1 -8 841.02 4.2
-2 -1 8 825.82 4.3
2 1 -8 775.82 4.1
2 1 -8 866.11 4.2
1 1 -8 124.89 1.9
1 1 -8 122.79 1.9
-1 -1 8 114.59 1.7
1 1 -8 112.09 1.8
0 1 -8 1321.57 5.4
0 -1 8 1333.27 5.1
0 -1 8 1414.06 5
0 1 -8 1407.36 5.3
-1 1 -8 169.18 2.1
1 -1 8 166.98 2
-1 1 -8 161.08 2.1
1 -1 8 165.88 2
2 -1 8 1196.98 4.6
-2 1 -8 1238.58 5.2
-2 1 -8 1189.48 4.8
2 -1 8 1272.07 4.9
3 -1 8 505.05 3.3
-3 1 -8 493.55 3.6
3 -1 8 473.55 2.9
-3 1 -8 491.35 3.2
-4 1 -8 351.46 3.4
4 -1 8 369.36 2.7
-4 1 -8 379.86 3
4 -1 8 420.26 3.1
-5 1 -8 376.46 3.7
5 -1 8 386.56 2.8
-5 1 -8 393.96 2.9
5 -1 8 465.85 3.6
-6 1 -8 168.78 2.6
-6 1 -8 148.99 3
6 -1 8 174.48 2
-6 1 -8 175.08 2
-7 1 -8 925.81 6.7
-7 1 -8 780.42 6.4
7 -1 8 904.81 4.3
-7 1 -8 871.81 4.3
-8 1 -8 61.79 2.8
8 -1 8 67.59 1.8
-8 1 -8 69.49 2.9
-8 1 -8 68.09 1.8
-9 1 -8 585.24 12.9
9 -1 8 567.34 3.8
-9 1 -8 537.55 3.8
-9 1 -8 544.35 12.9
5 0 -8 142.29 2.2
-5 0 8 142.59 2.3
5 0 -8 125.29 2.4
5 0 -8 137.99 2.3
4 0 -8 413.06 3.1
-4 0 8 402.46 3.4
4 0 -8 393.66 3.2
4 0 -8 437.46 3.4
3 0 -8 51.29 1.4
-3 0 8 47.4 1.4
3 0 -8 52.99 1.7
3 0 -8 50.79 1.3
2 0 -8 761.52 3.7
-2 0 8 731.93 3.8
2 0 -8 748.93 3.8
2 0 -8 806.62 3.7
1 0 -8 165.38 2
1 0 -8 176.98 1.9
1 0 -8 169.38 2
-1 0 8 156.58 2.1
0 0 -8 1097.79 4.7
0 0 8 1057.99 4.3
0 0 -8 1114.99 4.5
0 0 8 1057.19 4.3
1 0 8 2.5 1
-1 0 -8 2 1.3
-1 0 -8 0.9 1.1
1 0 8 4.3 1.2
2 0 8 966.7 4.1
2 0 8 898.51 3.9
-2 0 -8 906.51 4.4
-2 0 -8 918.81 4
3 0 8 289.37 2.3
-3 0 -8 257.07 2.7
3 0 8 302.17 2.5
-3 0 -8 292.57 2.5
4 0 8 506.85 3.3
4 0 8 445.26 2.7
-4 0 -8 411.26 3.3
-4 0 -8 450.55 3
5 0 8 268.47 2.7
5 0 8 243.08 2.3
-5 0 -8 246.48 2.2
-5 0 -8 232.38 2.6
-6 0 -8 1188.08 5.6
6 0 8 1322.97 4.8
-6 0 -8 1232.98 4.6
-6 0 -8 1195.58 6
-7 0 -8 561.34 4.6
7 0 8 594.84 3.3
-7 0 -8 560.24 3.2
-7 0 -8 514.95 4.5
8 0 8 313.57 2.7
-8 0 -8 345.27 4.1
-8 0 -8 308.27 2.7
-8 0 -8 316.77 3.9
9 0 8 232.08 2.5
-9 0 -8 242.58 4.2
-9 0 -8 210.98 2.4
-9 0 -8 162.08 3.6
5 -1 -8 227.08 2.5
-5 1 8 211.48 2.6
5 -1 -8 221.38 2.7
5 -1 -8 217.88 2.6
4 -1 -8 282.27 2.5
-4 1 8 275.67 2.7
4 -1 -8 306.47 2.9
4 -1 -8 201.58 2.7
3 -1 -8 241.68 2.2
-3 1 8 246.28 2.8
3 -1 -8 -37.7 2.6
3 -1 -8 233.58 2.5
2 -1 -8 186.58 1.9
2 -1 -8 180.08 2
2 -1 -8 193.78 2
-2 1 8 180.38 2.3
1 -1 -8 463.45 2.9
1 -1 -8 438.26 3.2
1 -1 -8 478.25 3
-1 1 8 -6.8 3.2
0 1 8 559.74 3.3
0 -1 -8 523.55 3.2
0 -1 -8 643.24 3.3
0 1 8 569.14 3
1 1 8 49 1.1
1 1 8 51.99 1.1
-1 -1 -8 54.49 1.2
-1 -1 -8 49.2 1.5
2 1 8 870.61 3.6
-2 -1 -8 860.61 3.6
2 1 8 913.51 3.9
-2 -1 -8 800.62 3.8
3 1 8 3.8 0.8
-3 -1 -8 10.9 0.9
-3 -1 -8 1 1.3
3 1 8 4.7 1.2
4 1 8 1206.38 4.2
4 1 8 1357.96 5.1
-4 -1 -8 1231.68 4.3
-4 -1 -8 1193.88 5.1
5 1 8 1.5 1.2
5 1 8 1.1 1.1
-5 -1 -8 2.5 1.1
-5 -1 -8 4 1.2
-6 -1 -8 1093.19 5.2
-6 -1 -8 1070.39 5.1
6 1 8 1025 4.2
-6 -1 -8 1114.89 4.3
-7 -1 -8 25 1.4
-7 -1 -8 27.6 1.6
7 1 8 21.2 1.1
-7 -1 -8 19.5 1
-8 -1 -8 238.88 3
-8 -1 -8 246.08 3.1
8 1 8 244.38 2.6
-8 -1 -8 219.38 2.4
-9 -1 -8 8.5 1.5
9 1 8 5.6 1.3
-9 -1 -8 9.8 1.5
-9 -1 -8 7.4 1.4
4 -2 -8 5.1 1
4 -2 -8 -0.7 1
4 -2 -8 8.6 1
-4 2 8 1.9 1.4
3 -2 -8 412.46 3.2
3 -2 -8 411.96 2.7
3 -2 -8 427.96 2.8
-3 2 8 414.76 3.2
2 -2 -8 76.79 1.6
-2 2 8 76.79 1.7
2 -2 -8 77.99 1.7
2 -2 -8 84.59 1.6
-1 2 8 578.14 3.5
1 -2 -8 523.35 3.4
1 -2 -8 582.34 3
0 2 8 521.15 2.9
0 2 8 502.85 3
0 -2 -8 559.84 3
0 -2 -8 469.35 3
1 2 8 763.32 3.2
-1 -2 -8 765.12 3.3
1 2 8 734.23 3.5
-1 -2 -8 690.73 3.6
2 2 8 646.34 3
-2 -2 -8 664.83 3
-2 -2 -8 631.34 3.3
2 2 8 733.63 3.4
3 2 8 1009.5 4
3 2 8 815.92 3.5
-3 -2 -8 835.82 3.5
-3 -2 -8 875.81 4
4 2 8 828.72 3.8
4 2 8 682.83 3.3
-4 -2 -8 713.13 3.4
-4 -2 -8 774.32 3.9
5 2 8 595.14 3.4
-5 -2 -8 537.75 3.4
5 2 8 477.15 2.9
-5 -2 -8 470.35 2.8
-6 -2 -8 468.95 3.3
-6 -2 -8 497.05 3.5
6 2 8 432.76 2.9
-6 -2 -8 447.26 2.8
-7 -2 -8 31.4 1.4
7 2 8 31.5 1.1
-7 -2 -8 30 1.4
-7 -2 -8 29.3 1.4
-8 -2 -8 379.76 3.4
8 2 8 311.27 2.9
-8 -2 -8 335.57 3.1
-8 -2 -8 86.49 2.7
9 2 8 0.6 1.3
-9 -2 -8 2.7 1.3
-9 -2 -8 1.1 1.2
-9 -2 -8 0.4 1.2
4 -3 -8 48.6 1.7
-4 3 8 36.1 1.3
4 -3 -8 41.2 1.4
4 -3 -8 35.3 1.1
3 -3 -8 461.95 3.4
-3 3 8 452.45 3.3
3 -3 -8 455.05 2.9
3 -3 -8 443.76 2.8
2 -3 -8 2.7 0.8
2 -3 -8 6.5 1.2
2 -3 -8 1.8 1.4
-2 3 8 1.9 1.1
1 -3 -8 942.91 3.8
-1 3 8 879.71 4.2
1 -3 -8 789.72 4
0 3 8 8.1 1
0 -3 -8 9.1 0.9
0 -3 -8 1.9 1
0 3 8 9.6 1.2
1 3 8 1245.68 4.2
-1 -3 -8 1317.67 4.4
-1 -3 -8 1280.07 4.7
1 3 8 1376.76 4.8
2 3 8 26.5 1
2 3 8 22.5 1.1
-2 -3 -8 22.1 1.1
-2 -3 -8 22.9 1.3
3 3 8 1179.28 4.2
-3 -3 -8 1207.48 4.3
3 3 8 1461.75 4.9
-3 -3 -8 1307.27 4.8
-4 -3 -8 72.29 1.7
4 3 8 64.29 1.4
-4 -3 -8 67.19 1.4
4 3 8 76.59 1.6
-5 -3 -8 696.13 3.4
-5 -3 -8 760.82 3.8
5 3 8 678.43 3.3
-5 -3 -8 703.03 3.4
-6 -3 -8 273.17 2.5
6 3 8 251.87 2.3
-6 -3 -8 280.37 2.4
-6 -3 -8 252.17 2.4
-7 -3 -8 220.78 2.5
7 3 8 227.58 2.3
-7 -3 -8 211.38 2.1
-7 -3 -8 245.28 2.5
-8 -3 -8 294.57 3
8 3 8 280.87 2.5
-8 -3 -8 272.47 2.4
-8 -3 -8 286.77 2.7
9 3 8 4.4 1.9
-9 -3 -8 70.49 2
-9 -3 -8 69.79 1.9
-9 -3 -8 67.29 1.8
4 -4 -8 240.48 2.8
4 -4 -8 216.78 2.4
-4 4 8 167.78 3
4 -4 -8 198.38 2.2
3 -4 -8 407.36 3.2
3 -4 -8 171.48 2.8
-3 4 8 336.87 3.3
3 -4 -8 339.67 2.8
2 -4 -8 350.06 2.5
2 -4 -8 360.56 2.6
2 -4 -8 310.47 2.6
-2 4 8 371.96 3.1
1 -4 -8 614.24 3.1
1 -4 -8 544.55 3.3
-1 4 8 610.64 3.6
0 4 8 275.57 2.2
0 -4 -8 309.47 2.3
0 -4 -8 259.47 2.3
0 4 8 309.57 2.6
1 4 8 1152.18 4.4
1 4 8 1019.2 4
-1 -4 -8 1075.89 4
-1 -4 -8 1004.4 4.2
-2 -4 -8 6.8 1.1
2 4 8 12.6 0.9
2 4 8 10.4 0.9
-2 -4 -8 4.8 1.2
3 4 8 648.44 3.2
3 4 8 738.63 3.4
-3 -4 -8 663.43 3.1
-3 -4 -8 654.33 3.4
4 4 8 2.1 1.3
4 4 8 4.7 1.1
-4 -4 -8 2.5 1
-4 -4 -8 0.9 1
-5 -4 -8 516.05 3.1
5 4 8 454.75 2.8
-5 -4 -8 529.25 3.3
-5 -4 -8 458.15 2.8
-6 -4 -8 55.79 1.5
6 4 8 46.4 1.2
-6 -4 -8 50.29 1.5
-6 -4 -8 53.29 1.6
-7 -4 -8 518.55 3.4
7 4 8 494.35 3.4
-7 -4 -8 491.45 3.1
-7 -4 -8 537.25 3.5
-8 -4 -8 76.49 1.7
8 4 8 63.69 1.6
-8 -4 -8 2.1 1.6
-8 -4 -8 74.19 1.9
-9 -4 -8 -43.4 3
9 4 8 319.07 3
-9 -4 -8 273.17 3.3
-9 -4 -8 299.97 2.8
4 -5 -8 297.67 2.7
4 -5 -8 375.66 3.4
-4 5 8 41.4 3.4
4 -5 -8 318.87 2.7
3 -5 -8 25.4 1.2
3 -5 -8 20.4 1.3
-3 5 8 23.2 1.2
3 -5 -8 21.6 1
2 -5 -8 307.37 2.4
2 -5 -8 312.87 2.5
2 -5 -8 275.07 2.5
-2 5 8 329.57 2.8
1 -5 -8 47.3 1.1
1 -5 -8 45.2 1.6
-1 5 8 49 1.5
0 5 8 438.76 2.7
0 5 8 469.55 3.1
0 -5 -8 458.95 2.7
0 -5 -8 415.76 2.8
1 5 8 526.65 2.9
-1 -5 -8 573.64 3
1 5 8 612.04 3.4
-1 -5 -8 530.55 3.2
-2 -5 -8 199.78 2.2
2 5 8 238.68 2.1
2 5 8 204.98 2
-2 -5 -8 208.18 1.9
-3 -5 -8 429.86 2.9
3 5 8 402.76 2.6
3 5 8 490.35 3
-3 -5 -8 420.46 2.7
-4 -5 -8 121.59 1.6
4 5 8 119.99 1.5
-4 -5 -8 148.29 1.8
-4 -5 -8 129.69 1.7
-5 -5 -8 669.73 3.5
5 5 8 593.14 3.3
-5 -5 -8 580.64 3.1
-5 -5 -8 726.03 3.8
-6 -5 -8 76.79 1.5
6 5 8 68.69 1.5
-6 -5 -8 69.39 1.4
-6 -5 -8 79.59 1.7
-7 -5 -8 530.15 3.4
7 5 8 495.45 3.5
-7 -5 -8 486.35 3.4
-7 -5 -8 540.75 3.5
-8 -5 -8 5.1 1.5
8 5 8 22.1 1.1
-8 -5 -8 23.1 1.4
-8 -5 -8 24 1.4
-3 6 8 9.6 1.7
3 -6 -8 31.9 1.5
3 -6 -8 30.7 1.7
3 -6 -8 24.2 1.5
2 -6 -8 190.08 2.1
-2 6 8 206.68 2.5
2 -6 -8 188.18 2
2 -6 -8 172.58 2.1
1 -6 -8 3.5 1.1
1 -6 -8 4.3 1.1
-1 6 8 2.1 1.4
1 -6 -8 1.5 1.3
0 6 8 505.55 2.9
0 -6 -8 549.15 3
0 6 8 597.84 3.5
0 -6 -8 528.45 3.2
1 6 8 50.39 1.3
-1 -6 -8 47.7 1.3
1 6 8 55.79 1.5
-1 -6 -8 -0.9 1.5
-2 -6 -8 475.75 2.8
2 6 8 458.75 2.7
-2 -6 -8 462.95 2.9
2 6 8 576.34 3.2
3 6 8 91.99 1.4
-3 -6 -8 101.89 1.8
-3 -6 -8 108.39 1.7
-4 -6 -8 704.13 3.6
4 6 8 640.44 3.4
-4 -6 -8 666.03 3.7
-4 -6 -8 725.03 4
-5 -6 -8 231.28 2.3
5 6 8 225.78 2.3
-5 -6 -8 243.98 2.3
-5 -6 -8 276.37 2.6
-6 -6 -8 417.26 3.1
6 6 8 424.46 3
-6 -6 -8 407.16 2.8
-6 -6 -8 423.26 3.1
-7 -6 -8 126.79 2.2
7 6 8 114.79 1.8
-7 -6 -8 126.69 2
-7 -6 -8 116.89 1.9
-8 -6 -8 17.8 2.6
8 6 8 112.29 2.3
-8 -6 -8 195.48 2.5
-8 -6 -8 174.08 2.1
2 -7 -8 -41.3 1.9
2 -7 -8 198.38 2.2
2 -7 -8 189.98 2.3
-2 7 8 203.68 2.6
-1 7 8 32.5 1.5
1 -7 -8 29.8 1.1
1 -7 -8 33.1 1.4
1 -7 -8 29.6 1.3
0 7 8 316.97 2.5
0 -7 -8 334.57 2.7
0 7 8 341.17 3
0 -7 -8 321.17 2.8
-1 -7 -8 62.99 1.6
1 7 8 48.9 1.3
-1 -7 -8 59.09 1.5
1 7 8 64.79 1.5
2 7 8 444.66 2.8
-2 -7 -8 427.56 2.9
-2 -7 -8 435.66 2.9
-3 -7 -8 40.7 1.2
3 7 8 48 1.5
-3 -7 -8 42.6 1.4
-3 -7 -8 40.6 1.2
-4 -7 -8 479.45 3.2
4 7 8 -55.09 2.9
-4 -7 -8 522.85 3.1
-4 -7 -8 486.65 3.3
-5 -7 -8 2.9 1.3
5 7 8 -0.1 0.8
-5 -7 -8 2 1.1
-5 -7 -8 -0.1 1.4
6 7 8 211.98 2.3
-6 -7 -8 -22.8 2.5
-6 -7 -8 219.48 2.2
-6 -7 -8 230.68 2.5
-7 -7 -8 -2.3 1.5
7 7 8 13.1 1.5
-7 -7 -8 22.7 1.3
-7 -7 -8 25.5 1.5
1 -8 -8 223.08 2.4
-1 8 8 243.58 3
1 -8 -8 242.38 2.6
1 -8 -8 206.98 2.7
0 -8 -8 58.59 1.7
0 8 8 70.79 1.7
0 -8 -8 70.69 1.7
-1 -8 -8 308.17 2.7
-1 -8 -8 333.77 2.6
1 8 8 292.57 2.5
-2 -8 -8 142.49 2.1
2 8 8 145.49 1.9
-2 -8 -8 77.59 2.1
-2 -8 -8 142.79 1.8
-3 -8 -8 150.18 2.1
3 8 8 149.59 1.8
-3 -8 -8 144.39 1.8
-3 -8 -8 154.88 2.1
4 8 8 120.89 1.7
-4 -8 -8 117.39 2
-4 -8 -8 131.39 1.8
-4 -8 -8 137.49 2.2
5 8 8 34.3 1.6
-5 -8 -8 39 1.5
-5 -8 -8 38.8 1.5
-5 -8 -8 40.3 1.4
6 8 8 219.18 2.5
-6 -8 -8 190.08 2.5
-6 -8 -8 198.88 2.3
-6 -8 -8 138.29 2.5
-1 -9 -8 146.89 2.1
1 9 8 144.99 2
-1 -9 -8 145.59 2.3
-1 -9 -8 165.28 2.2
2 9 8 2.7 1.1
-2 -9 -8 10.9 1.4
-2 -9 -8 0.3 1
-2 -9 -8 11.9 1.4
3 9 8 101.09 1.7
-3 -9 -8 100.99 1.8
-3 -9 -8 -9.6 1.7
-3 -9 -8 92.99 1.9
4 9 8 65.99 1.5
-4 -9 -8 55.19 1.5
-4 -9 -8 75.69 1.8
-4 -9 -8 70.09 1.7
0 -6 9 181.58 2.7
0 6 -9 179.28 2.7
1 -6 9 152.08 2.4
-1 6 -9 148.59 2.5
2 -6 9 283.67 3
-2 6 -9 313.77 3.5
3 -6 9 292.47 6.4
-3 6 -9 304.77 3.6
3 -6 9 266.97 3
-3 6 -9 174.88 7.9
4 -6 9 90.49 2.6
-4 6 -9 106.09 2.6
4 -6 9 91.09 2.3
-4 6 -9 79.29 3.2
5 -6 9 287.57 4.3
5 -6 9 279.97 3.7
-5 6 -9 335.97 4.9
-5 6 -9 277.87 4.2
6 -6 9 13.6 1.5
-6 6 -9 14.1 1.7
-1 -5 9 0.2 1.6
1 5 -9 1.8 1.7
0 -5 9 403.16 3.3
0 5 -9 371.56 3.5
1 -5 9 24.4 1.4
-1 5 -9 24.1 1.7
2 -5 9 209.68 2.6
-2 5 -9 188.78 2.6
-2 5 -9 198.48 5
3 -5 9 57.79 2
-3 5 -9 57.19 1.9
3 -5 9 63.39 1.7
-3 5 -9 57.09 2.7
4 -5 9 277.87 3.3
-4 5 -9 316.77 3.6
-4 5 -9 272.87 4.2
4 -5 9 288.97 3.2
5 -5 9 240.38 3.5
5 -5 9 209.48 2.7
-5 5 -9 237.28 4.1
-5 5 -9 222.38 3.2
6 -5 9 313.37 6
-6 5 -9 282.97 6.4
6 -5 9 269.47 3.1
-6 5 -9 261.17 3.4
7 -5 9 279.37 3.1
-7 5 -9 233.28 3.2
2 4 -9 187.48 3.7
-2 -4 9 124.49 2.3
2 4 -9 149.88 2.3
2 4 -9 190.28 4.2
1 4 -9 126.49 3.1
-1 -4 9 100.69 2.1
1 4 -9 104.09 2.2
1 4 -9 121.39 3.4
0 -4 9 311.97 2.8
0 4 -9 329.67 4.8
0 4 -9 286.37 2.9
0 4 -9 368.66 4.8
-1 4 -9 7.5 1.4
1 -4 9 5.6 1
-1 4 -9 5.9 2
-1 4 -9 2.8 1.4
2 -4 9 242.08 3.2
2 -4 9 229.98 2.4
-2 4 -9 250.87 3.8
-2 4 -9 218.58 2.8
3 -4 9 1.5 1.2
-3 4 -9 0.5 1.6
-3 4 -9 3.2 1.3
3 -4 9 1.1 1.1
4 -4 9 750.12 4.4
-4 4 -9 710.23 5.4
-4 4 -9 799.72 5.4
4 -4 9 761.02 4.6
5 -4 9 12.5 1.2
5 -4 9 14.9 1.6
-5 4 -9 16.1 1.8
-5 4 -9 19 1.6
6 -4 9 539.85 3.9
-6 4 -9 580.54 7
-6 4 -9 557.74 4.3
6 -4 9 597.14 6.3
7 -4 9 40.6 1.7
-7 4 -9 35 1.5
8 -4 9 316.57 3.3
-8 4 -9 271.47 3.1
3 3 -9 213.38 3.1
-3 -3 9 -36.6 2.2
3 3 -9 203.48 2.6
3 3 -9 222.08 3.6
2 3 -9 32 1.6
-2 -3 9 -4.1 1.2
2 3 -9 32.2 1.7
2 3 -9 32.7 1.9
1 3 -9 459.75 4.1
-1 -3 9 409.46 3.1
1 3 -9 360.46 3.3
1 3 -9 471.25 4.3
0 3 -9 -19.1 4.3
0 3 -9 389.46 3.8
0 -3 9 359.36 2.9
0 3 -9 347.47 3.2
1 -3 9 217.28 2.8
-1 3 -9 210.38 2.9
1 -3 9 208.88 2.4
-1 3 -9 199.98 2.6
2 -3 9 708.33 4.4
-2 3 -9 649.14 5
2 -3 9 750.92 4
-2 3 -9 719.33 4.4
3 -3 9 489.45 3.6
-3 3 -9 503.75 4.1
-3 3 -9 470.55 3.9
3 -3 9 499.65 3.5
4 -3 9 858.51 4.9
4 -3 9 795.82 4.2
-4 3 -9 891.21 5.2
-4 3 -9 801.32 5.5
5 -3 9 149.19 1.9
-5 3 -9 186.98 2.5
5 -3 9 185.48 2.7
-5 3 -9 172.28 3.2
6 -3 9 501.75 5
6 -3 9 449.16 3.3
-6 3 -9 449.16 3.4
-6 3 -9 464.85 5.7
7 -3 9 32.1 1.3
-7 3 -9 33 1.7
8 -3 9 251.97 3.3
-8 3 -9 -65.29 3.1
3 2 -9 294.57 3.1
-3 -2 9 270.27 3.3
3 2 -9 -35.8 3.1
3 2 -9 302.77 3.3
2 2 -9 1.7 1
-2 -2 9 0.5 1.3
2 2 -9 0.2 1.5
2 2 -9 0.1 1.2
1 2 -9 265.97 4.6
-1 -2 9 634.44 3.9
1 2 -9 727.33 4.3
1 2 -9 711.13 4.4
0 2 -9 72.09 1.7
0 2 -9 70.29 1.7
0 -2 9 66.09 1.5
0 2 -9 66.79 1.9
1 -2 9 959.5 4.7
-1 2 -9 947.51 4.9
1 -2 9 906.41 4.2
-1 2 -9 933.01 4.7
2 -2 9 41.9 1.4
-2 2 -9 44.1 1.5
2 -2 9 47.8 1.5
-2 2 -9 46 1.4
3 -2 9 1298.37 5.3
-3 2 -9 1222.58 5.4
3 -2 9 1235.38 5
-3 2 -9 1136.79 5.5
-4 2 -9 257.57 3.1
4 -2 9 263.17 2.5
4 -2 9 292.17 2.8
-4 2 -9 274.47 2.7
-5 2 -9 321.97 3.8
5 -2 9 323.97 2.7
-5 2 -9 363.76 3
5 -2 9 385.66 3.4
-6 2 -9 338.27 4.6
6 -2 9 351.36 2.9
6 -2 9 366.56 3.9
-6 2 -9 367.86 3
-7 2 -9 159.08 3.5
7 -2 9 172.68 2.3
-7 2 -9 169.78 2.1
-7 2 -9 135.19 4.3
8 -2 9 294.07 3.2
-8 2 -9 347.07 3.1
9 -2 9 55.29 1.6
-9 2 -9 53.09 1.9
3 1 -9 314.07 2.9
-3 -1 9 304.87 3
3 1 -9 314.97 3
3 1 -9 -74.99 3
2 1 -9 153.38 2
-2 -1 9 144.39 2
2 1 -9 -25.2 2
2 1 -9 102.69 2.3
1 1 -9 615.94 3.7
1 1 -9 642.34 3.7
-1 -1 9 552.64 3.8
1 1 -9 553.34 3.8
0 1 -9 182.68 2.2
0 -1 9 170.08 2.1
0 1 -9 187.48 2.4
-1 1 -9 915.11 4.4
1 -1 9 902.41 4.2
-1 1 -9 905.71 4.4
1 -1 9 893.41 4
-2 1 -9 158.38 2.3
2 -1 9 140.09 1.9
-2 1 -9 147.39 2
2 -1 9 155.28 2.1
-3 1 -9 763.02 4.2
3 -1 9 768.92 3.9
3 -1 9 738.73 3.7
-3 1 -9 702.03 3.8
-4 1 -9 3.3 1.1
4 -1 9 2.2 1
-4 1 -9 2.8 0.9
4 -1 9 2 1.2
-5 1 -9 550.24 4.3
5 -1 9 637.84 4
5 -1 9 501.05 3.1
-5 1 -9 549.25 3.3
-6 1 -9 42.5 1.9
6 -1 9 47.4 1.7
6 -1 9 40.3 1.2
-6 1 -9 44 1.6
-7 1 -9 516.95 4.7
-7 1 -9 488.15 4.9
7 -1 9 540.25 3.3
-7 1 -9 543.15 3.4
-8 1 -9 132.49 3.8
-8 1 -9 153.48 3.6
8 -1 9 140.39 2
-8 1 -9 43.3 2.2
-9 1 -9 351.16 7.9
9 -1 9 296.17 3.2
-9 1 -9 306.27 7.5
-9 1 -9 307.87 3
4 0 -9 78.59 3
-4 0 9 319.37 3.3
4 0 -9 344.07 3.2
4 0 -9 345.97 3.3
3 0 -9 41.8 1.5
-3 0 9 39.3 1.5
3 0 -9 42.9 1.7
3 0 -9 43.9 1.7
2 0 -9 517.85 3.2
-2 0 9 478.05 3.3
2 0 -9 503.65 3.4
2 0 -9 514.05 3.3
1 0 -9 276.07 2.6
1 0 -9 303.27 2.5
1 0 -9 305.47 2.5
-1 0 9 266.27 2.7
0 0 -9 418.06 3.1
0 0 9 375.16 2.7
0 0 -9 424.36 2.9
0 0 9 394.56 2.7
-1 0 -9 576.94 3.4
1 0 9 529.35 3
-1 0 -9 536.65 3.2
1 0 9 556.44 3.1
2 0 9 178.08 2
-2 0 -9 166.58 2.1
-2 0 -9 168.38 1.8
2 0 9 167.48 1.7
3 0 9 676.93 3.3
-3 0 -9 630.34 3.8
3 0 9 698.73 3.6
-3 0 -9 677.43 3.4
4 0 9 268.87 2.3
-4 0 -9 239.38 2.6
-4 0 -9 264.77 2.4
4 0 9 294.17 2.6
5 0 9 1071.59 4.3
-5 0 -9 967.2 5.1
-5 0 -9 1091.19 4.5
5 0 9 1244.68 5.2
6 0 9 50.89 1.3
-6 0 -9 53.29 1.8
-6 0 -9 51.79 1.3
6 0 9 59.69 1.6
-7 0 -9 977 5.6
7 0 9 1027.7 4.5
-7 0 -9 962.6 5.8
-7 0 -9 993.6 4.4
-8 0 -9 1.8 1.6
8 0 9 2.8 1.3
-8 0 -9 3.1 1.5
-8 0 -9 1.1 1.3
9 0 9 471.65 3.5
-9 0 -9 487.65 5.8
-9 0 -9 450.85 5.4
-9 0 -9 428.56 3.3
4 -1 -9 1 1.8
4 -1 -9 105.39 2.2
4 -1 -9 -25.9 1.5
-4 1 9 96.39 2.1
3 -1 -9 43.7 1.4
-3 1 9 39.4 1.6
3 -1 -9 38 1.4
3 -1 -9 25.2 1.5
2 -1 -9 422.86 2.9
2 -1 -9 381.66 2.9
2 -1 -9 400.16 2.7
-2 1 9 -27.3 2.8
1 -1 -9 11.4 1.2
1 -1 -9 11.3 1
1 -1 -9 12.4 1.2
-1 1 9 11.3 1
0 1 9 476.85 3.2
0 1 9 493.95 2.9
0 -1 -9 462.85 3.1
0 -1 -9 520.05 2.9
1 1 9 57.69 1.4
1 1 9 61.79 1.3
-1 -1 -9 54.79 1.4
-1 -1 -9 62.49 1.4
2 1 9 613.14 3.1
-2 -1 -9 616.64 3.7
-2 -1 -9 653.13 3.4
2 1 9 696.53 3.6
3 1 9 210.28 2.2
-3 -1 -9 212.68 2
-3 -1 -9 188.18 2.3
3 1 9 224.88 2.3
4 1 9 828.92 3.7
-4 -1 -9 813.52 3.7
-4 -1 -9 767.02 4.1
4 1 9 857.71 4
5 1 9 573.44 3.4
5 1 9 506.35 3.1
-5 -1 -9 494.95 3.1
-5 -1 -9 496.25 3.5
6 1 9 538.65 3.1
-6 -1 -9 532.95 3
-6 -1 -9 524.85 3.8
-7 -1 -9 454.45 3.5
7 1 9 482.95 3.2
-7 -1 -9 430.66 3
-7 -1 -9 436.16 3.6
-8 -1 -9 347.07 3.6
8 1 9 370.26 3
-8 -1 -9 350.06 3
-8 -1 -9 322.67 3.4
-9 -1 -9 252.17 3.5
9 1 9 237.88 2.6
-9 -1 -9 234.98 3.8
-9 -1 -9 232.38 2.7
-4 2 9 33.9 1.8
4 -2 -9 0.2 1.6
4 -2 -9 18.9 1.6
4 -2 -9 22 1.8
3 -2 -9 101.29 1.8
-3 2 9 88.09 1.8
3 -2 -9 99.09 1.8
3 -2 -9 99.19 1.8
2 -2 -9 -46.2 2.7
2 -2 -9 344.47 2.8
-2 2 9 363.86 3.1
2 -2 -9 362.86 2.5
1 -2 -9 79.49 1.4
-1 2 9 79.09 1.7
1 -2 -9 72.49 1.7
1 -2 -9 81.59 1.6
0 2 9 577.14 3
0 -2 -9 558.74 3.5
0 -2 -9 665.83 3.3
0 2 9 583.94 3.5
1 2 9 83.49 1.5
-1 -2 -9 88.79 1.6
-1 -2 -9 67.79 1.4
1 2 9 77.59 1.4
2 2 9 1171.28 4.1
-2 -2 -9 1314.97 4.5
-2 -2 -9 1105.79 4.4
2 2 9 1270.57 4.5
3 2 9 15.8 1
3 2 9 10 0.9
-3 -2 -9 13.2 0.9
-3 -2 -9 10.5 1.4
4 2 9 993.6 3.8
-4 -2 -9 1027.4 3.9
4 2 9 1113.99 4.6
-4 -2 -9 947.41 4.4
5 2 9 0.6 1.1
5 2 9 1.9 0.8
-5 -2 -9 2.5 0.9
-5 -2 -9 1.2 1.2
-6 -2 -9 949.01 4.5
-6 -2 -9 884.81 4.3
6 2 9 772.62 3.8
-6 -2 -9 782.12 3.9
-7 -2 -9 39.1 1.4
7 2 9 42.6 1.6
-7 -2 -9 37.1 1.3
-7 -2 -9 43.1 1.5
-8 -2 -9 305.67 3
-8 -2 -9 345.97 3.3
8 2 9 322.87 3
-8 -2 -9 302.17 2.8
-9 -2 -9 103.39 2.4
9 2 9 145.59 2.1
-9 -2 -9 133.49 2.6
-9 -2 -9 125.29 2
3 -3 -9 230.98 2.4
3 -3 -9 228.88 2.3
-3 3 9 234.08 2.6
3 -3 -9 213.08 2.2
2 -3 -9 98.79 1.8
2 -3 -9 129.19 2.1
2 -3 -9 126.19 1.7
-2 3 9 123.99 2
1 -3 -9 425.66 2.8
1 -3 -9 349.67 2.8
1 -3 -9 390.26 2.6
-1 3 9 396.76 3
0 3 9 368.76 2.4
0 -3 -9 425.76 2.7
0 -3 -9 322.47 2.5
0 3 9 385.96 2.8
1 3 9 488.05 2.7
-1 -3 -9 520.85 2.9
-1 -3 -9 435.76 3
1 3 9 481.35 3
2 3 9 710.43 3.4
2 3 9 634.74 3
-2 -3 -9 658.63 3.1
-2 -3 -9 620.64 3.2
3 3 9 186.18 1.8
-3 -3 -9 202.38 1.8
3 3 9 228.68 2
-3 -3 -9 204.78 2.1
4 3 9 662.43 3.3
4 3 9 864.21 3.9
-4 -3 -9 682.13 3.4
-4 -3 -9 771.52 3.9
5 3 9 18.1 1.2
-5 -3 -9 19.1 1.2
5 3 9 16.2 0.9
-5 -3 -9 17.8 1.2
-6 -3 -9 531.55 3.2
-6 -3 -9 588.84 3.5
6 3 9 523.95 3
-6 -3 -9 504.85 3
-7 -3 -9 23.8 1.4
-7 -3 -9 19.1 1.4
7 3 9 24 1.3
-7 -3 -9 23.4 1.3
-8 -3 -9 275.67 3
8 3 9 242.38 2.5
-8 -3 -9 245.68 2.8
-8 -3 -9 241.58 2.3
9 3 9 16 1.3
-9 -3 -9 21.7 1.6
-9 -3 -9 14.7 1.3
-9 -3 -9 1.8 1.6
3 -4 -9 326.27 2.8
3 -4 -9 315.67 2.6
-3 4 9 316.17 2.8
3 -4 -9 303.87 2.6
2 -4 -9 0.3 0.9
2 -4 -9 0.6 1.2
2 -4 -9 0.4 1
-2 4 9 1.1 1
1 -4 -9 609.54 3.4
1 -4 -9 597.64 3.4
1 -4 -9 561.34 3.6
-1 4 9 596.44 3.8
0 4 9 6.7 1.2
0 -4 -9 8.8 1.3
0 -4 -9 2.6 1.2
0 4 9 6.5 1.2
1 4 9 487.15 3
1 4 9 445.96 2.7
-1 -4 -9 477.65 2.8
-1 -4 -9 437.66 3
2 4 9 25.7 1
2 4 9 32.5 1.1
-2 -4 -9 30 1
-2 -4 -9 25.4 1.1
3 4 9 250.07 2
-3 -4 -9 261.37 2.2
3 4 9 319.97 2.3
-3 -4 -9 265.27 2.3
-4 -4 -9 262.47 2.4
4 4 9 275.57 2.3
4 4 9 227.08 2.1
-4 -4 -9 240.28 2.2
-5 -4 -9 190.38 2.3
5 4 9 176.38 1.8
-5 -4 -9 186.38 1.9
-6 -4 -9 331.57 2.6
6 4 9 303.27 2.5
-6 -4 -9 355.86 2.9
-6 -4 -9 304.67 2.3
-7 -4 -9 142.99 2.1
7 4 9 121.79 1.7
-7 -4 -9 131.49 1.9
-7 -4 -9 123.89 1.9
-8 -4 -9 367.76 3.3
8 4 9 362.76 3
-8 -4 -9 363.96 3.1
-8 -4 -9 367.96 3.3
3 -5 -9 181.18 2.5
3 -5 -9 180.88 2.1
-3 5 9 188.38 2.5
3 -5 -9 136.69 2.2
2 -5 -9 55.39 1.3
2 -5 -9 59.79 1.5
2 -5 -9 54.79 1.7
-2 5 9 58.99 1.5
1 -5 -9 261.97 2.3
1 -5 -9 252.87 2.3
1 -5 -9 239.48 2.6
-1 5 9 274.97 2.8
0 5 9 51.79 1.5
0 -5 -9 46.5 1.2
0 5 9 45 1.4
0 -5 -9 45.9 1.5
1 5 9 299.87 2.3
-1 -5 -9 310.57 2.3
1 5 9 324.47 2.5
-1 -5 -9 281.17 2.3
2 5 9 11 0.8
-2 -5 -9 8.7 1
-2 -5 -9 7 1.2
2 5 9 7.4 1.2
-3 -5 -9 451.05 3
3 5 9 435.76 2.7
-3 -5 -9 449.66 2.6
3 5 9 498.05 3.2
-4 -5 -9 4.7 1
4 5 9 4.4 1
4 5 9 5 1.2
-4 -5 -9 6.1 1.1
-5 -5 -9 683.13 3.7
5 5 9 643.24 3.4
-5 -5 -9 697.73 3.7
-5 -5 -9 648.94 3.2
-6 -5 -9 41.7 1.2
6 5 9 37.8 1.2
-6 -5 -9 41.5 1.5
-6 -5 -9 38.8 1.2
-7 -5 -9 414.46 3.1
7 5 9 368.36 3
-7 -5 -9 370.16 2.9
-7 -5 -9 430.06 3.3
8 5 9 85.19 1.7
-8 -5 -9 24.5 2
-8 -5 -9 78.89 1.6
-8 -5 -9 83.99 1.7
2 -6 -9 107.89 2.1
-2 6 9 -11.1 2.3
2 -6 -9 185.88 2.2
2 -6 -9 167.48 2.3
1 -6 -9 125.99 1.9
1 -6 -9 122.89 1.7
-1 6 9 138.59 2.2
1 -6 -9 124.79 2
0 6 9 116.99 1.7
0 -6 -9 123.69 1.7
0 6 9 114.79 2.1
0 -6 -9 116.79 2
1 6 9 556.44 3.5
1 6 9 489.95 3
-1 -6 -9 534.55 3.1
-1 -6 -9 486.05 3.2
2 6 9 52.99 1.4
-2 -6 -9 52.49 1.2
2 6 9 62.39 1.4
-2 -6 -9 48.4 1.5
-3 -6 -9 507.95 3.3
3 6 9 628.14 3.6
3 6 9 504.25 3
-3 -6 -9 510.35 2.9
-4 -6 -9 121.89 1.8
4 6 9 120.09 1.7
-4 -6 -9 139.49 2.1
-4 -6 -9 122.69 1.9
-5 -6 -9 528.25 3.3
5 6 9 492.75 3.1
-5 -6 -9 548.45 3.5
-5 -6 -9 496.25 3.2
-6 -6 -9 13.7 1.1
6 6 9 12.6 1
-6 -6 -9 15.7 1
-6 -6 -9 12.4 1.4
-7 -6 -9 -48.9 2.8
7 6 9 241.38 2.6
-7 -6 -9 238.18 2.4
-7 -6 -9 264.57 2.9
1 -7 -9 35.7 1.2
1 -7 -9 35.4 1.5
1 -7 -9 29.1 1.2
-1 7 9 35.9 1.3
0 7 9 306.37 2.7
0 -7 -9 -15.8 2.7
0 7 9 371.96 3.1
0 -7 -9 276.17 2.7
1 7 9 99.49 1.7
-1 -7 -9 100.89 1.7
-1 -7 -9 98.89 1.9
1 7 9 104.09 1.9
-2 -7 -9 407.16 2.9
2 7 9 408.86 2.9
-2 -7 -9 417.66 3
2 7 9 482.55 3.2
-3 -7 -9 100.29 1.6
-3 -7 -9 107.69 1.9
3 7 9 103.59 1.7
-3 -7 -9 63.09 1.8
-4 -7 -9 -21 2.3
4 7 9 248.18 2.3
-4 -7 -9 233.28 2.5
-4 -7 -9 242.38 2.4
-5 -7 -9 170.18 2
5 7 9 171.78 1.9
-5 -7 -9 174.98 2.1
-5 -7 -9 190.48 2.2
-6 -7 -9 55.39 1.4
6 7 9 55.99 1.3
-6 -7 -9 57.79 1.3
-6 -7 -9 60.59 1.5
0 -8 -9 247.78 2.4
0 8 9 188.08 3
0 -8 -9 197.68 2.5
1 8 9 16.4 1
1 8 9 18.8 1.2
-1 -8 -9 15.1 1
-1 -8 -9 21.9 1.3
-2 -8 -9 257.97 2.7
-2 -8 -9 249.68 2.6
2 8 9 265.47 2.4
-2 -8 -9 261.27 2.4
-3 -8 -9 0.6 1.3
3 8 9 -0.1 0.8
-3 -8 -9 2.4 1
-3 -8 -9 0.2 1.1
-4 -8 -9 201.08 2.5
4 8 9 165.68 2
-4 -8 -9 177.88 2.4
-4 -8 -9 167.98 2
5 8 9 16.4 1.2
-5 -8 -9 13.7 1.5
-5 -8 -9 18.5 1.1
-5 -8 -9 17.9 1.5
-3 6 -10 244.88 3.5
3 -6 10 267.67 3.2
0 -5 10 -20.3 1.8
0 5 -10 83.99 2.3
1 -5 10 159.58 2.5
-1 5 -10 149.49 2.5
-1 5 -10 154.48 7.8
-1 5 -10 160.78 7.5
-2 5 -10 47 2.7
2 -5 10 38.1 1.7
-2 5 -10 34.2 1.7
-2 5 -10 38.6 3
3 -5 10 252.27 3.9
-3 5 -10 244.08 3.5
3 -5 10 265.17 3
-3 5 -10 252.67 4.7
4 -5 10 13.8 1.5
-4 5 -10 15.1 1.6
-4 5 -10 8.2 1.9
4 -5 10 -1.8 1.4
5 -5 10 341.77 4.2
5 -5 10 340.57 3.7
-5 5 -10 403.46 4.9
-5 5 -10 335.87 4.5
6 -5 10 1 1.6
6 -5 10 1.1 1.2
-6 5 -10 2 2.1
-6 5 -10 0.8 1.4
1 4 -10 19 1.9
-1 -4 10 19.2 1.5
1 4 -10 17 1.7
1 4 -10 19.8 2.3
0 4 -10 213.88 4.1
0 -4 10 199.88 2.5
0 4 -10 191.28 2.8
0 4 -10 191.88 4.2
-1 4 -10 36.1 2.2
-1 4 -10 59.69 2.4
1 -4 10 52.49 1.7
-1 4 -10 52.69 1.8
2 -4 10 498.15 4.5
-2 4 -10 465.15 5.3
2 -4 10 429.26 3.5
-2 4 -10 383.96 3.7
3 -4 10 229.98 3.1
-3 4 -10 204.68 3.8
-3 4 -10 212.78 2.9
3 -4 10 242.28 2.7
4 -4 10 289.77 3.1
4 -4 10 283.47 3.1
-4 4 -10 300.97 3.9
-4 4 -10 296.47 3.5
5 -4 10 423.16 3.7
5 -4 10 487.55 4.5
-5 4 -10 541.75 5.2
-5 4 -10 512.45 4.5
6 -4 10 189.08 2.5
6 -4 10 196.78 3.7
-6 4 -10 225.38 4.3
-6 4 -10 208.78 3
7 -4 10 365.86 3.4
-7 4 -10 -65.29 3.5
1 3 -10 0.1 1.4
-1 -3 10 0 1.2
1 3 -10 1 1.5
1 3 -10 0.1 1.5
0 3 -10 548.05 4.6
0 3 -10 561.84 4.7
0 -3 10 503.05 3.6
0 3 -10 506.15 3.7
-1 3 -10 5.9 1.3
1 -3 10 1.9 1
-1 3 -10 4.5 1.2
2 -3 10 591.54 4
-2 3 -10 548.45 4.5
2 -3 10 588.74 3.7
-2 3 -10 577.04 4
3 -3 10 41.1 1.5
-3 3 -10 42.7 1.7
-3 3 -10 41 1.7
3 -3 10 -1.5 1.7
4 -3 10 623.94 4.1
4 -3 10 623.34 3.8
-4 3 -10 665.93 4.5
-4 3 -10 573.04 4.6
5 -3 10 50.59 1.5
5 -3 10 60.19 1.7
-5 3 -10 62.99 1.6
-5 3 -10 61.19 2.2
6 -3 10 418.96 3.3
6 -3 10 479.75 4.5
-6 3 -10 443.66 3.7
-6 3 -10 449.46 5.3
-7 3 -10 82.59 3
7 -3 10 75.39 1.7
-7 3 -10 86.09 3.6
-7 3 -10 81.89 1.9
8 -3 10 100.69 2.1
-8 3 -10 110.69 2.3
2 2 -10 247.08 3
-2 -2 10 225.38 2.7
2 2 -10 228.28 2.9
2 2 -10 262.37 3.2
1 2 -10 176.18 2.5
-1 -2 10 144.09 2.3
1 2 -10 171.68 2.5
1 2 -10 156.38 2.4
0 2 -10 447.06 3.5
0 2 -10 476.45 3.6
0 -2 10 417.46 3
0 2 -10 260.97 3.4
1 -2 10 68.49 1.6
-1 2 -10 73.59 1.7
1 -2 10 66.19 1.4
-1 2 -10 69.19 1.6
2 -2 10 485.55 3.3
-2 2 -10 455.65 3.5
2 -2 10 500.05 3.4
-2 2 -10 494.65 3.7
3 -2 10 26.2 1.2
3 -2 10 2.7 1.3
-3 2 -10 25.3 1.4
-3 2 -10 27.9 1.6
4 -2 10 642.44 3.6
4 -2 10 631.04 3.8
-4 2 -10 642.84 4
-4 2 -10 610.84 4.2
5 -2 10 1.4 0.8
-5 2 -10 0.8 1.4
5 -2 10 0.9 1.1
-5 2 -10 0.7 1.4
6 -2 10 275.67 2.7
-6 2 -10 -23.5 2.9
6 -2 10 327.97 3.4
-6 2 -10 303.37 3.9
-7 2 -10 4.8 1.4
7 -2 10 1.4 1
-7 2 -10 1.5 1.3
-7 2 -10 -0.3 1.9
-8 2 -10 233.98 5.9
8 -2 10 258.07 2.8
-8 2 -10 255.77 2.7
-8 2 -10 253.97 6.1
2 1 -10 25.4 1.4
-2 -1 10 18 1.3
2 1 -10 24.3 1.4
2 1 -10 21 1.4
1 1 -10 528.05 3.7
1 1 -10 540.45 3.7
-1 -1 10 479.35 3.5
1 1 -10 508.25 3.7
0 1 -10 52.29 1.5
0 1 -10 54.99 1.5
0 -1 10 46.1 1.6
0 1 -10 47.9 1.5
-1 1 -10 477.85 3.5
1 -1 10 488.15 3.2
-1 1 -10 519.25 3.4
1 -1 10 26.9 3.6
2 -1 10 235.68 2.3
-2 1 -10 230.98 2.7
2 -1 10 218.58 2.1
-2 1 -10 220.78 2.3
-3 1 -10 270.87 2.8
3 -1 10 268.37 2.3
3 -1 10 253.37 2.2
-3 1 -10 250.27 2.5
-4 1 -10 249.48 2.7
4 -1 10 245.38 2.2
-4 1 -10 245.48 2.4
4 -1 10 255.67 2.4
5 -1 10 53.79 1.3
-5 1 -10 48.1 1.7
5 -1 10 48.8 1.5
-5 1 -10 51.29 1.3
-6 1 -10 315.47 3.5
6 -1 10 324.37 3.2
6 -1 10 289.47 2.6
-6 1 -10 304.77 2.6
-7 1 -10 69.89 2.1
-7 1 -10 61.39 2.2
7 -1 10 66.99 1.5
-7 1 -10 2.5 1.8
-8 1 -10 503.85 6
-8 1 -10 473.55 5.5
8 -1 10 480.85 3.6
-8 1 -10 472.85 3.5
2 0 -10 52.59 1.6
-2 0 10 50.09 1.8
2 0 -10 50.69 1.6
2 0 -10 53.09 1.6
1 0 -10 422.96 3
1 0 -10 405.96 2.9
-1 0 10 366.26 3.1
1 0 -10 384.56 3.2
0 0 -10 6.2 1.2
0 0 -10 7.7 1.2
0 0 10 1.9 1.4
1 0 10 540.85 3.4
-1 0 -10 532.55 3.5
1 0 10 557.54 3.2
-1 0 -10 564.44 3.2
-2 0 -10 21.3 1.2
2 0 10 23.1 1
2 0 10 24.1 1.4
-2 0 -10 20.9 1
3 0 10 553.24 3.1
-3 0 -10 532.15 3.6
-3 0 -10 579.14 3.2
3 0 10 599.44 3.4
4 0 10 100.59 1.6
-4 0 -10 95.69 1.8
-4 0 -10 99.59 1.7
4 0 10 108.69 1.6
5 0 10 664.13 3.6
-5 0 -10 648.94 4.2
5 0 10 796.82 4.2
-5 0 -10 728.63 3.7
6 0 10 273.27 2.9
6 0 10 251.37 2.3
-6 0 -10 238.98 2.8
-6 0 -10 259.97 2.4
-7 0 -10 349.67 3.4
7 0 10 376.46 2.8
-7 0 -10 318.77 3.6
-7 0 -10 327.87 2.8
-8 0 -10 182.38 3.1
8 0 10 164.98 2.2
-8 0 -10 25.5 3.3
-8 0 -10 154.08 2
9 0 10 149.09 2.1
-9 0 -10 157.58 3.9
-9 0 -10 10.4 3.8
-9 0 -10 139.09 2.2
3 -1 -10 112.69 1.8
3 -1 -10 92.39 2.3
3 -1 -10 124.29 2
-3 1 10 106.69 2.1
2 -1 -10 163.28 2.1
-2 1 10 159.98 2.2
2 -1 -10 124.39 2.2
2 -1 -10 164.98 2.1
-1 1 10 259.17 2.6
1 -1 -10 290.97 2.5
1 -1 -10 275.37 2.7
1 -1 -10 276.87 2.4
0 1 10 34.7 1.3
0 1 10 34.1 1.6
0 -1 -10 32.8 1.4
0 -1 -10 37.5 1.2
1 1 10 522.05 3
-1 -1 -10 513.35 3.5
1 1 10 518.95 3.2
-1 -1 -10 578.44 3.3
2 1 10 23.5 1.2
-2 -1 -10 25.7 1.3
-2 -1 -10 24 1.3
2 1 10 24.5 1.5
3 1 10 808.52 3.6
-3 -1 -10 701.43 3.8
-3 -1 -10 809.32 3.7
3 1 10 866.21 4
4 1 10 9.9 0.9
4 1 10 8.6 0.9
-4 -1 -10 9.5 0.9
-4 -1 -10 13.1 1.3
5 1 10 895.81 4
-5 -1 -10 867.41 3.9
-5 -1 -10 858.21 4.4
5 1 10 1045.2 4.5
6 1 10 12.2 1.3
6 1 10 9.8 1
-6 -1 -10 12.4 1
-6 -1 -10 10.4 1.3
-7 -1 -10 237.98 2.8
7 1 10 244.88 2.3
-7 -1 -10 243.48 2.3
-7 -1 -10 227.68 2.8
-8 -1 -10 9.1 1.4
8 1 10 10.6 1
-8 -1 -10 4.9 1.4
-8 -1 -10 8.6 1.4
9 1 10 205.78 2.5
-9 -1 -10 205.28 3.6
-9 -1 -10 206.68 2.6
-9 -1 -10 185.18 3.3
2 -2 -10 265.87 2.4
2 -2 -10 261.87 2.8
-2 2 10 255.07 2.8
2 -2 -10 268.17 2.4
1 -2 -10 162.58 1.9
1 -2 -10 145.29 2.2
-1 2 10 154.68 2
1 -2 -10 165.98 2.1
0 2 10 424.46 2.8
0 -2 -10 377.86 3.1
0 2 10 404.46 3
0 -2 -10 442.96 2.8
1 2 10 226.18 2.2
-1 -2 -10 209.88 2.5
-1 -2 -10 263.37 2.3
1 2 10 226.78 2.5
2 2 10 581.14 3
-2 -2 -10 624.74 3.4
-2 -2 -10 548.95 3.3
2 2 10 622.34 3.3
3 2 10 240.78 2.2
-3 -2 -10 223.18 2.1
-3 -2 -10 220.18 2.4
3 2 10 240.38 2.2
4 2 10 612.14 3.1
4 2 10 683.53 3.5
-4 -2 -10 575.84 3.1
-4 -2 -10 594.14 3.5
5 2 10 297.87 2.4
5 2 10 338.47 2.7
-5 -2 -10 282.37 2.5
-5 -2 -10 299.27 2.6
6 2 10 102.49 1.7
-6 -2 -10 94.49 1.6
-6 -2 -10 98.19 1.7
-7 -2 -10 291.17 2.8
7 2 10 282.77 2.7
-7 -2 -10 271.37 2.5
-7 -2 -10 284.77 2.8
-8 -2 -10 38.8 1.5
8 2 10 43.5 1.6
-8 -2 -10 30.2 1.6
-8 -2 -10 39.1 1.6
2 -3 -10 -92.49 2.7
2 -3 -10 323.17 3
2 -3 -10 344.27 3.1
-2 3 10 328.97 3.1
1 -3 -10 6.4 0.9
1 -3 -10 3.7 1
1 -3 -10 3.5 0.9
-1 3 10 0.6 1.4
0 3 10 633.84 3.2
0 -3 -10 594.24 3.6
0 -3 -10 582.24 3.6
0 3 10 653.53 3.6
1 3 10 -0.1 0.8
-1 -3 -10 -0.2 0.9
-1 -3 -10 6.2 1.3
1 3 10 -0.7 0.9
2 3 10 688.63 3.4
-2 -3 -10 765.02 3.5
-2 -3 -10 682.93 3.9
2 3 10 772.62 3.9
3 3 10 15.5 0.9
3 3 10 18.1 1
-3 -3 -10 15.2 1
-3 -3 -10 13.7 1
4 3 10 533.15 3
-4 -3 -10 537.75 3.2
-4 -3 -10 540.35 3.4
4 3 10 601.54 3.3
5 3 10 148.79 1.9
5 3 10 166.08 2.1
-5 -3 -10 142.49 1.8
-5 -3 -10 151.08 2
-6 -3 -10 238.28 2.3
6 3 10 225.88 2.2
-6 -3 -10 227.98 2.4
-6 -3 -10 261.77 2.6
-7 -3 -10 153.28 2.3
-7 -3 -10 145.59 2
7 3 10 114.79 2
-7 -3 -10 144.99 2.1
-8 -3 -10 258.97 2.9
-8 -3 -10 302.07 3.1
8 3 10 277.37 2.6
-8 -3 -10 261.97 2.5
2 -4 -10 -42.7 1.6
2 -4 -10 158.98 2.4
2 -4 -10 120.29 1.9
-2 4 10 153.08 2.5
1 -4 -10 150.18 1.9
1 -4 -10 163.88 1.9
1 -4 -10 143.29 2
-1 4 10 5.8 2.4
0 4 10 242.18 2.3
0 -4 -10 257.27 2.4
0 -4 -10 214.48 2.4
0 4 10 264.27 2.6
1 4 10 59.09 1.7
1 4 10 59.09 1.3
-1 -4 -10 68.69 1.6
-1 -4 -10 50.49 1.4
2 4 10 356.86 2.5
2 4 10 356.16 2.8
-2 -4 -10 361.56 2.6
-2 -4 -10 312.17 2.7
3 4 10 1.5 1
-3 -4 -10 1 0.9
-3 -4 -10 8.3 1.4
3 4 10 2.6 1.3
4 4 10 317.87 2.5
-4 -4 -10 303.67 2.4
4 4 10 391.66 2.8
-4 -4 -10 346.57 2.8
-5 -4 -10 19.8 1.4
5 4 10 19.5 1.4
5 4 10 15.5 1.2
-5 -4 -10 17.1 1.3
-6 -4 -10 402.96 3
-6 -4 -10 392.56 3
6 4 10 366.66 2.8
-6 -4 -10 391.36 2.8
-7 -4 -10 7 1.4
-7 -4 -10 3.9 1.2
7 4 10 4.2 0.9
-7 -4 -10 2.1 1.2
-8 -4 -10 -17.7 3.4
-8 -4 -10 366.76 3.4
8 4 10 314.37 3
-8 -4 -10 -1.3 3
1 -5 -10 196.08 2.3
1 -5 -10 170.28 2.3
1 -5 -10 171.88 2.5
-1 5 10 197.68 2.7
0 5 10 106.99 1.8
0 5 10 88.39 1.5
0 -5 -10 -11 1.6
0 -5 -10 -15.1 1.5
1 5 10 148.59 2
-1 -5 -10 196.78 2.2
1 5 10 183.78 2.1
-1 -5 -10 154.18 2.2
2 5 10 127.99 1.7
-2 -5 -10 136.39 1.9
2 5 10 137.89 1.9
-2 -5 -10 116.89 1.9
3 5 10 180.28 1.9
-3 -5 -10 188.58 1.9
3 5 10 198.58 2.4
-3 -5 -10 183.88 2.3
4 5 10 351.06 2.6
-4 -5 -10 341.67 2.6
4 5 10 422.56 3
-4 -5 -10 372.96 2.9
-5 -5 -10 133.79 1.9
-5 -5 -10 124.59 1.8
5 5 10 116.19 1.6
-5 -5 -10 109.99 1.6
-6 -5 -10 437.66 3.2
-6 -5 -10 445.96 3.4
6 5 10 390.66 2.9
-6 -5 -10 401.96 2.8
-7 -5 -10 40.6 1.5
7 5 10 47.4 1.6
-7 -5 -10 43.6 1.5
-7 -5 -10 46 1.4
1 -6 -10 196.08 2.3
1 -6 -10 176.48 2.4
-1 6 10 190.88 2.5
1 -6 -10 176.58 2.5
0 6 10 15.4 1.3
0 -6 -10 19.8 1.1
0 6 10 -1.3 1.4
0 -6 -10 15.2 1.1
1 6 10 136.59 1.9
-1 -6 -10 133.29 1.8
-1 -6 -10 118.49 2
1 6 10 139.79 2
2 6 10 2.3 0.8
-2 -6 -10 0.6 0.8
2 6 10 4.8 1.2
-2 -6 -10 0.6 1.2
3 6 10 376.26 2.7
3 6 10 417.96 3.1
-3 -6 -10 360.66 2.6
-3 -6 -10 -46.4 3.1
-4 -6 -10 92.29 1.9
4 6 10 77.09 1.5
-4 -6 -10 77.59 1.4
-5 -6 -10 265.17 2.7
-5 -6 -10 330.67 2.9
5 6 10 274.37 2.6
-5 -6 -10 304.47 2.5
-6 -6 -10 45.4 1.7
6 6 10 37.5 1.3
-6 -6 -10 43.5 1.4
-6 -6 -10 40.2 1.5
-7 -6 -10 157.88 2.2
7 6 10 142.39 2
-7 -6 -10 111.49 2.5
-7 -6 -10 144.69 2.2
1 7 10 123.49 2
-1 -7 -10 121.39 1.8
1 7 10 134.49 2.3
-1 -7 -10 108.49 1.9
2 7 10 56.79 1.4
-2 -7 -10 56.39 1.7
2 7 10 51.49 1.5
-2 -7 -10 47.8 1.4
-3 -7 -10 281.77 2.8
3 7 10 273.87 2.5
-3 -7 -10 86.49 2.7
-4 -7 -10 1.3 1.3
-4 -7 -10 8.4 1.5
4 7 10 6.3 0.9
-4 -7 -10 -0.6 1
-5 -7 -10 129.39 1.9
5 7 10 -19.7 1.7
-5 -7 -10 -12.5 2.1
-5 -7 -10 137.09 2
-1 4 -11 220.58 4.4
1 -4 11 210.68 2.5
-1 4 -11 190.98 2.6
-1 4 -11 241.08 4.2
-2 4 -11 5.3 2
-2 4 -11 14.6 1.4
2 -4 11 9.5 1.5
3 -4 11 469.35 4.5
-3 4 -11 445.86 5.3
-3 4 -11 399.66 4
3 -4 11 427.56 3.6
4 -4 11 -0.2 1.2
4 -4 11 0.2 1.2
-4 4 -11 1 1.6
-4 4 -11 1.8 1.5
5 -4 11 340.27 3.6
5 -4 11 352.36 4
-5 4 -11 367.46 4.7
-5 4 -11 391.06 4.4
0 3 -11 186.28 3.4
0 -3 11 160.88 2.4
0 3 -11 180.28 2.5
0 3 -11 154.48 3.3
-1 3 -11 273.77 3.6
-1 3 -11 253.57 3.7
-1 3 -11 229.28 2.8
1 -3 11 210.18 2.8
2 -3 11 363.26 3.6
-2 3 -11 344.07 4
-2 3 -11 351.66 3.5
2 -3 11 346.27 3.2
3 -3 11 439.06 3.6
-3 3 -11 441.06 4.1
-3 3 -11 442.96 3.9
3 -3 11 436.36 3.6
4 -3 11 172.48 2.5
4 -3 11 153.38 2.3
-4 3 -11 177.68 2.7
-4 3 -11 167.38 2.9
5 -3 11 266.77 2.8
5 -3 11 293.27 3.3
-5 3 -11 137.29 3.3
-5 3 -11 266.87 3.9
6 -3 11 27.9 1.5
6 -3 11 27.9 1.7
-6 3 -11 25.7 1.5
-6 3 -11 30.8 2.2
7 -3 11 218.88 2.6
-7 3 -11 244.58 3
-7 3 -11 210.98 5
0 2 -11 311.27 3.3
0 2 -11 300.47 3.2
0 -2 11 295.87 3
0 2 -11 316.87 3.1
1 -2 11 -0.3 0.9
-1 2 -11 2.6 1.3
1 -2 11 1.2 1
-1 2 -11 2.2 1.6
2 -2 11 726.63 4.4
-2 2 -11 757.52 4.8
-2 2 -11 743.13 4.4
2 -2 11 724.13 4.1
3 -2 11 55.89 1.4
3 -2 11 50.29 1.5
-3 2 -11 52.19 1.5
-3 2 -11 48.5 1.6
4 -2 11 279.57 2.6
4 -2 11 289.77 2.9
-4 2 -11 285.67 3.1
-4 2 -11 301.57 3.4
5 -2 11 112.89 1.7
-5 2 -11 128.49 2
5 -2 11 119.09 2.1
-5 2 -11 122.09 2.5
6 -2 11 256.77 2.7
6 -2 11 222.18 3.4
-6 2 -11 282.57 3.1
-6 2 -11 296.97 3.9
7 -2 11 214.88 2.6
-7 2 -11 216.68 2.6
-7 2 -11 243.68 4.4
1 1 -11 77.39 1.8
-1 -1 11 63.09 1.9
1 1 -11 66.79 1.7
1 1 -11 59.29 1.7
0 1 -11 390.16 3.3
0 1 -11 386.96 3.3
0 -1 11 303.37 2.9
0 1 -11 345.67 3.1
1 -1 11 86.79 1.8
-1 1 -11 98.89 2
1 -1 11 86.99 1.7
-1 1 -11 91.59 2
-2 1 -11 379.66 3.2
2 -1 11 386.96 2.9
2 -1 11 403.96 3
-2 1 -11 408.36 3.2
-3 1 -11 22 1.2
3 -1 11 24.3 1.2
3 -1 11 24.7 1.4
-3 1 -11 23.3 1.4
-4 1 -11 242.38 2.7
4 -1 11 240.88 2.3
-4 1 -11 227.38 2.4
4 -1 11 254.27 2.4
-5 1 -11 8.9 1.2
5 -1 11 10.5 0.9
-5 1 -11 8.1 1
5 -1 11 7.9 1.1
-6 1 -11 481.95 4.6
6 -1 11 446.66 3.2
-6 1 -11 540.45 3.7
6 -1 11 524.95 4.1
-7 1 -11 98.39 2.7
7 -1 11 89.49 1.9
-7 1 -11 87.59 1.9
-8 1 -11 295.27 5.1
-8 1 -11 272.77 4.4
8 -1 11 292.07 2.9
-8 1 -11 291.57 3
1 0 -11 -53.29 2.5
1 0 -11 207.48 2.6
1 0 -11 192.78 2.6
-1 0 11 169.88 2.7
0 0 -11 161.28 2.2
0 0 11 152.98 2.2
0 0 -11 159.88 2.3
0 0 -11 173.38 2.3
-1 0 -11 114.89 2.1
1 0 11 110.79 1.6
1 0 11 111.79 1.9
-1 0 -11 112.59 1.7
-2 0 -11 291.07 2.8
2 0 11 306.97 2.5
2 0 11 323.97 2.8
-2 0 -11 327.17 2.7
-3 0 -11 74.19 1.8
3 0 11 86.59 1.5
3 0 11 75.99 1.5
-3 0 -11 83.29 1.8
4 0 11 468.35 3
-4 0 -11 465.65 3.6
-4 0 -11 453.35 3.1
4 0 11 523.05 3.4
5 0 11 98.89 1.7
5 0 11 86.89 1.7
-5 0 -11 81.89 1.8
-5 0 -11 89.49 1.6
6 0 11 563.34 3.8
6 0 11 447.66 3.3
-6 0 -11 482.75 4
-6 0 -11 512.45 3.4
7 0 11 16.3 1.4
-7 0 -11 11.8 1.5
-7 0 -11 15.2 1.2
-8 0 -11 348.27 4.1
8 0 11 329.97 3.1
-8 0 -11 332.77 4.2
-8 0 -11 -78.39 2.5
1 -1 -11 195.98 2.5
1 -1 -11 210.58 2.4
-1 1 11 187.68 2.4
1 -1 -11 136.09 2.5
0 -1 -11 11 1.4
0 1 11 14 1.1
0 -1 -11 9.6 1.1
1 1 11 322.27 2.6
-1 -1 -11 323.27 3
1 1 11 318.47 2.6
-1 -1 -11 350.76 2.7
2 1 11 123.39 1.7
-2 -1 -11 113.99 2.1
-2 -1 -11 140.09 1.9
2 1 11 126.59 2
3 1 11 457.35 2.9
-3 -1 -11 421.86 3.1
-3 -1 -11 528.75 3.3
3 1 11 537.05 3.3
4 1 11 349.67 2.7
4 1 11 310.67 2.4
-4 -1 -11 315.67 2.9
-4 -1 -11 306.67 2.5
5 1 11 223.28 2.3
-5 -1 -11 230.28 2.5
-5 -1 -11 246.88 2.3
5 1 11 284.47 2.5
6 1 11 6.7 2.8
6 1 11 196.28 2.2
-6 -1 -11 180.08 2.7
-6 -1 -11 191.98 2.1
-7 -1 -11 234.38 2.8
7 1 11 -29 2.3
-7 -1 -11 234.08 2.9
-7 -1 -11 259.47 2.6
-8 -1 -11 140.99 2.8
8 1 11 162.58 2.1
-8 -1 -11 159.08 2.9
-8 -1 -11 151.18 2.3
1 -2 -11 184.98 2.2
1 -2 -11 178.98 2.6
-1 2 11 177.58 2.6
1 -2 -11 184.68 2.2
0 2 11 47.5 1.3
0 -2 -11 47.9 1.6
0 -2 -11 -3 1.4
0 2 11 44.8 1.5
1 2 11 453.65 2.9
-1 -2 -11 321.47 3.4
-1 -2 -11 489.15 3.2
1 2 11 427.96 3.3
2 2 11 15.6 1
-2 -2 -11 10.2 1.1
-2 -2 -11 13.5 1
2 2 11 14.1 1.3
3 2 11 529.65 3.1
-3 -2 -11 503.25 3.3
-3 -2 -11 564.74 3.3
3 2 11 584.54 3.4
4 2 11 7.3 0.9
4 2 11 11.2 1.2
-4 -2 -11 12.2 1
-4 -2 -11 7.1 1.1
5 2 11 384.16 2.8
5 2 11 342.27 2.6
-5 -2 -11 309.67 2.5
-5 -2 -11 360.16 3
6 2 11 18.1 1.4
6 2 11 13.6 1.3
-6 -2 -11 12.4 1.1
-6 -2 -11 16.3 1.4
-7 -2 -11 209.88 2.4
7 2 11 208.68 2.4
-7 -2 -11 217.98 2.3
-7 -2 -11 224.48 2.7
-8 -2 -11 125.99 2.5
8 2 11 123.39 2
-8 -2 -11 115.69 2
-8 -2 -11 117.69 2.4
1 -3 -11 112.89 2
1 -3 -11 96.59 2
1 -3 -11 123.99 1.8
-1 3 11 106.09 2.3
0 3 11 250.47 2.6
0 -3 -11 238.38 2.8
0 -3 -11 302.07 2.6
0 3 11 273.27 2.7
1 3 11 313.27 2.5
-1 -3 -11 344.47 2.5
-1 -3 -11 285.67 2.9
1 3 11 326.17 2.8
2 3 11 184.78 2
-2 -3 -11 206.98 2.2
-2 -3 -11 152.88 2.1
2 3 11 173.58 2.4
3 3 11 387.16 2.7
3 3 11 477.15 3.1
-3 -3 -11 418.06 2.9
-3 -3 -11 392.16 3.1
4 3 11 42.4 1.3
-4 -3 -11 45 1.5
-4 -3 -11 44.9 1.5
4 3 11 54.59 1.6
5 3 11 328.47 2.5
-5 -3 -11 372.06 2.8
-5 -3 -11 353.96 2.9
5 3 11 401.96 3
6 3 11 0.7 1.2
-6 -3 -11 0.9 1.2
-6 -3 -11 0.7 1.3
-7 -3 -11 279.67 2.9
7 3 11 245.48 2.7
-7 -3 -11 238.28 2.5
-7 -3 -11 278.77 3
-8 -3 -11 52.39 1.7
8 3 11 41.3 1.7
-8 -3 -11 1.3 1.7
-8 -3 -11 30.2 1.6
0 4 11 -1 2.4
0 -4 -11 281.97 2.5
0 -4 -11 243.18 2.7
0 4 11 255.67 2.6
1 4 11 50.29 1.4
-1 -4 -11 51.99 1.5
-1 -4 -11 43.2 1.6
1 4 11 43.5 1.3
2 4 11 148.59 2
2 4 11 160.88 2.2
-2 -4 -11 151.08 1.9
-2 -4 -11 138.19 1.9
3 4 11 107.29 1.6
-3 -4 -11 115.69 1.8
3 4 11 122.79 1.7
-3 -4 -11 111.29 1.9
4 4 11 110.19 1.8
4 4 11 125.59 1.9
-4 -4 -11 105.49 1.7
-4 -4 -11 116.29 1.8
5 4 11 146.29 2
-5 -4 -11 140.99 2
5 4 11 177.28 2.1
-5 -4 -11 168.78 2.3
-6 -4 -11 104.99 1.8
6 4 11 99.09 1.7
-6 -4 -11 104.39 1.8
-6 -4 -11 -30.5 1.6
-7 -4 -11 264.27 2.8
-7 -4 -11 256.97 2.7
7 4 11 208.38 2.5
-7 -4 -11 243.78 2.5
0 5 11 166.48 2.4
0 -5 -11 190.18 2.3
0 -5 -11 144.19 2.2
1 5 11 0.9 1.2
-1 -5 -11 3 1.2
1 5 11 4 1.4
-1 -5 -11 1.9 1
2 5 11 297.57 2.5
-2 -5 -11 306.47 2.5
-2 -5 -11 242.68 2.5
2 5 11 292.67 2.7
3 5 11 1.1 0.9
3 5 11 2 0.9
-3 -5 -11 0.5 0.8
-3 -5 -11 -0.7 1.2
4 5 11 370.36 2.9
4 5 11 342.87 2.7
-4 -5 -11 278.77 2.7
-4 -5 -11 349.37 3
5 5 11 7.5 1
-5 -5 -11 9.4 1.2
-5 -5 -11 -3.7 1.1
-6 -5 -11 335.57 3.1
-6 -5 -11 24.2 3
6 5 11 274.57 2.7
-6 -5 -11 271.97 2.5
1 6 11 91.99 1.7
-1 -6 -11 107.69 2
-1 -6 -11 78.59 1.7
1 6 11 11.1 2.2
2 6 11 375.26 3
2 6 11 368.26 3.1
-2 -6 -11 364.66 2.9
-2 -6 -11 322.97 3.1
3 6 11 7.1 1.9
3 6 11 76.89 1.5
-3 -6 -11 0.7 1.6
-3 -6 -11 60.79 1.7
4 6 11 300.77 2.6
4 6 11 355.96 3.1
-4 -6 -11 237.28 2.7
-4 -6 -11 305.37 2.9
-5 -6 -11 15.8 1
-5 -6 -11 15.7 1
5 6 11 -3.6 1.2
-5 -6 -11 16 1.1
4 -3 12 21.5 1.3
4 -3 12 27.5 1.5
-4 3 -12 22.5 1.6
-4 3 -12 22.2 1.8
2 -2 12 21.9 1.5
2 -2 12 23.7 1.4
-2 2 -12 25 1.6
-2 2 -12 25.6 1.6
3 -2 12 265.97 2.9
3 -2 12 284.57 2.8
-3 2 -12 289.77 3.2
-3 2 -12 280.97 3.1
4 -2 12 20.7 1.3
4 -2 12 1.7 1.1
-4 2 -12 19 1.2
-4 2 -12 19 1.6
5 -2 12 171.38 2.4
-5 2 -12 1.5 2.7
5 -2 12 193.18 2.7
-5 2 -12 176.78 2.9
6 -2 12 4.2 1
6 -2 12 -0.9 1.1
-6 2 -12 3.1 1.1
-6 2 -12 0.4 1.6
1 -1 12 69.29 2
-1 1 -12 67.19 1.8
-1 1 -12 -4.6 1.9
2 -1 12 206.78 2.5
2 -1 12 204.98 2.4
-2 1 -12 223.38 2.8
-2 1 -12 214.68 2.6
-3 1 -12 61.89 2
3 -1 12 57.79 1.4
3 -1 12 66.19 1.7
-3 1 -12 57.79 1.6
-4 1 -12 177.08 2.7
4 -1 12 164.38 2.3
-4 1 -12 161.78 2.4
4 -1 12 176.78 2.4
-5 1 -12 217.08 2.9
5 -1 12 207.18 2.3
-5 1 -12 223.68 2.8
5 -1 12 247.48 2.7
-6 1 -12 69.99 2.2
6 -1 12 63.69 1.5
-6 1 -12 47 1.9
6 -1 12 71.19 1.8
-1 0 -12 0.2 1.1
1 0 12 0.2 1.2
1 0 12 1.3 1.3
-1 0 -12 -0.5 1.3
-2 0 -12 245.28 2.9
2 0 12 248.58 2.6
2 0 12 253.47 2.7
-2 0 -12 283.87 2.9
-3 0 -12 5.7 1.1
3 0 12 2.7 0.9
-3 0 -12 1.2 1.4
3 0 12 2.3 0.9
-4 0 -12 420.46 3.8
4 0 12 389.06 3
-4 0 -12 395.06 3.2
4 0 12 413.66 3.3
5 0 12 92.29 1.8
-5 0 -12 74.79 1.9
5 0 12 80.49 1.7
-5 0 -12 81.69 1.8
-6 0 -12 -35.5 3.6
6 0 12 318.47 2.8
-6 0 -12 309.47 2.9
6 0 12 340.17 3.2
7 0 12 108.99 2.2
-7 0 -12 87.29 2.3
7 0 12 78.19 1.7
-7 0 -12 95.69 1.8
1 1 12 54.99 1.4
-1 -1 -12 58.69 1.7
1 1 12 46.2 1.6
-1 -1 -12 63.89 1.5
2 1 12 342.47 2.9
-2 -1 -12 320.07 3.1
-2 -1 -12 354.16 3
2 1 12 353.16 3
3 1 12 26.2 1.3
-3 -1 -12 23.5 1.5
-3 -1 -12 27.6 1.4
3 1 12 28.6 1.2
4 1 12 453.05 3.2
4 1 12 426.66 3
-4 -1 -12 408.96 3.4
-4 -1 -12 427.26 3.1
5 1 12 23.4 1.1
-5 -1 -12 26.1 1.6
-5 -1 -12 28.1 1.3
5 1 12 -6.1 1.3
6 1 12 304.97 2.9
-6 -1 -12 268.77 3.4
-6 -1 -12 318.57 2.9
6 1 12 337.17 3.3
7 1 12 1.4 1.4
-7 -1 -12 1.2 1.4
-7 -1 -12 0.6 1.4
1 2 12 246.38 2.4
-1 -2 -12 236.88 2.8
-1 -2 -12 262.27 2.7
1 2 12 250.67 2.6
2 2 12 106.19 1.8
-2 -2 -12 86.69 1.7
-2 -2 -12 119.09 2
2 2 12 101.19 1.7
3 2 12 210.38 2.2
-3 -2 -12 201.38 2.5
-3 -2 -12 237.08 2.5
3 2 12 236.78 2.7
4 2 12 107.09 1.9
4 2 12 122.59 1.8
-4 -2 -12 99.59 2.1
-4 -2 -12 109.19 1.8
5 2 12 119.69 1.8
-5 -2 -12 19 2.2
-5 -2 -12 115.79 2
5 2 12 132.79 2.1
6 2 12 177.78 2.1
6 2 12 212.28 2.6
-6 -2 -12 169.98 2.1
-6 -2 -12 194.08 2.6
-7 -2 -12 52.19 1.4
7 2 12 37.8 1.2
-7 -2 -12 38 1.5
-7 -2 -12 40 1.5
1 3 12 250.37 2.4
-1 -3 -12 220.28 2.7
-1 -3 -12 277.77 2.7
1 3 12 230.48 2.5
2 3 12 0.9 1.2
-2 -3 -12 -0.1 1
-2 -3 -12 5.1 0.9
2 3 12 1.1 1.3
3 3 12 252.67 2.5
3 3 12 275.47 2.6
-3 -3 -12 281.47 2.7
-3 -3 -12 224.78 2.5
4 3 12 42.3 1.2
-4 -3 -12 41.6 1.2
-4 -3 -12 48.4 1.8
4 3 12 54.39 1.7
5 3 12 141.09 1.9
5 3 12 161.28 2.2
-5 -3 -12 136.69 2
-5 -3 -12 115.69 2.1
6 3 12 51.49 1.4
-6 -3 -12 43.8 1.5
-6 -3 -12 53.19 1.5
6 3 12 70.69 1.7
2 4 12 5.6 1.1
2 4 12 2.9 1
-2 -4 -12 1.3 1.1
-2 -4 -12 2.4 1
3 4 12 204.78 2.2
-3 -4 -12 236.18 2.4
-3 -4 -12 173.58 2.3
3 4 12 110.39 2.4
4 4 12 6.8 1.3
4 4 12 6.5 1.2
-4 -4 -12 6.6 1.2
-4 -4 -12 1.7 1.1
5 4 12 268.87 2.6
5 4 12 343.87 3
-5 -4 -12 265.67 2.6
-5 -4 -12 291.97 2.9
6 4 12 0.9 0.9
-6 -4 -12 0.2 0.9
-6 -4 -12 1.5 1.3
3 5 12 113.89 1.9
3 5 12 93.89 1.7
-3 -5 -12 120.79 1.9
-3 -5 -12 101.59 2.1
4 5 12 97.59 1.7
-4 -5 -12 72.59 1.9
-4 -5 -12 94.29 1.9
4 5 12 -29.8 1.7
-1 0 0 617.84 7.6
1 0 0 621.14 9
1 0 0 630.84 7.4
-1 0 0 608.74 9.1
-2 0 0 6083.59 19.6
2 0 0 6091.59 16.3
-2 0 0 6522.55 16.5
2 0 0 5649.73 18
3 0 0 173.68 2.8
3 0 0 162.28 2.7
-3 0 0 162.98 2.5
-3 0 0 165.98 3.1
4 0 0 2441.66 7.5
4 0 0 2401.86 8.7
-4 0 0 2605.84 9.4
-4 0 0 2596.24 7.8
5 0 0 713.53 4
-5 0 0 747.33 4.7
5 0 0 722.83 4.6
-5 0 0 777.82 3.9
-6 0 0 645.84 4.3
-6 0 0 616.34 3.4
6 0 0 567.54 3.4
6 0 0 623.64 4
7 0 0 570.54 3.9
-7 0 0 636.64 3.5
-7 0 0 616.64 4.3
7 0 0 578.64 3.4
8 0 0 148.99 2
-8 0 0 171.18 2.3
8 0 0 156.78 2.3
-8 0 0 154.48 2.5
9 0 0 223.98 2.4
9 0 0 253.07 3
-9 0 0 254.17 3.1
-9 0 0 160.38 2.6
-9 1 0 250.47 3.4
9 -1 0 239.08 3.2
9 -1 0 231.48 2.6
-9 1 0 269.17 2.6
8 -1 0 4.5 1.3
8 -1 0 0.9 1.3
-8 1 0 5.3 1.1
-8 1 0 -1.5 1.4
-7 1 0 811.42 5
7 -1 0 795.52 4.7
-7 1 0 851.61 4
7 -1 0 785.92 4
6 -1 0 466.45 2.9
-6 1 0 513.05 3.2
6 -1 0 476.85 3.8
-6 1 0 459.55 3.9
-5 1 0 1182.08 4.7
5 -1 0 1141.49 4.7
5 -1 0 1106.99 5.8
-5 1 0 1055.09 6
-4 1 0 1605.74 6
-4 1 0 1358.76 7.4
4 -1 0 1460.85 5.7
4 -1 0 1487.15 7.4
-3 1 0 1274.77 6
-3 1 0 1106.89 7.6
3 -1 0 1195.58 5.7
3 -1 0 1184.98 7.7
2 -1 0 3510.75 16
2 -1 0 3406.76 10.9
-2 1 0 3673.13 11.5
-2 1 0 3351.06 15.7
1 -1 0 2656.93 11.9
-1 1 0 2678.33 16.6
-1 1 0 2825.62 12.4
1 -1 0 2900.91 17.3
0 1 0 3981.5 21.9
0 1 0 3392.56 18.8
0 -1 0 3865.51 21.8
0 -1 0 3351.26 18.6
-1 -1 0 98.19 3.6
-1 -1 0 106.19 3.3
1 1 0 111.09 3.4
1 1 0 97.09 3.3
-2 -1 0 1407.56 7.9
2 1 0 1416.46 8.1
2 1 0 1386.66 8.2
-2 -1 0 1418.46 8.4
-3 -1 0 140.49 2.5
3 1 0 120.39 2.3
-3 -1 0 130.59 2.4
3 1 0 134.49 2.8
-4 -1 0 3198.28 9.5
4 1 0 3289.87 9.2
-4 -1 0 3167.78 8.6
4 1 0 2984.2 8.8
5 1 0 85.09 1.9
5 1 0 91.09 1.7
-5 -1 0 89.19 1.6
-5 -1 0 94.39 2.2
-6 -1 0 1199.18 4.7
6 1 0 1101.79 5.1
6 1 0 1145.79 4.8
-6 -1 0 1152.48 5.4
7 1 0 41.1 1.3
-7 -1 0 -0.2 1.4
-7 -1 0 39.1 1.7
7 1 0 38.3 1.6
8 1 0 530.95 3.7
8 1 0 549.74 3.7
-8 -1 0 623.24 4.2
-8 -1 0 -12.1 4.1
-9 -1 0 33.6 1.5
9 1 0 29.4 1.4
-9 -1 0 31.9 1.6
9 1 0 29.4 1.4
-9 2 0 243.88 3.7
9 -2 0 212.38 2.7
9 -2 0 232.88 3.5
-9 2 0 244.48 2.8
8 -2 0 15.2 1.4
-8 2 0 15.3 1.4
8 -2 0 13.9 1.1
-8 2 0 15.7 1.5
7 -2 0 881.11 5.4
-7 2 0 923.11 4.2
-7 2 0 858.71 5.4
7 -2 0 872.11 4.1
-6 2 0 1.3 1.3
-6 2 0 -0.1 0.9
6 -2 0 12.2 1.3
6 -2 0 0.9 1.4
-5 2 0 1918.61 8.3
-5 2 0 2213.48 6.3
5 -2 0 2126.39 6.3
5 -2 0 2185.18 8.6
-4 2 0 28.2 1.7
4 -2 0 34.6 1.9
4 -2 0 33 1.2
-4 2 0 59.19 1.7
-3 2 0 3162.58 12
3 -2 0 3054.79 12.3
-3 2 0 3422.86 8.8
3 -2 0 3370.56 8.9
2 -2 0 93.49 2.7
2 -2 0 89.79 1.9
-2 2 0 88.79 2.6
-2 2 0 93.19 2.1
1 -2 0 2747.33 12.2
-1 2 0 2797.82 10.7
-1 2 0 2911.61 13.1
1 -2 0 2770.62 10.6
0 2 0 41.5 2.2
0 2 0 43.7 2.1
0 -2 0 60.29 2.2
0 -2 0 43.8 2.1
-1 -2 0 1713.83 8.6
1 2 0 1680.63 8.5
1 2 0 1605.14 9.8
-1 -2 0 1556.24 10.3
2 2 0 1638.54 7.5
2 2 0 1402.96 8.2
-2 -2 0 1607.54 9
-2 -2 0 1601.44 7.4
3 2 0 983.4 6
-3 -2 0 1065.79 5.5
-3 -2 0 1082.09 6.1
3 2 0 1043.7 5.6
4 2 0 1929.01 6.8
-4 -2 0 2042.1 7
-4 -2 0 1957.7 7.1
4 2 0 2013.8 7.2
5 2 0 384.36 3.1
-5 -2 0 424.46 3.3
5 2 0 415.56 3.4
-5 -2 0 433.26 3.4
-6 -2 0 1581.44 6
-6 -2 0 1517.55 5.6
6 2 0 1315.17 5.3
6 2 0 1409.36 5.6
-7 -2 0 260.87 2.6
7 2 0 237.58 2.7
7 2 0 212.88 2.3
-7 -2 0 262.37 2.8
-8 -2 0 661.43 4.2
8 2 0 563.14 3.8
-8 -2 0 609.74 3.7
8 2 0 546.85 3.7
9 2 0 38.4 1.6
-9 -2 0 39.5 1.4
9 2 0 37.1 1.7
-9 -2 0 42.7 1.9
-9 3 0 201.48 3.6
9 -3 0 -26.3 2.3
9 -3 0 175.88 3.6
-9 3 0 97.59 2.5
-8 3 0 290.87 2.6
8 -3 0 254.47 2.6
8 -3 0 276.67 3.9
-8 3 0 270.47 3.7
-7 3 0 301.07 3.6
-7 3 0 350.46 2.7
7 -3 0 285.07 2.5
7 -3 0 292.27 3.6
6 -3 0 1045.5 6.3
-6 3 0 1004.6 5.9
6 -3 0 1006.9 4.3
-6 3 0 1146.39 4.6
5 -3 0 1129.39 4.5
-5 3 0 1115.99 6.2
-5 3 0 1189.18 4.6
5 -3 0 1213.58 6.7
-4 3 0 361.26 2.8
-4 3 0 325.87 3.8
4 -3 0 340.47 4.1
4 -3 0 325.47 2.6
3 -3 0 1857.81 6.2
-3 3 0 1936.21 8.8
-3 3 0 2027 6.5
3 -3 0 1886.81 8.6
2 -3 0 73.59 1.7
-2 3 0 79.39 2.3
2 -3 0 77.19 2
-2 3 0 74.79 1.7
1 -3 0 2778.52 9.6
1 -3 0 2509.15 10.4
1 -3 0 2887.51 10
1 -3 0 2765.32 10
0 3 0 272.37 3.2
0 -3 0 275.27 3.4
0 -3 0 250.07 3.4
0 3 0 263.27 3.6
-1 -3 0 3908.01 13.7
1 3 0 3790.82 12.9
-1 -3 0 4100.29 11.2
1 3 0 3927.11 11
2 3 0 511.75 3.8
2 3 0 468.15 4.3
-2 -3 0 509.05 3.9
-2 -3 0 476.25 4.7
3 3 0 2822.62 9.6
3 3 0 2916.11 8.4
-3 -3 0 3016 10.3
-3 -3 0 3011 8.6
-4 -3 0 546.55 3.6
-4 -3 0 553.84 4.2
4 3 0 493.65 3.9
4 3 0 515.95 3.6
-5 -3 0 2247.18 7.2
5 3 0 2230.18 6.6
5 3 0 2105.89 7.1
-5 -3 0 2449.45 7
6 3 0 529.65 3.4
6 3 0 529.75 3.7
-6 -3 0 596.44 3.7
-6 -3 0 607.44 3.7
-7 -3 0 517.05 3.6
-7 -3 0 530.25 3.6
7 3 0 486.45 3.6
7 3 0 452.45 3.4
-8 -3 0 -93.89 2.6
8 3 0 297.57 2.8
-8 -3 0 314.27 2.9
8 3 0 296.47 3
-9 -3 0 47.8 1.7
9 3 0 41.4 1.7
9 3 0 43.4 1.5
-9 -3 0 51.89 1.7
-8 4 0 -76.19 3.2
-8 4 0 490.95 4.9
8 -4 0 424.06 3.2
8 -4 0 479.45 5.1
7 -4 0 13.8 1.9
-7 4 0 -1.2 1.5
7 -4 0 11.1 1.2
-7 4 0 14.8 1.7
6 -4 0 837.62 6
-6 4 0 822.42 3.9
-6 4 0 862.91 5.7
6 -4 0 752.52 3.7
5 -4 0 358.56 4
5 -4 0 363.16 2.7
-5 4 0 394.16 2.8
-5 4 0 421.26 4
-4 4 0 589.04 4.7
-4 4 0 585.14 3.3
4 -4 0 558.64 3.4
4 -4 0 537.65 4.5
3 -4 0 586.44 4.4
-3 4 0 630.34 3.6
-3 4 0 659.93 5
3 -4 0 594.04 3.6
2 -4 0 936.21 5.7
2 -4 0 1009.6 5
2 -4 0 1094.89 5.7
1 -4 0 1724.43 6.9
1 -4 0 1606.44 7.4
1 -4 0 1821.52 7.1
1 -4 0 1843.82 7.2
0 4 0 578.24 4.6
0 -4 0 557.14 4.2
0 -4 0 557.74 4.4
0 4 0 533.75 3.9
1 4 0 2744.73 10
-1 -4 0 2949.8 10.6
1 4 0 2811.82 8.4
-1 -4 0 2889.91 8.6
-2 -4 0 57.69 1.8
-2 -4 0 52.89 2.1
2 4 0 52.79 1.9
2 4 0 56.39 1.8
-3 -4 0 2513.45 9.4
3 4 0 2276.57 8.2
-3 -4 0 2363.86 7.1
3 4 0 2270.77 7
-4 -4 0 45.8 1.9
-4 -4 0 44.4 1.3
4 4 0 46.3 1.5
4 4 0 42.8 1.7
5 4 0 1179.78 4.9
5 4 0 1326.57 5.8
-5 -4 0 1340.37 6.1
-5 -4 0 1288.47 5.3
6 4 0 4.4 1
-6 -4 0 2.5 1.3
6 4 0 1.9 1.3
-6 -4 0 2.3 1.1
-7 -4 0 375.76 3.2
-7 -4 0 357.86 3.1
7 4 0 329.47 3
7 4 0 356.86 3.2
8 4 0 84.69 1.9
-8 -4 0 88.79 2.1
-8 -4 0 90.69 1.9
8 4 0 82.89 1.8
-8 5 0 224.48 4
8 -5 0 204.38 4
8 -5 0 178.38 2.3
-8 5 0 217.18 2.4
7 -5 0 6.4 1
-7 5 0 4.2 1.4
-7 5 0 5.2 1.8
7 -5 0 0.7 1.9
-6 5 0 783.02 3.9
6 -5 0 678.83 3.6
-6 5 0 745.03 5.8
6 -5 0 719.43 6.1
5 -5 0 158.28 2.9
-5 5 0 178.28 2.8
-5 5 0 174.18 2.2
5 -5 0 164.48 2.1
4 -5 0 1172.48 6.2
-4 5 0 1278.27 4.7
4 -5 0 1209.08 4.6
3 -5 0 159.68 2.2
3 -5 0 154.78 2.4
3 -5 0 138.59 2.4
2 -5 0 2420.46 7.3
2 -5 0 2445.26 7.8
2 -5 0 2285.67 6.9
2 -5 0 2090.39 7.8
1 -5 0 710.73 4.4
1 -5 0 666.13 4.3
1 -5 0 692.33 4.2
1 -5 0 619.04 4
0 -5 0 2225.88 7.5
0 -5 0 2239.28 7.8
0 5 0 2116.99 6.9
1 5 0 983.1 5.7
-1 -5 0 1002.7 4.7
-1 -5 0 1022.8 5.9
1 5 0 968.9 4.6
-2 -5 0 533.55 3.5
-2 -5 0 503.15 4.6
2 5 0 525.75 4.1
2 5 0 519.45 3.4
-3 -5 0 481.95 3.1
3 5 0 478.95 3.8
-3 -5 0 482.45 4.4
3 5 0 460.25 3.1
4 5 0 283.27 3
-4 -5 0 283.27 2.6
4 5 0 281.47 2.5
-4 -5 0 302.37 3.4
-5 -5 0 333.37 3.4
-5 -5 0 328.87 2.8
5 5 0 298.07 2.6
5 5 0 319.27 3.2
6 5 0 7.9 1.4
6 5 0 8.3 1.1
-6 -5 0 13.9 1.4
-6 -5 0 10.9 1.5
7 5 0 382.66 3
-7 -5 0 458.95 3.5
7 5 0 438.16 3.7
-7 -5 0 416.96 3.6
8 5 0 0.2 1.1
-8 -5 0 0.1 1.7
-8 -5 0 1.7 1.4
8 5 0 1.4 1.3
-7 6 0 141.79 2
7 -6 0 138.19 2.1
7 -6 0 142.69 3.5
6 -6 0 680.93 5.5
6 -6 0 777.92 6.5
-6 6 0 852.41 4.3
6 -6 0 776.62 4.1
5 -6 0 74.89 2.2
5 -6 0 82.19 2.5
5 -6 0 78.19 1.5
4 -6 0 1094.89 6
4 -6 0 1183.98 4.7
4 -6 0 1129.09 4.5
4 -6 0 1271.67 6.1
3 -6 0 97.29 1.8
3 -6 0 95.89 1.9
3 -6 0 83.29 1.9
3 -6 0 102.29 1.8
2 -6 0 1964.7 7.3
2 -6 0 2005.2 6.4
2 -6 0 2175.88 7.1
2 -6 0 2067.89 6.7
1 -6 0 24.4 1.6
1 -6 0 23.1 1.1
1 -6 0 23.8 1.3
1 -6 0 24.1 1.4
0 -6 0 1491.65 6.6
0 -6 0 1480.05 5.7
0 -6 0 1491.15 6.3
-1 -6 0 21.5 1.3
1 6 0 24 1.2
-1 -6 0 20.3 1.5
1 6 0 20.9 1.3
-2 -6 0 1127.29 4.6
-2 -6 0 1110.39 6.3
2 6 0 1179.98 5.9
2 6 0 1141.99 4.7
-3 -6 0 182.88 2
-3 -6 0 179.88 2.8
3 6 0 169.68 2.4
3 6 0 183.18 2
-4 -6 0 528.55 3.4
4 6 0 528.75 3.4
4 6 0 530.75 4.1
-4 -6 0 587.64 4.7
5 6 0 386.46 3
-5 -6 0 420.16 3.2
5 6 0 407.56 3.6
-5 -6 0 422.96 3.9
6 6 0 174.58 2.6
6 6 0 177.18 2.4
-6 -6 0 194.68 2.7
-6 -6 0 187.68 2.6
7 6 0 201.08 2.3
-7 -6 0 213.78 2.9
-7 -6 0 197.98 2.6
7 6 0 197.98 2.9
7 -7 0 300.77 3
7 -7 0 269.07 3.1
7 -7 0 246.38 4.8
7 -7 0 58.09 5.1
6 -7 0 198.18 2.4
6 -7 0 191.28 3.8
6 -7 0 172.88 3.3
6 -7 0 193.28 2.4
5 -7 0 -15.6 5.6
5 -7 0 653.63 3.8
5 -7 0 604.24 5
5 -7 0 643.24 3.8
4 -7 0 90.99 4.6
4 -7 0 487.05 3.2
4 -7 0 469.65 4.1
4 -7 0 494.35 3.4
3 -7 0 557.24 3.4
3 -7 0 594.74 4.2
3 -7 0 655.73 4.1
3 -7 0 591.84 3.6
2 -7 0 674.33 3.9
2 -7 0 605.44 3.6
2 -7 0 638.74 3.9
2 -7 0 588.94 4
1 -7 0 183.28 2.4
1 -7 0 180.28 2.2
1 -7 0 195.08 2.2
1 -7 0 190.48 2.4
0 -7 0 678.93 3.8
0 -7 0 685.23 4.6
0 -7 0 687.33 4.5
0 -7 0 709.53 3.8
1 7 0 26 1.6
-1 -7 0 21.3 1.5
1 7 0 22.8 1.4
-1 -7 0 23.9 1.4
2 7 0 1200.08 4.7
-2 -7 0 1206.18 4.8
2 7 0 1246.38 6.2
-2 -7 0 1115.89 6.3
3 7 0 10.7 1.3
3 7 0 15.3 1
-3 -7 0 13.9 1.8
-3 -7 0 11.2 1.4
-4 -7 0 816.32 4.1
4 7 0 804.62 5.3
-4 -7 0 909.41 6.4
4 7 0 816.12 4.1
5 7 0 6.8 1.4
5 7 0 8.7 1.3
-5 -7 0 7.5 1.4
-5 -7 0 7.1 1.4
-6 -7 0 518.75 3.8
6 7 0 566.94 4.6
6 7 0 521.85 3.8
-6 -7 0 520.55 4.7
7 7 0 2.3 1.5
-7 -7 0 1.4 1.5
7 7 0 4.1 1.5
-7 -7 0 0.6 1.2
6 -8 0 0.5 1.8
6 -8 0 2 1.6
6 -8 0 1.8 1
6 -8 0 2 1
5 -8 0 569.14 3.6
5 -8 0 579.14 5.1
5 -8 0 509.35 5
5 -8 0 550.44 3.7
4 -8 0 88.99 2
4 -8 0 72.89 1.7
4 -8 0 77.39 1.7
4 -8 0 77.99 2.1
3 -8 0 364.86 3
3 -8 0 339.47 3.3
3 -8 0 333.77 2.8
3 -8 0 359.26 2.9
2 -8 0 194.78 2.6
2 -8 0 208.78 2.3
2 -8 0 231.48 2.5
2 -8 0 211.98 2.6
1 -8 0 309.17 3.1
1 -8 0 297.17 2.7
1 -8 0 291.87 2.8
1 -8 0 292.47 2.6
0 -8 0 682.83 4.4
0 -8 0 668.23 3.8
0 -8 0 657.43 4.7
0 -8 0 666.13 3.6
1 8 0 380.36 2.8
-1 -8 0 423.46 3.9
-1 -8 0 385.46 3.1
-1 -8 0 397.36 3.8
-2 -8 0 535.35 3.4
2 8 0 497.15 3.3
-2 -8 0 486.75 4.7
2 8 0 539.25 4.7
3 8 0 329.87 3.7
-3 -8 0 188.38 3.1
-3 -8 0 328.87 4.1
3 8 0 297.47 2.8
-4 -8 0 340.77 3.1
4 8 0 356.46 3.9
-4 -8 0 380.66 4.5
4 8 0 318.47 3
5 8 0 135.39 2.3
-5 -8 0 137.19 2.3
5 8 0 144.59 2.7
-5 -8 0 143.39 3
6 8 0 237.38 3.6
-6 -8 0 222.68 2.8
-6 -8 0 250.97 3.9
6 8 0 214.08 2.7
5 -9 0 201.28 3.5
5 -9 0 202.18 2.6
5 -9 0 221.58 2.7
5 -9 0 213.28 3.7
4 -9 0 16.5 1.4
4 -9 0 13.7 1.6
4 -9 0 15.3 1.3
4 -9 0 14.1 1.2
3 -9 0 408.26 3.3
3 -9 0 374.86 2.9
3 -9 0 434.96 3.5
3 -9 0 385.76 3.6
2 -9 0 17.4 1.4
2 -9 0 13 0.9
2 -9 0 15 1
2 -9 0 15 1.1
1 -9 0 1069.29 5.8
1 -9 0 1085.99 5.3
1 -9 0 1061.59 4.7
1 -9 0 1045.7 5
0 -9 0 58.09 1.9
0 -9 0 14 2
0 -9 0 57.29 1.8
0 -9 0 59.39 1.5
-1 -9 0 971.8 6.3
-1 -9 0 942.41 4.6
-1 -9 0 980.5 4.5
-1 -9 0 492.35 6.4
2 9 0 67.69 1.6
-2 -9 0 74.69 2.4
-2 -9 0 75.29 1.6
3 9 0 402.66 3.3
-3 -9 0 418.16 3.4
3 9 0 488.75 5.2
-3 -9 0 499.85 5.6
4 9 0 96.99 2.6
4 9 0 91.49 2
-4 -9 0 100.89 3
-4 -9 0 95.29 2
-5 -9 0 138.59 2.2
-5 -9 0 147.19 3.7
5 9 0 136.69 2.2
5 9 0 148.59 3.3
3 -10 0 279.07 3.3
3 -10 0 274.47 3
3 -10 0 308.57 3.3
3 -10 0 268.97 3
2 -10 0 138.59 2.3
2 -10 0 126.39 2.5
2 -10 0 112.79 2.3
2 -10 0 -4.8 2.6
1 -10 0 346.97 3.7
1 -10 0 320.77 3.2
1 -10 0 38.3 3.4
1 -10 0 343.37 3.9
0 -10 0 130.79 2.5
0 -10 0 113.69 2.8
0 -10 0 131.59 2.2
0 -10 0 134.39 2.3
-1 -10 0 333.17 3.1
-1 -10 0 48.3 4.4
-1 -10 0 340.47 3.1
-1 -10 0 327.97 4.2
-2 -10 0 2.2 2
-2 -10 0 1.9 1.6
-2 -10 0 1.5 1.6
-3 -10 0 191.08 2.6
3 10 0 185.68 2.5
-3 -10 0 203.88 4.3
-3 -10 0 135.09 5.1
-2 -10 1 218.28 2.7
2 10 -1 181.98 2.6
-1 -10 1 29.8 1.8
-1 -10 1 38.6 4
-1 -10 1 23.3 4
0 -10 1 395.36 6
0 -10 1 5.9 3.4
0 -10 1 403.66 5.6
0 -10 1 391.96 3.5
1 -10 1 33 1.7
1 -10 1 33.6 1.4
1 -10 1 34.7 1.8
1 -10 1 35.2 2.2
2 -10 1 468.15 4.9
2 -10 1 407.96 4.3
2 -10 1 442.76 3.6
2 -10 1 405.06 3.8
3 -10 1 26.7 1.8
3 -10 1 20.4 1.5
3 -10 1 24.1 1.5
3 -10 1 21.5 1.6
4 9 -1 71.69 2
-4 -9 1 34.3 3.4
4 9 -1 77.19 3.2
-4 -9 1 57.19 1.7
3 9 -1 461.45 3.4
-3 -9 1 460.75 8.9
-3 -9 1 456.05 3.5
-3 -9 1 496.15 8.4
-2 -9 1 187.78 5.4
-2 -9 1 216.68 6.5
-2 -9 1 198.28 2.5
2 9 -1 188.28 2.3
1 9 -1 603.64 4.1
-1 -9 1 244.68 7.9
-1 -9 1 630.04 4.1
-1 -9 1 601.64 8.1
0 -9 1 418.46 3.2
0 -9 1 422.26 5.1
0 -9 1 431.26 3.2
0 -9 1 437.56 4.8
1 -9 1 228.48 2.6
1 -9 1 243.98 2.5
1 -9 1 220.58 3.3
1 -9 1 238.98 3
2 -9 1 287.07 3
2 -9 1 316.37 3
2 -9 1 310.97 3.4
2 -9 1 303.77 3
3 -9 1 144.19 2.4
3 -9 1 134.89 2.4
3 -9 1 144.29 2.4
3 -9 1 132.99 2.1
4 -9 1 174.48 2.5
4 -9 1 220.58 3.1
4 -9 1 189.38 3.1
4 -9 1 203.08 2.8
5 -9 1 30.9 2.2
5 -9 1 30.2 1.7
5 -9 1 29.3 2
5 -9 1 28.6 1.6
5 8 -1 511.05 3.8
-5 -8 1 523.45 3.8
5 8 -1 530.25 5.6
-5 -8 1 567.94 5.8
-4 -8 1 4.2 1.5
-4 -8 1 7.1 1.8
4 8 -1 4.5 1.6
4 8 -1 2.2 1.5
-3 -8 1 724.63 7.6
3 8 -1 668.03 4
-3 -8 1 691.73 4.1
3 8 -1 747.43 6.8
-2 -8 1 15.4 1.7
2 8 -1 14.2 1.4
-2 -8 1 14.4 1.5
-2 -8 1 17 2.2
-1 -8 1 915.51 4.4
1 8 -1 894.31 4.5
-1 -8 1 1005 7.8
-1 -8 1 871.61 7.8
0 -8 1 100.69 1.9
0 8 -1 95.99 1.8
0 -8 1 97.99 2.4
0 -8 1 111.59 2.4
1 -8 1 395.56 3.7
1 -8 1 459.15 3.3
1 -8 1 398.56 3.2
1 -8 1 415.76 4.1
2 -8 1 16.6 1.3
2 -8 1 14.5 1.4
2 -8 1 14.4 1.4
2 -8 1 20.8 1.3
3 -8 1 493.25 3.8
3 -8 1 431.56 3.2
3 -8 1 475.75 3.6
3 -8 1 463.25 3.8
4 -8 1 201.88 2.5
4 -8 1 196.08 2.3
4 -8 1 209.48 3.1
4 -8 1 237.28 3
5 -8 1 8.7 2.4
5 -8 1 142.99 3
5 -8 1 130.29 2
5 -8 1 140.09 3.1
6 -8 1 149.19 5
6 -8 1 217.48 4.8
6 -8 1 225.08 2.8
6 -8 1 231.68 2.8
-6 -7 1 255.77 2.8
6 7 -1 289.47 3.8
-6 -7 1 -34.8 3.9
6 7 -1 257.47 2.9
-5 -7 1 160.08 2.1
5 7 -1 153.18 2.8
-5 -7 1 173.68 3.1
5 7 -1 155.28 2.3
-4 -7 1 557.04 3.6
4 7 -1 561.34 4.8
-4 -7 1 586.14 5.5
4 7 -1 542.45 3.4
3 7 -1 210.58 2.4
-3 -7 1 237.98 4.1
-3 -7 1 211.68 2.4
3 7 -1 231.88 3.4
-2 -7 1 539.25 3.4
2 7 -1 517.15 3.3
2 7 -1 554.94 5.4
-2 -7 1 552.54 6.3
-1 -7 1 558.44 5.5
-1 -7 1 497.65 5.5
-1 -7 1 561.34 3.5
1 7 -1 551.74 3.4
0 7 -1 173.48 2.2
0 -7 1 181.38 2.8
0 -7 1 167.98 2.1
0 -7 1 182.18 3
1 -7 1 681.73 4.4
1 -7 1 667.13 4.1
1 -7 1 756.52 4.1
1 -7 1 666.23 4.7
2 -7 1 115.29 2
2 -7 1 114.09 2.2
2 -7 1 135.39 2.1
2 -7 1 118.99 2.2
3 -7 1 1294.57 5.5
3 -7 1 1519.95 6.4
3 -7 1 1379.36 6.6
3 -7 1 1411.06 5.9
4 -7 1 61.59 2.3
4 -7 1 64.89 1.7
4 -7 1 66.49 1.7
4 -7 1 65.49 1.9
5 -7 1 797.72 4.3
5 -7 1 756.12 6.2
5 -7 1 774.22 4.2
5 -7 1 813.22 6.2
6 -7 1 5.1 1.8
6 -7 1 7.2 2
6 -7 1 7.2 1
7 -7 1 526.95 3.8
-7 -6 1 -1 1.3
7 6 -1 1.8 1.5
7 6 -1 4.7 1.4
-7 -6 1 3.6 1.6
6 6 -1 641.04 4.2
6 6 -1 628.44 5
-6 -6 1 637.94 4.2
-6 -6 1 701.63 4.9
-5 -6 1 10.2 1.1
5 6 -1 8.9 1.4
5 6 -1 10.3 1.5
-5 -6 1 9 1.4
-4 -6 1 1121.19 6.9
-4 -6 1 1113.69 4.9
4 6 -1 1032.8 4.8
4 6 -1 1038.7 6
3 6 -1 174.18 2.7
3 6 -1 181.68 2.1
-3 -6 1 199.88 3.5
-3 -6 1 173.58 2.2
-2 -6 1 765.22 4.1
2 6 -1 734.93 3.9
2 6 -1 785.22 6
-2 -6 1 798.52 7.2
-1 -6 1 490.15 5.5
-1 -6 1 529.95 3.4
1 6 -1 538.55 3.4
0 -6 1 1096.69 6.8
0 -6 1 1116.59 6.6
0 -6 1 1125.19 5.2
0 6 -1 1066.89 4.8
1 -6 1 1043.6 5.2
1 -6 1 1054.39 5.9
1 -6 1 1007 5.3
2 -6 1 694.53 4.1
2 -6 1 673.23 4.3
2 -6 1 654.83 4
2 -6 1 672.33 4.5
3 -6 1 1342.97 6.8
3 -6 1 1517.95 6.4
3 -6 1 1346.87 5.3
3 -6 1 1327.97 5.5
4 -6 1 370.86 3
4 -6 1 366.86 4
4 -6 1 407.86 3.8
-5 6 -1 989.6 4.3
5 -6 1 916.71 6.9
5 -6 1 839.02 6.6
5 -6 1 911.41 4.3
-6 6 -1 62.79 1.5
6 -6 1 56.99 2.7
6 -6 1 59.49 2.9
6 -6 1 53.89 1.4
7 -6 1 514.55 3.5
7 -6 1 433.66 8.5
-7 6 -1 545.75 3.6
7 -6 1 457.15 9
-8 6 -1 1.2 1.3
8 -6 1 0 1.3
7 5 -1 186.08 2.3
-7 -5 1 231.58 2.9
-7 -5 1 216.88 2.5
7 5 -1 205.78 2.9
-6 -5 1 707.53 4.5
6 5 -1 655.33 4.1
-6 -5 1 699.23 4.4
6 5 -1 672.13 4.4
5 5 -1 59.39 1.9
-5 -5 1 67.19 2
5 5 -1 55.19 1.5
-5 -5 1 59.79 1.8
4 5 -1 666.63 3.7
-4 -5 1 695.13 3.8
-4 -5 1 695.83 5
4 5 -1 682.63 4.8
3 5 -1 4.2 0.9
-3 -5 1 1.5 1.3
-3 -5 1 2.9 1.4
3 5 -1 3.1 1.1
2 5 -1 2358.76 6.9
-2 -5 1 2496.85 7.2
-2 -5 1 2629.24 12.7
2 5 -1 2293.17 9.8
-1 -5 1 189.18 3.8
1 5 -1 212.78 2.5
-1 -5 1 200.68 2.3
1 5 -1 215.48 3.6
0 5 -1 3321.07 8.8
0 -5 1 3378.96 12.5
0 -5 1 3487.15 9.2
0 -5 1 3422.86 11.9
1 -5 1 342.07 3.4
1 -5 1 371.76 3.5
1 -5 1 378.26 3.8
-1 5 -1 334.37 3
2 -5 1 1962.6 8
2 -5 1 1998.1 7.3
2 -5 1 2030 7
2 -5 1 2157.18 7.7
3 -5 1 58.09 2.1
3 -5 1 65.49 1.8
3 -5 1 59.39 1.7
-3 5 -1 66.19 1.5
4 -5 1 1168.78 4.8
4 -5 1 1177.08 7.2
4 -5 1 1083.39 7.2
-4 5 -1 1264.67 5
5 -5 1 281.57 4.2
5 -5 1 324.97 4.6
5 -5 1 328.17 2.7
-5 5 -1 368.26 2.8
6 -5 1 185.38 2.3
-6 5 -1 149.49 2.4
6 -5 1 179.68 3.9
6 -5 1 151.78 3.5
7 -5 1 177.78 2.2
-7 5 -1 -20 2.6
7 -5 1 191.58 4.6
-8 5 -1 -11.5 1.8
8 -5 1 73.89 4
8 -5 1 66.29 1.9
8 4 -1 40 1.5
8 4 -1 38 1.6
-8 -4 1 43.8 1.6
-8 -4 1 46 1.9
7 4 -1 360.06 3
7 4 -1 348.17 3.4
-7 -4 1 419.86 3.4
-7 -4 1 419.96 3.4
6 4 -1 261.87 2.8
6 4 -1 284.17 2.6
-6 -4 1 300.97 3
-6 -4 1 305.27 2.7
-5 -4 1 249.18 2.6
5 4 -1 237.98 2.5
-5 -4 1 250.97 2.9
5 4 -1 243.28 2.9
4 4 -1 642.44 4.5
-4 -4 1 668.93 4.7
4 4 -1 618.54 3.5
-4 -4 1 636.84 3.6
3 4 -1 1085.19 6.2
-3 -4 1 1137.29 6.9
-3 -4 1 1112.29 5
3 4 -1 1091.59 4.9
-2 -4 1 4130.89 15.6
2 4 -1 3744.03 9.3
-2 -4 1 4048.8 9.7
2 4 -1 3578.24 12.2
1 4 -1 711.73 4.4
-1 -4 1 638.74 7.5
-1 -4 1 697.23 4.3
1 4 -1 640.74 6.3
0 4 -1 2076.59 7.7
0 -4 1 2151.28 8
0 -4 1 2285.37 11.4
0 -4 1 2145.79 10.6
1 -4 1 463.85 4.4
1 -4 1 463.45 4.2
-1 4 -1 428.26 3.9
1 -4 1 436.26 4
2 -4 1 1141.99 6.3
2 -4 1 1061.99 6.8
-2 4 -1 1156.18 5.6
2 -4 1 1080.59 5.6
-3 4 -1 227.68 2.6
3 -4 1 205.78 2.3
3 -4 1 220.78 3.3
3 -4 1 190.48 3.3
4 -4 1 1219.38 8.3
-4 4 -1 1478.25 5.3
4 -4 1 1309.77 8.6
4 -4 1 1363.76 5.2
5 -4 1 29 2.1
-5 4 -1 30.6 1.9
-5 4 -1 31.2 1.2
5 -4 1 26.9 1.2
6 -4 1 1213.18 4.7
6 -4 1 1234.48 8.9
-6 4 -1 1306.47 4.8
-6 4 -1 1269.77 8.5
7 -4 1 22.2 1.2
-7 4 -1 25.8 1.9
-7 4 -1 23.7 1.2
7 -4 1 22.6 2
-8 4 -1 658.23 3.8
8 -4 1 619.64 7.1
8 -4 1 582.54 3.7
-8 4 -1 671.73 6.9
9 -4 1 114.39 2
-9 4 -1 116.79 2
-9 4 -1 99.49 3.8
9 -4 1 60.29 3.5
8 3 -1 0.9 1.3
-8 -3 1 3.9 1.4
8 3 -1 3.5 1.5
-8 -3 1 1.5 1.1
-7 -3 1 684.53 4.1
-7 -3 1 73.49 4.6
7 3 -1 575.64 3.6
7 3 -1 629.64 4.1
6 3 -1 159.98 2.4
6 3 -1 146.39 2
-6 -3 1 -9.8 2.4
-6 -3 1 178.28 2.5
-5 -3 1 881.91 4.2
5 3 -1 837.72 4
5 3 -1 845.42 4.8
-5 -3 1 888.91 4.7
4 3 -1 300.67 2.7
-4 -3 1 330.87 3.3
-4 -3 1 321.57 2.8
4 3 -1 311.57 3.2
3 3 -1 2549.44 9.5
-3 -3 1 2764.72 10
-3 -3 1 2818.62 8.1
3 3 -1 2523.85 7.6
-2 -3 1 399.26 5
2 3 -1 371.06 3.5
2 3 -1 355.86 4.3
-2 -3 1 391.36 3.6
1 3 -1 1723.63 7.2
1 3 -1 1646.14 10.8
-1 -3 1 1779.82 13.6
-1 -3 1 1759.92 7.4
0 -3 1 222.98 3.1
0 -3 1 236.38 4.8
0 -3 1 222.48 4.4
0 3 -1 234.08 3.3
-1 3 -1 1102.19 7.3
-1 3 -1 1182.68 7.4
1 -3 1 1187.28 7.6
1 -3 1 1126.69 7.6
2 -3 1 814.42 5.2
2 -3 1 863.41 6.6
-2 3 -1 822.72 5.3
2 -3 1 826.52 7.2
3 -3 1 468.65 3.5
-3 3 -1 501.35 3.6
3 -3 1 433.16 5.7
3 -3 1 483.05 5.7
-4 3 -1 2380.66 7.1
4 -3 1 2140.59 6.7
-4 3 -1 2381.66 12.1
4 -3 1 2253.77 12.6
5 -3 1 188.38 3.5
-5 3 -1 185.48 3.5
-5 3 -1 194.08 2
5 -3 1 175.98 2.1
-6 3 -1 1251.27 4.7
6 -3 1 1255.37 8
6 -3 1 1165.98 4.7
-6 3 -1 1254.37 7.7
7 -3 1 67.09 1.4
-7 3 -1 3.4 1.8
-7 3 -1 77.09 2.3
7 -3 1 73.19 2.5
8 -3 1 754.72 6.3
-8 3 -1 782.62 6.3
8 -3 1 654.63 3.7
-8 3 -1 742.63 3.9
-9 3 -1 0.2 1
9 -3 1 2 1.1
-9 3 -1 3.4 1.6
9 -3 1 2.5 1.8
-8 -2 1 -25.1 2.5
-8 -2 1 211.58 2.7
8 2 -1 182.18 2.3
8 2 -1 172.28 2.4
7 2 -1 699.63 3.9
-7 -2 1 768.02 4.2
-7 -2 1 827.22 4.3
7 2 -1 736.43 4.3
6 2 -1 122.49 2
-6 -2 1 133.59 2
6 2 -1 122.79 2.1
-6 -2 1 136.19 2.1
-5 -2 1 1491.65 5.5
5 2 -1 1325.07 5.1
-5 -2 1 1439.06 5.6
5 2 -1 1427.96 5.9
-4 -2 1 286.37 2.9
4 2 -1 269.67 2.6
4 2 -1 305.37 3.3
-4 -2 1 286.57 2.8
-3 -2 1 1890.91 7.8
-3 -2 1 1884.11 6.9
3 2 -1 1869.61 8
3 2 -1 1794.52 6.8
2 2 -1 10 1.7
-2 -2 1 6.5 1.5
-2 -2 1 5.5 1.6
2 2 -1 6.8 1.8
-1 -2 1 1830.62 8.4
-1 -2 1 1843.12 14.2
1 2 -1 1749.53 13.4
1 2 -1 1824.22 8.4
0 -2 1 690.63 13.6
0 -2 1 738.23 6.5
0 -2 1 697.03 12.3
0 2 -1 733.13 6.3
1 -2 1 2822.02 15.4
-1 2 -1 2834.22 14.9
1 -2 1 2735.23 13.2
-1 2 -1 2890.71 13.1
2 -2 1 1665.53 8
-2 2 -1 1764.42 8.2
2 -2 1 1758.82 14.7
2 -2 1 1841.82 13.9
3 -2 1 3404.76 9.7
3 -2 1 3162.88 18.2
-3 2 -1 3757.52 10
-3 2 -1 3108.99 16.9
-4 2 -1 1550.44 6
4 -2 1 1453.25 9.7
4 -2 1 1488.95 5.9
-4 2 -1 1340.87 9.1
-5 2 -1 1363.76 5
-5 2 -1 1130.79 7.4
5 -2 1 1303.07 5
5 -2 1 1295.97 7.9
-6 2 -1 448.76 4.4
6 -2 1 508.85 4.5
6 -2 1 470.25 3.1
-6 2 -1 529.95 3.1
-7 2 -1 422.86 4.5
7 -2 1 473.25 4.4
7 -2 1 436.26 3.1
-7 2 -1 492.85 3.1
8 -2 1 397.36 4.2
-8 2 -1 400.86 4.4
-8 2 -1 438.06 3
8 -2 1 391.46 2.9
-9 2 -1 88.49 1.7
-9 2 -1 89.19 2.7
9 -2 1 82.19 1.7
9 -2 1 87.69 2.5
9 1 -1 43.9 1.7
-9 -1 1 47.9 1.7
9 1 -1 41.3 1.9
-9 -1 1 2.7 1.6
-8 -1 1 472.35 3.6
8 1 -1 417.16 3.4
-8 -1 1 475.35 3.4
8 1 -1 -64.99 3.2
7 1 -1 161.58 2.1
-7 -1 1 191.58 2.3
-7 -1 1 185.18 2.3
7 1 -1 174.58 2.3
6 1 -1 723.03 4
-6 -1 1 843.62 4.1
-6 -1 1 774.92 4.2
6 1 -1 748.93 4.1
-5 -1 1 618.74 4
-5 -1 1 600.94 3.5
5 1 -1 536.15 3.5
5 1 -1 598.24 3.7
-4 -1 1 355.96 3
4 1 -1 339.17 3.2
4 1 -1 351.06 3
-4 -1 1 364.36 3.2
3 1 -1 1061.79 5.6
3 1 -1 1064.09 5.8
-3 -1 1 1046.1 5.5
-3 -1 1 1132.39 5.9
-2 -1 1 128.89 2.5
2 1 -1 148.79 3
-2 -1 1 153.88 2.7
2 1 -1 138.49 2.5
-1 -1 1 1562.34 8.9
-1 -1 1 1519.25 10.4
1 1 -1 1514.45 8.8
1 1 -1 1514.15 11
0 1 -1 349.07 5.7
0 1 -1 305.07 11.3
0 -1 1 346.37 5.8
0 -1 1 312.57 10.5
-1 1 -1 2766.12 15.5
1 -1 1 2705.53 25.9
-1 1 -1 3249.18 26.6
1 -1 1 2827.22 15.6
2 -1 1 5.7 1.4
-2 1 -1 7.6 1.9
2 -1 1 6.8 2.8
-2 1 -1 12.9 3.2
3 -1 1 4601.14 11.8
-3 1 -1 5104.79 12
3 -1 1 4288.47 18.4
-3 1 -1 4162.18 18.7
4 -1 1 2.4 1.1
4 -1 1 4.1 1.6
-4 1 -1 2.5 1.7
-4 1 -1 4 1
-5 1 -1 2267.47 6.6
-5 1 -1 2062.69 9.4
5 -1 1 2056.69 6.4
5 -1 1 2094.99 8.9
6 -1 1 111.79 2.3
6 -1 1 104.79 1.6
-6 1 -1 112.19 2.4
-6 1 -1 119.99 1.6
7 -1 1 710.83 4.8
-7 1 -1 -51.89 4
7 -1 1 663.23 3.7
-7 1 -1 706.63 5.1
8 -1 1 139.49 1.9
8 -1 1 140.09 2.5
-8 1 -1 -12.2 1.9
-8 1 -1 150.88 2.7
-9 1 -1 191.28 3
9 -1 1 175.28 2.9
9 -1 1 148.79 2.1
-9 1 -1 181.38 2.2
9 0 -1 -2.2 1.5
9 0 -1 19.8 1.4
-9 0 1 24.2 1.7
-9 0 1 22.1 1.4
-8 0 1 418.26 3.7
8 0 -1 408.96 3.4
8 0 -1 358.26 2.9
-8 0 1 448.66 3.3
-7 0 1 0.1 0.9
7 0 -1 0.5 1.2
-7 0 1 1.1 1.4
7 0 -1 -0.2 1.3
6 0 -1 745.93 4.2
-6 0 1 822.82 4.5
6 0 -1 819.52 3.9
-6 0 1 917.81 4
-5 0 1 247.28 2.5
5 0 -1 246.28 2.7
-5 0 1 251.07 2.9
5 0 -1 239.38 2.3
-4 0 1 1221.08 5.8
-4 0 1 1252.17 5.2
4 0 -1 1182.78 5.7
4 0 -1 1204.68 5.1
3 0 -1 660.03 4.3
-3 0 1 646.04 4.8
3 0 -1 629.54 4.6
-3 0 1 655.63 4.2
-2 0 1 5401.56 15
2 0 -1 5419.56 13.2
2 0 -1 5257.07 14.6
-2 0 1 5062.59 12.8
1 0 -1 2344.17 10.8
-1 0 1 2535.65 11.2
1 0 -1 2277.97 11.8
-1 0 1 2430.86 12.4
0 0 -1 1438.16 12.3
0 0 1 1441.16 12.1
0 0 1 1616.54 11.9
0 0 -1 1549.74 12.1
1 0 1 2962.9 19.3
-1 0 -1 2780.82 18.4
1 0 1 2275.17 13.3
-1 0 -1 2458.35 13.7
-2 0 -1 2464.05 14.6
2 0 1 2358.46 10.3
2 0 1 2359.36 14.4
-2 0 -1 2247.98 10.1
3 0 1 1092.79 6
3 0 1 1006 7.4
-3 0 -1 1035.7 7.6
-3 0 -1 1087.29 6.1
-4 0 -1 695.43 4.3
-4 0 -1 712.13 5.5
4 0 1 690.93 4.4
4 0 1 622.24 5
5 0 1 984.5 5.6
5 0 1 956.3 4.5
-5 0 -1 1060.89 6.1
-5 0 -1 975.7 4.4
6 0 1 4.2 1.2
-6 0 -1 10.8 1.5
-6 0 -1 3 0.8
6 0 1 3 1.4
-7 0 -1 876.01 5.3
7 0 1 771.32 4.7
7 0 1 749.82 3.9
-7 0 -1 786.32 3.8
-8 0 -1 -1.8 1.2
8 0 1 22.2 1.2
8 0 1 22.3 1.6
-8 0 -1 19.5 1.6
9 0 1 480.45 3.4
-9 0 -1 192.78 4.7
9 0 1 453.15 4.1
-9 0 -1 61.69 3.5
-9 1 1 100.19 2
-9 1 1 108.19 2.3
9 -1 -1 85.69 2.2
9 -1 -1 93.19 2
8 -1 -1 416.86 3.3
8 -1 -1 451.15 3.7
-8 1 1 499.95 3.5
-8 1 1 -58.29 4
7 -1 -1 47.7 1.4
7 -1 -1 49.3 1.4
-7 1 1 58.49 1.4
-7 1 1 52.49 1.6
-6 1 1 1145.69 5.7
-6 1 1 1327.77 5
6 -1 -1 1156.08 4.6
6 -1 -1 1223.58 5.6
-5 1 1 30.5 1.7
5 -1 -1 34.2 1.6
5 -1 -1 32.7 1.3
-5 1 1 35.6 1.3
4 -1 -1 3141.49 9.5
-4 1 1 2837.02 9.3
4 -1 -1 3245.88 8.1
-4 1 1 3163.58 7.8
3 -1 -1 117.89 1.9
-3 1 1 117.79 2.2
-3 1 1 101.59 2.4
3 -1 -1 116.99 2.5
2 -1 -1 4523.85 14
2 -1 -1 5860.61 12.5
-2 1 1 5639.34 12.3
-2 1 1 4668.53 14.6
1 -1 -1 1211.08 6.7
1 -1 -1 1144.29 7.8
-1 1 1 1279.47 7
-1 1 1 1159.58 7.8
0 -1 -1 2267.27 10.9
0 1 1 2455.25 12
0 -1 -1 2446.36 12
0 1 1 2288.17 10.9
1 1 1 501.05 5.4
-1 -1 -1 508.15 5.4
1 1 1 449.76 5.3
-1 -1 -1 457.15 5.3
-2 -1 -1 2569.84 10.6
2 1 1 2413.76 10.1
-2 -1 -1 2937.41 12.2
2 1 1 2608.44 11.5
3 1 1 450.85 4.1
-3 -1 -1 443.66 4.4
3 1 1 436.56 4.4
-3 -1 -1 494.25 4.3
4 1 1 653.93 4.4
-4 -1 -1 659.33 4.3
-4 -1 -1 650.83 4.7
4 1 1 604.74 4.5
5 1 1 1077.39 5
5 1 1 1013.2 5.3
-5 -1 -1 1134.69 5.8
-5 -1 -1 1057.09 4.7
6 1 1 352.16 2.8
-6 -1 -1 401.06 3.4
6 1 1 381.66 3.3
-6 -1 -1 357.16 2.7
-7 -1 -1 982.9 4.2
7 1 1 870.01 4.6
-7 -1 -1 938.21 5.2
7 1 1 925.21 4.2
-8 -1 -1 141.89 2.4
8 1 1 117.09 2.1
8 1 1 123.49 2.1
-8 -1 -1 132.59 2.1
-9 -1 -1 429.46 3.2
9 1 1 -25.3 3.4
9 1 1 452.35 3.8
-9 -1 -1 488.25 4.1
9 -2 -1 187.08 3.1
9 -2 -1 125.19 2.3
-9 2 1 -40.6 2.1
-9 2 1 196.58 3
8 -2 -1 204.28 2.9
-8 2 1 223.38 2.6
-8 2 1 228.18 3.1
8 -2 -1 191.28 2.3
-7 2 1 339.87 3.4
7 -2 -1 376.86 3.4
7 -2 -1 336.17 2.7
-7 2 1 383.06 2.8
-6 2 1 576.24 4.1
6 -2 -1 612.54 4.3
6 -2 -1 573.04 3.4
-6 2 1 645.84 3.5
-5 2 1 1035.2 4.3
5 -2 -1 1023.9 4.3
5 -2 -1 1032.5 5.6
-5 2 1 956.4 5.4
4 -2 -1 1114.69 4.6
4 -2 -1 1139.39 6.1
-4 2 1 1192.68 4.7
-4 2 1 1088.09 5.9
3 -2 -1 1516.65 7.3
-3 2 1 1714.43 6
3 -2 -1 1626.24 5.7
-3 2 1 1498.95 7.1
-2 2 1 1430.96 5.8
-2 2 1 1294.17 7.1
2 -2 -1 1342.07 5.7
2 -2 -1 1235.88 6.9
1 -2 -1 1900.01 7.5
1 -2 -1 1898.91 8.5
1 -2 -1 1884.51 7.6
-1 2 1 1891.51 8.6
0 2 1 3242.98 11
0 -2 -1 3220.68 10.9
0 2 1 3310.57 11.5
0 -2 -1 3373.76 11.5
-1 -2 -1 666.83 5.3
1 2 1 630.74 5.2
-1 -2 -1 613.24 5.1
1 2 1 661.23 5.2
2 2 1 2282.47 9
2 2 1 2253.87 9
-2 -2 -1 2168.48 9
-2 -2 -1 2454.65 9.4
3 2 1 177.28 2.5
-3 -2 -1 196.98 2.8
-3 -2 -1 180.68 2.6
3 2 1 185.28 2.6
-4 -2 -1 2804.72 8.5
-4 -2 -1 2806.32 8.6
4 2 1 2733.33 8.3
4 2 1 2624.34 8.2
-5 -2 -1 226.38 2.7
-5 -2 -1 218.78 2.6
5 2 1 196.48 2.5
5 2 1 202.58 2.4
6 2 1 1672.33 5.9
6 2 1 1628.44 5.9
-6 -2 -1 1815.92 6.6
-6 -2 -1 1778.32 6
-7 -2 -1 176.78 2.5
-7 -2 -1 168.98 2.3
7 2 1 165.18 2.5
7 2 1 147.29 2
-8 -2 -1 686.33 3.9
-8 -2 -1 753.02 4.5
8 2 1 670.93 4.1
8 2 1 636.64 3.8
9 2 1 78.69 1.9
9 2 1 79.09 2
-9 -2 -1 94.59 1.8
-9 -2 -1 97.89 2.2
-8 3 1 3.4 1.3
8 -3 -1 6 1.3
8 -3 -1 0.5 1.4
-8 3 1 3.9 1.5
7 -3 -1 882.01 4.1
-7 3 1 843.72 5.4
7 -3 -1 914.61 5.5
-7 3 1 1017.2 4.3
-6 3 1 63.59 1.9
-6 3 1 68.09 1.7
6 -3 -1 65.09 1.4
6 -3 -1 68.89 2
-5 3 1 1557.54 5
5 -3 -1 1377.96 4.7
-5 3 1 1406.26 6.3
5 -3 -1 1505.85 6.7
4 -3 -1 263.37 3.1
-4 3 1 280.97 2.3
-4 3 1 258.07 3
4 -3 -1 251.27 2.1
-3 3 1 1155.68 5.9
3 -3 -1 1119.79 5.7
-3 3 1 1217.18 4.9
3 -3 -1 1134.09 4.6
2 -3 -1 1153.58 5.9
-2 3 1 1179.48 6.2
2 -3 -1 1257.47 5.3
-1 3 1 1351.46 6.8
1 -3 -1 1290.27 5.8
1 -3 -1 1310.07 5.8
1 -3 -1 1338.17 6.5
0 -3 -1 2381.26 8.6
0 -3 -1 2571.44 8.7
0 -3 -1 2640.34 8.9
0 3 1 2714.83 9.1
-1 -3 -1 1039.3 5.7
1 3 1 1083.39 6
-1 -3 -1 1129.29 6.2
1 3 1 1099.29 5.6
-2 -3 -1 3331.87 10.5
2 3 1 3883.91 10
2 3 1 3442.06 10.1
-2 -3 -1 3533.25 10
3 3 1 1179.68 5.8
-3 -3 -1 1263.37 5.6
3 3 1 1292.17 5.8
-3 -3 -1 1214.98 6
4 3 1 3039.8 8.6
-4 -3 -1 2985.3 8.8
4 3 1 2799.32 7.9
-4 -3 -1 3047.6 8.4
5 3 1 254.57 2.6
-5 -3 -1 272.07 2.8
-5 -3 -1 264.87 2.9
5 3 1 247.08 2.5
6 3 1 1245.08 5.1
-6 -3 -1 1368.56 5.5
6 3 1 1260.67 5.2
-6 -3 -1 1289.17 5.3
-7 -3 -1 5.7 1.4
7 3 1 6.3 1.3
7 3 1 6.4 1.4
-7 -3 -1 8.1 1.1
-8 -3 -1 545.95 3.9
8 3 1 448.76 3.4
-8 -3 -1 516.65 3.6
8 3 1 454.55 3.4
-9 -3 -1 18.7 1.8
-9 -3 -1 18.8 1.4
9 3 1 15.9 1.2
9 3 1 17.3 1.4
-8 4 1 89.29 2.6
8 -4 -1 96.49 1.8
8 -4 -1 107.59 2.7
-8 4 1 104.89 2.1
-7 4 1 631.04 3.6
7 -4 -1 540.05 4.7
7 -4 -1 530.05 3.4
-7 4 1 496.25 4.7
-6 4 1 75.49 1.7
-6 4 1 79.39 2
6 -4 -1 64.99 1.4
6 -4 -1 77.89 2.2
5 -4 -1 591.44 3.2
5 -4 -1 648.34 4.5
-5 4 1 655.73 4.4
-5 4 1 654.73 3.4
4 -4 -1 2.9 1
4 -4 -1 2.4 1.3
-4 4 1 2.4 1
-4 4 1 1.9 1.2
3 -4 -1 1069.49 4.4
3 -4 -1 1057.39 5.4
-3 4 1 1109.69 5.7
2 -4 -1 333.47 2.6
-2 4 1 370.26 3.4
2 -4 -1 355.56 2.8
2 -4 -1 355.36 3.2
1 -4 -1 2173.28 6.9
1 -4 -1 1899.91 7.1
1 -4 -1 2006.3 6.6
1 -4 -1 2149.08 7.2
0 -4 -1 374.66 3.1
0 -4 -1 378.86 3.4
0 -4 -1 344.77 3.1
0 4 1 360.96 3.3
1 4 1 3910.01 9.6
1 4 1 4083.39 10.3
-1 -4 -1 4328.27 10.8
-1 -4 -1 4167.08 10.1
2 4 1 830.42 4.7
2 4 1 826.42 4.5
-2 -4 -1 805.42 4.8
-2 -4 -1 829.92 4.4
-3 -4 -1 1966.8 7.5
3 4 1 2039.5 7.1
-3 -4 -1 1980.2 6.5
3 4 1 1943.01 6.5
4 4 1 512.05 3.3
-4 -4 -1 558.84 4
4 4 1 523.85 3.7
-4 -4 -1 547.75 3.4
5 4 1 660.33 3.6
-5 -4 -1 722.83 3.8
5 4 1 684.93 4
-5 -4 -1 720.03 4.4
6 4 1 711.73 4.1
6 4 1 657.63 3.7
-6 -4 -1 701.83 4.3
-6 -4 -1 748.53 4
-7 -4 -1 119.69 1.9
7 4 1 123.79 2
7 4 1 131.19 2.2
-7 -4 -1 120.09 2.2
8 4 1 220.88 2.5
8 4 1 213.38 2.5
-8 -4 -1 244.58 2.8
-8 -4 -1 232.08 2.5
9 4 1 1.5 1.1
-9 -4 -1 14.1 1.4
-9 -4 -1 14.9 1.3
9 4 1 11 1.5
8 -5 -1 132.59 2
-8 5 1 139.69 3.2
8 -5 -1 130.49 3.2
-8 5 1 139.99 2
7 -5 -1 45.7 2
7 -5 -1 -4.9 1.6
-7 5 1 45.9 2
-7 5 1 51.39 1.6
6 -5 -1 272.07 3.4
-6 5 1 296.97 3.4
6 -5 -1 259.37 2.4
-6 5 1 276.97 2.5
-5 5 1 322.27 3.5
-5 5 1 342.97 2.5
5 -5 -1 306.97 2.4
5 -5 -1 304.77 3.4
-4 5 1 359.16 3.4
4 -5 -1 348.27 2.6
4 -5 -1 335.07 3.1
-3 5 1 1585.44 6.6
3 -5 -1 1524.35 5.1
3 -5 -1 1507.15 6
3 -5 -1 1493.45 5
2 -5 -1 884.01 4.5
2 -5 -1 751.82 4.5
2 -5 -1 821.32 3.9
2 -5 -1 852.91 4.1
1 -5 -1 2912.01 7.7
1 -5 -1 2553.94 7.8
1 -5 -1 2912.71 7.7
1 -5 -1 2718.03 7.2
0 5 1 619.14 3.9
0 -5 -1 590.84 3.7
0 -5 -1 559.14 3.7
0 -5 -1 610.04 3.6
1 5 1 2419.36 7.1
1 5 1 2406.66 7.7
-1 -5 -1 2542.85 7.4
-1 -5 -1 2627.24 8.2
-2 -5 -1 117.79 2
-2 -5 -1 119.79 2.1
2 5 1 118.29 1.9
2 5 1 117.99 2
-3 -5 -1 966.8 5.3
3 5 1 1003.5 4.9
3 5 1 968.9 4.5
-3 -5 -1 1022 4.6
4 5 1 3.7 1.2
-4 -5 -1 5.3 1.2
-4 -5 -1 3.2 1.1
4 5 1 5.2 1.2
-5 -5 -1 1749.12 6.9
-5 -5 -1 1798.62 6
5 5 1 1624.44 5.6
5 5 1 1716.23 6.5
6 5 1 333.97 2.8
6 5 1 338.17 3
-6 -5 -1 346.67 2.9
-6 -5 -1 341.47 3.3
7 5 1 514.85 3.7
-7 -5 -1 479.25 3.4
7 5 1 436.56 3.2
-7 -5 -1 478.65 3.7
8 5 1 137.99 2.4
8 5 1 154.88 2.6
-8 -5 -1 152.88 2.4
-8 -5 -1 146.99 2.5
-7 6 1 5.2 1.5
7 -6 -1 1.7 1
7 -6 -1 3.2 1.8
6 -6 -1 441.16 3.2
6 -6 -1 469.75 4.4
-6 6 1 528.55 4.4
6 -6 -1 452.05 3.4
5 -6 -1 138.49 2.5
5 -6 -1 140.19 1.8
5 -6 -1 144.69 1.9
-5 6 1 154.08 2.5
4 -6 -1 978.7 5.1
4 -6 -1 1022.5 4.4
4 -6 -1 962.8 4.2
3 -6 -1 199.58 2.4
3 -6 -1 235.78 2.5
3 -6 -1 228.18 2.1
3 -6 -1 231.08 2.3
2 -6 -1 1475.55 5.1
2 -6 -1 1626.84 5.7
2 -6 -1 1399.36 5.8
2 -6 -1 1612.64 5.5
1 -6 -1 709.23 3.8
1 -6 -1 788.32 4.1
1 -6 -1 806.82 4.1
1 -6 -1 720.43 4.2
0 -6 -1 614.74 3.7
0 -6 -1 664.63 3.9
0 6 1 668.93 4
0 -6 -1 648.94 3.7
1 6 1 739.03 4.2
-1 -6 -1 778.62 4.3
-1 -6 -1 774.72 4
-2 -6 -1 134.09 2.2
2 6 1 122.69 2
-2 -6 -1 130.89 1.7
2 6 1 128.09 1.9
3 6 1 1122.99 4.6
-3 -6 -1 1169.78 4.6
-3 -6 -1 1139.89 5.6
3 6 1 1144.29 5.2
-4 -6 -1 51.69 1.8
4 6 1 51.99 1.4
-4 -6 -1 53.69 1.4
4 6 1 52.69 1.6
5 6 1 1237.18 5.2
-5 -6 -1 1220.08 4.9
5 6 1 1206.28 5.5
-5 -6 -1 1216.18 5.9
6 6 1 2 1.5
6 6 1 2.4 1
-6 -6 -1 0.3 1.4
-6 -6 -1 3 1.5
7 6 1 370.56 3.1
-7 -6 -1 357.06 3.8
7 6 1 408.26 3.7
-7 -6 -1 420.36 3.3
8 6 1 2 1.1
8 6 1 1.8 1.3
-8 -6 -1 0.9 1.4
-8 -6 -1 0.3 1
7 -7 -1 23.9 1.3
7 -7 -1 21.6 2.2
7 -7 -1 19.2 2
7 -7 -1 30.2 1.5
6 -7 -1 502.55 4.9
6 -7 -1 517.25 3.5
6 -7 -1 365.46 4.5
6 -7 -1 503.15 3.4
5 -7 -1 56.99 1.9
5 -7 -1 53.69 1.3
5 -7 -1 47.3 2
5 -7 -1 48.1 1.3
4 -7 -1 758.62 4.7
4 -7 -1 895.81 4.9
4 -7 -1 803.32 3.9
4 -7 -1 788.82 3.9
3 -7 -1 10.5 1.1
3 -7 -1 10.1 1.3
3 -7 -1 12.4 1.3
3 -7 -1 11.2 0.9
2 -7 -1 797.52 4.1
2 -7 -1 673.23 3.6
2 -7 -1 698.33 4.2
2 -7 -1 743.63 3.9
1 -7 -1 47.4 1.6
1 -7 -1 47.6 1.3
1 -7 -1 47.9 1.4
1 -7 -1 53.99 1.6
0 -7 -1 666.53 3.9
0 -7 -1 678.63 3.8
0 -7 -1 664.63 3.8
0 -7 -1 667.53 3.5
-1 -7 -1 423.66 3.3
-1 -7 -1 437.26 3
1 7 1 434.36 3.4
-1 -7 -1 488.05 3
2 7 1 428.36 3.4
2 7 1 421.66 3
-2 -7 -1 453.35 3.5
-2 -7 -1 431.56 3.1
-3 -7 -1 702.83 4.6
-3 -7 -1 698.83 3.7
3 7 1 697.13 3.7
3 7 1 710.83 4.3
-4 -7 -1 380.06 3.6
4 7 1 371.66 3.3
-4 -7 -1 374.96 3
4 7 1 372.56 2.9
-5 -7 -1 357.06 2.9
5 7 1 338.37 2.9
-5 -7 -1 360.56 3.5
5 7 1 349.37 3.2
-6 -7 -1 219.18 3
-6 -7 -1 211.08 2.5
6 7 1 225.88 2.8
6 7 1 213.58 2.6
7 7 1 216.38 2.7
7 7 1 246.28 3.1
-7 -7 -1 15.4 3.2
-7 -7 -1 219.38 2.6
6 -8 -1 124.39 2.2
6 -8 -1 125.69 2.2
6 -8 -1 127.29 3.2
6 -8 -1 112.59 3
5 -8 -1 124.59 1.9
5 -8 -1 127.19 1.9
5 -8 -1 128.69 2.7
5 -8 -1 145.49 2.7
4 -8 -1 302.47 3.2
4 -8 -1 337.87 3.2
4 -8 -1 312.77 2.7
4 -8 -1 314.47 2.7
3 -8 -1 28.9 1.3
3 -8 -1 28 1.4
3 -8 -1 27.2 1.1
3 -8 -1 28.2 1.4
2 -8 -1 358.36 3
2 -8 -1 369.96 2.9
2 -8 -1 346.27 3.1
2 -8 -1 345.47 2.8
1 -8 -1 100.79 1.7
1 -8 -1 101.09 2
1 -8 -1 103.09 1.6
1 -8 -1 103.59 1.8
0 -8 -1 846.62 4.5
0 -8 -1 821.62 4.2
0 -8 -1 807.82 3.9
0 -8 -1 832.42 4.6
1 8 1 1.6 1.1
-1 -8 -1 2.4 1.4
-1 -8 -1 1.7 1.1
-1 -8 -1 1.4 1.2
-2 -8 -1 994.9 5.3
-2 -8 -1 986.3 4.4
2 8 1 959.2 5.4
-3 -8 -1 0.9 1
3 8 1 2 1.2
-3 -8 -1 4.1 1.4
3 8 1 1.5 1.4
4 8 1 815.72 5
4 8 1 725.53 4.2
-4 -8 -1 838.82 5.5
-4 -8 -1 773.92 4.2
-5 -8 -1 21.5 1.3
5 8 1 25.8 1.4
-5 -8 -1 29.7 1.7
5 8 1 26.8 1.3
6 8 1 307.17 3.7
-6 -8 -1 -18.2 4.2
-6 -8 -1 322.57 3.1
6 8 1 298.37 3
5 -9 -1 155.68 3
5 -9 -1 146.69 3.1
5 -9 -1 163.48 2.4
5 -9 -1 -21.1 2.1
4 -9 -1 106.79 2.3
4 -9 -1 106.49 1.9
4 -9 -1 105.99 2.2
4 -9 -1 117.79 2.1
3 -9 -1 241.18 2.6
3 -9 -1 219.18 2.5
3 -9 -1 243.88 2.6
3 -9 -1 238.58 2.8
2 -9 -1 176.98 2.3
2 -9 -1 189.88 2.2
2 -9 -1 192.28 2.3
2 -9 -1 201.48 2.4
1 -9 -1 466.55 3.3
1 -9 -1 428.06 3.2
1 -9 -1 409.56 3.4
1 -9 -1 414.26 3.3
0 -9 -1 639.04 4.2
0 -9 -1 630.24 4
0 -9 -1 586.44 3.6
0 -9 -1 615.04 3.9
-1 -9 -1 257.07 2.9
-1 -9 -1 249.68 3
-1 -9 -1 238.18 2.4
-1 -9 -1 262.87 2.4
-2 -9 -1 477.15 4
-2 -9 -1 500.05 3.4
2 9 1 511.95 4.2
-2 -9 -1 431.76 3.3
-3 -9 -1 208.08 3.3
-3 -9 -1 204.08 2.5
3 9 1 226.88 3.2
-4 -9 -1 347.87 4.3
4 9 1 353.26 3.8
-4 -9 -1 316.17 2.9
4 9 1 1 2.8
-5 -9 -1 1.4 1.3
5 9 1 11.2 1.6
5 9 1 13 1.2
-5 -9 -1 12.3 1.8
3 -10 -1 471.15 4.1
3 -10 -1 416.86 3.3
3 -10 -1 393.76 3.9
3 -10 -1 458.05 3.7
2 -10 -1 18.6 1.3
2 -10 -1 14 1
2 -10 -1 10.8 1.5
2 -10 -1 17.7 1.4
1 -10 -1 571.44 4.2
1 -10 -1 507.65 4.1
1 -10 -1 508.35 3.8
1 -10 -1 532.05 4.3
0 -10 -1 135.79 2.1
0 -10 -1 135.99 2.4
0 -10 -1 145.59 2.5
0 -10 -1 143.59 2.2
-1 -10 -1 254.57 3.2
-1 -10 -1 234.98 2.6
-1 -10 -1 -32.4 3.5
-1 -10 -1 256.37 2.7
-2 -10 -1 72.29 2.1
-2 -10 -1 65.19 1.9
-2 -10 -1 64.89 2.2
-2 -10 -1 66.89 1.7
-3 -10 -1 119.39 1.9
-3 -10 -1 119.59 3.1
3 10 1 122.39 3
-3 -10 -1 122.39 2
2 10 -2 218.78 2.8
-2 -10 2 233.48 2.8
1 10 -2 36.1 1.5
-1 -10 2 37.9 1.7
0 -10 2 364.16 3.4
1 -10 2 110.59 4.2
1 -10 2 100.59 2.2
1 -10 2 108.89 2.2
1 -10 2 103.39 3.7
2 -10 2 374.96 3.6
2 -10 2 343.17 4.8
2 -10 2 361.16 5.6
2 -10 2 438.86 3.6
3 -10 2 125.69 3
3 -10 2 120.29 2.8
3 -10 2 109.09 2.5
3 -10 2 68.59 2.5
4 9 -2 242.38 2.8
-4 -9 2 246.28 3.1
3 9 -2 78.19 1.7
-3 -9 2 81.69 2
2 9 -2 630.24 4
-2 -9 2 569.14 3.9
-1 -9 2 53.89 1.8
1 9 -2 47.9 1.6
0 -9 2 664.93 4
0 9 -2 708.03 4.1
1 -9 2 74.29 2.5
1 -9 2 73.79 1.9
1 -9 2 76.79 1.9
1 -9 2 70.49 2.9
2 -9 2 532.55 4.7
2 -9 2 553.94 3.7
2 -9 2 515.35 5.3
2 -9 2 495.05 3.8
3 -9 2 2.4 1.1
3 -9 2 1.4 1.4
3 -9 2 0.8 1
3 -9 2 2.7 1.1
4 -9 2 328.17 4.1
4 -9 2 255.27 3.2
4 -9 2 315.67 3.6
4 -9 2 358.26 3.9
5 -9 2 28.7 1.4
5 -9 2 26.5 1.5
5 -9 2 17.3 2.2
5 -9 2 30.2 2.4
-5 -8 2 37.8 4.5
-5 -8 2 235.48 3
5 8 -2 226.98 2.7
5 8 -2 238.18 4.9
4 8 -2 229.48 5.6
-4 -8 2 197.58 2.5
4 8 -2 193.78 2.7
-4 -8 2 210.48 5.6
3 8 -2 453.95 3.5
-3 -8 2 453.95 3.4
2 8 -2 475.65 3.4
-2 -8 2 480.15 3.4
1 8 -2 349.37 2.9
-1 -8 2 356.96 3.1
0 8 -2 206.58 2.3
0 -8 2 201.78 2.3
1 -8 2 262.97 3.7
-1 8 -2 239.98 2.5
1 -8 2 250.17 2.7
1 -8 2 256.07 4.2
2 -8 2 411.56 4.4
2 -8 2 428.46 3.8
2 -8 2 406.46 3.5
2 -8 2 459.45 3.5
3 -8 2 59.59 2
3 -8 2 56.59 1.7
3 -8 2 64.09 1.8
3 -8 2 64.39 2
4 -8 2 671.63 4.9
4 -8 2 579.94 4
4 -8 2 608.84 5.1
4 -8 2 650.43 4.3
5 -8 2 6.8 1.7
5 -8 2 8.6 1.3
5 -8 2 4.5 1.5
5 -8 2 6.1 2
6 -8 2 430.26 3.8
6 -8 2 446.46 3.8
6 7 -2 13.1 1.3
6 7 -2 14.2 2
-6 -7 2 1.3 1.7
-6 -7 2 4.6 1.7
5 7 -2 455.25 3.5
5 7 -2 518.75 5.3
-5 -7 2 476.25 3.6
-5 -7 2 485.55 5.1
4 7 -2 28.8 2
4 7 -2 32.2 1.4
-4 -7 2 30.9 1.7
-4 -7 2 29.5 2
-3 -7 2 879.31 4.4
-3 -7 2 892.61 9.2
3 7 -2 953.7 9.1
3 7 -2 891.31 4.4
2 7 -2 7.2 1.1
-2 -7 2 7.5 1.1
-1 -7 2 528.45 3.5
1 7 -2 554.74 3.5
0 -7 2 129.99 1.9
0 -7 2 137.79 4.7
0 7 -2 141.29 2
0 -7 2 148.99 5.5
1 -7 2 732.43 5.5
1 -7 2 653.53 4.1
1 -7 2 673.53 6.2
-1 7 -2 640.54 4
2 -7 2 1161.08 5.4
2 -7 2 1035.3 5.4
2 -7 2 1005 6.2
2 -7 2 1001.4 5.3
3 -7 2 443.16 3.5
3 -7 2 528.75 4
3 -7 2 491.35 4
3 -7 2 451.75 4
4 -7 2 574.24 5.1
4 -7 2 658.33 5.2
4 -7 2 614.04 4.1
4 -7 2 585.24 3.9
5 -7 2 336.37 5
5 -7 2 341.17 5
5 -7 2 333.07 3
-6 7 -2 446.46 3.4
6 -7 2 378.46 3.2
7 -7 2 118.79 2
-7 7 -2 143.39 2.3
6 6 -2 337.27 4
-6 -6 2 347.67 3.8
-6 -6 2 289.77 3.3
6 6 -2 277.57 3
5 6 -2 399.96 3.2
5 6 -2 416.46 4.2
-5 -6 2 395.86 4
-5 -6 2 410.66 3.1
4 6 -2 243.58 3.4
4 6 -2 246.08 2.4
-4 -6 2 244.38 2.7
-4 -6 2 237.18 3.4
3 6 -2 752.42 4
-3 -6 2 768.12 4.1
-3 -6 2 752.62 6.6
3 6 -2 786.22 6.4
2 6 -2 99.39 4.2
2 6 -2 93.89 1.9
-2 -6 2 103.39 2
-2 -6 2 90.89 4.2
-1 -6 2 1412.16 5.4
1 6 -2 1469.35 5.5
0 -6 2 8.6 1.1
0 -6 2 9.2 2.5
0 6 -2 14.6 1.5
0 -6 2 9.8 2.8
1 -6 2 2549.15 8
1 -6 2 2625.54 11.8
-1 6 -2 2560.54 7.8
1 -6 2 2691.73 10.3
2 -6 2 140.69 2.6
2 -6 2 148.09 2.5
2 -6 2 132.59 2.2
3 -6 2 1597.24 6.6
3 -6 2 1557.94 7.6
3 -6 2 1822.42 7.4
-4 6 -2 131.49 2
4 -6 2 140.79 2.7
4 -6 2 122.89 2.1
4 -6 2 124.19 2.9
5 -6 2 912.31 9.2
5 -6 2 1005.7 9.6
-5 6 -2 1024.9 4.8
5 -6 2 954.2 4.6
6 -6 2 218.88 2.5
-6 6 -2 223.68 2.6
-7 6 -2 317.07 2.7
7 -6 2 303.17 2.7
8 -6 2 121.79 2.5
-8 6 -2 176.48 2.5
7 5 -2 1.1 1.5
-7 -5 2 12 1.2
7 5 -2 8.8 1.5
-7 -5 2 9.5 1.4
-6 -5 2 91.59 3.2
6 5 -2 268.07 3.1
6 5 -2 265.57 2.8
-6 -5 2 315.67 3.2
5 5 -2 148.59 2.2
-5 -5 2 157.78 2.5
-5 -5 2 178.58 2.5
5 5 -2 152.78 2.6
4 5 -2 424.36 3.1
-4 -5 2 445.56 3.2
4 5 -2 436.86 4.2
-4 -5 2 426.26 4
3 5 -2 560.64 4.9
3 5 -2 528.55 3.4
-3 -5 2 556.64 3.4
-3 -5 2 528.45 4.8
2 5 -2 637.34 6.6
2 5 -2 651.23 3.8
-2 -5 2 656.23 3.9
-2 -5 2 642.54 7.2
1 5 -2 1765.22 6.1
-1 -5 2 1766.42 6.2
0 5 -2 722.03 4.3
0 -5 2 769.92 17
0 -5 2 721.43 4.4
0 -5 2 659.93 14.1
1 -5 2 1947.71 7.5
-1 5 -2 1991.1 7.4
1 -5 2 1886.71 9.1
1 -5 2 1974.9 11
2 -5 2 438.06 4.1
2 -5 2 426.66 4
-2 5 -2 415.46 3.7
3 -5 2 1546.15 6.6
3 -5 2 1427.56 8
3 -5 2 1663.53 7.8
-3 5 -2 1659.33 6.4
-4 5 -2 40.3 1.6
4 -5 2 37.1 1.3
4 -5 2 34.8 2.2
4 -5 2 39 2
5 -5 2 707.73 14.7
5 -5 2 690.83 14.8
5 -5 2 685.13 3.8
-5 5 -2 736.53 3.9
6 -5 2 4.2 1
-6 5 -2 0.9 1
-7 5 -2 369.86 2.9
7 -5 2 335.17 2.8
-8 5 -2 30.2 1.5
8 -5 2 23.6 1.2
7 4 -2 21.3 1.7
7 4 -2 17.1 1.4
-7 -4 2 19.5 1.4
-7 -4 2 19.9 1.5
6 4 -2 702.73 4
-6 -4 2 794.62 4.3
6 4 -2 681.03 4.6
-6 -4 2 741.73 4.4
5 4 -2 37.9 1.2
5 4 -2 41.9 1.8
-5 -4 2 43 1.3
-5 -4 2 42.1 1.6
4 4 -2 2313.47 8.8
-4 -4 2 2670.33 7.3
-4 -4 2 2462.85 8.5
4 4 -2 2477.35 6.9
3 4 -2 40.7 1.9
3 4 -2 42.7 1.5
-3 -4 2 41.5 1.5
-3 -4 2 41.2 1.7
-2 -4 2 2520.35 12
2 4 -2 2505.65 11.8
2 4 -2 2494.45 7.3
-2 -4 2 2568.04 7.5
1 4 -2 329.97 3.1
-1 -4 2 295.37 3.1
0 -4 2 2538.35 8.6
0 4 -2 2692.83 8.5
1 -4 2 328.57 4.3
-1 4 -2 351.56 3.7
1 -4 2 358.96 5.3
1 -4 2 346.27 3.7
2 -4 2 1370.86 7.3
-2 4 -2 1327.47 7.3
2 -4 2 1380.66 7.9
-2 4 -2 1445.86 6.9
3 -4 2 844.12 6.5
3 -4 2 786.92 4.7
3 -4 2 767.52 7.2
-3 4 -2 852.01 4.8
4 -4 2 656.53 10
4 -4 2 715.13 10.5
4 -4 2 708.43 4.2
-4 4 -2 744.73 4.1
5 -4 2 1082.99 4.6
-5 4 -2 1178.18 4.8
6 -4 2 104.89 2
-6 4 -2 117.09 1.8
7 -4 2 945.01 4.4
-7 4 -2 70.99 4.9
8 -4 2 49.99 1.7
-8 4 -2 54.09 1.4
9 -4 2 395.16 3.2
-9 4 -2 -45.3 3
8 3 -2 51.29 2.7
8 3 -2 180.28 2.9
-8 -3 2 224.88 2.8
-8 -3 2 221.88 2.9
-7 -3 2 290.87 2.8
7 3 -2 273.37 2.8
7 3 -2 261.47 2.7
-7 -3 2 283.07 2.7
6 3 -2 835.02 4.1
-6 -3 2 860.91 4.6
6 3 -2 927.01 5
-6 -3 2 983.7 4.6
5 3 -2 781.62 4.8
5 3 -2 798.72 4
-5 -3 2 886.71 4.3
-5 -3 2 764.82 4.4
4 3 -2 1856.31 5.9
4 3 -2 2020.9 8.1
-4 -3 2 2082.59 6.4
-4 -3 2 1995.9 7.2
3 3 -2 363.46 3.1
3 3 -2 377.56 4
-3 -3 2 359.26 3.1
-3 -3 2 341.67 3.5
2 3 -2 3552.44 9.3
2 3 -2 3559.34 13.8
-2 -3 2 3523.65 9.2
-2 -3 2 3434.16 12.5
-1 -3 2 308.57 6
-1 -3 2 307.57 3.2
1 3 -2 304.47 3.3
1 3 -2 294.97 6.1
0 3 -2 3599.94 10.8
0 -3 2 3632.54 10.9
-1 3 -2 10.9 1.6
1 -3 2 12.4 2
1 -3 2 8.7 1.7
-1 3 -2 8.5 1.7
2 -3 2 2089.39 11.6
-2 3 -2 2150.68 9.1
2 -3 2 2096.39 9.3
-2 3 -2 2076.39 10.9
3 -3 2 177.58 5.1
3 -3 2 172.78 5.6
3 -3 2 166.28 2.6
-3 3 -2 180.18 2.7
4 -3 2 1944.31 6.8
-4 3 -2 2000.7 6.7
5 -3 2 1403.66 5.2
-5 3 -2 1501.95 5.4
6 -3 2 708.83 9.8
6 -3 2 826.72 3.9
-6 3 -2 858.61 10.2
-6 3 -2 844.42 4.1
-7 3 -2 556.04 3.3
7 -3 2 447.76 6.4
7 -3 2 455.25 3.1
-7 3 -2 531.15 6.8
8 -3 2 463.15 6.1
-8 3 -2 522.35 6.5
-8 3 -2 529.75 3.6
8 -3 2 432.46 3.3
-9 3 -2 219.28 5.3
-9 3 -2 -47.5 2.2
9 -3 2 245.68 5.1
9 -3 2 185.48 2.7
-8 -2 2 77.19 1.8
8 2 -2 67.49 1.8
8 2 -2 71.69 2
-8 -2 2 83.29 1.7
-7 -2 2 760.52 4.4
7 2 -2 673.03 4
7 2 -2 17.9 4.4
-7 -2 2 737.43 4
-6 -2 2 98.89 2
-6 -2 2 84.89 1.6
6 2 -2 79.89 1.6
6 2 -2 86.99 2
-5 -2 2 1055.39 4.6
-5 -2 2 991.2 4.7
5 2 -2 900.11 4.2
5 2 -2 981.4 5
4 2 -2 262.67 2.6
4 2 -2 290.57 3.1
-4 -2 2 270.97 2.8
-4 -2 2 275.67 2.5
-3 -2 2 1260.67 5.9
3 2 -2 1231.18 5.3
3 2 -2 1327.27 6.7
-3 -2 2 1324.97 5.6
2 2 -2 1493.45 6.3
-2 -2 2 1528.55 6.5
2 2 -2 1547.55 8.6
-2 -2 2 1449.85 7.3
1 2 -2 600.84 4.5
1 2 -2 643.34 7.5
-1 -2 2 650.53 4.9
-1 -2 2 632.04 6.4
0 2 -2 2004.7 23.7
0 2 -2 1960.1 9.1
0 -2 2 1967.3 9.2
0 2 -2 1785.32 25.5
1 -2 2 443.26 6.1
-1 2 -2 486.45 5.6
-1 2 -2 480.05 6.9
1 -2 2 462.25 5.6
2 -2 2 2794.52 18.7
-2 2 -2 3018 19.4
-2 2 -2 2772.32 11
2 -2 2 2907.21 11.5
-3 2 -2 219.88 2.8
3 -2 2 229.68 2.8
-4 2 -2 2581.44 7.7
4 -2 2 2400.36 7.5
5 -2 2 75.69 3.1
-5 2 -2 79.49 1.5
-5 2 -2 71.59 2.9
5 -2 2 79.69 1.7
-6 2 -2 1132.89 8.3
6 -2 2 1097.69 4.5
-6 2 -2 1251.67 4.7
6 -2 2 1169.48 8.3
-7 2 -2 93.59 1.7
7 -2 2 76.99 1.6
7 -2 2 82.99 2.3
-7 2 -2 83.59 2.4
8 -2 2 498.95 5.6
8 -2 2 547.45 3.6
-8 2 -2 663.73 5.9
-8 2 -2 672.53 3.6
-9 2 -2 87.79 2.9
9 -2 2 87.09 2.6
9 -2 2 84.59 1.9
-9 2 -2 97.59 1.8
-8 -1 2 37.5 1.7
8 1 -2 35.8 1.6
-8 -1 2 38 1.6
8 1 -2 35.1 1.4
-7 -1 2 618.94 4.1
7 1 -2 535.05 3.5
7 1 -2 517.45 3.4
-7 -1 2 611.34 3.7
6 1 -2 36.2 1.6
6 1 -2 33.1 1.3
-6 -1 2 38.9 1.7
-6 -1 2 38.3 1.5
-5 -1 2 1186.48 5.1
5 1 -2 1050.49 4.5
5 1 -2 1126.69 4.9
-5 -1 2 1115.69 4.7
-4 -1 2 32.2 1.4
4 1 -2 27.8 1.3
-4 -1 2 28 1.2
4 1 -2 30.6 1.3
-3 -1 2 1649.23 6.3
3 1 -2 1550.14 6.1
3 1 -2 1618.54 6.6
-3 -1 2 1665.13 6.4
-2 -1 2 191.58 2.7
2 1 -2 187.48 2.9
-2 -1 2 208.18 2.8
2 1 -2 203.58 2.8
-1 -1 2 2735.03 10.4
1 1 -2 2792.32 11.6
1 1 -2 2604.84 10.1
0 1 -2 1488.65 9.1
0 -1 2 1598.94 9.1
0 1 -2 1503.55 10.5
0 -1 2 1476.15 10.2
1 -1 2 5135.59 20
-1 1 -2 5015.8 20.6
-1 1 -2 4967.2 18.5
1 -1 2 4951.6 17.6
-2 1 -2 2943.01 11.5
-2 1 -2 2407.56 21.6
2 -1 2 2717.03 11
3 -1 2 2605.84 9.1
-3 1 -2 2562.04 9
-3 1 -2 2373.86 20.2
-4 1 -2 1725.83 6.5
4 -1 2 1703.23 6.4
4 -1 2 1559.54 10.6
-4 1 -2 1714.73 11.7
-5 1 -2 1074.49 8.1
5 -1 2 1029.6 4.7
5 -1 2 985.4 7.1
-5 1 -2 1066.59 4.8
6 -1 2 762.02 5.6
-6 1 -2 846.62 6.3
6 -1 2 768.82 3.8
-6 1 -2 828.62 3.9
7 -1 2 131.09 2.6
-7 1 -2 142.59 2.1
7 -1 2 155.98 2.2
-7 1 -2 144.09 3
8 -1 2 422.36 4.5
-8 1 -2 519.05 4.9
8 -1 2 441.36 3
-8 1 -2 497.45 3.1
9 -1 2 5.8 1
-9 1 -2 7.2 1.1
9 -1 2 8.8 1.6
-9 1 -2 7.5 1.6
8 0 -2 215.48 2.7
-8 0 2 -59.29 2.8
8 0 -2 265.37 3
-8 0 2 290.87 3.4
-7 0 2 203.28 2.4
-7 0 2 180.28 2.5
7 0 -2 161.48 2.3
7 0 -2 170.38 2.3
-6 0 2 277.87 2.8
6 0 -2 266.77 2.6
6 0 -2 274.57 2.7
-6 0 2 293.37 2.4
5 0 -2 874.61 4.5
-5 0 2 930.01 4.7
5 0 -2 946.01 4.2
-5 0 2 934.01 4
-4 0 2 141.39 2
4 0 -2 134.19 2
4 0 -2 152.88 2.1
-4 0 2 136.09 2.1
-3 0 2 2393.56 7.2
3 0 -2 2314.17 7.2
3 0 -2 2199.68 7.6
-3 0 2 2243.08 7.8
-2 0 2 324.17 3.5
2 0 -2 314.97 3.2
2 0 -2 326.67 3.6
-2 0 2 338.87 3.2
1 0 -2 7573.94 17
1 0 -2 9999 18.5
1 0 -2 9111.89 19.2
-1 0 2 9628.94 19.9
0 0 2 59.09 2.1
0 0 -2 60.79 2.6
0 0 -2 66.29 2
0 0 2 59.69 2.1
1 0 2 5445.76 15.6
-1 0 -2 5451.65 15.7
1 0 2 5202.78 17.3
-1 0 -2 5000.3 17.5
-2 0 -2 21.3 1.9
-2 0 -2 15.9 1.7
-2 0 -2 21.7 1.9
2 0 2 17.4 1.5
3 0 2 2809.82 12.8
-3 0 -2 3461.45 14.7
-3 0 -2 3470.25 10.4
3 0 2 3259.47 10
4 0 2 649.34 4.2
4 0 2 585.14 5.2
-4 0 -2 665.23 4.4
-4 0 -2 663.43 5.7
5 0 2 1045.1 4.9
-5 0 -2 1099.89 6.8
5 0 2 994.2 6
-5 0 -2 1053.69 4.9
6 0 2 567.74 4.4
-6 0 -2 578.04 3.3
6 0 2 573.44 3.5
-6 0 -2 678.53 5
7 0 2 328.47 3.3
7 0 2 344.17 2.7
-7 0 -2 349.87 2.7
-7 0 -2 410.76 3.9
8 0 2 298.17 3.4
-8 0 -2 333.77 2.8
-8 0 -2 394.86 3.9
8 0 2 306.67 2.8
9 0 2 278.47 3.1
-9 0 -2 324.57 3.6
9 0 2 224.08 2.8
-9 0 -2 271.47 2.8
-8 1 2 424.66 3.2
8 -1 -2 358.66 2.9
8 -1 -2 390.06 3.5
-8 1 2 451.95 3.8
-7 1 2 17.7 2.1
-7 1 2 100.39 1.9
7 -1 -2 99.49 1.7
7 -1 -2 102.69 1.8
-6 1 2 785.02 3.8
6 -1 -2 789.32 3.8
6 -1 -2 686.93 4.1
-6 1 2 724.33 4.3
5 -1 -2 724.03 4.3
5 -1 -2 649.74 3.4
-5 1 2 681.23 4.3
-5 1 2 684.13 3.5
-4 1 2 1007.8 4.2
-4 1 2 940.61 5
4 -1 -2 953 4.2
4 -1 -2 991.9 5
3 -1 -2 2349.67 7.9
-3 1 2 2448.16 8.3
3 -1 -2 2478.15 7.1
-3 1 2 2649.93 7.2
2 -1 -2 1281.77 5.6
2 -1 -2 1204.58 6.2
-2 1 2 1266.47 6.4
-2 1 2 1324.07 5.6
1 -1 -2 3148.98 9.5
1 -1 -2 2702.23 9.7
1 -1 -2 3143.79 9.5
-1 1 2 2843.32 10.2
0 1 2 28.3 1.8
0 1 2 23.3 1.6
0 -1 -2 24.3 1.6
0 -1 -2 28.2 1.8
1 1 2 278.17 3.4
-1 -1 -2 278.77 3.4
1 1 2 305.17 3.8
-1 -1 -2 292.47 3.6
-2 -1 -2 220.78 3.1
-2 -1 -2 237.28 3.5
2 1 2 215.18 3.1
-2 -1 -2 187.48 3.1
3 1 2 4235.68 10.9
-3 -1 -2 4125.29 10.8
3 1 2 3573.04 11.8
-3 -1 -2 3952.2 12.5
4 1 2 15.2 1.6
-4 -1 -2 18 1.7
4 1 2 15.3 1.7
-4 -1 -2 14.9 1.7
5 1 2 1527.65 6.7
-5 -1 -2 1619.54 6
5 1 2 1622.94 6.1
-5 -1 -2 1814.82 7.5
6 1 2 26.7 1.6
-6 -1 -2 38.9 1.8
-6 -1 -2 31.5 1.4
6 1 2 26.9 1.4
7 1 2 941.81 5
-7 -1 -2 1037.7 5.5
7 1 2 953.4 4.5
-7 -1 -2 925.01 4.2
8 1 2 17.7 1.6
-8 -1 -2 15.1 1.5
8 1 2 18 1.2
-8 -1 -2 20.4 1.5
9 1 2 429.56 3.7
-9 -1 -2 447.26 3.2
-9 -1 -2 497.25 4
9 1 2 399.66 3.2
-8 2 2 460.95 3.4
8 -2 -2 377.96 3.6
-8 2 2 389.56 3.8
8 -2 -2 387.56 3.1
7 -2 -2 1.7 1.3
7 -2 -2 0.1 1
-7 2 2 1.9 1.3
-7 2 2 1.8 1
-6 2 2 1038.7 4.4
-6 2 2 976.7 5.1
6 -2 -2 1020.4 5.2
6 -2 -2 922.71 4.2
-5 2 2 9 0.9
-5 2 2 5.5 1.4
5 -2 -2 6.9 1.1
5 -2 -2 11.8 1.4
4 -2 -2 1854.71 6.8
-4 2 2 1932.61 5.6
-4 2 2 1777.32 6.7
4 -2 -2 1818.92 5.6
-3 2 2 35.8 1.1
3 -2 -2 31.4 1.7
3 -2 -2 37.5 1.4
-3 2 2 35.2 1.7
-2 2 2 1772.92 7.2
2 -2 -2 1803.62 6.1
2 -2 -2 1644.74 6.7
2 -2 -2 1835.82 6.1
1 -2 -2 197.78 2.7
1 -2 -2 177.18 2.2
-1 2 2 186.78 2.7
1 -2 -2 194.38 2.3
0 2 2 93.39 2
0 -2 -2 81.29 1.7
0 2 2 86.29 1.8
0 -2 -2 92.09 1.9
1 2 2 1103.49 5.7
-1 -2 -2 1107.79 5.8
1 2 2 1180.28 6.3
-1 -2 -2 1181.18 6.3
-2 -2 -2 482.95 4.1
-2 -2 -2 526.75 4.1
2 2 2 526.15 4
3 2 2 1970.9 7.1
-3 -2 -2 2072.99 7.9
3 2 2 1976.7 7.5
-3 -2 -2 2123.49 7.5
4 2 2 333.87 2.9
-4 -2 -2 347.67 3.2
-4 -2 -2 318.17 2.9
4 2 2 314.47 3
5 2 2 980.5 4.8
5 2 2 1061.49 4.8
-5 -2 -2 1040.9 4.7
-5 -2 -2 1090.69 5.2
-6 -2 -2 515.05 3.3
6 2 2 448.76 3.4
6 2 2 504.05 3.3
-6 -2 -2 513.95 3.8
7 2 2 855.41 4.2
-7 -2 -2 879.41 4.2
-7 -2 -2 903.21 4.9
7 2 2 796.52 4.4
8 2 2 125.89 2.1
-8 -2 -2 68.29 2.6
8 2 2 131.39 2.2
-8 -2 -2 133.79 1.9
9 2 2 433.46 3.5
-9 -2 -2 436.96 3.3
-9 -2 -2 492.95 4
9 2 2 380.06 3.1
-8 3 2 231.58 2.6
8 -3 -2 221.08 3.1
8 -3 -2 208.58 2.8
-8 3 2 231.78 3.2
-7 3 2 362.96 2.8
7 -3 -2 -4.1 2.9
7 -3 -2 289.67 3.4
-7 3 2 357.76 3.4
-6 3 2 498.45 3.1
6 -3 -2 499.45 3.1
6 -3 -2 510.05 4
-6 3 2 494.95 3.8
-5 3 2 348.37 2.6
-5 3 2 331.57 3.1
5 -3 -2 317.67 2.5
5 -3 -2 342.77 3.2
-4 3 2 1061.29 5.2
4 -3 -2 1112.79 5.3
-4 3 2 1107.79 4.3
4 -3 -2 1020.3 4
3 -3 -2 288.47 2.8
-3 3 2 313.37 3.1
3 -3 -2 283.47 2.3
2 -3 -2 2192.18 6.3
-2 3 2 2249.68 7.6
2 -3 -2 2208.78 6.4
2 -3 -2 2258.47 7.4
1 -3 -2 68.39 1.7
1 -3 -2 58.29 1.6
-1 3 2 63.69 1.8
0 -3 -2 3252.97 8.8
0 -3 -2 3133.69 8.3
0 3 2 3119.19 8.8
0 3 2 2954.6 8.1
1 3 2 63.39 1.5
-1 -3 -2 68.79 1.7
-1 -3 -2 60.79 1.8
-1 -3 -2 68.49 1.7
-2 -3 -2 4082.09 9.9
2 3 2 4280.47 10
-2 -3 -2 4389.06 10.3
3 3 2 306.57 3
-3 -3 -2 284.87 2.8
3 3 2 285.07 3
-3 -3 -2 306.97 2.9
4 3 2 2244.18 7.1
-4 -3 -2 2291.67 7.1
-4 -3 -2 2385.96 7.4
4 3 2 2275.97 7.2
-5 -3 -2 333.87 2.8
-5 -3 -2 353.46 3
5 3 2 321.67 2.9
5 3 2 352.46 2.9
-6 -3 -2 1183.28 5.1
6 3 2 1156.88 4.7
6 3 2 993.7 4.5
-6 -3 -2 1104.39 4.7
7 3 2 380.06 2.9
7 3 2 420.56 3.1
-7 -3 -2 447.26 3.3
-7 -3 -2 419.46 3.2
8 3 2 203.58 2.5
8 3 2 224.38 2.5
-8 -3 -2 201.78 2.3
-8 -3 -2 231.98 2.6
9 3 2 336.87 3.2
9 3 2 352.86 3.3
-9 -3 -2 354.66 3.2
-9 -3 -2 416.86 3.9
-8 4 2 26.6 1.6
-8 4 2 27.5 1.7
8 -4 -2 27.8 1.8
8 -4 -2 31.8 1.5
-7 4 2 449.06 3.3
7 -4 -2 410.56 3
-7 4 2 447.36 3.9
7 -4 -2 433.76 3.8
6 -4 -2 226.18 2.9
6 -4 -2 227.38 2.2
-6 4 2 254.97 2.4
-6 4 2 236.08 2.7
5 -4 -2 372.16 3.4
5 -4 -2 339.67 2.7
-5 4 2 369.86 3.3
4 -4 -2 516.35 3.7
-4 4 2 503.85 3.6
4 -4 -2 504.35 2.9
3 -4 -2 466.55 3.3
3 -4 -2 436.96 2.7
3 -4 -2 455.75 2.8
-3 4 2 479.05 3.5
2 -4 -2 1440.16 5.1
-2 4 2 1452.45 5.9
2 -4 -2 1434.76 5
2 -4 -2 1420.06 5.6
1 -4 -2 494.15 3.1
-1 4 2 519.65 3.7
1 -4 -2 495.35 3.2
1 -4 -2 533.65 3.4
0 -4 -2 3317.97 8.3
0 -4 -2 3225.48 7.9
0 4 2 3044.9 7.8
-1 -4 -2 234.18 2.7
1 4 2 251.57 2.4
-1 -4 -2 257.17 2.6
-1 -4 -2 260.37 2.5
-2 -4 -2 2940.51 8
-2 -4 -2 3049.5 8.1
2 4 2 3024.6 8
3 4 2 40.8 1.5
3 4 2 42 1.3
-3 -4 -2 38.4 1.3
-3 -4 -2 38.8 1.6
4 4 2 1577.34 5.8
4 4 2 1489.55 5.6
-4 -4 -2 1492.15 5.5
-4 -4 -2 1592.04 6
5 4 2 2.9 1
5 4 2 2.6 1.3
-5 -4 -2 12 1.1
-5 -4 -2 13.8 1.5
-6 -4 -2 427.76 3.2
6 4 2 445.56 3.2
6 4 2 397.26 3.2
-6 -4 -2 439.06 3.2
-7 -4 -2 82.49 1.9
7 4 2 86.69 1.8
-7 -4 -2 84.69 1.9
7 4 2 68.69 1.8
8 4 2 238.38 2.6
-8 -4 -2 251.57 2.8
8 4 2 287.07 2.8
-8 -4 -2 272.37 2.7
9 4 2 65.59 1.9
-9 -4 -2 65.79 1.8
9 4 2 60.59 1.6
-9 -4 -2 74.39 1.8
7 -5 -2 347.37 3
7 -5 -2 -12.7 4
-7 5 2 362.56 4.2
6 -5 -2 49.99 1.4
6 -5 -2 51.79 1.8
6 -5 -2 46.8 1.4
-6 5 2 53.19 1.7
5 -5 -2 826.32 3.9
-5 5 2 966.6 5.1
5 -5 -2 811.82 3.8
5 -5 -2 888.81 5.1
-4 5 2 62.39 1.7
4 -5 -2 60.39 1.5
4 -5 -2 63.59 1.3
4 -5 -2 57.69 1.7
3 -5 -2 1774.12 5.2
3 -5 -2 1750.82 6.1
-3 5 2 1899.71 6.6
3 -5 -2 1785.92 5.2
2 -5 -2 433.26 2.7
2 -5 -2 419.66 2.9
2 -5 -2 414.16 2.8
-2 5 2 448.36 3.4
1 -5 -2 2305.67 6.7
1 -5 -2 2326.27 6.4
1 -5 -2 2063.19 5.9
0 -5 -2 650.43 3.5
0 -5 -2 611.64 3.7
0 -5 -2 697.23 3.7
0 5 2 710.33 3.7
-1 -5 -2 870.21 4.3
1 5 2 864.31 4.2
-1 -5 -2 920.91 4.3
-1 -5 -2 959.6 4.4
-2 -5 -2 266.47 2.4
-2 -5 -2 296.47 2.7
2 5 2 285.27 2.6
3 5 2 742.03 3.8
-3 -5 -2 745.33 3.8
3 5 2 795.32 4
-3 -5 -2 773.92 4.1
4 5 2 623.04 3.5
-4 -5 -2 661.13 4
4 5 2 671.33 3.8
-4 -5 -2 659.53 3.5
5 5 2 14.9 1
5 5 2 11.3 1.3
-5 -5 -2 14.3 1.3
-5 -5 -2 14.4 1.4
-6 -5 -2 490.55 3.4
6 5 2 556.04 3.7
-6 -5 -2 531.85 3.3
6 5 2 507.15 3.2
-7 -5 -2 24.3 1.3
7 5 2 21 1.4
7 5 2 22.7 1.6
-7 -5 -2 20.6 1.3
-8 -5 -2 442.56 3.7
8 5 2 484.05 3.9
8 5 2 428.96 3.3
-8 -5 -2 475.15 3.6
7 -6 -2 324.27 3.1
-7 6 2 388.66 4.4
7 -6 -2 310.07 3
7 -6 -2 354.46 4.4
6 -6 -2 78.29 2
6 -6 -2 77.99 1.6
-6 6 2 95.19 2.1
6 -6 -2 78.79 1.7
-5 6 2 610.94 4.3
5 -6 -2 569.54 3.4
5 -6 -2 556.24 4.1
5 -6 -2 586.24 3.5
-4 6 2 221.48 2.6
4 -6 -2 186.18 2.3
4 -6 -2 193.08 2.2
4 -6 -2 185.08 2.2
3 -6 -2 1844.12 6.3
3 -6 -2 1753.12 5.3
3 -6 -2 1852.81 5.5
-3 6 2 2008.3 6.9
2 -6 -2 5.4 0.9
2 -6 -2 1.1 1.2
2 -6 -2 4.7 1.2
1 -6 -2 1507.05 5.1
1 -6 -2 1458.05 5
1 -6 -2 1583.64 5.4
1 -6 -2 1421.46 5.4
0 6 2 1.9 0.8
0 -6 -2 1.4 0.9
0 -6 -2 2.8 1.3
0 -6 -2 3 0.8
-1 -6 -2 1488.05 5.4
-1 -6 -2 1384.36 5.1
-1 -6 -2 1475.45 5.1
1 6 2 1400.06 5.2
-2 -6 -2 17 0.9
2 6 2 18.9 1.2
-2 -6 -2 18.9 1
-2 -6 -2 22.5 1.3
3 6 2 1353.66 4.9
-3 -6 -2 1374.36 5
-3 -6 -2 1434.06 5.6
3 6 2 1366.06 5.2
-4 -6 -2 653.23 4.1
4 6 2 630.34 3.8
-4 -6 -2 641.84 3.6
4 6 2 642.34 3.6
5 6 2 410.86 3
5 6 2 404.16 3.1
-5 -6 -2 412.26 3
-5 -6 -2 410.96 3.2
6 6 2 351.66 2.9
-6 -6 -2 387.36 3.1
-6 -6 -2 388.76 3.1
6 6 2 404.46 3.2
7 6 2 479.75 3.7
7 6 2 443.36 3.3
-7 -6 -2 456.15 3.3
-7 -6 -2 496.85 3.7
-8 -6 -2 244.98 2.9
8 6 2 202.78 2.6
8 6 2 244.28 3
-8 -6 -2 207.08 2.7
-6 7 2 292.57 3.7
6 -7 -2 267.87 3.7
6 -7 -2 250.97 2.5
6 -7 -2 247.28 2.5
5 -7 -2 87.09 2
5 -7 -2 79.59 1.6
-5 7 2 96.99 2.1
5 -7 -2 82.59 1.7
4 -7 -2 473.35 3
4 -7 -2 471.95 3
4 -7 -2 488.85 3.7
3 -7 -2 419.06 2.9
3 -7 -2 366.66 3.2
3 -7 -2 419.16 2.8
3 -7 -2 446.86 3.3
2 -7 -2 165.48 2
2 -7 -2 189.38 2.2
2 -7 -2 173.58 2
2 -7 -2 175.28 1.9
1 -7 -2 492.95 3.1
1 -7 -2 457.55 3.3
1 -7 -2 436.46 2.8
1 -7 -2 488.15 3
0 -7 -2 70.39 1.5
0 -7 -2 67.69 1.7
0 -7 -2 71.49 1.4
1 7 2 1064.89 4.6
-1 -7 -2 1069.29 4.4
-1 -7 -2 1152.98 4.4
-1 -7 -2 1091.29 4.6
-2 -7 -2 3.3 0.9
-2 -7 -2 4.6 1.2
-2 -7 -2 8.5 1.3
2 7 2 11 1.1
3 7 2 995 4.7
-3 -7 -2 999.1 4.3
-3 -7 -2 1030.3 4.9
4 7 2 4.1 1.1
-4 -7 -2 7.7 1.3
4 7 2 3.4 0.9
-4 -7 -2 14.3 1.1
5 7 2 927.31 4.3
-5 -7 -2 1020.4 4.6
-5 -7 -2 -58.49 5.6
5 7 2 944.21 4.7
6 7 2 23.8 1.3
6 7 2 23.7 1.6
-6 -7 -2 24.8 1.6
-6 -7 -2 23.8 1.4
7 7 2 496.35 4.2
-7 -7 -2 461.35 3.4
-7 -7 -2 515.65 4.2
7 7 2 439.56 3.3
5 -8 -2 1.5 1.3
5 -8 -2 9.8 1.4
5 -8 -2 9.5 1.3
5 -8 -2 10.6 1.4
4 -8 -2 256.97 2.4
4 -8 -2 274.07 2.7
4 -8 -2 270.67 2.6
4 -8 -2 241.98 2.8
3 -8 -2 46 1.5
3 -8 -2 37.9 1.5
3 -8 -2 40.2 1.4
3 -8 -2 1.3 1.6
2 -8 -2 429.26 2.9
2 -8 -2 457.15 2.9
2 -8 -2 408.56 3.2
2 -8 -2 469.55 3.2
1 -8 -2 -46 3.3
1 -8 -2 339.47 2.8
1 -8 -2 377.56 2.7
1 -8 -2 335.87 2.7
0 -8 -2 575.64 3.6
0 -8 -2 545.35 3.6
0 -8 -2 546.25 3.4
0 -8 -2 563.44 3.4
-1 -8 -2 515.95 3.1
-1 -8 -2 485.45 3.2
-1 -8 -2 505.15 3.3
1 8 2 499.35 3.4
-2 -8 -2 508.65 3.5
-2 -8 -2 519.25 3.2
-2 -8 -2 563.34 3.4
2 8 2 486.45 3.5
-3 -8 -2 459.65 3.5
-3 -8 -2 426.56 3.2
-3 -8 -2 471.25 3.2
3 8 2 441.46 3.4
4 8 2 310.27 3
4 8 2 336.87 2.7
-4 -8 -2 346.37 2.9
-4 -8 -2 334.77 3.3
5 8 2 376.96 3.3
-5 -8 -2 410.56 3.1
5 8 2 370.56 3.1
-5 -8 -2 177.98 3.7
6 8 2 58.99 1.9
6 8 2 50.49 1.7
-6 -8 -2 57.09 1.9
-6 -8 -2 40.8 1.9
4 -9 -2 148.49 2.2
4 -9 -2 138.89 2.5
4 -9 -2 170.68 2.5
4 -9 -2 151.78 2.2
3 -9 -2 9.5 1.3
3 -9 -2 9 1.2
3 -9 -2 9.6 1.2
3 -9 -2 10 1.4
2 -9 -2 704.23 3.9
2 -9 -2 721.63 4
2 -9 -2 797.42 4.2
2 -9 -2 706.93 4.3
1 -9 -2 6 1.1
1 -9 -2 6.7 1.1
1 -9 -2 7.3 1.2
1 -9 -2 1.9 1.4
0 -9 -2 777.02 4.2
0 -9 -2 764.92 4
0 -9 -2 800.72 4.4
0 -9 -2 795.92 4.1
-1 -9 -2 2.3 1
-1 -9 -2 4.4 1.2
-1 -9 -2 4 1.3
2 9 2 719.83 4.4
-2 -9 -2 600.34 4
-2 -9 -2 675.43 4.3
-2 -9 -2 679.93 4
-3 -9 -2 67.99 1.7
-3 -9 -2 77.79 1.9
-3 -9 -2 77.19 1.9
3 9 2 77.39 1.8
-4 -9 -2 242.78 2.7
4 9 2 241.88 3
-4 -9 -2 162.38 3.3
5 9 2 78.29 2.1
-5 -9 -2 88.19 1.8
-5 -9 -2 -1.6 2.4
3 -10 -2 147.39 2.3
3 -10 -2 123.69 2.2
3 -10 -2 140.89 2.2
3 -10 -2 126.49 2.1
2 -10 -2 212.38 2.5
2 -10 -2 214.88 2.9
2 -10 -2 216.88 2.5
2 -10 -2 215.68 2.7
1 -10 -2 122.69 2.2
1 -10 -2 126.39 2.2
1 -10 -2 120.39 2.1
1 -10 -2 138.39 2.2
0 -10 -2 114.49 1.9
0 -10 -2 124.19 2.1
0 -10 -2 123.99 2
0 -10 -2 123.19 2
-1 -10 -2 57.39 1.8
-1 -10 -2 61.99 1.9
-1 -10 -2 53.59 1.5
-1 -10 -2 55.89 1.5
-2 -10 -2 251.17 2.7
2 10 2 245.88 3.2
-2 -10 -2 248.38 3.1
-2 -10 -2 235.08 2.5
-3 -10 -2 0.1 1.4
3 10 2 0.8 1.3
-3 -10 -2 0.6 1.4
-3 -10 -2 -0.5 1.4
-4 -10 -2 244.68 2.8
-4 -10 -2 248.18 2.9
-4 -10 -2 252.87 3.6
4 10 2 232.78 3.3
0 10 -3 76.99 1.8
0 -10 3 80.19 2.1
1 -10 3 373.06 3.6
2 -10 3 59.79 3.6
2 -10 3 54.79 3.8
2 -10 3 55.99 2
2 -10 3 64.19 2
3 -10 3 343.27 4.6
3 -10 3 167.78 3.8
3 -10 3 246.48 5.5
3 -10 3 285.97 4.1
3 9 -3 48.2 1.8
-3 -9 3 58.09 1.8
2 9 -3 516.65 4
-2 -9 3 464.25 3.8
1 9 -3 111.09 2
-1 -9 3 103.29 1.9
0 9 -3 443.46 3.6
0 -9 3 437.16 3.5
-1 9 -3 212.18 2.7
1 -9 3 235.18 2.8
2 -9 3 175.78 4.4
2 -9 3 151.78 2.3
2 -9 3 168.68 3.6
2 -9 3 190.58 2.5
3 -9 3 69.49 3
3 -9 3 168.38 3.4
3 -9 3 165.98 2.8
3 -9 3 177.58 2.7
4 -9 3 54.09 1.8
4 -9 3 57.89 2.3
4 -9 3 57.89 2.1
4 -9 3 67.79 2.1
5 -9 3 214.48 2.8
5 -9 3 222.38 4.7
5 -9 3 236.78 5.4
5 -9 3 231.48 3.2
4 8 -3 390.36 3.4
-4 -8 3 398.96 3.5
3 8 -3 -0.2 1.4
-3 -8 3 29.5 1.4
2 8 -3 565.14 3.8
-2 -8 3 569.04 3.8
1 8 -3 6.5 1.2
-1 -8 3 3.4 1.5
0 -8 3 529.35 3.7
0 8 -3 547.35 3.6
-1 8 -3 9.6 1
1 -8 3 4.3 1.4
2 -8 3 554.34 5
2 -8 3 526.35 3.9
2 -8 3 627.64 6.3
3 -8 3 103.49 2.1
3 -8 3 89.69 2.1
3 -8 3 89.49 2.3
3 -8 3 89.59 2.6
4 -8 3 304.57 3.4
4 -8 3 291.67 3.2
4 -8 3 359.16 4.3
4 -8 3 390.96 4.1
5 -8 3 268.97 2.9
5 -8 3 352.06 5.6
5 -8 3 273.67 3
5 -8 3 337.17 5.1
6 -8 3 171.08 2.4
5 7 -3 248.38 4.6
-5 -7 3 257.57 3
5 7 -3 178.78 2.9
4 7 -3 99.49 3.8
4 7 -3 108.69 4
4 7 -3 104.29 2.2
-4 -7 3 122.09 2.3
3 7 -3 248.18 2.7
-3 -7 3 249.88 3
-2 -7 3 249.78 2.5
2 7 -3 266.67 2.5
1 7 -3 163.98 2.3
-1 -7 3 152.18 2.3
0 7 -3 421.86 3.2
0 -7 3 413.26 3.3
1 -7 3 250.17 2.8
-1 7 -3 261.07 2.8
-2 7 -3 1046.7 5.2
2 -7 3 1038.4 6.2
2 -7 3 1026.6 5.5
2 -7 3 1102.49 7.7
3 -7 3 4.6 1.3
3 -7 3 5.7 1.5
3 -7 3 5.6 1.5
3 -7 3 1 1.3
4 -7 3 1083.69 6.8
4 -7 3 887.51 5.2
4 -7 3 1012.1 7.2
5 -7 3 15 1.4
5 -7 3 11.2 2.1
-5 7 -3 12.1 1.3
5 -7 3 11.8 2.4
6 -7 3 774.42 4.4
-6 7 -3 906.01 4.7
-7 7 -3 4.3 1.6
7 -7 3 4.4 1.1
-6 -6 3 4.3 1.7
6 6 -3 3.1 1.2
6 6 -3 3.6 1.5
-6 -6 3 4 1.3
-5 -6 3 494.95 4.8
5 6 -3 488.15 3.5
5 6 -3 523.55 5.3
-5 -6 3 535.55 3.8
-4 -6 3 35.2 1.8
4 6 -3 32.8 1.6
4 6 -3 33 1.9
-4 -6 3 16.5 1.7
3 6 -3 685.43 8
3 6 -3 720.93 8.1
-3 -6 3 662.33 4.1
3 6 -3 639.04 3.9
2 6 -3 254.57 2.6
-2 -6 3 239.38 2.4
1 6 -3 1023.5 4.7
-1 -6 3 985.7 4.5
0 6 -3 591.74 3.9
0 -6 3 545.65 3.7
1 -6 3 872.51 10
1 -6 3 806.02 4.6
1 -6 3 777.02 10.8
-1 6 -3 867.81 4.7
-2 6 -3 1141.49 5.6
2 -6 3 1175.38 6.5
2 -6 3 1173.58 5.9
2 -6 3 1314.47 8
3 -6 3 622.84 4.7
3 -6 3 554.44 4.4
3 -6 3 551.84 4.7
-3 6 -3 591.54 4.2
-4 6 -3 862.01 4.9
4 -6 3 757.32 4.7
4 -6 3 944.11 6.7
4 -6 3 887.91 7.3
-5 6 -3 -32.8 3.8
5 -6 3 404.16 3.3
-6 6 -3 816.72 4.3
6 -6 3 709.63 4.1
-7 6 -3 14 1.5
7 -6 3 11.8 1.1
-8 6 -3 298.07 2.8
8 -6 3 251.97 2.8
7 5 -3 148.79 2.3
7 5 -3 158.78 2.9
-7 -5 3 159.78 2.6
-7 -5 3 158.08 2.5
-6 -5 3 18.4 1.6
6 5 -3 30.8 1.4
6 5 -3 31.5 1.8
-6 -5 3 34.6 1.7
5 5 -3 384.96 3.1
-5 -5 3 406.46 3.3
5 5 -3 356.26 4.1
-5 -5 3 -15.7 4.1
4 5 -3 4.4 1.5
-4 -5 3 5 1.5
-4 -5 3 4 1.5
4 5 -3 6.3 1
-3 -5 3 1362.36 5.4
3 5 -3 1318.17 8.2
3 5 -3 1258.57 5
-3 -5 3 1360.46 7.9
2 5 -3 31.9 3.8
2 5 -3 24.5 3.7
2 5 -3 30.7 1.2
-2 -5 3 28.1 1.4
1 5 -3 2778.62 7.5
-1 -5 3 2857.11 7.8
0 5 -3 235.48 2.5
0 -5 3 220.58 2.7
1 -5 3 2283.77 14.2
-1 5 -3 2515.75 8.2
1 -5 3 2319.97 8.1
1 -5 3 2120.19 15.7
-2 5 -3 289.87 3.6
2 -5 3 299.87 4.2
2 -5 3 272.17 3.3
-2 5 -3 277.37 3.2
3 -5 3 1158.18 6.2
3 -5 3 1224.28 7.5
-3 5 -3 1291.77 6.2
4 -5 3 184.68 4.4
4 -5 3 161.58 2.4
4 -5 3 183.88 4
-4 5 -3 195.78 2.5
5 -5 3 343.07 2.9
-5 5 -3 391.96 3.1
6 -5 3 260.47 2.5
-6 5 -3 303.87 2.7
7 -5 3 126.59 2
-7 5 -3 156.88 2.1
8 -5 3 -47.7 2.9
-8 5 -3 339.27 2.9
-7 -4 3 85.49 2
-7 -4 3 74.79 1.9
7 4 -3 68.79 1.8
7 4 -3 76.89 2.2
-6 -4 3 196.08 2.4
-6 -4 3 -44.9 2.4
6 4 -3 3.4 2.8
6 4 -3 156.58 2.5
5 4 -3 280.17 2.8
-5 -4 3 -24 3.2
5 4 -3 281.37 3.4
-5 -4 3 310.07 2.7
-4 -4 3 322.37 3.6
4 4 -3 434.16 4.1
4 4 -3 428.16 3.3
-4 -4 3 452.35 3.2
-3 -4 3 1210.28 6.4
-3 -4 3 1269.47 5
3 4 -3 1206.68 7.5
3 4 -3 1244.98 5
2 4 -3 607.24 3.7
-2 -4 3 626.84 3.8
2 4 -3 562.94 6.4
2 4 -3 584.94 5.9
-1 -4 3 1081.29 5.1
1 4 -3 1051.49 4.9
0 4 -3 407.76 3.5
0 -4 3 378.96 3.3
-1 4 -3 1458.25 6.8
1 -4 3 1355.96 6.6
1 -4 3 1285.47 10.8
2 -4 3 173.78 3.2
-2 4 -3 174.78 2.9
2 -4 3 164.98 2.9
-2 4 -3 175.78 3
-3 4 -3 1318.57 8.4
3 -4 3 1396.46 6.8
3 -4 3 1388.56 9.3
-3 4 -3 1451.35 6.7
4 -4 3 12.1 1.5
-4 4 -3 7 1.5
5 -4 3 1249.28 5.4
-5 4 -3 1309.37 5.2
6 -4 3 19.1 1.6
-6 4 -3 10.2 1.1
7 -4 3 941.91 4.4
-7 4 -3 1091.29 4.5
8 -4 3 89.89 1.8
-8 4 -3 101.19 1.7
9 -4 3 336.37 2.9
-9 4 -3 -65.69 2.5
-7 -3 3 15.9 1.3
-7 -3 3 9.9 1.4
7 3 -3 12.9 1.6
7 3 -3 12.1 1.5
-6 -3 3 -43.9 4.1
-6 -3 3 685.33 4.1
6 3 -3 610.24 3.8
6 3 -3 331.97 4.3
-5 -3 3 137.59 2.2
-5 -3 3 164.38 2.2
5 3 -3 142.19 1.9
5 3 -3 154.68 2.5
4 3 -3 1994.6 7.9
-4 -3 3 1746.33 6.6
4 3 -3 1792.02 6
-4 -3 3 1918.61 6.3
-3 -3 3 232.08 2.8
3 3 -3 245.48 3.2
-3 -3 3 239.48 2.4
3 3 -3 224.88 2.4
2 3 -3 1255.97 5.4
2 3 -3 1414.56 8.5
-2 -3 3 1324.87 5.5
1 3 -3 174.18 4
1 3 -3 198.18 2.5
1 3 -3 201.88 5.2
-1 -3 3 192.48 2.7
0 3 -3 1191.28 6
0 -3 3 1167.38 5.9
1 -3 3 1018.6 8.4
-1 3 -3 1124.39 6.5
-1 3 -3 1111.89 10.3
1 -3 3 1066.69 6.3
2 -3 3 860.31 6.3
-2 3 -3 965.4 7.2
-2 3 -3 875.91 6.4
2 -3 3 909.01 6.8
-3 3 -3 4061.69 11.2
-3 3 -3 3118.09 17.3
3 -3 3 3554.54 19.1
3 -3 3 4302.57 11.8
-4 3 -3 103.19 1.9
4 -3 3 98.09 1.9
-5 3 -3 2153.78 6.5
5 -3 3 1946.61 6.2
6 -3 3 117.69 2
-6 3 -3 126.19 1.7
7 -3 3 1333.37 4.9
-7 3 -3 1448.06 5.1
-8 3 -3 0.5 1
8 -3 3 0.1 1.4
9 -3 3 445.26 3.5
-9 3 -3 521.15 3.4
-8 -2 3 231.08 2.8
8 2 -3 205.88 2.5
8 2 -3 99.09 2.7
-8 -2 3 231.18 2.8
-7 -2 3 99.59 1.7
7 2 -3 94.09 2
7 2 -3 94.19 1.9
-7 -2 3 115.89 2
-6 -2 3 -86.39 3.9
6 2 -3 546.15 3.5
-6 -2 3 624.64 3.8
6 2 -3 598.54 3.9
-5 -2 3 376.76 3.1
5 2 -3 421.46 3
-5 -2 3 466.05 3.1
5 2 -3 439.96 3.5
-4 -2 3 1468.65 5.6
-4 -2 3 1614.34 5.7
4 2 -3 1363.46 5.1
4 2 -3 1597.14 6.4
-3 -2 3 9.6 1.3
-3 -2 3 8.6 1.3
3 2 -3 10.3 1
3 2 -3 11 1.2
-2 -2 3 1023.9 5.1
2 2 -3 928.81 4.9
2 2 -3 974.6 6.1
1 2 -3 232.18 3.4
-1 -2 3 256.97 2.9
1 2 -3 246.38 2.9
1 2 -3 250.67 3.9
0 -2 3 2655.13 9.5
0 -2 3 2617.84 13.2
0 2 -3 2567.34 13.3
0 2 -3 2655.73 9.4
1 -2 3 1033.7 6.7
1 -2 3 1021 7.3
-1 2 -3 1038.5 8.4
-1 2 -3 976.2 7
-2 2 -3 4222.08 17.1
2 -2 3 4202.68 13
-2 2 -3 4156.48 14
2 -2 3 4015.2 15.6
-3 2 -3 1940.81 22.2
-3 2 -3 1837.12 7.8
3 -2 3 1781.12 7.5
4 -2 3 1697.93 6.5
-4 2 -3 1792.62 6.7
-5 2 -3 524.55 3.4
5 -2 3 528.85 3.6
6 -2 3 804.72 4.1
-6 2 -3 847.32 4
-6 2 -3 1024.3 12.3
-6 2 -3 815.82 12
7 -2 3 1050.09 4.5
-7 2 -3 1116.79 9.9
-7 2 -3 1113.19 4.5
8 -2 3 53.99 2.3
8 -2 3 57.69 1.6
-8 2 -3 66.49 2.8
-8 2 -3 62.29 1.4
9 -2 3 262.87 2.8
-9 2 -3 290.57 5.1
-9 2 -3 -58.69 2.5
-8 -1 3 59.29 1.8
8 1 -3 51.39 1.8
8 1 -3 47.6 1.7
-8 -1 3 54.99 1.7
-7 -1 3 447.66 3.2
-7 -1 3 453.65 3.4
7 1 -3 426.16 3.4
7 1 -3 402.16 3.1
-6 -1 3 136.49 1.8
-6 -1 3 151.88 2.1
6 1 -3 131.99 1.9
6 1 -3 139.39 2.1
-5 -1 3 950.8 4.4
-5 -1 3 780.32 4
5 1 -3 875.61 4.3
5 1 -3 861.41 4.5
-4 -1 3 639.84 3.7
-4 -1 3 644.84 3.8
4 1 -3 632.14 3.7
4 1 -3 639.34 3.8
-3 -1 3 381.96 3
3 1 -3 374.46 3.2
3 1 -3 353.46 2.9
-3 -1 3 364.16 3
-2 -1 3 1546.95 6.4
2 1 -3 1464.95 6.1
2 1 -3 1514.65 6.5
1 1 -3 1308.97 6.9
-1 -1 3 1292.37 6.4
1 1 -3 1327.57 6.6
1 1 -3 1301.17 6.4
0 -1 3 4138.19 13.4
0 1 -3 4293.87 13.9
0 -1 3 5253.47 13.8
0 1 -3 4776.82 13.6
-1 1 -3 208.88 3.5
1 -1 3 210.08 3.4
-1 1 -3 220.58 3.3
1 -1 3 215.58 3.2
2 -1 3 5039.9 16.5
-2 1 -3 4385.46 18
2 -1 3 4882.01 13.3
-2 1 -3 5353.96 14.4
3 -1 3 138.99 2.3
-3 1 -3 132.99 3.6
-3 1 -3 155.38 2.7
-3 1 -3 137.09 4
-4 1 -3 3071.99 15.5
-4 1 -3 3439.06 18.4
4 -1 3 3286.07 9
-4 1 -3 3364.06 9.2
5 -1 3 35.5 1.2
-5 1 -3 37.8 1.3
-5 1 -3 40.5 2.5
-5 1 -3 42.9 2
6 -1 3 1506.95 8.4
-6 1 -3 1831.12 10.7
6 -1 3 1629.74 5.7
-6 1 -3 1716.83 5.7
-7 1 -3 363.26 2.8
-7 1 -3 390.86 4.6
7 -1 3 302.57 3.7
7 -1 3 336.87 2.9
-8 1 -3 388.06 4.7
8 -1 3 322.07 2.8
-8 1 -3 346.67 2.6
8 -1 3 300.57 3.8
-9 1 -3 164.68 3.5
9 -1 3 -19.3 2
-9 1 -3 156.28 2.2
9 -1 3 133.99 2.9
10 -1 3 130.49 3.4
-10 1 -3 55.39 3.7
10 -1 3 140.09 2.4
-10 1 -3 -8.8 2.4
-8 0 3 -0.3 1.3
8 0 -3 -0.1 1.3
-8 0 3 2 1.6
8 0 -3 3 1.5
-7 0 3 476.05 3.3
-7 0 3 446.66 3.4
7 0 -3 412.36 3.3
7 0 -3 442.26 3.1
-6 0 3 41.2 1.5
6 0 -3 37.2 1.5
-6 0 3 35.4 1.6
6 0 -3 38.6 1.6
-5 0 3 820.92 3.8
5 0 -3 806.92 4.1
5 0 -3 830.12 3.9
-5 0 3 826.42 4.2
-4 0 3 226.08 2.1
-4 0 3 231.38 2.4
4 0 -3 213.38 2.3
4 0 -3 215.88 2.2
-3 0 3 3263.77 7.8
-3 0 3 2985.7 8.3
3 0 -3 3319.17 7.9
3 0 -3 3000.8 8.2
2 0 -3 1736.33 6.2
2 0 -3 1587.64 6.4
2 0 -3 1732.33 6.3
-2 0 3 1726.53 6.9
1 0 -3 3839.22 10.2
1 0 -3 3767.52 9.9
1 0 -3 3618.64 10.3
-1 0 3 3554.24 10.6
0 0 3 2690.93 9.7
0 0 -3 2813.92 9.4
0 0 3 2729.33 9.2
0 0 -3 2631.14 9.9
1 0 3 2135.09 8.4
-1 0 -3 2064.59 8.3
-1 0 -3 1928.71 8.9
1 0 3 2045.3 8.8
2 0 3 1597.94 8.2
-2 0 -3 1452.15 8.1
2 0 3 1395.86 6.7
-2 0 -3 1439.56 6.7
3 0 3 363.46 3.3
-3 0 -3 365.86 3.5
-3 0 -3 319.07 4
-3 0 -3 374.26 4.5
-4 0 -3 1293.37 5.5
-4 0 -3 1308.77 7.9
-4 0 -3 1415.86 7.6
4 0 3 1266.97 5.6
5 0 3 6.2 1.4
5 0 3 11.4 1
-5 0 -3 13.9 1.6
-5 0 -3 7.7 1
6 0 3 978.9 5.9
6 0 3 1136.29 4.9
-6 0 -3 1215.38 7.1
-6 0 -3 1177.78 4.9
7 0 3 0.5 1.3
7 0 3 0.4 1.4
-7 0 -3 1.8 1.3
-7 0 -3 2.2 1.4
-8 0 -3 919.31 4.2
8 0 3 832.72 5.4
8 0 3 888.41 4.3
-8 0 -3 1040.6 6.5
-9 0 -3 32.3 2.1
9 0 3 26.1 1.5
9 0 3 26.1 1.3
-9 0 -3 27.5 1.5
-10 0 -3 465.65 5.2
10 0 3 385.36 4.2
10 0 3 377.46 3.4
-10 0 -3 437.06 3.5
-8 1 3 64.09 1.8
-8 1 3 64.59 1.9
8 -1 -3 57.69 1.7
8 -1 -3 56.39 1.6
-7 1 3 474.85 3.1
7 -1 -3 426.76 3.3
7 -1 -3 457.35 3.5
-7 1 3 461.25 3.5
-6 1 3 91.69 2
-6 1 3 86.09 1.6
6 -1 -3 86.59 1.9
6 -1 -3 88.99 1.8
-5 1 3 1271.27 4.5
5 -1 -3 1207.98 5.1
-5 1 3 1265.67 5.3
5 -1 -3 1279.07 4.6
-4 1 3 217.68 2.2
4 -1 -3 206.28 2.2
4 -1 -3 202.28 2.5
-4 1 3 210.18 2.5
3 -1 -3 3174.68 8.4
-3 1 3 3288.47 8.6
3 -1 -3 3343.77 7.6
2 -1 -3 58.79 1.6
2 -1 -3 52.39 1.9
2 -1 -3 54.79 1.7
-2 1 3 53.59 1.7
1 -1 -3 2375.56 7.3
1 -1 -3 2226.18 7.8
-1 1 3 2225.98 8
0 1 3 123.09 2.4
0 -1 -3 110.89 2.1
0 -1 -3 108.39 1.9
0 1 3 140.99 2
-1 -1 -3 6962.2 14.6
1 1 3 6670.33 13.2
1 1 3 7179.18 14.7
-1 -1 -3 7261.77 14
-2 -1 -3 348.47 3.3
2 1 3 365.06 3.3
2 1 3 371.06 3.6
-2 -1 -3 347.57 3.5
-3 -1 -3 1215.88 6.4
-3 -1 -3 1342.07 5.7
-3 -1 -3 1473.55 7
3 1 3 1264.67 5.7
4 1 3 1199.78 5.3
-4 -1 -3 1225.28 5.3
-4 -1 -3 1164.18 6.3
5 1 3 863.71 4.2
5 1 3 840.42 5
-5 -1 -3 976.7 5.6
-5 -1 -3 862.21 4.3
-6 -1 -3 1136.69 6
6 1 3 1014.3 4.4
-6 -1 -3 1035.4 4.6
6 1 3 937.01 5.1
-7 -1 -3 464.55 3.2
7 1 3 441.96 3.4
7 1 3 459.55 3.1
-7 -1 -3 559.94 4.3
8 1 3 653.83 4.3
8 1 3 677.53 3.8
-8 -1 -3 759.12 3.8
-8 -1 -3 439.26 5.8
9 1 3 85.89 2
9 1 3 84.49 2
-9 -1 -3 87.89 1.8
-9 -1 -3 111.09 2.3
-10 -1 -3 253.57 3.4
10 1 3 206.68 2.5
10 1 3 221.18 3.1
-10 -1 -3 201.28 2.5
-8 2 3 191.48 2.4
8 -2 -3 181.08 2.7
8 -2 -3 163.98 2.4
-8 2 3 192.28 2.8
-7 2 3 143.19 2.2
7 -2 -3 -2.2 2.2
-7 2 3 132.59 2.1
7 -2 -3 129.89 2.1
-6 2 3 666.23 3.4
-6 2 3 625.44 3.9
6 -2 -3 586.04 3.5
6 -2 -3 578.84 3.8
-5 2 3 548.35 3
-5 2 3 497.45 3.4
5 -2 -3 541.05 3.1
5 -2 -3 510.35 3.6
4 -2 -3 819.62 4.4
4 -2 -3 760.82 3.5
-4 2 3 767.72 4.2
3 -2 -3 1066.59 5
-3 2 3 990.5 4.9
3 -2 -3 952 4
3 -2 -3 953.8 4.1
2 -2 -3 402.96 2.9
2 -2 -3 399.96 2.8
2 -2 -3 397.56 3.2
-2 2 3 404.56 3.4
-1 2 3 1612.44 6.3
-1 2 3 1583.54 5.5
1 -2 -3 1529.25 5.5
1 -2 -3 1535.15 6
0 -2 -3 1819.42 6.8
0 2 3 1755.82 6.1
0 -2 -3 1610.94 6.1
0 2 3 1793.22 6.9
1 2 3 4118.99 9.4
-1 -2 -3 4232.28 9.6
1 2 3 4154.28 10
-1 -2 -3 3807.52 9.8
-2 -2 -3 249.28 2.9
2 2 3 211.98 2.4
-2 -2 -3 231.28 2.6
-3 -2 -3 3326.27 8.5
-3 -2 -3 3333.27 9.2
3 2 3 3623.54 8.9
-3 -2 -3 3705.73 9.9
4 2 3 95.19 1.8
4 2 3 110.89 2.1
-4 -2 -3 110.89 2
-4 -2 -3 109.59 2.2
5 2 3 3733.13 8.6
-5 -2 -3 3799.52 9.8
-5 -2 -3 3439.66 8.3
5 2 3 3265.17 8.9
-6 -2 -3 107.19 1.6
6 2 3 113.99 1.8
-6 -2 -3 123.39 2.2
6 2 3 104.49 2
7 2 3 1064.79 5
7 2 3 1220.08 4.8
-7 -2 -3 1292.17 5.8
-7 -2 -3 1230.78 4.9
8 2 3 77.89 1.8
8 2 3 89.69 2
-8 -2 -3 87.09 1.9
-8 -2 -3 75.29 1.6
9 2 3 285.27 3.1
9 2 3 290.67 2.9
-9 -2 -3 62.49 3.7
-9 -2 -3 284.47 2.8
-8 3 3 250.07 3.4
8 -3 -3 237.28 3.2
8 -3 -3 240.88 2.8
7 -3 -3 0.6 1.5
7 -3 -3 8 1.4
-7 3 3 6.5 1.6
6 -3 -3 674.63 3.7
6 -3 -3 674.63 4.3
-6 3 3 681.83 4.2
5 -3 -3 50.39 1.5
-5 3 3 51.09 1.4
5 -3 -3 58.19 1.7
4 -3 -3 866.01 3.6
4 -3 -3 878.61 4.4
-4 3 3 875.41 4.4
4 -3 -3 871.21 3.7
-3 3 3 609.34 3.7
3 -3 -3 605.64 3.8
3 -3 -3 595.44 3.2
3 -3 -3 609.24 3.2
2 -3 -3 950.5 4
2 -3 -3 978.3 4.1
2 -3 -3 996.8 4.6
-2 3 3 1027.1 4.8
1 -3 -3 1190.78 4.7
-1 3 3 1217.58 5.3
-1 3 3 1126.99 4.5
1 -3 -3 1203.78 5.1
0 -3 -3 929.71 4.2
0 -3 -3 980.7 4.6
0 3 3 914.61 4.2
0 3 3 1029.1 4.8
-1 -3 -3 2385.36 7.2
-1 -3 -3 2352.26 6.8
1 3 3 2260.17 6.7
1 3 3 2626.84 7.5
-2 -3 -3 1017.7 4.8
-2 -3 -3 976.7 4.6
2 3 3 934.51 4.4
-2 -3 -3 861.01 4.4
-3 -3 -3 3014.6 8.1
-3 -3 -3 2640.34 7.2
3 3 3 2692.53 7.2
-3 -3 -3 2578.04 7.5
4 3 3 874.11 4.4
4 3 3 932.81 4.3
-4 -3 -3 948.91 4.4
-4 -3 -3 935.11 4.5
5 3 3 1774.92 6
-5 -3 -3 1849.81 6.2
5 3 3 1980.3 6.1
-5 -3 -3 1870.21 5.9
6 3 3 69.79 1.6
-6 -3 -3 67.89 1.7
-6 -3 -3 69.69 1.8
6 3 3 58.99 1.7
7 3 3 645.04 3.7
7 3 3 832.52 4.2
-7 -3 -3 808.62 4.3
-7 -3 -3 777.52 4
8 3 3 8.1 1.3
8 3 3 8.2 1.5
-8 -3 -3 10 1.2
-8 -3 -3 10.2 1.1
9 3 3 277.27 2.9
9 3 3 229.48 2.6
-9 -3 -3 260.97 2.7
-9 -3 -3 276.07 3.2
7 -4 -3 55.49 1.9
-7 4 3 51.09 1.6
7 -4 -3 42.1 1.6
7 -4 -3 45.6 1.4
-6 4 3 294.47 3
6 -4 -3 280.07 2.4
6 -4 -3 288.47 2.5
6 -4 -3 267.87 2.9
5 -4 -3 27.4 1.5
5 -4 -3 23.4 1
5 -4 -3 23.4 1
-5 4 3 27.4 1.4
4 -4 -3 836.12 3.7
-4 4 3 835.02 4.4
4 -4 -3 832.72 4.4
4 -4 -3 827.62 3.6
3 -4 -3 64.99 1.2
3 -4 -3 67.19 1.4
-3 4 3 75.39 1.8
3 -4 -3 66.49 1.3
2 -4 -3 1842.52 5.4
2 -4 -3 1969.9 6.1
2 -4 -3 1795.82 5.2
-2 4 3 2017.5 6.4
1 -4 -3 291.57 2.6
-1 4 3 291.37 2.6
1 -4 -3 267.67 2.2
0 -4 -3 2864.61 6.9
0 4 3 2898.51 7.1
0 -4 -3 2868.61 7.3
0 4 3 3232.68 8
-1 -4 -3 932.21 4.1
1 4 3 845.82 4
-1 -4 -3 937.81 4.4
-2 -4 -3 2357.06 6.8
-2 -4 -3 2622.04 6.9
-2 -4 -3 2682.83 7.2
2 4 3 2530.45 6.8
-3 -4 -3 572.34 3.3
3 4 3 566.94 3.3
-3 -4 -3 631.14 3.7
-3 -4 -3 529.85 3.3
4 4 3 907.51 4.1
-4 -4 -3 900.41 4.3
4 4 3 825.42 4
-4 -4 -3 890.01 4.2
5 4 3 527.75 3.3
-5 -4 -3 544.75 3.2
5 4 3 575.24 3.3
-5 -4 -3 567.24 3.5
-6 -4 -3 268.97 2.5
6 4 3 242.78 2.4
6 4 3 290.97 2.7
-6 -4 -3 277.57 2.5
7 4 3 408.66 3
-7 -4 -3 468.05 3.3
-7 -4 -3 491.95 3.3
7 4 3 508.05 3.4
-8 -4 -3 28.1 1.7
8 4 3 39.4 1.3
8 4 3 27 1.4
-8 -4 -3 32.4 1.3
9 4 3 319.27 3.1
9 4 3 259.07 3
-9 -4 -3 279.87 3.4
-9 -4 -3 270.07 2.8
7 -5 -3 83.19 2.1
7 -5 -3 80.39 2
7 -5 -3 81.19 1.7
-7 5 3 94.79 2
6 -5 -3 105.89 2.1
6 -5 -3 98.69 1.6
-6 5 3 112.49 2.1
6 -5 -3 91.99 1.7
5 -5 -3 216.78 2.3
-5 5 3 248.08 2.7
5 -5 -3 246.58 2.8
5 -5 -3 212.88 2.1
-4 5 3 746.93 4.2
4 -5 -3 679.53 3.3
4 -5 -3 713.03 3.5
4 -5 -3 706.23 4.1
-3 5 3 528.95 3.4
3 -5 -3 464.95 2.7
3 -5 -3 504.25 3.2
3 -5 -3 479.35 2.8
2 -5 -3 1305.97 4.5
2 -5 -3 1299.47 4.4
2 -5 -3 1397.46 5
-2 5 3 1361.46 5.2
1 -5 -3 460.85 3
1 -5 -3 434.16 2.8
-1 5 3 482.45 3.1
0 -5 -3 1479.95 4.8
0 5 3 1421.86 4.8
0 -5 -3 1524.35 5.2
1 5 3 85.29 1.4
-1 -5 -3 86.99 1.4
-1 -5 -3 92.99 1.7
-1 -5 -3 78.69 1.6
-2 -5 -3 775.62 3.8
-2 -5 -3 931.51 4.2
-2 -5 -3 919.61 4
2 5 3 867.41 3.9
-3 -5 -3 26.2 1.3
-3 -5 -3 23 1
3 5 3 25 1
-3 -5 -3 25.7 1.1
4 5 3 1037.2 4.3
-4 -5 -3 1042.7 4.6
-4 -5 -3 1002.3 4.2
4 5 3 963.3 4.2
-5 -5 -3 163.98 2.1
5 5 3 173.08 2.1
5 5 3 151.08 1.9
-5 -5 -3 179.18 2.3
-6 -5 -3 710.13 3.8
6 5 3 735.73 4
-6 -5 -3 764.62 3.9
6 5 3 687.73 3.8
7 5 3 142.89 2.1
-7 -5 -3 164.98 2.3
7 5 3 155.98 2.1
-7 -5 -3 161.18 2
8 5 3 465.35 3.4
-8 -5 -3 474.85 3.6
-8 -5 -3 437.26 3.3
8 5 3 402.86 3.1
9 5 3 146.69 2.1
9 5 3 174.98 2.3
-9 -5 -3 -9.7 2.7
-9 -5 -3 150.28 2.2
6 -6 -3 45.2 1.7
6 -6 -3 39.6 1.5
-6 6 3 48.3 1.7
6 -6 -3 39.2 1.6
5 -6 -3 817.22 4.8
5 -6 -3 690.43 3.9
-5 6 3 447.66 5
5 -6 -3 745.43 4
4 -6 -3 217.18 2
4 -6 -3 227.58 2.1
4 -6 -3 228.08 2.6
-4 6 3 252.97 2.7
-3 6 3 1109.59 5
3 -6 -3 1063.39 4.7
3 -6 -3 1026.3 3.9
3 -6 -3 1045.7 4.1
2 -6 -3 308.37 2.4
2 -6 -3 310.57 2.5
2 -6 -3 285.97 2.1
-2 6 3 318.77 2.9
1 -6 -3 781.72 3.5
1 -6 -3 708.93 3.3
1 -6 -3 788.42 3.8
0 6 3 602.04 3.3
0 -6 -3 579.84 3.2
0 -6 -3 542.05 3.3
0 -6 -3 609.14 3.3
-1 -6 -3 327.37 2.6
-1 -6 -3 271.77 2.3
-1 -6 -3 320.77 2.5
1 6 3 311.27 2.4
2 6 3 1387.16 4.9
-2 -6 -3 1502.15 5.1
-2 -6 -3 1281.07 4.6
-2 -6 -3 1473.95 5
-3 -6 -3 27.9 1.1
-3 -6 -3 30.7 1.1
3 6 3 29.9 1.3
-3 -6 -3 35.5 1.2
4 6 3 1252.17 4.8
-4 -6 -3 1271.57 5
-4 -6 -3 1331.57 4.9
-5 -6 -3 3.4 0.9
-5 -6 -3 0.9 1.3
5 6 3 0.4 1.2
5 6 3 2.3 1.2
6 6 3 512.25 3.5
-6 -6 -3 553.44 3.6
6 6 3 551.14 3.5
-6 -6 -3 562.14 3.4
7 6 3 3.2 1.3
7 6 3 1.3 1
-7 -6 -3 0.7 1.4
-7 -6 -3 3.5 1.4
-8 -6 -3 540.85 4
8 6 3 523.85 4.1
-8 -6 -3 507.35 4
8 6 3 65.59 3.8
6 -7 -3 43.3 1.4
6 -7 -3 43.7 1.6
-6 7 3 54.49 1.9
6 -7 -3 49.6 1.9
5 -7 -3 613.94 3.6
5 -7 -3 662.13 4.5
-5 7 3 738.73 4.7
5 -7 -3 681.33 3.8
4 -7 -3 2.6 1.1
-4 7 3 2.1 1.3
4 -7 -3 5.4 0.9
4 -7 -3 3.9 1.2
-3 7 3 593.94 3.7
3 -7 -3 494.55 3.1
3 -7 -3 532.95 3.3
3 -7 -3 -25.3 3.6
2 -7 -3 51.19 1.3
2 -7 -3 60.79 1.5
2 -7 -3 55.99 1.3
2 -7 -3 54.69 1.2
1 -7 -3 556.64 3.1
1 -7 -3 572.74 3.1
1 -7 -3 509.75 3.1
1 -7 -3 610.74 3.3
0 -7 -3 424.96 2.8
0 -7 -3 375.06 2.6
0 -7 -3 374.26 2.8
0 7 3 383.96 2.6
-1 -7 -3 558.94 3.2
-1 -7 -3 567.14 3.1
-1 -7 -3 598.84 3.2
1 7 3 559.74 3.2
2 7 3 692.33 3.7
-2 -7 -3 778.62 3.9
-2 -7 -3 803.02 3.8
-2 -7 -3 693.93 3.6
3 7 3 488.95 3.2
-3 -7 -3 623.74 3.6
-3 -7 -3 563.54 3.4
-3 -7 -3 541.95 3.4
4 7 3 434.66 3.1
-4 -7 -3 525.65 3.3
-4 -7 -3 448.36 3.1
-4 -7 -3 465.85 3.3
5 7 3 223.38 2.4
-5 -7 -3 211.88 2.3
-5 -7 -3 213.58 2.3
6 7 3 272.97 2.7
6 7 3 312.27 2.8
-6 -7 -3 299.97 3.1
-6 -7 -3 290.17 2.7
7 7 3 -0.9 1.8
7 7 3 84.99 2.1
-7 -7 -3 83.39 1.9
-7 -7 -3 93.49 2.1
5 -8 -3 147.29 2.1
5 -8 -3 151.88 2.4
5 -8 -3 159.78 2.2
4 -8 -3 64.19 1.4
4 -8 -3 55.09 1.8
4 -8 -3 64.29 1.6
4 -8 -3 -10.1 1.7
3 -8 -3 346.37 2.7
3 -8 -3 329.27 3
3 -8 -3 326.67 3
3 -8 -3 374.66 2.8
2 -8 -3 44.9 1.4
2 -8 -3 37.3 1.4
2 -8 -3 37 1.3
2 -8 -3 39 1.2
1 -8 -3 701.93 3.6
1 -8 -3 595.74 3.5
1 -8 -3 661.83 3.4
1 -8 -3 679.63 3.6
0 -8 -3 12.9 1.4
0 -8 -3 16.3 1.3
0 -8 -3 22.6 1
1 8 3 827.92 4
-1 -8 -3 859.21 4.2
-1 -8 -3 883.01 4.1
-1 -8 -3 910.21 4.1
-2 -8 -3 39.8 1.6
2 8 3 37.7 1.2
-2 -8 -3 43 1.4
-2 -8 -3 45.7 1.5
-3 -8 -3 933.81 4.3
3 8 3 807.42 4.2
-3 -8 -3 844.82 4.3
-3 -8 -3 943.01 4.5
-4 -8 -3 4.4 1.2
4 8 3 5.8 1.1
-4 -8 -3 6.1 0.9
-4 -8 -3 6.5 1.3
5 8 3 441.36 3.3
-5 -8 -3 411.46 3.1
-5 -8 -3 483.65 3.5
-5 -8 -3 493.15 3.3
6 8 3 52.39 1.7
-6 -8 -3 50.79 1.4
-6 -8 -3 52.89 1.8
7 8 3 166.78 2.5
-7 -8 -3 171.58 2.6
-7 -8 -3 167.98 2.3
7 8 3 157.38 2.2
4 -9 -3 222.68 2.6
4 -9 -3 223.28 2.9
4 -9 -3 263.97 3
4 -9 -3 230.08 2.7
3 -9 -3 -30.4 2.2
3 -9 -3 182.28 2.6
3 -9 -3 197.48 2.3
3 -9 -3 172.98 2.5
2 -9 -3 338.07 2.7
2 -9 -3 351.76 2.9
2 -9 -3 352.86 3.1
2 -9 -3 357.96 2.9
1 -9 -3 -31 3.5
1 -9 -3 460.75 3.4
1 -9 -3 474.85 3.1
1 -9 -3 518.65 3.3
0 -9 -3 344.67 2.8
0 -9 -3 331.17 2.7
0 -9 -3 324.27 3
0 -9 -3 341.97 2.7
1 9 3 570.54 3.5
-1 -9 -3 519.45 3.6
-1 -9 -3 558.84 3.5
-1 -9 -3 529.35 3.3
2 9 3 213.48 2.4
-2 -9 -3 196.18 2.4
-2 -9 -3 205.68 2.3
-2 -9 -3 237.98 2.5
3 9 3 326.17 2.8
-3 -9 -3 334.07 3
-3 -9 -3 359.96 3.1
-3 -9 -3 351.66 3
-4 -9 -3 16 1.2
4 9 3 17.4 1.3
-4 -9 -3 20.2 1.4
-4 -9 -3 16.3 1.4
5 9 3 212.78 2.7
-5 -9 -3 207.88 2.5
-5 -9 -3 216.78 2.8
-5 -9 -3 249.28 2.5
2 -10 -3 361.66 3.4
2 -10 -3 413.06 3.3
2 -10 -3 399.36 3.6
2 -10 -3 404.56 3.4
1 -10 -3 50.89 1.5
1 -10 -3 42.3 1.5
1 -10 -3 49.5 1.5
1 -10 -3 49.5 1.6
0 -10 -3 377.76 3.2
0 -10 -3 352.36 3.2
0 -10 -3 331.67 2.9
0 -10 -3 343.97 3
-1 -10 -3 70.69 1.7
-1 -10 -3 62.89 1.6
-1 -10 -3 71.29 1.7
-1 -10 -3 64.29 1.9
2 10 3 176.58 2.4
-2 -10 -3 172.18 2.4
-2 -10 -3 168.28 2.4
-2 -10 -3 157.88 2.1
-3 -10 -3 167.18 2.2
-3 -10 -3 177.98 2.4
3 10 3 156.18 2.3
-3 -10 -3 161.38 2.5
4 10 3 54.09 1.6
-4 -10 -3 43 1.8
-4 -10 -3 54.69 1.8
-4 -10 -3 65.89 1.6
2 9 -4 41.1 1.7
-2 -9 4 55.99 1.7
1 9 -4 571.44 4.1
-1 -9 4 583.84 4.2
0 9 -4 4.1 1.6
0 -9 4 5.1 1.7
-1 9 -4 394.36 3.4
1 -9 4 347.77 3.3
-2 9 -4 1.3 1.3
2 -9 4 -0.3 1.4
3 -9 4 324.97 4.7
3 -9 4 337.77 3.9
3 -9 4 304.87 3.8
3 -9 4 310.37 5.4
4 -9 4 10 1.7
4 -9 4 7.4 1.8
4 -9 4 2.5 2
4 -9 4 11.3 1.9
5 -9 4 325.27 6
5 -9 4 264.77 3.5
5 -9 4 226.18 3.7
5 -9 4 287.97 5.7
3 8 -4 161.98 2.4
-3 -8 4 170.08 2.3
2 8 -4 315.97 3.1
-2 -8 4 319.27 3.1
1 8 -4 -2 2.7
-1 -8 4 182.48 2.5
0 8 -4 238.08 2.7
0 -8 4 215.48 2.5
-1 8 -4 321.47 2.9
1 -8 4 297.97 3
-2 8 -4 67.89 1.6
2 -8 4 65.99 1.9
3 -8 4 587.94 6.1
3 -8 4 605.44 4.8
3 -8 4 565.04 5
3 -8 4 682.93 4.7
4 -8 4 17.8 1.8
4 -8 4 13.4 1.6
4 -8 4 13.4 1.5
4 -8 4 13.7 2
5 -8 4 553.04 7.9
5 -8 4 556.34 7.1
5 -8 4 435.66 4
5 -8 4 388.76 4
6 -8 4 0.3 1.4
4 7 -4 445.16 3.5
-4 -7 4 430.46 3.6
3 7 -4 1.4 1.6
-3 -7 4 -0.3 1.6
2 7 -4 386.46 3.1
-2 -7 4 53.39 3.6
-1 -7 4 19.8 1.2
1 7 -4 23.5 1.3
0 7 -4 942.11 4.7
0 -7 4 873.01 4.6
-1 7 -4 914.71 4.9
1 -7 4 873.51 4.8
2 -7 4 556.94 7.1
2 -7 4 596.74 6.6
2 -7 4 574.94 4.3
-2 7 -4 590.94 4.2
3 -7 4 617.44 4.8
3 -7 4 584.54 5.6
-3 7 -4 595.24 4.4
3 -7 4 553.34 4.8
-4 7 -4 472.35 4.1
4 -7 4 473.05 4.2
4 -7 4 511.45 4.8
4 -7 4 496.35 5.2
-5 7 -4 516.05 3.9
5 -7 4 522.25 11.2
5 -7 4 435.16 3.6
5 -7 4 506.75 10.6
-6 7 -4 243.28 2.9
6 -7 4 199.08 2.8
-7 7 -4 319.07 3.3
7 -7 4 288.87 3.1
5 6 -4 167.78 3.8
5 6 -4 171.88 3.2
5 6 -4 173.18 2.5
-5 -6 4 180.98 2.4
4 6 -4 324.27 4.6
4 6 -4 295.97 2.9
4 6 -4 301.27 4.8
-4 -6 4 314.27 3.1
3 6 -4 68.39 1.6
-3 -6 4 78.89 1.8
2 6 -4 572.54 3.5
-2 -6 4 606.64 3.6
1 6 -4 44 1.9
-1 -6 4 42.7 1.5
0 -6 4 1854.11 6.5
0 6 -4 2029.4 6.8
-1 6 -4 21.2 1.7
1 -6 4 20.3 1.3
-2 6 -4 1201.78 6
2 -6 4 1165.48 8.6
2 -6 4 1184.08 7.9
2 -6 4 1256.47 5.9
-3 6 -4 2.2 1.3
-3 6 -4 5.6 1.3
3 -6 4 4 1.5
3 -6 4 8.6 1.5
-4 6 -4 1539.85 6.6
4 -6 4 1492.75 9.2
4 -6 4 1498.85 8.4
4 -6 4 1358.46 6.7
5 -6 4 201.18 2.5
-5 6 -4 244.38 2.6
-6 6 -4 484.45 3.4
6 -6 4 433.26 3.4
7 -6 4 115.39 1.9
-7 6 -4 125.39 2
8 -6 4 -19.8 2.3
-8 6 -4 178.58 2.5
-6 -5 4 56.39 1.9
6 5 -4 45.9 2.1
6 5 -4 45.8 1.9
-5 -5 4 267.67 2.7
5 5 -4 242.18 3.5
5 5 -4 213.28 2.7
4 5 -4 235.98 3.7
4 5 -4 247.48 2.4
-4 -5 4 271.27 2.5
4 5 -4 267.47 3.4
3 5 -4 584.14 6.1
3 5 -4 517.15 3.4
3 5 -4 578.44 5.4
-3 -5 4 546.45 3.6
2 5 -4 911.21 4.4
-2 -5 4 1006.3 4.6
1 5 -4 845.72 4.2
-1 -5 4 831.22 4.2
0 5 -4 1327.17 5.6
0 -5 4 1291.47 5.5
-1 5 -4 698.73 4.4
1 -5 4 630.74 4.2
-2 5 -4 643.64 5.8
-2 5 -4 628.24 4.6
2 -5 4 614.24 4.5
2 -5 4 558.14 5.6
-3 5 -4 257.17 3.4
3 -5 4 249.97 3.3
-3 5 -4 270.97 3.4
3 -5 4 263.67 3.5
4 -5 4 956.1 8
4 -5 4 885.61 8.4
4 -5 4 824.32 4.9
-4 5 -4 893.51 5.1
5 -5 4 2.8 1.2
-5 5 -4 4.9 0.9
6 -5 4 490.55 3.5
-6 5 -4 536.85 3.5
7 -5 4 1.1 1.4
-7 5 -4 12.6 1.3
-8 5 -4 505.85 3.6
8 -5 4 437.16 3.5
9 -5 4 23.2 1.3
-9 5 -4 28.3 1.4
-6 -4 4 16.2 1.3
-6 -4 4 17.2 1.3
6 4 -4 18.5 1.7
6 4 -4 20 1.3
5 4 -4 854.91 4.5
5 4 -4 909.01 5.8
-5 -4 4 967.9 4.7
-4 -4 4 6.7 1.1
4 4 -4 2.9 1.5
4 4 -4 3.1 1.5
3 4 -4 1504.35 7.1
3 4 -4 1362.86 5.2
3 4 -4 1459.65 8
-3 -4 4 1490.65 5.4
2 4 -4 101.19 3.1
2 4 -4 91.89 1.6
-2 -4 4 92.69 1.6
2 4 -4 91.69 2.5
1 4 -4 1677.73 6.1
-1 -4 4 1719.23 6.1
0 4 -4 127.79 2.3
0 -4 4 115.49 2.2
-1 4 -4 1036.9 5.5
1 -4 4 965.2 10.2
1 -4 4 955.1 5.2
-1 4 -4 1004.3 11.8
2 -4 4 319.17 3.5
2 -4 4 279.97 3.7
-2 4 -4 324.77 4.4
-2 4 -4 328.37 3.6
3 -4 4 784.32 6.4
-3 4 -4 807.02 6.3
3 -4 4 753.12 5.2
-3 4 -4 799.92 5.3
4 -4 4 584.84 11.1
4 -4 4 545.35 4
4 -4 4 588.84 11.3
-4 4 -4 545.45 3.8
5 -4 4 524.45 3.7
-5 4 -4 534.55 3.6
-6 4 -4 1038.6 4.7
6 -4 4 925.21 4.6
7 -4 4 149.29 2
-7 4 -4 25.9 2.6
8 -4 4 572.04 3.8
-8 4 -4 651.83 3.8
9 -4 4 16.4 1.1
-9 4 -4 22.9 1.4
-7 -3 4 233.68 2.7
7 3 -4 230.88 2.7
7 3 -4 245.08 3.2
-7 -3 4 275.27 3.1
-6 -3 4 327.57 3
6 3 -4 318.77 3
-6 -3 4 375.46 3.2
6 3 -4 332.67 3.4
-5 -3 4 673.93 4
5 3 -4 677.23 4.1
5 3 -4 744.43 4.8
-5 -3 4 737.73 4.2
-4 -3 4 194.88 2.4
4 3 -4 183.18 2.4
4 3 -4 205.58 2.9
-3 -3 4 1071.39 4.5
3 3 -4 1019.1 5.3
3 3 -4 1027.1 4.6
3 3 -4 1087.09 6.4
-2 -3 4 543.65 3.5
2 3 -4 542.15 4.4
2 3 -4 570.64 3.6
2 3 -4 606.64 5.6
-1 -3 4 2039.4 6.7
1 3 -4 2036.7 10.1
1 3 -4 2023.9 6.8
1 3 -4 2204.78 12.1
0 3 -4 116.59 3.6
0 -3 4 110.09 2.2
0 3 -4 106.59 3.6
0 3 -4 113.29 2
1 -3 4 1904.21 9.9
1 -3 4 2067.99 7.8
-1 3 -4 1958.5 7.8
-1 3 -4 2075.69 12.6
2 -3 4 81.29 2.2
-2 3 -4 94.19 2.5
-2 3 -4 91.39 2.6
2 -3 4 80.19 2.2
-3 3 -4 1939.11 8.1
3 -3 4 1790.22 7.6
3 -3 4 1823.52 9.9
-3 3 -4 2031.7 11.3
4 -3 4 423.06 3.4
-4 3 -4 441.36 3.6
5 -3 4 1754.02 6.3
-5 3 -4 1843.12 6.4
6 -3 4 376.36 3
-6 3 -4 403.56 3
7 -3 4 922.01 4.4
-7 3 -4 1020.9 4.3
8 -3 4 178.68 2.3
-8 3 -4 181.98 2.1
-9 3 -4 -46.5 2.2
9 -3 4 -11.3 2.3
-7 -2 4 30.6 1.4
-7 -2 4 28.8 1.5
7 2 -4 28.3 1.5
7 2 -4 25.9 1.4
-6 -2 4 457.25 3.4
-6 -2 4 401.76 3.1
6 2 -4 386.96 3.1
6 2 -4 424.36 3.5
-5 -2 4 351.66 3
-5 -2 4 313.87 2.7
5 2 -4 298.17 2.5
5 2 -4 329.27 3
-4 -2 4 254.97 2.6
4 2 -4 221.88 2.4
4 2 -4 250.77 2.7
-3 -2 4 575.04 3.5
3 2 -4 615.34 3.8
3 2 -4 534.65 3.3
3 2 -4 581.44 4.2
2 2 -4 459.45 3.3
-2 -2 4 504.55 3.5
2 2 -4 495.65 4.1
2 2 -4 485.95 3.7
1 2 -4 1325.07 6.8
-1 -2 4 1415.36 5.8
1 2 -4 1372.46 6
1 2 -4 1388.46 7.1
0 -2 4 152.88 2.3
0 2 -4 138.19 2.8
0 2 -4 152.88 2.4
0 -2 4 141.99 2.6
1 -2 4 2730.53 9.2
1 -2 4 2684.43 10
-1 2 -4 2609.04 10.8
-1 2 -4 2679.53 9.7
2 -2 4 109.29 2.4
2 -2 4 94.99 2
-2 2 -4 99.49 2.4
-2 2 -4 102.29 2.7
3 -2 4 1994.9 7.6
3 -2 4 2051.09 10.1
-3 2 -4 2078.09 8
-3 2 -4 1945.81 11.8
4 -2 4 148.69 2.1
-4 2 -4 145.59 8.1
-4 2 -4 184.68 8.8
-4 2 -4 168.48 2.6
5 -2 4 1573.94 5.9
-5 2 -4 1507.45 5.8
6 -2 4 141.69 2.1
-6 2 -4 151.78 1.9
7 -2 4 554.94 3.3
-7 2 -4 598.64 3.4
-8 2 -4 16.1 1.5
8 -2 4 18.6 1.6
9 -2 4 215.68 2.6
-9 2 -4 229.18 2.4
10 -2 4 28.7 1.3
-10 2 -4 3 1.6
-7 -1 4 48.5 1.7
7 1 -4 45.7 1.6
-7 -1 4 55.59 1.6
7 1 -4 48.4 1.5
-6 -1 4 472.85 3.1
-6 -1 4 517.35 3.7
6 1 -4 461.75 3.4
6 1 -4 488.95 3.4
-5 -1 4 30.8 1.3
-5 -1 4 38.6 1.6
5 1 -4 33 1.6
5 1 -4 34.5 1.6
-4 -1 4 671.23 3.8
4 1 -4 599.84 3.5
4 1 -4 675.23 4
3 1 -4 18.9 1.4
3 1 -4 22.8 1.1
3 1 -4 20 1.1
-3 -1 4 21.5 1.4
-2 -1 4 1105.19 5.1
2 1 -4 1136.89 5.2
2 1 -4 1169.78 5.4
2 1 -4 1153.98 5.1
1 1 -4 372.96 3.3
-1 -1 4 381.16 3.4
1 1 -4 372.06 3.3
1 1 -4 376.16 3.5
0 1 -4 2137.99 8.1
0 1 -4 2039.8 7.9
0 -1 4 2120.89 7.9
0 -1 4 2185.18 7.8
-1 1 -4 1037.1 6.4
-1 1 -4 1100.19 5.9
1 -1 4 1039.5 5.6
1 -1 4 1030.4 5.7
2 -1 4 2957.1 9.1
-2 1 -4 2891.71 9.4
2 -1 4 2941.61 10.2
-2 1 -4 2787.62 11.1
3 -1 4 1322.87 5.9
-3 1 -4 1183.48 7.9
-3 1 -4 1333.07 6.1
3 -1 4 1457.25 7.8
-4 1 -4 2278.27 12
4 -1 4 2254.57 7.1
-4 1 -4 2343.17 7.4
-4 1 -4 2182.08 11.5
5 -1 4 841.92 4.3
-5 1 -4 923.61 8.5
-5 1 -4 913.11 4.6
-5 1 -4 901.11 7.5
-6 1 -4 303.97 4.3
6 -1 4 258.47 2.4
-6 1 -4 279.17 2.6
-6 1 -4 301.27 5
-7 1 -4 642.74 6.6
-7 1 -4 661.13 5.7
7 -1 4 507.85 3.3
-7 1 -4 530.25 3.3
-8 1 -4 27.4 1.8
-8 1 -4 27.6 2
-8 1 -4 20.4 1.1
8 -1 4 22.8 1.5
-9 1 -4 374.16 5.2
-9 1 -4 422.06 5.7
9 -1 4 325.97 2.8
-9 1 -4 351.26 2.8
-10 1 -4 37.1 2.3
-10 1 -4 37.3 2.5
10 -1 4 23.8 1.7
-10 1 -4 24.1 1.4
-7 0 4 125.99 2.3
7 0 -4 129.29 2.1
7 0 -4 137.59 2.3
-6 0 4 374.26 2.8
-6 0 4 436.06 3.3
6 0 -4 377.76 3.1
6 0 -4 396.06 2.9
-5 0 4 202.78 2.3
5 0 -4 194.88 2.5
5 0 -4 196.18 2.3
-4 0 4 1339.77 5.2
4 0 -4 1244.78 4.9
4 0 -4 1362.16 5
3 0 -4 290.07 2.4
-3 0 4 268.07 2.6
3 0 -4 297.57 2.6
3 0 -4 246.38 2.5
2 0 -4 3668.23 8.9
2 0 -4 4231.68 8.9
-2 0 4 4059.69 9.6
2 0 -4 4250.27 8.9
1 0 -4 18 1.3
-1 0 4 18.8 1.4
1 0 -4 20.4 1.4
1 0 -4 18.8 1.3
0 0 4 3689.53 9.6
0 0 -4 3867.91 9.9
0 0 4 3840.32 10.2
0 0 -4 3994.2 10.4
1 0 4 2.5 0.8
-1 0 -4 1.9 1.1
1 0 4 21.2 1.5
-1 0 -4 4.7 1.6
2 0 4 2994.7 9.5
-2 0 -4 2970.9 8.6
-2 0 -4 2651.33 9.5
2 0 4 2948.7 8.4
3 0 4 349.87 3.6
3 0 4 292.47 2.8
-3 0 -4 299.17 3.4
-3 0 -4 300.17 2.8
4 0 4 1667.43 6.1
-4 0 -4 1537.85 7.7
-4 0 -4 1568.44 5.8
-4 0 -4 1673.03 7.9
-5 0 -4 826.32 5.9
5 0 4 769.32 4.1
-5 0 -4 874.61 5.6
-5 0 -4 746.63 4
-6 0 -4 837.82 5.4
6 0 4 769.42 3.9
-6 0 -4 859.91 5.9
-6 0 -4 753.72 3.8
-7 0 -4 885.71 4.2
7 0 4 831.32 4.1
-7 0 -4 974 6.2
-7 0 -4 1013.2 5.9
8 0 4 470.95 3.2
-8 0 -4 506.95 3.1
-8 0 -4 550.94 5.3
-9 0 -4 475.75 5
9 0 4 355.26 2.9
-9 0 -4 408.56 3
10 0 4 121.09 2
-10 0 -4 155.48 3.7
-10 0 -4 172.88 3.3
-10 0 -4 136.69 2.3
-7 1 4 318.57 3.3
7 -1 -4 310.37 3.1
7 -1 -4 309.47 2.9
6 -1 -4 154.48 2.3
-6 1 4 174.08 2.2
6 -1 -4 177.08 2.2
-5 1 4 818.02 4.4
5 -1 -4 822.32 3.9
5 -1 -4 765.62 4.2
4 -1 -4 937.21 3.7
-4 1 4 897.11 4.4
4 -1 -4 878.11 3.9
4 -1 -4 894.01 4.2
3 -1 -4 830.92 4.2
3 -1 -4 809.72 3.7
-3 1 4 797.62 4.2
3 -1 -4 851.31 3.8
2 -1 -4 1213.18 4.6
2 -1 -4 1194.58 4.5
2 -1 -4 1214.08 5.2
-2 1 4 1215.68 5.2
1 -1 -4 448.86 3.1
1 -1 -4 414.16 3.4
-1 1 4 431.56 3.3
0 1 4 659.53 3.8
0 -1 -4 674.63 4
0 -1 -4 701.53 3.9
0 1 4 698.63 4.2
1 1 4 25 1.4
-1 -1 -4 22.7 1.4
1 1 4 22.7 1.3
-1 -1 -4 31.4 1.7
2 1 4 1784.92 6.9
-2 -1 -4 1596.14 6.6
-2 -1 -4 1618.54 6
2 1 4 1568.34 5.9
3 1 4 15.7 1.3
-3 -1 -4 13.1 1.1
-3 -1 -4 14 1.3
3 1 4 14.9 1.5
-4 -1 -4 1326.17 5.3
-4 -1 -4 1322.97 6.2
4 1 4 1381.26 5.4
-4 -1 -4 1499.15 6.5
5 1 4 1.3 1.1
-5 -1 -4 1.8 1
-5 -1 -4 3.4 1.2
-5 -1 -4 4.8 1
6 1 4 1592.44 5.3
-6 -1 -4 1737.03 7.3
-6 -1 -4 1678.03 5.5
-6 -1 -4 1815.32 6.9
7 1 4 41.8 1.3
-7 -1 -4 51.59 1.8
-7 -1 -4 44.4 1.3
8 1 4 685.03 4.4
8 1 4 764.52 4.1
-8 -1 -4 716.13 3.9
-8 -1 -4 907.11 5.5
9 1 4 47.5 1.7
9 1 4 50.89 1.7
-9 -1 -4 49.2 1.5
-9 -1 -4 64.89 2.1
-10 -1 -4 221.88 4
10 1 4 223.28 2.5
-10 -1 -4 181.68 2.6
7 -2 -4 239.58 3.5
7 -2 -4 121.29 4.3
7 -2 -4 490.55 3.4
-7 2 4 569.84 4.2
6 -2 -4 2.6 1.3
-6 2 4 3.8 1.4
6 -2 -4 2.3 1.4
6 -2 -4 4.2 1.1
5 -2 -4 1065.99 4.1
-5 2 4 1028.6 4.7
5 -2 -4 1020.2 4.1
5 -2 -4 991.4 4.5
4 -2 -4 9.6 1.4
4 -2 -4 6.5 1
-4 2 4 4.1 1.4
4 -2 -4 15.6 1.2
3 -2 -4 1204.28 4.3
3 -2 -4 1317.17 5.1
-3 2 4 1303.87 5.3
3 -2 -4 1199.78 4.3
2 -2 -4 13.9 1.1
2 -2 -4 14.1 0.9
2 -2 -4 8.9 1.3
-2 2 4 9.2 1.1
1 -2 -4 1049.2 4.3
-1 2 4 1062.29 4.9
-1 2 4 998.8 4.2
1 -2 -4 1009.5 4.5
0 -2 -4 1172.88 4.7
0 2 4 1270.37 5.2
0 2 4 1169.68 4.6
0 -2 -4 1185.48 5
-1 -2 -4 1296.27 5.4
1 2 4 1190.58 4.7
-1 -2 -4 1286.77 5
1 2 4 1333.77 5.4
2 2 4 2375.16 7.1
-2 -2 -4 2141.99 6.5
2 2 4 2127.79 6.5
-2 -2 -4 2155.68 6.9
3 2 4 792.32 3.9
-3 -2 -4 900.81 4.7
-3 -2 -4 832.52 4.2
-3 -2 -4 782.52 4.3
-4 -2 -4 1311.37 5.1
-4 -2 -4 1548.95 6
4 2 4 1226.78 4.8
-4 -2 -4 1310.07 5.6
5 2 4 802.92 4
-5 -2 -4 733.33 3.7
-5 -2 -4 786.82 4.5
-5 -2 -4 814.22 4.4
6 2 4 1275.77 4.8
-6 -2 -4 1257.27 4.8
-6 -2 -4 1328.27 5.7
7 2 4 281.97 2.8
-7 -2 -4 355.16 2.8
7 2 4 346.47 2.7
-7 -2 -4 371.86 3.3
8 2 4 671.53 4
8 2 4 812.12 4.2
-8 -2 -4 885.41 5
-8 -2 -4 800.32 4.1
9 2 4 15.4 1.4
9 2 4 18.9 1.6
-9 -2 -4 17.5 1.6
-9 -2 -4 20.5 1.6
-10 -2 -4 241.08 2.9
-10 -2 -4 333.07 3.9
10 2 4 242.58 3.1
10 2 4 253.47 2.8
-7 3 4 235.08 2.9
7 -3 -4 220.18 2.5
7 -3 -4 182.88 2.3
7 -3 -4 217.28 2.9
6 -3 -4 169.58 2.1
6 -3 -4 171.38 2.3
6 -3 -4 172.18 2.3
-6 3 4 176.48 2.2
-5 3 4 408.16 3.3
5 -3 -4 405.56 2.7
5 -3 -4 406.16 2.8
5 -3 -4 440.46 3.3
-4 3 4 200.18 2.3
4 -3 -4 207.38 2.2
4 -3 -4 208.58 1.9
4 -3 -4 205.38 2
-3 3 4 852.11 4.2
3 -3 -4 819.02 3.5
3 -3 -4 782.62 3.9
3 -3 -4 763.22 3.4
2 -3 -4 26.8 0.9
2 -3 -4 26 1.1
-2 3 4 31.2 1.2
2 -3 -4 26.3 1.1
-1 3 4 1824.22 5.4
1 -3 -4 1855.21 5.5
-1 3 4 2055.89 6.3
1 -3 -4 1939.51 6
0 -3 -4 71.39 1.5
0 3 4 68.59 1.5
0 -3 -4 68.29 1.5
0 3 4 80.09 1.8
1 3 4 4558.14 8.7
-1 -3 -4 4653.73 8.8
-1 -3 -4 4882.91 9.6
1 3 4 5241.08 9.9
-2 -3 -4 7.6 1
2 3 4 19.7 1.3
-2 -3 -4 7.6 0.9
2 3 4 11.6 1.1
-3 -3 -4 2424.76 6.8
-3 -3 -4 2560.24 6.7
-3 -3 -4 2773.62 7.4
3 3 4 2507.25 6.7
-4 -3 -4 246.58 2.4
-4 -3 -4 235.68 2.4
4 3 4 238.88 2.2
-4 -3 -4 291.37 2.5
5 3 4 1661.73 5.5
-5 -3 -4 1686.03 5.5
-5 -3 -4 1853.81 6.2
-5 -3 -4 1995.6 6.3
-6 -3 -4 504.85 3.3
6 3 4 540.35 3.1
-6 -3 -4 519.95 3.1
7 3 4 409.46 3.1
7 3 4 554.34 3.3
-7 -3 -4 515.85 3.6
-7 -3 -4 514.05 3.1
8 3 4 429.56 3.2
8 3 4 563.04 3.7
-8 -3 -4 589.34 3.9
-8 -3 -4 532.85 3.6
9 3 4 61.49 1.5
9 3 4 76.49 1.6
-9 -3 -4 68.69 2.1
-9 -3 -4 71.09 1.8
7 -4 -4 21.7 1.3
-7 4 4 22.1 1.6
7 -4 -4 20.2 1.5
7 -4 -4 23.1 1.7
6 -4 -4 276.77 2.5
-6 4 4 266.57 3
6 -4 -4 242.88 2.3
6 -4 -4 275.47 3
5 -4 -4 203.48 2.4
5 -4 -4 176.88 2
-5 4 4 175.88 2.3
5 -4 -4 163.28 1.8
4 -4 -4 336.37 2.5
4 -4 -4 341.47 2.6
-4 4 4 360.76 2.9
4 -4 -4 358.86 2.9
3 -4 -4 679.23 3.3
-3 4 4 714.23 3.9
3 -4 -4 693.63 3.8
3 -4 -4 702.43 3.3
2 -4 -4 517.15 2.8
2 -4 -4 517.45 2.8
2 -4 -4 565.84 3.3
-2 4 4 598.34 3.5
-1 4 4 1807.52 5.8
-1 4 4 1571.24 4.9
1 -4 -4 1684.63 5
1 -4 -4 1749.82 5.6
0 4 4 1461.75 4.8
0 -4 -4 1524.95 4.8
0 -4 -4 1548.65 5.2
0 4 4 1704.73 5.5
1 4 4 2157.78 5.8
1 4 4 2486.05 6.6
-1 -4 -4 2332.37 6.1
-1 -4 -4 2333.07 6.4
-2 -4 -4 338.07 2.6
2 4 4 367.66 2.5
-2 -4 -4 387.76 2.7
-2 -4 -4 374.96 2.8
-3 -4 -4 1752.12 5.7
3 4 4 1617.14 5.2
-3 -4 -4 1512.45 5.2
-3 -4 -4 1636.24 5.2
-4 -4 -4 148.49 2.1
-4 -4 -4 132.99 1.8
-4 -4 -4 128.09 1.7
4 4 4 131.09 1.8
-5 -4 -4 1347.67 4.9
-5 -4 -4 1196.28 4.6
5 4 4 1208.98 4.5
-5 -4 -4 1172.48 4.5
-6 -4 -4 49.4 1.7
6 4 4 50.39 1.7
-6 -4 -4 44.8 1.5
7 4 4 480.55 3.2
-7 -4 -4 511.55 3.4
7 4 4 384.96 2.8
-7 -4 -4 467.65 3.2
8 4 4 80.59 1.8
8 4 4 67.39 1.7
-8 -4 -4 76.99 1.7
-8 -4 -4 74.49 1.8
9 4 4 96.89 2.8
9 4 4 263.47 3
-9 -4 -4 280.67 3.2
-9 -4 -4 -32.2 3
6 -5 -4 426.16 3.7
6 -5 -4 374.26 2.9
6 -5 -4 362.26 2.8
-6 5 4 407.26 3.7
5 -5 -4 9 1.3
5 -5 -4 6.5 1.2
-5 5 4 7.2 1.2
5 -5 -4 8.8 0.9
4 -5 -4 826.52 3.7
4 -5 -4 912.41 4.4
4 -5 -4 875.11 3.9
-4 5 4 918.61 4.4
-3 5 4 118.19 1.9
3 -5 -4 107.89 1.5
3 -5 -4 116.19 1.9
3 -5 -4 110.29 1.6
2 -5 -4 1513.85 4.7
-2 5 4 1666.63 5.6
2 -5 -4 1623.04 5.3
2 -5 -4 1448.26 4.5
1 -5 -4 316.77 2.3
1 -5 -4 353.66 2.6
-1 5 4 383.66 2.8
0 -5 -4 1039.7 4.2
0 -5 -4 971.2 3.8
0 5 4 992.1 3.9
0 5 4 1105.79 4.4
-1 -5 -4 278.67 2.2
-1 -5 -4 258.07 2.2
1 5 4 258.87 2.1
-2 -5 -4 675.23 3.4
2 5 4 774.52 3.5
-2 -5 -4 799.62 3.5
-2 -5 -4 776.62 3.7
3 5 4 602.94 3.2
-3 -5 -4 541.05 3
-3 -5 -4 624.74 3.4
-3 -5 -4 596.14 3.1
-4 -5 -4 257.27 2.2
-4 -5 -4 249.28 2.3
-4 -5 -4 277.17 2.4
4 5 4 270.37 2.3
-5 -5 -4 965.5 4.1
-5 -5 -4 1089.59 4.5
5 5 4 996.8 4.3
-5 -5 -4 948.51 4.2
6 5 4 78.59 1.7
-6 -5 -4 75.89 1.5
-6 -5 -4 88.19 1.7
7 5 4 678.03 3.7
7 5 4 789.92 4.1
-7 -5 -4 784.62 4
-7 -5 -4 787.52 4
8 5 4 36.3 1.6
-8 -5 -4 48.2 1.7
8 5 4 48 1.7
-8 -5 -4 42 1.7
9 5 4 275.87 2.9
9 5 4 282.37 3.2
-9 -5 -4 300.07 3.2
-9 -5 -4 335.57 3.3
6 -6 -4 157.58 2.5
6 -6 -4 150.88 2.1
-6 6 4 164.08 2.7
6 -6 -4 141.59 2.2
5 -6 -4 123.39 1.8
5 -6 -4 144.69 2.4
-5 6 4 137.59 2.1
5 -6 -4 122.49 1.8
4 -6 -4 561.64 3.3
4 -6 -4 580.44 3.3
4 -6 -4 579.64 3.7
-4 6 4 628.44 3.8
3 -6 -4 67.59 1.3
3 -6 -4 69.69 1.4
-3 6 4 74.09 1.6
3 -6 -4 68.99 1.3
2 -6 -4 928.71 3.7
2 -6 -4 889.01 3.7
2 -6 -4 900.21 4
-2 6 4 962.6 4.3
1 -6 -4 60.99 1.2
1 -6 -4 61.99 1.3
1 -6 -4 68.79 1.4
-1 6 4 67.29 1.4
0 6 4 898.41 3.7
0 -6 -4 938.91 3.8
0 -6 -4 909.91 3.6
-1 -6 -4 3.1 1
-1 -6 -4 4.5 0.7
1 6 4 3.8 1.1
-1 -6 -4 3.6 0.8
-2 -6 -4 1289.17 4.6
-2 -6 -4 1073.49 4.2
2 6 4 1175.18 4.3
-2 -6 -4 1256.97 4.5
3 6 4 296.07 2.3
-3 -6 -4 292.77 2.3
-3 -6 -4 315.57 2.5
-3 -6 -4 345.47 2.6
-4 -6 -4 709.43 3.6
4 6 4 645.64 3.4
-4 -6 -4 656.13 3.5
-4 -6 -4 627.44 3.3
5 6 4 214.78 2.1
-5 -6 -4 241.28 2.2
-5 -6 -4 217.88 2.3
-5 -6 -4 256.47 2.4
6 6 4 1088.09 4.8
-6 -6 -4 1082.29 4.7
-6 -6 -4 1122.49 4.6
-6 -6 -4 1217.68 5
7 6 4 313.47 2.9
-7 -6 -4 295.87 2.7
-7 -6 -4 312.07 2.9
-8 -6 -4 226.88 2.8
8 6 4 238.08 2.8
-8 -6 -4 217.28 2.9
-5 7 4 235.58 3
5 -7 -4 197.28 2.1
5 -7 -4 218.18 2.9
5 -7 -4 206.88 2.3
4 -7 -4 168.38 1.9
-4 7 4 200.08 2.5
4 -7 -4 97.29 2.4
4 -7 -4 16.7 2.2
-3 7 4 151.78 2.1
3 -7 -4 141.19 1.7
3 -7 -4 148.79 2
3 -7 -4 134.29 1.7
2 -7 -4 -10.4 2.2
-2 7 4 223.98 2.3
2 -7 -4 199.78 2
2 -7 -4 204.18 1.9
1 -7 -4 133.19 1.8
1 -7 -4 128.49 1.7
1 -7 -4 145.59 1.8
0 -7 -4 732.03 3.7
0 7 4 793.62 3.7
0 -7 -4 782.12 3.5
0 -7 -4 862.91 3.8
-1 -7 -4 19.7 1
1 7 4 18.9 1.1
-1 -7 -4 14.6 0.8
-1 -7 -4 11.4 1.3
-2 -7 -4 999.3 4.2
2 7 4 1097.99 4.2
-2 -7 -4 1155.08 4.3
-2 -7 -4 869.01 4.6
-3 -7 -4 3.5 1
-3 -7 -4 -0.9 1.3
3 7 4 1.6 1
-3 -7 -4 2 1
4 7 4 889.11 4.1
-4 -7 -4 895.81 4.2
-4 -7 -4 955.4 4.3
-4 -7 -4 1038.7 4.4
-5 -7 -4 110.99 1.9
5 7 4 120.79 1.7
-5 -7 -4 115.49 1.9
-5 -7 -4 125.79 2
6 7 4 846.12 4.3
-6 -7 -4 857.31 4.4
-6 -7 -4 729.33 4.4
-6 -7 -4 925.71 4.7
-7 -7 -4 13.8 1.2
7 7 4 11.6 1.2
-7 -7 -4 11.4 1.4
-7 -7 -4 11.7 1.1
8 7 4 149.19 2.5
-8 -7 -4 115.19 2.6
-8 -7 -4 172.48 2.6
4 -8 -4 20.5 1.3
4 -8 -4 21 1.4
4 -8 -4 18.4 1.4
-4 8 4 24.9 1.5
3 -8 -4 190.58 2.1
3 -8 -4 210.68 2.3
3 -8 -4 16.4 2.3
2 -8 -4 57.09 1.4
2 -8 -4 61.99 1.4
2 -8 -4 10.8 1.8
2 -8 -4 58.79 1.3
1 -8 -4 399.46 2.7
1 -8 -4 365.36 3
1 -8 -4 439.36 3
1 -8 -4 401.46 2.8
0 -8 -4 260.97 2.4
0 -8 -4 269.17 2.2
0 -8 -4 269.57 2.3
-1 -8 -4 490.55 2.9
-1 -8 -4 462.85 3.1
-1 -8 -4 518.45 3
1 8 4 496.55 3
-2 -8 -4 489.55 3
-2 -8 -4 475.25 2.9
-2 -8 -4 462.65 3.2
2 8 4 467.75 3
3 8 4 361.46 2.7
-3 -8 -4 319.27 2.6
-3 -8 -4 393.96 2.9
-3 -8 -4 379.86 2.8
4 8 4 364.46 2.8
-4 -8 -4 379.16 2.8
-4 -8 -4 423.36 3.1
-4 -8 -4 368.06 2.7
-5 -8 -4 124.79 2.1
5 8 4 108.19 1.7
-5 -8 -4 112.69 2
-5 -8 -4 113.39 1.8
-6 -8 -4 246.68 2.7
6 8 4 261.47 2.8
-6 -8 -4 272.07 2.9
-6 -8 -4 242.38 2.4
-7 -8 -4 1.1 1.4
-7 -8 -4 1.9 1.5
7 8 4 3.2 1.2
-7 -8 -4 0.7 1.3
3 -9 -4 395.76 3.1
3 -9 -4 343.87 3.5
3 -9 -4 392.96 3.5
3 -9 -4 390.86 3.1
2 -9 -4 1.5 1
2 -9 -4 1 1
2 -9 -4 2 1.1
2 -9 -4 1.4 1.2
1 -9 -4 591.64 3.4
1 -9 -4 563.64 3.8
1 -9 -4 537.35 3.3
1 -9 -4 623.24 3.6
0 -9 -4 3.7 0.9
0 -9 -4 5.7 1
0 -9 -4 2.4 1
0 -9 -4 1.9 1
-1 -9 -4 582.54 3.6
-1 -9 -4 654.43 3.7
-1 -9 -4 651.63 3.6
1 9 4 646.84 3.7
2 9 4 25.9 1.1
-2 -9 -4 25.7 1.6
-2 -9 -4 28.3 1.2
-2 -9 -4 28.3 1.3
3 9 4 339.07 2.9
-3 -9 -4 324.77 2.8
-3 -9 -4 362.86 3
-3 -9 -4 348.17 3.1
4 9 4 84.39 1.8
-4 -9 -4 99.79 1.8
-4 -9 -4 76.79 1.7
-4 -9 -4 87.89 1.9
5 9 4 106.09 1.9
-5 -9 -4 115.89 1.9
-5 -9 -4 123.09 2.2
-5 -9 -4 126.19 2
2 -10 -4 75.39 1.9
2 -10 -4 74.49 1.7
2 -10 -4 71.79 1.8
2 -10 -4 77.49 1.8
1 -10 -4 117.19 2
1 -10 -4 119.49 2
1 -10 -4 94.29 1.9
1 -10 -4 105.89 1.8
0 -10 -4 43.3 1.4
0 -10 -4 43 1.5
0 -10 -4 45.1 1.5
0 -10 -4 49.5 1.6
-1 -10 -4 211.68 2.8
-1 -10 -4 186.28 2.3
-1 -10 -4 214.98 2.6
2 10 4 1.5 1.2
-2 -10 -4 4.9 1.3
-2 -10 -4 1.6 1.4
-2 -10 -4 1.2 1.2
3 10 4 199.08 2.6
-3 -10 -4 201.58 2.6
-3 -10 -4 204.78 2.4
-3 -10 -4 191.68 2.5
4 10 4 6.2 1.3
-4 -10 -4 4 1.4
-4 -10 -4 6 1.3
-4 -10 -4 4.7 1.1
1 9 -5 292.77 3.3
-1 -9 5 289.27 3.3
0 9 -5 85.99 2.3
0 -9 5 75.59 1.9
-1 9 -5 194.78 2.8
1 -9 5 180.78 2.6
-2 9 -5 157.48 2.5
2 -9 5 155.38 2.4
3 -9 5 89.59 2.5
4 -9 5 320.57 4.8
4 -9 5 263.07 4.3
4 -9 5 284.67 4.9
4 -9 5 312.87 4.4
3 8 -5 262.67 3.3
-3 -8 5 354.96 3.5
2 8 -5 16.4 1.8
-2 -8 5 0.1 1.4
1 8 -5 302.77 3
-1 -8 5 281.57 3
0 8 -5 2.4 1.4
0 -8 5 3.6 1
1 -8 5 364.86 3.4
-1 8 -5 385.46 3.4
-2 8 -5 32.9 1.5
2 -8 5 16.8 1.7
-3 8 -5 370.96 3.7
3 -8 5 383.26 5.4
3 -8 5 353.96 5.9
3 -8 5 406.46 4
4 -8 5 247.18 3.9
4 -8 5 224.38 3.4
4 -8 5 240.68 3.7
4 -8 5 265.87 3.7
5 -8 5 183.78 5.8
5 -8 5 240.58 3.5
5 -8 5 306.17 5.8
-6 8 -5 229.08 3.2
6 -8 5 165.28 2.9
-4 -7 5 157.68 2.7
4 7 -5 158.68 2.4
3 7 -5 131.49 2.2
-3 -7 5 143.49 2.5
2 7 -5 178.18 2.3
-2 -7 5 188.88 2.5
1 7 -5 482.15 3.5
-1 -7 5 478.95 3.7
0 7 -5 118.09 2.2
0 -7 5 99.09 1.8
-1 7 -5 840.82 4.6
1 -7 5 794.62 4.5
-2 7 -5 13.5 1.1
2 -7 5 12.3 1.4
3 -7 5 1010 6
3 -7 5 935.11 6.7
-3 7 -5 1018.9 5.7
3 -7 5 954.6 7.3
-4 7 -5 30.1 1.8
4 -7 5 32 1.9
4 -7 5 35.1 2.1
4 -7 5 32.5 1.9
-5 7 -5 901.11 5.3
5 -7 5 833.42 13.1
5 -7 5 750.52 5
5 -7 5 821.32 13.1
-6 7 -5 -0.4 1.3
6 -7 5 1.9 1.3
-7 7 -5 336.57 3.3
7 -7 5 283.37 3.3
-5 -6 5 5 1.3
5 6 -5 5.5 1.6
5 6 -5 1.9 1.7
5 6 -5 7.1 2.1
-4 -6 5 410.96 3.5
4 6 -5 371.66 5.8
4 6 -5 348.87 3.1
4 6 -5 387.66 6.4
3 6 -5 67.29 1.7
-3 -6 5 3.5 1.9
2 6 -5 769.32 4.2
-2 -6 5 809.12 4.3
1 6 -5 522.15 3.7
-1 -6 5 511.45 3.4
0 6 -5 617.14 3.9
0 -6 5 538.45 3.6
-1 6 -5 1108.69 5.4
1 -6 5 1025.5 5
2 -6 5 601.64 8.4
2 -6 5 595.74 8.4
-2 6 -5 640.84 4.5
2 -6 5 621.84 4.3
-3 6 -5 1128.39 7.5
3 -6 5 1197.18 6.5
-3 6 -5 1182.28 6.4
3 -6 5 1155.78 7.2
4 -6 5 374.36 4.5
4 -6 5 343.07 3.7
-4 6 -5 394.66 3.9
5 -6 5 596.64 4.3
-5 6 -5 736.93 4.5
6 -6 5 20.4 1.5
-6 6 -5 19.7 1.5
7 -6 5 340.47 3.3
-7 6 -5 388.96 3.4
8 -6 5 -0.7 1.3
-8 6 -5 2 1.3
-5 -5 5 50.09 1.5
5 5 -5 42.6 1.8
5 5 -5 38 1.8
5 5 -5 41.4 2.3
-4 -5 5 692.83 4.1
4 5 -5 670.03 5.4
4 5 -5 592.54 3.9
4 5 -5 574.34 5.9
-3 -5 5 12.2 1.1
3 5 -5 5.3 1.9
3 5 -5 14.7 1.5
3 5 -5 14.5 2.1
-2 -5 5 1542.35 5.6
2 5 -5 1500.35 5.5
1 5 -5 14.4 1.7
-1 -5 5 11.8 1.7
0 5 -5 2106.09 6.9
0 -5 5 2013.4 6.6
1 -5 5 125.89 2.2
-1 5 -5 140.49 2.1
2 -5 5 1798.32 7.3
2 -5 5 1648.94 9.3
-2 5 -5 1802.42 7.5
-2 5 -5 1836.22 10.9
3 -5 5 213.78 3
-3 5 -5 216.78 3.1
3 -5 5 206.08 3
-3 5 -5 229.48 3.2
4 -5 5 495.85 5.4
-4 5 -5 498.15 5.3
4 -5 5 495.15 4
-4 5 -5 513.55 4
5 -5 5 384.06 3.5
-5 5 -5 406.66 3.4
6 -5 5 167.48 2.2
-6 5 -5 200.08 2.5
7 -5 5 401.36 3.3
-7 5 -5 471.65 3.3
8 -5 5 111.59 2.2
-8 5 -5 129.99 2
6 4 -5 103.29 2.3
6 4 -5 105.09 1.9
6 4 -5 15.4 2.6
-6 -4 5 112.19 2.1
5 4 -5 297.67 3.2
-5 -4 5 336.57 3.2
5 4 -5 301.77 3
5 4 -5 344.57 3.8
-4 -4 5 593.74 3.7
4 4 -5 520.75 4.2
4 4 -5 523.05 3.4
4 4 -5 598.54 5.1
-3 -4 5 355.16 2.9
3 4 -5 353.56 3.5
3 4 -5 348.97 3
3 4 -5 375.16 4.5
-2 -4 5 811.72 4.3
2 4 -5 808.02 6
2 4 -5 719.73 3.9
2 4 -5 812.32 7.3
-1 -4 5 283.37 2.5
1 4 -5 266.17 5.6
1 4 -5 288.87 2.5
1 4 -5 303.87 6.8
0 -4 5 1211.28 5.3
0 4 -5 1177.98 5.1
1 -4 5 169.58 2.4
1 -4 5 148.89 3.9
-1 4 -5 160.38 2.3
-1 4 -5 159.88 4.9
2 -4 5 1100.29 5.8
2 -4 5 1042.7 6.5
-2 4 -5 1166.08 6.1
-2 4 -5 1108.69 7.8
3 -4 5 15.5 1.5
3 -4 5 12.4 1.4
-3 4 -5 15 1.8
-3 4 -5 12.7 1.5
-4 4 -5 1745.83 10.9
4 -4 5 1641.54 6.7
-4 4 -5 1672.93 6.9
4 -4 5 1662.33 10.1
5 -4 5 101.09 1.8
-5 4 -5 104.49 2
6 -4 5 1086.29 4.9
-6 4 -5 1121.09 5.1
7 -4 5 115.59 2.1
-7 4 -5 125.49 2
8 -4 5 583.94 3.7
-8 4 -5 644.64 3.7
9 -4 5 71.09 1.7
-9 4 -5 83.69 1.8
6 3 -5 11.1 1.4
-6 -3 5 7.1 1.2
6 3 -5 9.2 1.5
6 3 -5 11.2 1.5
5 3 -5 804.02 4.5
-5 -3 5 840.32 4.5
5 3 -5 379.16 4.4
5 3 -5 828.32 5.2
4 3 -5 11.6 1.3
-4 -3 5 14.7 1.1
4 3 -5 8.6 1.4
4 3 -5 11.6 1.5
-3 -3 5 1126.69 5.1
3 3 -5 1088.69 5.3
3 3 -5 1013.9 4.6
3 3 -5 1191.18 6.5
-2 -3 5 103.19 1.7
2 3 -5 108.19 2.2
2 3 -5 94.69 1.8
2 3 -5 102.69 2.5
-1 -3 5 759.12 4
1 3 -5 823.02 5.7
1 3 -5 756.82 4.2
1 3 -5 808.22 6.4
0 3 -5 455.75 4.9
0 -3 5 447.96 3.4
0 3 -5 427.96 4.9
0 3 -5 419.66 3.3
1 -3 5 718.03 4.4
1 -3 5 682.23 5.3
-1 3 -5 701.13 6.4
-1 3 -5 688.13 4.5
2 -3 5 1580.34 7
2 -3 5 1584.44 7
-2 3 -5 1689.93 8.6
-2 3 -5 1619.04 7.4
3 -3 5 377.36 3.4
3 -3 5 397.26 4
-3 3 -5 430.86 4.6
-3 3 -5 423.16 4
4 -3 5 2693.23 12.9
4 -3 5 2543.65 8
-4 3 -5 2789.92 15.1
-4 3 -5 2642.74 8.6
5 -3 5 240.58 2.7
-5 3 -5 238.38 2.7
6 -3 5 1608.74 5.8
-6 3 -5 1717.43 5.9
7 -3 5 27.8 1.3
-7 3 -5 34 1.6
-8 3 -5 758.52 4.1
8 -3 5 652.23 4
9 -3 5 0.8 1.3
-9 3 -5 0.4 1.3
6 2 -5 177.08 2.3
-6 -2 5 181.98 2.3
6 2 -5 132.69 2.1
6 2 -5 168.98 2.5
5 2 -5 541.45 3.4
-5 -2 5 528.85 3.7
5 2 -5 484.15 3.5
5 2 -5 524.15 3.8
4 2 -5 170.28 2.2
-4 -2 5 172.48 2.3
4 2 -5 153.08 2.2
4 2 -5 166.08 2.4
3 2 -5 924.01 4.5
3 2 -5 870.91 4.2
3 2 -5 926.41 5.1
-3 -2 5 956 4.5
-2 -2 5 13.3 1.3
2 2 -5 11.1 1.2
2 2 -5 13.5 1.4
2 2 -5 12.2 1.3
-1 -2 5 2390.46 7.1
1 2 -5 2368.76 7.4
1 2 -5 2574.94 8.4
1 2 -5 2511.15 8.5
0 -2 5 206.28 2.5
0 2 -5 195.08 2.7
0 -2 5 202.68 2.7
0 2 -5 192.48 2.4
1 -2 5 3111.69 9.5
1 -2 5 3256.27 9.1
-1 2 -5 3139.49 10.1
-1 2 -5 3109.59 9.5
2 -2 5 778.02 4.7
2 -2 5 779.22 4.8
-2 2 -5 734.63 4.9
-2 2 -5 739.83 5.4
3 -2 5 1725.73 6.6
-3 2 -5 1910.51 7.3
3 -2 5 1870.11 8
-3 2 -5 1607.34 8.9
4 -2 5 295.37 2.7
4 -2 5 334.97 4.3
-4 2 -5 310.67 3
-4 2 -5 283.07 4.8
5 -2 5 1482.95 5.6
-5 2 -5 1397.46 22
-5 2 -5 1523.45 5.8
-5 2 -5 1586.64 22.6
6 -2 5 1235.28 4.9
-6 2 -5 1257.77 5
7 -2 5 218.08 2.4
-7 2 -5 228.58 2.4
8 -2 5 395.36 3.1
-8 2 -5 465.35 3.2
9 -2 5 32.8 1.3
-9 2 -5 37.1 1.3
10 -2 5 234.98 2.6
-10 2 -5 189.68 2.7
7 1 -5 50.29 1.7
-7 -1 5 63.39 2
7 1 -5 51.09 1.9
7 1 -5 47.3 1.8
6 1 -5 306.57 2.8
-6 -1 5 322.57 3.1
6 1 -5 274.27 2.8
6 1 -5 303.47 2.9
-5 -1 5 165.18 2.1
5 1 -5 158.28 2.1
5 1 -5 143.89 2
5 1 -5 158.78 2.3
4 1 -5 139.49 1.9
4 1 -5 118.09 1.9
-4 -1 5 138.89 2.1
4 1 -5 133.49 1.9
3 1 -5 578.74 3.4
-3 -1 5 583.44 3.5
3 1 -5 532.85 3.3
3 1 -5 563.14 3.4
2 1 -5 648.64 3.8
-2 -1 5 619.24 3.7
2 1 -5 564.94 3.6
2 1 -5 635.74 3.8
1 1 -5 2644.84 7.7
1 1 -5 2628.24 7.7
-1 -1 5 2574.64 7.5
1 1 -5 2420.06 7.6
0 1 -5 353.16 3.3
0 1 -5 337.87 3.1
0 -1 5 351.66 3.1
0 -1 5 332.77 3
-1 1 -5 2637.34 8.7
-1 1 -5 2676.13 8.2
1 -1 5 2708.53 8
1 -1 5 2731.33 8.3
2 -1 5 184.28 2.4
-2 1 -5 196.58 3
-2 1 -5 182.78 2.5
2 -1 5 191.18 2.6
-3 1 -5 1400.06 7.4
3 -1 5 1583.34 5.9
3 -1 5 1743.53 7.2
-3 1 -5 1512.95 6.1
4 -1 5 40.8 1.7
4 -1 5 40 1.6
-4 1 -5 35 2
-4 1 -5 41.2 1.6
-5 1 -5 1669.53 9.6
5 -1 5 1763.62 5.7
-5 1 -5 1700.63 5.8
-5 1 -5 1557.64 9.2
-6 1 -5 187.78 3.9
-6 1 -5 181.28 3.5
-6 1 -5 164.48 1.9
6 -1 5 165.98 2.1
7 -1 5 316.77 2.7
-7 1 -5 355.16 4.7
-7 1 -5 331.07 2.8
-7 1 -5 371.06 5.6
-8 1 -5 34.9 2.4
8 -1 5 30.8 1.5
-8 1 -5 39.7 1.6
-8 1 -5 35.9 2
-9 1 -5 355.66 6.3
9 -1 5 296.97 2.9
-9 1 -5 315.57 2.8
-9 1 -5 334.87 5.6
-10 1 -5 243.08 2.7
10 -1 5 214.48 2.5
-10 1 -5 227.38 5.7
-10 1 -5 257.47 5.7
7 0 -5 0 1
7 0 -5 0.8 1.4
-7 0 5 1.5 1.6
7 0 -5 4.5 1.1
6 0 -5 388.66 2.9
-6 0 5 437.06 3.2
6 0 -5 359.46 3.1
6 0 -5 398.66 3.2
5 0 -5 127.69 1.7
-5 0 5 25.9 2.4
5 0 -5 122.49 2.1
5 0 -5 120.29 2
-4 0 5 1156.48 4.7
4 0 -5 1199.48 4.5
4 0 -5 1140.09 4.7
4 0 -5 1100.39 4.6
3 0 -5 460.85 3
-3 0 5 432.96 3
3 0 -5 411.26 2.8
3 0 -5 439.76 3
2 0 -5 2484.55 6.9
2 0 -5 2715.33 6.9
-2 0 5 2606.94 7.2
2 0 -5 2659.63 6.8
1 0 -5 1130.89 4.6
1 0 -5 1165.68 4.7
1 0 -5 1093.09 4.8
-1 0 5 1115.29 4.9
0 0 5 1420.26 5.4
0 0 -5 1489.45 5.9
0 0 5 1559.74 5.9
0 0 -5 1600.84 5.8
1 0 5 879.91 4.3
-1 0 -5 852.31 4.7
1 0 5 943.81 4.8
-1 0 -5 886.21 4.4
2 0 5 742.73 4.3
2 0 5 645.64 3.7
-2 0 -5 655.23 3.9
-2 0 -5 644.84 4.3
3 0 5 1617.14 6.5
3 0 5 1460.85 5.5
-3 0 -5 1469.95 5.5
-3 0 -5 1321.87 6.3
4 0 5 52.89 1.8
-4 0 -5 44.4 1.7
4 0 5 45.5 1.3
-4 0 -5 45.3 1.6
-5 0 -5 1457.75 7.1
5 0 5 1440.96 5.3
-5 0 -5 1485.35 7
-5 0 -5 1462.75 5.4
-6 0 -5 19.5 1.5
6 0 5 13.1 0.9
-6 0 -5 15.1 1.2
-6 0 -5 14.1 1.3
7 0 5 732.23 3.8
-7 0 -5 821.52 5.3
-7 0 -5 822.02 5.8
-7 0 -5 729.03 3.9
8 0 5 11.4 1.3
-8 0 -5 4.4 1.4
-8 0 -5 12 1.5
-8 0 -5 12.9 1.7
9 0 5 759.72 4.1
-9 0 -5 759.12 4.1
-9 0 -5 782.02 7.2
-9 0 -5 888.11 6.3
-10 0 -5 19.4 2.1
10 0 5 3.1 1.2
-10 0 -5 12.9 1.5
-10 0 -5 14.2 1.8
7 -1 -5 46 1.4
-7 1 5 8.1 1.9
7 -1 -5 42.3 1.7
7 -1 -5 11 1.7
6 -1 -5 483.45 3.1
-6 1 5 541.95 3.6
6 -1 -5 459.05 3.4
6 -1 -5 457.65 3.2
5 -1 -5 15.4 1.3
-5 1 5 17.9 1.2
5 -1 -5 17.3 1.3
5 -1 -5 17.8 1.2
4 -1 -5 1463.15 4.9
-4 1 5 1415.06 5.2
4 -1 -5 1367.96 5
4 -1 -5 1446.06 5.2
3 -1 -5 15 1.2
3 -1 -5 15.3 0.9
-3 1 5 15.9 0.9
3 -1 -5 16 1.2
2 -1 -5 1186.68 4.4
2 -1 -5 1166.58 4.7
2 -1 -5 1162.88 4.4
-2 1 5 1176.28 4.8
1 -1 -5 25.2 1.3
1 -1 -5 21.4 1.1
-1 1 5 20.9 1.1
0 1 5 1878.61 5.7
0 -1 -5 1990.7 6.1
0 -1 -5 1727.33 6.1
0 1 5 1837.82 6.1
-1 -1 -5 158.28 1.9
-1 -1 -5 152.88 2.3
1 1 5 171.28 2.3
1 1 5 152.08 1.8
2 1 5 1183.58 4.7
-2 -1 -5 1245.18 4.9
2 1 5 1357.16 5.4
-2 -1 -5 1186.68 5.3
-3 -1 -5 813.12 4.5
-3 -1 -5 804.92 3.9
3 1 5 939.91 4.7
3 1 5 798.02 4
-4 -1 -5 971 4.4
-4 -1 -5 1096.59 5.4
-4 -1 -5 986.2 4.9
4 1 5 952 4.2
-5 -1 -5 1102.99 5.4
-5 -1 -5 999 5.3
5 1 5 1010.5 4.2
-5 -1 -5 991.1 4.3
-6 -1 -5 564.94 4.1
6 1 5 549.74 3.2
-6 -1 -5 526.65 3.1
-6 -1 -5 556.24 3.8
-7 -1 -5 820.72 4.8
7 1 5 744.93 3.8
-7 -1 -5 823.02 5.2
-7 -1 -5 749.23 3.8
8 1 5 179.68 2.3
-8 -1 -5 209.18 3
-8 -1 -5 191.48 2.1
-8 -1 -5 202.98 2.7
-9 -1 -5 314.57 3.4
9 1 5 294.07 2.8
-9 -1 -5 290.47 2.7
-9 -1 -5 347.47 3.8
10 1 5 46 1.5
-10 -1 -5 56.79 2.2
-10 -1 -5 48.2 1.8
-10 -1 -5 56.49 2.3
7 -2 -5 215.68 2.5
7 -2 -5 18.9 2.7
7 -2 -5 204.98 2.5
-7 2 5 218.78 3
6 -2 -5 168.38 2.1
6 -2 -5 149.49 1.9
-6 2 5 184.38 2.5
6 -2 -5 166.38 2.3
5 -2 -5 389.76 2.7
-5 2 5 414.36 3.2
5 -2 -5 369.46 2.7
5 -2 -5 386.16 3
4 -2 -5 446.06 3.1
4 -2 -5 434.46 2.6
-4 2 5 430.96 3.1
4 -2 -5 428.76 2.6
3 -2 -5 242.88 2.3
3 -2 -5 224.88 2
-3 2 5 250.47 2.5
3 -2 -5 213.88 1.9
2 -2 -5 679.63 3.3
2 -2 -5 681.53 3.2
2 -2 -5 649.34 3.5
-2 2 5 705.93 3.9
-1 2 5 318.77 2.6
-1 2 5 313.07 2.3
1 -2 -5 286.37 2.5
1 -2 -5 331.57 2.4
0 -2 -5 1903.41 5.6
0 2 5 1839.32 5.9
0 2 5 1732.93 5.3
0 -2 -5 1689.93 5.6
1 2 5 99.59 1.7
1 2 5 113.09 1.7
-1 -2 -5 97.89 1.7
-1 -2 -5 106.89 1.9
-2 -2 -5 1905.91 6.2
2 2 5 2180.08 6.5
-2 -2 -5 1907.71 5.7
2 2 5 1838.82 5.5
-3 -2 -5 9.2 1
3 2 5 1.4 1.1
-3 -2 -5 2.4 1.1
3 2 5 4.2 0.9
-4 -2 -5 4039.5 9.2
-4 -2 -5 3545.25 8.5
-4 -2 -5 3229.48 7.5
4 2 5 3438.46 7.8
5 2 5 7.2 1.1
-5 -2 -5 9.1 0.8
-5 -2 -5 9.8 1.4
-5 -2 -5 8 1
-6 -2 -5 1782.72 6.1
-6 -2 -5 1769.72 6.4
6 2 5 1710.63 5.4
-6 -2 -5 1642.14 5.3
-7 -2 -5 66.29 1.7
-7 -2 -5 68.09 1.8
7 2 5 62.19 1.7
-7 -2 -5 59.49 1.6
8 2 5 501.05 3.3
-8 -2 -5 516.85 3.7
-8 -2 -5 470.15 3.2
-8 -2 -5 528.85 3.9
-9 -2 -5 73.29 1.8
9 2 5 81.19 1.9
-9 -2 -5 90.19 2.2
-9 -2 -5 76.09 1.6
10 2 5 125.29 2.3
-10 -2 -5 128.49 2.4
-10 -2 -5 129.79 2.2
-10 -2 -5 130.09 2.5
-6 3 5 19.6 1.2
6 -3 -5 22 1.5
6 -3 -5 18.6 1.1
6 -3 -5 19.9 1.2
-5 3 5 513.75 3.4
5 -3 -5 491.95 3.2
5 -3 -5 479.45 3.1
5 -3 -5 530.95 3.5
-4 3 5 249.08 2.4
4 -3 -5 257.47 2.6
4 -3 -5 234.18 2
4 -3 -5 228.18 2
3 -3 -5 653.13 3.3
-3 3 5 723.83 3.7
3 -3 -5 709.43 3.7
3 -3 -5 639.94 3.1
2 -3 -5 588.74 2.9
2 -3 -5 655.03 3.1
2 -3 -5 642.54 3.4
-2 3 5 702.63 3.7
1 -3 -5 806.82 3.5
-1 3 5 892.01 4.1
1 -3 -5 783.02 3.7
-1 3 5 772.22 3.4
0 -3 -5 2384.06 6
0 3 5 2215.98 5.8
0 3 5 2573.04 6.8
0 -3 -5 2278.87 6.3
-1 -3 -5 86.19 1.5
1 3 5 86.89 1.4
1 3 5 98.39 1.8
-1 -3 -5 80.69 1.3
2 3 5 2109.69 5.8
-2 -3 -5 2142.29 5.8
2 3 5 2416.96 6.6
-2 -3 -5 2189.58 6.3
3 3 5 815.72 3.7
-3 -3 -5 819.72 3.7
-3 -3 -5 914.91 4.1
4 3 5 1799.42 5.3
-4 -3 -5 2074.49 6.4
-4 -3 -5 1783.12 5.3
-4 -3 -5 1856.21 5.8
5 3 5 47.8 1.1
-5 -3 -5 47.7 1.7
-5 -3 -5 48.3 1.3
-5 -3 -5 52.69 1.4
-6 -3 -5 951.6 4.5
6 3 5 959 4.3
-6 -3 -5 938.51 4.2
-6 -3 -5 1034.8 4.6
7 3 5 18.6 1.1
-7 -3 -5 19.8 1.4
-7 -3 -5 18.8 1.3
-7 -3 -5 19.3 1.4
-8 -3 -5 422.76 3.2
-8 -3 -5 451.15 3.4
8 3 5 414.06 3.2
-8 -3 -5 301.27 3.3
-9 -3 -5 46.2 1.8
9 3 5 41.3 1.6
-9 -3 -5 38 1.6
-9 -3 -5 42 1.6
6 -4 -5 12.5 1.2
-6 4 5 12.2 1.6
6 -4 -5 11.4 1.2
6 -4 -5 10.8 1.2
5 -4 -5 403.76 3.3
-5 4 5 367.76 3.1
5 -4 -5 338.87 2.6
5 -4 -5 334.97 2.7
4 -4 -5 1.9 1.1
4 -4 -5 1.2 1.3
-4 4 5 1.4 1.2
4 -4 -5 0.9 0.8
3 -4 -5 811.92 3.6
3 -4 -5 837.42 4.1
-3 4 5 908.91 4.2
3 -4 -5 792.82 3.6
2 -4 -5 6.9 0.8
2 -4 -5 7.1 0.8
2 -4 -5 8.5 0.9
-2 4 5 7.6 0.9
-1 4 5 1958.6 5.2
1 -4 -5 2015.9 5.4
1 -4 -5 2148.78 5.9
-1 4 5 2173.98 6.1
0 -4 -5 659.53 3.3
0 -4 -5 625.84 3.1
0 4 5 736.13 3.5
0 4 5 623.64 3.1
-1 -4 -5 1710.73 5.4
1 4 5 1551.44 4.8
-1 -4 -5 1593.24 4.8
1 4 5 1782.22 5.4
2 4 5 206.58 1.8
-2 -4 -5 215.58 1.9
-2 -4 -5 213.98 2
2 4 5 236.98 2.2
3 4 5 906.41 3.7
-3 -4 -5 884.71 3.9
-3 -4 -5 942.11 3.8
-3 -4 -5 1040.6 4.3
4 4 5 458.35 2.7
-4 -4 -5 469.25 2.9
-4 -4 -5 543.45 3.1
-4 -4 -5 464.05 2.9
-5 -4 -5 108.99 1.8
-5 -4 -5 123.99 1.7
5 4 5 116.79 1.7
-5 -4 -5 105.99 1.5
-6 -4 -5 477.15 3.2
6 4 5 435.46 2.8
-6 -4 -5 460.15 3
-6 -4 -5 459.35 3.1
7 4 5 83.79 1.8
-7 -4 -5 69.99 1.5
-7 -4 -5 83.09 1.5
-7 -4 -5 24 1.8
-8 -4 -5 454.05 3.3
-8 -4 -5 421.36 3.2
-8 -4 -5 458.95 3.3
8 4 5 436.26 3.3
-9 -4 -5 70.59 2
9 4 5 70.29 1.6
-9 -4 -5 71.29 1.7
-9 -4 -5 67.19 1.7
-6 5 5 146.59 2.5
6 -5 -5 126.29 2
6 -5 -5 130.29 2
6 -5 -5 153.48 2.5
-5 5 5 343.67 3.1
5 -5 -5 312.07 2.7
5 -5 -5 329.47 2.9
5 -5 -5 283.97 2.5
4 -5 -5 275.17 2.2
-4 5 5 310.57 2.7
4 -5 -5 300.87 2.8
4 -5 -5 270.87 2.3
3 -5 -5 596.14 3.2
3 -5 -5 653.83 3.5
-3 5 5 670.73 3.7
3 -5 -5 619.04 3.3
2 -5 -5 284.47 2.2
-2 5 5 345.47 2.8
2 -5 -5 298.07 2.3
2 -5 -5 314.17 2.5
1 -5 -5 993 3.7
-1 5 5 1194.78 4.5
1 -5 -5 1084.39 4.1
0 5 5 128.79 1.5
0 -5 -5 130.09 1.5
0 -5 -5 135.79 1.6
0 5 5 149.99 1.7
1 5 5 783.52 3.4
1 5 5 921.71 3.9
-1 -5 -5 789.32 3.3
-1 -5 -5 822.42 3.6
2 5 5 19.2 1.1
-2 -5 -5 20 0.9
-2 -5 -5 17.2 0.9
3 5 5 1108.99 4
-3 -5 -5 1137.49 4
-3 -5 -5 1126.59 4.3
-3 -5 -5 1012.3 4.1
-4 -5 -5 185.88 2
-4 -5 -5 225.88 2.2
-4 -5 -5 210.38 2
4 5 5 198.38 1.9
5 5 5 901.91 4
-5 -5 -5 1014.5 4.3
-5 -5 -5 880.51 3.9
-5 -5 -5 868.71 3.9
-6 -5 -5 179.68 2
6 5 5 161.08 1.9
-6 -5 -5 182.38 2.2
-6 -5 -5 172.48 2.1
7 5 5 694.73 3.8
-7 -5 -5 699.93 3.8
-7 -5 -5 699.83 3.7
-7 -5 -5 706.73 3.8
8 5 5 181.48 2.2
-8 -5 -5 195.68 2.4
-8 -5 -5 175.98 2.2
-8 -5 -5 174.38 2.3
9 5 5 337.47 3.1
-9 -5 -5 338.47 3.3
-9 -5 -5 321.77 3.1
-9 -5 -5 332.67 3.1
-5 6 5 85.39 2.1
5 -6 -5 75.89 1.8
5 -6 -5 86.09 2.1
5 -6 -5 76.39 1.7
4 -6 -5 523.05 3.2
-4 6 5 620.64 3.9
4 -6 -5 577.04 3.7
4 -6 -5 519.65 3.4
3 -6 -5 134.49 1.8
-3 6 5 138.49 1.9
3 -6 -5 137.59 1.8
3 -6 -5 124.09 1.6
2 -6 -5 460.45 2.7
2 -6 -5 447.96 2.6
-2 6 5 535.15 3.4
2 -6 -5 489.65 3
1 -6 -5 295.27 2.5
-1 6 5 314.07 2.5
1 -6 -5 287.37 2.2
0 6 5 441.76 2.6
0 -6 -5 486.25 2.8
0 6 5 483.95 3
0 -6 -5 433.86 2.5
1 6 5 853.51 3.5
-1 -6 -5 805.32 3.3
-1 -6 -5 777.52 3.5
2 6 5 74.49 1.3
-2 -6 -5 82.99 1.5
-2 -6 -5 68.79 1.3
-2 -6 -5 77.99 1.3
-3 -6 -5 1016.7 4.2
3 6 5 1040.2 4
-3 -6 -5 1086.39 4.3
-3 -6 -5 1063.89 4
4 6 5 39.7 1.4
-4 -6 -5 38.8 1.4
-4 -6 -5 32.8 1.3
-4 -6 -5 39.3 1.2
-5 -6 -5 872.71 4.1
5 6 5 877.31 4.1
-5 -6 -5 955.2 4.1
-5 -6 -5 1046.6 4.3
-6 -6 -5 2.8 1.4
6 6 5 0.5 0.9
-6 -6 -5 0.9 1.2
-6 -6 -5 -0.4 1.2
7 6 5 619.34 3.8
-7 -6 -5 239.18 3.8
-7 -6 -5 610.94 3.6
-7 -6 -5 679.33 3.8
-8 -6 -5 0.4 1.4
8 6 5 -0.3 1.4
-8 -6 -5 0.2 1.1
-8 -6 -5 2.2 1.4
5 -7 -5 4.9 1.4
5 -7 -5 3.6 1.5
-5 7 5 11.6 1.5
5 -7 -5 11.1 1
4 -7 -5 236.08 2.3
4 -7 -5 259.97 2.9
4 -7 -5 225.08 2.2
-4 7 5 279.87 3
-3 7 5 0.6 1
3 -7 -5 1.9 0.9
3 -7 -5 2 1.2
3 -7 -5 1.9 0.9
2 -7 -5 -49.2 3.3
2 -7 -5 561.54 3
-2 7 5 579.54 3.5
2 -7 -5 591.04 3.4
1 -7 -5 186.08 1.9
1 -7 -5 185.18 2
-1 7 5 197.68 2.3
1 -7 -5 181.08 1.8
0 -7 -5 637.64 3.2
0 -7 -5 679.53 3.4
0 7 5 650.23 3.3
-1 -7 -5 341.37 2.5
1 7 5 368.66 2.5
-1 -7 -5 365.76 2.5
-1 -7 -5 387.66 2.6
-2 -7 -5 657.43 3.5
2 7 5 601.24 3.2
-2 -7 -5 570.94 3.3
-2 -7 -5 663.93 3.3
-3 -7 -5 147.69 2
3 7 5 155.38 1.7
-3 -7 -5 162.98 1.9
-3 -7 -5 155.78 1.9
-4 -7 -5 684.13 3.6
4 7 5 689.53 3.5
-4 -7 -5 678.93 3.4
-4 -7 -5 773.22 3.9
-5 -7 -5 399.46 3
-5 -7 -5 393.46 2.9
-5 -7 -5 365.16 2.8
5 7 5 374.86 2.9
6 7 5 192.18 2.1
-6 -7 -5 200.08 2.5
-6 -7 -5 205.48 2.4
-6 -7 -5 217.28 2.4
-7 -7 -5 218.78 2.6
-7 -7 -5 209.28 2.5
-7 -7 -5 213.58 2.5
7 7 5 213.18 2.6
8 7 5 39 1.7
-8 -7 -5 41 1.7
-8 -7 -5 43 1.7
-8 -7 -5 39.8 1.4
4 -8 -5 84.49 1.5
-4 8 5 92.99 2
4 -8 -5 0.1 2
4 -8 -5 78.09 1.5
-3 8 5 56.89 1.9
3 -8 -5 51.89 1.7
3 -8 -5 -7 1.5
3 -8 -5 49.1 1.3
2 -8 -5 447.76 2.9
2 -8 -5 476.25 3
-2 8 5 503.45 3.4
2 -8 -5 485.95 3.3
1 -8 -5 17.2 1
1 -8 -5 17.4 1.3
1 -8 -5 15.7 0.9
1 -8 -5 17.6 1.3
0 8 5 565.04 3.2
0 -8 -5 466.85 3.1
0 -8 -5 527.75 2.9
0 -8 -5 518.75 3.2
-1 -8 -5 45.9 1.6
1 8 5 43.8 1.1
-1 -8 -5 47.6 1.3
-1 -8 -5 43.2 1.2
-2 -8 -5 695.93 3.7
-2 -8 -5 596.64 3.5
-2 -8 -5 653.93 3.4
2 8 5 631.54 3.3
-3 -8 -5 11.2 1.3
-3 -8 -5 22.8 1
-3 -8 -5 19.6 1.3
3 8 5 10.8 1.2
-4 -8 -5 512.25 3.2
4 8 5 508.75 3.3
-4 -8 -5 528.15 3.3
-4 -8 -5 545.85 3.3
-5 -8 -5 19.6 1.2
-5 -8 -5 16.1 1
-5 -8 -5 14.9 1.4
5 8 5 16.2 1.2
6 8 5 289.27 3
-6 -8 -5 292.47 2.6
-6 -8 -5 342.77 3
-6 -8 -5 291.37 3
-7 -8 -5 29 1.5
7 8 5 21.8 1.3
-7 -8 -5 26.6 1.4
-7 -8 -5 27.5 1.3
3 -9 -5 219.18 2.3
3 -9 -5 178.08 2.6
3 -9 -5 187.48 2.5
3 -9 -5 -38 2.3
2 -9 -5 142.99 2.3
2 -9 -5 148.99 2.1
2 -9 -5 -57.29 2
2 -9 -5 153.18 2
1 -9 -5 320.97 2.7
1 -9 -5 332.97 2.9
1 -9 -5 280.07 2.8
1 -9 -5 309.57 2.6
0 -9 -5 250.87 2.3
0 -9 -5 250.77 2.4
0 -9 -5 241.78 2.6
0 -9 -5 279.57 2.5
-1 -9 -5 230.98 2.5
-1 -9 -5 245.38 2.2
1 9 5 243.08 2.3
-1 -9 -5 233.68 2.3
-2 -9 -5 274.37 2.6
2 9 5 259.97 2.3
-2 -9 -5 282.87 2.5
-2 -9 -5 235.88 2.6
-3 -9 -5 42.5 1.4
-3 -9 -5 37.4 1.3
-3 -9 -5 36.3 1.6
3 9 5 33.1 1.1
4 9 5 215.38 2.5
-4 -9 -5 207.28 2.3
-4 -9 -5 220.48 2.4
-4 -9 -5 238.48 2.7
-5 -9 -5 11.7 1.1
5 9 5 11.8 1.1
-5 -9 -5 12 1.1
-5 -9 -5 12.3 1.1
1 -10 -5 -70.49 2.1
1 -10 -5 206.78 2.3
1 -10 -5 204.08 2.7
1 -10 -5 211.88 2.4
0 -10 -5 30.8 1.5
0 -10 -5 27.5 1.7
0 -10 -5 2.5 1.7
0 -10 -5 27.9 1.4
-1 -10 -5 151.28 2
-1 -10 -5 138.19 2.1
-1 -10 -5 132.69 2.2
2 10 5 98.79 1.9
-2 -10 -5 91.89 1.7
-2 -10 -5 110.59 1.9
-2 -10 -5 92.49 1.9
3 10 5 98.39 1.9
-3 -10 -5 84.99 1.9
-3 -10 -5 101.69 2.1
-3 -10 -5 98.59 1.8
2 -9 6 246.88 3.4
-2 9 -6 223.28 3.1
-1 -8 6 135.49 2.4
1 8 -6 139.19 2.3
0 -8 6 51.79 2.1
0 8 -6 76.19 1.9
1 -8 6 133.09 2.4
-1 8 -6 136.89 2.5
2 -8 6 366.66 3.6
-2 8 -6 375.56 3.7
3 -8 6 16.8 1.7
-3 8 -6 14.9 1.6
4 -8 6 441.56 5.7
4 -8 6 510.25 5.3
4 -8 6 454.05 5.9
5 -8 6 2.2 1.9
5 -8 6 0.9 1.8
5 -8 6 1.4 1.6
-3 -7 6 211.58 2.8
3 7 -6 165.38 2.7
-2 -7 6 0.5 1.5
2 7 -6 1.6 1.5
-1 -7 6 390.96 3.3
1 7 -6 389.76 3.3
0 -7 6 121.89 2.1
0 7 -6 137.29 2.3
1 -7 6 581.94 4
-1 7 -6 639.24 4.3
2 -7 6 242.18 2.9
-2 7 -6 254.97 2.9
3 -7 6 511.65 6.7
-3 7 -6 561.54 4.4
3 -7 6 483.65 6.4
3 -7 6 491.95 4.4
-4 7 -6 343.07 4.3
4 -7 6 345.07 4.3
4 -7 6 318.47 4
-4 7 -6 327.77 4
-5 7 -6 -15 4.2
5 -7 6 321.27 6.5
5 -7 6 339.67 3.8
5 -7 6 311.37 6.3
6 -7 6 238.38 3.2
-6 7 -6 290.27 3.3
7 -7 6 71.69 2
-7 7 -6 85.99 2.1
-4 -6 6 58.69 1.8
4 6 -6 44.7 3.6
4 6 -6 -8.6 1.6
4 6 -6 50.89 4.1
-3 -6 6 314.97 3
3 6 -6 269.07 2.9
-2 -6 6 29.5 1.3
2 6 -6 32.6 1.7
-1 -6 6 867.91 4.5
1 6 -6 901.81 4.7
0 -6 6 0.4 1.4
0 6 -6 0.1 1.4
1 -6 6 694.33 4.3
-1 6 -6 768.62 4.6
-2 6 -6 39.3 1.7
2 -6 6 36.9 1.7
-3 6 -6 1170.88 7.9
-3 6 -6 1121.79 6.4
3 -6 6 1012.1 6.8
3 -6 6 1069.99 6.1
-4 6 -6 71.59 2.3
4 -6 6 71.09 2.5
4 -6 6 69.39 2.3
-4 6 -6 76.39 2.5
5 -6 6 658.33 10.7
5 -6 6 589.14 4.4
5 -6 6 639.64 10.7
-5 6 -6 627.14 4.4
6 -6 6 85.99 2
-6 6 -6 94.79 2
7 -6 6 171.98 2.5
-7 6 -6 225.78 2.8
8 -6 6 80.49 1.9
-8 6 -6 100.99 2
-4 -5 6 277.07 2.8
4 5 -6 264.07 3.8
4 5 -6 249.78 2.7
4 5 -6 266.07 4.5
-3 -5 6 375.06 3.4
3 5 -6 341.87 3.2
3 5 -6 335.77 5.7
3 5 -6 391.76 5.2
-2 -5 6 551.54 3.7
2 5 -6 476.15 3.4
-1 -5 6 645.04 3.7
1 5 -6 654.53 4
0 5 -6 352.06 3
0 -5 6 357.06 3
1 -5 6 233.78 2.5
-1 5 -6 266.67 2.8
2 -5 6 216.88 2.7
2 -5 6 227.38 3.9
-2 5 -6 230.98 2.9
-2 5 -6 233.28 4.8
3 -5 6 632.94 4.6
3 -5 6 596.44 4.7
-3 5 -6 688.53 5
-3 5 -6 660.73 5.5
-4 5 -6 12.1 1.5
4 -5 6 9.9 1.4
4 -5 6 9.5 1.6
-4 5 -6 10.1 1.5
5 -5 6 326.07 3.2
-5 5 -6 331.57 3.1
6 -5 6 12.6 1.4
-6 5 -6 11.5 1.4
7 -5 6 493.95 3.6
-7 5 -6 548.75 3.7
8 -5 6 9.9 1.4
-8 5 -6 11.2 1.5
5 4 -6 1.4 1.2
5 4 -6 0.6 1.1
5 4 -6 0.5 1.6
-5 -4 6 0.2 1.2
4 4 -6 678.03 4.8
-4 -4 6 695.43 4.2
4 4 -6 625.44 4
4 4 -6 749.82 6
3 4 -6 5 1.3
3 4 -6 5.4 1.5
3 4 -6 5.2 1.8
-3 -4 6 6.2 1.2
2 4 -6 1212.08 7.2
2 4 -6 969.9 4.7
2 4 -6 1182.18 8.7
-2 -4 6 1031.3 4.7
-1 -4 6 43.3 1.7
1 4 -6 43.1 2.3
1 4 -6 49 1.7
1 4 -6 48.1 2.7
0 -4 6 838.42 4.3
0 4 -6 802.32 9.5
0 4 -6 830.12 4.4
0 4 -6 879.61 9.7
1 -4 6 178.78 2.3
1 -4 6 176.48 3.5
-1 4 -6 177.38 2.5
-1 4 -6 187.68 4.4
2 -4 6 1158.58 6.5
2 -4 6 1201.28 5.6
-2 4 -6 1191.38 5.9
-2 4 -6 1209.28 8.4
3 -4 6 692.93 4.6
3 -4 6 756.32 4.9
-3 4 -6 808.92 5.5
-3 4 -6 757.02 5.8
-4 4 -6 628.14 5.6
4 -4 6 581.64 4
-4 4 -6 553.74 4.3
4 -4 6 587.74 4.9
5 -4 6 631.94 4
-5 4 -6 642.54 4.3
6 -4 6 367.06 3.2
-6 4 -6 348.37 3
7 -4 6 785.42 4.4
-7 4 -6 870.31 4.5
8 -4 6 63.79 1.6
-8 4 -6 70.79 1.9
9 -4 6 404.36 3.3
-9 4 -6 496.75 3.7
5 3 -6 118.19 2.1
5 3 -6 94.39 1.9
5 3 -6 115.49 2.4
-5 -3 6 124.69 2.2
4 3 -6 392.36 3.2
-4 -3 6 391.06 3
4 3 -6 364.86 2.9
4 3 -6 417.66 3.9
3 3 -6 181.58 2.4
-3 -3 6 178.48 2.2
3 3 -6 167.98 2.3
3 3 -6 184.08 2.8
2 3 -6 705.93 4.7
-2 -3 6 674.53 3.8
2 3 -6 636.84 3.9
2 3 -6 709.93 5.2
-1 -3 6 61.79 1.5
1 3 -6 64.09 1.8
1 3 -6 64.99 1.7
1 3 -6 60.59 1.9
0 3 -6 1213.68 6.7
0 -3 6 1154.68 4.9
0 3 -6 1111.79 6.5
0 3 -6 1085.99 5
1 -3 6 37.2 1.7
1 -3 6 27.8 1.4
-1 3 -6 26.6 1.8
-1 3 -6 29.3 1.7
2 -3 6 2391.46 8.1
2 -3 6 2453.85 7.8
-2 3 -6 2387.96 9.7
-2 3 -6 2168.88 8.1
3 -3 6 346.07 3.1
3 -3 6 355.46 3.4
-3 3 -6 373.16 3.7
-3 3 -6 343.87 3.9
4 -3 6 1768.52 8
4 -3 6 1709.73 6.4
-4 3 -6 1763.12 7
-4 3 -6 1717.43 9.6
-5 3 -6 384.76 7.3
5 -3 6 340.77 3
-5 3 -6 357.36 3.1
6 -3 6 1159.08 4.9
-6 3 -6 1085.19 5
7 -3 6 199.48 2.3
-7 3 -6 210.08 2.3
8 -3 6 333.47 2.9
-8 3 -6 357.86 2.9
9 -3 6 155.58 2.3
-9 3 -6 163.18 2.2
-6 -2 6 47.5 1.5
6 2 -6 41.3 1.4
6 2 -6 39.9 1.6
6 2 -6 52.49 1.9
5 2 -6 237.08 2.5
-5 -2 6 231.78 2.6
5 2 -6 194.68 2.4
5 2 -6 224.48 2.8
4 2 -6 217.38 2.3
-4 -2 6 215.28 2.4
4 2 -6 203.78 2.4
4 2 -6 197.98 2.6
-3 -2 6 429.86 3.3
3 2 -6 428.96 3.2
3 2 -6 386.66 3
3 2 -6 429.16 3.5
2 2 -6 573.84 3.8
-2 -2 6 592.44 3.6
2 2 -6 531.85 3.5
2 2 -6 579.24 4
1 2 -6 243.88 2.7
-1 -2 6 247.88 2.5
1 2 -6 223.78 2.3
1 2 -6 256.47 2.7
0 -2 6 1557.44 6.4
0 2 -6 1558.14 6.4
0 -2 6 1626.24 5.7
0 2 -6 1507.75 5.8
1 -2 6 318.27 3
-1 2 -6 331.77 3.2
1 -2 6 337.07 2.8
-1 2 -6 322.97 3.2
2 -2 6 1831.32 6.5
-2 2 -6 1763.22 6.9
2 -2 6 1797.32 6.6
-2 2 -6 1622.84 6.9
-3 2 -6 325.17 3.7
3 -2 6 355.96 3
-3 2 -6 359.06 3.2
3 -2 6 373.26 3.4
-4 2 -6 1870.91 9.5
4 -2 6 2196.98 6.9
4 -2 6 2388.16 9
-4 2 -6 2372.46 7.4
-5 2 -6 57.99 2.8
5 -2 6 63.29 1.7
-5 2 -6 57.59 1.5
6 -2 6 1024.8 4.6
-6 2 -6 981.1 4.6
7 -2 6 10.8 1.1
-7 2 -6 11 1.5
8 -2 6 434.36 3.3
-8 2 -6 437.96 3.1
9 -2 6 36 1.3
-9 2 -6 41.2 1.6
6 1 -6 0.9 1
-6 -1 6 0.7 1
6 1 -6 1.5 1.3
6 1 -6 1.5 1.1
5 1 -6 312.97 2.7
-5 -1 6 303.77 3
5 1 -6 276.07 2.6
5 1 -6 287.97 2.7
-4 -1 6 17.9 1.2
4 1 -6 20.9 1
4 1 -6 17.9 1.1
4 1 -6 17 1.3
3 1 -6 957.2 4.3
-3 -1 6 941.61 4.6
3 1 -6 926.61 4.4
3 1 -6 935.91 4.5
2 1 -6 227.68 2.2
-2 -1 6 236.18 2.3
2 1 -6 218.78 2.2
2 1 -6 227.98 2.4
1 1 -6 1396.96 5.4
1 1 -6 1417.56 5.4
-1 -1 6 1269.27 4.9
1 1 -6 1307.67 5.2
0 1 -6 682.03 4
0 -1 6 651.13 3.7
0 1 -6 653.43 3.9
0 -1 6 638.04 3.6
-1 1 -6 2147.49 7.1
1 -1 6 2068.69 6.6
-1 1 -6 2120.99 6.8
1 -1 6 2182.08 6.7
-2 1 -6 638.84 4.2
2 -1 6 660.33 3.8
-2 1 -6 671.33 4
2 -1 6 659.73 3.8
-3 1 -6 2294.37 8.4
3 -1 6 2543.45 6.9
-3 1 -6 2474.15 7.3
3 -1 6 2649.73 8.1
-4 1 -6 1053.59 6.1
4 -1 6 1177.68 4.8
-4 1 -6 1282.37 5.1
4 -1 6 1383.76 6.3
5 -1 6 318.97 2.7
-5 1 -6 253.77 3.4
-5 1 -6 299.47 2.7
-5 1 -6 266.07 3.4
-6 1 -6 768.32 6.5
6 -1 6 796.02 4
-6 1 -6 752.62 3.7
-6 1 -6 695.63 6.1
7 -1 6 71.69 1.7
-7 1 -6 72.69 2.8
-7 1 -6 66.89 1.5
-7 1 -6 75.19 2.5
-8 1 -6 999.1 8.8
8 -1 6 928.01 4.6
-8 1 -6 768.72 4.8
-8 1 -6 1067.99 10.2
-9 1 -6 14.8 2.2
-9 1 -6 14.3 2.7
9 -1 6 3.6 1.5
-9 1 -6 11.4 1.2
10 -1 6 344.17 3.3
-10 1 -6 351.06 3.1
6 0 -6 113.49 1.8
-6 0 6 112.49 2.2
6 0 -6 108.19 2
6 0 -6 124.19 2.1
-5 0 6 224.98 2.4
5 0 -6 193.28 2.3
5 0 -6 223.28 2.4
5 0 -6 237.58 2.3
4 0 -6 525.35 3.1
-4 0 6 544.25 3.4
4 0 -6 529.65 3.3
4 0 -6 518.65 3.2
3 0 -6 1447.76 5
-3 0 6 1489.65 5.4
3 0 -6 1378.56 5.1
3 0 -6 1385.76 5
2 0 -6 111.19 1.7
2 0 -6 121.09 1.9
-2 0 6 112.79 1.7
2 0 -6 111.49 1.8
1 0 -6 1869.41 6
1 0 -6 2017 6
1 0 -6 1975.5 5.8
-1 0 6 1944.41 6.1
0 0 6 254.47 2.2
0 0 -6 268.67 2.5
0 0 -6 278.57 2.5
0 0 6 258.97 2.5
1 0 6 2105.19 6.1
-1 0 -6 2011.7 6.7
-1 0 -6 2121.99 6.3
1 0 6 2093.09 6.4
2 0 6 14 1.1
2 0 6 11.9 0.9
-2 0 -6 12.6 1.3
-2 0 -6 9.8 1.5
-3 0 -6 1680.73 5.6
-3 0 -6 1453.25 6.1
3 0 6 1795.12 6.2
3 0 6 1603.54 5.4
4 0 6 381.16 2.8
-4 0 -6 381.26 2.8
-4 0 -6 380.96 3.3
4 0 6 463.85 3.5
-5 0 -6 1023.6 5.6
-5 0 -6 1049.89 5.5
-5 0 -6 1115.19 4.5
5 0 6 1109.49 4.4
-6 0 -6 711.03 5
-6 0 -6 695.73 4.8
6 0 6 679.03 3.5
-6 0 -6 659.93 3.5
7 0 6 1372.96 5.1
-7 0 -6 1587.54 8
-7 0 -6 1501.45 7.2
-7 0 -6 1472.75 5.2
8 0 6 742.13 3.9
-8 0 -6 862.51 6.6
-8 0 -6 782.42 3.9
-8 0 -6 821.42 5.7
9 0 6 290.67 2.7
-9 0 -6 274.07 2.9
-9 0 -6 347.37 4.7
-9 0 -6 295.77 4.3
-10 0 -6 273.87 5.3
10 0 6 263.37 2.7
-10 0 -6 240.88 2.9
-10 0 -6 260.67 4.5
6 -1 -6 378.06 3.1
-6 1 6 401.96 3.6
6 -1 -6 353.66 3.4
6 -1 -6 335.67 3
5 -1 -6 169.98 1.9
-5 1 6 181.78 2.3
5 -1 -6 168.38 2.1
5 -1 -6 158.48 2
-4 1 6 581.04 3.5
4 -1 -6 542.45 3.1
4 -1 -6 529.35 3.2
4 -1 -6 574.64 3.4
3 -1 -6 554.84 3.4
3 -1 -6 565.64 3.1
-3 1 6 531.95 3.4
3 -1 -6 543.55 3.2
2 -1 -6 692.23 3.3
2 -1 -6 659.63 3.6
2 -1 -6 688.53 3.4
-2 1 6 671.13 3.7
1 -1 -6 537.75 3.3
1 -1 -6 608.24 3.1
-1 1 6 551.24 3.4
0 1 6 587.34 3.1
0 -1 -6 608.74 3.2
0 -1 -6 525.85 3.4
0 1 6 550.24 3.3
1 1 6 1543.75 5.3
1 1 6 1378.36 4.8
-1 -1 -6 1383.86 4.8
-1 -1 -6 1361.16 5.1
2 1 6 40.6 1.3
-2 -1 -6 32.3 1
2 1 6 36.1 1.4
-2 -1 -6 32.5 1.2
3 1 6 1340.77 4.7
3 1 6 1578.14 5.6
-3 -1 -6 1380.46 4.8
-3 -1 -6 1402.66 5.6
-4 -1 -6 16 1.4
4 1 6 13.6 0.9
-4 -1 -6 18.9 1.1
4 1 6 16.4 1.3
-5 -1 -6 1863.01 6.6
5 1 6 1850.31 5.6
-5 -1 -6 1939.61 6.8
-5 -1 -6 1872.11 5.6
-6 -1 -6 24.3 1.5
6 1 6 21.9 1
-6 -1 -6 21.1 1
-6 -1 -6 22.8 1.4
-7 -1 -6 1282.67 5.9
-7 -1 -6 1294.77 6.4
7 1 6 1248.18 4.8
-7 -1 -6 1231.58 4.7
-8 -1 -6 35.1 1.6
8 1 6 32.3 1.5
-8 -1 -6 32.1 1.8
-8 -1 -6 33.4 1.5
9 1 6 453.05 3.3
-9 -1 -6 519.05 4.2
-9 -1 -6 499.85 4.7
-9 -1 -6 464.65 3.3
10 1 6 64.89 1.8
-10 -1 -6 11.9 2.4
-10 -1 -6 56.09 1.7
-10 -1 -6 75.49 2.6
6 -2 -6 321.67 2.9
6 -2 -6 322.47 2.9
6 -2 -6 354.56 3.3
-6 2 6 358.06 3.3
5 -2 -6 3.5 0.9
-5 2 6 5.3 1.1
5 -2 -6 2.3 0.9
5 -2 -6 3.4 1.4
4 -2 -6 427.46 2.7
-4 2 6 458.95 3.3
4 -2 -6 405.06 2.7
4 -2 -6 455.45 3.1
3 -2 -6 15.3 1.3
-3 2 6 17.7 1.1
3 -2 -6 15.2 0.9
3 -2 -6 17.5 1.1
2 -2 -6 823.62 3.4
2 -2 -6 835.72 3.4
-2 2 6 803.92 3.9
2 -2 -6 777.32 3.8
-1 2 6 213.58 2.1
-1 2 6 213.68 2
1 -2 -6 230.88 2.1
1 -2 -6 193.18 1.9
0 2 6 889.21 3.9
0 -2 -6 921.21 3.8
0 -2 -6 822.72 3.9
0 2 6 870.81 3.6
1 2 6 592.34 3.1
-1 -2 -6 630.24 3.2
1 2 6 640.24 3.4
-1 -2 -6 572.34 3.3
2 2 6 1641.54 5.4
2 2 6 1400.96 4.7
-2 -2 -6 1462.35 4.8
-2 -2 -6 1400.26 5
-3 -2 -6 1143.29 4.7
3 2 6 1005.3 4
-3 -2 -6 1049.2 4.1
3 2 6 1247.38 4.7
4 2 6 962.6 4
4 2 6 1224.08 4.9
-4 -2 -6 933.51 3.8
-4 -2 -6 1081.69 4.7
-5 -2 -6 1023.9 4.6
5 2 6 941.11 3.9
-5 -2 -6 972.3 4.1
-5 -2 -6 1125.29 4.9
-6 -2 -6 525.85 3.5
-6 -2 -6 531.95 3.7
6 2 6 512.95 3.1
-6 -2 -6 489.45 2.9
-7 -2 -6 542.35 3.9
7 2 6 538.75 3.3
-7 -2 -6 517.85 3.6
-7 -2 -6 490.95 3.1
8 2 6 94.19 1.6
-8 -2 -6 95.59 2
-8 -2 -6 88.29 1.8
-8 -2 -6 96.69 1.9
9 2 6 434.96 3.4
-9 -2 -6 422.86 4.1
-9 -2 -6 417.56 3.3
-9 -2 -6 402.96 3.7
10 2 6 0.8 1.1
-10 -2 -6 8.9 1.6
-10 -2 -6 -1.3 1.5
-10 -2 -6 0.4 1.3
-6 3 6 124.69 2.1
6 -3 -6 111.89 1.7
6 -3 -6 111.39 1.9
6 -3 -6 132.09 2.3
-5 3 6 113.79 1.9
5 -3 -6 105.59 1.8
5 -3 -6 99.39 1.6
5 -3 -6 113.19 1.9
-4 3 6 369.86 2.9
4 -3 -6 399.06 3
4 -3 -6 394.36 2.7
4 -3 -6 336.37 2.5
-3 3 6 68.19 1.8
3 -3 -6 64.79 1.2
3 -3 -6 66.79 1.5
3 -3 -6 57.99 1.3
2 -3 -6 1119.69 4
2 -3 -6 1123.39 4
-2 3 6 1254.87 4.9
2 -3 -6 1136.49 4.4
-1 3 6 7.2 0.9
1 -3 -6 7.4 0.9
-1 3 6 12.2 1.1
1 -3 -6 6.4 1
0 3 6 1866.41 5.1
0 -3 -6 1997.6 5.4
0 3 6 2092.69 5.9
0 -3 -6 1887.31 5.5
1 3 6 189.88 1.7
-1 -3 -6 191.48 1.9
-1 -3 -6 192.48 1.9
1 3 6 217.18 2.1
-2 -3 -6 2580.14 6.5
-2 -3 -6 2793.72 6.4
2 3 6 2940.91 6.9
2 3 6 2579.34 6.1
3 3 6 83.19 1.3
-3 -3 -6 89.49 1.7
-3 -3 -6 82.09 1.3
3 3 6 93.59 1.6
-4 -3 -6 2075.29 5.9
4 3 6 2062.29 5.5
-4 -3 -6 2060.99 5.5
-4 -3 -6 2438.56 6.5
-5 -3 -6 350.96 2.8
-5 -3 -6 308.67 2.5
5 3 6 300.17 2.3
-5 -3 -6 292.47 2.2
-6 -3 -6 873.91 4.3
6 3 6 814.22 3.8
-6 -3 -6 895.71 4.2
-6 -3 -6 815.52 3.7
-7 -3 -6 484.35 3.5
7 3 6 436.36 3
-7 -3 -6 426.66 2.9
-7 -3 -6 488.45 3.3
-8 -3 -6 175.78 2.3
8 3 6 171.48 2.4
-8 -3 -6 188.98 2.5
-8 -3 -6 155.48 2.1
9 3 6 278.27 2.8
-9 -3 -6 283.27 3.3
-9 -3 -6 274.67 2.7
-9 -3 -6 277.37 2.9
6 -4 -6 31.5 1.3
-6 4 6 31.3 1.4
6 -4 -6 28.4 1.2
6 -4 -6 -6.1 1.6
5 -4 -6 175.98 2.4
5 -4 -6 152.58 2.1
-5 4 6 164.38 2.4
5 -4 -6 139.59 1.9
4 -4 -6 322.47 2.8
4 -4 -6 277.37 2.5
-4 4 6 297.77 2.8
4 -4 -6 255.17 2.3
3 -4 -6 320.57 2.3
3 -4 -6 330.27 2.6
-3 4 6 369.86 3
3 -4 -6 316.97 2.3
2 -4 -6 1063.09 4
2 -4 -6 1046.7 4.2
-2 4 6 1198.98 4.7
2 -4 -6 1011.3 4
-1 4 6 550.24 2.8
1 -4 -6 525.55 3
-1 4 6 590.34 3.3
1 -4 -6 574.54 2.9
0 4 6 1111.69 4.3
0 4 6 1022.3 3.7
0 -4 -6 1072.39 3.8
0 -4 -6 1018.4 4.1
-1 -4 -6 265.67 2.2
1 4 6 251.17 2
-1 -4 -6 256.77 2.1
1 4 6 289.97 2.3
2 4 6 1080.89 4
2 4 6 1253.27 4.4
-2 -4 -6 1128.39 4.2
-2 -4 -6 1120.19 4
3 4 6 63.99 1.3
-3 -4 -6 68.19 1.3
3 4 6 82.19 1.5
-3 -4 -6 81.89 1.3
-4 -4 -6 1077.69 4.3
4 4 6 862.81 3.7
-4 -4 -6 895.71 3.6
-4 -4 -6 918.11 3.8
5 4 6 3.8 1.1
-5 -4 -6 6.3 1.2
-5 -4 -6 5.1 0.8
-5 -4 -6 8.8 1.2
-6 -4 -6 517.55 3.3
-6 -4 -6 438.06 2.8
6 4 6 447.36 2.8
-6 -4 -6 512.75 3.3
-7 -4 -6 88.59 1.7
-7 -4 -6 85.29 1.8
7 4 6 81.69 1.7
-7 -4 -6 78.09 1.5
8 4 6 314.07 2.9
-8 -4 -6 333.67 2.9
-8 -4 -6 330.37 2.8
-8 -4 -6 309.57 2.7
9 4 6 65.49 1.5
-9 -4 -6 64.19 1.7
-9 -4 -6 45.6 2.2
-9 -4 -6 65.59 1.7
5 -5 -6 381.16 3.4
-5 5 6 356.96 3.4
5 -5 -6 300.27 2.9
5 -5 -6 -78.89 2.6
4 -5 -6 9.4 1.4
4 -5 -6 13.2 1.2
-4 5 6 9.5 1.1
4 -5 -6 9.8 1.1
3 -5 -6 865.51 3.7
3 -5 -6 931.21 4.4
-3 5 6 953.2 4.5
3 -5 -6 931.61 3.8
2 -5 -6 95.39 1.4
2 -5 -6 94.99 1.6
2 -5 -6 103.69 1.8
-2 5 6 111.79 1.7
-1 5 6 863.61 4
1 -5 -6 783.22 3.4
1 -5 -6 810.42 3.7
0 5 6 263.27 2
0 -5 -6 269.77 2.1
0 5 6 304.47 2.5
0 -5 -6 262.87 2.2
1 5 6 403.96 2.5
-1 -5 -6 448.86 2.7
1 5 6 498.65 3
-1 -5 -6 416.36 2.5
2 5 6 554.44 2.8
-2 -5 -6 579.04 2.9
-2 -5 -6 581.44 3.1
2 5 6 701.03 3.3
-3 -5 -6 356.66 2.5
-3 -5 -6 393.86 2.5
3 5 6 342.37 2.3
-3 -5 -6 382.66 2.5
-4 -5 -6 802.82 3.8
4 5 6 760.52 3.5
-4 -5 -6 715.13 3.5
-4 -5 -6 794.92 3.5
5 5 6 130.09 1.7
-5 -5 -6 133.59 1.8
-5 -5 -6 150.08 1.8
-5 -5 -6 131.49 1.7
-6 -5 -6 760.92 3.9
6 5 6 684.73 3.5
-6 -5 -6 727.43 3.7
-6 -5 -6 806.32 4
7 5 6 104.79 1.9
-7 -5 -6 100.19 1.7
-7 -5 -6 110.09 1.9
-7 -5 -6 107.09 1.7
8 5 6 513.95 3.6
-8 -5 -6 487.75 3.3
-8 -5 -6 495.75 3.4
-8 -5 -6 487.45 3.4
9 5 6 5.6 1.5
-9 -5 -6 8.6 1.5
-9 -5 -6 14.2 1.4
-9 -5 -6 6.1 1.6
5 -6 -6 241.68 3
5 -6 -6 195.88 2.4
5 -6 -6 -62.19 2
-5 6 6 223.68 2.7
-4 6 6 60.09 1.7
4 -6 -6 51.99 1.3
4 -6 -6 56.29 1.7
4 -6 -6 47.5 1.2
-3 6 6 420.66 3.3
3 -6 -6 405.06 3.1
3 -6 -6 406.26 2.8
3 -6 -6 387.76 2.7
2 -6 -6 39.9 1.1
2 -6 -6 39.7 1.2
-2 6 6 46.9 1.5
2 -6 -6 42.4 1.4
1 -6 -6 538.65 3
1 -6 -6 568.24 3.1
-1 6 6 632.64 3.6
0 -6 -6 14.5 0.9
0 6 6 13.3 0.9
0 -6 -6 15 0.8
0 6 6 17.1 1.3
1 6 6 817.92 3.5
-1 -6 -6 839.02 3.7
-1 -6 -6 884.81 3.5
1 6 6 984.2 4
-2 -6 -6 235.28 2.1
2 6 6 247.28 2.1
-2 -6 -6 250.77 2
-2 -6 -6 246.68 2.1
-3 -6 -6 637.64 3.4
-3 -6 -6 688.63 3.3
3 6 6 661.73 3.3
-3 -6 -6 716.63 3.6
-4 -6 -6 339.87 2.5
-4 -6 -6 370.26 2.8
4 6 6 355.96 2.5
-4 -6 -6 377.96 2.6
5 6 6 712.33 3.4
-5 -6 -6 747.23 3.6
-5 -6 -6 -14 4.2
-5 -6 -6 696.63 3.6
6 6 6 270.87 2.5
-6 -6 -6 275.57 2.7
-6 -6 -6 270.57 2.5
-6 -6 -6 290.77 2.5
-7 -6 -6 378.76 3
-7 -6 -6 353.66 2.8
7 6 6 360.76 2.8
-7 -6 -6 359.76 2.9
8 6 6 172.38 2.5
-8 -6 -6 170.88 2.3
-8 -6 -6 171.38 2.2
-8 -6 -6 175.48 2.3
4 -7 -6 106.59 1.8
4 -7 -6 122.79 2.2
-4 7 6 134.69 2.2
4 -7 -6 114.49 2
3 -7 -6 126.39 1.8
3 -7 -6 125.19 2
-3 7 6 132.69 1.9
3 -7 -6 118.39 1.7
2 -7 -6 64.79 1.7
-2 7 6 94.09 1.7
2 -7 -6 87.89 1.7
2 -7 -6 91.89 1.6
1 -7 -6 400.56 2.7
1 -7 -6 450.05 2.9
1 -7 -6 -0.1 3.2
-1 7 6 469.35 3.3
0 -7 -6 31.9 1
0 7 6 35.4 1.4
0 7 6 31.6 1.3
0 -7 -6 32.2 1.1
1 7 6 761.92 3.5
-1 -7 -6 788.92 3.5
-1 -7 -6 768.22 3.5
-2 -7 -6 19.5 1
2 7 6 23.7 1.1
-2 -7 -6 24.3 1.3
-2 -7 -6 25.2 1
-3 -7 -6 794.92 3.7
3 7 6 808.22 3.6
-3 -7 -6 925.01 3.9
-3 -7 -6 913.81 4
-4 -7 -6 44.1 1.3
-4 -7 -6 39.9 1.2
4 7 6 43 1.3
-4 -7 -6 45.7 1.4
5 7 6 633.64 3.5
-5 -7 -6 642.24 3.7
-5 -7 -6 653.23 3.5
-5 -7 -6 -8.6 4.4
6 7 6 7.3 0.9
-6 -7 -6 10.5 1.4
-6 -7 -6 7.1 0.9
-6 -7 -6 8.1 1.1
-7 -7 -6 165.28 2.1
-7 -7 -6 169.68 2.3
7 7 6 171.68 2.3
-7 -7 -6 174.98 2.2
-3 8 6 2.9 1.4
3 -8 -6 26.9 1.1
3 -8 -6 28.3 1.5
3 -8 -6 27.4 1.3
2 -8 -6 -47.2 2.1
2 -8 -6 266.17 2.3
2 -8 -6 275.27 2.6
-2 8 6 300.57 2.9
1 -8 -6 163.98 2
-1 8 6 170.78 2.1
1 -8 -6 174.78 2
1 -8 -6 178.98 2.1
0 -8 -6 377.36 3
0 -8 -6 429.66 2.9
0 -8 -6 422.76 2.8
0 8 6 447.56 2.8
1 8 6 293.07 2.2
-1 -8 -6 257.97 2.4
-1 -8 -6 273.07 2.4
-1 -8 -6 273.27 2.2
2 8 6 428.56 2.8
-2 -8 -6 408.76 2.7
-2 -8 -6 396.76 3
-2 -8 -6 409.56 3.2
3 8 6 318.97 2.7
-3 -8 -6 320.57 2.7
-3 -8 -6 380.86 2.8
-3 -8 -6 386.26 3
-4 -8 -6 179.18 2
4 8 6 -10 2
-4 -8 -6 169.28 2.1
-4 -8 -6 180.48 2.1
5 8 6 337.07 2.7
-5 -8 -6 260.97 3
-5 -8 -6 362.36 2.7
-5 -8 -6 290.17 3.2
6 8 6 7 1.3
-6 -8 -6 4.7 1.3
-6 -8 -6 3.8 1.3
-6 -8 -6 2.8 1.1
2 -9 -6 344.27 3.1
2 -9 -6 346.27 3.1
2 -9 -6 419.66 3.3
2 -9 -6 384.86 3.1
1 -9 -6 6.3 1.3
1 -9 -6 7.6 1
1 -9 -6 5.1 1.3
1 -9 -6 1.3 1
0 -9 -6 420.86 3.3
0 -9 -6 442.56 3.2
0 -9 -6 441.96 3.1
1 9 6 3 0.9
-1 -9 -6 3 1
-1 -9 -6 4.1 1.2
-1 -9 -6 2 1.1
2 9 6 236.98 2.3
-2 -9 -6 244.78 2.6
-2 -9 -6 246.78 2.3
-2 -9 -6 241.38 2.6
-3 -9 -6 20.4 1.2
-3 -9 -6 22.3 1.3
3 9 6 22.1 1.3
-3 -9 -6 20 1.5
4 9 6 150.88 2.2
-4 -9 -6 139.59 2.4
-4 -9 -6 146.89 2.3
-4 -9 -6 154.78 2.1
5 9 6 35.1 2.3
-5 -9 -6 188.78 2.7
-5 -9 -6 195.48 2.3
-5 -9 -6 183.88 2.5
1 10 6 -0.2 1.1
-1 -10 -6 11 1
-1 -10 -6 7.8 1.1
-1 -10 -6 -0.8 1
2 10 6 175.18 2.3
-2 -10 -6 150.68 2.4
-2 -10 -6 171.88 2.3
-2 -10 -6 -6.6 2.3
3 10 6 0.5 1.2
-3 -10 -6 0.3 1
-3 -10 -6 0.7 1.3
-3 -10 -6 0.6 1.4
0 -8 7 354.86 3.4
0 8 -7 364.26 3.7
1 -8 7 45.7 1.9
-1 8 -7 2.7 2
2 -8 7 339.17 3.5
-2 8 -7 334.77 3.6
3 -8 7 126.29 2.7
-3 8 -7 131.99 2.7
4 -8 7 242.18 5.4
4 -8 7 260.57 5.6
-4 8 -7 42.5 4.4
4 -8 7 281.37 4.4
2 7 -7 156.78 2.7
-2 -7 7 162.48 2.5
1 7 -7 100.39 2.3
-1 -7 7 101.79 2.2
0 -7 7 548.35 4
0 7 -7 526.05 4.2
1 -7 7 23.9 1.3
-1 7 -7 21.1 1.6
2 -7 7 607.84 4.2
-2 7 -7 634.84 4.5
3 -7 7 28.2 1.4
-3 7 -7 32.7 1.7
-4 7 -7 574.44 6.5
-4 7 -7 577.04 5.1
4 -7 7 512.55 5.4
4 -7 7 549.45 5.2
5 -7 7 9.4 1.5
5 -7 7 10.2 2
5 -7 7 8.7 1.8
-5 7 -7 8.3 1.5
6 -7 7 337.07 4
-6 7 -7 321.47 4
-3 -6 7 349.96 3.5
3 6 -7 324.07 3.3
-2 -6 7 167.28 2.4
2 6 -7 144.39 2.3
-1 -6 7 370.76 3.3
1 6 -7 391.16 3.4
0 -6 7 323.77 3
0 6 -7 311.97 3.1
1 -6 7 680.03 4.2
-1 6 -7 711.63 4.4
2 -6 7 749.13 4.6
-2 6 -7 802.72 4.8
3 -6 7 454.95 3.8
-3 6 -7 476.85 4.1
3 -6 7 429.16 5.2
-3 6 -7 458.55 6.1
4 -6 7 555.94 4.5
-4 6 -7 653.93 5.4
4 -6 7 575.34 5
-4 6 -7 620.34 5.3
5 -6 7 69.69 2.7
-5 6 -7 55.89 2.9
5 -6 7 78.29 2
-5 6 -7 70.49 2
6 -6 7 419.46 3.8
-6 6 -7 309.37 3.7
7 -6 7 13.4 1.4
-7 6 -7 -2.2 1.2
-4 -5 7 14.8 1.6
4 5 -7 12.9 1.9
4 5 -7 13.2 1.3
4 5 -7 -0.4 2.3
-3 -5 7 609.54 4.1
3 5 -7 590.54 6.9
3 5 -7 499.15 3.7
3 5 -7 401.96 7.9
-2 -5 7 3.7 1.4
2 5 -7 4.6 1.6
2 5 -7 5.1 3.6
-1 -5 7 610.84 3.9
1 5 -7 606.54 3.9
0 -5 7 2.2 1.4
0 5 -7 2.2 1.5
1 -5 7 1123.79 5
-1 5 -7 1099.19 5.2
2 -5 7 87.39 1.8
2 -5 7 91.59 2.8
-2 5 -7 97.89 1.9
-2 5 -7 96.49 3.4
3 -5 7 286.47 3.4
3 -5 7 309.77 3.2
-3 5 -7 318.07 3.5
-3 5 -7 303.87 4.1
4 -5 7 171.68 2.6
-4 5 -7 206.48 3.4
4 -5 7 195.18 3.1
-4 5 -7 190.48 3
-5 5 -7 301.27 5
5 -5 7 317.27 4.6
5 -5 7 301.57 3.1
-5 5 -7 263.27 3
6 -5 7 476.95 3.6
-6 5 -7 421.76 3.4
7 -5 7 213.58 2.6
-7 5 -7 219.58 2.7
8 -5 7 286.17 3.1
-8 5 -7 305.77 3.2
4 4 -7 -0.2 3
-4 -4 7 163.28 2.3
4 4 -7 0.7 2.3
4 4 -7 152.38 3.6
-3 -4 7 302.87 3
3 4 -7 258.67 3.1
3 4 -7 350.86 4.7
3 4 -7 338.57 3.9
-2 -4 7 134.59 2.2
2 4 -7 163.58 3
2 4 -7 131.49 2.4
2 4 -7 157.68 3.4
1 4 -7 432.86 5
-1 -4 7 404.26 3
1 4 -7 410.86 3.3
1 4 -7 454.65 5.7
0 -4 7 183.78 2.2
0 4 -7 185.08 3.9
0 4 -7 177.88 2.5
0 4 -7 198.98 3.9
1 -4 7 457.05 3.3
-1 4 -7 486.55 5.8
1 -4 7 461.75 4.8
-1 4 -7 443.36 3.3
2 -4 7 32.8 1.7
2 -4 7 27.7 1.2
-2 4 -7 35.4 2
-2 4 -7 30 1.6
3 -4 7 532.25 3.9
3 -4 7 587.14 4.1
-3 4 -7 586.94 4.4
-3 4 -7 594.74 5
4 -4 7 2.1 1.3
-4 4 -7 4.4 1.5
-4 4 -7 6.1 1.6
4 -4 7 2 1.2
-5 4 -7 1356.46 9.7
5 -4 7 1260.67 5.5
-5 4 -7 1160.68 6
5 -4 7 1376.86 8.8
6 -4 7 35.9 1.3
-6 4 -7 31.4 1.6
7 -4 7 800.12 4.4
-7 4 -7 719.03 4.2
8 -4 7 45.6 1.7
-8 4 -7 47.1 1.7
9 -4 7 135.09 3.1
-9 4 -7 318.27 3.1
5 3 -7 8.5 1.3
-5 -3 7 8.8 1.5
5 3 -7 3.2 1.5
5 3 -7 5.6 1.6
-4 -3 7 428.06 3.5
4 3 -7 385.56 3.2
4 3 -7 418.36 4.2
4 3 -7 377.86 3.5
3 3 -7 42.4 1.5
-3 -3 7 41.7 1.7
3 3 -7 39.1 1.7
3 3 -7 40.5 1.7
2 3 -7 516.85 4.1
-2 -3 7 483.45 3.4
2 3 -7 446.26 3.4
2 3 -7 521.75 4.4
-1 -3 7 229.98 2.3
1 3 -7 260.27 3
1 3 -7 241.38 2.6
1 3 -7 241.98 3.1
0 3 -7 533.25 4.2
0 -3 7 467.75 3.2
0 3 -7 472.35 4.1
0 3 -7 449.16 3.3
1 -3 7 831.22 4.9
1 -3 7 817.12 4.2
-1 3 -7 783.22 5.2
-1 3 -7 741.53 4.4
2 -3 7 180.18 2.4
2 -3 7 181.98 2.2
-2 3 -7 173.08 2.8
-2 3 -7 162.98 2.5
3 -3 7 1452.35 5.8
-3 3 -7 1571.14 6.9
3 -3 7 1535.55 6.2
-3 3 -7 1326.97 6.7
4 -3 7 282.17 3.1
4 -3 7 242.98 2.4
-4 3 -7 292.97 3.1
-4 3 -7 271.97 3.6
5 -3 7 1256.47 7.5
5 -3 7 1170.38 5.2
-5 3 -7 1132.49 5.3
-5 3 -7 1217.28 8.7
6 -3 7 176.08 2.3
-6 3 -7 168.58 2.3
7 -3 7 751.62 4.1
-7 3 -7 740.13 4.2
8 -3 7 8.1 1.4
-8 3 -7 5.6 1.5
9 -3 7 273.67 3
-9 3 -7 298.67 3.1
5 2 -7 44.1 1.6
-5 -2 7 -0.4 1.6
5 2 -7 43.7 1.7
5 2 -7 -12.7 1.5
4 2 -7 335.47 2.8
-4 -2 7 347.17 3
4 2 -7 302.47 2.8
4 2 -7 334.97 3.2
3 2 -7 3.8 1
-3 -2 7 1 1.3
3 2 -7 -0.7 1.3
3 2 -7 0.3 0.9
2 2 -7 873.01 4.5
-2 -2 7 748.03 4
2 2 -7 747.93 4.1
2 2 -7 819.12 4.6
1 2 -7 11.1 1.2
1 2 -7 11 1.2
-1 -2 7 9.3 1
1 2 -7 10.1 1.3
0 -2 7 1417.16 5.9
0 2 -7 1443.26 6.1
0 -2 7 1443.26 5.1
0 2 -7 1468.55 5.5
1 -2 7 184.58 2.3
-1 2 -7 190.48 2.4
1 -2 7 206.98 2.2
-1 2 -7 192.98 2.6
2 -2 7 1345.67 5.4
-2 2 -7 1341.87 5.8
2 -2 7 1426.46 5.5
-2 2 -7 1305.87 5.9
-3 2 -7 157.28 2.6
3 -2 7 152.68 2.1
-3 2 -7 163.58 2.1
3 -2 7 157.98 2.2
-4 2 -7 818.42 5.7
4 -2 7 884.91 4.3
4 -2 7 992.5 5.3
-4 2 -7 983.7 4.8
-5 2 -7 307.07 4.3
5 -2 7 319.87 2.7
-5 2 -7 343.77 3
5 -2 7 378.96 3.8
-6 2 -7 433.76 5.7
6 -2 7 469.25 3.2
-6 2 -7 429.36 3.2
-6 2 -7 431.56 6.4
7 -2 7 373.56 3.1
-7 2 -7 377.16 3.1
8 -2 7 113.89 2
-8 2 -7 16.6 2.1
9 -2 7 259.77 2.5
-9 2 -7 250.27 2.5
-5 -1 7 98.29 2
5 1 -7 89.99 1.9
5 1 -7 85.29 1.7
5 1 -7 91.99 2.1
4 1 -7 437.46 3.1
-4 -1 7 372.86 3.4
4 1 -7 398.06 3.3
4 1 -7 435.76 3.3
-3 -1 7 45.1 2.2
3 1 -7 173.48 2.3
3 1 -7 142.89 2
3 1 -7 145.09 1.9
2 1 -7 1000.4 4.5
-2 -1 7 1003.3 4.5
2 1 -7 976.4 4.6
2 1 -7 966.2 4.4
1 1 -7 314.57 2.7
1 1 -7 305.87 2.7
-1 -1 7 287.17 2.5
1 1 -7 282.57 2.5
0 1 -7 1575.74 5.8
0 1 -7 1661.43 5.8
0 -1 7 1593.54 5.6
0 -1 7 1531.25 5.3
-1 1 -7 222.68 2.6
-1 1 -7 194.18 2.1
1 -1 7 194.08 2
1 -1 7 213.08 2.1
-2 1 -7 1781.02 6.5
2 -1 7 1810.12 5.8
-2 1 -7 1802.82 6.2
2 -1 7 1798.82 5.9
3 -1 7 25.1 1.4
-3 1 -7 20 1.6
3 -1 7 19.5 1
-3 1 -7 20 1.4
-4 1 -7 941.81 5.5
4 -1 7 1079.59 4.4
-4 1 -7 1148.99 4.8
4 -1 7 1260.07 5.5
5 -1 7 86.79 1.8
-5 1 -7 71.79 2
5 -1 7 90.09 1.9
-5 1 -7 89.29 1.8
-6 1 -7 423.16 4.3
6 -1 7 417.66 2.9
-6 1 -7 374.16 4.3
-6 1 -7 427.76 3.1
-7 1 -7 39.7 2.3
7 -1 7 37.8 1.2
-7 1 -7 33.9 2.2
-7 1 -7 34.9 1.2
8 -1 7 373.76 3.1
-8 1 -7 362.16 5.7
-8 1 -7 375.26 3.1
-8 1 -7 412.26 6.2
-9 1 -7 202.98 7.7
9 -1 7 200.58 2.5
-9 1 -7 210.68 7.3
-9 1 -7 171.38 2.4
10 -1 7 203.78 2.5
-10 1 -7 197.48 2.5
5 0 -7 466.85 3.4
-5 0 7 437.36 3.6
5 0 -7 484.65 3.4
5 0 -7 473.85 3.6
4 0 -7 242.58 2.4
-4 0 7 225.58 2.7
4 0 -7 234.78 2.7
4 0 -7 241.58 2.5
3 0 -7 949.6 4.1
-3 0 7 889.61 4.3
3 0 -7 951.4 4.5
3 0 -7 959.6 4.3
2 0 -7 361.06 2.5
-2 0 7 360.66 2.8
2 0 -7 377.76 3
2 0 -7 370.66 2.7
1 0 -7 615.34 3.5
1 0 -7 655.63 3.5
1 0 -7 632.34 3.4
-1 0 7 604.24 3.4
0 0 7 593.34 3.2
0 0 -7 592.34 3.4
0 0 -7 625.24 3.3
0 0 7 591.24 3.4
1 0 7 399.96 2.7
-1 0 -7 424.96 3.2
-1 0 -7 406.36 2.8
1 0 7 414.86 2.8
2 0 7 914.31 4
2 0 7 967.4 4.3
-2 0 -7 854.71 4.3
-2 0 -7 939.51 4.2
3 0 7 122.89 1.6
-3 0 -7 124.69 1.9
-3 0 -7 113.49 1.8
3 0 7 134.79 2
4 0 7 1370.36 5.5
-4 0 -7 1179.38 4.5
-4 0 -7 1121.59 5.4
4 0 7 1204.08 4.5
-5 0 -7 70.99 1.6
5 0 7 72.59 1.5
5 0 7 79.09 1.8
-5 0 -7 62.79 1.7
-6 0 -7 765.62 4.8
6 0 7 812.82 3.8
-6 0 -7 805.12 3.8
-6 0 -7 765.92 5
-7 0 -7 22.6 1.7
-7 0 -7 22.6 1.7
7 0 7 23.9 1.1
-7 0 -7 22.1 1.4
-8 0 -7 901.11 6
8 0 7 896.31 4.6
-8 0 -7 950 6.9
-8 0 -7 832.52 4.3
-9 0 -7 3.3 1.6
9 0 7 6.2 1.1
-9 0 -7 5.5 1.7
-9 0 -7 4.9 1
-10 0 -7 209.98 4.6
10 0 7 224.08 2.6
-10 0 -7 219.28 2.5
-10 0 -7 247.28 5.1
5 -1 -7 549.05 3.5
-5 1 7 573.14 3.8
5 -1 -7 540.75 3.8
5 -1 -7 540.25 3.6
4 -1 -7 18.4 1.3
-4 1 7 28.7 1.6
4 -1 -7 17.4 1.4
4 -1 -7 18.2 1.5
3 -1 -7 644.74 3.3
-3 1 7 617.94 3.7
3 -1 -7 669.63 3.5
3 -1 -7 646.24 3.7
2 -1 -7 1.4 1.2
2 -1 -7 2.7 1
2 -1 -7 1.7 0.8
-2 1 7 -0.1 1.3
1 -1 -7 920.31 4
1 -1 -7 973.9 3.9
-1 1 7 925.21 4.1
0 1 7 83.79 1.5
0 -1 -7 100.79 1.7
0 -1 -7 78.19 1.4
0 1 7 78.29 1.4
1 1 7 1017.8 4.3
1 1 7 1063.49 4
-1 -1 -7 1072.29 4.1
-1 -1 -7 956.3 4.4
-2 -1 -7 320.07 2.3
-2 -1 -7 293.97 2.5
2 1 7 337.77 2.6
2 1 7 310.57 2.4
3 1 7 1352.46 4.6
-3 -1 -7 1407.46 4.7
-3 -1 -7 1339.87 5.3
3 1 7 1529.35 5.3
4 1 7 601.84 3.1
-4 -1 -7 638.64 3.2
4 1 7 759.52 4
-4 -1 -7 648.14 3.8
-5 -1 -7 910.01 4.7
5 1 7 816.72 3.7
-5 -1 -7 826.62 3.7
-6 -1 -7 854.61 4.7
-6 -1 -7 894.01 4.7
6 1 7 844.42 3.9
-6 -1 -7 844.62 3.8
-7 -1 -7 558.24 4.3
7 1 7 542.75 3.2
-7 -1 -7 543.55 4
-7 -1 -7 524.85 3.1
8 1 7 743.23 3.8
-8 -1 -7 754.22 5.1
-8 -1 -7 742.53 4.7
-8 -1 -7 660.33 3.6
9 1 7 133.19 2
-9 -1 -7 142.59 2.9
-9 -1 -7 123.89 2
-9 -1 -7 135.59 2.6
10 1 7 162.68 2.3
-10 -1 -7 152.08 2.3
-10 -1 -7 121.29 3.5
-10 -1 -7 169.08 3.1
5 -2 -7 83.99 1.7
5 -2 -7 84.69 1.9
-5 2 7 86.99 1.8
5 -2 -7 93.59 1.9
4 -2 -7 185.58 2
4 -2 -7 -24 2.3
-4 2 7 130.99 2.5
4 -2 -7 213.08 2.5
3 -2 -7 318.57 2.7
3 -2 -7 296.27 2.4
-3 2 7 303.47 2.7
3 -2 -7 284.07 2.3
-2 2 7 120.99 1.9
2 -2 -7 117.69 1.7
2 -2 -7 107.79 1.6
2 -2 -7 107.69 1.5
-1 2 7 906.41 4.1
1 -2 -7 1006.2 3.8
1 -2 -7 827.42 3.9
0 2 7 7.3 1.1
0 -2 -7 8.8 1.1
0 2 7 7.5 0.8
0 -2 -7 5.1 0.8
1 2 7 1414.96 4.5
-1 -2 -7 1500.15 4.8
1 2 7 1493.95 5
-1 -2 -7 1311.27 4.7
2 2 7 3.4 0.9
-2 -2 -7 2.3 0.7
-2 -2 -7 1.5 1.1
2 2 7 11 0.9
3 2 7 1930.71 5.4
-3 -2 -7 2025.4 5.6
3 2 7 2367.86 6.3
-3 -2 -7 2132.69 6.2
-4 -2 -7 2.8 0.9
4 2 7 3.2 0.9
-4 -2 -7 6.9 0.7
4 2 7 4.1 0.9
5 2 7 1338.37 4.5
-5 -2 -7 1445.66 5.4
-5 -2 -7 1382.66 4.6
-5 -2 -7 1447.26 5.3
-6 -2 -7 13.6 1.2
6 2 7 11.9 1
-6 -2 -7 16.9 1
-6 -2 -7 13.7 1
7 2 7 1018.9 4.3
-7 -2 -7 958.3 4.2
-7 -2 -7 1027.9 5.3
-7 -2 -7 995.3 4.9
-8 -2 -7 125.79 2
8 2 7 139.99 1.8
-8 -2 -7 145.59 2.3
-8 -2 -7 128.49 1.9
-9 -2 -7 193.58 2.8
9 2 7 207.28 2.3
-9 -2 -7 225.08 3
-9 -2 -7 203.68 2.3
-10 -2 -7 48.4 2.7
10 2 7 156.78 2.3
-10 -2 -7 148.49 3
-10 -2 -7 145.39 2.4
-5 3 7 16.9 1.6
5 -3 -7 15.2 1
5 -3 -7 14.2 1.2
5 -3 -7 17.6 1.3
4 -3 -7 384.46 3.1
-4 3 7 369.06 3
4 -3 -7 327.87 2.6
4 -3 -7 328.37 2.6
-3 3 7 132.59 1.9
3 -3 -7 124.29 1.8
3 -3 -7 133.89 1.8
3 -3 -7 126.09 1.8
2 -3 -7 603.94 3
2 -3 -7 625.84 3
-2 3 7 593.64 3.5
2 -3 -7 524.25 3.2
1 -3 -7 511.65 2.9
-1 3 7 533.35 3.1
1 -3 -7 472.15 3
0 -3 -7 586.64 2.9
0 3 7 577.14 2.9
0 3 7 638.74 3.3
0 -3 -7 554.64 3.1
1 3 7 1215.88 4
-1 -3 -7 1221.38 4.1
-1 -3 -7 1175.38 4.4
1 3 7 1270.07 4.5
2 3 7 743.23 3.2
2 3 7 913.31 3.8
-2 -3 -7 772.32 3.3
-2 -3 -7 777.12 3.5
3 3 7 1556.34 4.9
-3 -3 -7 1405.76 4.8
3 3 7 1233.38 4.2
-3 -3 -7 1313.27 4.4
4 3 7 156.08 1.8
4 3 7 197.58 1.9
-4 -3 -7 181.68 1.9
-4 -3 -7 158.58 1.6
5 3 7 888.81 3.7
-5 -3 -7 899.91 3.8
-5 -3 -7 950.9 4.2
-5 -3 -7 1033.8 4.4
-6 -3 -7 6.4 1.2
6 3 7 5.4 0.9
-6 -3 -7 8.2 1.2
-6 -3 -7 5.9 0.9
-7 -3 -7 737.73 4
-7 -3 -7 628.74 3.8
7 3 7 647.34 3.5
-7 -3 -7 621.54 3.4
-8 -3 -7 8.4 1.2
8 3 7 8.1 1.3
-8 -3 -7 10.4 1.3
-8 -3 -7 8.2 1
-9 -3 -7 407.96 3.7
-9 -3 -7 479.55 3.9
9 3 7 451.85 3.4
-9 -3 -7 398.66 3.1
5 -4 -7 3.1 1.4
5 -4 -7 1.5 1.3
-5 4 7 1.7 1.1
5 -4 -7 1 1.2
4 -4 -7 382.96 3.2
-4 4 7 366.66 3.3
4 -4 -7 328.87 2.8
4 -4 -7 297.07 2.6
-3 4 7 0.4 1.1
3 -4 -7 2.8 1
3 -4 -7 2.6 1.2
3 -4 -7 0.8 0.9
2 -4 -7 842.62 3.7
2 -4 -7 844.92 3.7
2 -4 -7 884.41 4
-2 4 7 1003.6 4.4
1 -4 -7 86.89 1.5
1 -4 -7 60.29 1.5
-1 4 7 68.69 1.4
0 4 7 1166.78 4
0 -4 -7 1243.08 4.1
0 -4 -7 1111.19 4.2
0 4 7 1326.57 4.7
1 4 7 11.5 0.8
1 4 7 17.1 1.2
-1 -4 -7 12.8 0.8
-1 -4 -7 15.9 0.9
-2 -4 -7 1104.19 4.1
2 4 7 1124.09 3.9
-2 -4 -7 1123.49 3.8
2 4 7 1276.27 4.4
3 4 7 297.07 2.3
3 4 7 259.57 2.1
-3 -4 -7 276.07 2.3
-3 -4 -7 270.27 2
-4 -4 -7 184.78 1.9
4 4 7 173.38 1.8
-4 -4 -7 186.18 1.9
-4 -4 -7 198.28 2
-5 -4 -7 483.35 3.1
5 4 7 457.45 2.8
-5 -4 -7 460.95 2.8
-5 -4 -7 529.05 3.2
-6 -4 -7 130.29 1.9
-6 -4 -7 126.39 1.9
6 4 7 115.59 1.8
-6 -4 -7 110.79 1.6
-7 -4 -7 482.45 3.3
-7 -4 -7 477.25 3.4
7 4 7 458.45 3.1
-7 -4 -7 390.56 3
8 4 7 158.28 2.1
-8 -4 -7 176.68 2.3
-8 -4 -7 160.68 2.3
-8 -4 -7 147.79 2.2
9 4 7 478.85 3.6
-9 -4 -7 478.45 3.8
-9 -4 -7 -80.19 3.6
-9 -4 -7 419.36 3.4
4 -5 -7 200.08 2.3
4 -5 -7 212.38 2.5
-4 5 7 30.7 2.7
4 -5 -7 198.28 2.2
3 -5 -7 159.88 1.9
3 -5 -7 157.78 2.2
-3 5 7 170.88 2.3
3 -5 -7 150.58 1.9
2 -5 -7 434.56 2.7
2 -5 -7 431.66 2.7
2 -5 -7 440.96 3
-2 5 7 467.75 3.1
-1 5 7 107.79 1.8
1 -5 -7 94.69 1.5
1 -5 -7 94.79 1.5
0 5 7 250.27 2
0 -5 -7 252.57 2
0 5 7 282.57 2.4
0 -5 -7 246.28 2.1
-1 -5 -7 255.27 2.2
-1 -5 -7 262.47 2.1
1 5 7 301.07 2.4
1 5 7 239.48 2.1
2 5 7 590.34 3
-2 -5 -7 614.24 3.3
-2 -5 -7 599.34 2.9
2 5 7 692.13 3.4
3 5 7 26.8 0.9
3 5 7 32.5 1.1
-3 -5 -7 29.5 1.3
-3 -5 -7 29.3 1
-4 -5 -7 703.83 3.4
4 5 7 666.73 3.2
-4 -5 -7 672.73 3.3
-4 -5 -7 779.42 3.6
-5 -5 -7 13.5 1
5 5 7 11.1 1.1
-5 -5 -7 14.6 0.9
-5 -5 -7 12.5 1.3
-6 -5 -7 974.3 4.4
-6 -5 -7 939.71 4.2
6 5 7 880.01 4
-6 -5 -7 920.11 4.2
-7 -5 -7 89.79 1.6
-7 -5 -7 81.59 1.6
-7 -5 -7 86.49 1.9
7 5 7 75.19 1.7
8 5 7 465.05 3.4
-8 -5 -7 474.55 3.6
-8 -5 -7 379.66 3.3
-8 -5 -7 427.26 3.1
9 5 7 70.19 1.6
-9 -5 -7 89.69 2.1
-9 -5 -7 82.79 1.8
-9 -5 -7 77.79 1.9
-4 6 7 37 1.7
4 -6 -7 32.6 1.5
4 -6 -7 8.6 1.6
4 -6 -7 34.1 1.5
-3 6 7 334.17 3
3 -6 -7 156.18 2.5
3 -6 -7 293.97 2.8
3 -6 -7 257.27 2.4
2 -6 -7 126.89 1.7
2 -6 -7 125.29 1.8
-2 6 7 132.79 2.1
2 -6 -7 117.79 1.7
1 -6 -7 313.77 2.4
-1 6 7 352.96 2.7
1 -6 -7 307.47 2.6
0 6 7 323.37 2.7
0 6 7 257.77 2.1
0 -6 -7 270.07 2.2
0 -6 -7 283.87 2.4
-1 -6 -7 139.29 1.7
1 6 7 140.09 1.6
-1 -6 -7 143.99 1.7
1 6 7 170.38 1.9
-2 -6 -7 756.62 3.6
2 6 7 693.43 3.2
2 6 7 883.71 4.1
-2 -6 -7 801.32 3.4
-3 -6 -7 72.99 1.4
3 6 7 78.69 1.3
-3 -6 -7 76.79 1.3
-3 -6 -7 73.59 1.4
-4 -6 -7 707.03 3.6
4 6 7 721.43 3.3
-4 -6 -7 753.62 3.3
-4 -6 -7 739.83 3.7
-5 -6 -7 124.99 1.8
5 6 7 120.39 1.8
-5 -6 -7 108.49 1.7
-5 -6 -7 118.39 1.8
6 6 7 706.23 3.8
-6 -6 -7 826.62 4.3
-6 -6 -7 702.43 3.7
-6 -6 -7 798.32 4.2
7 6 7 2.3 1.3
-7 -6 -7 6.6 1.4
-7 -6 -7 1.5 1
-7 -6 -7 2 1.2
8 6 7 278.77 2.8
-8 -6 -7 285.47 2.7
-8 -6 -7 312.87 3
-8 -6 -7 256.37 2.9
3 -7 -7 201.38 2.3
3 -7 -7 221.88 2.6
-3 7 7 220.88 2.6
3 -7 -7 159.88 2.3
2 -7 -7 29.1 1.4
2 -7 -7 33.8 1.4
2 -7 -7 34.5 1.2
-2 7 7 38.5 1.6
1 -7 -7 397.66 2.9
-1 7 7 411.56 3.1
1 -7 -7 368.36 2.8
1 -7 -7 378.76 2.9
0 7 7 164.58 2.2
0 7 7 141.09 1.7
0 -7 -7 147.19 1.7
0 -7 -7 157.08 2.1
-1 -7 -7 387.56 2.8
1 7 7 436.26 3.1
-1 -7 -7 395.86 2.7
1 7 7 384.36 2.6
-2 -7 -7 87.59 1.5
2 7 7 105.89 1.7
-2 -7 -7 103.29 1.7
-2 -7 -7 96.09 1.6
-3 -7 -7 547.45 3.1
3 7 7 538.95 3
-3 -7 -7 604.34 3.2
-3 -7 -7 586.24 3.3
-4 -7 -7 172.68 2.1
4 7 7 162.58 2
-4 -7 -7 169.98 1.9
-4 -7 -7 169.68 2
-5 -7 -7 259.77 2.7
5 7 7 248.58 2.2
-5 -7 -7 227.28 2.5
-5 -7 -7 250.57 2.3
6 7 7 130.59 1.8
-6 -7 -7 133.09 2
-6 -7 -7 141.29 2
-6 -7 -7 128.19 1.9
7 7 7 50.99 2
-7 -7 -7 96.69 1.8
-7 -7 -7 73.19 1.8
-7 -7 -7 98.49 2
2 -8 -7 -2.3 0.9
2 -8 -7 17.9 1
2 -8 -7 17.3 1.1
-2 8 7 1 1.3
1 -8 -7 237.58 2.4
1 -8 -7 242.58 2.4
1 -8 -7 252.57 2.4
-1 8 7 286.47 2.7
0 -8 -7 38.5 1.4
0 8 7 38.6 1.3
0 -8 -7 41.3 1.4
-1 -8 -7 407.66 3.1
-1 -8 -7 430.96 3.2
1 8 7 429.96 2.8
-1 -8 -7 426.66 2.8
-2 -8 -7 18.7 1.1
-2 -8 -7 25.2 1
-2 -8 -7 22.6 1.1
2 8 7 21.4 1
3 8 7 495.35 3.1
-3 -8 -7 449.56 3.1
-3 -8 -7 492.45 3
-3 -8 -7 478.65 3.2
4 8 7 20.1 1
-4 -8 -7 15.9 1
-4 -8 -7 17.6 1
-4 -8 -7 16 1.1
-5 -8 -7 208.38 2.3
5 8 7 203.08 2.2
-5 -8 -7 195.78 2.4
-5 -8 -7 211.18 2.2
6 8 7 1.9 0.9
-6 -8 -7 3.1 1.5
-6 -8 -7 5.5 1.4
-6 -8 -7 5 1
1 -9 -7 74.59 1.6
1 -9 -7 82.89 1.8
1 -9 -7 79.49 1.7
0 -9 -7 154.68 2.1
0 -9 -7 140.29 2
0 -9 -7 156.48 2
1 9 7 166.28 2.1
-1 -9 -7 159.38 2.2
-1 -9 -7 126.79 2
-1 -9 -7 175.58 2.1
2 9 7 44.4 1.3
-2 -9 -7 40.9 1.5
-2 -9 -7 45.3 1.3
-2 -9 -7 4 1.4
3 9 7 262.67 2.5
-3 -9 -7 272.67 2.5
-3 -9 -7 248.18 2.7
-3 -9 -7 225.68 2.5
4 9 7 1.3 1.2
-4 -9 -7 2.1 1.2
-4 -9 -7 -0.1 0.9
-4 -9 -7 0.2 1.1
5 9 7 169.38 2.1
-5 -9 -7 177.58 2.5
-5 -9 -7 181.88 2.2
-5 -9 -7 146.59 2.7
0 -7 8 294.87 3.2
0 7 -8 302.37 3.3
1 -7 8 -31.2 2.6
-1 7 -8 152.98 2.6
2 -7 8 392.16 3.6
-2 7 -8 366.36 3.9
-3 7 -8 188.68 3
3 -7 8 157.48 2.6
-4 7 -8 352.16 5.9
-4 7 -8 320.57 4.4
4 -7 8 332.67 4.1
4 -7 8 310.87 4.8
-5 7 -8 209.18 4.4
5 -7 8 195.48 3.5
5 -7 8 95.29 4.3
-5 7 -8 202.98 4.3
-2 -6 8 56.89 3.4
2 6 -8 339.07 3.4
-1 -6 8 3.8 1.7
1 6 -8 12.7 1.6
0 -6 8 10.4 4.3
0 6 -8 612.34 4.1
1 -6 8 13.6 1.2
-1 6 -8 15.2 1.7
2 -6 8 670.53 4.3
-2 6 -8 726.53 4.8
3 -6 8 4.9 1.8
-3 6 -8 7.2 1.5
3 -6 8 5.8 1.3
-3 6 -8 5.3 2.2
4 -6 8 472.55 4.7
-4 6 -8 569.94 5
4 -6 8 522.65 4.7
-4 6 -8 523.85 5.4
5 -6 8 26 2
-5 6 -8 23.4 2.3
5 -6 8 26 1.7
-5 6 -8 2.8 1.8
6 -6 8 235.38 3.2
-6 6 -8 10.8 3.1
7 -6 8 116.89 2.3
-7 6 -8 85.59 2.4
3 5 -8 265.67 5.5
3 5 -8 233.98 2.8
3 5 -8 218.18 6
-3 -5 8 243.88 2.8
-2 -5 8 215.58 2.6
2 5 -8 209.88 7.8
2 5 -8 218.98 2.6
2 5 -8 224.98 8.2
-1 -5 8 360.26 3.1
1 5 -8 374.76 3.3
0 -5 8 318.37 2.8
0 5 -8 338.37 3.1
1 -5 8 149.79 2.1
-1 5 -8 166.78 2.4
2 -5 8 575.84 6.3
-2 5 -8 542.35 3.9
2 -5 8 587.74 3.8
-2 5 -8 550.84 7.3
3 -5 8 29.6 1.7
3 -5 8 22.1 1.4
-3 5 -8 24.3 1.6
-3 5 -8 23.1 2.1
4 -5 8 402.66 3.9
-4 5 -8 478.85 4.5
4 -5 8 436.86 4
-4 5 -8 419.86 4.4
5 -5 8 8.8 1.6
-5 5 -8 4.9 1.8
5 -5 8 5.6 1.2
-5 5 -8 4.4 1.5
6 -5 8 532.15 3.9
-6 5 -8 500.25 4.1
7 -5 8 3 1.5
-7 5 -8 4.2 1.6
8 -5 8 474.65 3.9
-8 5 -8 391.96 3.8
3 4 -8 432.96 4.5
-3 -4 8 375.96 3.5
3 4 -8 349.17 3.4
3 4 -8 430.96 5.6
-2 -4 8 1.4 1.5
2 4 -8 1.4 1.4
2 4 -8 0.4 1.5
2 4 -8 1.6 1.9
-1 -4 8 425.36 3.2
1 4 -8 495.55 5.2
1 4 -8 419.36 3.5
1 4 -8 485.45 5.6
0 -4 8 35.5 1.3
0 4 -8 35.6 2
0 4 -8 34.8 1.7
0 4 -8 40.3 2.1
-1 4 -8 972.7 6.5
1 -4 8 808.62 4.3
-1 4 -8 838.52 6.9
-1 4 -8 748.53 4.3
2 -4 8 321.57 3.5
2 -4 8 323.17 3
-2 4 -8 356.46 4.5
-2 4 -8 310.27 3.1
3 -4 8 712.43 4.6
3 -4 8 737.03 4.4
-3 4 -8 791.32 5.8
-3 4 -8 701.53 4.8
4 -4 8 459.75 3.5
-4 4 -8 489.55 4.6
-4 4 -8 500.15 4.5
4 -4 8 477.85 3.9
5 -4 8 362.56 3.1
5 -4 8 406.06 4.5
-5 4 -8 424.96 4.9
-5 4 -8 405.56 3.7
6 -4 8 822.32 4.5
-6 4 -8 779.02 4.6
7 -4 8 155.68 2.1
-7 4 -8 136.99 2.1
8 -4 8 501.15 3.8
-8 4 -8 518.75 3.9
4 3 -8 102.39 2
-4 -3 8 31.6 2.4
4 3 -8 100.89 2
4 3 -8 106.59 2.6
3 3 -8 254.97 3.1
-3 -3 8 246.68 2.7
3 3 -8 217.58 2.5
3 3 -8 232.38 3.4
2 3 -8 59.29 1.8
-2 -3 8 46.8 1.5
2 3 -8 51.99 1.9
2 3 -8 54.29 1.9
1 3 -8 604.54 4.6
-1 -3 8 553.64 3.6
1 3 -8 516.35 3.5
1 3 -8 594.64 4.7
0 3 -8 12.5 1.3
0 3 -8 9.3 1.2
0 -3 8 9.9 1.5
0 3 -8 11.2 1.7
1 -3 8 1722.23 7
-1 3 -8 1651.13 7.4
1 -3 8 1757.82 5.8
-1 3 -8 1492.95 6
2 -3 8 66.29 1.8
-2 3 -8 62.29 1.9
2 -3 8 68.39 1.5
-2 3 -8 59.99 1.9
3 -3 8 1367.06 5.6
-3 3 -8 1396.06 6.4
3 -3 8 1426.56 5.8
-3 3 -8 1187.78 6
4 -3 8 126.99 2.2
4 -3 8 110.19 1.7
-4 3 -8 117.09 2
-4 3 -8 111.49 2.5
5 -3 8 1459.95 5.6
-5 3 -8 1578.44 6.3
-5 3 -8 1556.54 8.7
5 -3 8 1643.44 7.6
6 -3 8 319.57 2.8
-6 3 -8 319.37 5.5
-6 3 -8 290.07 2.8
7 -3 8 539.65 3.5
-7 3 -8 531.05 3.6
8 -3 8 185.38 2.3
-8 3 -8 174.78 2.4
9 -3 8 110.29 1.9
-9 3 -8 107.89 2.1
4 2 -8 195.68 2.4
-4 -2 8 -38.6 2.2
4 2 -8 182.48 2.4
4 2 -8 188.98 2.7
3 2 -8 200.28 2.4
-3 -2 8 -17.4 2.3
3 2 -8 170.78 2.4
3 2 -8 188.98 2.5
2 2 -8 213.58 2.5
-2 -2 8 5.7 2.3
2 2 -8 208.18 2.3
2 2 -8 35.6 2.7
1 2 -8 750.32 4.3
-1 -2 8 680.43 3.7
1 2 -8 710.93 3.9
1 2 -8 753.72 4.4
0 2 -8 231.38 2.6
0 -2 8 222.38 2.2
0 2 -8 228.28 2.6
-1 2 -8 911.61 4.7
1 -2 8 959.5 4.3
1 -2 8 894.01 4.5
-1 2 -8 905.81 4.6
2 -2 8 116.59 1.9
-2 2 -8 109.59 1.8
2 -2 8 112.19 1.7
-2 2 -8 118.29 2.2
3 -2 8 824.42 4.2
-3 2 -8 831.62 4.5
3 -2 8 822.02 4.3
-3 2 -8 796.42 4.7
-4 2 -8 103.79 2.3
4 -2 8 103.09 1.8
4 -2 8 118.59 2
-4 2 -8 108.49 1.9
-5 2 -8 1009.2 6.8
5 -2 8 1211.08 5.9
5 -2 8 973.6 4.4
-5 2 -8 1113.09 4.8
-6 2 -8 9.8 1.8
6 -2 8 10 1
-6 2 -8 6.9 1
-7 2 -8 469.15 7.4
7 -2 8 485.05 3.4
-7 2 -8 435.66 3.2
-7 2 -8 477.95 8
8 -2 8 27.4 1.6
-8 2 -8 23.9 1.3
9 -2 8 269.67 2.9
-9 2 -8 260.97 2.7
4 1 -8 314.77 2.9
-4 -1 8 225.88 2.9
4 1 -8 293.07 2.8
4 1 -8 314.37 3.1
3 1 -8 2 1.1
-3 -1 8 3 1.1
3 1 -8 4.8 1
3 1 -8 0.9 1.3
2 1 -8 841.02 4.2
-2 -1 8 825.82 4.3
2 1 -8 775.82 4.1
2 1 -8 866.11 4.2
1 1 -8 124.89 1.9
1 1 -8 122.79 1.9
-1 -1 8 114.59 1.7
1 1 -8 112.09 1.8
0 1 -8 1321.57 5.4
0 -1 8 1333.27 5.1
0 -1 8 1414.06 5
0 1 -8 1407.36 5.3
-1 1 -8 169.18 2.1
1 -1 8 166.98 2
-1 1 -8 161.08 2.1
1 -1 8 165.88 2
2 -1 8 1196.98 4.6
-2 1 -8 1238.58 5.2
-2 1 -8 1189.48 4.8
2 -1 8 1272.07 4.9
3 -1 8 505.05 3.3
-3 1 -8 493.55 3.6
3 -1 8 473.55 2.9
-3 1 -8 491.35 3.2
-4 1 -8 351.46 3.4
4 -1 8 369.36 2.7
-4 1 -8 379.86 3
4 -1 8 420.26 3.1
-5 1 -8 376.46 3.7
5 -1 8 386.56 2.8
-5 1 -8 393.96 2.9
5 -1 8 465.85 3.6
-6 1 -8 168.78 2.6
-6 1 -8 148.99 3
6 -1 8 174.48 2
-6 1 -8 175.08 2
-7 1 -8 925.81 6.7
-7 1 -8 780.42 6.4
7 -1 8 904.81 4.3
-7 1 -8 871.81 4.3
-8 1 -8 61.79 2.8
8 -1 8 67.59 1.8
-8 1 -8 69.49 2.9
-8 1 -8 68.09 1.8
-9 1 -8 585.24 12.9
9 -1 8 567.34 3.8
-9 1 -8 537.55 3.8
-9 1 -8 544.35 12.9
5 0 -8 142.29 2.2
-5 0 8 142.59 2.3
5 0 -8 125.29 2.4
5 0 -8 137.99 2.3
4 0 -8 413.06 3.1
-4 0 8 402.46 3.4
4 0 -8 393.66 3.2
4 0 -8 437.46 3.4
3 0 -8 51.29 1.4
-3 0 8 47.4 1.4
3 0 -8 52.99 1.7
3 0 -8 50.79 1.3
2 0 -8 761.52 3.7
-2 0 8 731.93 3.8
2 0 -8 748.93 3.8
2 0 -8 806.62 3.7
1 0 -8 165.38 2
1 0 -8 176.98 1.9
1 0 -8 169.38 2
-1 0 8 156.58 2.1
0 0 -8 1097.79 4.7
0 0 8 1057.99 4.3
0 0 -8 1114.99 4.5
0 0 8 1057.19 4.3
1 0 8 2.5 1
-1 0 -8 2 1.3
-1 0 -8 0.9 1.1
1 0 8 4.3 1.2
2 0 8 966.7 4.1
2 0 8 898.51 3.9
-2 0 -8 906.51 4.4
-2 0 -8 918.81 4
3 0 8 289.37 2.3
-3 0 -8 257.07 2.7
3 0 8 302.17 2.5
-3 0 -8 292.57 2.5
4 0 8 506.85 3.3
4 0 8 445.26 2.7
-4 0 -8 411.26 3.3
-4 0 -8 450.55 3
5 0 8 268.47 2.7
5 0 8 243.08 2.3
-5 0 -8 246.48 2.2
-5 0 -8 232.38 2.6
-6 0 -8 1188.08 5.6
6 0 8 1322.97 4.8
-6 0 -8 1232.98 4.6
-6 0 -8 1195.58 6
-7 0 -8 561.34 4.6
7 0 8 594.84 3.3
-7 0 -8 560.24 3.2
-7 0 -8 514.95 4.5
8 0 8 313.57 2.7
-8 0 -8 345.27 4.1
-8 0 -8 308.27 2.7
-8 0 -8 316.77 3.9
9 0 8 232.08 2.5
-9 0 -8 242.58 4.2
-9 0 -8 210.98 2.4
-9 0 -8 162.08 3.6
5 -1 -8 227.08 2.5
-5 1 8 211.48 2.6
5 -1 -8 221.38 2.7
5 -1 -8 217.88 2.6
4 -1 -8 282.27 2.5
-4 1 8 275.67 2.7
4 -1 -8 306.47 2.9
4 -1 -8 201.58 2.7
3 -1 -8 241.68 2.2
-3 1 8 246.28 2.8
3 -1 -8 -37.7 2.6
3 -1 -8 233.58 2.5
2 -1 -8 186.58 1.9
2 -1 -8 180.08 2
2 -1 -8 193.78 2
-2 1 8 180.38 2.3
1 -1 -8 463.45 2.9
1 -1 -8 438.26 3.2
1 -1 -8 478.25 3
-1 1 8 -6.8 3.2
0 1 8 559.74 3.3
0 -1 -8 523.55 3.2
0 -1 -8 643.24 3.3
0 1 8 569.14 3
1 1 8 49 1.1
1 1 8 51.99 1.1
-1 -1 -8 54.49 1.2
-1 -1 -8 49.2 1.5
2 1 8 870.61 3.6
-2 -1 -8 860.61 3.6
2 1 8 913.51 3.9
-2 -1 -8 800.62 3.8
3 1 8 3.8 0.8
-3 -1 -8 10.9 0.9
-3 -1 -8 1 1.3
3 1 8 4.7 1.2
4 1 8 1206.38 4.2
4 1 8 1357.96 5.1
-4 -1 -8 1231.68 4.3
-4 -1 -8 1193.88 5.1
5 1 8 1.5 1.2
5 1 8 1.1 1.1
-5 -1 -8 2.5 1.1
-5 -1 -8 4 1.2
-6 -1 -8 1093.19 5.2
-6 -1 -8 1070.39 5.1
6 1 8 1025 4.2
-6 -1 -8 1114.89 4.3
-7 -1 -8 25 1.4
-7 -1 -8 27.6 1.6
7 1 8 21.2 1.1
-7 -1 -8 19.5 1
-8 -1 -8 238.88 3
-8 -1 -8 246.08 3.1
8 1 8 244.38 2.6
-8 -1 -8 219.38 2.4
-9 -1 -8 8.5 1.5
9 1 8 5.6 1.3
-9 -1 -8 9.8 1.5
-9 -1 -8 7.4 1.4
4 -2 -8 5.1 1
4 -2 -8 -0.7 1
4 -2 -8 8.6 1
-4 2 8 1.9 1.4
3 -2 -8 412.46 3.2
3 -2 -8 411.96 2.7
3 -2 -8 427.96 2.8
-3 2 8 414.76 3.2
2 -2 -8 76.79 1.6
-2 2 8 76.79 1.7
2 -2 -8 77.99 1.7
2 -2 -8 84.59 1.6
-1 2 8 578.14 3.5
1 -2 -8 523.35 3.4
1 -2 -8 582.34 3
0 2 8 521.15 2.9
0 2 8 502.85 3
0 -2 -8 559.84 3
0 -2 -8 469.35 3
1 2 8 763.32 3.2
-1 -2 -8 765.12 3.3
1 2 8 734.23 3.5
-1 -2 -8 690.73 3.6
2 2 8 646.34 3
-2 -2 -8 664.83 3
-2 -2 -8 631.34 3.3
2 2 8 733.63 3.4
3 2 8 1009.5 4
3 2 8 815.92 3.5
-3 -2 -8 835.82 3.5
-3 -2 -8 875.81 4
4 2 8 828.72 3.8
4 2 8 682.83 3.3
-4 -2 -8 713.13 3.4
-4 -2 -8 774.32 3.9
5 2 8 595.14 3.4
-5 -2 -8 537.75 3.4
5 2 8 477.15 2.9
-5 -2 -8 470.35 2.8
-6 -2 -8 468.95 3.3
-6 -2 -8 497.05 3.5
6 2 8 432.76 2.9
-6 -2 -8 447.26 2.8
-7 -2 -8 31.4 1.4
7 2 8 31.5 1.1
-7 -2 -8 30 1.4
-7 -2 -8 29.3 1.4
-8 -2 -8 379.76 3.4
8 2 8 311.27 2.9
-8 -2 -8 335.57 3.1
-8 -2 -8 86.49 2.7
9 2 8 0.6 1.3
-9 -2 -8 2.7 1.3
-9 -2 -8 1.1 1.2
-9 -2 -8 0.4 1.2
4 -3 -8 48.6 1.7
-4 3 8 36.1 1.3
4 -3 -8 41.2 1.4
4 -3 -8 35.3 1.1
3 -3 -8 461.95 3.4
-3 3 8 452.45 3.3
3 -3 -8 455.05 2.9
3 -3 -8 443.76 2.8
2 -3 -8 2.7 0.8
2 -3 -8 6.5 1.2
2 -3 -8 1.8 1.4
-2 3 8 1.9 1.1
1 -3 -8 942.91 3.8
-1 3 8 879.71 4.2
1 -3 -8 789.72 4
0 3 8 8.1 1
0 -3 -8 9.1 0.9
0 -3 -8 1.9 1
0 3 8 9.6 1.2
1 3 8 1245.68 4.2
-1 -3 -8 1317.67 4.4
-1 -3 -8 1280.07 4.7
1 3 8 1376.76 4.8
2 3 8 26.5 1
2 3 8 22.5 1.1
-2 -3 -8 22.1 1.1
-2 -3 -8 22.9 1.3
3 3 8 1179.28 4.2
-3 -3 -8 1207.48 4.3
3 3 8 1461.75 4.9
-3 -3 -8 1307.27 4.8
-4 -3 -8 72.29 1.7
4 3 8 64.29 1.4
-4 -3 -8 67.19 1.4
4 3 8 76.59 1.6
-5 -3 -8 696.13 3.4
-5 -3 -8 760.82 3.8
5 3 8 678.43 3.3
-5 -3 -8 703.03 3.4
-6 -3 -8 273.17 2.5
6 3 8 251.87 2.3
-6 -3 -8 280.37 2.4
-6 -3 -8 252.17 2.4
-7 -3 -8 220.78 2.5
7 3 8 227.58 2.3
-7 -3 -8 211.38 2.1
-7 -3 -8 245.28 2.5
-8 -3 -8 294.57 3
8 3 8 280.87 2.5
-8 -3 -8 272.47 2.4
-8 -3 -8 286.77 2.7
9 3 8 4.4 1.9
-9 -3 -8 70.49 2
-9 -3 -8 69.79 1.9
-9 -3 -8 67.29 1.8
4 -4 -8 240.48 2.8
4 -4 -8 216.78 2.4
-4 4 8 167.78 3
4 -4 -8 198.38 2.2
3 -4 -8 407.36 3.2
3 -4 -8 171.48 2.8
-3 4 8 336.87 3.3
3 -4 -8 339.67 2.8
2 -4 -8 350.06 2.5
2 -4 -8 360.56 2.6
2 -4 -8 310.47 2.6
-2 4 8 371.96 3.1
1 -4 -8 614.24 3.1
1 -4 -8 544.55 3.3
-1 4 8 610.64 3.6
0 4 8 275.57 2.2
0 -4 -8 309.47 2.3
0 -4 -8 259.47 2.3
0 4 8 309.57 2.6
1 4 8 1152.18 4.4
1 4 8 1019.2 4
-1 -4 -8 1075.89 4
-1 -4 -8 1004.4 4.2
-2 -4 -8 6.8 1.1
2 4 8 12.6 0.9
2 4 8 10.4 0.9
-2 -4 -8 4.8 1.2
3 4 8 648.44 3.2
3 4 8 738.63 3.4
-3 -4 -8 663.43 3.1
-3 -4 -8 654.33 3.4
4 4 8 2.1 1.3
4 4 8 4.7 1.1
-4 -4 -8 2.5 1
-4 -4 -8 0.9 1
-5 -4 -8 516.05 3.1
5 4 8 454.75 2.8
-5 -4 -8 529.25 3.3
-5 -4 -8 458.15 2.8
-6 -4 -8 55.79 1.5
6 4 8 46.4 1.2
-6 -4 -8 50.29 1.5
-6 -4 -8 53.29 1.6
-7 -4 -8 518.55 3.4
7 4 8 494.35 3.4
-7 -4 -8 491.45 3.1
-7 -4 -8 537.25 3.5
-8 -4 -8 76.49 1.7
8 4 8 63.69 1.6
-8 -4 -8 2.1 1.6
-8 -4 -8 74.19 1.9
-9 -4 -8 -43.4 3
9 4 8 319.07 3
-9 -4 -8 273.17 3.3
-9 -4 -8 299.97 2.8
4 -5 -8 297.67 2.7
4 -5 -8 375.66 3.4
-4 5 8 41.4 3.4
4 -5 -8 318.87 2.7
3 -5 -8 25.4 1.2
3 -5 -8 20.4 1.3
-3 5 8 23.2 1.2
3 -5 -8 21.6 1
2 -5 -8 307.37 2.4
2 -5 -8 312.87 2.5
2 -5 -8 275.07 2.5
-2 5 8 329.57 2.8
1 -5 -8 47.3 1.1
1 -5 -8 45.2 1.6
-1 5 8 49 1.5
0 5 8 438.76 2.7
0 5 8 469.55 3.1
0 -5 -8 458.95 2.7
0 -5 -8 415.76 2.8
1 5 8 526.65 2.9
-1 -5 -8 573.64 3
1 5 8 612.04 3.4
-1 -5 -8 530.55 3.2
-2 -5 -8 199.78 2.2
2 5 8 238.68 2.1
2 5 8 204.98 2
-2 -5 -8 208.18 1.9
-3 -5 -8 429.86 2.9
3 5 8 402.76 2.6
3 5 8 490.35 3
-3 -5 -8 420.46 2.7
-4 -5 -8 121.59 1.6
4 5 8 119.99 1.5
-4 -5 -8 148.29 1.8
-4 -5 -8 129.69 1.7
-5 -5 -8 669.73 3.5
5 5 8 593.14 3.3
-5 -5 -8 580.64 3.1
-5 -5 -8 726.03 3.8
-6 -5 -8 76.79 1.5
6 5 8 68.69 1.5
-6 -5 -8 69.39 1.4
-6 -5 -8 79.59 1.7
-7 -5 -8 530.15 3.4
7 5 8 495.45 3.5
-7 -5 -8 486.35 3.4
-7 -5 -8 540.75 3.5
-8 -5 -8 5.1 1.5
8 5 8 22.1 1.1
-8 -5 -8 23.1 1.4
-8 -5 -8 24 1.4
-3 6 8 9.6 1.7
3 -6 -8 31.9 1.5
3 -6 -8 30.7 1.7
3 -6 -8 24.2 1.5
2 -6 -8 190.08 2.1
-2 6 8 206.68 2.5
2 -6 -8 188.18 2
2 -6 -8 172.58 2.1
1 -6 -8 3.5 1.1
1 -6 -8 4.3 1.1
-1 6 8 2.1 1.4
1 -6 -8 1.5 1.3
0 6 8 505.55 2.9
0 -6 -8 549.15 3
0 6 8 597.84 3.5
0 -6 -8 528.45 3.2
1 6 8 50.39 1.3
-1 -6 -8 47.7 1.3
1 6 8 55.79 1.5
-1 -6 -8 -0.9 1.5
-2 -6 -8 475.75 2.8
2 6 8 458.75 2.7
-2 -6 -8 462.95 2.9
2 6 8 576.34 3.2
3 6 8 91.99 1.4
-3 -6 -8 101.89 1.8
-3 -6 -8 108.39 1.7
-4 -6 -8 704.13 3.6
4 6 8 640.44 3.4
-4 -6 -8 666.03 3.7
-4 -6 -8 725.03 4
-5 -6 -8 231.28 2.3
5 6 8 225.78 2.3
-5 -6 -8 243.98 2.3
-5 -6 -8 276.37 2.6
-6 -6 -8 417.26 3.1
6 6 8 424.46 3
-6 -6 -8 407.16 2.8
-6 -6 -8 423.26 3.1
-7 -6 -8 126.79 2.2
7 6 8 114.79 1.8
-7 -6 -8 126.69 2
-7 -6 -8 116.89 1.9
-8 -6 -8 17.8 2.6
8 6 8 112.29 2.3
-8 -6 -8 195.48 2.5
-8 -6 -8 174.08 2.1
2 -7 -8 -41.3 1.9
2 -7 -8 198.38 2.2
2 -7 -8 189.98 2.3
-2 7 8 203.68 2.6
-1 7 8 32.5 1.5
1 -7 -8 29.8 1.1
1 -7 -8 33.1 1.4
1 -7 -8 29.6 1.3
0 7 8 316.97 2.5
0 -7 -8 334.57 2.7
0 7 8 341.17 3
0 -7 -8 321.17 2.8
-1 -7 -8 62.99 1.6
1 7 8 48.9 1.3
-1 -7 -8 59.09 1.5
1 7 8 64.79 1.5
2 7 8 444.66 2.8
-2 -7 -8 427.56 2.9
-2 -7 -8 435.66 2.9
-3 -7 -8 40.7 1.2
3 7 8 48 1.5
-3 -7 -8 42.6 1.4
-3 -7 -8 40.6 1.2
-4 -7 -8 479.45 3.2
4 7 8 -55.09 2.9
-4 -7 -8 522.85 3.1
-4 -7 -8 486.65 3.3
-5 -7 -8 2.9 1.3
5 7 8 -0.1 0.8
-5 -7 -8 2 1.1
-5 -7 -8 -0.1 1.4
6 7 8 211.98 2.3
-6 -7 -8 -22.8 2.5
-6 -7 -8 219.48 2.2
-6 -7 -8 230.68 2.5
-7 -7 -8 -2.3 1.5
7 7 8 13.1 1.5
-7 -7 -8 22.7 1.3
-7 -7 -8 25.5 1.5
1 -8 -8 223.08 2.4
-1 8 8 243.58 3
1 -8 -8 242.38 2.6
1 -8 -8 206.98 2.7
0 -8 -8 58.59 1.7
0 8 8 70.79 1.7
0 -8 -8 70.69 1.7
-1 -8 -8 308.17 2.7
-1 -8 -8 333.77 2.6
1 8 8 292.57 2.5
-2 -8 -8 142.49 2.1
2 8 8 145.49 1.9
-2 -8 -8 77.59 2.1
-2 -8 -8 142.79 1.8
-3 -8 -8 150.18 2.1
3 8 8 149.59 1.8
-3 -8 -8 144.39 1.8
-3 -8 -8 154.88 2.1
4 8 8 120.89 1.7
-4 -8 -8 117.39 2
-4 -8 -8 131.39 1.8
-4 -8 -8 137.49 2.2
5 8 8 34.3 1.6
-5 -8 -8 39 1.5
-5 -8 -8 38.8 1.5
-5 -8 -8 40.3 1.4
6 8 8 219.18 2.5
-6 -8 -8 190.08 2.5
-6 -8 -8 198.88 2.3
-6 -8 -8 138.29 2.5
-1 -9 -8 146.89 2.1
1 9 8 144.99 2
-1 -9 -8 145.59 2.3
-1 -9 -8 165.28 2.2
2 9 8 2.7 1.1
-2 -9 -8 10.9 1.4
-2 -9 -8 0.3 1
-2 -9 -8 11.9 1.4
3 9 8 101.09 1.7
-3 -9 -8 100.99 1.8
-3 -9 -8 -9.6 1.7
-3 -9 -8 92.99 1.9
4 9 8 65.99 1.5
-4 -9 -8 55.19 1.5
-4 -9 -8 75.69 1.8
-4 -9 -8 70.09 1.7
0 -6 9 181.58 2.7
0 6 -9 179.28 2.7
1 -6 9 152.08 2.4
-1 6 -9 148.59 2.5
2 -6 9 283.67 3
-2 6 -9 313.77 3.5
3 -6 9 292.47 6.4
-3 6 -9 304.77 3.6
3 -6 9 266.97 3
-3 6 -9 174.88 7.9
4 -6 9 90.49 2.6
-4 6 -9 106.09 2.6
4 -6 9 91.09 2.3
-4 6 -9 79.29 3.2
5 -6 9 287.57 4.3
5 -6 9 279.97 3.7
-5 6 -9 335.97 4.9
-5 6 -9 277.87 4.2
6 -6 9 13.6 1.5
-6 6 -9 14.1 1.7
-1 -5 9 0.2 1.6
1 5 -9 1.8 1.7
0 -5 9 403.16 3.3
0 5 -9 371.56 3.5
1 -5 9 24.4 1.4
-1 5 -9 24.1 1.7
2 -5 9 209.68 2.6
-2 5 -9 188.78 2.6
-2 5 -9 198.48 5
3 -5 9 57.79 2
-3 5 -9 57.19 1.9
3 -5 9 63.39 1.7
-3 5 -9 57.09 2.7
4 -5 9 277.87 3.3
-4 5 -9 316.77 3.6
-4 5 -9 272.87 4.2
4 -5 9 288.97 3.2
5 -5 9 240.38 3.5
5 -5 9 209.48 2.7
-5 5 -9 237.28 4.1
-5 5 -9 222.38 3.2
6 -5 9 313.37 6
-6 5 -9 282.97 6.4
6 -5 9 269.47 3.1
-6 5 -9 261.17 3.4
7 -5 9 279.37 3.1
-7 5 -9 233.28 3.2
2 4 -9 187.48 3.7
-2 -4 9 124.49 2.3
2 4 -9 149.88 2.3
2 4 -9 190.28 4.2
1 4 -9 126.49 3.1
-1 -4 9 100.69 2.1
1 4 -9 104.09 2.2
1 4 -9 121.39 3.4
0 -4 9 311.97 2.8
0 4 -9 329.67 4.8
0 4 -9 286.37 2.9
0 4 -9 368.66 4.8
-1 4 -9 7.5 1.4
1 -4 9 5.6 1
-1 4 -9 5.9 2
-1 4 -9 2.8 1.4
2 -4 9 242.08 3.2
2 -4 9 229.98 2.4
-2 4 -9 250.87 3.8
-2 4 -9 218.58 2.8
3 -4 9 1.5 1.2
-3 4 -9 0.5 1.6
-3 4 -9 3.2 1.3
3 -4 9 1.1 1.1
4 -4 9 750.12 4.4
-4 4 -9 710.23 5.4
-4 4 -9 799.72 5.4
4 -4 9 761.02 4.6
5 -4 9 12.5 1.2
5 -4 9 14.9 1.6
-5 4 -9 16.1 1.8
-5 4 -9 19 1.6
6 -4 9 539.85 3.9
-6 4 -9 580.54 7
-6 4 -9 557.74 4.3
6 -4 9 597.14 6.3
7 -4 9 40.6 1.7
-7 4 -9 35 1.5
8 -4 9 316.57 3.3
-8 4 -9 271.47 3.1
3 3 -9 213.38 3.1
-3 -3 9 -36.6 2.2
3 3 -9 203.48 2.6
3 3 -9 222.08 3.6
2 3 -9 32 1.6
-2 -3 9 -4.1 1.2
2 3 -9 32.2 1.7
2 3 -9 32.7 1.9
1 3 -9 459.75 4.1
-1 -3 9 409.46 3.1
1 3 -9 360.46 3.3
1 3 -9 471.25 4.3
0 3 -9 -19.1 4.3
0 3 -9 389.46 3.8
0 -3 9 359.36 2.9
0 3 -9 347.47 3.2
1 -3 9 217.28 2.8
-1 3 -9 210.38 2.9
1 -3 9 208.88 2.4
-1 3 -9 199.98 2.6
2 -3 9 708.33 4.4
-2 3 -9 649.14 5
2 -3 9 750.92 4
-2 3 -9 719.33 4.4
3 -3 9 489.45 3.6
-3 3 -9 503.75 4.1
-3 3 -9 470.55 3.9
3 -3 9 499.65 3.5
4 -3 9 858.51 4.9
4 -3 9 795.82 4.2
-4 3 -9 891.21 5.2
-4 3 -9 801.32 5.5
5 -3 9 149.19 1.9
-5 3 -9 186.98 2.5
5 -3 9 185.48 2.7
-5 3 -9 172.28 3.2
6 -3 9 501.75 5
6 -3 9 449.16 3.3
-6 3 -9 449.16 3.4
-6 3 -9 464.85 5.7
7 -3 9 32.1 1.3
-7 3 -9 33 1.7
8 -3 9 251.97 3.3
-8 3 -9 -65.29 3.1
3 2 -9 294.57 3.1
-3 -2 9 270.27 3.3
3 2 -9 -35.8 3.1
3 2 -9 302.77 3.3
2 2 -9 1.7 1
-2 -2 9 0.5 1.3
2 2 -9 0.2 1.5
2 2 -9 0.1 1.2
1 2 -9 265.97 4.6
-1 -2 9 634.44 3.9
1 2 -9 727.33 4.3
1 2 -9 711.13 4.4
0 2 -9 72.09 1.7
0 2 -9 70.29 1.7
0 -2 9 66.09 1.5
0 2 -9 66.79 1.9
1 -2 9 959.5 4.7
-1 2 -9 947.51 4.9
1 -2 9 906.41 4.2
-1 2 -9 933.01 4.7
2 -2 9 41.9 1.4
-2 2 -9 44.1 1.5
2 -2 9 47.8 1.5
-2 2 -9 46 1.4
3 -2 9 1298.37 5.3
-3 2 -9 1222.58 5.4
3 -2 9 1235.38 5
-3 2 -9 1136.79 5.5
-4 2 -9 257.57 3.1
4 -2 9 263.17 2.5
4 -2 9 292.17 2.8
-4 2 -9 274.47 2.7
-5 2 -9 321.97 3.8
5 -2 9 323.97 2.7
-5 2 -9 363.76 3
5 -2 9 385.66 3.4
-6 2 -9 338.27 4.6
6 -2 9 351.36 2.9
6 -2 9 366.56 3.9
-6 2 -9 367.86 3
-7 2 -9 159.08 3.5
7 -2 9 172.68 2.3
-7 2 -9 169.78 2.1
-7 2 -9 135.19 4.3
8 -2 9 294.07 3.2
-8 2 -9 347.07 3.1
9 -2 9 55.29 1.6
-9 2 -9 53.09 1.9
3 1 -9 314.07 2.9
-3 -1 9 304.87 3
3 1 -9 314.97 3
3 1 -9 -74.99 3
2 1 -9 153.38 2
-2 -1 9 144.39 2
2 1 -9 -25.2 2
2 1 -9 102.69 2.3
1 1 -9 615.94 3.7
1 1 -9 642.34 3.7
-1 -1 9 552.64 3.8
1 1 -9 553.34 3.8
0 1 -9 182.68 2.2
0 -1 9 170.08 2.1
0 1 -9 187.48 2.4
-1 1 -9 915.11 4.4
1 -1 9 902.41 4.2
-1 1 -9 905.71 4.4
1 -1 9 893.41 4
-2 1 -9 158.38 2.3
2 -1 9 140.09 1.9
-2 1 -9 147.39 2
2 -1 9 155.28 2.1
-3 1 -9 763.02 4.2
3 -1 9 768.92 3.9
3 -1 9 738.73 3.7
-3 1 -9 702.03 3.8
-4 1 -9 3.3 1.1
4 -1 9 2.2 1
-4 1 -9 2.8 0.9
4 -1 9 2 1.2
-5 1 -9 550.24 4.3
5 -1 9 637.84 4
5 -1 9 501.05 3.1
-5 1 -9 549.25 3.3
-6 1 -9 42.5 1.9
6 -1 9 47.4 1.7
6 -1 9 40.3 1.2
-6 1 -9 44 1.6
-7 1 -9 516.95 4.7
-7 1 -9 488.15 4.9
7 -1 9 540.25 3.3
-7 1 -9 543.15 3.4
-8 1 -9 132.49 3.8
-8 1 -9 153.48 3.6
8 -1 9 140.39 2
-8 1 -9 43.3 2.2
-9 1 -9 351.16 7.9
9 -1 9 296.17 3.2
-9 1 -9 306.27 7.5
-9 1 -9 307.87 3
4 0 -9 78.59 3
-4 0 9 319.37 3.3
4 0 -9 344.07 3.2
4 0 -9 345.97 3.3
3 0 -9 41.8 1.5
-3 0 9 39.3 1.5
3 0 -9 42.9 1.7
3 0 -9 43.9 1.7
2 0 -9 517.85 3.2
-2 0 9 478.05 3.3
2 0 -9 503.65 3.4
2 0 -9 514.05 3.3
1 0 -9 276.07 2.6
1 0 -9 303.27 2.5
1 0 -9 305.47 2.5
-1 0 9 266.27 2.7
0 0 -9 418.06 3.1
0 0 9 375.16 2.7
0 0 -9 424.36 2.9
0 0 9 394.56 2.7
-1 0 -9 576.94 3.4
1 0 9 529.35 3
-1 0 -9 536.65 3.2
1 0 9 556.44 3.1
2 0 9 178.08 2
-2 0 -9 166.58 2.1
-2 0 -9 168.38 1.8
2 0 9 167.48 1.7
3 0 9 676.93 3.3
-3 0 -9 630.34 3.8
3 0 9 698.73 3.6
-3 0 -9 677.43 3.4
4 0 9 268.87 2.3
-4 0 -9 239.38 2.6
-4 0 -9 264.77 2.4
4 0 9 294.17 2.6
5 0 9 1071.59 4.3
-5 0 -9 967.2 5.1
-5 0 -9 1091.19 4.5
5 0 9 1244.68 5.2
6 0 9 50.89 1.3
-6 0 -9 53.29 1.8
-6 0 -9 51.79 1.3
6 0 9 59.69 1.6
-7 0 -9 977 5.6
7 0 9 1027.7 4.5
-7 0 -9 962.6 5.8
-7 0 -9 993.6 4.4
-8 0 -9 1.8 1.6
8 0 9 2.8 1.3
-8 0 -9 3.1 1.5
-8 0 -9 1.1 1.3
9 0 9 471.65 3.5
-9 0 -9 487.65 5.8
-9 0 -9 450.85 5.4
-9 0 -9 428.56 3.3
4 -1 -9 1 1.8
4 -1 -9 105.39 2.2
4 -1 -9 -25.9 1.5
-4 1 9 96.39 2.1
3 -1 -9 43.7 1.4
-3 1 9 39.4 1.6
3 -1 -9 38 1.4
3 -1 -9 25.2 1.5
2 -1 -9 422.86 2.9
2 -1 -9 381.66 2.9
2 -1 -9 400.16 2.7
-2 1 9 -27.3 2.8
1 -1 -9 11.4 1.2
1 -1 -9 11.3 1
1 -1 -9 12.4 1.2
-1 1 9 11.3 1
0 1 9 476.85 3.2
0 1 9 493.95 2.9
0 -1 -9 462.85 3.1
0 -1 -9 520.05 2.9
1 1 9 57.69 1.4
1 1 9 61.79 1.3
-1 -1 -9 54.79 1.4
-1 -1 -9 62.49 1.4
2 1 9 613.14 3.1
-2 -1 -9 616.64 3.7
-2 -1 -9 653.13 3.4
2 1 9 696.53 3.6
3 1 9 210.28 2.2
-3 -1 -9 212.68 2
-3 -1 -9 188.18 2.3
3 1 9 224.88 2.3
4 1 9 828.92 3.7
-4 -1 -9 813.52 3.7
-4 -1 -9 767.02 4.1
4 1 9 857.71 4
5 1 9 573.44 3.4
5 1 9 506.35 3.1
-5 -1 -9 494.95 3.1
-5 -1 -9 496.25 3.5
6 1 9 538.65 3.1
-6 -1 -9 532.95 3
-6 -1 -9 524.85 3.8
-7 -1 -9 454.45 3.5
7 1 9 482.95 3.2
-7 -1 -9 430.66 3
-7 -1 -9 436.16 3.6
-8 -1 -9 347.07 3.6
8 1 9 370.26 3
-8 -1 -9 350.06 3
-8 -1 -9 322.67 3.4
-9 -1 -9 252.17 3.5
9 1 9 237.88 2.6
-9 -1 -9 234.98 3.8
-9 -1 -9 232.38 2.7
-4 2 9 33.9 1.8
4 -2 -9 0.2 1.6
4 -2 -9 18.9 1.6
4 -2 -9 22 1.8
3 -2 -9 101.29 1.8
-3 2 9 88.09 1.8
3 -2 -9 99.09 1.8
3 -2 -9 99.19 1.8
2 -2 -9 -46.2 2.7
2 -2 -9 344.47 2.8
-2 2 9 363.86 3.1
2 -2 -9 362.86 2.5
1 -2 -9 79.49 1.4
-1 2 9 79.09 1.7
1 -2 -9 72.49 1.7
1 -2 -9 81.59 1.6
0 2 9 577.14 3
0 -2 -9 558.74 3.5
0 -2 -9 665.83 3.3
0 2 9 583.94 3.5
1 2 9 83.49 1.5
-1 -2 -9 88.79 1.6
-1 -2 -9 67.79 1.4
1 2 9 77.59 1.4
2 2 9 1171.28 4.1
-2 -2 -9 1314.97 4.5
-2 -2 -9 1105.79 4.4
2 2 9 1270.57 4.5
3 2 9 15.8 1
3 2 9 10 0.9
-3 -2 -9 13.2 0.9
-3 -2 -9 10.5 1.4
4 2 9 993.6 3.8
-4 -2 -9 1027.4 3.9
4 2 9 1113.99 4.6
-4 -2 -9 947.41 4.4
5 2 9 0.6 1.1
5 2 9 1.9 0.8
-5 -2 -9 2.5 0.9
-5 -2 -9 1.2 1.2
-6 -2 -9 949.01 4.5
-6 -2 -9 884.81 4.3
6 2 9 772.62 3.8
-6 -2 -9 782.12 3.9
-7 -2 -9 39.1 1.4
7 2 9 42.6 1.6
-7 -2 -9 37.1 1.3
-7 -2 -9 43.1 1.5
-8 -2 -9 305.67 3
-8 -2 -9 345.97 3.3
8 2 9 322.87 3
-8 -2 -9 302.17 2.8
-9 -2 -9 103.39 2.4
9 2 9 145.59 2.1
-9 -2 -9 133.49 2.6
-9 -2 -9 125.29 2
3 -3 -9 230.98 2.4
3 -3 -9 228.88 2.3
-3 3 9 234.08 2.6
3 -3 -9 213.08 2.2
2 -3 -9 98.79 1.8
2 -3 -9 129.19 2.1
2 -3 -9 126.19 1.7
-2 3 9 123.99 2
1 -3 -9 425.66 2.8
1 -3 -9 349.67 2.8
1 -3 -9 390.26 2.6
-1 3 9 396.76 3
0 3 9 368.76 2.4
0 -3 -9 425.76 2.7
0 -3 -9 322.47 2.5
0 3 9 385.96 2.8
1 3 9 488.05 2.7
-1 -3 -9 520.85 2.9
-1 -3 -9 435.76 3
1 3 9 481.35 3
2 3 9 710.43 3.4
2 3 9 634.74 3
-2 -3 -9 658.63 3.1
-2 -3 -9 620.64 3.2
3 3 9 186.18 1.8
-3 -3 -9 202.38 1.8
3 3 9 228.68 2
-3 -3 -9 204.78 2.1
4 3 9 662.43 3.3
4 3 9 864.21 3.9
-4 -3 -9 682.13 3.4
-4 -3 -9 771.52 3.9
5 3 9 18.1 1.2
-5 -3 -9 19.1 1.2
5 3 9 16.2 0.9
-5 -3 -9 17.8 1.2
-6 -3 -9 531.55 3.2
-6 -3 -9 588.84 3.5
6 3 9 523.95 3
-6 -3 -9 504.85 3
-7 -3 -9 23.8 1.4
-7 -3 -9 19.1 1.4
7 3 9 24 1.3
-7 -3 -9 23.4 1.3
-8 -3 -9 275.67 3
8 3 9 242.38 2.5
-8 -3 -9 245.68 2.8
-8 -3 -9 241.58 2.3
9 3 9 16 1.3
-9 -3 -9 21.7 1.6
-9 -3 -9 14.7 1.3
-9 -3 -9 1.8 1.6
3 -4 -9 326.27 2.8
3 -4 -9 315.67 2.6
-3 4 9 316.17 2.8
3 -4 -9 303.87 2.6
2 -4 -9 0.3 0.9
2 -4 -9 0.6 1.2
2 -4 -9 0.4 1
-2 4 9 1.1 1
1 -4 -9 609.54 3.4
1 -4 -9 597.64 3.4
1 -4 -9 561.34 3.6
-1 4 9 596.44 3.8
0 4 9 6.7 1.2
0 -4 -9 8.8 1.3
0 -4 -9 2.6 1.2
0 4 9 6.5 1.2
1 4 9 487.15 3
1 4 9 445.96 2.7
-1 -4 -9 477.65 2.8
-1 -4 -9 437.66 3
2 4 9 25.7 1
2 4 9 32.5 1.1
-2 -4 -9 30 1
-2 -4 -9 25.4 1.1
3 4 9 250.07 2
-3 -4 -9 261.37 2.2
3 4 9 319.97 2.3
-3 -4 -9 265.27 2.3
-4 -4 -9 262.47 2.4
4 4 9 275.57 2.3
4 4 9 227.08 2.1
-4 -4 -9 240.28 2.2
-5 -4 -9 190.38 2.3
5 4 9 176.38 1.8
-5 -4 -9 186.38 1.9
-6 -4 -9 331.57 2.6
6 4 9 303.27 2.5
-6 -4 -9 355.86 2.9
-6 -4 -9 304.67 2.3
-7 -4 -9 142.99 2.1
7 4 9 121.79 1.7
-7 -4 -9 131.49 1.9
-7 -4 -9 123.89 1.9
-8 -4 -9 367.76 3.3
8 4 9 362.76 3
-8 -4 -9 363.96 3.1
-8 -4 -9 367.96 3.3
3 -5 -9 181.18 2.5
3 -5 -9 180.88 2.1
-3 5 9 188.38 2.5
3 -5 -9 136.69 2.2
2 -5 -9 55.39 1.3
2 -5 -9 59.79 1.5
2 -5 -9 54.79 1.7
-2 5 9 58.99 1.5
1 -5 -9 261.97 2.3
1 -5 -9 252.87 2.3
1 -5 -9 239.48 2.6
-1 5 9 274.97 2.8
0 5 9 51.79 1.5
0 -5 -9 46.5 1.2
0 5 9 45 1.4
0 -5 -9 45.9 1.5
1 5 9 299.87 2.3
-1 -5 -9 310.57 2.3
1 5 9 324.47 2.5
-1 -5 -9 281.17 2.3
2 5 9 11 0.8
-2 -5 -9 8.7 1
-2 -5 -9 7 1.2
2 5 9 7.4 1.2
-3 -5 -9 451.05 3
3 5 9 435.76 2.7
-3 -5 -9 449.66 2.6
3 5 9 498.05 3.2
-4 -5 -9 4.7 1
4 5 9 4.4 1
4 5 9 5 1.2
-4 -5 -9 6.1 1.1
-5 -5 -9 683.13 3.7
5 5 9 643.24 3.4
-5 -5 -9 697.73 3.7
-5 -5 -9 648.94 3.2
-6 -5 -9 41.7 1.2
6 5 9 37.8 1.2
-6 -5 -9 41.5 1.5
-6 -5 -9 38.8 1.2
-7 -5 -9 414.46 3.1
7 5 9 368.36 3
-7 -5 -9 370.16 2.9
-7 -5 -9 430.06 3.3
8 5 9 85.19 1.7
-8 -5 -9 24.5 2
-8 -5 -9 78.89 1.6
-8 -5 -9 83.99 1.7
2 -6 -9 107.89 2.1
-2 6 9 -11.1 2.3
2 -6 -9 185.88 2.2
2 -6 -9 167.48 2.3
1 -6 -9 125.99 1.9
1 -6 -9 122.89 1.7
-1 6 9 138.59 2.2
1 -6 -9 124.79 2
0 6 9 116.99 1.7
0 -6 -9 123.69 1.7
0 6 9 114.79 2.1
0 -6 -9 116.79 2
1 6 9 556.44 3.5
1 6 9 489.95 3
-1 -6 -9 534.55 3.1
-1 -6 -9 486.05 3.2
2 6 9 52.99 1.4
-2 -6 -9 52.49 1.2
2 6 9 62.39 1.4
-2 -6 -9 48.4 1.5
-3 -6 -9 507.95 3.3
3 6 9 628.14 3.6
3 6 9 504.25 3
-3 -6 -9 510.35 2.9
-4 -6 -9 121.89 1.8
4 6 9 120.09 1.7
-4 -6 -9 139.49 2.1
-4 -6 -9 122.69 1.9
-5 -6 -9 528.25 3.3
5 6 9 492.75 3.1
-5 -6 -9 548.45 3.5
-5 -6 -9 496.25 3.2
-6 -6 -9 13.7 1.1
6 6 9 12.6 1
-6 -6 -9 15.7 1
-6 -6 -9 12.4 1.4
-7 -6 -9 -48.9 2.8
7 6 9 241.38 2.6
-7 -6 -9 238.18 2.4
-7 -6 -9 264.57 2.9
1 -7 -9 35.7 1.2
1 -7 -9 35.4 1.5
1 -7 -9 29.1 1.2
-1 7 9 35.9 1.3
0 7 9 306.37 2.7
0 -7 -9 -15.8 2.7
0 7 9 371.96 3.1
0 -7 -9 276.17 2.7
1 7 9 99.49 1.7
-1 -7 -9 100.89 1.7
-1 -7 -9 98.89 1.9
1 7 9 104.09 1.9
-2 -7 -9 407.16 2.9
2 7 9 408.86 2.9
-2 -7 -9 417.66 3
2 7 9 482.55 3.2
-3 -7 -9 100.29 1.6
-3 -7 -9 107.69 1.9
3 7 9 103.59 1.7
-3 -7 -9 63.09 1.8
-4 -7 -9 -21 2.3
4 7 9 248.18 2.3
-4 -7 -9 233.28 2.5
-4 -7 -9 242.38 2.4
-5 -7 -9 170.18 2
5 7 9 171.78 1.9
-5 -7 -9 174.98 2.1
-5 -7 -9 190.48 2.2
-6 -7 -9 55.39 1.4
6 7 9 55.99 1.3
-6 -7 -9 57.79 1.3
-6 -7 -9 60.59 1.5
0 -8 -9 247.78 2.4
0 8 9 188.08 3
0 -8 -9 197.68 2.5
1 8 9 16.4 1
1 8 9 18.8 1.2
-1 -8 -9 15.1 1
-1 -8 -9 21.9 1.3
-2 -8 -9 257.97 2.7
-2 -8 -9 249.68 2.6
2 8 9 265.47 2.4
-2 -8 -9 261.27 2.4
-3 -8 -9 0.6 1.3
3 8 9 -0.1 0.8
-3 -8 -9 2.4 1
-3 -8 -9 0.2 1.1
-4 -8 -9 201.08 2.5
4 8 9 165.68 2
-4 -8 -9 177.88 2.4
-4 -8 -9 167.98 2
5 8 9 16.4 1.2
-5 -8 -9 13.7 1.5
-5 -8 -9 18.5 1.1
-5 -8 -9 17.9 1.5
-3 6 -10 244.88 3.5
3 -6 10 267.67 3.2
0 -5 10 -20.3 1.8
0 5 -10 83.99 2.3
1 -5 10 159.58 2.5
-1 5 -10 149.49 2.5
-1 5 -10 154.48 7.8
-1 5 -10 160.78 7.5
-2 5 -10 47 2.7
2 -5 10 38.1 1.7
-2 5 -10 34.2 1.7
-2 5 -10 38.6 3
3 -5 10 252.27 3.9
-3 5 -10 244.08 3.5
3 -5 10 265.17 3
-3 5 -10 252.67 4.7
4 -5 10 13.8 1.5
-4 5 -10 15.1 1.6
-4 5 -10 8.2 1.9
4 -5 10 -1.8 1.4
5 -5 10 341.77 4.2
5 -5 10 340.57 3.7
-5 5 -10 403.46 4.9
-5 5 -10 335.87 4.5
6 -5 10 1 1.6
6 -5 10 1.1 1.2
-6 5 -10 2 2.1
-6 5 -10 0.8 1.4
1 4 -10 19 1.9
-1 -4 10 19.2 1.5
1 4 -10 17 1.7
1 4 -10 19.8 2.3
0 4 -10 213.88 4.1
0 -4 10 199.88 2.5
0 4 -10 191.28 2.8
0 4 -10 191.88 4.2
-1 4 -10 36.1 2.2
-1 4 -10 59.69 2.4
1 -4 10 52.49 1.7
-1 4 -10 52.69 1.8
2 -4 10 498.15 4.5
-2 4 -10 465.15 5.3
2 -4 10 429.26 3.5
-2 4 -10 383.96 3.7
3 -4 10 229.98 3.1
-3 4 -10 204.68 3.8
-3 4 -10 212.78 2.9
3 -4 10 242.28 2.7
4 -4 10 289.77 3.1
4 -4 10 283.47 3.1
-4 4 -10 300.97 3.9
-4 4 -10 296.47 3.5
5 -4 10 423.16 3.7
5 -4 10 487.55 4.5
-5 4 -10 541.75 5.2
-5 4 -10 512.45 4.5
6 -4 10 189.08 2.5
6 -4 10 196.78 3.7
-6 4 -10 225.38 4.3
-6 4 -10 208.78 3
7 -4 10 365.86 3.4
-7 4 -10 -65.29 3.5
1 3 -10 0.1 1.4
-1 -3 10 0 1.2
1 3 -10 1 1.5
1 3 -10 0.1 1.5
0 3 -10 548.05 4.6
0 3 -10 561.84 4.7
0 -3 10 503.05 3.6
0 3 -10 506.15 3.7
-1 3 -10 5.9 1.3
1 -3 10 1.9 1
-1 3 -10 4.5 1.2
2 -3 10 591.54 4
-2 3 -10 548.45 4.5
2 -3 10 588.74 3.7
-2 3 -10 577.04 4
3 -3 10 41.1 1.5
-3 3 -10 42.7 1.7
-3 3 -10 41 1.7
3 -3 10 -1.5 1.7
4 -3 10 623.94 4.1
4 -3 10 623.34 3.8
-4 3 -10 665.93 4.5
-4 3 -10 573.04 4.6
5 -3 10 50.59 1.5
5 -3 10 60.19 1.7
-5 3 -10 62.99 1.6
-5 3 -10 61.19 2.2
6 -3 10 418.96 3.3
6 -3 10 479.75 4.5
-6 3 -10 443.66 3.7
-6 3 -10 449.46 5.3
-7 3 -10 82.59 3
7 -3 10 75.39 1.7
-7 3 -10 86.09 3.6
-7 3 -10 81.89 1.9
8 -3 10 100.69 2.1
-8 3 -10 110.69 2.3
2 2 -10 247.08 3
-2 -2 10 225.38 2.7
2 2 -10 228.28 2.9
2 2 -10 262.37 3.2
1 2 -10 176.18 2.5
-1 -2 10 144.09 2.3
1 2 -10 171.68 2.5
1 2 -10 156.38 2.4
0 2 -10 447.06 3.5
0 2 -10 476.45 3.6
0 -2 10 417.46 3
0 2 -10 260.97 3.4
1 -2 10 68.49 1.6
-1 2 -10 73.59 1.7
1 -2 10 66.19 1.4
-1 2 -10 69.19 1.6
2 -2 10 485.55 3.3
-2 2 -10 455.65 3.5
2 -2 10 500.05 3.4
-2 2 -10 494.65 3.7
3 -2 10 26.2 1.2
3 -2 10 2.7 1.3
-3 2 -10 25.3 1.4
-3 2 -10 27.9 1.6
4 -2 10 642.44 3.6
4 -2 10 631.04 3.8
-4 2 -10 642.84 4
-4 2 -10 610.84 4.2
5 -2 10 1.4 0.8
-5 2 -10 0.8 1.4
5 -2 10 0.9 1.1
-5 2 -10 0.7 1.4
6 -2 10 275.67 2.7
-6 2 -10 -23.5 2.9
6 -2 10 327.97 3.4
-6 2 -10 303.37 3.9
-7 2 -10 4.8 1.4
7 -2 10 1.4 1
-7 2 -10 1.5 1.3
-7 2 -10 -0.3 1.9
-8 2 -10 233.98 5.9
8 -2 10 258.07 2.8
-8 2 -10 255.77 2.7
-8 2 -10 253.97 6.1
2 1 -10 25.4 1.4
-2 -1 10 18 1.3
2 1 -10 24.3 1.4
2 1 -10 21 1.4
1 1 -10 528.05 3.7
1 1 -10 540.45 3.7
-1 -1 10 479.35 3.5
1 1 -10 508.25 3.7
0 1 -10 52.29 1.5
0 1 -10 54.99 1.5
0 -1 10 46.1 1.6
0 1 -10 47.9 1.5
-1 1 -10 477.85 3.5
1 -1 10 488.15 3.2
-1 1 -10 519.25 3.4
1 -1 10 26.9 3.6
2 -1 10 235.68 2.3
-2 1 -10 230.98 2.7
2 -1 10 218.58 2.1
-2 1 -10 220.78 2.3
-3 1 -10 270.87 2.8
3 -1 10 268.37 2.3
3 -1 10 253.37 2.2
-3 1 -10 250.27 2.5
-4 1 -10 249.48 2.7
4 -1 10 245.38 2.2
-4 1 -10 245.48 2.4
4 -1 10 255.67 2.4
5 -1 10 53.79 1.3
-5 1 -10 48.1 1.7
5 -1 10 48.8 1.5
-5 1 -10 51.29 1.3
-6 1 -10 315.47 3.5
6 -1 10 324.37 3.2
6 -1 10 289.47 2.6
-6 1 -10 304.77 2.6
-7 1 -10 69.89 2.1
-7 1 -10 61.39 2.2
7 -1 10 66.99 1.5
-7 1 -10 2.5 1.8
-8 1 -10 503.85 6
-8 1 -10 473.55 5.5
8 -1 10 480.85 3.6
-8 1 -10 472.85 3.5
2 0 -10 52.59 1.6
-2 0 10 50.09 1.8
2 0 -10 50.69 1.6
2 0 -10 53.09 1.6
1 0 -10 422.96 3
1 0 -10 405.96 2.9
-1 0 10 366.26 3.1
1 0 -10 384.56 3.2
0 0 -10 6.2 1.2
0 0 -10 7.7 1.2
0 0 10 1.9 1.4
1 0 10 540.85 3.4
-1 0 -10 532.55 3.5
1 0 10 557.54 3.2
-1 0 -10 564.44 3.2
-2 0 -10 21.3 1.2
2 0 10 23.1 1
2 0 10 24.1 1.4
-2 0 -10 20.9 1
3 0 10 553.24 3.1
-3 0 -10 532.15 3.6
-3 0 -10 579.14 3.2
3 0 10 599.44 3.4
4 0 10 100.59 1.6
-4 0 -10 95.69 1.8
-4 0 -10 99.59 1.7
4 0 10 108.69 1.6
5 0 10 664.13 3.6
-5 0 -10 648.94 4.2
5 0 10 796.82 4.2
-5 0 -10 728.63 3.7
6 0 10 273.27 2.9
6 0 10 251.37 2.3
-6 0 -10 238.98 2.8
-6 0 -10 259.97 2.4
-7 0 -10 349.67 3.4
7 0 10 376.46 2.8
-7 0 -10 318.77 3.6
-7 0 -10 327.87 2.8
-8 0 -10 182.38 3.1
8 0 10 164.98 2.2
-8 0 -10 25.5 3.3
-8 0 -10 154.08 2
9 0 10 149.09 2.1
-9 0 -10 157.58 3.9
-9 0 -10 10.4 3.8
-9 0 -10 139.09 2.2
3 -1 -10 112.69 1.8
3 -1 -10 92.39 2.3
3 -1 -10 124.29 2
-3 1 10 106.69 2.1
2 -1 -10 163.28 2.1
-2 1 10 159.98 2.2
2 -1 -10 124.39 2.2
2 -1 -10 164.98 2.1
-1 1 10 259.17 2.6
1 -1 -10 290.97 2.5
1 -1 -10 275.37 2.7
1 -1 -10 276.87 2.4
0 1 10 34.7 1.3
0 1 10 34.1 1.6
0 -1 -10 32.8 1.4
0 -1 -10 37.5 1.2
1 1 10 522.05 3
-1 -1 -10 513.35 3.5
1 1 10 518.95 3.2
-1 -1 -10 578.44 3.3
2 1 10 23.5 1.2
-2 -1 -10 25.7 1.3
-2 -1 -10 24 1.3
2 1 10 24.5 1.5
3 1 10 808.52 3.6
-3 -1 -10 701.43 3.8
-3 -1 -10 809.32 3.7
3 1 10 866.21 4
4 1 10 9.9 0.9
4 1 10 8.6 0.9
-4 -1 -10 9.5 0.9
-4 -1 -10 13.1 1.3
5 1 10 895.81 4
-5 -1 -10 867.41 3.9
-5 -1 -10 858.21 4.4
5 1 10 1045.2 4.5
6 1 10 12.2 1.3
6 1 10 9.8 1
-6 -1 -10 12.4 1
-6 -1 -10 10.4 1.3
-7 -1 -10 237.98 2.8
7 1 10 244.88 2.3
-7 -1 -10 243.48 2.3
-7 -1 -10 227.68 2.8
-8 -1 -10 9.1 1.4
8 1 10 10.6 1
-8 -1 -10 4.9 1.4
-8 -1 -10 8.6 1.4
9 1 10 205.78 2.5
-9 -1 -10 205.28 3.6
-9 -1 -10 206.68 2.6
-9 -1 -10 185.18 3.3
2 -2 -10 265.87 2.4
2 -2 -10 261.87 2.8
-2 2 10 255.07 2.8
2 -2 -10 268.17 2.4
1 -2 -10 162.58 1.9
1 -2 -10 145.29 2.2
-1 2 10 154.68 2
1 -2 -10 165.98 2.1
0 2 10 424.46 2.8
0 -2 -10 377.86 3.1
0 2 10 404.46 3
0 -2 -10 442.96 2.8
1 2 10 226.18 2.2
-1 -2 -10 209.88 2.5
-1 -2 -10 263.37 2.3
1 2 10 226.78 2.5
2 2 10 581.14 3
-2 -2 -10 624.74 3.4
-2 -2 -10 548.95 3.3
2 2 10 622.34 3.3
3 2 10 240.78 2.2
-3 -2 -10 223.18 2.1
-3 -2 -10 220.18 2.4
3 2 10 240.38 2.2
4 2 10 612.14 3.1
4 2 10 683.53 3.5
-4 -2 -10 575.84 3.1
-4 -2 -10 594.14 3.5
5 2 10 297.87 2.4
5 2 10 338.47 2.7
-5 -2 -10 282.37 2.5
-5 -2 -10 299.27 2.6
6 2 10 102.49 1.7
-6 -2 -10 94.49 1.6
-6 -2 -10 98.19 1.7
-7 -2 -10 291.17 2.8
7 2 10 282.77 2.7
-7 -2 -10 271.37 2.5
-7 -2 -10 284.77 2.8
-8 -2 -10 38.8 1.5
8 2 10 43.5 1.6
-8 -2 -10 30.2 1.6
-8 -2 -10 39.1 1.6
2 -3 -10 -92.49 2.7
2 -3 -10 323.17 3
2 -3 -10 344.27 3.1
-2 3 10 328.97 3.1
1 -3 -10 6.4 0.9
1 -3 -10 3.7 1
1 -3 -10 3.5 0.9
-1 3 10 0.6 1.4
0 3 10 633.84 3.2
0 -3 -10 594.24 3.6
0 -3 -10 582.24 3.6
0 3 10 653.53 3.6
1 3 10 -0.1 0.8
-1 -3 -10 -0.2 0.9
-1 -3 -10 6.2 1.3
1 3 10 -0.7 0.9
2 3 10 688.63 3.4
-2 -3 -10 765.02 3.5
-2 -3 -10 682.93 3.9
2 3 10 772.62 3.9
3 3 10 15.5 0.9
3 3 10 18.1 1
-3 -3 -10 15.2 1
-3 -3 -10 13.7 1
4 3 10 533.15 3
-4 -3 -10 537.75 3.2
-4 -3 -10 540.35 3.4
4 3 10 601.54 3.3
5 3 10 148.79 1.9
5 3 10 166.08 2.1
-5 -3 -10 142.49 1.8
-5 -3 -10 151.08 2
-6 -3 -10 238.28 2.3
6 3 10 225.88 2.2
-6 -3 -10 227.98 2.4
-6 -3 -10 261.77 2.6
-7 -3 -10 153.28 2.3
-7 -3 -10 145.59 2
7 3 10 114.79 2
-7 -3 -10 144.99 2.1
-8 -3 -10 258.97 2.9
-8 -3 -10 302.07 3.1
8 3 10 277.37 2.6
-8 -3 -10 261.97 2.5
2 -4 -10 -42.7 1.6
2 -4 -10 158.98 2.4
2 -4 -10 120.29 1.9
-2 4 10 153.08 2.5
1 -4 -10 150.18 1.9
1 -4 -10 163.88 1.9
1 -4 -10 143.29 2
-1 4 10 5.8 2.4
0 4 10 242.18 2.3
0 -4 -10 257.27 2.4
0 -4 -10 214.48 2.4
0 4 10 264.27 2.6
1 4 10 59.09 1.7
1 4 10 59.09 1.3
-1 -4 -10 68.69 1.6
-1 -4 -10 50.49 1.4
2 4 10 356.86 2.5
2 4 10 356.16 2.8
-2 -4 -10 361.56 2.6
-2 -4 -10 312.17 2.7
3 4 10 1.5 1
-3 -4 -10 1 0.9
-3 -4 -10 8.3 1.4
3 4 10 2.6 1.3
4 4 10 317.87 2.5
-4 -4 -10 303.67 2.4
4 4 10 391.66 2.8
-4 -4 -10 346.57 2.8
-5 -4 -10 19.8 1.4
5 4 10 19.5 1.4
5 4 10 15.5 1.2
-5 -4 -10 17.1 1.3
-6 -4 -10 402.96 3
-6 -4 -10 392.56 3
6 4 10 366.66 2.8
-6 -4 -10 391.36 2.8
-7 -4 -10 7 1.4
-7 -4 -10 3.9 1.2
7 4 10 4.2 0.9
-7 -4 -10 2.1 1.2
-8 -4 -10 -17.7 3.4
-8 -4 -10 366.76 3.4
8 4 10 314.37 3
-8 -4 -10 -1.3 3
1 -5 -10 196.08 2.3
1 -5 -10 170.28 2.3
1 -5 -10 171.88 2.5
-1 5 10 197.68 2.7
0 5 10 106.99 1.8
0 5 10 88.39 1.5
0 -5 -10 -11 1.6
0 -5 -10 -15.1 1.5
1 5 10 148.59 2
-1 -5 -10 196.78 2.2
1 5 10 183.78 2.1
-1 -5 -10 154.18 2.2
2 5 10 127.99 1.7
-2 -5 -10 136.39 1.9
2 5 10 137.89 1.9
-2 -5 -10 116.89 1.9
3 5 10 180.28 1.9
-3 -5 -10 188.58 1.9
3 5 10 198.58 2.4
-3 -5 -10 183.88 2.3
4 5 10 351.06 2.6
-4 -5 -10 341.67 2.6
4 5 10 422.56 3
-4 -5 -10 372.96 2.9
-5 -5 -10 133.79 1.9
-5 -5 -10 124.59 1.8
5 5 10 116.19 1.6
-5 -5 -10 109.99 1.6
-6 -5 -10 437.66 3.2
-6 -5 -10 445.96 3.4
6 5 10 390.66 2.9
-6 -5 -10 401.96 2.8
-7 -5 -10 40.6 1.5
7 5 10 47.4 1.6
-7 -5 -10 43.6 1.5
-7 -5 -10 46 1.4
1 -6 -10 196.08 2.3
1 -6 -10 176.48 2.4
-1 6 10 190.88 2.5
1 -6 -10 176.58 2.5
0 6 10 15.4 1.3
0 -6 -10 19.8 1.1
0 6 10 -1.3 1.4
0 -6 -10 15.2 1.1
1 6 10 136.59 1.9
-1 -6 -10 133.29 1.8
-1 -6 -10 118.49 2
1 6 10 139.79 2
2 6 10 2.3 0.8
-2 -6 -10 0.6 0.8
2 6 10 4.8 1.2
-2 -6 -10 0.6 1.2
3 6 10 376.26 2.7
3 6 10 417.96 3.1
-3 -6 -10 360.66 2.6
-3 -6 -10 -46.4 3.1
-4 -6 -10 92.29 1.9
4 6 10 77.09 1.5
-4 -6 -10 77.59 1.4
-5 -6 -10 265.17 2.7
-5 -6 -10 330.67 2.9
5 6 10 274.37 2.6
-5 -6 -10 304.47 2.5
-6 -6 -10 45.4 1.7
6 6 10 37.5 1.3
-6 -6 -10 43.5 1.4
-6 -6 -10 40.2 1.5
-7 -6 -10 157.88 2.2
7 6 10 142.39 2
-7 -6 -10 111.49 2.5
-7 -6 -10 144.69 2.2
1 7 10 123.49 2
-1 -7 -10 121.39 1.8
1 7 10 134.49 2.3
-1 -7 -10 108.49 1.9
2 7 10 56.79 1.4
-2 -7 -10 56.39 1.7
2 7 10 51.49 1.5
-2 -7 -10 47.8 1.4
-3 -7 -10 281.77 2.8
3 7 10 273.87 2.5
-3 -7 -10 86.49 2.7
-4 -7 -10 1.3 1.3
-4 -7 -10 8.4 1.5
4 7 10 6.3 0.9
-4 -7 -10 -0.6 1
-5 -7 -10 129.39 1.9
5 7 10 -19.7 1.7
-5 -7 -10 -12.5 2.1
-5 -7 -10 137.09 2
-1 4 -11 220.58 4.4
1 -4 11 210.68 2.5
-1 4 -11 190.98 2.6
-1 4 -11 241.08 4.2
-2 4 -11 5.3 2
-2 4 -11 14.6 1.4
2 -4 11 9.5 1.5
3 -4 11 469.35 4.5
-3 4 -11 445.86 5.3
-3 4 -11 399.66 4
3 -4 11 427.56 3.6
4 -4 11 -0.2 1.2
4 -4 11 0.2 1.2
-4 4 -11 1 1.6
-4 4 -11 1.8 1.5
5 -4 11 340.27 3.6
5 -4 11 352.36 4
-5 4 -11 367.46 4.7
-5 4 -11 391.06 4.4
0 3 -11 186.28 3.4
0 -3 11 160.88 2.4
0 3 -11 180.28 2.5
0 3 -11 154.48 3.3
-1 3 -11 273.77 3.6
-1 3 -11 253.57 3.7
-1 3 -11 229.28 2.8
1 -3 11 210.18 2.8
2 -3 11 363.26 3.6
-2 3 -11 344.07 4
-2 3 -11 351.66 3.5
2 -3 11 346.27 3.2
3 -3 11 439.06 3.6
-3 3 -11 441.06 4.1
-3 3 -11 442.96 3.9
3 -3 11 436.36 3.6
4 -3 11 172.48 2.5
4 -3 11 153.38 2.3
-4 3 -11 177.68 2.7
-4 3 -11 167.38 2.9
5 -3 11 266.77 2.8
5 -3 11 293.27 3.3
-5 3 -11 137.29 3.3
-5 3 -11 266.87 3.9
6 -3 11 27.9 1.5
6 -3 11 27.9 1.7
-6 3 -11 25.7 1.5
-6 3 -11 30.8 2.2
7 -3 11 218.88 2.6
-7 3 -11 244.58 3
-7 3 -11 210.98 5
0 2 -11 311.27 3.3
0 2 -11 300.47 3.2
0 -2 11 295.87 3
0 2 -11 316.87 3.1
1 -2 11 -0.3 0.9
-1 2 -11 2.6 1.3
1 -2 11 1.2 1
-1 2 -11 2.2 1.6
2 -2 11 726.63 4.4
-2 2 -11 757.52 4.8
-2 2 -11 743.13 4.4
2 -2 11 724.13 4.1
3 -2 11 55.89 1.4
3 -2 11 50.29 1.5
-3 2 -11 52.19 1.5
-3 2 -11 48.5 1.6
4 -2 11 279.57 2.6
4 -2 11 289.77 2.9
-4 2 -11 285.67 3.1
-4 2 -11 301.57 3.4
5 -2 11 112.89 1.7
-5 2 -11 128.49 2
5 -2 11 119.09 2.1
-5 2 -11 122.09 2.5
6 -2 11 256.77 2.7
6 -2 11 222.18 3.4
-6 2 -11 282.57 3.1
-6 2 -11 296.97 3.9
7 -2 11 214.88 2.6
-7 2 -11 216.68 2.6
-7 2 -11 243.68 4.4
1 1 -11 77.39 1.8
-1 -1 11 63.09 1.9
1 1 -11 66.79 1.7
1 1 -11 59.29 1.7
0 1 -11 390.16 3.3
0 1 -11 386.96 3.3
0 -1 11 303.37 2.9
0 1 -11 345.67 3.1
1 -1 11 86.79 1.8
-1 1 -11 98.89 2
1 -1 11 86.99 1.7
-1 1 -11 91.59 2
-2 1 -11 379.66 3.2
2 -1 11 386.96 2.9
2 -1 11 403.96 3
-2 1 -11 408.36 3.2
-3 1 -11 22 1.2
3 -1 11 24.3 1.2
3 -1 11 24.7 1.4
-3 1 -11 23.3 1.4
-4 1 -11 242.38 2.7
4 -1 11 240.88 2.3
-4 1 -11 227.38 2.4
4 -1 11 254.27 2.4
-5 1 -11 8.9 1.2
5 -1 11 10.5 0.9
-5 1 -11 8.1 1
5 -1 11 7.9 1.1
-6 1 -11 481.95 4.6
6 -1 11 446.66 3.2
-6 1 -11 540.45 3.7
6 -1 11 524.95 4.1
-7 1 -11 98.39 2.7
7 -1 11 89.49 1.9
-7 1 -11 87.59 1.9
-8 1 -11 295.27 5.1
-8 1 -11 272.77 4.4
8 -1 11 292.07 2.9
-8 1 -11 291.57 3
1 0 -11 -53.29 2.5
1 0 -11 207.48 2.6
1 0 -11 192.78 2.6
-1 0 11 169.88 2.7
0 0 -11 161.28 2.2
0 0 11 152.98 2.2
0 0 -11 159.88 2.3
0 0 -11 173.38 2.3
-1 0 -11 114.89 2.1
1 0 11 110.79 1.6
1 0 11 111.79 1.9
-1 0 -11 112.59 1.7
-2 0 -11 291.07 2.8
2 0 11 306.97 2.5
2 0 11 323.97 2.8
-2 0 -11 327.17 2.7
-3 0 -11 74.19 1.8
3 0 11 86.59 1.5
3 0 11 75.99 1.5
-3 0 -11 83.29 1.8
4 0 11 468.35 3
-4 0 -11 465.65 3.6
-4 0 -11 453.35 3.1
4 0 11 523.05 3.4
5 0 11 98.89 1.7
5 0 11 86.89 1.7
-5 0 -11 81.89 1.8
-5 0 -11 89.49 1.6
6 0 11 563.34 3.8
6 0 11 447.66 3.3
-6 0 -11 482.75 4
-6 0 -11 512.45 3.4
7 0 11 16.3 1.4
-7 0 -11 11.8 1.5
-7 0 -11 15.2 1.2
-8 0 -11 348.27 4.1
8 0 11 329.97 3.1
-8 0 -11 332.77 4.2
-8 0 -11 -78.39 2.5
1 -1 -11 195.98 2.5
1 -1 -11 210.58 2.4
-1 1 11 187.68 2.4
1 -1 -11 136.09 2.5
0 -1 -11 11 1.4
0 1 11 14 1.1
0 -1 -11 9.6 1.1
1 1 11 322.27 2.6
-1 -1 -11 323.27 3
1 1 11 318.47 2.6
-1 -1 -11 350.76 2.7
2 1 11 123.39 1.7
-2 -1 -11 113.99 2.1
-2 -1 -11 140.09 1.9
2 1 11 126.59 2
3 1 11 457.35 2.9
-3 -1 -11 421.86 3.1
-3 -1 -11 528.75 3.3
3 1 11 537.05 3.3
4 1 11 349.67 2.7
4 1 11 310.67 2.4
-4 -1 -11 315.67 2.9
-4 -1 -11 306.67 2.5
5 1 11 223.28 2.3
-5 -1 -11 230.28 2.5
-5 -1 -11 246.88 2.3
5 1 11 284.47 2.5
6 1 11 6.7 2.8
6 1 11 196.28 2.2
-6 -1 -11 180.08 2.7
-6 -1 -11 191.98 2.1
-7 -1 -11 234.38 2.8
7 1 11 -29 2.3
-7 -1 -11 234.08 2.9
-7 -1 -11 259.47 2.6
-8 -1 -11 140.99 2.8
8 1 11 162.58 2.1
-8 -1 -11 159.08 2.9
-8 -1 -11 151.18 2.3
1 -2 -11 184.98 2.2
1 -2 -11 178.98 2.6
-1 2 11 177.58 2.6
1 -2 -11 184.68 2.2
0 2 11 47.5 1.3
0 -2 -11 47.9 1.6
0 -2 -11 -3 1.4
0 2 11 44.8 1.5
1 2 11 453.65 2.9
-1 -2 -11 321.47 3.4
-1 -2 -11 489.15 3.2
1 2 11 427.96 3.3
2 2 11 15.6 1
-2 -2 -11 10.2 1.1
-2 -2 -11 13.5 1
2 2 11 14.1 1.3
3 2 11 529.65 3.1
-3 -2 -11 503.25 3.3
-3 -2 -11 564.74 3.3
3 2 11 584.54 3.4
4 2 11 7.3 0.9
4 2 11 11.2 1.2
-4 -2 -11 12.2 1
-4 -2 -11 7.1 1.1
5 2 11 384.16 2.8
5 2 11 342.27 2.6
-5 -2 -11 309.67 2.5
-5 -2 -11 360.16 3
6 2 11 18.1 1.4
6 2 11 13.6 1.3
-6 -2 -11 12.4 1.1
-6 -2 -11 16.3 1.4
-7 -2 -11 209.88 2.4
7 2 11 208.68 2.4
-7 -2 -11 217.98 2.3
-7 -2 -11 224.48 2.7
-8 -2 -11 125.99 2.5
8 2 11 123.39 2
-8 -2 -11 115.69 2
-8 -2 -11 117.69 2.4
1 -3 -11 112.89 2
1 -3 -11 96.59 2
1 -3 -11 123.99 1.8
-1 3 11 106.09 2.3
0 3 11 250.47 2.6
0 -3 -11 238.38 2.8
0 -3 -11 302.07 2.6
0 3 11 273.27 2.7
1 3 11 313.27 2.5
-1 -3 -11 344.47 2.5
-1 -3 -11 285.67 2.9
1 3 11 326.17 2.8
2 3 11 184.78 2
-2 -3 -11 206.98 2.2
-2 -3 -11 152.88 2.1
2 3 11 173.58 2.4
3 3 11 387.16 2.7
3 3 11 477.15 3.1
-3 -3 -11 418.06 2.9
-3 -3 -11 392.16 3.1
4 3 11 42.4 1.3
-4 -3 -11 45 1.5
-4 -3 -11 44.9 1.5
4 3 11 54.59 1.6
5 3 11 328.47 2.5
-5 -3 -11 372.06 2.8
-5 -3 -11 353.96 2.9
5 3 11 401.96 3
6 3 11 0.7 1.2
-6 -3 -11 0.9 1.2
-6 -3 -11 0.7 1.3
-7 -3 -11 279.67 2.9
7 3 11 245.48 2.7
-7 -3 -11 238.28 2.5
-7 -3 -11 278.77 3
-8 -3 -11 52.39 1.7
8 3 11 41.3 1.7
-8 -3 -11 1.3 1.7
-8 -3 -11 30.2 1.6
0 4 11 -1 2.4
0 -4 -11 281.97 2.5
0 -4 -11 243.18 2.7
0 4 11 255.67 2.6
1 4 11 50.29 1.4
-1 -4 -11 51.99 1.5
-1 -4 -11 43.2 1.6
1 4 11 43.5 1.3
2 4 11 148.59 2
2 4 11 160.88 2.2
-2 -4 -11 151.08 1.9
-2 -4 -11 138.19 1.9
3 4 11 107.29 1.6
-3 -4 -11 115.69 1.8
3 4 11 122.79 1.7
-3 -4 -11 111.29 1.9
4 4 11 110.19 1.8
4 4 11 125.59 1.9
-4 -4 -11 105.49 1.7
-4 -4 -11 116.29 1.8
5 4 11 146.29 2
-5 -4 -11 140.99 2
5 4 11 177.28 2.1
-5 -4 -11 168.78 2.3
-6 -4 -11 104.99 1.8
6 4 11 99.09 1.7
-6 -4 -11 104.39 1.8
-6 -4 -11 -30.5 1.6
-7 -4 -11 264.27 2.8
-7 -4 -11 256.97 2.7
7 4 11 208.38 2.5
-7 -4 -11 243.78 2.5
0 5 11 166.48 2.4
0 -5 -11 190.18 2.3
0 -5 -11 144.19 2.2
1 5 11 0.9 1.2
-1 -5 -11 3 1.2
1 5 11 4 1.4
-1 -5 -11 1.9 1
2 5 11 297.57 2.5
-2 -5 -11 306.47 2.5
-2 -5 -11 242.68 2.5
2 5 11 292.67 2.7
3 5 11 1.1 0.9
3 5 11 2 0.9
-3 -5 -11 0.5 0.8
-3 -5 -11 -0.7 1.2
4 5 11 370.36 2.9
4 5 11 342.87 2.7
-4 -5 -11 278.77 2.7
-4 -5 -11 349.37 3
5 5 11 7.5 1
-5 -5 -11 9.4 1.2
-5 -5 -11 -3.7 1.1
-6 -5 -11 335.57 3.1
-6 -5 -11 24.2 3
6 5 11 274.57 2.7
-6 -5 -11 271.97 2.5
1 6 11 91.99 1.7
-1 -6 -11 107.69 2
-1 -6 -11 78.59 1.7
1 6 11 11.1 2.2
2 6 11 375.26 3
2 6 11 368.26 3.1
-2 -6 -11 364.66 2.9
-2 -6 -11 322.97 3.1
3 6 11 7.1 1.9
3 6 11 76.89 1.5
-3 -6 -11 0.7 1.6
-3 -6 -11 60.79 1.7
4 6 11 300.77 2.6
4 6 11 355.96 3.1
-4 -6 -11 237.28 2.7
-4 -6 -11 305.37 2.9
-5 -6 -11 15.8 1
-5 -6 -11 15.7 1
5 6 11 -3.6 1.2
-5 -6 -11 16 1.1
4 -3 12 21.5 1.3
4 -3 12 27.5 1.5
-4 3 -12 22.5 1.6
-4 3 -12 22.2 1.8
2 -2 12 21.9 1.5
2 -2 12 23.7 1.4
-2 2 -12 25 1.6
-2 2 -12 25.6 1.6
3 -2 12 265.97 2.9
3 -2 12 284.57 2.8
-3 2 -12 289.77 3.2
-3 2 -12 280.97 3.1
4 -2 12 20.7 1.3
4 -2 12 1.7 1.1
-4 2 -12 19 1.2
-4 2 -12 19 1.6
5 -2 12 171.38 2.4
-5 2 -12 1.5 2.7
5 -2 12 193.18 2.7
-5 2 -12 176.78 2.9
6 -2 12 4.2 1
6 -2 12 -0.9 1.1
-6 2 -12 3.1 1.1
-6 2 -12 0.4 1.6
1 -1 12 69.29 2
-1 1 -12 67.19 1.8
-1 1 -12 -4.6 1.9
2 -1 12 206.78 2.5
2 -1 12 204.98 2.4
-2 1 -12 223.38 2.8
-2 1 -12 214.68 2.6
-3 1 -12 61.89 2
3 -1 12 57.79 1.4
3 -1 12 66.19 1.7
-3 1 -12 57.79 1.6
-4 1 -12 177.08 2.7
4 -1 12 164.38 2.3
-4 1 -12 161.78 2.4
4 -1 12 176.78 2.4
-5 1 -12 217.08 2.9
5 -1 12 207.18 2.3
-5 1 -12 223.68 2.8
5 -1 12 247.48 2.7
-6 1 -12 69.99 2.2
6 -1 12 63.69 1.5
-6 1 -12 47 1.9
6 -1 12 71.19 1.8
-1 0 -12 0.2 1.1
1 0 12 0.2 1.2
1 0 12 1.3 1.3
-1 0 -12 -0.5 1.3
-2 0 -12 245.28 2.9
2 0 12 248.58 2.6
2 0 12 253.47 2.7
-2 0 -12 283.87 2.9
-3 0 -12 5.7 1.1
3 0 12 2.7 0.9
-3 0 -12 1.2 1.4
3 0 12 2.3 0.9
-4 0 -12 420.46 3.8
4 0 12 389.06 3
-4 0 -12 395.06 3.2
4 0 12 413.66 3.3
5 0 12 92.29 1.8
-5 0 -12 74.79 1.9
5 0 12 80.49 1.7
-5 0 -12 81.69 1.8
-6 0 -12 -35.5 3.6
6 0 12 318.47 2.8
-6 0 -12 309.47 2.9
6 0 12 340.17 3.2
7 0 12 108.99 2.2
-7 0 -12 87.29 2.3
7 0 12 78.19 1.7
-7 0 -12 95.69 1.8
1 1 12 54.99 1.4
-1 -1 -12 58.69 1.7
1 1 12 46.2 1.6
-1 -1 -12 63.89 1.5
2 1 12 342.47 2.9
-2 -1 -12 320.07 3.1
-2 -1 -12 354.16 3
2 1 12 353.16 3
3 1 12 26.2 1.3
-3 -1 -12 23.5 1.5
-3 -1 -12 27.6 1.4
3 1 12 28.6 1.2
4 1 12 453.05 3.2
4 1 12 426.66 3
-4 -1 -12 408.96 3.4
-4 -1 -12 427.26 3.1
5 1 12 23.4 1.1
-5 -1 -12 26.1 1.6
-5 -1 -12 28.1 1.3
5 1 12 -6.1 1.3
6 1 12 304.97 2.9
-6 -1 -12 268.77 3.4
-6 -1 -12 318.57 2.9
6 1 12 337.17 3.3
7 1 12 1.4 1.4
-7 -1 -12 1.2 1.4
-7 -1 -12 0.6 1.4
1 2 12 246.38 2.4
-1 -2 -12 236.88 2.8
-1 -2 -12 262.27 2.7
1 2 12 250.67 2.6
2 2 12 106.19 1.8
-2 -2 -12 86.69 1.7
-2 -2 -12 119.09 2
2 2 12 101.19 1.7
3 2 12 210.38 2.2
-3 -2 -12 201.38 2.5
-3 -2 -12 237.08 2.5
3 2 12 236.78 2.7
4 2 12 107.09 1.9
4 2 12 122.59 1.8
-4 -2 -12 99.59 2.1
-4 -2 -12 109.19 1.8
5 2 12 119.69 1.8
-5 -2 -12 19 2.2
-5 -2 -12 115.79 2
5 2 12 132.79 2.1
6 2 12 177.78 2.1
6 2 12 212.28 2.6
-6 -2 -12 169.98 2.1
-6 -2 -12 194.08 2.6
-7 -2 -12 52.19 1.4
7 2 12 37.8 1.2
-7 -2 -12 38 1.5
-7 -2 -12 40 1.5
1 3 12 250.37 2.4
-1 -3 -12 220.28 2.7
-1 -3 -12 277.77 2.7
1 3 12 230.48 2.5
2 3 12 0.9 1.2
-2 -3 -12 -0.1 1
-2 -3 -12 5.1 0.9
2 3 12 1.1 1.3
3 3 12 252.67 2.5
3 3 12 275.47 2.6
-3 -3 -12 281.47 2.7
-3 -3 -12 224.78 2.5
4 3 12 42.3 1.2
-4 -3 -12 41.6 1.2
-4 -3 -12 48.4 1.8
4 3 12 54.39 1.7
5 3 12 141.09 1.9
5 3 12 161.28 2.2
-5 -3 -12 136.69 2
-5 -3 -12 115.69 2.1
6 3 12 51.49 1.4
-6 -3 -12 43.8 1.5
-6 -3 -12 53.19 1.5
6 3 12 70.69 1.7
2 4 12 5.6 1.1
2 4 12 2.9 1
-2 -4 -12 1.3 1.1
-2 -4 -12 2.4 1
3 4 12 204.78 2.2
-3 -4 -12 236.18 2.4
-3 -4 -12 173.58 2.3
3 4 12 110.39 2.4
4 4 12 6.8 1.3
4 4 12 6.5 1.2
-4 -4 -12 6.6 1.2
-4 -4 -12 1.7 1.1
5 4 12 268.87 2.6
5 4 12 343.87 3
-5 -4 -12 265.67 2.6
-5 -4 -12 291.97 2.9
6 4 12 0.9 0.9
-6 -4 -12 0.2 0.9
-6 -4 -12 1.5 1.3
3 5 12 113.89 1.9
3 5 12 93.89 1.7
-3 -5 -12 120.79 1.9
-3 -5 -12 101.59 2.1
4 5 12 97.59 1.7
-4 -5 -12 72.59 1.9
-4 -5 -12 94.29 1.9
4 5 12 -29.8 1.7
-1 0 0 617.84 7.6
1 0 0 621.14 9
1 0 0 630.84 7.4
-1 0 0 608.74 9.1
-2 0 0 6083.59 19.6
2 0 0 6091.59 16.3
-2 0 0 6522.55 16.5
2 0 0 5649.73 18
3 0 0 173.68 2.8
3 0 0 162.28 2.7
-3 0 0 162.98 2.5
-3 0 0 165.98 3.1
4 0 0 2441.66 7.5
4 0 0 2401.86 8.7
-4 0 0 2605.84 9.4
-4 0 0 2596.24 7.8
5 0 0 713.53 4
-5 0 0 747.33 4.7
5 0 0 722.83 4.6
-5 0 0 777.82 3.9
-6 0 0 645.84 4.3
-6 0 0 616.34 3.4
6 0 0 567.54 3.4
6 0 0 623.64 4
7 0 0 570.54 3.9
-7 0 0 636.64 3.5
-7 0 0 616.64 4.3
7 0 0 578.64 3.4
8 0 0 148.99 2
-8 0 0 171.18 2.3
8 0 0 156.78 2.3
-8 0 0 154.48 2.5
9 0 0 223.98 2.4
9 0 0 253.07 3
-9 0 0 254.17 3.1
-9 0 0 160.38 2.6
-9 1 0 250.47 3.4
9 -1 0 239.08 3.2
9 -1 0 231.48 2.6
-9 1 0 269.17 2.6
8 -1 0 4.5 1.3
8 -1 0 0.9 1.3
-8 1 0 5.3 1.1
-8 1 0 -1.5 1.4
-7 1 0 811.42 5
7 -1 0 795.52 4.7
-7 1 0 851.61 4
7 -1 0 785.92 4
6 -1 0 466.45 2.9
-6 1 0 513.05 3.2
6 -1 0 476.85 3.8
-6 1 0 459.55 3.9
-5 1 0 1182.08 4.7
5 -1 0 1141.49 4.7
5 -1 0 1106.99 5.8
-5 1 0 1055.09 6
-4 1 0 1605.74 6
-4 1 0 1358.76 7.4
4 -1 0 1460.85 5.7
4 -1 0 1487.15 7.4
-3 1 0 1274.77 6
-3 1 0 1106.89 7.6
3 -1 0 1195.58 5.7
3 -1 0 1184.98 7.7
2 -1 0 3510.75 16
2 -1 0 3406.76 10.9
-2 1 0 3673.13 11.5
-2 1 0 3351.06 15.7
1 -1 0 2656.93 11.9
-1 1 0 2678.33 16.6
-1 1 0 2825.62 12.4
1 -1 0 2900.91 17.3
0 1 0 3981.5 21.9
0 1 0 3392.56 18.8
0 -1 0 3865.51 21.8
0 -1 0 3351.26 18.6
-1 -1 0 98.19 3.6
-1 -1 0 106.19 3.3
1 1 0 111.09 3.4
1 1 0 97.09 3.3
-2 -1 0 1407.56 7.9
2 1 0 1416.46 8.1
2 1 0 1386.66 8.2
-2 -1 0 1418.46 8.4
-3 -1 0 140.49 2.5
3 1 0 120.39 2.3
-3 -1 0 130.59 2.4
3 1 0 134.49 2.8
-4 -1 0 3198.28 9.5
4 1 0 3289.87 9.2
-4 -1 0 3167.78 8.6
4 1 0 2984.2 8.8
5 1 0 85.09 1.9
5 1 0 91.09 1.7
-5 -1 0 89.19 1.6
-5 -1 0 94.39 2.2
-6 -1 0 1199.18 4.7
6 1 0 1101.79 5.1
6 1 0 1145.79 4.8
-6 -1 0 1152.48 5.4
7 1 0 41.1 1.3
-7 -1 0 -0.2 1.4
-7 -1 0 39.1 1.7
7 1 0 38.3 1.6
8 1 0 530.95 3.7
8 1 0 549.74 3.7
-8 -1 0 623.24 4.2
-8 -1 0 -12.1 4.1
-9 -1 0 33.6 1.5
9 1 0 29.4 1.4
-9 -1 0 31.9 1.6
9 1 0 29.4 1.4
-9 2 0 243.88 3.7
9 -2 0 212.38 2.7
9 -2 0 232.88 3.5
-9 2 0 244.48 2.8
8 -2 0 15.2 1.4
-8 2 0 15.3 1.4
8 -2 0 13.9 1.1
-8 2 0 15.7 1.5
7 -2 0 881.11 5.4
-7 2 0 923.11 4.2
-7 2 0 858.71 5.4
7 -2 0 872.11 4.1
-6 2 0 1.3 1.3
-6 2 0 -0.1 0.9
6 -2 0 12.2 1.3
6 -2 0 0.9 1.4
-5 2 0 1918.61 8.3
-5 2 0 2213.48 6.3
5 -2 0 2126.39 6.3
5 -2 0 2185.18 8.6
-4 2 0 28.2 1.7
4 -2 0 34.6 1.9
4 -2 0 33 1.2
-4 2 0 59.19 1.7
-3 2 0 3162.58 12
3 -2 0 3054.79 12.3
-3 2 0 3422.86 8.8
3 -2 0 3370.56 8.9
2 -2 0 93.49 2.7
2 -2 0 89.79 1.9
-2 2 0 88.79 2.6
-2 2 0 93.19 2.1
1 -2 0 2747.33 12.2
-1 2 0 2797.82 10.7
-1 2 0 2911.61 13.1
1 -2 0 2770.62 10.6
0 2 0 41.5 2.2
0 2 0 43.7 2.1
0 -2 0 60.29 2.2
0 -2 0 43.8 2.1
-1 -2 0 1713.83 8.6
1 2 0 1680.63 8.5
1 2 0 1605.14 9.8
-1 -2 0 1556.24 10.3
2 2 0 1638.54 7.5
2 2 0 1402.96 8.2
-2 -2 0 1607.54 9
-2 -2 0 1601.44 7.4
3 2 0 983.4 6
-3 -2 0 1065.79 5.5
-3 -2 0 1082.09 6.1
3 2 0 1043.7 5.6
4 2 0 1929.01 6.8
-4 -2 0 2042.1 7
-4 -2 0 1957.7 7.1
4 2 0 2013.8 7.2
5 2 0 384.36 3.1
-5 -2 0 424.46 3.3
5 2 0 415.56 3.4
-5 -2 0 433.26 3.4
-6 -2 0 1581.44 6
-6 -2 0 1517.55 5.6
6 2 0 1315.17 5.3
6 2 0 1409.36 5.6
-7 -2 0 260.87 2.6
7 2 0 237.58 2.7
7 2 0 212.88 2.3
-7 -2 0 262.37 2.8
-8 -2 0 661.43 4.2
8 2 0 563.14 3.8
-8 -2 0 609.74 3.7
8 2 0 546.85 3.7
9 2 0 38.4 1.6
-9 -2 0 39.5 1.4
9 2 0 37.1 1.7
-9 -2 0 42.7 1.9
-9 3 0 201.48 3.6
9 -3 0 -26.3 2.3
9 -3 0 175.88 3.6
-9 3 0 97.59 2.5
-8 3 0 290.87 2.6
8 -3 0 254.47 2.6
8 -3 0 276.67 3.9
-8 3 0 270.47 3.7
-7 3 0 301.07 3.6
-7 3 0 350.46 2.7
7 -3 0 285.07 2.5
7 -3 0 292.27 3.6
6 -3 0 1045.5 6.3
-6 3 0 1004.6 5.9
6 -3 0 1006.9 4.3
-6 3 0 1146.39 4.6
5 -3 0 1129.39 4.5
-5 3 0 1115.99 6.2
-5 3 0 1189.18 4.6
5 -3 0 1213.58 6.7
-4 3 0 361.26 2.8
-4 3 0 325.87 3.8
4 -3 0 340.47 4.1
4 -3 0 325.47 2.6
3 -3 0 1857.81 6.2
-3 3 0 1936.21 8.8
-3 3 0 2027 6.5
3 -3 0 1886.81 8.6
2 -3 0 73.59 1.7
-2 3 0 79.39 2.3
2 -3 0 77.19 2
-2 3 0 74.79 1.7
1 -3 0 2778.52 9.6
1 -3 0 2509.15 10.4
1 -3 0 2887.51 10
1 -3 0 2765.32 10
0 3 0 272.37 3.2
0 -3 0 275.27 3.4
0 -3 0 250.07 3.4
0 3 0 263.27 3.6
-1 -3 0 3908.01 13.7
1 3 0 3790.82 12.9
-1 -3 0 4100.29 11.2
1 3 0 3927.11 11
2 3 0 511.75 3.8
2 3 0 468.15 4.3
-2 -3 0 509.05 3.9
-2 -3 0 476.25 4.7
3 3 0 2822.62 9.6
3 3 0 2916.11 8.4
-3 -3 0 3016 10.3
-3 -3 0 3011 8.6
-4 -3 0 546.55 3.6
-4 -3 0 553.84 4.2
4 3 0 493.65 3.9
4 3 0 515.95 3.6
-5 -3 0 2247.18 7.2
5 3 0 2230.18 6.6
5 3 0 2105.89 7.1
-5 -3 0 2449.45 7
6 3 0 529.65 3.4
6 3 0 529.75 3.7
-6 -3 0 596.44 3.7
-6 -3 0 607.44 3.7
-7 -3 0 517.05 3.6
-7 -3 0 530.25 3.6
7 3 0 486.45 3.6
7 3 0 452.45 3.4
-8 -3 0 -93.89 2.6
8 3 0 297.57 2.8
-8 -3 0 314.27 2.9
8 3 0 296.47 3
-9 -3 0 47.8 1.7
9 3 0 41.4 1.7
9 3 0 43.4 1.5
-9 -3 0 51.89 1.7
-8 4 0 -76.19 3.2
-8 4 0 490.95 4.9
8 -4 0 424.06 3.2
8 -4 0 479.45 5.1
7 -4 0 13.8 1.9
-7 4 0 -1.2 1.5
7 -4 0 11.1 1.2
-7 4 0 14.8 1.7
6 -4 0 837.62 6
-6 4 0 822.42 3.9
-6 4 0 862.91 5.7
6 -4 0 752.52 3.7
5 -4 0 358.56 4
5 -4 0 363.16 2.7
-5 4 0 394.16 2.8
-5 4 0 421.26 4
-4 4 0 589.04 4.7
-4 4 0 585.14 3.3
4 -4 0 558.64 3.4
4 -4 0 537.65 4.5
3 -4 0 586.44 4.4
-3 4 0 630.34 3.6
-3 4 0 659.93 5
3 -4 0 594.04 3.6
2 -4 0 936.21 5.7
2 -4 0 1009.6 5
2 -4 0 1094.89 5.7
1 -4 0 1724.43 6.9
1 -4 0 1606.44 7.4
1 -4 0 1821.52 7.1
1 -4 0 1843.82 7.2
0 4 0 578.24 4.6
0 -4 0 557.14 4.2
0 -4 0 557.74 4.4
0 4 0 533.75 3.9
1 4 0 2744.73 10
-1 -4 0 2949.8 10.6
1 4 0 2811.82 8.4
-1 -4 0 2889.91 8.6
-2 -4 0 57.69 1.8
-2 -4 0 52.89 2.1
2 4 0 52.79 1.9
2 4 0 56.39 1.8
-3 -4 0 2513.45 9.4
3 4 0 2276.57 8.2
-3 -4 0 2363.86 7.1
3 4 0 2270.77 7
-4 -4 0 45.8 1.9
-4 -4 0 44.4 1.3
4 4 0 46.3 1.5
4 4 0 42.8 1.7
5 4 0 1179.78 4.9
5 4 0 1326.57 5.8
-5 -4 0 1340.37 6.1
-5 -4 0 1288.47 5.3
6 4 0 4.4 1
-6 -4 0 2.5 1.3
6 4 0 1.9 1.3
-6 -4 0 2.3 1.1
-7 -4 0 375.76 3.2
-7 -4 0 357.86 3.1
7 4 0 329.47 3
7 4 0 356.86 3.2
8 4 0 84.69 1.9
-8 -4 0 88.79 2.1
-8 -4 0 90.69 1.9
8 4 0 82.89 1.8
-8 5 0 224.48 4
8 -5 0 204.38 4
8 -5 0 178.38 2.3
-8 5 0 217.18 2.4
7 -5 0 6.4 1
-7 5 0 4.2 1.4
-7 5 0 5.2 1.8
7 -5 0 0.7 1.9
-6 5 0 783.02 3.9
6 -5 0 678.83 3.6
-6 5 0 745.03 5.8
6 -5 0 719.43 6.1
5 -5 0 158.28 2.9
-5 5 0 178.28 2.8
-5 5 0 174.18 2.2
5 -5 0 164.48 2.1
4 -5 0 1172.48 6.2
-4 5 0 1278.27 4.7
4 -5 0 1209.08 4.6
3 -5 0 159.68 2.2
3 -5 0 154.78 2.4
3 -5 0 138.59 2.4
2 -5 0 2420.46 7.3
2 -5 0 2445.26 7.8
2 -5 0 2285.67 6.9
2 -5 0 2090.39 7.8
1 -5 0 710.73 4.4
1 -5 0 666.13 4.3
1 -5 0 692.33 4.2
1 -5 0 619.04 4
0 -5 0 2225.88 7.5
0 -5 0 2239.28 7.8
0 5 0 2116.99 6.9
1 5 0 983.1 5.7
-1 -5 0 1002.7 4.7
-1 -5 0 1022.8 5.9
1 5 0 968.9 4.6
-2 -5 0 533.55 3.5
-2 -5 0 503.15 4.6
2 5 0 525.75 4.1
2 5 0 519.45 3.4
-3 -5 0 481.95 3.1
3 5 0 478.95 3.8
-3 -5 0 482.45 4.4
3 5 0 460.25 3.1
4 5 0 283.27 3
-4 -5 0 283.27 2.6
4 5 0 281.47 2.5
-4 -5 0 302.37 3.4
-5 -5 0 333.37 3.4
-5 -5 0 328.87 2.8
5 5 0 298.07 2.6
5 5 0 319.27 3.2
6 5 0 7.9 1.4
6 5 0 8.3 1.1
-6 -5 0 13.9 1.4
-6 -5 0 10.9 1.5
7 5 0 382.66 3
-7 -5 0 458.95 3.5
7 5 0 438.16 3.7
-7 -5 0 416.96 3.6
8 5 0 0.2 1.1
-8 -5 0 0.1 1.7
-8 -5 0 1.7 1.4
8 5 0 1.4 1.3
-7 6 0 141.79 2
7 -6 0 138.19 2.1
7 -6 0 142.69 3.5
6 -6 0 680.93 5.5
6 -6 0 777.92 6.5
-6 6 0 852.41 4.3
6 -6 0 776.62 4.1
5 -6 0 74.89 2.2
5 -6 0 82.19 2.5
5 -6 0 78.19 1.5
4 -6 0 1094.89 6
4 -6 0 1183.98 4.7
4 -6 0 1129.09 4.5
4 -6 0 1271.67 6.1
3 -6 0 97.29 1.8
3 -6 0 95.89 1.9
3 -6 0 83.29 1.9
3 -6 0 102.29 1.8
2 -6 0 1964.7 7.3
2 -6 0 2005.2 6.4
2 -6 0 2175.88 7.1
2 -6 0 2067.89 6.7
1 -6 0 24.4 1.6
1 -6 0 23.1 1.1
1 -6 0 23.8 1.3
1 -6 0 24.1 1.4
0 -6 0 1491.65 6.6
0 -6 0 1480.05 5.7
0 -6 0 1491.15 6.3
-1 -6 0 21.5 1.3
1 6 0 24 1.2
-1 -6 0 20.3 1.5
1 6 0 20.9 1.3
-2 -6 0 1127.29 4.6
-2 -6 0 1110.39 6.3
2 6 0 1179.98 5.9
2 6 0 1141.99 4.7
-3 -6 0 182.88 2
-3 -6 0 179.88 2.8
3 6 0 169.68 2.4
3 6 0 183.18 2
-4 -6 0 528.55 3.4
4 6 0 528.75 3.4
4 6 0 530.75 4.1
-4 -6 0 587.64 4.7
5 6 0 386.46 3
-5 -6 0 420.16 3.2
5 6 0 407.56 3.6
-5 -6 0 422.96 3.9
6 6 0 174.58 2.6
6 6 0 177.18 2.4
-6 -6 0 194.68 2.7
-6 -6 0 187.68 2.6
7 6 0 201.08 2.3
-7 -6 0 213.78 2.9
-7 -6 0 197.98 2.6
7 6 0 197.98 2.9
7 -7 0 300.77 3
7 -7 0 269.07 3.1
7 -7 0 246.38 4.8
7 -7 0 58.09 5.1
6 -7 0 198.18 2.4
6 -7 0 191.28 3.8
6 -7 0 172.88 3.3
6 -7 0 193.28 2.4
5 -7 0 -15.6 5.6
5 -7 0 653.63 3.8
5 -7 0 604.24 5
5 -7 0 643.24 3.8
4 -7 0 90.99 4.6
4 -7 0 487.05 3.2
4 -7 0 469.65 4.1
4 -7 0 494.35 3.4
3 -7 0 557.24 3.4
3 -7 0 594.74 4.2
3 -7 0 655.73 4.1
3 -7 0 591.84 3.6
2 -7 0 674.33 3.9
2 -7 0 605.44 3.6
2 -7 0 638.74 3.9
2 -7 0 588.94 4
1 -7 0 183.28 2.4
1 -7 0 180.28 2.2
1 -7 0 195.08 2.2
1 -7 0 190.48 2.4
0 -7 0 678.93 3.8
0 -7 0 685.23 4.6
0 -7 0 687.33 4.5
0 -7 0 709.53 3.8
1 7 0 26 1.6
-1 -7 0 21.3 1.5
1 7 0 22.8 1.4
-1 -7 0 23.9 1.4
2 7 0 1200.08 4.7
-2 -7 0 1206.18 4.8
2 7 0 1246.38 6.2
-2 -7 0 1115.89 6.3
3 7 0 10.7 1.3
3 7 0 15.3 1
-3 -7 0 13.9 1.8
-3 -7 0 11.2 1.4
-4 -7 0 816.32 4.1
4 7 0 804.62 5.3
-4 -7 0 909.41 6.4
4 7 0 816.12 4.1
5 7 0 6.8 1.4
5 7 0 8.7 1.3
-5 -7 0 7.5 1.4
-5 -7 0 7.1 1.4
-6 -7 0 518.75 3.8
6 7 0 566.94 4.6
6 7 0 521.85 3.8
-6 -7 0 520.55 4.7
7 7 0 2.3 1.5
-7 -7 0 1.4 1.5
7 7 0 4.1 1.5
-7 -7 0 0.6 1.2
6 -8 0 0.5 1.8
6 -8 0 2 1.6
6 -8 0 1.8 1
6 -8 0 2 1
5 -8 0 569.14 3.6
5 -8 0 579.14 5.1
5 -8 0 509.35 5
5 -8 0 550.44 3.7
4 -8 0 88.99 2
4 -8 0 72.89 1.7
4 -8 0 77.39 1.7
4 -8 0 77.99 2.1
3 -8 0 364.86 3
3 -8 0 339.47 3.3
3 -8 0 333.77 2.8
3 -8 0 359.26 2.9
2 -8 0 194.78 2.6
2 -8 0 208.78 2.3
2 -8 0 231.48 2.5
2 -8 0 211.98 2.6
1 -8 0 309.17 3.1
1 -8 0 297.17 2.7
1 -8 0 291.87 2.8
1 -8 0 292.47 2.6
0 -8 0 682.83 4.4
0 -8 0 668.23 3.8
0 -8 0 657.43 4.7
0 -8 0 666.13 3.6
1 8 0 380.36 2.8
-1 -8 0 423.46 3.9
-1 -8 0 385.46 3.1
-1 -8 0 397.36 3.8
-2 -8 0 535.35 3.4
2 8 0 497.15 3.3
-2 -8 0 486.75 4.7
2 8 0 539.25 4.7
3 8 0 329.87 3.7
-3 -8 0 188.38 3.1
-3 -8 0 328.87 4.1
3 8 0 297.47 2.8
-4 -8 0 340.77 3.1
4 8 0 356.46 3.9
-4 -8 0 380.66 4.5
4 8 0 318.47 3
5 8 0 135.39 2.3
-5 -8 0 137.19 2.3
5 8 0 144.59 2.7
-5 -8 0 143.39 3
6 8 0 237.38 3.6
-6 -8 0 222.68 2.8
-6 -8 0 250.97 3.9
6 8 0 214.08 2.7
5 -9 0 201.28 3.5
5 -9 0 202.18 2.6
5 -9 0 221.58 2.7
5 -9 0 213.28 3.7
4 -9 0 16.5 1.4
4 -9 0 13.7 1.6
4 -9 0 15.3 1.3
4 -9 0 14.1 1.2
3 -9 0 408.26 3.3
3 -9 0 374.86 2.9
3 -9 0 434.96 3.5
3 -9 0 385.76 3.6
2 -9 0 17.4 1.4
2 -9 0 13 0.9
2 -9 0 15 1
2 -9 0 15 1.1
1 -9 0 1069.29 5.8
1 -9 0 1085.99 5.3
1 -9 0 1061.59 4.7
1 -9 0 1045.7 5
0 -9 0 58.09 1.9
0 -9 0 14 2
0 -9 0 57.29 1.8
0 -9 0 59.39 1.5
-1 -9 0 971.8 6.3
-1 -9 0 942.41 4.6
-1 -9 0 980.5 4.5
-1 -9 0 492.35 6.4
2 9 0 67.69 1.6
-2 -9 0 74.69 2.4
-2 -9 0 75.29 1.6
3 9 0 402.66 3.3
-3 -9 0 418.16 3.4
3 9 0 488.75 5.2
-3 -9 0 499.85 5.6
4 9 0 96.99 2.6
4 9 0 91.49 2
-4 -9 0 100.89 3
-4 -9 0 95.29 2
-5 -9 0 138.59 2.2
-5 -9 0 147.19 3.7
5 9 0 136.69 2.2
5 9 0 148.59 3.3
3 -10 0 279.07 3.3
3 -10 0 274.47 3
3 -10 0 308.57 3.3
3 -10 0 268.97 3
2 -10 0 138.59 2.3
2 -10 0 126.39 2.5
2 -10 0 112.79 2.3
2 -10 0 -4.8 2.6
1 -10 0 346.97 3.7
1 -10 0 320.77 3.2
1 -10 0 38.3 3.4
1 -10 0 343.37 3.9
0 -10 0 130.79 2.5
0 -10 0 113.69 2.8
0 -10 0 131.59 2.2
0 -10 0 134.39 2.3
-1 -10 0 333.17 3.1
-1 -10 0 48.3 4.4
-1 -10 0 340.47 3.1
-1 -10 0 327.97 4.2
-2 -10 0 2.2 2
-2 -10 0 1.9 1.6
-2 -10 0 1.5 1.6
-3 -10 0 191.08 2.6
3 10 0 185.68 2.5
-3 -10 0 203.88 4.3
-3 -10 0 135.09 5.1
-2 -10 1 218.28 2.7
2 10 -1 181.98 2.6
-1 -10 1 29.8 1.8
-1 -10 1 38.6 4
-1 -10 1 23.3 4
0 -10 1 395.36 6
0 -10 1 5.9 3.4
0 -10 1 403.66 5.6
0 -10 1 391.96 3.5
1 -10 1 33 1.7
1 -10 1 33.6 1.4
1 -10 1 34.7 1.8
1 -10 1 35.2 2.2
2 -10 1 468.15 4.9
2 -10 1 407.96 4.3
2 -10 1 442.76 3.6
2 -10 1 405.06 3.8
3 -10 1 26.7 1.8
3 -10 1 20.4 1.5
3 -10 1 24.1 1.5
3 -10 1 21.5 1.6
4 9 -1 71.69 2
-4 -9 1 34.3 3.4
4 9 -1 77.19 3.2
-4 -9 1 57.19 1.7
3 9 -1 461.45 3.4
-3 -9 1 460.75 8.9
-3 -9 1 456.05 3.5
-3 -9 1 496.15 8.4
-2 -9 1 187.78 5.4
-2 -9 1 216.68 6.5
-2 -9 1 198.28 2.5
2 9 -1 188.28 2.3
1 9 -1 603.64 4.1
-1 -9 1 244.68 7.9
-1 -9 1 630.04 4.1
-1 -9 1 601.64 8.1
0 -9 1 418.46 3.2
0 -9 1 422.26 5.1
0 -9 1 431.26 3.2
0 -9 1 437.56 4.8
1 -9 1 228.48 2.6
1 -9 1 243.98 2.5
1 -9 1 220.58 3.3
1 -9 1 238.98 3
2 -9 1 287.07 3
2 -9 1 316.37 3
2 -9 1 310.97 3.4
2 -9 1 303.77 3
3 -9 1 144.19 2.4
3 -9 1 134.89 2.4
3 -9 1 144.29 2.4
3 -9 1 132.99 2.1
4 -9 1 174.48 2.5
4 -9 1 220.58 3.1
4 -9 1 189.38 3.1
4 -9 1 203.08 2.8
5 -9 1 30.9 2.2
5 -9 1 30.2 1.7
5 -9 1 29.3 2
5 -9 1 28.6 1.6
5 8 -1 511.05 3.8
-5 -8 1 523.45 3.8
5 8 -1 530.25 5.6
-5 -8 1 567.94 5.8
-4 -8 1 4.2 1.5
-4 -8 1 7.1 1.8
4 8 -1 4.5 1.6
4 8 -1 2.2 1.5
-3 -8 1 724.63 7.6
3 8 -1 668.03 4
-3 -8 1 691.73 4.1
3 8 -1 747.43 6.8
-2 -8 1 15.4 1.7
2 8 -1 14.2 1.4
-2 -8 1 14.4 1.5
-2 -8 1 17 2.2
-1 -8 1 915.51 4.4
1 8 -1 894.31 4.5
-1 -8 1 1005 7.8
-1 -8 1 871.61 7.8
0 -8 1 100.69 1.9
0 8 -1 95.99 1.8
0 -8 1 97.99 2.4
0 -8 1 111.59 2.4
1 -8 1 395.56 3.7
1 -8 1 459.15 3.3
1 -8 1 398.56 3.2
1 -8 1 415.76 4.1
2 -8 1 16.6 1.3
2 -8 1 14.5 1.4
2 -8 1 14.4 1.4
2 -8 1 20.8 1.3
3 -8 1 493.25 3.8
3 -8 1 431.56 3.2
3 -8 1 475.75 3.6
3 -8 1 463.25 3.8
4 -8 1 201.88 2.5
4 -8 1 196.08 2.3
4 -8 1 209.48 3.1
4 -8 1 237.28 3
5 -8 1 8.7 2.4
5 -8 1 142.99 3
5 -8 1 130.29 2
5 -8 1 140.09 3.1
6 -8 1 149.19 5
6 -8 1 217.48 4.8
6 -8 1 225.08 2.8
6 -8 1 231.68 2.8
-6 -7 1 255.77 2.8
6 7 -1 289.47 3.8
-6 -7 1 -34.8 3.9
6 7 -1 257.47 2.9
-5 -7 1 160.08 2.1
5 7 -1 153.18 2.8
-5 -7 1 173.68 3.1
5 7 -1 155.28 2.3
-4 -7 1 557.04 3.6
4 7 -1 561.34 4.8
-4 -7 1 586.14 5.5
4 7 -1 542.45 3.4
3 7 -1 210.58 2.4
-3 -7 1 237.98 4.1
-3 -7 1 211.68 2.4
3 7 -1 231.88 3.4
-2 -7 1 539.25 3.4
2 7 -1 517.15 3.3
2 7 -1 554.94 5.4
-2 -7 1 552.54 6.3
-1 -7 1 558.44 5.5
-1 -7 1 497.65 5.5
-1 -7 1 561.34 3.5
1 7 -1 551.74 3.4
0 7 -1 173.48 2.2
0 -7 1 181.38 2.8
0 -7 1 167.98 2.1
0 -7 1 182.18 3
1 -7 1 681.73 4.4
1 -7 1 667.13 4.1
1 -7 1 756.52 4.1
1 -7 1 666.23 4.7
2 -7 1 115.29 2
2 -7 1 114.09 2.2
2 -7 1 135.39 2.1
2 -7 1 118.99 2.2
3 -7 1 1294.57 5.5
3 -7 1 1519.95 6.4
3 -7 1 1379.36 6.6
3 -7 1 1411.06 5.9
4 -7 1 61.59 2.3
4 -7 1 64.89 1.7
4 -7 1 66.49 1.7
4 -7 1 65.49 1.9
5 -7 1 797.72 4.3
5 -7 1 756.12 6.2
5 -7 1 774.22 4.2
5 -7 1 813.22 6.2
6 -7 1 5.1 1.8
6 -7 1 7.2 2
6 -7 1 7.2 1
7 -7 1 526.95 3.8
-7 -6 1 -1 1.3
7 6 -1 1.8 1.5
7 6 -1 4.7 1.4
-7 -6 1 3.6 1.6
6 6 -1 641.04 4.2
6 6 -1 628.44 5
-6 -6 1 637.94 4.2
-6 -6 1 701.63 4.9
-5 -6 1 10.2 1.1
5 6 -1 8.9 1.4
5 6 -1 10.3 1.5
-5 -6 1 9 1.4
-4 -6 1 1121.19 6.9
-4 -6 1 1113.69 4.9
4 6 -1 1032.8 4.8
4 6 -1 1038.7 6
3 6 -1 174.18 2.7
3 6 -1 181.68 2.1
-3 -6 1 199.88 3.5
-3 -6 1 173.58 2.2
-2 -6 1 765.22 4.1
2 6 -1 734.93 3.9
2 6 -1 785.22 6
-2 -6 1 798.52 7.2
-1 -6 1 490.15 5.5
-1 -6 1 529.95 3.4
1 6 -1 538.55 3.4
0 -6 1 1096.69 6.8
0 -6 1 1116.59 6.6
0 -6 1 1125.19 5.2
0 6 -1 1066.89 4.8
1 -6 1 1043.6 5.2
1 -6 1 1054.39 5.9
1 -6 1 1007 5.3
2 -6 1 694.53 4.1
2 -6 1 673.23 4.3
2 -6 1 654.83 4
2 -6 1 672.33 4.5
3 -6 1 1342.97 6.8
3 -6 1 1517.95 6.4
3 -6 1 1346.87 5.3
3 -6 1 1327.97 5.5
4 -6 1 370.86 3
4 -6 1 366.86 4
4 -6 1 407.86 3.8
-5 6 -1 989.6 4.3
5 -6 1 916.71 6.9
5 -6 1 839.02 6.6
5 -6 1 911.41 4.3
-6 6 -1 62.79 1.5
6 -6 1 56.99 2.7
6 -6 1 59.49 2.9
6 -6 1 53.89 1.4
7 -6 1 514.55 3.5
7 -6 1 433.66 8.5
-7 6 -1 545.75 3.6
7 -6 1 457.15 9
-8 6 -1 1.2 1.3
8 -6 1 0 1.3
7 5 -1 186.08 2.3
-7 -5 1 231.58 2.9
-7 -5 1 216.88 2.5
7 5 -1 205.78 2.9
-6 -5 1 707.53 4.5
6 5 -1 655.33 4.1
-6 -5 1 699.23 4.4
6 5 -1 672.13 4.4
5 5 -1 59.39 1.9
-5 -5 1 67.19 2
5 5 -1 55.19 1.5
-5 -5 1 59.79 1.8
4 5 -1 666.63 3.7
-4 -5 1 695.13 3.8
-4 -5 1 695.83 5
4 5 -1 682.63 4.8
3 5 -1 4.2 0.9
-3 -5 1 1.5 1.3
-3 -5 1 2.9 1.4
3 5 -1 3.1 1.1
2 5 -1 2358.76 6.9
-2 -5 1 2496.85 7.2
-2 -5 1 2629.24 12.7
2 5 -1 2293.17 9.8
-1 -5 1 189.18 3.8
1 5 -1 212.78 2.5
-1 -5 1 200.68 2.3
1 5 -1 215.48 3.6
0 5 -1 3321.07 8.8
0 -5 1 3378.96 12.5
0 -5 1 3487.15 9.2
0 -5 1 3422.86 11.9
1 -5 1 342.07 3.4
1 -5 1 371.76 3.5
1 -5 1 378.26 3.8
-1 5 -1 334.37 3
2 -5 1 1962.6 8
2 -5 1 1998.1 7.3
2 -5 1 2030 7
2 -5 1 2157.18 7.7
3 -5 1 58.09 2.1
3 -5 1 65.49 1.8
3 -5 1 59.39 1.7
-3 5 -1 66.19 1.5
4 -5 1 1168.78 4.8
4 -5 1 1177.08 7.2
4 -5 1 1083.39 7.2
-4 5 -1 1264.67 5
5 -5 1 281.57 4.2
5 -5 1 324.97 4.6
5 -5 1 328.17 2.7
-5 5 -1 368.26 2.8
6 -5 1 185.38 2.3
-6 5 -1 149.49 2.4
6 -5 1 179.68 3.9
6 -5 1 151.78 3.5
7 -5 1 177.78 2.2
-7 5 -1 -20 2.6
7 -5 1 191.58 4.6
-8 5 -1 -11.5 1.8
8 -5 1 73.89 4
8 -5 1 66.29 1.9
8 4 -1 40 1.5
8 4 -1 38 1.6
-8 -4 1 43.8 1.6
-8 -4 1 46 1.9
7 4 -1 360.06 3
7 4 -1 348.17 3.4
-7 -4 1 419.86 3.4
-7 -4 1 419.96 3.4
6 4 -1 261.87 2.8
6 4 -1 284.17 2.6
-6 -4 1 300.97 3
-6 -4 1 305.27 2.7
-5 -4 1 249.18 2.6
5 4 -1 237.98 2.5
-5 -4 1 250.97 2.9
5 4 -1 243.28 2.9
4 4 -1 642.44 4.5
-4 -4 1 668.93 4.7
4 4 -1 618.54 3.5
-4 -4 1 636.84 3.6
3 4 -1 1085.19 6.2
-3 -4 1 1137.29 6.9
-3 -4 1 1112.29 5
3 4 -1 1091.59 4.9
-2 -4 1 4130.89 15.6
2 4 -1 3744.03 9.3
-2 -4 1 4048.8 9.7
2 4 -1 3578.24 12.2
1 4 -1 711.73 4.4
-1 -4 1 638.74 7.5
-1 -4 1 697.23 4.3
1 4 -1 640.74 6.3
0 4 -1 2076.59 7.7
0 -4 1 2151.28 8
0 -4 1 2285.37 11.4
0 -4 1 2145.79 10.6
1 -4 1 463.85 4.4
1 -4 1 463.45 4.2
-1 4 -1 428.26 3.9
1 -4 1 436.26 4
2 -4 1 1141.99 6.3
2 -4 1 1061.99 6.8
-2 4 -1 1156.18 5.6
2 -4 1 1080.59 5.6
-3 4 -1 227.68 2.6
3 -4 1 205.78 2.3
3 -4 1 220.78 3.3
3 -4 1 190.48 3.3
4 -4 1 1219.38 8.3
-4 4 -1 1478.25 5.3
4 -4 1 1309.77 8.6
4 -4 1 1363.76 5.2
5 -4 1 29 2.1
-5 4 -1 30.6 1.9
-5 4 -1 31.2 1.2
5 -4 1 26.9 1.2
6 -4 1 1213.18 4.7
6 -4 1 1234.48 8.9
-6 4 -1 1306.47 4.8
-6 4 -1 1269.77 8.5
7 -4 1 22.2 1.2
-7 4 -1 25.8 1.9
-7 4 -1 23.7 1.2
7 -4 1 22.6 2
-8 4 -1 658.23 3.8
8 -4 1 619.64 7.1
8 -4 1 582.54 3.7
-8 4 -1 671.73 6.9
9 -4 1 114.39 2
-9 4 -1 116.79 2
-9 4 -1 99.49 3.8
9 -4 1 60.29 3.5
8 3 -1 0.9 1.3
-8 -3 1 3.9 1.4
8 3 -1 3.5 1.5
-8 -3 1 1.5 1.1
-7 -3 1 684.53 4.1
-7 -3 1 73.49 4.6
7 3 -1 575.64 3.6
7 3 -1 629.64 4.1
6 3 -1 159.98 2.4
6 3 -1 146.39 2
-6 -3 1 -9.8 2.4
-6 -3 1 178.28 2.5
-5 -3 1 881.91 4.2
5 3 -1 837.72 4
5 3 -1 845.42 4.8
-5 -3 1 888.91 4.7
4 3 -1 300.67 2.7
-4 -3 1 330.87 3.3
-4 -3 1 321.57 2.8
4 3 -1 311.57 3.2
3 3 -1 2549.44 9.5
-3 -3 1 2764.72 10
-3 -3 1 2818.62 8.1
3 3 -1 2523.85 7.6
-2 -3 1 399.26 5
2 3 -1 371.06 3.5
2 3 -1 355.86 4.3
-2 -3 1 391.36 3.6
1 3 -1 1723.63 7.2
1 3 -1 1646.14 10.8
-1 -3 1 1779.82 13.6
-1 -3 1 1759.92 7.4
0 -3 1 222.98 3.1
0 -3 1 236.38 4.8
0 -3 1 222.48 4.4
0 3 -1 234.08 3.3
-1 3 -1 1102.19 7.3
-1 3 -1 1182.68 7.4
1 -3 1 1187.28 7.6
1 -3 1 1126.69 7.6
2 -3 1 814.42 5.2
2 -3 1 863.41 6.6
-2 3 -1 822.72 5.3
2 -3 1 826.52 7.2
3 -3 1 468.65 3.5
-3 3 -1 501.35 3.6
3 -3 1 433.16 5.7
3 -3 1 483.05 5.7
-4 3 -1 2380.66 7.1
4 -3 1 2140.59 6.7
-4 3 -1 2381.66 12.1
4 -3 1 2253.77 12.6
5 -3 1 188.38 3.5
-5 3 -1 185.48 3.5
-5 3 -1 194.08 2
5 -3 1 175.98 2.1
-6 3 -1 1251.27 4.7
6 -3 1 1255.37 8
6 -3 1 1165.98 4.7
-6 3 -1 1254.37 7.7
7 -3 1 67.09 1.4
-7 3 -1 3.4 1.8
-7 3 -1 77.09 2.3
7 -3 1 73.19 2.5
8 -3 1 754.72 6.3
-8 3 -1 782.62 6.3
8 -3 1 654.63 3.7
-8 3 -1 742.63 3.9
-9 3 -1 0.2 1
9 -3 1 2 1.1
-9 3 -1 3.4 1.6
9 -3 1 2.5 1.8
-8 -2 1 -25.1 2.5
-8 -2 1 211.58 2.7
8 2 -1 182.18 2.3
8 2 -1 172.28 2.4
7 2 -1 699.63 3.9
-7 -2 1 768.02 4.2
-7 -2 1 827.22 4.3
7 2 -1 736.43 4.3
6 2 -1 122.49 2
-6 -2 1 133.59 2
6 2 -1 122.79 2.1
-6 -2 1 136.19 2.1
-5 -2 1 1491.65 5.5
5 2 -1 1325.07 5.1
-5 -2 1 1439.06 5.6
5 2 -1 1427.96 5.9
-4 -2 1 286.37 2.9
4 2 -1 269.67 2.6
4 2 -1 305.37 3.3
-4 -2 1 286.57 2.8
-3 -2 1 1890.91 7.8
-3 -2 1 1884.11 6.9
3 2 -1 1869.61 8
3 2 -1 1794.52 6.8
2 2 -1 10 1.7
-2 -2 1 6.5 1.5
-2 -2 1 5.5 1.6
2 2 -1 6.8 1.8
-1 -2 1 1830.62 8.4
-1 -2 1 1843.12 14.2
1 2 -1 1749.53 13.4
1 2 -1 1824.22 8.4
0 -2 1 690.63 13.6
0 -2 1 738.23 6.5
0 -2 1 697.03 12.3
0 2 -1 733.13 6.3
1 -2 1 2822.02 15.4
-1 2 -1 2834.22 14.9
1 -2 1 2735.23 13.2
-1 2 -1 2890.71 13.1
2 -2 1 1665.53 8
-2 2 -1 1764.42 8.2
2 -2 1 1758.82 14.7
2 -2 1 1841.82 13.9
3 -2 1 3404.76 9.7
3 -2 1 3162.88 18.2
-3 2 -1 3757.52 10
-3 2 -1 3108.99 16.9
-4 2 -1 1550.44 6
4 -2 1 1453.25 9.7
4 -2 1 1488.95 5.9
-4 2 -1 1340.87 9.1
-5 2 -1 1363.76 5
-5 2 -1 1130.79 7.4
5 -2 1 1303.07 5
5 -2 1 1295.97 7.9
-6 2 -1 448.76 4.4
6 -2 1 508.85 4.5
6 -2 1 470.25 3.1
-6 2 -1 529.95 3.1
-7 2 -1 422.86 4.5
7 -2 1 473.25 4.4
7 -2 1 436.26 3.1
-7 2 -1 492.85 3.1
8 -2 1 397.36 4.2
-8 2 -1 400.86 4.4
-8 2 -1 438.06 3
8 -2 1 391.46 2.9
-9 2 -1 88.49 1.7
-9 2 -1 89.19 2.7
9 -2 1 82.19 1.7
9 -2 1 87.69 2.5
9 1 -1 43.9 1.7
-9 -1 1 47.9 1.7
9 1 -1 41.3 1.9
-9 -1 1 2.7 1.6
-8 -1 1 472.35 3.6
8 1 -1 417.16 3.4
-8 -1 1 475.35 3.4
8 1 -1 -64.99 3.2
7 1 -1 161.58 2.1
-7 -1 1 191.58 2.3
-7 -1 1 185.18 2.3
7 1 -1 174.58 2.3
6 1 -1 723.03 4
-6 -1 1 843.62 4.1
-6 -1 1 774.92 4.2
6 1 -1 748.93 4.1
-5 -1 1 618.74 4
-5 -1 1 600.94 3.5
5 1 -1 536.15 3.5
5 1 -1 598.24 3.7
-4 -1 1 355.96 3
4 1 -1 339.17 3.2
4 1 -1 351.06 3
-4 -1 1 364.36 3.2
3 1 -1 1061.79 5.6
3 1 -1 1064.09 5.8
-3 -1 1 1046.1 5.5
-3 -1 1 1132.39 5.9
-2 -1 1 128.89 2.5
2 1 -1 148.79 3
-2 -1 1 153.88 2.7
2 1 -1 138.49 2.5
-1 -1 1 1562.34 8.9
-1 -1 1 1519.25 10.4
1 1 -1 1514.45 8.8
1 1 -1 1514.15 11
0 1 -1 349.07 5.7
0 1 -1 305.07 11.3
0 -1 1 346.37 5.8
0 -1 1 312.57 10.5
-1 1 -1 2766.12 15.5
1 -1 1 2705.53 25.9
-1 1 -1 3249.18 26.6
1 -1 1 2827.22 15.6
2 -1 1 5.7 1.4
-2 1 -1 7.6 1.9
2 -1 1 6.8 2.8
-2 1 -1 12.9 3.2
3 -1 1 4601.14 11.8
-3 1 -1 5104.79 12
3 -1 1 4288.47 18.4
-3 1 -1 4162.18 18.7
4 -1 1 2.4 1.1
4 -1 1 4.1 1.6
-4 1 -1 2.5 1.7
-4 1 -1 4 1
-5 1 -1 2267.47 6.6
-5 1 -1 2062.69 9.4
5 -1 1 2056.69 6.4
5 -1 1 2094.99 8.9
6 -1 1 111.79 2.3
6 -1 1 104.79 1.6
-6 1 -1 112.19 2.4
-6 1 -1 119.99 1.6
7 -1 1 710.83 4.8
-7 1 -1 -51.89 4
7 -1 1 663.23 3.7
-7 1 -1 706.63 5.1
8 -1 1 139.49 1.9
8 -1 1 140.09 2.5
-8 1 -1 -12.2 1.9
-8 1 -1 150.88 2.7
-9 1 -1 191.28 3
9 -1 1 175.28 2.9
9 -1 1 148.79 2.1
-9 1 -1 181.38 2.2
9 0 -1 -2.2 1.5
9 0 -1 19.8 1.4
-9 0 1 24.2 1.7
-9 0 1 22.1 1.4
-8 0 1 418.26 3.7
8 0 -1 408.96 3.4
8 0 -1 358.26 2.9
-8 0 1 448.66 3.3
-7 0 1 0.1 0.9
7 0 -1 0.5 1.2
-7 0 1 1.1 1.4
7 0 -1 -0.2 1.3
6 0 -1 745.93 4.2
-6 0 1 822.82 4.5
6 0 -1 819.52 3.9
-6 0 1 917.81 4
-5 0 1 247.28 2.5
5 0 -1 246.28 2.7
-5 0 1 251.07 2.9
5 0 -1 239.38 2.3
-4 0 1 1221.08 5.8
-4 0 1 1252.17 5.2
4 0 -1 1182.78 5.7
4 0 -1 1204.68 5.1
3 0 -1 660.03 4.3
-3 0 1 646.04 4.8
3 0 -1 629.54 4.6
-3 0 1 655.63 4.2
-2 0 1 5401.56 15
2 0 -1 5419.56 13.2
2 0 -1 5257.07 14.6
-2 0 1 5062.59 12.8
1 0 -1 2344.17 10.8
-1 0 1 2535.65 11.2
1 0 -1 2277.97 11.8
-1 0 1 2430.86 12.4
0 0 -1 1438.16 12.3
0 0 1 1441.16 12.1
0 0 1 1616.54 11.9
0 0 -1 1549.74 12.1
1 0 1 2962.9 19.3
-1 0 -1 2780.82 18.4
1 0 1 2275.17 13.3
-1 0 -1 2458.35 13.7
-2 0 -1 2464.05 14.6
2 0 1 2358.46 10.3
2 0 1 2359.36 14.4
-2 0 -1 2247.98 10.1
3 0 1 1092.79 6
3 0 1 1006 7.4
-3 0 -1 1035.7 7.6
-3 0 -1 1087.29 6.1
-4 0 -1 695.43 4.3
-4 0 -1 712.13 5.5
4 0 1 690.93 4.4
4 0 1 622.24 5
5 0 1 984.5 5.6
5 0 1 956.3 4.5
-5 0 -1 1060.89 6.1
-5 0 -1 975.7 4.4
6 0 1 4.2 1.2
-6 0 -1 10.8 1.5
-6 0 -1 3 0.8
6 0 1 3 1.4
-7 0 -1 876.01 5.3
7 0 1 771.32 4.7
7 0 1 749.82 3.9
-7 0 -1 786.32 3.8
-8 0 -1 -1.8 1.2
8 0 1 22.2 1.2
8 0 1 22.3 1.6
-8 0 -1 19.5 1.6
9 0 1 480.45 3.4
-9 0 -1 192.78 4.7
9 0 1 453.15 4.1
-9 0 -1 61.69 3.5
-9 1 1 100.19 2
-9 1 1 108.19 2.3
9 -1 -1 85.69 2.2
9 -1 -1 93.19 2
8 -1 -1 416.86 3.3
8 -1 -1 451.15 3.7
-8 1 1 499.95 3.5
-8 1 1 -58.29 4
7 -1 -1 47.7 1.4
7 -1 -1 49.3 1.4
-7 1 1 58.49 1.4
-7 1 1 52.49 1.6
-6 1 1 1145.69 5.7
-6 1 1 1327.77 5
6 -1 -1 1156.08 4.6
6 -1 -1 1223.58 5.6
-5 1 1 30.5 1.7
5 -1 -1 34.2 1.6
5 -1 -1 32.7 1.3
-5 1 1 35.6 1.3
4 -1 -1 3141.49 9.5
-4 1 1 2837.02 9.3
4 -1 -1 3245.88 8.1
-4 1 1 3163.58 7.8
3 -1 -1 117.89 1.9
-3 1 1 117.79 2.2
-3 1 1 101.59 2.4
3 -1 -1 116.99 2.5
2 -1 -1 4523.85 14
2 -1 -1 5860.61 12.5
-2 1 1 5639.34 12.3
-2 1 1 4668.53 14.6
1 -1 -1 1211.08 6.7
1 -1 -1 1144.29 7.8
-1 1 1 1279.47 7
-1 1 1 1159.58 7.8
0 -1 -1 2267.27 10.9
0 1 1 2455.25 12
0 -1 -1 2446.36 12
0 1 1 2288.17 10.9
1 1 1 501.05 5.4
-1 -1 -1 508.15 5.4
1 1 1 449.76 5.3
-1 -1 -1 457.15 5.3
-2 -1 -1 2569.84 10.6
2 1 1 2413.76 10.1
-2 -1 -1 2937.41 12.2
2 1 1 2608.44 11.5
3 1 1 450.85 4.1
-3 -1 -1 443.66 4.4
3 1 1 436.56 4.4
-3 -1 -1 494.25 4.3
4 1 1 653.93 4.4
-4 -1 -1 659.33 4.3
-4 -1 -1 650.83 4.7
4 1 1 604.74 4.5
5 1 1 1077.39 5
5 1 1 1013.2 5.3
-5 -1 -1 1134.69 5.8
-5 -1 -1 1057.09 4.7
6 1 1 352.16 2.8
-6 -1 -1 401.06 3.4
6 1 1 381.66 3.3
-6 -1 -1 357.16 2.7
-7 -1 -1 982.9 4.2
7 1 1 870.01 4.6
-7 -1 -1 938.21 5.2
7 1 1 925.21 4.2
-8 -1 -1 141.89 2.4
8 1 1 117.09 2.1
8 1 1 123.49 2.1
-8 -1 -1 132.59 2.1
-9 -1 -1 429.46 3.2
9 1 1 -25.3 3.4
9 1 1 452.35 3.8
-9 -1 -1 488.25 4.1
9 -2 -1 187.08 3.1
9 -2 -1 125.19 2.3
-9 2 1 -40.6 2.1
-9 2 1 196.58 3
8 -2 -1 204.28 2.9
-8 2 1 223.38 2.6
-8 2 1 228.18 3.1
8 -2 -1 191.28 2.3
-7 2 1 339.87 3.4
7 -2 -1 376.86 3.4
7 -2 -1 336.17 2.7
-7 2 1 383.06 2.8
-6 2 1 576.24 4.1
6 -2 -1 612.54 4.3
6 -2 -1 573.04 3.4
-6 2 1 645.84 3.5
-5 2 1 1035.2 4.3
5 -2 -1 1023.9 4.3
5 -2 -1 1032.5 5.6
-5 2 1 956.4 5.4
4 -2 -1 1114.69 4.6
4 -2 -1 1139.39 6.1
-4 2 1 1192.68 4.7
-4 2 1 1088.09 5.9
3 -2 -1 1516.65 7.3
-3 2 1 1714.43 6
3 -2 -1 1626.24 5.7
-3 2 1 1498.95 7.1
-2 2 1 1430.96 5.8
-2 2 1 1294.17 7.1
2 -2 -1 1342.07 5.7
2 -2 -1 1235.88 6.9
1 -2 -1 1900.01 7.5
1 -2 -1 1898.91 8.5
1 -2 -1 1884.51 7.6
-1 2 1 1891.51 8.6
0 2 1 3242.98 11
0 -2 -1 3220.68 10.9
0 2 1 3310.57 11.5
0 -2 -1 3373.76 11.5
-1 -2 -1 666.83 5.3
1 2 1 630.74 5.2
-1 -2 -1 613.24 5.1
1 2 1 661.23 5.2
2 2 1 2282.47 9
2 2 1 2253.87 9
-2 -2 -1 2168.48 9
-2 -2 -1 2454.65 9.4
3 2 1 177.28 2.5
-3 -2 -1 196.98 2.8
-3 -2 -1 180.68 2.6
3 2 1 185.28 2.6
-4 -2 -1 2804.72 8.5
-4 -2 -1 2806.32 8.6
4 2 1 2733.33 8.3
4 2 1 2624.34 8.2
-5 -2 -1 226.38 2.7
-5 -2 -1 218.78 2.6
5 2 1 196.48 2.5
5 2 1 202.58 2.4
6 2 1 1672.33 5.9
6 2 1 1628.44 5.9
-6 -2 -1 1815.92 6.6
-6 -2 -1 1778.32 6
-7 -2 -1 176.78 2.5
-7 -2 -1 168.98 2.3
7 2 1 165.18 2.5
7 2 1 147.29 2
-8 -2 -1 686.33 3.9
-8 -2 -1 753.02 4.5
8 2 1 670.93 4.1
8 2 1 636.64 3.8
9 2 1 78.69 1.9
9 2 1 79.09 2
-9 -2 -1 94.59 1.8
-9 -2 -1 97.89 2.2
-8 3 1 3.4 1.3
8 -3 -1 6 1.3
8 -3 -1 0.5 1.4
-8 3 1 3.9 1.5
7 -3 -1 882.01 4.1
-7 3 1 843.72 5.4
7 -3 -1 914.61 5.5
-7 3 1 1017.2 4.3
-6 3 1 63.59 1.9
-6 3 1 68.09 1.7
6 -3 -1 65.09 1.4
6 -3 -1 68.89 2
-5 3 1 1557.54 5
5 -3 -1 1377.96 4.7
-5 3 1 1406.26 6.3
5 -3 -1 1505.85 6.7
4 -3 -1 263.37 3.1
-4 3 1 280.97 2.3
-4 3 1 258.07 3
4 -3 -1 251.27 2.1
-3 3 1 1155.68 5.9
3 -3 -1 1119.79 5.7
-3 3 1 1217.18 4.9
3 -3 -1 1134.09 4.6
2 -3 -1 1153.58 5.9
-2 3 1 1179.48 6.2
2 -3 -1 1257.47 5.3
-1 3 1 1351.46 6.8
1 -3 -1 1290.27 5.8
1 -3 -1 1310.07 5.8
1 -3 -1 1338.17 6.5
0 -3 -1 2381.26 8.6
0 -3 -1 2571.44 8.7
0 -3 -1 2640.34 8.9
0 3 1 2714.83 9.1
-1 -3 -1 1039.3 5.7
1 3 1 1083.39 6
-1 -3 -1 1129.29 6.2
1 3 1 1099.29 5.6
-2 -3 -1 3331.87 10.5
2 3 1 3883.91 10
2 3 1 3442.06 10.1
-2 -3 -1 3533.25 10
3 3 1 1179.68 5.8
-3 -3 -1 1263.37 5.6
3 3 1 1292.17 5.8
-3 -3 -1 1214.98 6
4 3 1 3039.8 8.6
-4 -3 -1 2985.3 8.8
4 3 1 2799.32 7.9
-4 -3 -1 3047.6 8.4
5 3 1 254.57 2.6
-5 -3 -1 272.07 2.8
-5 -3 -1 264.87 2.9
5 3 1 247.08 2.5
6 3 1 1245.08 5.1
-6 -3 -1 1368.56 5.5
6 3 1 1260.67 5.2
-6 -3 -1 1289.17 5.3
-7 -3 -1 5.7 1.4
7 3 1 6.3 1.3
7 3 1 6.4 1.4
-7 -3 -1 8.1 1.1
-8 -3 -1 545.95 3.9
8 3 1 448.76 3.4
-8 -3 -1 516.65 3.6
8 3 1 454.55 3.4
-9 -3 -1 18.7 1.8
-9 -3 -1 18.8 1.4
9 3 1 15.9 1.2
9 3 1 17.3 1.4
-8 4 1 89.29 2.6
8 -4 -1 96.49 1.8
8 -4 -1 107.59 2.7
-8 4 1 104.89 2.1
-7 4 1 631.04 3.6
7 -4 -1 540.05 4.7
7 -4 -1 530.05 3.4
-7 4 1 496.25 4.7
-6 4 1 75.49 1.7
-6 4 1 79.39 2
6 -4 -1 64.99 1.4
6 -4 -1 77.89 2.2
5 -4 -1 591.44 3.2
5 -4 -1 648.34 4.5
-5 4 1 655.73 4.4
-5 4 1 654.73 3.4
4 -4 -1 2.9 1
4 -4 -1 2.4 1.3
-4 4 1 2.4 1
-4 4 1 1.9 1.2
3 -4 -1 1069.49 4.4
3 -4 -1 1057.39 5.4
-3 4 1 1109.69 5.7
2 -4 -1 333.47 2.6
-2 4 1 370.26 3.4
2 -4 -1 355.56 2.8
2 -4 -1 355.36 3.2
1 -4 -1 2173.28 6.9
1 -4 -1 1899.91 7.1
1 -4 -1 2006.3 6.6
1 -4 -1 2149.08 7.2
0 -4 -1 374.66 3.1
0 -4 -1 378.86 3.4
0 -4 -1 344.77 3.1
0 4 1 360.96 3.3
1 4 1 3910.01 9.6
1 4 1 4083.39 10.3
-1 -4 -1 4328.27 10.8
-1 -4 -1 4167.08 10.1
2 4 1 830.42 4.7
2 4 1 826.42 4.5
-2 -4 -1 805.42 4.8
-2 -4 -1 829.92 4.4
-3 -4 -1 1966.8 7.5
3 4 1 2039.5 7.1
-3 -4 -1 1980.2 6.5
3 4 1 1943.01 6.5
4 4 1 512.05 3.3
-4 -4 -1 558.84 4
4 4 1 523.85 3.7
-4 -4 -1 547.75 3.4
5 4 1 660.33 3.6
-5 -4 -1 722.83 3.8
5 4 1 684.93 4
-5 -4 -1 720.03 4.4
6 4 1 711.73 4.1
6 4 1 657.63 3.7
-6 -4 -1 701.83 4.3
-6 -4 -1 748.53 4
-7 -4 -1 119.69 1.9
7 4 1 123.79 2
7 4 1 131.19 2.2
-7 -4 -1 120.09 2.2
8 4 1 220.88 2.5
8 4 1 213.38 2.5
-8 -4 -1 244.58 2.8
-8 -4 -1 232.08 2.5
9 4 1 1.5 1.1
-9 -4 -1 14.1 1.4
-9 -4 -1 14.9 1.3
9 4 1 11 1.5
8 -5 -1 132.59 2
-8 5 1 139.69 3.2
8 -5 -1 130.49 3.2
-8 5 1 139.99 2
7 -5 -1 45.7 2
7 -5 -1 -4.9 1.6
-7 5 1 45.9 2
-7 5 1 51.39 1.6
6 -5 -1 272.07 3.4
-6 5 1 296.97 3.4
6 -5 -1 259.37 2.4
-6 5 1 276.97 2.5
-5 5 1 322.27 3.5
-5 5 1 342.97 2.5
5 -5 -1 306.97 2.4
5 -5 -1 304.77 3.4
-4 5 1 359.16 3.4
4 -5 -1 348.27 2.6
4 -5 -1 335.07 3.1
-3 5 1 1585.44 6.6
3 -5 -1 1524.35 5.1
3 -5 -1 1507.15 6
3 -5 -1 1493.45 5
2 -5 -1 884.01 4.5
2 -5 -1 751.82 4.5
2 -5 -1 821.32 3.9
2 -5 -1 852.91 4.1
1 -5 -1 2912.01 7.7
1 -5 -1 2553.94 7.8
1 -5 -1 2912.71 7.7
1 -5 -1 2718.03 7.2
0 5 1 619.14 3.9
0 -5 -1 590.84 3.7
0 -5 -1 559.14 3.7
0 -5 -1 610.04 3.6
1 5 1 2419.36 7.1
1 5 1 2406.66 7.7
-1 -5 -1 2542.85 7.4
-1 -5 -1 2627.24 8.2
-2 -5 -1 117.79 2
-2 -5 -1 119.79 2.1
2 5 1 118.29 1.9
2 5 1 117.99 2
-3 -5 -1 966.8 5.3
3 5 1 1003.5 4.9
3 5 1 968.9 4.5
-3 -5 -1 1022 4.6
4 5 1 3.7 1.2
-4 -5 -1 5.3 1.2
-4 -5 -1 3.2 1.1
4 5 1 5.2 1.2
-5 -5 -1 1749.12 6.9
-5 -5 -1 1798.62 6
5 5 1 1624.44 5.6
5 5 1 1716.23 6.5
6 5 1 333.97 2.8
6 5 1 338.17 3
-6 -5 -1 346.67 2.9
-6 -5 -1 341.47 3.3
7 5 1 514.85 3.7
-7 -5 -1 479.25 3.4
7 5 1 436.56 3.2
-7 -5 -1 478.65 3.7
8 5 1 137.99 2.4
8 5 1 154.88 2.6
-8 -5 -1 152.88 2.4
-8 -5 -1 146.99 2.5
-7 6 1 5.2 1.5
7 -6 -1 1.7 1
7 -6 -1 3.2 1.8
6 -6 -1 441.16 3.2
6 -6 -1 469.75 4.4
-6 6 1 528.55 4.4
6 -6 -1 452.05 3.4
5 -6 -1 138.49 2.5
5 -6 -1 140.19 1.8
5 -6 -1 144.69 1.9
-5 6 1 154.08 2.5
4 -6 -1 978.7 5.1
4 -6 -1 1022.5 4.4
4 -6 -1 962.8 4.2
3 -6 -1 199.58 2.4
3 -6 -1 235.78 2.5
3 -6 -1 228.18 2.1
3 -6 -1 231.08 2.3
2 -6 -1 1475.55 5.1
2 -6 -1 1626.84 5.7
2 -6 -1 1399.36 5.8
2 -6 -1 1612.64 5.5
1 -6 -1 709.23 3.8
1 -6 -1 788.32 4.1
1 -6 -1 806.82 4.1
1 -6 -1 720.43 4.2
0 -6 -1 614.74 3.7
0 -6 -1 664.63 3.9
0 6 1 668.93 4
0 -6 -1 648.94 3.7
1 6 1 739.03 4.2
-1 -6 -1 778.62 4.3
-1 -6 -1 774.72 4
-2 -6 -1 134.09 2.2
2 6 1 122.69 2
-2 -6 -1 130.89 1.7
2 6 1 128.09 1.9
3 6 1 1122.99 4.6
-3 -6 -1 1169.78 4.6
-3 -6 -1 1139.89 5.6
3 6 1 1144.29 5.2
-4 -6 -1 51.69 1.8
4 6 1 51.99 1.4
-4 -6 -1 53.69 1.4
4 6 1 52.69 1.6
5 6 1 1237.18 5.2
-5 -6 -1 1220.08 4.9
5 6 1 1206.28 5.5
-5 -6 -1 1216.18 5.9
6 6 1 2 1.5
6 6 1 2.4 1
-6 -6 -1 0.3 1.4
-6 -6 -1 3 1.5
7 6 1 370.56 3.1
-7 -6 -1 357.06 3.8
7 6 1 408.26 3.7
-7 -6 -1 420.36 3.3
8 6 1 2 1.1
8 6 1 1.8 1.3
-8 -6 -1 0.9 1.4
-8 -6 -1 0.3 1
7 -7 -1 23.9 1.3
7 -7 -1 21.6 2.2
7 -7 -1 19.2 2
7 -7 -1 30.2 1.5
6 -7 -1 502.55 4.9
6 -7 -1 517.25 3.5
6 -7 -1 365.46 4.5
6 -7 -1 503.15 3.4
5 -7 -1 56.99 1.9
5 -7 -1 53.69 1.3
5 -7 -1 47.3 2
5 -7 -1 48.1 1.3
4 -7 -1 758.62 4.7
4 -7 -1 895.81 4.9
4 -7 -1 803.32 3.9
4 -7 -1 788.82 3.9
3 -7 -1 10.5 1.1
3 -7 -1 10.1 1.3
3 -7 -1 12.4 1.3
3 -7 -1 11.2 0.9
2 -7 -1 797.52 4.1
2 -7 -1 673.23 3.6
2 -7 -1 698.33 4.2
2 -7 -1 743.63 3.9
1 -7 -1 47.4 1.6
1 -7 -1 47.6 1.3
1 -7 -1 47.9 1.4
1 -7 -1 53.99 1.6
0 -7 -1 666.53 3.9
0 -7 -1 678.63 3.8
0 -7 -1 664.63 3.8
0 -7 -1 667.53 3.5
-1 -7 -1 423.66 3.3
-1 -7 -1 437.26 3
1 7 1 434.36 3.4
-1 -7 -1 488.05 3
2 7 1 428.36 3.4
2 7 1 421.66 3
-2 -7 -1 453.35 3.5
-2 -7 -1 431.56 3.1
-3 -7 -1 702.83 4.6
-3 -7 -1 698.83 3.7
3 7 1 697.13 3.7
3 7 1 710.83 4.3
-4 -7 -1 380.06 3.6
4 7 1 371.66 3.3
-4 -7 -1 374.96 3
4 7 1 372.56 2.9
-5 -7 -1 357.06 2.9
5 7 1 338.37 2.9
-5 -7 -1 360.56 3.5
5 7 1 349.37 3.2
-6 -7 -1 219.18 3
-6 -7 -1 211.08 2.5
6 7 1 225.88 2.8
6 7 1 213.58 2.6
7 7 1 216.38 2.7
7 7 1 246.28 3.1
-7 -7 -1 15.4 3.2
-7 -7 -1 219.38 2.6
6 -8 -1 124.39 2.2
6 -8 -1 125.69 2.2
6 -8 -1 127.29 3.2
6 -8 -1 112.59 3
5 -8 -1 124.59 1.9
5 -8 -1 127.19 1.9
5 -8 -1 128.69 2.7
5 -8 -1 145.49 2.7
4 -8 -1 302.47 3.2
4 -8 -1 337.87 3.2
4 -8 -1 312.77 2.7
4 -8 -1 314.47 2.7
3 -8 -1 28.9 1.3
3 -8 -1 28 1.4
3 -8 -1 27.2 1.1
3 -8 -1 28.2 1.4
2 -8 -1 358.36 3
2 -8 -1 369.96 2.9
2 -8 -1 346.27 3.1
2 -8 -1 345.47 2.8
1 -8 -1 100.79 1.7
1 -8 -1 101.09 2
1 -8 -1 103.09 1.6
1 -8 -1 103.59 1.8
0 -8 -1 846.62 4.5
0 -8 -1 821.62 4.2
0 -8 -1 807.82 3.9
0 -8 -1 832.42 4.6
1 8 1 1.6 1.1
-1 -8 -1 2.4 1.4
-1 -8 -1 1.7 1.1
-1 -8 -1 1.4 1.2
-2 -8 -1 994.9 5.3
-2 -8 -1 986.3 4.4
2 8 1 959.2 5.4
-3 -8 -1 0.9 1
3 8 1 2 1.2
-3 -8 -1 4.1 1.4
3 8 1 1.5 1.4
4 8 1 815.72 5
4 8 1 725.53 4.2
-4 -8 -1 838.82 5.5
-4 -8 -1 773.92 4.2
-5 -8 -1 21.5 1.3
5 8 1 25.8 1.4
-5 -8 -1 29.7 1.7
5 8 1 26.8 1.3
6 8 1 307.17 3.7
-6 -8 -1 -18.2 4.2
-6 -8 -1 322.57 3.1
6 8 1 298.37 3
5 -9 -1 155.68 3
5 -9 -1 146.69 3.1
5 -9 -1 163.48 2.4
5 -9 -1 -21.1 2.1
4 -9 -1 106.79 2.3
4 -9 -1 106.49 1.9
4 -9 -1 105.99 2.2
4 -9 -1 117.79 2.1
3 -9 -1 241.18 2.6
3 -9 -1 219.18 2.5
3 -9 -1 243.88 2.6
3 -9 -1 238.58 2.8
2 -9 -1 176.98 2.3
2 -9 -1 189.88 2.2
2 -9 -1 192.28 2.3
2 -9 -1 201.48 2.4
1 -9 -1 466.55 3.3
1 -9 -1 428.06 3.2
1 -9 -1 409.56 3.4
1 -9 -1 414.26 3.3
0 -9 -1 639.04 4.2
0 -9 -1 630.24 4
0 -9 -1 586.44 3.6
0 -9 -1 615.04 3.9
-1 -9 -1 257.07 2.9
-1 -9 -1 249.68 3
-1 -9 -1 238.18 2.4
-1 -9 -1 262.87 2.4
-2 -9 -1 477.15 4
-2 -9 -1 500.05 3.4
2 9 1 511.95 4.2
-2 -9 -1 431.76 3.3
-3 -9 -1 208.08 3.3
-3 -9 -1 204.08 2.5
3 9 1 226.88 3.2
-4 -9 -1 347.87 4.3
4 9 1 353.26 3.8
-4 -9 -1 316.17 2.9
4 9 1 1 2.8
-5 -9 -1 1.4 1.3
5 9 1 11.2 1.6
5 9 1 13 1.2
-5 -9 -1 12.3 1.8
3 -10 -1 471.15 4.1
3 -10 -1 416.86 3.3
3 -10 -1 393.76 3.9
3 -10 -1 458.05 3.7
2 -10 -1 18.6 1.3
2 -10 -1 14 1
2 -10 -1 10.8 1.5
2 -10 -1 17.7 1.4
1 -10 -1 571.44 4.2
1 -10 -1 507.65 4.1
1 -10 -1 508.35 3.8
1 -10 -1 532.05 4.3
0 -10 -1 135.79 2.1
0 -10 -1 135.99 2.4
0 -10 -1 145.59 2.5
0 -10 -1 143.59 2.2
-1 -10 -1 254.57 3.2
-1 -10 -1 234.98 2.6
-1 -10 -1 -32.4 3.5
-1 -10 -1 256.37 2.7
-2 -10 -1 72.29 2.1
-2 -10 -1 65.19 1.9
-2 -10 -1 64.89 2.2
-2 -10 -1 66.89 1.7
-3 -10 -1 119.39 1.9
-3 -10 -1 119.59 3.1
3 10 1 122.39 3
-3 -10 -1 122.39 2
2 10 -2 218.78 2.8
-2 -10 2 233.48 2.8
1 10 -2 36.1 1.5
-1 -10 2 37.9 1.7
0 -10 2 364.16 3.4
1 -10 2 110.59 4.2
1 -10 2 100.59 2.2
1 -10 2 108.89 2.2
1 -10 2 103.39 3.7
2 -10 2 374.96 3.6
2 -10 2 343.17 4.8
2 -10 2 361.16 5.6
2 -10 2 438.86 3.6
3 -10 2 125.69 3
3 -10 2 120.29 2.8
3 -10 2 109.09 2.5
3 -10 2 68.59 2.5
4 9 -2 242.38 2.8
-4 -9 2 246.28 3.1
3 9 -2 78.19 1.7
-3 -9 2 81.69 2
2 9 -2 630.24 4
-2 -9 2 569.14 3.9
-1 -9 2 53.89 1.8
1 9 -2 47.9 1.6
0 -9 2 664.93 4
0 9 -2 708.03 4.1
1 -9 2 74.29 2.5
1 -9 2 73.79 1.9
1 -9 2 76.79 1.9
1 -9 2 70.49 2.9
2 -9 2 532.55 4.7
2 -9 2 553.94 3.7
2 -9 2 515.35 5.3
2 -9 2 495.05 3.8
3 -9 2 2.4 1.1
3 -9 2 1.4 1.4
3 -9 2 0.8 1
3 -9 2 2.7 1.1
4 -9 2 328.17 4.1
4 -9 2 255.27 3.2
4 -9 2 315.67 3.6
4 -9 2 358.26 3.9
5 -9 2 28.7 1.4
5 -9 2 26.5 1.5
5 -9 2 17.3 2.2
5 -9 2 30.2 2.4
-5 -8 2 37.8 4.5
-5 -8 2 235.48 3
5 8 -2 226.98 2.7
5 8 -2 238.18 4.9
4 8 -2 229.48 5.6
-4 -8 2 197.58 2.5
4 8 -2 193.78 2.7
-4 -8 2 210.48 5.6
3 8 -2 453.95 3.5
-3 -8 2 453.95 3.4
2 8 -2 475.65 3.4
-2 -8 2 480.15 3.4
1 8 -2 349.37 2.9
-1 -8 2 356.96 3.1
0 8 -2 206.58 2.3
0 -8 2 201.78 2.3
1 -8 2 262.97 3.7
-1 8 -2 239.98 2.5
1 -8 2 250.17 2.7
1 -8 2 256.07 4.2
2 -8 2 411.56 4.4
2 -8 2 428.46 3.8
2 -8 2 406.46 3.5
2 -8 2 459.45 3.5
3 -8 2 59.59 2
3 -8 2 56.59 1.7
3 -8 2 64.09 1.8
3 -8 2 64.39 2
4 -8 2 671.63 4.9
4 -8 2 579.94 4
4 -8 2 608.84 5.1
4 -8 2 650.43 4.3
5 -8 2 6.8 1.7
5 -8 2 8.6 1.3
5 -8 2 4.5 1.5
5 -8 2 6.1 2
6 -8 2 430.26 3.8
6 -8 2 446.46 3.8
6 7 -2 13.1 1.3
6 7 -2 14.2 2
-6 -7 2 1.3 1.7
-6 -7 2 4.6 1.7
5 7 -2 455.25 3.5
5 7 -2 518.75 5.3
-5 -7 2 476.25 3.6
-5 -7 2 485.55 5.1
4 7 -2 28.8 2
4 7 -2 32.2 1.4
-4 -7 2 30.9 1.7
-4 -7 2 29.5 2
-3 -7 2 879.31 4.4
-3 -7 2 892.61 9.2
3 7 -2 953.7 9.1
3 7 -2 891.31 4.4
2 7 -2 7.2 1.1
-2 -7 2 7.5 1.1
-1 -7 2 528.45 3.5
1 7 -2 554.74 3.5
0 -7 2 129.99 1.9
0 -7 2 137.79 4.7
0 7 -2 141.29 2
0 -7 2 148.99 5.5
1 -7 2 732.43 5.5
1 -7 2 653.53 4.1
1 -7 2 673.53 6.2
-1 7 -2 640.54 4
2 -7 2 1161.08 5.4
2 -7 2 1035.3 5.4
2 -7 2 1005 6.2
2 -7 2 1001.4 5.3
3 -7 2 443.16 3.5
3 -7 2 528.75 4
3 -7 2 491.35 4
3 -7 2 451.75 4
4 -7 2 574.24 5.1
4 -7 2 658.33 5.2
4 -7 2 614.04 4.1
4 -7 2 585.24 3.9
5 -7 2 336.37 5
5 -7 2 341.17 5
5 -7 2 333.07 3
-6 7 -2 446.46 3.4
6 -7 2 378.46 3.2
7 -7 2 118.79 2
-7 7 -2 143.39 2.3
6 6 -2 337.27 4
-6 -6 2 347.67 3.8
-6 -6 2 289.77 3.3
6 6 -2 277.57 3
5 6 -2 399.96 3.2
5 6 -2 416.46 4.2
-5 -6 2 395.86 4
-5 -6 2 410.66 3.1
4 6 -2 243.58 3.4
4 6 -2 246.08 2.4
-4 -6 2 244.38 2.7
-4 -6 2 237.18 3.4
3 6 -2 752.42 4
-3 -6 2 768.12 4.1
-3 -6 2 752.62 6.6
3 6 -2 786.22 6.4
2 6 -2 99.39 4.2
2 6 -2 93.89 1.9
-2 -6 2 103.39 2
-2 -6 2 90.89 4.2
-1 -6 2 1412.16 5.4
1 6 -2 1469.35 5.5
0 -6 2 8.6 1.1
0 -6 2 9.2 2.5
0 6 -2 14.6 1.5
0 -6 2 9.8 2.8
1 -6 2 2549.15 8
1 -6 2 2625.54 11.8
-1 6 -2 2560.54 7.8
1 -6 2 2691.73 10.3
2 -6 2 140.69 2.6
2 -6 2 148.09 2.5
2 -6 2 132.59 2.2
3 -6 2 1597.24 6.6
3 -6 2 1557.94 7.6
3 -6 2 1822.42 7.4
-4 6 -2 131.49 2
4 -6 2 140.79 2.7
4 -6 2 122.89 2.1
4 -6 2 124.19 2.9
5 -6 2 912.31 9.2
5 -6 2 1005.7 9.6
-5 6 -2 1024.9 4.8
5 -6 2 954.2 4.6
6 -6 2 218.88 2.5
-6 6 -2 223.68 2.6
-7 6 -2 317.07 2.7
7 -6 2 303.17 2.7
8 -6 2 121.79 2.5
-8 6 -2 176.48 2.5
7 5 -2 1.1 1.5
-7 -5 2 12 1.2
7 5 -2 8.8 1.5
-7 -5 2 9.5 1.4
-6 -5 2 91.59 3.2
6 5 -2 268.07 3.1
6 5 -2 265.57 2.8
-6 -5 2 315.67 3.2
5 5 -2 148.59 2.2
-5 -5 2 157.78 2.5
-5 -5 2 178.58 2.5
5 5 -2 152.78 2.6
4 5 -2 424.36 3.1
-4 -5 2 445.56 3.2
4 5 -2 436.86 4.2
-4 -5 2 426.26 4
3 5 -2 560.64 4.9
3 5 -2 528.55 3.4
-3 -5 2 556.64 3.4
-3 -5 2 528.45 4.8
2 5 -2 637.34 6.6
2 5 -2 651.23 3.8
-2 -5 2 656.23 3.9
-2 -5 2 642.54 7.2
1 5 -2 1765.22 6.1
-1 -5 2 1766.42 6.2
0 5 -2 722.03 4.3
0 -5 2 769.92 17
0 -5 2 721.43 4.4
0 -5 2 659.93 14.1
1 -5 2 1947.71 7.5
-1 5 -2 1991.1 7.4
1 -5 2 1886.71 9.1
1 -5 2 1974.9 11
2 -5 2 438.06 4.1
2 -5 2 426.66 4
-2 5 -2 415.46 3.7
3 -5 2 1546.15 6.6
3 -5 2 1427.56 8
3 -5 2 1663.53 7.8
-3 5 -2 1659.33 6.4
-4 5 -2 40.3 1.6
4 -5 2 37.1 1.3
4 -5 2 34.8 2.2
4 -5 2 39 2
5 -5 2 707.73 14.7
5 -5 2 690.83 14.8
5 -5 2 685.13 3.8
-5 5 -2 736.53 3.9
6 -5 2 4.2 1
-6 5 -2 0.9 1
-7 5 -2 369.86 2.9
7 -5 2 335.17 2.8
-8 5 -2 30.2 1.5
8 -5 2 23.6 1.2
7 4 -2 21.3 1.7
7 4 -2 17.1 1.4
-7 -4 2 19.5 1.4
-7 -4 2 19.9 1.5
6 4 -2 702.73 4
-6 -4 2 794.62 4.3
6 4 -2 681.03 4.6
-6 -4 2 741.73 4.4
5 4 -2 37.9 1.2
5 4 -2 41.9 1.8
-5 -4 2 43 1.3
-5 -4 2 42.1 1.6
4 4 -2 2313.47 8.8
-4 -4 2 2670.33 7.3
-4 -4 2 2462.85 8.5
4 4 -2 2477.35 6.9
3 4 -2 40.7 1.9
3 4 -2 42.7 1.5
-3 -4 2 41.5 1.5
-3 -4 2 41.2 1.7
-2 -4 2 2520.35 12
2 4 -2 2505.65 11.8
2 4 -2 2494.45 7.3
-2 -4 2 2568.04 7.5
1 4 -2 329.97 3.1
-1 -4 2 295.37 3.1
0 -4 2 2538.35 8.6
0 4 -2 2692.83 8.5
1 -4 2 328.57 4.3
-1 4 -2 351.56 3.7
1 -4 2 358.96 5.3
1 -4 2 346.27 3.7
2 -4 2 1370.86 7.3
-2 4 -2 1327.47 7.3
2 -4 2 1380.66 7.9
-2 4 -2 1445.86 6.9
3 -4 2 844.12 6.5
3 -4 2 786.92 4.7
3 -4 2 767.52 7.2
-3 4 -2 852.01 4.8
4 -4 2 656.53 10
4 -4 2 715.13 10.5
4 -4 2 708.43 4.2
-4 4 -2 744.73 4.1
5 -4 2 1082.99 4.6
-5 4 -2 1178.18 4.8
6 -4 2 104.89 2
-6 4 -2 117.09 1.8
7 -4 2 945.01 4.4
-7 4 -2 70.99 4.9
8 -4 2 49.99 1.7
-8 4 -2 54.09 1.4
9 -4 2 395.16 3.2
-9 4 -2 -45.3 3
8 3 -2 51.29 2.7
8 3 -2 180.28 2.9
-8 -3 2 224.88 2.8
-8 -3 2 221.88 2.9
-7 -3 2 290.87 2.8
7 3 -2 273.37 2.8
7 3 -2 261.47 2.7
-7 -3 2 283.07 2.7
6 3 -2 835.02 4.1
-6 -3 2 860.91 4.6
6 3 -2 927.01 5
-6 -3 2 983.7 4.6
5 3 -2 781.62 4.8
5 3 -2 798.72 4
-5 -3 2 886.71 4.3
-5 -3 2 764.82 4.4
4 3 -2 1856.31 5.9
4 3 -2 2020.9 8.1
-4 -3 2 2082.59 6.4
-4 -3 2 1995.9 7.2
3 3 -2 363.46 3.1
3 3 -2 377.56 4
-3 -3 2 359.26 3.1
-3 -3 2 341.67 3.5
2 3 -2 3552.44 9.3
2 3 -2 3559.34 13.8
-2 -3 2 3523.65 9.2
-2 -3 2 3434.16 12.5
-1 -3 2 308.57 6
-1 -3 2 307.57 3.2
1 3 -2 304.47 3.3
1 3 -2 294.97 6.1
0 3 -2 3599.94 10.8
0 -3 2 3632.54 10.9
-1 3 -2 10.9 1.6
1 -3 2 12.4 2
1 -3 2 8.7 1.7
-1 3 -2 8.5 1.7
2 -3 2 2089.39 11.6
-2 3 -2 2150.68 9.1
2 -3 2 2096.39 9.3
-2 3 -2 2076.39 10.9
3 -3 2 177.58 5.1
3 -3 2 172.78 5.6
3 -3 2 166.28 2.6
-3 3 -2 180.18 2.7
4 -3 2 1944.31 6.8
-4 3 -2 2000.7 6.7
5 -3 2 1403.66 5.2
-5 3 -2 1501.95 5.4
6 -3 2 708.83 9.8
6 -3 2 826.72 3.9
-6 3 -2 858.61 10.2
-6 3 -2 844.42 4.1
-7 3 -2 556.04 3.3
7 -3 2 447.76 6.4
7 -3 2 455.25 3.1
-7 3 -2 531.15 6.8
8 -3 2 463.15 6.1
-8 3 -2 522.35 6.5
-8 3 -2 529.75 3.6
8 -3 2 432.46 3.3
-9 3 -2 219.28 5.3
-9 3 -2 -47.5 2.2
9 -3 2 245.68 5.1
9 -3 2 185.48 2.7
-8 -2 2 77.19 1.8
8 2 -2 67.49 1.8
8 2 -2 71.69 2
-8 -2 2 83.29 1.7
-7 -2 2 760.52 4.4
7 2 -2 673.03 4
7 2 -2 17.9 4.4
-7 -2 2 737.43 4
-6 -2 2 98.89 2
-6 -2 2 84.89 1.6
6 2 -2 79.89 1.6
6 2 -2 86.99 2
-5 -2 2 1055.39 4.6
-5 -2 2 991.2 4.7
5 2 -2 900.11 4.2
5 2 -2 981.4 5
4 2 -2 262.67 2.6
4 2 -2 290.57 3.1
-4 -2 2 270.97 2.8
-4 -2 2 275.67 2.5
-3 -2 2 1260.67 5.9
3 2 -2 1231.18 5.3
3 2 -2 1327.27 6.7
-3 -2 2 1324.97 5.6
2 2 -2 1493.45 6.3
-2 -2 2 1528.55 6.5
2 2 -2 1547.55 8.6
-2 -2 2 1449.85 7.3
1 2 -2 600.84 4.5
1 2 -2 643.34 7.5
-1 -2 2 650.53 4.9
-1 -2 2 632.04 6.4
0 2 -2 2004.7 23.7
0 2 -2 1960.1 9.1
0 -2 2 1967.3 9.2
0 2 -2 1785.32 25.5
1 -2 2 443.26 6.1
-1 2 -2 486.45 5.6
-1 2 -2 480.05 6.9
1 -2 2 462.25 5.6
2 -2 2 2794.52 18.7
-2 2 -2 3018 19.4
-2 2 -2 2772.32 11
2 -2 2 2907.21 11.5
-3 2 -2 219.88 2.8
3 -2 2 229.68 2.8
-4 2 -2 2581.44 7.7
4 -2 2 2400.36 7.5
5 -2 2 75.69 3.1
-5 2 -2 79.49 1.5
-5 2 -2 71.59 2.9
5 -2 2 79.69 1.7
-6 2 -2 1132.89 8.3
6 -2 2 1097.69 4.5
-6 2 -2 1251.67 4.7
6 -2 2 1169.48 8.3
-7 2 -2 93.59 1.7
7 -2 2 76.99 1.6
7 -2 2 82.99 2.3
-7 2 -2 83.59 2.4
8 -2 2 498.95 5.6
8 -2 2 547.45 3.6
-8 2 -2 663.73 5.9
-8 2 -2 672.53 3.6
-9 2 -2 87.79 2.9
9 -2 2 87.09 2.6
9 -2 2 84.59 1.9
-9 2 -2 97.59 1.8
-8 -1 2 37.5 1.7
8 1 -2 35.8 1.6
-8 -1 2 38 1.6
8 1 -2 35.1 1.4
-7 -1 2 618.94 4.1
7 1 -2 535.05 3.5
7 1 -2 517.45 3.4
-7 -1 2 611.34 3.7
6 1 -2 36.2 1.6
6 1 -2 33.1 1.3
-6 -1 2 38.9 1.7
-6 -1 2 38.3 1.5
-5 -1 2 1186.48 5.1
5 1 -2 1050.49 4.5
5 1 -2 1126.69 4.9
-5 -1 2 1115.69 4.7
-4 -1 2 32.2 1.4
4 1 -2 27.8 1.3
-4 -1 2 28 1.2
4 1 -2 30.6 1.3
-3 -1 2 1649.23 6.3
3 1 -2 1550.14 6.1
3 1 -2 1618.54 6.6
-3 -1 2 1665.13 6.4
-2 -1 2 191.58 2.7
2 1 -2 187.48 2.9
-2 -1 2 208.18 2.8
2 1 -2 203.58 2.8
-1 -1 2 2735.03 10.4
1 1 -2 2792.32 11.6
1 1 -2 2604.84 10.1
0 1 -2 1488.65 9.1
0 -1 2 1598.94 9.1
0 1 -2 1503.55 10.5
0 -1 2 1476.15 10.2
1 -1 2 5135.59 20
-1 1 -2 5015.8 20.6
-1 1 -2 4967.2 18.5
1 -1 2 4951.6 17.6
-2 1 -2 2943.01 11.5
-2 1 -2 2407.56 21.6
2 -1 2 2717.03 11
3 -1 2 2605.84 9.1
-3 1 -2 2562.04 9
-3 1 -2 2373.86 20.2
-4 1 -2 1725.83 6.5
4 -1 2 1703.23 6.4
4 -1 2 1559.54 10.6
-4 1 -2 1714.73 11.7
-5 1 -2 1074.49 8.1
5 -1 2 1029.6 4.7
5 -1 2 985.4 7.1
-5 1 -2 1066.59 4.8
6 -1 2 762.02 5.6
-6 1 -2 846.62 6.3
6 -1 2 768.82 3.8
-6 1 -2 828.62 3.9
7 -1 2 131.09 2.6
-7 1 -2 142.59 2.1
7 -1 2 155.98 2.2
-7 1 -2 144.09 3
8 -1 2 422.36 4.5
-8 1 -2 519.05 4.9
8 -1 2 441.36 3
-8 1 -2 497.45 3.1
9 -1 2 5.8 1
-9 1 -2 7.2 1.1
9 -1 2 8.8 1.6
-9 1 -2 7.5 1.6
8 0 -2 215.48 2.7
-8 0 2 -59.29 2.8
8 0 -2 265.37 3
-8 0 2 290.87 3.4
-7 0 2 203.28 2.4
-7 0 2 180.28 2.5
7 0 -2 161.48 2.3
7 0 -2 170.38 2.3
-6 0 2 277.87 2.8
6 0 -2 266.77 2.6
6 0 -2 274.57 2.7
-6 0 2 293.37 2.4
5 0 -2 874.61 4.5
-5 0 2 930.01 4.7
5 0 -2 946.01 4.2
-5 0 2 934.01 4
-4 0 2 141.39 2
4 0 -2 134.19 2
4 0 -2 152.88 2.1
-4 0 2 136.09 2.1
-3 0 2 2393.56 7.2
3 0 -2 2314.17 7.2
3 0 -2 2199.68 7.6
-3 0 2 2243.08 7.8
-2 0 2 324.17 3.5
2 0 -2 314.97 3.2
2 0 -2 326.67 3.6
-2 0 2 338.87 3.2
1 0 -2 7573.94 17
1 0 -2 9999 18.5
1 0 -2 9111.89 19.2
-1 0 2 9628.94 19.9
0 0 2 59.09 2.1
0 0 -2 60.79 2.6
0 0 -2 66.29 2
0 0 2 59.69 2.1
1 0 2 5445.76 15.6
-1 0 -2 5451.65 15.7
1 0 2 5202.78 17.3
-1 0 -2 5000.3 17.5
-2 0 -2 21.3 1.9
-2 0 -2 15.9 1.7
-2 0 -2 21.7 1.9
2 0 2 17.4 1.5
3 0 2 2809.82 12.8
-3 0 -2 3461.45 14.7
-3 0 -2 3470.25 10.4
3 0 2 3259.47 10
4 0 2 649.34 4.2
4 0 2 585.14 5.2
-4 0 -2 665.23 4.4
-4 0 -2 663.43 5.7
5 0 2 1045.1 4.9
-5 0 -2 1099.89 6.8
5 0 2 994.2 6
-5 0 -2 1053.69 4.9
6 0 2 567.74 4.4
-6 0 -2 578.04 3.3
6 0 2 573.44 3.5
-6 0 -2 678.53 5
7 0 2 328.47 3.3
7 0 2 344.17 2.7
-7 0 -2 349.87 2.7
-7 0 -2 410.76 3.9
8 0 2 298.17 3.4
-8 0 -2 333.77 2.8
-8 0 -2 394.86 3.9
8 0 2 306.67 2.8
9 0 2 278.47 3.1
-9 0 -2 324.57 3.6
9 0 2 224.08 2.8
-9 0 -2 271.47 2.8
-8 1 2 424.66 3.2
8 -1 -2 358.66 2.9
8 -1 -2 390.06 3.5
-8 1 2 451.95 3.8
-7 1 2 17.7 2.1
-7 1 2 100.39 1.9
7 -1 -2 99.49 1.7
7 -1 -2 102.69 1.8
-6 1 2 785.02 3.8
6 -1 -2 789.32 3.8
6 -1 -2 686.93 4.1
-6 1 2 724.33 4.3
5 -1 -2 724.03 4.3
5 -1 -2 649.74 3.4
-5 1 2 681.23 4.3
-5 1 2 684.13 3.5
-4 1 2 1007.8 4.2
-4 1 2 940.61 5
4 -1 -2 953 4.2
4 -1 -2 991.9 5
3 -1 -2 2349.67 7.9
-3 1 2 2448.16 8.3
3 -1 -2 2478.15 7.1
-3 1 2 2649.93 7.2
2 -1 -2 1281.77 5.6
2 -1 -2 1204.58 6.2
-2 1 2 1266.47 6.4
-2 1 2 1324.07 5.6
1 -1 -2 3148.98 9.5
1 -1 -2 2702.23 9.7
1 -1 -2 3143.79 9.5
-1 1 2 2843.32 10.2
0 1 2 28.3 1.8
0 1 2 23.3 1.6
0 -1 -2 24.3 1.6
0 -1 -2 28.2 1.8
1 1 2 278.17 3.4
-1 -1 -2 278.77 3.4
1 1 2 305.17 3.8
-1 -1 -2 292.47 3.6
-2 -1 -2 220.78 3.1
-2 -1 -2 237.28 3.5
2 1 2 215.18 3.1
-2 -1 -2 187.48 3.1
3 1 2 4235.68 10.9
-3 -1 -2 4125.29 10.8
3 1 2 3573.04 11.8
-3 -1 -2 3952.2 12.5
4 1 2 15.2 1.6
-4 -1 -2 18 1.7
4 1 2 15.3 1.7
-4 -1 -2 14.9 1.7
5 1 2 1527.65 6.7
-5 -1 -2 1619.54 6
5 1 2 1622.94 6.1
-5 -1 -2 1814.82 7.5
6 1 2 26.7 1.6
-6 -1 -2 38.9 1.8
-6 -1 -2 31.5 1.4
6 1 2 26.9 1.4
7 1 2 941.81 5
-7 -1 -2 1037.7 5.5
7 1 2 953.4 4.5
-7 -1 -2 925.01 4.2
8 1 2 17.7 1.6
-8 -1 -2 15.1 1.5
8 1 2 18 1.2
-8 -1 -2 20.4 1.5
9 1 2 429.56 3.7
-9 -1 -2 447.26 3.2
-9 -1 -2 497.25 4
9 1 2 399.66 3.2
-8 2 2 460.95 3.4
8 -2 -2 377.96 3.6
-8 2 2 389.56 3.8
8 -2 -2 387.56 3.1
7 -2 -2 1.7 1.3
7 -2 -2 0.1 1
-7 2 2 1.9 1.3
-7 2 2 1.8 1
-6 2 2 1038.7 4.4
-6 2 2 976.7 5.1
6 -2 -2 1020.4 5.2
6 -2 -2 922.71 4.2
-5 2 2 9 0.9
-5 2 2 5.5 1.4
5 -2 -2 6.9 1.1
5 -2 -2 11.8 1.4
4 -2 -2 1854.71 6.8
-4 2 2 1932.61 5.6
-4 2 2 1777.32 6.7
4 -2 -2 1818.92 5.6
-3 2 2 35.8 1.1
3 -2 -2 31.4 1.7
3 -2 -2 37.5 1.4
-3 2 2 35.2 1.7
-2 2 2 1772.92 7.2
2 -2 -2 1803.62 6.1
2 -2 -2 1644.74 6.7
2 -2 -2 1835.82 6.1
1 -2 -2 197.78 2.7
1 -2 -2 177.18 2.2
-1 2 2 186.78 2.7
1 -2 -2 194.38 2.3
0 2 2 93.39 2
0 -2 -2 81.29 1.7
0 2 2 86.29 1.8
0 -2 -2 92.09 1.9
1 2 2 1103.49 5.7
-1 -2 -2 1107.79 5.8
1 2 2 1180.28 6.3
-1 -2 -2 1181.18 6.3
-2 -2 -2 482.95 4.1
-2 -2 -2 526.75 4.1
2 2 2 526.15 4
3 2 2 1970.9 7.1
-3 -2 -2 2072.99 7.9
3 2 2 1976.7 7.5
-3 -2 -2 2123.49 7.5
4 2 2 333.87 2.9
-4 -2 -2 347.67 3.2
-4 -2 -2 318.17 2.9
4 2 2 314.47 3
5 2 2 980.5 4.8
5 2 2 1061.49 4.8
-5 -2 -2 1040.9 4.7
-5 -2 -2 1090.69 5.2
-6 -2 -2 515.05 3.3
6 2 2 448.76 3.4
6 2 2 504.05 3.3
-6 -2 -2 513.95 3.8
7 2 2 855.41 4.2
-7 -2 -2 879.41 4.2
-7 -2 -2 903.21 4.9
7 2 2 796.52 4.4
8 2 2 125.89 2.1
-8 -2 -2 68.29 2.6
8 2 2 131.39 2.2
-8 -2 -2 133.79 1.9
9 2 2 433.46 3.5
-9 -2 -2 436.96 3.3
-9 -2 -2 492.95 4
9 2 2 380.06 3.1
-8 3 2 231.58 2.6
8 -3 -2 221.08 3.1
8 -3 -2 208.58 2.8
-8 3 2 231.78 3.2
-7 3 2 362.96 2.8
7 -3 -2 -4.1 2.9
7 -3 -2 289.67 3.4
-7 3 2 357.76 3.4
-6 3 2 498.45 3.1
6 -3 -2 499.45 3.1
6 -3 -2 510.05 4
-6 3 2 494.95 3.8
-5 3 2 348.37 2.6
-5 3 2 331.57 3.1
5 -3 -2 317.67 2.5
5 -3 -2 342.77 3.2
-4 3 2 1061.29 5.2
4 -3 -2 1112.79 5.3
-4 3 2 1107.79 4.3
4 -3 -2 1020.3 4
3 -3 -2 288.47 2.8
-3 3 2 313.37 3.1
3 -3 -2 283.47 2.3
2 -3 -2 2192.18 6.3
-2 3 2 2249.68 7.6
2 -3 -2 2208.78 6.4
2 -3 -2 2258.47 7.4
1 -3 -2 68.39 1.7
1 -3 -2 58.29 1.6
-1 3 2 63.69 1.8
0 -3 -2 3252.97 8.8
0 -3 -2 3133.69 8.3
0 3 2 3119.19 8.8
0 3 2 2954.6 8.1
1 3 2 63.39 1.5
-1 -3 -2 68.79 1.7
-1 -3 -2 60.79 1.8
-1 -3 -2 68.49 1.7
-2 -3 -2 4082.09 9.9
2 3 2 4280.47 10
-2 -3 -2 4389.06 10.3
3 3 2 306.57 3
-3 -3 -2 284.87 2.8
3 3 2 285.07 3
-3 -3 -2 306.97 2.9
4 3 2 2244.18 7.1
-4 -3 -2 2291.67 7.1
-4 -3 -2 2385.96 7.4
4 3 2 2275.97 7.2
-5 -3 -2 333.87 2.8
-5 -3 -2 353.46 3
5 3 2 321.67 2.9
5 3 2 352.46 2.9
-6 -3 -2 1183.28 5.1
6 3 2 1156.88 4.7
6 3 2 993.7 4.5
-6 -3 -2 1104.39 4.7
7 3 2 380.06 2.9
7 3 2 420.56 3.1
-7 -3 -2 447.26 3.3
-7 -3 -2 419.46 3.2
8 3 2 203.58 2.5
8 3 2 224.38 2.5
-8 -3 -2 201.78 2.3
-8 -3 -2 231.98 2.6
9 3 2 336.87 3.2
9 3 2 352.86 3.3
-9 -3 -2 354.66 3.2
-9 -3 -2 416.86 3.9
-8 4 2 26.6 1.6
-8 4 2 27.5 1.7
8 -4 -2 27.8 1.8
8 -4 -2 31.8 1.5
-7 4 2 449.06 3.3
7 -4 -2 410.56 3
-7 4 2 447.36 3.9
7 -4 -2 433.76 3.8
6 -4 -2 226.18 2.9
6 -4 -2 227.38 2.2
-6 4 2 254.97 2.4
-6 4 2 236.08 2.7
5 -4 -2 372.16 3.4
5 -4 -2 339.67 2.7
-5 4 2 369.86 3.3
4 -4 -2 516.35 3.7
-4 4 2 503.85 3.6
4 -4 -2 504.35 2.9
3 -4 -2 466.55 3.3
3 -4 -2 436.96 2.7
3 -4 -2 455.75 2.8
-3 4 2 479.05 3.5
2 -4 -2 1440.16 5.1
-2 4 2 1452.45 5.9
2 -4 -2 1434.76 5
2 -4 -2 1420.06 5.6
1 -4 -2 494.15 3.1
-1 4 2 519.65 3.7
1 -4 -2 495.35 3.2
1 -4 -2 533.65 3.4
0 -4 -2 3317.97 8.3
0 -4 -2 3225.48 7.9
0 4 2 3044.9 7.8
-1 -4 -2 234.18 2.7
1 4 2 251.57 2.4
-1 -4 -2 257.17 2.6
-1 -4 -2 260.37 2.5
-2 -4 -2 2940.51 8
-2 -4 -2 3049.5 8.1
2 4 2 3024.6 8
3 4 2 40.8 1.5
3 4 2 42 1.3
-3 -4 -2 38.4 1.3
-3 -4 -2 38.8 1.6
4 4 2 1577.34 5.8
4 4 2 1489.55 5.6
-4 -4 -2 1492.15 5.5
-4 -4 -2 1592.04 6
5 4 2 2.9 1
5 4 2 2.6 1.3
-5 -4 -2 12 1.1
-5 -4 -2 13.8 1.5
-6 -4 -2 427.76 3.2
6 4 2 445.56 3.2
6 4 2 397.26 3.2
-6 -4 -2 439.06 3.2
-7 -4 -2 82.49 1.9
7 4 2 86.69 1.8
-7 -4 -2 84.69 1.9
7 4 2 68.69 1.8
8 4 2 238.38 2.6
-8 -4 -2 251.57 2.8
8 4 2 287.07 2.8
-8 -4 -2 272.37 2.7
9 4 2 65.59 1.9
-9 -4 -2 65.79 1.8
9 4 2 60.59 1.6
-9 -4 -2 74.39 1.8
7 -5 -2 347.37 3
7 -5 -2 -12.7 4
-7 5 2 362.56 4.2
6 -5 -2 49.99 1.4
6 -5 -2 51.79 1.8
6 -5 -2 46.8 1.4
-6 5 2 53.19 1.7
5 -5 -2 826.32 3.9
-5 5 2 966.6 5.1
5 -5 -2 811.82 3.8
5 -5 -2 888.81 5.1
-4 5 2 62.39 1.7
4 -5 -2 60.39 1.5
4 -5 -2 63.59 1.3
4 -5 -2 57.69 1.7
3 -5 -2 1774.12 5.2
3 -5 -2 1750.82 6.1
-3 5 2 1899.71 6.6
3 -5 -2 1785.92 5.2
2 -5 -2 433.26 2.7
2 -5 -2 419.66 2.9
2 -5 -2 414.16 2.8
-2 5 2 448.36 3.4
1 -5 -2 2305.67 6.7
1 -5 -2 2326.27 6.4
1 -5 -2 2063.19 5.9
0 -5 -2 650.43 3.5
0 -5 -2 611.64 3.7
0 -5 -2 697.23 3.7
0 5 2 710.33 3.7
-1 -5 -2 870.21 4.3
1 5 2 864.31 4.2
-1 -5 -2 920.91 4.3
-1 -5 -2 959.6 4.4
-2 -5 -2 266.47 2.4
-2 -5 -2 296.47 2.7
2 5 2 285.27 2.6
3 5 2 742.03 3.8
-3 -5 -2 745.33 3.8
3 5 2 795.32 4
-3 -5 -2 773.92 4.1
4 5 2 623.04 3.5
-4 -5 -2 661.13 4
4 5 2 671.33 3.8
-4 -5 -2 659.53 3.5
5 5 2 14.9 1
5 5 2 11.3 1.3
-5 -5 -2 14.3 1.3
-5 -5 -2 14.4 1.4
-6 -5 -2 490.55 3.4
6 5 2 556.04 3.7
-6 -5 -2 531.85 3.3
6 5 2 507.15 3.2
-7 -5 -2 24.3 1.3
7 5 2 21 1.4
7 5 2 22.7 1.6
-7 -5 -2 20.6 1.3
-8 -5 -2 442.56 3.7
8 5 2 484.05 3.9
8 5 2 428.96 3.3
-8 -5 -2 475.15 3.6
7 -6 -2 324.27 3.1
-7 6 2 388.66 4.4
7 -6 -2 310.07 3
7 -6 -2 354.46 4.4
6 -6 -2 78.29 2
6 -6 -2 77.99 1.6
-6 6 2 95.19 2.1
6 -6 -2 78.79 1.7
-5 6 2 610.94 4.3
5 -6 -2 569.54 3.4
5 -6 -2 556.24 4.1
5 -6 -2 586.24 3.5
-4 6 2 221.48 2.6
4 -6 -2 186.18 2.3
4 -6 -2 193.08 2.2
4 -6 -2 185.08 2.2
3 -6 -2 1844.12 6.3
3 -6 -2 1753.12 5.3
3 -6 -2 1852.81 5.5
-3 6 2 2008.3 6.9
2 -6 -2 5.4 0.9
2 -6 -2 1.1 1.2
2 -6 -2 4.7 1.2
1 -6 -2 1507.05 5.1
1 -6 -2 1458.05 5
1 -6 -2 1583.64 5.4
1 -6 -2 1421.46 5.4
0 6 2 1.9 0.8
0 -6 -2 1.4 0.9
0 -6 -2 2.8 1.3
0 -6 -2 3 0.8
-1 -6 -2 1488.05 5.4
-1 -6 -2 1384.36 5.1
-1 -6 -2 1475.45 5.1
1 6 2 1400.06 5.2
-2 -6 -2 17 0.9
2 6 2 18.9 1.2
-2 -6 -2 18.9 1
-2 -6 -2 22.5 1.3
3 6 2 1353.66 4.9
-3 -6 -2 1374.36 5
-3 -6 -2 1434.06 5.6
3 6 2 1366.06 5.2
-4 -6 -2 653.23 4.1
4 6 2 630.34 3.8
-4 -6 -2 641.84 3.6
4 6 2 642.34 3.6
5 6 2 410.86 3
5 6 2 404.16 3.1
-5 -6 -2 412.26 3
-5 -6 -2 410.96 3.2
6 6 2 351.66 2.9
-6 -6 -2 387.36 3.1
-6 -6 -2 388.76 3.1
6 6 2 404.46 3.2
7 6 2 479.75 3.7
7 6 2 443.36 3.3
-7 -6 -2 456.15 3.3
-7 -6 -2 496.85 3.7
-8 -6 -2 244.98 2.9
8 6 2 202.78 2.6
8 6 2 244.28 3
-8 -6 -2 207.08 2.7
-6 7 2 292.57 3.7
6 -7 -2 267.87 3.7
6 -7 -2 250.97 2.5
6 -7 -2 247.28 2.5
5 -7 -2 87.09 2
5 -7 -2 79.59 1.6
-5 7 2 96.99 2.1
5 -7 -2 82.59 1.7
4 -7 -2 473.35 3
4 -7 -2 471.95 3
4 -7 -2 488.85 3.7
3 -7 -2 419.06 2.9
3 -7 -2 366.66 3.2
3 -7 -2 419.16 2.8
3 -7 -2 446.86 3.3
2 -7 -2 165.48 2
2 -7 -2 189.38 2.2
2 -7 -2 173.58 2
2 -7 -2 175.28 1.9
1 -7 -2 492.95 3.1
1 -7 -2 457.55 3.3
1 -7 -2 436.46 2.8
1 -7 -2 488.15 3
0 -7 -2 70.39 1.5
0 -7 -2 67.69 1.7
0 -7 -2 71.49 1.4
1 7 2 1064.89 4.6
-1 -7 -2 1069.29 4.4
-1 -7 -2 1152.98 4.4
-1 -7 -2 1091.29 4.6
-2 -7 -2 3.3 0.9
-2 -7 -2 4.6 1.2
-2 -7 -2 8.5 1.3
2 7 2 11 1.1
3 7 2 995 4.7
-3 -7 -2 999.1 4.3
-3 -7 -2 1030.3 4.9
4 7 2 4.1 1.1
-4 -7 -2 7.7 1.3
4 7 2 3.4 0.9
-4 -7 -2 14.3 1.1
5 7 2 927.31 4.3
-5 -7 -2 1020.4 4.6
-5 -7 -2 -58.49 5.6
5 7 2 944.21 4.7
6 7 2 23.8 1.3
6 7 2 23.7 1.6
-6 -7 -2 24.8 1.6
-6 -7 -2 23.8 1.4
7 7 2 496.35 4.2
-7 -7 -2 461.35 3.4
-7 -7 -2 515.65 4.2
7 7 2 439.56 3.3
5 -8 -2 1.5 1.3
5 -8 -2 9.8 1.4
5 -8 -2 9.5 1.3
5 -8 -2 10.6 1.4
4 -8 -2 256.97 2.4
4 -8 -2 274.07 2.7
4 -8 -2 270.67 2.6
4 -8 -2 241.98 2.8
3 -8 -2 46 1.5
3 -8 -2 37.9 1.5
3 -8 -2 40.2 1.4
3 -8 -2 1.3 1.6
2 -8 -2 429.26 2.9
2 -8 -2 457.15 2.9
2 -8 -2 408.56 3.2
2 -8 -2 469.55 3.2
1 -8 -2 -46 3.3
1 -8 -2 339.47 2.8
1 -8 -2 377.56 2.7
1 -8 -2 335.87 2.7
0 -8 -2 575.64 3.6
0 -8 -2 545.35 3.6
0 -8 -2 546.25 3.4
0 -8 -2 563.44 3.4
-1 -8 -2 515.95 3.1
-1 -8 -2 485.45 3.2
-1 -8 -2 505.15 3.3
1 8 2 499.35 3.4
-2 -8 -2 508.65 3.5
-2 -8 -2 519.25 3.2
-2 -8 -2 563.34 3.4
2 8 2 486.45 3.5
-3 -8 -2 459.65 3.5
-3 -8 -2 426.56 3.2
-3 -8 -2 471.25 3.2
3 8 2 441.46 3.4
4 8 2 310.27 3
4 8 2 336.87 2.7
-4 -8 -2 346.37 2.9
-4 -8 -2 334.77 3.3
5 8 2 376.96 3.3
-5 -8 -2 410.56 3.1
5 8 2 370.56 3.1
-5 -8 -2 177.98 3.7
6 8 2 58.99 1.9
6 8 2 50.49 1.7
-6 -8 -2 57.09 1.9
-6 -8 -2 40.8 1.9
4 -9 -2 148.49 2.2
4 -9 -2 138.89 2.5
4 -9 -2 170.68 2.5
4 -9 -2 151.78 2.2
3 -9 -2 9.5 1.3
3 -9 -2 9 1.2
3 -9 -2 9.6 1.2
3 -9 -2 10 1.4
2 -9 -2 704.23 3.9
2 -9 -2 721.63 4
2 -9 -2 797.42 4.2
2 -9 -2 706.93 4.3
1 -9 -2 6 1.1
1 -9 -2 6.7 1.1
1 -9 -2 7.3 1.2
1 -9 -2 1.9 1.4
0 -9 -2 777.02 4.2
0 -9 -2 764.92 4
0 -9 -2 800.72 4.4
0 -9 -2 795.92 4.1
-1 -9 -2 2.3 1
-1 -9 -2 4.4 1.2
-1 -9 -2 4 1.3
2 9 2 719.83 4.4
-2 -9 -2 600.34 4
-2 -9 -2 675.43 4.3
-2 -9 -2 679.93 4
-3 -9 -2 67.99 1.7
-3 -9 -2 77.79 1.9
-3 -9 -2 77.19 1.9
3 9 2 77.39 1.8
-4 -9 -2 242.78 2.7
4 9 2 241.88 3
-4 -9 -2 162.38 3.3
5 9 2 78.29 2.1
-5 -9 -2 88.19 1.8
-5 -9 -2 -1.6 2.4
3 -10 -2 147.39 2.3
3 -10 -2 123.69 2.2
3 -10 -2 140.89 2.2
3 -10 -2 126.49 2.1
2 -10 -2 212.38 2.5
2 -10 -2 214.88 2.9
2 -10 -2 216.88 2.5
2 -10 -2 215.68 2.7
1 -10 -2 122.69 2.2
1 -10 -2 126.39 2.2
1 -10 -2 120.39 2.1
1 -10 -2 138.39 2.2
0 -10 -2 114.49 1.9
0 -10 -2 124.19 2.1
0 -10 -2 123.99 2
0 -10 -2 123.19 2
-1 -10 -2 57.39 1.8
-1 -10 -2 61.99 1.9
-1 -10 -2 53.59 1.5
-1 -10 -2 55.89 1.5
-2 -10 -2 251.17 2.7
2 10 2 245.88 3.2
-2 -10 -2 248.38 3.1
-2 -10 -2 235.08 2.5
-3 -10 -2 0.1 1.4
3 10 2 0.8 1.3
-3 -10 -2 0.6 1.4
-3 -10 -2 -0.5 1.4
-4 -10 -2 244.68 2.8
-4 -10 -2 248.18 2.9
-4 -10 -2 252.87 3.6
4 10 2 232.78 3.3
0 10 -3 76.99 1.8
0 -10 3 80.19 2.1
1 -10 3 373.06 3.6
2 -10 3 59.79 3.6
2 -10 3 54.79 3.8
2 -10 3 55.99 2
2 -10 3 64.19 2
3 -10 3 343.27 4.6
3 -10 3 167.78 3.8
3 -10 3 246.48 5.5
3 -10 3 285.97 4.1
3 9 -3 48.2 1.8
-3 -9 3 58.09 1.8
2 9 -3 516.65 4
-2 -9 3 464.25 3.8
1 9 -3 111.09 2
-1 -9 3 103.29 1.9
0 9 -3 443.46 3.6
0 -9 3 437.16 3.5
-1 9 -3 212.18 2.7
1 -9 3 235.18 2.8
2 -9 3 175.78 4.4
2 -9 3 151.78 2.3
2 -9 3 168.68 3.6
2 -9 3 190.58 2.5
3 -9 3 69.49 3
3 -9 3 168.38 3.4
3 -9 3 165.98 2.8
3 -9 3 177.58 2.7
4 -9 3 54.09 1.8
4 -9 3 57.89 2.3
4 -9 3 57.89 2.1
4 -9 3 67.79 2.1
5 -9 3 214.48 2.8
5 -9 3 222.38 4.7
5 -9 3 236.78 5.4
5 -9 3 231.48 3.2
4 8 -3 390.36 3.4
-4 -8 3 398.96 3.5
3 8 -3 -0.2 1.4
-3 -8 3 29.5 1.4
2 8 -3 565.14 3.8
-2 -8 3 569.04 3.8
1 8 -3 6.5 1.2
-1 -8 3 3.4 1.5
0 -8 3 529.35 3.7
0 8 -3 547.35 3.6
-1 8 -3 9.6 1
1 -8 3 4.3 1.4
2 -8 3 554.34 5
2 -8 3 526.35 3.9
2 -8 3 627.64 6.3
3 -8 3 103.49 2.1
3 -8 3 89.69 2.1
3 -8 3 89.49 2.3
3 -8 3 89.59 2.6
4 -8 3 304.57 3.4
4 -8 3 291.67 3.2
4 -8 3 359.16 4.3
4 -8 3 390.96 4.1
5 -8 3 268.97 2.9
5 -8 3 352.06 5.6
5 -8 3 273.67 3
5 -8 3 337.17 5.1
6 -8 3 171.08 2.4
5 7 -3 248.38 4.6
-5 -7 3 257.57 3
5 7 -3 178.78 2.9
4 7 -3 99.49 3.8
4 7 -3 108.69 4
4 7 -3 104.29 2.2
-4 -7 3 122.09 2.3
3 7 -3 248.18 2.7
-3 -7 3 249.88 3
-2 -7 3 249.78 2.5
2 7 -3 266.67 2.5
1 7 -3 163.98 2.3
-1 -7 3 152.18 2.3
0 7 -3 421.86 3.2
0 -7 3 413.26 3.3
1 -7 3 250.17 2.8
-1 7 -3 261.07 2.8
-2 7 -3 1046.7 5.2
2 -7 3 1038.4 6.2
2 -7 3 1026.6 5.5
2 -7 3 1102.49 7.7
3 -7 3 4.6 1.3
3 -7 3 5.7 1.5
3 -7 3 5.6 1.5
3 -7 3 1 1.3
4 -7 3 1083.69 6.8
4 -7 3 887.51 5.2
4 -7 3 1012.1 7.2
5 -7 3 15 1.4
5 -7 3 11.2 2.1
-5 7 -3 12.1 1.3
5 -7 3 11.8 2.4
6 -7 3 774.42 4.4
-6 7 -3 906.01 4.7
-7 7 -3 4.3 1.6
7 -7 3 4.4 1.1
-6 -6 3 4.3 1.7
6 6 -3 3.1 1.2
6 6 -3 3.6 1.5
-6 -6 3 4 1.3
-5 -6 3 494.95 4.8
5 6 -3 488.15 3.5
5 6 -3 523.55 5.3
-5 -6 3 535.55 3.8
-4 -6 3 35.2 1.8
4 6 -3 32.8 1.6
4 6 -3 33 1.9
-4 -6 3 16.5 1.7
3 6 -3 685.43 8
3 6 -3 720.93 8.1
-3 -6 3 662.33 4.1
3 6 -3 639.04 3.9
2 6 -3 254.57 2.6
-2 -6 3 239.38 2.4
1 6 -3 1023.5 4.7
-1 -6 3 985.7 4.5
0 6 -3 591.74 3.9
0 -6 3 545.65 3.7
1 -6 3 872.51 10
1 -6 3 806.02 4.6
1 -6 3 777.02 10.8
-1 6 -3 867.81 4.7
-2 6 -3 1141.49 5.6
2 -6 3 1175.38 6.5
2 -6 3 1173.58 5.9
2 -6 3 1314.47 8
3 -6 3 622.84 4.7
3 -6 3 554.44 4.4
3 -6 3 551.84 4.7
-3 6 -3 591.54 4.2
-4 6 -3 862.01 4.9
4 -6 3 757.32 4.7
4 -6 3 944.11 6.7
4 -6 3 887.91 7.3
-5 6 -3 -32.8 3.8
5 -6 3 404.16 3.3
-6 6 -3 816.72 4.3
6 -6 3 709.63 4.1
-7 6 -3 14 1.5
7 -6 3 11.8 1.1
-8 6 -3 298.07 2.8
8 -6 3 251.97 2.8
7 5 -3 148.79 2.3
7 5 -3 158.78 2.9
-7 -5 3 159.78 2.6
-7 -5 3 158.08 2.5
-6 -5 3 18.4 1.6
6 5 -3 30.8 1.4
6 5 -3 31.5 1.8
-6 -5 3 34.6 1.7
5 5 -3 384.96 3.1
-5 -5 3 406.46 3.3
5 5 -3 356.26 4.1
-5 -5 3 -15.7 4.1
4 5 -3 4.4 1.5
-4 -5 3 5 1.5
-4 -5 3 4 1.5
4 5 -3 6.3 1
-3 -5 3 1362.36 5.4
3 5 -3 1318.17 8.2
3 5 -3 1258.57 5
-3 -5 3 1360.46 7.9
2 5 -3 31.9 3.8
2 5 -3 24.5 3.7
2 5 -3 30.7 1.2
-2 -5 3 28.1 1.4
1 5 -3 2778.62 7.5
-1 -5 3 2857.11 7.8
0 5 -3 235.48 2.5
0 -5 3 220.58 2.7
1 -5 3 2283.77 14.2
-1 5 -3 2515.75 8.2
1 -5 3 2319.97 8.1
1 -5 3 2120.19 15.7
-2 5 -3 289.87 3.6
2 -5 3 299.87 4.2
2 -5 3 272.17 3.3
-2 5 -3 277.37 3.2
3 -5 3 1158.18 6.2
3 -5 3 1224.28 7.5
-3 5 -3 1291.77 6.2
4 -5 3 184.68 4.4
4 -5 3 161.58 2.4
4 -5 3 183.88 4
-4 5 -3 195.78 2.5
5 -5 3 343.07 2.9
-5 5 -3 391.96 3.1
6 -5 3 260.47 2.5
-6 5 -3 303.87 2.7
7 -5 3 126.59 2
-7 5 -3 156.88 2.1
8 -5 3 -47.7 2.9
-8 5 -3 339.27 2.9
-7 -4 3 85.49 2
-7 -4 3 74.79 1.9
7 4 -3 68.79 1.8
7 4 -3 76.89 2.2
-6 -4 3 196.08 2.4
-6 -4 3 -44.9 2.4
6 4 -3 3.4 2.8
6 4 -3 156.58 2.5
5 4 -3 280.17 2.8
-5 -4 3 -24 3.2
5 4 -3 281.37 3.4
-5 -4 3 310.07 2.7
-4 -4 3 322.37 3.6
4 4 -3 434.16 4.1
4 4 -3 428.16 3.3
-4 -4 3 452.35 3.2
-3 -4 3 1210.28 6.4
-3 -4 3 1269.47 5
3 4 -3 1206.68 7.5
3 4 -3 1244.98 5
2 4 -3 607.24 3.7
-2 -4 3 626.84 3.8
2 4 -3 562.94 6.4
2 4 -3 584.94 5.9
-1 -4 3 1081.29 5.1
1 4 -3 1051.49 4.9
0 4 -3 407.76 3.5
0 -4 3 378.96 3.3
-1 4 -3 1458.25 6.8
1 -4 3 1355.96 6.6
1 -4 3 1285.47 10.8
2 -4 3 173.78 3.2
-2 4 -3 174.78 2.9
2 -4 3 164.98 2.9
-2 4 -3 175.78 3
-3 4 -3 1318.57 8.4
3 -4 3 1396.46 6.8
3 -4 3 1388.56 9.3
-3 4 -3 1451.35 6.7
4 -4 3 12.1 1.5
-4 4 -3 7 1.5
5 -4 3 1249.28 5.4
-5 4 -3 1309.37 5.2
6 -4 3 19.1 1.6
-6 4 -3 10.2 1.1
7 -4 3 941.91 4.4
-7 4 -3 1091.29 4.5
8 -4 3 89.89 1.8
-8 4 -3 101.19 1.7
9 -4 3 336.37 2.9
-9 4 -3 -65.69 2.5
-7 -3 3 15.9 1.3
-7 -3 3 9.9 1.4
7 3 -3 12.9 1.6
7 3 -3 12.1 1.5
-6 -3 3 -43.9 4.1
-6 -3 3 685.33 4.1
6 3 -3 610.24 3.8
6 3 -3 331.97 4.3
-5 -3 3 137.59 2.2
-5 -3 3 164.38 2.2
5 3 -3 142.19 1.9
5 3 -3 154.68 2.5
4 3 -3 1994.6 7.9
-4 -3 3 1746.33 6.6
4 3 -3 1792.02 6
-4 -3 3 1918.61 6.3
-3 -3 3 232.08 2.8
3 3 -3 245.48 3.2
-3 -3 3 239.48 2.4
3 3 -3 224.88 2.4
2 3 -3 1255.97 5.4
2 3 -3 1414.56 8.5
-2 -3 3 1324.87 5.5
1 3 -3 174.18 4
1 3 -3 198.18 2.5
1 3 -3 201.88 5.2
-1 -3 3 192.48 2.7
0 3 -3 1191.28 6
0 -3 3 1167.38 5.9
1 -3 3 1018.6 8.4
-1 3 -3 1124.39 6.5
-1 3 -3 1111.89 10.3
1 -3 3 1066.69 6.3
2 -3 3 860.31 6.3
-2 3 -3 965.4 7.2
-2 3 -3 875.91 6.4
2 -3 3 909.01 6.8
-3 3 -3 4061.69 11.2
-3 3 -3 3118.09 17.3
3 -3 3 3554.54 19.1
3 -3 3 4302.57 11.8
-4 3 -3 103.19 1.9
4 -3 3 98.09 1.9
-5 3 -3 2153.78 6.5
5 -3 3 1946.61 6.2
6 -3 3 117.69 2
-6 3 -3 126.19 1.7
7 -3 3 1333.37 4.9
-7 3 -3 1448.06 5.1
-8 3 -3 0.5 1
8 -3 3 0.1 1.4
9 -3 3 445.26 3.5
-9 3 -3 521.15 3.4
-8 -2 3 231.08 2.8
8 2 -3 205.88 2.5
8 2 -3 99.09 2.7
-8 -2 3 231.18 2.8
-7 -2 3 99.59 1.7
7 2 -3 94.09 2
7 2 -3 94.19 1.9
-7 -2 3 115.89 2
-6 -2 3 -86.39 3.9
6 2 -3 546.15 3.5
-6 -2 3 624.64 3.8
6 2 -3 598.54 3.9
-5 -2 3 376.76 3.1
5 2 -3 421.46 3
-5 -2 3 466.05 3.1
5 2 -3 439.96 3.5
-4 -2 3 1468.65 5.6
-4 -2 3 1614.34 5.7
4 2 -3 1363.46 5.1
4 2 -3 1597.14 6.4
-3 -2 3 9.6 1.3
-3 -2 3 8.6 1.3
3 2 -3 10.3 1
3 2 -3 11 1.2
-2 -2 3 1023.9 5.1
2 2 -3 928.81 4.9
2 2 -3 974.6 6.1
1 2 -3 232.18 3.4
-1 -2 3 256.97 2.9
1 2 -3 246.38 2.9
1 2 -3 250.67 3.9
0 -2 3 2655.13 9.5
0 -2 3 2617.84 13.2
0 2 -3 2567.34 13.3
0 2 -3 2655.73 9.4
1 -2 3 1033.7 6.7
1 -2 3 1021 7.3
-1 2 -3 1038.5 8.4
-1 2 -3 976.2 7
-2 2 -3 4222.08 17.1
2 -2 3 4202.68 13
-2 2 -3 4156.48 14
2 -2 3 4015.2 15.6
-3 2 -3 1940.81 22.2
-3 2 -3 1837.12 7.8
3 -2 3 1781.12 7.5
4 -2 3 1697.93 6.5
-4 2 -3 1792.62 6.7
-5 2 -3 524.55 3.4
5 -2 3 528.85 3.6
6 -2 3 804.72 4.1
-6 2 -3 847.32 4
-6 2 -3 1024.3 12.3
-6 2 -3 815.82 12
7 -2 3 1050.09 4.5
-7 2 -3 1116.79 9.9
-7 2 -3 1113.19 4.5
8 -2 3 53.99 2.3
8 -2 3 57.69 1.6
-8 2 -3 66.49 2.8
-8 2 -3 62.29 1.4
9 -2 3 262.87 2.8
-9 2 -3 290.57 5.1
-9 2 -3 -58.69 2.5
-8 -1 3 59.29 1.8
8 1 -3 51.39 1.8
8 1 -3 47.6 1.7
-8 -1 3 54.99 1.7
-7 -1 3 447.66 3.2
-7 -1 3 453.65 3.4
7 1 -3 426.16 3.4
7 1 -3 402.16 3.1
-6 -1 3 136.49 1.8
-6 -1 3 151.88 2.1
6 1 -3 131.99 1.9
6 1 -3 139.39 2.1
-5 -1 3 950.8 4.4
-5 -1 3 780.32 4
5 1 -3 875.61 4.3
5 1 -3 861.41 4.5
-4 -1 3 639.84 3.7
-4 -1 3 644.84 3.8
4 1 -3 632.14 3.7
4 1 -3 639.34 3.8
-3 -1 3 381.96 3
3 1 -3 374.46 3.2
3 1 -3 353.46 2.9
-3 -1 3 364.16 3
-2 -1 3 1546.95 6.4
2 1 -3 1464.95 6.1
2 1 -3 1514.65 6.5
1 1 -3 1308.97 6.9
-1 -1 3 1292.37 6.4
1 1 -3 1327.57 6.6
1 1 -3 1301.17 6.4
0 -1 3 4138.19 13.4
0 1 -3 4293.87 13.9
0 -1 3 5253.47 13.8
0 1 -3 4776.82 13.6
-1 1 -3 208.88 3.5
1 -1 3 210.08 3.4
-1 1 -3 220.58 3.3
1 -1 3 215.58 3.2
2 -1 3 5039.9 16.5
-2 1 -3 4385.46 18
2 -1 3 4882.01 13.3
-2 1 -3 5353.96 14.4
3 -1 3 138.99 2.3
-3 1 -3 132.99 3.6
-3 1 -3 155.38 2.7
-3 1 -3 137.09 4
-4 1 -3 3071.99 15.5
-4 1 -3 3439.06 18.4
4 -1 3 3286.07 9
-4 1 -3 3364.06 9.2
5 -1 3 35.5 1.2
-5 1 -3 37.8 1.3
-5 1 -3 40.5 2.5
-5 1 -3 42.9 2
6 -1 3 1506.95 8.4
-6 1 -3 1831.12 10.7
6 -1 3 1629.74 5.7
-6 1 -3 1716.83 5.7
-7 1 -3 363.26 2.8
-7 1 -3 390.86 4.6
7 -1 3 302.57 3.7
7 -1 3 336.87 2.9
-8 1 -3 388.06 4.7
8 -1 3 322.07 2.8
-8 1 -3 346.67 2.6
8 -1 3 300.57 3.8
-9 1 -3 164.68 3.5
9 -1 3 -19.3 2
-9 1 -3 156.28 2.2
9 -1 3 133.99 2.9
10 -1 3 130.49 3.4
-10 1 -3 55.39 3.7
10 -1 3 140.09 2.4
-10 1 -3 -8.8 2.4
-8 0 3 -0.3 1.3
8 0 -3 -0.1 1.3
-8 0 3 2 1.6
8 0 -3 3 1.5
-7 0 3 476.05 3.3
-7 0 3 446.66 3.4
7 0 -3 412.36 3.3
7 0 -3 442.26 3.1
-6 0 3 41.2 1.5
6 0 -3 37.2 1.5
-6 0 3 35.4 1.6
6 0 -3 38.6 1.6
-5 0 3 820.92 3.8
5 0 -3 806.92 4.1
5 0 -3 830.12 3.9
-5 0 3 826.42 4.2
-4 0 3 226.08 2.1
-4 0 3 231.38 2.4
4 0 -3 213.38 2.3
4 0 -3 215.88 2.2
-3 0 3 3263.77 7.8
-3 0 3 2985.7 8.3
3 0 -3 3319.17 7.9
3 0 -3 3000.8 8.2
2 0 -3 1736.33 6.2
2 0 -3 1587.64 6.4
2 0 -3 1732.33 6.3
-2 0 3 1726.53 6.9
1 0 -3 3839.22 10.2
1 0 -3 3767.52 9.9
1 0 -3 3618.64 10.3
-1 0 3 3554.24 10.6
0 0 3 2690.93 9.7
0 0 -3 2813.92 9.4
0 0 3 2729.33 9.2
0 0 -3 2631.14 9.9
1 0 3 2135.09 8.4
-1 0 -3 2064.59 8.3
-1 0 -3 1928.71 8.9
1 0 3 2045.3 8.8
2 0 3 1597.94 8.2
-2 0 -3 1452.15 8.1
2 0 3 1395.86 6.7
-2 0 -3 1439.56 6.7
3 0 3 363.46 3.3
-3 0 -3 365.86 3.5
-3 0 -3 319.07 4
-3 0 -3 374.26 4.5
-4 0 -3 1293.37 5.5
-4 0 -3 1308.77 7.9
-4 0 -3 1415.86 7.6
4 0 3 1266.97 5.6
5 0 3 6.2 1.4
5 0 3 11.4 1
-5 0 -3 13.9 1.6
-5 0 -3 7.7 1
6 0 3 978.9 5.9
6 0 3 1136.29 4.9
-6 0 -3 1215.38 7.1
-6 0 -3 1177.78 4.9
7 0 3 0.5 1.3
7 0 3 0.4 1.4
-7 0 -3 1.8 1.3
-7 0 -3 2.2 1.4
-8 0 -3 919.31 4.2
8 0 3 832.72 5.4
8 0 3 888.41 4.3
-8 0 -3 1040.6 6.5
-9 0 -3 32.3 2.1
9 0 3 26.1 1.5
9 0 3 26.1 1.3
-9 0 -3 27.5 1.5
-10 0 -3 465.65 5.2
10 0 3 385.36 4.2
10 0 3 377.46 3.4
-10 0 -3 437.06 3.5
-8 1 3 64.09 1.8
-8 1 3 64.59 1.9
8 -1 -3 57.69 1.7
8 -1 -3 56.39 1.6
-7 1 3 474.85 3.1
7 -1 -3 426.76 3.3
7 -1 -3 457.35 3.5
-7 1 3 461.25 3.5
-6 1 3 91.69 2
-6 1 3 86.09 1.6
6 -1 -3 86.59 1.9
6 -1 -3 88.99 1.8
-5 1 3 1271.27 4.5
5 -1 -3 1207.98 5.1
-5 1 3 1265.67 5.3
5 -1 -3 1279.07 4.6
-4 1 3 217.68 2.2
4 -1 -3 206.28 2.2
4 -1 -3 202.28 2.5
-4 1 3 210.18 2.5
3 -1 -3 3174.68 8.4
-3 1 3 3288.47 8.6
3 -1 -3 3343.77 7.6
2 -1 -3 58.79 1.6
2 -1 -3 52.39 1.9
2 -1 -3 54.79 1.7
-2 1 3 53.59 1.7
1 -1 -3 2375.56 7.3
1 -1 -3 2226.18 7.8
-1 1 3 2225.98 8
0 1 3 123.09 2.4
0 -1 -3 110.89 2.1
0 -1 -3 108.39 1.9
0 1 3 140.99 2
-1 -1 -3 6962.2 14.6
1 1 3 6670.33 13.2
1 1 3 7179.18 14.7
-1 -1 -3 7261.77 14
-2 -1 -3 348.47 3.3
2 1 3 365.06 3.3
2 1 3 371.06 3.6
-2 -1 -3 347.57 3.5
-3 -1 -3 1215.88 6.4
-3 -1 -3 1342.07 5.7
-3 -1 -3 1473.55 7
3 1 3 1264.67 5.7
4 1 3 1199.78 5.3
-4 -1 -3 1225.28 5.3
-4 -1 -3 1164.18 6.3
5 1 3 863.71 4.2
5 1 3 840.42 5
-5 -1 -3 976.7 5.6
-5 -1 -3 862.21 4.3
-6 -1 -3 1136.69 6
6 1 3 1014.3 4.4
-6 -1 -3 1035.4 4.6
6 1 3 937.01 5.1
-7 -1 -3 464.55 3.2
7 1 3 441.96 3.4
7 1 3 459.55 3.1
-7 -1 -3 559.94 4.3
8 1 3 653.83 4.3
8 1 3 677.53 3.8
-8 -1 -3 759.12 3.8
-8 -1 -3 439.26 5.8
9 1 3 85.89 2
9 1 3 84.49 2
-9 -1 -3 87.89 1.8
-9 -1 -3 111.09 2.3
-10 -1 -3 253.57 3.4
10 1 3 206.68 2.5
10 1 3 221.18 3.1
-10 -1 -3 201.28 2.5
-8 2 3 191.48 2.4
8 -2 -3 181.08 2.7
8 -2 -3 163.98 2.4
-8 2 3 192.28 2.8
-7 2 3 143.19 2.2
7 -2 -3 -2.2 2.2
-7 2 3 132.59 2.1
7 -2 -3 129.89 2.1
-6 2 3 666.23 3.4
-6 2 3 625.44 3.9
6 -2 -3 586.04 3.5
6 -2 -3 578.84 3.8
-5 2 3 548.35 3
-5 2 3 497.45 3.4
5 -2 -3 541.05 3.1
5 -2 -3 510.35 3.6
4 -2 -3 819.62 4.4
4 -2 -3 760.82 3.5
-4 2 3 767.72 4.2
3 -2 -3 1066.59 5
-3 2 3 990.5 4.9
3 -2 -3 952 4
3 -2 -3 953.8 4.1
2 -2 -3 402.96 2.9
2 -2 -3 399.96 2.8
2 -2 -3 397.56 3.2
-2 2 3 404.56 3.4
-1 2 3 1612.44 6.3
-1 2 3 1583.54 5.5
1 -2 -3 1529.25 5.5
1 -2 -3 1535.15 6
0 -2 -3 1819.42 6.8
0 2 3 1755.82 6.1
0 -2 -3 1610.94 6.1
0 2 3 1793.22 6.9
1 2 3 4118.99 9.4
-1 -2 -3 4232.28 9.6
1 2 3 4154.28 10
-1 -2 -3 3807.52 9.8
-2 -2 -3 249.28 2.9
2 2 3 211.98 2.4
-2 -2 -3 231.28 2.6
-3 -2 -3 3326.27 8.5
-3 -2 -3 3333.27 9.2
3 2 3 3623.54 8.9
-3 -2 -3 3705.73 9.9
4 2 3 95.19 1.8
4 2 3 110.89 2.1
-4 -2 -3 110.89 2
-4 -2 -3 109.59 2.2
5 2 3 3733.13 8.6
-5 -2 -3 3799.52 9.8
-5 -2 -3 3439.66 8.3
5 2 3 3265.17 8.9
-6 -2 -3 107.19 1.6
6 2 3 113.99 1.8
-6 -2 -3 123.39 2.2
6 2 3 104.49 2
7 2 3 1064.79 5
7 2 3 1220.08 4.8
-7 -2 -3 1292.17 5.8
-7 -2 -3 1230.78 4.9
8 2 3 77.89 1.8
8 2 3 89.69 2
-8 -2 -3 87.09 1.9
-8 -2 -3 75.29 1.6
9 2 3 285.27 3.1
9 2 3 290.67 2.9
-9 -2 -3 62.49 3.7
-9 -2 -3 284.47 2.8
-8 3 3 250.07 3.4
8 -3 -3 237.28 3.2
8 -3 -3 240.88 2.8
7 -3 -3 0.6 1.5
7 -3 -3 8 1.4
-7 3 3 6.5 1.6
6 -3 -3 674.63 3.7
6 -3 -3 674.63 4.3
-6 3 3 681.83 4.2
5 -3 -3 50.39 1.5
-5 3 3 51.09 1.4
5 -3 -3 58.19 1.7
4 -3 -3 866.01 3.6
4 -3 -3 878.61 4.4
-4 3 3 875.41 4.4
4 -3 -3 871.21 3.7
-3 3 3 609.34 3.7
3 -3 -3 605.64 3.8
3 -3 -3 595.44 3.2
3 -3 -3 609.24 3.2
2 -3 -3 950.5 4
2 -3 -3 978.3 4.1
2 -3 -3 996.8 4.6
-2 3 3 1027.1 4.8
1 -3 -3 1190.78 4.7
-1 3 3 1217.58 5.3
-1 3 3 1126.99 4.5
1 -3 -3 1203.78 5.1
0 -3 -3 929.71 4.2
0 -3 -3 980.7 4.6
0 3 3 914.61 4.2
0 3 3 1029.1 4.8
-1 -3 -3 2385.36 7.2
-1 -3 -3 2352.26 6.8
1 3 3 2260.17 6.7
1 3 3 2626.84 7.5
-2 -3 -3 1017.7 4.8
-2 -3 -3 976.7 4.6
2 3 3 934.51 4.4
-2 -3 -3 861.01 4.4
-3 -3 -3 3014.6 8.1
-3 -3 -3 2640.34 7.2
3 3 3 2692.53 7.2
-3 -3 -3 2578.04 7.5
4 3 3 874.11 4.4
4 3 3 932.81 4.3
-4 -3 -3 948.91 4.4
-4 -3 -3 935.11 4.5
5 3 3 1774.92 6
-5 -3 -3 1849.81 6.2
5 3 3 1980.3 6.1
-5 -3 -3 1870.21 5.9
6 3 3 69.79 1.6
-6 -3 -3 67.89 1.7
-6 -3 -3 69.69 1.8
6 3 3 58.99 1.7
7 3 3 645.04 3.7
7 3 3 832.52 4.2
-7 -3 -3 808.62 4.3
-7 -3 -3 777.52 4
8 3 3 8.1 1.3
8 3 3 8.2 1.5
-8 -3 -3 10 1.2
-8 -3 -3 10.2 1.1
9 3 3 277.27 2.9
9 3 3 229.48 2.6
-9 -3 -3 260.97 2.7
-9 -3 -3 276.07 3.2
7 -4 -3 55.49 1.9
-7 4 3 51.09 1.6
7 -4 -3 42.1 1.6
7 -4 -3 45.6 1.4
-6 4 3 294.47 3
6 -4 -3 280.07 2.4
6 -4 -3 288.47 2.5
6 -4 -3 267.87 2.9
5 -4 -3 27.4 1.5
5 -4 -3 23.4 1
5 -4 -3 23.4 1
-5 4 3 27.4 1.4
4 -4 -3 836.12 3.7
-4 4 3 835.02 4.4
4 -4 -3 832.72 4.4
4 -4 -3 827.62 3.6
3 -4 -3 64.99 1.2
3 -4 -3 67.19 1.4
-3 4 3 75.39 1.8
3 -4 -3 66.49 1.3
2 -4 -3 1842.52 5.4
2 -4 -3 1969.9 6.1
2 -4 -3 1795.82 5.2
-2 4 3 2017.5 6.4
1 -4 -3 291.57 2.6
-1 4 3 291.37 2.6
1 -4 -3 267.67 2.2
0 -4 -3 2864.61 6.9
0 4 3 2898.51 7.1
0 -4 -3 2868.61 7.3
0 4 3 3232.68 8
-1 -4 -3 932.21 4.1
1 4 3 845.82 4
-1 -4 -3 937.81 4.4
-2 -4 -3 2357.06 6.8
-2 -4 -3 2622.04 6.9
-2 -4 -3 2682.83 7.2
2 4 3 2530.45 6.8
-3 -4 -3 572.34 3.3
3 4 3 566.94 3.3
-3 -4 -3 631.14 3.7
-3 -4 -3 529.85 3.3
4 4 3 907.51 4.1
-4 -4 -3 900.41 4.3
4 4 3 825.42 4
-4 -4 -3 890.01 4.2
5 4 3 527.75 3.3
-5 -4 -3 544.75 3.2
5 4 3 575.24 3.3
-5 -4 -3 567.24 3.5
-6 -4 -3 268.97 2.5
6 4 3 242.78 2.4
6 4 3 290.97 2.7
-6 -4 -3 277.57 2.5
7 4 3 408.66 3
-7 -4 -3 468.05 3.3
-7 -4 -3 491.95 3.3
7 4 3 508.05 3.4
-8 -4 -3 28.1 1.7
8 4 3 39.4 1.3
8 4 3 27 1.4
-8 -4 -3 32.4 1.3
9 4 3 319.27 3.1
9 4 3 259.07 3
-9 -4 -3 279.87 3.4
-9 -4 -3 270.07 2.8
7 -5 -3 83.19 2.1
7 -5 -3 80.39 2
7 -5 -3 81.19 1.7
-7 5 3 94.79 2
6 -5 -3 105.89 2.1
6 -5 -3 98.69 1.6
-6 5 3 112.49 2.1
6 -5 -3 91.99 1.7
5 -5 -3 216.78 2.3
-5 5 3 248.08 2.7
5 -5 -3 246.58 2.8
5 -5 -3 212.88 2.1
-4 5 3 746.93 4.2
4 -5 -3 679.53 3.3
4 -5 -3 713.03 3.5
4 -5 -3 706.23 4.1
-3 5 3 528.95 3.4
3 -5 -3 464.95 2.7
3 -5 -3 504.25 3.2
3 -5 -3 479.35 2.8
2 -5 -3 1305.97 4.5
2 -5 -3 1299.47 4.4
2 -5 -3 1397.46 5
-2 5 3 1361.46 5.2
1 -5 -3 460.85 3
1 -5 -3 434.16 2.8
-1 5 3 482.45 3.1
0 -5 -3 1479.95 4.8
0 5 3 1421.86 4.8
0 -5 -3 1524.35 5.2
1 5 3 85.29 1.4
-1 -5 -3 86.99 1.4
-1 -5 -3 92.99 1.7
-1 -5 -3 78.69 1.6
-2 -5 -3 775.62 3.8
-2 -5 -3 931.51 4.2
-2 -5 -3 919.61 4
2 5 3 867.41 3.9
-3 -5 -3 26.2 1.3
-3 -5 -3 23 1
3 5 3 25 1
-3 -5 -3 25.7 1.1
4 5 3 1037.2 4.3
-4 -5 -3 1042.7 4.6
-4 -5 -3 1002.3 4.2
4 5 3 963.3 4.2
-5 -5 -3 163.98 2.1
5 5 3 173.08 2.1
5 5 3 151.08 1.9
-5 -5 -3 179.18 2.3
-6 -5 -3 710.13 3.8
6 5 3 735.73 4
-6 -5 -3 764.62 3.9
6 5 3 687.73 3.8
7 5 3 142.89 2.1
-7 -5 -3 164.98 2.3
7 5 3 155.98 2.1
-7 -5 -3 161.18 2
8 5 3 465.35 3.4
-8 -5 -3 474.85 3.6
-8 -5 -3 437.26 3.3
8 5 3 402.86 3.1
9 5 3 146.69 2.1
9 5 3 174.98 2.3
-9 -5 -3 -9.7 2.7
-9 -5 -3 150.28 2.2
6 -6 -3 45.2 1.7
6 -6 -3 39.6 1.5
-6 6 3 48.3 1.7
6 -6 -3 39.2 1.6
5 -6 -3 817.22 4.8
5 -6 -3 690.43 3.9
-5 6 3 447.66 5
5 -6 -3 745.43 4
4 -6 -3 217.18 2
4 -6 -3 227.58 2.1
4 -6 -3 228.08 2.6
-4 6 3 252.97 2.7
-3 6 3 1109.59 5
3 -6 -3 1063.39 4.7
3 -6 -3 1026.3 3.9
3 -6 -3 1045.7 4.1
2 -6 -3 308.37 2.4
2 -6 -3 310.57 2.5
2 -6 -3 285.97 2.1
-2 6 3 318.77 2.9
1 -6 -3 781.72 3.5
1 -6 -3 708.93 3.3
1 -6 -3 788.42 3.8
0 6 3 602.04 3.3
0 -6 -3 579.84 3.2
0 -6 -3 542.05 3.3
0 -6 -3 609.14 3.3
-1 -6 -3 327.37 2.6
-1 -6 -3 271.77 2.3
-1 -6 -3 320.77 2.5
1 6 3 311.27 2.4
2 6 3 1387.16 4.9
-2 -6 -3 1502.15 5.1
-2 -6 -3 1281.07 4.6
-2 -6 -3 1473.95 5
-3 -6 -3 27.9 1.1
-3 -6 -3 30.7 1.1
3 6 3 29.9 1.3
-3 -6 -3 35.5 1.2
4 6 3 1252.17 4.8
-4 -6 -3 1271.57 5
-4 -6 -3 1331.57 4.9
-5 -6 -3 3.4 0.9
-5 -6 -3 0.9 1.3
5 6 3 0.4 1.2
5 6 3 2.3 1.2
6 6 3 512.25 3.5
-6 -6 -3 553.44 3.6
6 6 3 551.14 3.5
-6 -6 -3 562.14 3.4
7 6 3 3.2 1.3
7 6 3 1.3 1
-7 -6 -3 0.7 1.4
-7 -6 -3 3.5 1.4
-8 -6 -3 540.85 4
8 6 3 523.85 4.1
-8 -6 -3 507.35 4
8 6 3 65.59 3.8
6 -7 -3 43.3 1.4
6 -7 -3 43.7 1.6
-6 7 3 54.49 1.9
6 -7 -3 49.6 1.9
5 -7 -3 613.94 3.6
5 -7 -3 662.13 4.5
-5 7 3 738.73 4.7
5 -7 -3 681.33 3.8
4 -7 -3 2.6 1.1
-4 7 3 2.1 1.3
4 -7 -3 5.4 0.9
4 -7 -3 3.9 1.2
-3 7 3 593.94 3.7
3 -7 -3 494.55 3.1
3 -7 -3 532.95 3.3
3 -7 -3 -25.3 3.6
2 -7 -3 51.19 1.3
2 -7 -3 60.79 1.5
2 -7 -3 55.99 1.3
2 -7 -3 54.69 1.2
1 -7 -3 556.64 3.1
1 -7 -3 572.74 3.1
1 -7 -3 509.75 3.1
1 -7 -3 610.74 3.3
0 -7 -3 424.96 2.8
0 -7 -3 375.06 2.6
0 -7 -3 374.26 2.8
0 7 3 383.96 2.6
-1 -7 -3 558.94 3.2
-1 -7 -3 567.14 3.1
-1 -7 -3 598.84 3.2
1 7 3 559.74 3.2
2 7 3 692.33 3.7
-2 -7 -3 778.62 3.9
-2 -7 -3 803.02 3.8
-2 -7 -3 693.93 3.6
3 7 3 488.95 3.2
-3 -7 -3 623.74 3.6
-3 -7 -3 563.54 3.4
-3 -7 -3 541.95 3.4
4 7 3 434.66 3.1
-4 -7 -3 525.65 3.3
-4 -7 -3 448.36 3.1
-4 -7 -3 465.85 3.3
5 7 3 223.38 2.4
-5 -7 -3 211.88 2.3
-5 -7 -3 213.58 2.3
6 7 3 272.97 2.7
6 7 3 312.27 2.8
-6 -7 -3 299.97 3.1
-6 -7 -3 290.17 2.7
7 7 3 -0.9 1.8
7 7 3 84.99 2.1
-7 -7 -3 83.39 1.9
-7 -7 -3 93.49 2.1
5 -8 -3 147.29 2.1
5 -8 -3 151.88 2.4
5 -8 -3 159.78 2.2
4 -8 -3 64.19 1.4
4 -8 -3 55.09 1.8
4 -8 -3 64.29 1.6
4 -8 -3 -10.1 1.7
3 -8 -3 346.37 2.7
3 -8 -3 329.27 3
3 -8 -3 326.67 3
3 -8 -3 374.66 2.8
2 -8 -3 44.9 1.4
2 -8 -3 37.3 1.4
2 -8 -3 37 1.3
2 -8 -3 39 1.2
1 -8 -3 701.93 3.6
1 -8 -3 595.74 3.5
1 -8 -3 661.83 3.4
1 -8 -3 679.63 3.6
0 -8 -3 12.9 1.4
0 -8 -3 16.3 1.3
0 -8 -3 22.6 1
1 8 3 827.92 4
-1 -8 -3 859.21 4.2
-1 -8 -3 883.01 4.1
-1 -8 -3 910.21 4.1
-2 -8 -3 39.8 1.6
2 8 3 37.7 1.2
-2 -8 -3 43 1.4
-2 -8 -3 45.7 1.5
-3 -8 -3 933.81 4.3
3 8 3 807.42 4.2
-3 -8 -3 844.82 4.3
-3 -8 -3 943.01 4.5
-4 -8 -3 4.4 1.2
4 8 3 5.8 1.1
-4 -8 -3 6.1 0.9
-4 -8 -3 6.5 1.3
5 8 3 441.36 3.3
-5 -8 -3 411.46 3.1
-5 -8 -3 483.65 3.5
-5 -8 -3 493.15 3.3
6 8 3 52.39 1.7
-6 -8 -3 50.79 1.4
-6 -8 -3 52.89 1.8
7 8 3 166.78 2.5
-7 -8 -3 171.58 2.6
-7 -8 -3 167.98 2.3
7 8 3 157.38 2.2
4 -9 -3 222.68 2.6
4 -9 -3 223.28 2.9
4 -9 -3 263.97 3
4 -9 -3 230.08 2.7
3 -9 -3 -30.4 2.2
3 -9 -3 182.28 2.6
3 -9 -3 197.48 2.3
3 -9 -3 172.98 2.5
2 -9 -3 338.07 2.7
2 -9 -3 351.76 2.9
2 -9 -3 352.86 3.1
2 -9 -3 357.96 2.9
1 -9 -3 -31 3.5
1 -9 -3 460.75 3.4
1 -9 -3 474.85 3.1
1 -9 -3 518.65 3.3
0 -9 -3 344.67 2.8
0 -9 -3 331.17 2.7
0 -9 -3 324.27 3
0 -9 -3 341.97 2.7
1 9 3 570.54 3.5
-1 -9 -3 519.45 3.6
-1 -9 -3 558.84 3.5
-1 -9 -3 529.35 3.3
2 9 3 213.48 2.4
-2 -9 -3 196.18 2.4
-2 -9 -3 205.68 2.3
-2 -9 -3 237.98 2.5
3 9 3 326.17 2.8
-3 -9 -3 334.07 3
-3 -9 -3 359.96 3.1
-3 -9 -3 351.66 3
-4 -9 -3 16 1.2
4 9 3 17.4 1.3
-4 -9 -3 20.2 1.4
-4 -9 -3 16.3 1.4
5 9 3 212.78 2.7
-5 -9 -3 207.88 2.5
-5 -9 -3 216.78 2.8
-5 -9 -3 249.28 2.5
2 -10 -3 361.66 3.4
2 -10 -3 413.06 3.3
2 -10 -3 399.36 3.6
2 -10 -3 404.56 3.4
1 -10 -3 50.89 1.5
1 -10 -3 42.3 1.5
1 -10 -3 49.5 1.5
1 -10 -3 49.5 1.6
0 -10 -3 377.76 3.2
0 -10 -3 352.36 3.2
0 -10 -3 331.67 2.9
0 -10 -3 343.97 3
-1 -10 -3 70.69 1.7
-1 -10 -3 62.89 1.6
-1 -10 -3 71.29 1.7
-1 -10 -3 64.29 1.9
2 10 3 176.58 2.4
-2 -10 -3 172.18 2.4
-2 -10 -3 168.28 2.4
-2 -10 -3 157.88 2.1
-3 -10 -3 167.18 2.2
-3 -10 -3 177.98 2.4
3 10 3 156.18 2.3
-3 -10 -3 161.38 2.5
4 10 3 54.09 1.6
-4 -10 -3 43 1.8
-4 -10 -3 54.69 1.8
-4 -10 -3 65.89 1.6
2 9 -4 41.1 1.7
-2 -9 4 55.99 1.7
1 9 -4 571.44 4.1
-1 -9 4 583.84 4.2
0 9 -4 4.1 1.6
0 -9 4 5.1 1.7
-1 9 -4 394.36 3.4
1 -9 4 347.77 3.3
-2 9 -4 1.3 1.3
2 -9 4 -0.3 1.4
3 -9 4 324.97 4.7
3 -9 4 337.77 3.9
3 -9 4 304.87 3.8
3 -9 4 310.37 5.4
4 -9 4 10 1.7
4 -9 4 7.4 1.8
4 -9 4 2.5 2
4 -9 4 11.3 1.9
5 -9 4 325.27 6
5 -9 4 264.77 3.5
5 -9 4 226.18 3.7
5 -9 4 287.97 5.7
3 8 -4 161.98 2.4
-3 -8 4 170.08 2.3
2 8 -4 315.97 3.1
-2 -8 4 319.27 3.1
1 8 -4 -2 2.7
-1 -8 4 182.48 2.5
0 8 -4 238.08 2.7
0 -8 4 215.48 2.5
-1 8 -4 321.47 2.9
1 -8 4 297.97 3
-2 8 -4 67.89 1.6
2 -8 4 65.99 1.9
3 -8 4 587.94 6.1
3 -8 4 605.44 4.8
3 -8 4 565.04 5
3 -8 4 682.93 4.7
4 -8 4 17.8 1.8
4 -8 4 13.4 1.6
4 -8 4 13.4 1.5
4 -8 4 13.7 2
5 -8 4 553.04 7.9
5 -8 4 556.34 7.1
5 -8 4 435.66 4
5 -8 4 388.76 4
6 -8 4 0.3 1.4
4 7 -4 445.16 3.5
-4 -7 4 430.46 3.6
3 7 -4 1.4 1.6
-3 -7 4 -0.3 1.6
2 7 -4 386.46 3.1
-2 -7 4 53.39 3.6
-1 -7 4 19.8 1.2
1 7 -4 23.5 1.3
0 7 -4 942.11 4.7
0 -7 4 873.01 4.6
-1 7 -4 914.71 4.9
1 -7 4 873.51 4.8
2 -7 4 556.94 7.1
2 -7 4 596.74 6.6
2 -7 4 574.94 4.3
-2 7 -4 590.94 4.2
3 -7 4 617.44 4.8
3 -7 4 584.54 5.6
-3 7 -4 595.24 4.4
3 -7 4 553.34 4.8
-4 7 -4 472.35 4.1
4 -7 4 473.05 4.2
4 -7 4 511.45 4.8
4 -7 4 496.35 5.2
-5 7 -4 516.05 3.9
5 -7 4 522.25 11.2
5 -7 4 435.16 3.6
5 -7 4 506.75 10.6
-6 7 -4 243.28 2.9
6 -7 4 199.08 2.8
-7 7 -4 319.07 3.3
7 -7 4 288.87 3.1
5 6 -4 167.78 3.8
5 6 -4 171.88 3.2
5 6 -4 173.18 2.5
-5 -6 4 180.98 2.4
4 6 -4 324.27 4.6
4 6 -4 295.97 2.9
4 6 -4 301.27 4.8
-4 -6 4 314.27 3.1
3 6 -4 68.39 1.6
-3 -6 4 78.89 1.8
2 6 -4 572.54 3.5
-2 -6 4 606.64 3.6
1 6 -4 44 1.9
-1 -6 4 42.7 1.5
0 -6 4 1854.11 6.5
0 6 -4 2029.4 6.8
-1 6 -4 21.2 1.7
1 -6 4 20.3 1.3
-2 6 -4 1201.78 6
2 -6 4 1165.48 8.6
2 -6 4 1184.08 7.9
2 -6 4 1256.47 5.9
-3 6 -4 2.2 1.3
-3 6 -4 5.6 1.3
3 -6 4 4 1.5
3 -6 4 8.6 1.5
-4 6 -4 1539.85 6.6
4 -6 4 1492.75 9.2
4 -6 4 1498.85 8.4
4 -6 4 1358.46 6.7
5 -6 4 201.18 2.5
-5 6 -4 244.38 2.6
-6 6 -4 484.45 3.4
6 -6 4 433.26 3.4
7 -6 4 115.39 1.9
-7 6 -4 125.39 2
8 -6 4 -19.8 2.3
-8 6 -4 178.58 2.5
-6 -5 4 56.39 1.9
6 5 -4 45.9 2.1
6 5 -4 45.8 1.9
-5 -5 4 267.67 2.7
5 5 -4 242.18 3.5
5 5 -4 213.28 2.7
4 5 -4 235.98 3.7
4 5 -4 247.48 2.4
-4 -5 4 271.27 2.5
4 5 -4 267.47 3.4
3 5 -4 584.14 6.1
3 5 -4 517.15 3.4
3 5 -4 578.44 5.4
-3 -5 4 546.45 3.6
2 5 -4 911.21 4.4
-2 -5 4 1006.3 4.6
1 5 -4 845.72 4.2
-1 -5 4 831.22 4.2
0 5 -4 1327.17 5.6
0 -5 4 1291.47 5.5
-1 5 -4 698.73 4.4
1 -5 4 630.74 4.2
-2 5 -4 643.64 5.8
-2 5 -4 628.24 4.6
2 -5 4 614.24 4.5
2 -5 4 558.14 5.6
-3 5 -4 257.17 3.4
3 -5 4 249.97 3.3
-3 5 -4 270.97 3.4
3 -5 4 263.67 3.5
4 -5 4 956.1 8
4 -5 4 885.61 8.4
4 -5 4 824.32 4.9
-4 5 -4 893.51 5.1
5 -5 4 2.8 1.2
-5 5 -4 4.9 0.9
6 -5 4 490.55 3.5
-6 5 -4 536.85 3.5
7 -5 4 1.1 1.4
-7 5 -4 12.6 1.3
-8 5 -4 505.85 3.6
8 -5 4 437.16 3.5
9 -5 4 23.2 1.3
-9 5 -4 28.3 1.4
-6 -4 4 16.2 1.3
-6 -4 4 17.2 1.3
6 4 -4 18.5 1.7
6 4 -4 20 1.3
5 4 -4 854.91 4.5
5 4 -4 909.01 5.8
-5 -4 4 967.9 4.7
-4 -4 4 6.7 1.1
4 4 -4 2.9 1.5
4 4 -4 3.1 1.5
3 4 -4 1504.35 7.1
3 4 -4 1362.86 5.2
3 4 -4 1459.65 8
-3 -4 4 1490.65 5.4
2 4 -4 101.19 3.1
2 4 -4 91.89 1.6
-2 -4 4 92.69 1.6
2 4 -4 91.69 2.5
1 4 -4 1677.73 6.1
-1 -4 4 1719.23 6.1
0 4 -4 127.79 2.3
0 -4 4 115.49 2.2
-1 4 -4 1036.9 5.5
1 -4 4 965.2 10.2
1 -4 4 955.1 5.2
-1 4 -4 1004.3 11.8
2 -4 4 319.17 3.5
2 -4 4 279.97 3.7
-2 4 -4 324.77 4.4
-2 4 -4 328.37 3.6
3 -4 4 784.32 6.4
-3 4 -4 807.02 6.3
3 -4 4 753.12 5.2
-3 4 -4 799.92 5.3
4 -4 4 584.84 11.1
4 -4 4 545.35 4
4 -4 4 588.84 11.3
-4 4 -4 545.45 3.8
5 -4 4 524.45 3.7
-5 4 -4 534.55 3.6
-6 4 -4 1038.6 4.7
6 -4 4 925.21 4.6
7 -4 4 149.29 2
-7 4 -4 25.9 2.6
8 -4 4 572.04 3.8
-8 4 -4 651.83 3.8
9 -4 4 16.4 1.1
-9 4 -4 22.9 1.4
-7 -3 4 233.68 2.7
7 3 -4 230.88 2.7
7 3 -4 245.08 3.2
-7 -3 4 275.27 3.1
-6 -3 4 327.57 3
6 3 -4 318.77 3
-6 -3 4 375.46 3.2
6 3 -4 332.67 3.4
-5 -3 4 673.93 4
5 3 -4 677.23 4.1
5 3 -4 744.43 4.8
-5 -3 4 737.73 4.2
-4 -3 4 194.88 2.4
4 3 -4 183.18 2.4
4 3 -4 205.58 2.9
-3 -3 4 1071.39 4.5
3 3 -4 1019.1 5.3
3 3 -4 1027.1 4.6
3 3 -4 1087.09 6.4
-2 -3 4 543.65 3.5
2 3 -4 542.15 4.4
2 3 -4 570.64 3.6
2 3 -4 606.64 5.6
-1 -3 4 2039.4 6.7
1 3 -4 2036.7 10.1
1 3 -4 2023.9 6.8
1 3 -4 2204.78 12.1
0 3 -4 116.59 3.6
0 -3 4 110.09 2.2
0 3 -4 106.59 3.6
0 3 -4 113.29 2
1 -3 4 1904.21 9.9
1 -3 4 2067.99 7.8
-1 3 -4 1958.5 7.8
-1 3 -4 2075.69 12.6
2 -3 4 81.29 2.2
-2 3 -4 94.19 2.5
-2 3 -4 91.39 2.6
2 -3 4 80.19 2.2
-3 3 -4 1939.11 8.1
3 -3 4 1790.22 7.6
3 -3 4 1823.52 9.9
-3 3 -4 2031.7 11.3
4 -3 4 423.06 3.4
-4 3 -4 441.36 3.6
5 -3 4 1754.02 6.3
-5 3 -4 1843.12 6.4
6 -3 4 376.36 3
-6 3 -4 403.56 3
7 -3 4 922.01 4.4
-7 3 -4 1020.9 4.3
8 -3 4 178.68 2.3
-8 3 -4 181.98 2.1
-9 3 -4 -46.5 2.2
9 -3 4 -11.3 2.3
-7 -2 4 30.6 1.4
-7 -2 4 28.8 1.5
7 2 -4 28.3 1.5
7 2 -4 25.9 1.4
-6 -2 4 457.25 3.4
-6 -2 4 401.76 3.1
6 2 -4 386.96 3.1
6 2 -4 424.36 3.5
-5 -2 4 351.66 3
-5 -2 4 313.87 2.7
5 2 -4 298.17 2.5
5 2 -4 329.27 3
-4 -2 4 254.97 2.6
4 2 -4 221.88 2.4
4 2 -4 250.77 2.7
-3 -2 4 575.04 3.5
3 2 -4 615.34 3.8
3 2 -4 534.65 3.3
3 2 -4 581.44 4.2
2 2 -4 459.45 3.3
-2 -2 4 504.55 3.5
2 2 -4 495.65 4.1
2 2 -4 485.95 3.7
1 2 -4 1325.07 6.8
-1 -2 4 1415.36 5.8
1 2 -4 1372.46 6
1 2 -4 1388.46 7.1
0 -2 4 152.88 2.3
0 2 -4 138.19 2.8
0 2 -4 152.88 2.4
0 -2 4 141.99 2.6
1 -2 4 2730.53 9.2
1 -2 4 2684.43 10
-1 2 -4 2609.04 10.8
-1 2 -4 2679.53 9.7
2 -2 4 109.29 2.4
2 -2 4 94.99 2
-2 2 -4 99.49 2.4
-2 2 -4 102.29 2.7
3 -2 4 1994.9 7.6
3 -2 4 2051.09 10.1
-3 2 -4 2078.09 8
-3 2 -4 1945.81 11.8
4 -2 4 148.69 2.1
-4 2 -4 145.59 8.1
-4 2 -4 184.68 8.8
-4 2 -4 168.48 2.6
5 -2 4 1573.94 5.9
-5 2 -4 1507.45 5.8
6 -2 4 141.69 2.1
-6 2 -4 151.78 1.9
7 -2 4 554.94 3.3
-7 2 -4 598.64 3.4
-8 2 -4 16.1 1.5
8 -2 4 18.6 1.6
9 -2 4 215.68 2.6
-9 2 -4 229.18 2.4
10 -2 4 28.7 1.3
-10 2 -4 3 1.6
-7 -1 4 48.5 1.7
7 1 -4 45.7 1.6
-7 -1 4 55.59 1.6
7 1 -4 48.4 1.5
-6 -1 4 472.85 3.1
-6 -1 4 517.35 3.7
6 1 -4 461.75 3.4
6 1 -4 488.95 3.4
-5 -1 4 30.8 1.3
-5 -1 4 38.6 1.6
5 1 -4 33 1.6
5 1 -4 34.5 1.6
-4 -1 4 671.23 3.8
4 1 -4 599.84 3.5
4 1 -4 675.23 4
3 1 -4 18.9 1.4
3 1 -4 22.8 1.1
3 1 -4 20 1.1
-3 -1 4 21.5 1.4
-2 -1 4 1105.19 5.1
2 1 -4 1136.89 5.2
2 1 -4 1169.78 5.4
2 1 -4 1153.98 5.1
1 1 -4 372.96 3.3
-1 -1 4 381.16 3.4
1 1 -4 372.06 3.3
1 1 -4 376.16 3.5
0 1 -4 2137.99 8.1
0 1 -4 2039.8 7.9
0 -1 4 2120.89 7.9
0 -1 4 2185.18 7.8
-1 1 -4 1037.1 6.4
-1 1 -4 1100.19 5.9
1 -1 4 1039.5 5.6
1 -1 4 1030.4 5.7
2 -1 4 2957.1 9.1
-2 1 -4 2891.71 9.4
2 -1 4 2941.61 10.2
-2 1 -4 2787.62 11.1
3 -1 4 1322.87 5.9
-3 1 -4 1183.48 7.9
-3 1 -4 1333.07 6.1
3 -1 4 1457.25 7.8
-4 1 -4 2278.27 12
4 -1 4 2254.57 7.1
-4 1 -4 2343.17 7.4
-4 1 -4 2182.08 11.5
5 -1 4 841.92 4.3
-5 1 -4 923.61 8.5
-5 1 -4 913.11 4.6
-5 1 -4 901.11 7.5
-6 1 -4 303.97 4.3
6 -1 4 258.47 2.4
-6 1 -4 279.17 2.6
-6 1 -4 301.27 5
-7 1 -4 642.74 6.6
-7 1 -4 661.13 5.7
7 -1 4 507.85 3.3
-7 1 -4 530.25 3.3
-8 1 -4 27.4 1.8
-8 1 -4 27.6 2
-8 1 -4 20.4 1.1
8 -1 4 22.8 1.5
-9 1 -4 374.16 5.2
-9 1 -4 422.06 5.7
9 -1 4 325.97 2.8
-9 1 -4 351.26 2.8
-10 1 -4 37.1 2.3
-10 1 -4 37.3 2.5
10 -1 4 23.8 1.7
-10 1 -4 24.1 1.4
-7 0 4 125.99 2.3
7 0 -4 129.29 2.1
7 0 -4 137.59 2.3
-6 0 4 374.26 2.8
-6 0 4 436.06 3.3
6 0 -4 377.76 3.1
6 0 -4 396.06 2.9
-5 0 4 202.78 2.3
5 0 -4 194.88 2.5
5 0 -4 196.18 2.3
-4 0 4 1339.77 5.2
4 0 -4 1244.78 4.9
4 0 -4 1362.16 5
3 0 -4 290.07 2.4
-3 0 4 268.07 2.6
3 0 -4 297.57 2.6
3 0 -4 246.38 2.5
2 0 -4 3668.23 8.9
2 0 -4 4231.68 8.9
-2 0 4 4059.69 9.6
2 0 -4 4250.27 8.9
1 0 -4 18 1.3
-1 0 4 18.8 1.4
1 0 -4 20.4 1.4
1 0 -4 18.8 1.3
0 0 4 3689.53 9.6
0 0 -4 3867.91 9.9
0 0 4 3840.32 10.2
0 0 -4 3994.2 10.4
1 0 4 2.5 0.8
-1 0 -4 1.9 1.1
1 0 4 21.2 1.5
-1 0 -4 4.7 1.6
2 0 4 2994.7 9.5
-2 0 -4 2970.9 8.6
-2 0 -4 2651.33 9.5
2 0 4 2948.7 8.4
3 0 4 349.87 3.6
3 0 4 292.47 2.8
-3 0 -4 299.17 3.4
-3 0 -4 300.17 2.8
4 0 4 1667.43 6.1
-4 0 -4 1537.85 7.7
-4 0 -4 1568.44 5.8
-4 0 -4 1673.03 7.9
-5 0 -4 826.32 5.9
5 0 4 769.32 4.1
-5 0 -4 874.61 5.6
-5 0 -4 746.63 4
-6 0 -4 837.82 5.4
6 0 4 769.42 3.9
-6 0 -4 859.91 5.9
-6 0 -4 753.72 3.8
-7 0 -4 885.71 4.2
7 0 4 831.32 4.1
-7 0 -4 974 6.2
-7 0 -4 1013.2 5.9
8 0 4 470.95 3.2
-8 0 -4 506.95 3.1
-8 0 -4 550.94 5.3
-9 0 -4 475.75 5
9 0 4 355.26 2.9
-9 0 -4 408.56 3
10 0 4 121.09 2
-10 0 -4 155.48 3.7
-10 0 -4 172.88 3.3
-10 0 -4 136.69 2.3
-7 1 4 318.57 3.3
7 -1 -4 310.37 3.1
7 -1 -4 309.47 2.9
6 -1 -4 154.48 2.3
-6 1 4 174.08 2.2
6 -1 -4 177.08 2.2
-5 1 4 818.02 4.4
5 -1 -4 822.32 3.9
5 -1 -4 765.62 4.2
4 -1 -4 937.21 3.7
-4 1 4 897.11 4.4
4 -1 -4 878.11 3.9
4 -1 -4 894.01 4.2
3 -1 -4 830.92 4.2
3 -1 -4 809.72 3.7
-3 1 4 797.62 4.2
3 -1 -4 851.31 3.8
2 -1 -4 1213.18 4.6
2 -1 -4 1194.58 4.5
2 -1 -4 1214.08 5.2
-2 1 4 1215.68 5.2
1 -1 -4 448.86 3.1
1 -1 -4 414.16 3.4
-1 1 4 431.56 3.3
0 1 4 659.53 3.8
0 -1 -4 674.63 4
0 -1 -4 701.53 3.9
0 1 4 698.63 4.2
1 1 4 25 1.4
-1 -1 -4 22.7 1.4
1 1 4 22.7 1.3
-1 -1 -4 31.4 1.7
2 1 4 1784.92 6.9
-2 -1 -4 1596.14 6.6
-2 -1 -4 1618.54 6
2 1 4 1568.34 5.9
3 1 4 15.7 1.3
-3 -1 -4 13.1 1.1
-3 -1 -4 14 1.3
3 1 4 14.9 1.5
-4 -1 -4 1326.17 5.3
-4 -1 -4 1322.97 6.2
4 1 4 1381.26 5.4
-4 -1 -4 1499.15 6.5
5 1 4 1.3 1.1
-5 -1 -4 1.8 1
-5 -1 -4 3.4 1.2
-5 -1 -4 4.8 1
6 1 4 1592.44 5.3
-6 -1 -4 1737.03 7.3
-6 -1 -4 1678.03 5.5
-6 -1 -4 1815.32 6.9
7 1 4 41.8 1.3
-7 -1 -4 51.59 1.8
-7 -1 -4 44.4 1.3
8 1 4 685.03 4.4
8 1 4 764.52 4.1
-8 -1 -4 716.13 3.9
-8 -1 -4 907.11 5.5
9 1 4 47.5 1.7
9 1 4 50.89 1.7
-9 -1 -4 49.2 1.5
-9 -1 -4 64.89 2.1
-10 -1 -4 221.88 4
10 1 4 223.28 2.5
-10 -1 -4 181.68 2.6
7 -2 -4 239.58 3.5
7 -2 -4 121.29 4.3
7 -2 -4 490.55 3.4
-7 2 4 569.84 4.2
6 -2 -4 2.6 1.3
-6 2 4 3.8 1.4
6 -2 -4 2.3 1.4
6 -2 -4 4.2 1.1
5 -2 -4 1065.99 4.1
-5 2 4 1028.6 4.7
5 -2 -4 1020.2 4.1
5 -2 -4 991.4 4.5
4 -2 -4 9.6 1.4
4 -2 -4 6.5 1
-4 2 4 4.1 1.4
4 -2 -4 15.6 1.2
3 -2 -4 1204.28 4.3
3 -2 -4 1317.17 5.1
-3 2 4 1303.87 5.3
3 -2 -4 1199.78 4.3
2 -2 -4 13.9 1.1
2 -2 -4 14.1 0.9
2 -2 -4 8.9 1.3
-2 2 4 9.2 1.1
1 -2 -4 1049.2 4.3
-1 2 4 1062.29 4.9
-1 2 4 998.8 4.2
1 -2 -4 1009.5 4.5
0 -2 -4 1172.88 4.7
0 2 4 1270.37 5.2
0 2 4 1169.68 4.6
0 -2 -4 1185.48 5
-1 -2 -4 1296.27 5.4
1 2 4 1190.58 4.7
-1 -2 -4 1286.77 5
1 2 4 1333.77 5.4
2 2 4 2375.16 7.1
-2 -2 -4 2141.99 6.5
2 2 4 2127.79 6.5
-2 -2 -4 2155.68 6.9
3 2 4 792.32 3.9
-3 -2 -4 900.81 4.7
-3 -2 -4 832.52 4.2
-3 -2 -4 782.52 4.3
-4 -2 -4 1311.37 5.1
-4 -2 -4 1548.95 6
4 2 4 1226.78 4.8
-4 -2 -4 1310.07 5.6
5 2 4 802.92 4
-5 -2 -4 733.33 3.7
-5 -2 -4 786.82 4.5
-5 -2 -4 814.22 4.4
6 2 4 1275.77 4.8
-6 -2 -4 1257.27 4.8
-6 -2 -4 1328.27 5.7
7 2 4 281.97 2.8
-7 -2 -4 355.16 2.8
7 2 4 346.47 2.7
-7 -2 -4 371.86 3.3
8 2 4 671.53 4
8 2 4 812.12 4.2
-8 -2 -4 885.41 5
-8 -2 -4 800.32 4.1
9 2 4 15.4 1.4
9 2 4 18.9 1.6
-9 -2 -4 17.5 1.6
-9 -2 -4 20.5 1.6
-10 -2 -4 241.08 2.9
-10 -2 -4 333.07 3.9
10 2 4 242.58 3.1
10 2 4 253.47 2.8
-7 3 4 235.08 2.9
7 -3 -4 220.18 2.5
7 -3 -4 182.88 2.3
7 -3 -4 217.28 2.9
6 -3 -4 169.58 2.1
6 -3 -4 171.38 2.3
6 -3 -4 172.18 2.3
-6 3 4 176.48 2.2
-5 3 4 408.16 3.3
5 -3 -4 405.56 2.7
5 -3 -4 406.16 2.8
5 -3 -4 440.46 3.3
-4 3 4 200.18 2.3
4 -3 -4 207.38 2.2
4 -3 -4 208.58 1.9
4 -3 -4 205.38 2
-3 3 4 852.11 4.2
3 -3 -4 819.02 3.5
3 -3 -4 782.62 3.9
3 -3 -4 763.22 3.4
2 -3 -4 26.8 0.9
2 -3 -4 26 1.1
-2 3 4 31.2 1.2
2 -3 -4 26.3 1.1
-1 3 4 1824.22 5.4
1 -3 -4 1855.21 5.5
-1 3 4 2055.89 6.3
1 -3 -4 1939.51 6
0 -3 -4 71.39 1.5
0 3 4 68.59 1.5
0 -3 -4 68.29 1.5
0 3 4 80.09 1.8
1 3 4 4558.14 8.7
-1 -3 -4 4653.73 8.8
-1 -3 -4 4882.91 9.6
1 3 4 5241.08 9.9
-2 -3 -4 7.6 1
2 3 4 19.7 1.3
-2 -3 -4 7.6 0.9
2 3 4 11.6 1.1
-3 -3 -4 2424.76 6.8
-3 -3 -4 2560.24 6.7
-3 -3 -4 2773.62 7.4
3 3 4 2507.25 6.7
-4 -3 -4 246.58 2.4
-4 -3 -4 235.68 2.4
4 3 4 238.88 2.2
-4 -3 -4 291.37 2.5
5 3 4 1661.73 5.5
-5 -3 -4 1686.03 5.5
-5 -3 -4 1853.81 6.2
-5 -3 -4 1995.6 6.3
-6 -3 -4 504.85 3.3
6 3 4 540.35 3.1
-6 -3 -4 519.95 3.1
7 3 4 409.46 3.1
7 3 4 554.34 3.3
-7 -3 -4 515.85 3.6
-7 -3 -4 514.05 3.1
8 3 4 429.56 3.2
8 3 4 563.04 3.7
-8 -3 -4 589.34 3.9
-8 -3 -4 532.85 3.6
9 3 4 61.49 1.5
9 3 4 76.49 1.6
-9 -3 -4 68.69 2.1
-9 -3 -4 71.09 1.8
7 -4 -4 21.7 1.3
-7 4 4 22.1 1.6
7 -4 -4 20.2 1.5
7 -4 -4 23.1 1.7
6 -4 -4 276.77 2.5
-6 4 4 266.57 3
6 -4 -4 242.88 2.3
6 -4 -4 275.47 3
5 -4 -4 203.48 2.4
5 -4 -4 176.88 2
-5 4 4 175.88 2.3
5 -4 -4 163.28 1.8
4 -4 -4 336.37 2.5
4 -4 -4 341.47 2.6
-4 4 4 360.76 2.9
4 -4 -4 358.86 2.9
3 -4 -4 679.23 3.3
-3 4 4 714.23 3.9
3 -4 -4 693.63 3.8
3 -4 -4 702.43 3.3
2 -4 -4 517.15 2.8
2 -4 -4 517.45 2.8
2 -4 -4 565.84 3.3
-2 4 4 598.34 3.5
-1 4 4 1807.52 5.8
-1 4 4 1571.24 4.9
1 -4 -4 1684.63 5
1 -4 -4 1749.82 5.6
0 4 4 1461.75 4.8
0 -4 -4 1524.95 4.8
0 -4 -4 1548.65 5.2
0 4 4 1704.73 5.5
1 4 4 2157.78 5.8
1 4 4 2486.05 6.6
-1 -4 -4 2332.37 6.1
-1 -4 -4 2333.07 6.4
-2 -4 -4 338.07 2.6
2 4 4 367.66 2.5
-2 -4 -4 387.76 2.7
-2 -4 -4 374.96 2.8
-3 -4 -4 1752.12 5.7
3 4 4 1617.14 5.2
-3 -4 -4 1512.45 5.2
-3 -4 -4 1636.24 5.2
-4 -4 -4 148.49 2.1
-4 -4 -4 132.99 1.8
-4 -4 -4 128.09 1.7
4 4 4 131.09 1.8
-5 -4 -4 1347.67 4.9
-5 -4 -4 1196.28 4.6
5 4 4 1208.98 4.5
-5 -4 -4 1172.48 4.5
-6 -4 -4 49.4 1.7
6 4 4 50.39 1.7
-6 -4 -4 44.8 1.5
7 4 4 480.55 3.2
-7 -4 -4 511.55 3.4
7 4 4 384.96 2.8
-7 -4 -4 467.65 3.2
8 4 4 80.59 1.8
8 4 4 67.39 1.7
-8 -4 -4 76.99 1.7
-8 -4 -4 74.49 1.8
9 4 4 96.89 2.8
9 4 4 263.47 3
-9 -4 -4 280.67 3.2
-9 -4 -4 -32.2 3
6 -5 -4 426.16 3.7
6 -5 -4 374.26 2.9
6 -5 -4 362.26 2.8
-6 5 4 407.26 3.7
5 -5 -4 9 1.3
5 -5 -4 6.5 1.2
-5 5 4 7.2 1.2
5 -5 -4 8.8 0.9
4 -5 -4 826.52 3.7
4 -5 -4 912.41 4.4
4 -5 -4 875.11 3.9
-4 5 4 918.61 4.4
-3 5 4 118.19 1.9
3 -5 -4 107.89 1.5
3 -5 -4 116.19 1.9
3 -5 -4 110.29 1.6
2 -5 -4 1513.85 4.7
-2 5 4 1666.63 5.6
2 -5 -4 1623.04 5.3
2 -5 -4 1448.26 4.5
1 -5 -4 316.77 2.3
1 -5 -4 353.66 2.6
-1 5 4 383.66 2.8
0 -5 -4 1039.7 4.2
0 -5 -4 971.2 3.8
0 5 4 992.1 3.9
0 5 4 1105.79 4.4
-1 -5 -4 278.67 2.2
-1 -5 -4 258.07 2.2
1 5 4 258.87 2.1
-2 -5 -4 675.23 3.4
2 5 4 774.52 3.5
-2 -5 -4 799.62 3.5
-2 -5 -4 776.62 3.7
3 5 4 602.94 3.2
-3 -5 -4 541.05 3
-3 -5 -4 624.74 3.4
-3 -5 -4 596.14 3.1
-4 -5 -4 257.27 2.2
-4 -5 -4 249.28 2.3
-4 -5 -4 277.17 2.4
4 5 4 270.37 2.3
-5 -5 -4 965.5 4.1
-5 -5 -4 1089.59 4.5
5 5 4 996.8 4.3
-5 -5 -4 948.51 4.2
6 5 4 78.59 1.7
-6 -5 -4 75.89 1.5
-6 -5 -4 88.19 1.7
7 5 4 678.03 3.7
7 5 4 789.92 4.1
-7 -5 -4 784.62 4
-7 -5 -4 787.52 4
8 5 4 36.3 1.6
-8 -5 -4 48.2 1.7
8 5 4 48 1.7
-8 -5 -4 42 1.7
9 5 4 275.87 2.9
9 5 4 282.37 3.2
-9 -5 -4 300.07 3.2
-9 -5 -4 335.57 3.3
6 -6 -4 157.58 2.5
6 -6 -4 150.88 2.1
-6 6 4 164.08 2.7
6 -6 -4 141.59 2.2
5 -6 -4 123.39 1.8
5 -6 -4 144.69 2.4
-5 6 4 137.59 2.1
5 -6 -4 122.49 1.8
4 -6 -4 561.64 3.3
4 -6 -4 580.44 3.3
4 -6 -4 579.64 3.7
-4 6 4 628.44 3.8
3 -6 -4 67.59 1.3
3 -6 -4 69.69 1.4
-3 6 4 74.09 1.6
3 -6 -4 68.99 1.3
2 -6 -4 928.71 3.7
2 -6 -4 889.01 3.7
2 -6 -4 900.21 4
-2 6 4 962.6 4.3
1 -6 -4 60.99 1.2
1 -6 -4 61.99 1.3
1 -6 -4 68.79 1.4
-1 6 4 67.29 1.4
0 6 4 898.41 3.7
0 -6 -4 938.91 3.8
0 -6 -4 909.91 3.6
-1 -6 -4 3.1 1
-1 -6 -4 4.5 0.7
1 6 4 3.8 1.1
-1 -6 -4 3.6 0.8
-2 -6 -4 1289.17 4.6
-2 -6 -4 1073.49 4.2
2 6 4 1175.18 4.3
-2 -6 -4 1256.97 4.5
3 6 4 296.07 2.3
-3 -6 -4 292.77 2.3
-3 -6 -4 315.57 2.5
-3 -6 -4 345.47 2.6
-4 -6 -4 709.43 3.6
4 6 4 645.64 3.4
-4 -6 -4 656.13 3.5
-4 -6 -4 627.44 3.3
5 6 4 214.78 2.1
-5 -6 -4 241.28 2.2
-5 -6 -4 217.88 2.3
-5 -6 -4 256.47 2.4
6 6 4 1088.09 4.8
-6 -6 -4 1082.29 4.7
-6 -6 -4 1122.49 4.6
-6 -6 -4 1217.68 5
7 6 4 313.47 2.9
-7 -6 -4 295.87 2.7
-7 -6 -4 312.07 2.9
-8 -6 -4 226.88 2.8
8 6 4 238.08 2.8
-8 -6 -4 217.28 2.9
-5 7 4 235.58 3
5 -7 -4 197.28 2.1
5 -7 -4 218.18 2.9
5 -7 -4 206.88 2.3
4 -7 -4 168.38 1.9
-4 7 4 200.08 2.5
4 -7 -4 97.29 2.4
4 -7 -4 16.7 2.2
-3 7 4 151.78 2.1
3 -7 -4 141.19 1.7
3 -7 -4 148.79 2
3 -7 -4 134.29 1.7
2 -7 -4 -10.4 2.2
-2 7 4 223.98 2.3
2 -7 -4 199.78 2
2 -7 -4 204.18 1.9
1 -7 -4 133.19 1.8
1 -7 -4 128.49 1.7
1 -7 -4 145.59 1.8
0 -7 -4 732.03 3.7
0 7 4 793.62 3.7
0 -7 -4 782.12 3.5
0 -7 -4 862.91 3.8
-1 -7 -4 19.7 1
1 7 4 18.9 1.1
-1 -7 -4 14.6 0.8
-1 -7 -4 11.4 1.3
-2 -7 -4 999.3 4.2
2 7 4 1097.99 4.2
-2 -7 -4 1155.08 4.3
-2 -7 -4 869.01 4.6
-3 -7 -4 3.5 1
-3 -7 -4 -0.9 1.3
3 7 4 1.6 1
-3 -7 -4 2 1
4 7 4 889.11 4.1
-4 -7 -4 895.81 4.2
-4 -7 -4 955.4 4.3
-4 -7 -4 1038.7 4.4
-5 -7 -4 110.99 1.9
5 7 4 120.79 1.7
-5 -7 -4 115.49 1.9
-5 -7 -4 125.79 2
6 7 4 846.12 4.3
-6 -7 -4 857.31 4.4
-6 -7 -4 729.33 4.4
-6 -7 -4 925.71 4.7
-7 -7 -4 13.8 1.2
7 7 4 11.6 1.2
-7 -7 -4 11.4 1.4
-7 -7 -4 11.7 1.1
8 7 4 149.19 2.5
-8 -7 -4 115.19 2.6
-8 -7 -4 172.48 2.6
4 -8 -4 20.5 1.3
4 -8 -4 21 1.4
4 -8 -4 18.4 1.4
-4 8 4 24.9 1.5
3 -8 -4 190.58 2.1
3 -8 -4 210.68 2.3
3 -8 -4 16.4 2.3
2 -8 -4 57.09 1.4
2 -8 -4 61.99 1.4
2 -8 -4 10.8 1.8
2 -8 -4 58.79 1.3
1 -8 -4 399.46 2.7
1 -8 -4 365.36 3
1 -8 -4 439.36 3
1 -8 -4 401.46 2.8
0 -8 -4 260.97 2.4
0 -8 -4 269.17 2.2
0 -8 -4 269.57 2.3
-1 -8 -4 490.55 2.9
-1 -8 -4 462.85 3.1
-1 -8 -4 518.45 3
1 8 4 496.55 3
-2 -8 -4 489.55 3
-2 -8 -4 475.25 2.9
-2 -8 -4 462.65 3.2
2 8 4 467.75 3
3 8 4 361.46 2.7
-3 -8 -4 319.27 2.6
-3 -8 -4 393.96 2.9
-3 -8 -4 379.86 2.8
4 8 4 364.46 2.8
-4 -8 -4 379.16 2.8
-4 -8 -4 423.36 3.1
-4 -8 -4 368.06 2.7
-5 -8 -4 124.79 2.1
5 8 4 108.19 1.7
-5 -8 -4 112.69 2
-5 -8 -4 113.39 1.8
-6 -8 -4 246.68 2.7
6 8 4 261.47 2.8
-6 -8 -4 272.07 2.9
-6 -8 -4 242.38 2.4
-7 -8 -4 1.1 1.4
-7 -8 -4 1.9 1.5
7 8 4 3.2 1.2
-7 -8 -4 0.7 1.3
3 -9 -4 395.76 3.1
3 -9 -4 343.87 3.5
3 -9 -4 392.96 3.5
3 -9 -4 390.86 3.1
2 -9 -4 1.5 1
2 -9 -4 1 1
2 -9 -4 2 1.1
2 -9 -4 1.4 1.2
1 -9 -4 591.64 3.4
1 -9 -4 563.64 3.8
1 -9 -4 537.35 3.3
1 -9 -4 623.24 3.6
0 -9 -4 3.7 0.9
0 -9 -4 5.7 1
0 -9 -4 2.4 1
0 -9 -4 1.9 1
-1 -9 -4 582.54 3.6
-1 -9 -4 654.43 3.7
-1 -9 -4 651.63 3.6
1 9 4 646.84 3.7
2 9 4 25.9 1.1
-2 -9 -4 25.7 1.6
-2 -9 -4 28.3 1.2
-2 -9 -4 28.3 1.3
3 9 4 339.07 2.9
-3 -9 -4 324.77 2.8
-3 -9 -4 362.86 3
-3 -9 -4 348.17 3.1
4 9 4 84.39 1.8
-4 -9 -4 99.79 1.8
-4 -9 -4 76.79 1.7
-4 -9 -4 87.89 1.9
5 9 4 106.09 1.9
-5 -9 -4 115.89 1.9
-5 -9 -4 123.09 2.2
-5 -9 -4 126.19 2
2 -10 -4 75.39 1.9
2 -10 -4 74.49 1.7
2 -10 -4 71.79 1.8
2 -10 -4 77.49 1.8
1 -10 -4 117.19 2
1 -10 -4 119.49 2
1 -10 -4 94.29 1.9
1 -10 -4 105.89 1.8
0 -10 -4 43.3 1.4
0 -10 -4 43 1.5
0 -10 -4 45.1 1.5
0 -10 -4 49.5 1.6
-1 -10 -4 211.68 2.8
-1 -10 -4 186.28 2.3
-1 -10 -4 214.98 2.6
2 10 4 1.5 1.2
-2 -10 -4 4.9 1.3
-2 -10 -4 1.6 1.4
-2 -10 -4 1.2 1.2
3 10 4 199.08 2.6
-3 -10 -4 201.58 2.6
-3 -10 -4 204.78 2.4
-3 -10 -4 191.68 2.5
4 10 4 6.2 1.3
-4 -10 -4 4 1.4
-4 -10 -4 6 1.3
-4 -10 -4 4.7 1.1
1 9 -5 292.77 3.3
-1 -9 5 289.27 3.3
0 9 -5 85.99 2.3
0 -9 5 75.59 1.9
-1 9 -5 194.78 2.8
1 -9 5 180.78 2.6
-2 9 -5 157.48 2.5
2 -9 5 155.38 2.4
3 -9 5 89.59 2.5
4 -9 5 320.57 4.8
4 -9 5 263.07 4.3
4 -9 5 284.67 4.9
4 -9 5 312.87 4.4
3 8 -5 262.67 3.3
-3 -8 5 354.96 3.5
2 8 -5 16.4 1.8
-2 -8 5 0.1 1.4
1 8 -5 302.77 3
-1 -8 5 281.57 3
0 8 -5 2.4 1.4
0 -8 5 3.6 1
1 -8 5 364.86 3.4
-1 8 -5 385.46 3.4
-2 8 -5 32.9 1.5
2 -8 5 16.8 1.7
-3 8 -5 370.96 3.7
3 -8 5 383.26 5.4
3 -8 5 353.96 5.9
3 -8 5 406.46 4
4 -8 5 247.18 3.9
4 -8 5 224.38 3.4
4 -8 5 240.68 3.7
4 -8 5 265.87 3.7
5 -8 5 183.78 5.8
5 -8 5 240.58 3.5
5 -8 5 306.17 5.8
-6 8 -5 229.08 3.2
6 -8 5 165.28 2.9
-4 -7 5 157.68 2.7
4 7 -5 158.68 2.4
3 7 -5 131.49 2.2
-3 -7 5 143.49 2.5
2 7 -5 178.18 2.3
-2 -7 5 188.88 2.5
1 7 -5 482.15 3.5
-1 -7 5 478.95 3.7
0 7 -5 118.09 2.2
0 -7 5 99.09 1.8
-1 7 -5 840.82 4.6
1 -7 5 794.62 4.5
-2 7 -5 13.5 1.1
2 -7 5 12.3 1.4
3 -7 5 1010 6
3 -7 5 935.11 6.7
-3 7 -5 1018.9 5.7
3 -7 5 954.6 7.3
-4 7 -5 30.1 1.8
4 -7 5 32 1.9
4 -7 5 35.1 2.1
4 -7 5 32.5 1.9
-5 7 -5 901.11 5.3
5 -7 5 833.42 13.1
5 -7 5 750.52 5
5 -7 5 821.32 13.1
-6 7 -5 -0.4 1.3
6 -7 5 1.9 1.3
-7 7 -5 336.57 3.3
7 -7 5 283.37 3.3
-5 -6 5 5 1.3
5 6 -5 5.5 1.6
5 6 -5 1.9 1.7
5 6 -5 7.1 2.1
-4 -6 5 410.96 3.5
4 6 -5 371.66 5.8
4 6 -5 348.87 3.1
4 6 -5 387.66 6.4
3 6 -5 67.29 1.7
-3 -6 5 3.5 1.9
2 6 -5 769.32 4.2
-2 -6 5 809.12 4.3
1 6 -5 522.15 3.7
-1 -6 5 511.45 3.4
0 6 -5 617.14 3.9
0 -6 5 538.45 3.6
-1 6 -5 1108.69 5.4
1 -6 5 1025.5 5
2 -6 5 601.64 8.4
2 -6 5 595.74 8.4
-2 6 -5 640.84 4.5
2 -6 5 621.84 4.3
-3 6 -5 1128.39 7.5
3 -6 5 1197.18 6.5
-3 6 -5 1182.28 6.4
3 -6 5 1155.78 7.2
4 -6 5 374.36 4.5
4 -6 5 343.07 3.7
-4 6 -5 394.66 3.9
5 -6 5 596.64 4.3
-5 6 -5 736.93 4.5
6 -6 5 20.4 1.5
-6 6 -5 19.7 1.5
7 -6 5 340.47 3.3
-7 6 -5 388.96 3.4
8 -6 5 -0.7 1.3
-8 6 -5 2 1.3
-5 -5 5 50.09 1.5
5 5 -5 42.6 1.8
5 5 -5 38 1.8
5 5 -5 41.4 2.3
-4 -5 5 692.83 4.1
4 5 -5 670.03 5.4
4 5 -5 592.54 3.9
4 5 -5 574.34 5.9
-3 -5 5 12.2 1.1
3 5 -5 5.3 1.9
3 5 -5 14.7 1.5
3 5 -5 14.5 2.1
-2 -5 5 1542.35 5.6
2 5 -5 1500.35 5.5
1 5 -5 14.4 1.7
-1 -5 5 11.8 1.7
0 5 -5 2106.09 6.9
0 -5 5 2013.4 6.6
1 -5 5 125.89 2.2
-1 5 -5 140.49 2.1
2 -5 5 1798.32 7.3
2 -5 5 1648.94 9.3
-2 5 -5 1802.42 7.5
-2 5 -5 1836.22 10.9
3 -5 5 213.78 3
-3 5 -5 216.78 3.1
3 -5 5 206.08 3
-3 5 -5 229.48 3.2
4 -5 5 495.85 5.4
-4 5 -5 498.15 5.3
4 -5 5 495.15 4
-4 5 -5 513.55 4
5 -5 5 384.06 3.5
-5 5 -5 406.66 3.4
6 -5 5 167.48 2.2
-6 5 -5 200.08 2.5
7 -5 5 401.36 3.3
-7 5 -5 471.65 3.3
8 -5 5 111.59 2.2
-8 5 -5 129.99 2
6 4 -5 103.29 2.3
6 4 -5 105.09 1.9
6 4 -5 15.4 2.6
-6 -4 5 112.19 2.1
5 4 -5 297.67 3.2
-5 -4 5 336.57 3.2
5 4 -5 301.77 3
5 4 -5 344.57 3.8
-4 -4 5 593.74 3.7
4 4 -5 520.75 4.2
4 4 -5 523.05 3.4
4 4 -5 598.54 5.1
-3 -4 5 355.16 2.9
3 4 -5 353.56 3.5
3 4 -5 348.97 3
3 4 -5 375.16 4.5
-2 -4 5 811.72 4.3
2 4 -5 808.02 6
2 4 -5 719.73 3.9
2 4 -5 812.32 7.3
-1 -4 5 283.37 2.5
1 4 -5 266.17 5.6
1 4 -5 288.87 2.5
1 4 -5 303.87 6.8
0 -4 5 1211.28 5.3
0 4 -5 1177.98 5.1
1 -4 5 169.58 2.4
1 -4 5 148.89 3.9
-1 4 -5 160.38 2.3
-1 4 -5 159.88 4.9
2 -4 5 1100.29 5.8
2 -4 5 1042.7 6.5
-2 4 -5 1166.08 6.1
-2 4 -5 1108.69 7.8
3 -4 5 15.5 1.5
3 -4 5 12.4 1.4
-3 4 -5 15 1.8
-3 4 -5 12.7 1.5
-4 4 -5 1745.83 10.9
4 -4 5 1641.54 6.7
-4 4 -5 1672.93 6.9
4 -4 5 1662.33 10.1
5 -4 5 101.09 1.8
-5 4 -5 104.49 2
6 -4 5 1086.29 4.9
-6 4 -5 1121.09 5.1
7 -4 5 115.59 2.1
-7 4 -5 125.49 2
8 -4 5 583.94 3.7
-8 4 -5 644.64 3.7
9 -4 5 71.09 1.7
-9 4 -5 83.69 1.8
6 3 -5 11.1 1.4
-6 -3 5 7.1 1.2
6 3 -5 9.2 1.5
6 3 -5 11.2 1.5
5 3 -5 804.02 4.5
-5 -3 5 840.32 4.5
5 3 -5 379.16 4.4
5 3 -5 828.32 5.2
4 3 -5 11.6 1.3
-4 -3 5 14.7 1.1
4 3 -5 8.6 1.4
4 3 -5 11.6 1.5
-3 -3 5 1126.69 5.1
3 3 -5 1088.69 5.3
3 3 -5 1013.9 4.6
3 3 -5 1191.18 6.5
-2 -3 5 103.19 1.7
2 3 -5 108.19 2.2
2 3 -5 94.69 1.8
2 3 -5 102.69 2.5
-1 -3 5 759.12 4
1 3 -5 823.02 5.7
1 3 -5 756.82 4.2
1 3 -5 808.22 6.4
0 3 -5 455.75 4.9
0 -3 5 447.96 3.4
0 3 -5 427.96 4.9
0 3 -5 419.66 3.3
1 -3 5 718.03 4.4
1 -3 5 682.23 5.3
-1 3 -5 701.13 6.4
-1 3 -5 688.13 4.5
2 -3 5 1580.34 7
2 -3 5 1584.44 7
-2 3 -5 1689.93 8.6
-2 3 -5 1619.04 7.4
3 -3 5 377.36 3.4
3 -3 5 397.26 4
-3 3 -5 430.86 4.6
-3 3 -5 423.16 4
4 -3 5 2693.23 12.9
4 -3 5 2543.65 8
-4 3 -5 2789.92 15.1
-4 3 -5 2642.74 8.6
5 -3 5 240.58 2.7
-5 3 -5 238.38 2.7
6 -3 5 1608.74 5.8
-6 3 -5 1717.43 5.9
7 -3 5 27.8 1.3
-7 3 -5 34 1.6
-8 3 -5 758.52 4.1
8 -3 5 652.23 4
9 -3 5 0.8 1.3
-9 3 -5 0.4 1.3
6 2 -5 177.08 2.3
-6 -2 5 181.98 2.3
6 2 -5 132.69 2.1
6 2 -5 168.98 2.5
5 2 -5 541.45 3.4
-5 -2 5 528.85 3.7
5 2 -5 484.15 3.5
5 2 -5 524.15 3.8
4 2 -5 170.28 2.2
-4 -2 5 172.48 2.3
4 2 -5 153.08 2.2
4 2 -5 166.08 2.4
3 2 -5 924.01 4.5
3 2 -5 870.91 4.2
3 2 -5 926.41 5.1
-3 -2 5 956 4.5
-2 -2 5 13.3 1.3
2 2 -5 11.1 1.2
2 2 -5 13.5 1.4
2 2 -5 12.2 1.3
-1 -2 5 2390.46 7.1
1 2 -5 2368.76 7.4
1 2 -5 2574.94 8.4
1 2 -5 2511.15 8.5
0 -2 5 206.28 2.5
0 2 -5 195.08 2.7
0 -2 5 202.68 2.7
0 2 -5 192.48 2.4
1 -2 5 3111.69 9.5
1 -2 5 3256.27 9.1
-1 2 -5 3139.49 10.1
-1 2 -5 3109.59 9.5
2 -2 5 778.02 4.7
2 -2 5 779.22 4.8
-2 2 -5 734.63 4.9
-2 2 -5 739.83 5.4
3 -2 5 1725.73 6.6
-3 2 -5 1910.51 7.3
3 -2 5 1870.11 8
-3 2 -5 1607.34 8.9
4 -2 5 295.37 2.7
4 -2 5 334.97 4.3
-4 2 -5 310.67 3
-4 2 -5 283.07 4.8
5 -2 5 1482.95 5.6
-5 2 -5 1397.46 22
-5 2 -5 1523.45 5.8
-5 2 -5 1586.64 22.6
6 -2 5 1235.28 4.9
-6 2 -5 1257.77 5
7 -2 5 218.08 2.4
-7 2 -5 228.58 2.4
8 -2 5 395.36 3.1
-8 2 -5 465.35 3.2
9 -2 5 32.8 1.3
-9 2 -5 37.1 1.3
10 -2 5 234.98 2.6
-10 2 -5 189.68 2.7
7 1 -5 50.29 1.7
-7 -1 5 63.39 2
7 1 -5 51.09 1.9
7 1 -5 47.3 1.8
6 1 -5 306.57 2.8
-6 -1 5 322.57 3.1
6 1 -5 274.27 2.8
6 1 -5 303.47 2.9
-5 -1 5 165.18 2.1
5 1 -5 158.28 2.1
5 1 -5 143.89 2
5 1 -5 158.78 2.3
4 1 -5 139.49 1.9
4 1 -5 118.09 1.9
-4 -1 5 138.89 2.1
4 1 -5 133.49 1.9
3 1 -5 578.74 3.4
-3 -1 5 583.44 3.5
3 1 -5 532.85 3.3
3 1 -5 563.14 3.4
2 1 -5 648.64 3.8
-2 -1 5 619.24 3.7
2 1 -5 564.94 3.6
2 1 -5 635.74 3.8
1 1 -5 2644.84 7.7
1 1 -5 2628.24 7.7
-1 -1 5 2574.64 7.5
1 1 -5 2420.06 7.6
0 1 -5 353.16 3.3
0 1 -5 337.87 3.1
0 -1 5 351.66 3.1
0 -1 5 332.77 3
-1 1 -5 2637.34 8.7
-1 1 -5 2676.13 8.2
1 -1 5 2708.53 8
1 -1 5 2731.33 8.3
2 -1 5 184.28 2.4
-2 1 -5 196.58 3
-2 1 -5 182.78 2.5
2 -1 5 191.18 2.6
-3 1 -5 1400.06 7.4
3 -1 5 1583.34 5.9
3 -1 5 1743.53 7.2
-3 1 -5 1512.95 6.1
4 -1 5 40.8 1.7
4 -1 5 40 1.6
-4 1 -5 35 2
-4 1 -5 41.2 1.6
-5 1 -5 1669.53 9.6
5 -1 5 1763.62 5.7
-5 1 -5 1700.63 5.8
-5 1 -5 1557.64 9.2
-6 1 -5 187.78 3.9
-6 1 -5 181.28 3.5
-6 1 -5 164.48 1.9
6 -1 5 165.98 2.1
7 -1 5 316.77 2.7
-7 1 -5 355.16 4.7
-7 1 -5 331.07 2.8
-7 1 -5 371.06 5.6
-8 1 -5 34.9 2.4
8 -1 5 30.8 1.5
-8 1 -5 39.7 1.6
-8 1 -5 35.9 2
-9 1 -5 355.66 6.3
9 -1 5 296.97 2.9
-9 1 -5 315.57 2.8
-9 1 -5 334.87 5.6
-10 1 -5 243.08 2.7
10 -1 5 214.48 2.5
-10 1 -5 227.38 5.7
-10 1 -5 257.47 5.7
7 0 -5 0 1
7 0 -5 0.8 1.4
-7 0 5 1.5 1.6
7 0 -5 4.5 1.1
6 0 -5 388.66 2.9
-6 0 5 437.06 3.2
6 0 -5 359.46 3.1
6 0 -5 398.66 3.2
5 0 -5 127.69 1.7
-5 0 5 25.9 2.4
5 0 -5 122.49 2.1
5 0 -5 120.29 2
-4 0 5 1156.48 4.7
4 0 -5 1199.48 4.5
4 0 -5 1140.09 4.7
4 0 -5 1100.39 4.6
3 0 -5 460.85 3
-3 0 5 432.96 3
3 0 -5 411.26 2.8
3 0 -5 439.76 3
2 0 -5 2484.55 6.9
2 0 -5 2715.33 6.9
-2 0 5 2606.94 7.2
2 0 -5 2659.63 6.8
1 0 -5 1130.89 4.6
1 0 -5 1165.68 4.7
1 0 -5 1093.09 4.8
-1 0 5 1115.29 4.9
0 0 5 1420.26 5.4
0 0 -5 1489.45 5.9
0 0 5 1559.74 5.9
0 0 -5 1600.84 5.8
1 0 5 879.91 4.3
-1 0 -5 852.31 4.7
1 0 5 943.81 4.8
-1 0 -5 886.21 4.4
2 0 5 742.73 4.3
2 0 5 645.64 3.7
-2 0 -5 655.23 3.9
-2 0 -5 644.84 4.3
3 0 5 1617.14 6.5
3 0 5 1460.85 5.5
-3 0 -5 1469.95 5.5
-3 0 -5 1321.87 6.3
4 0 5 52.89 1.8
-4 0 -5 44.4 1.7
4 0 5 45.5 1.3
-4 0 -5 45.3 1.6
-5 0 -5 1457.75 7.1
5 0 5 1440.96 5.3
-5 0 -5 1485.35 7
-5 0 -5 1462.75 5.4
-6 0 -5 19.5 1.5
6 0 5 13.1 0.9
-6 0 -5 15.1 1.2
-6 0 -5 14.1 1.3
7 0 5 732.23 3.8
-7 0 -5 821.52 5.3
-7 0 -5 822.02 5.8
-7 0 -5 729.03 3.9
8 0 5 11.4 1.3
-8 0 -5 4.4 1.4
-8 0 -5 12 1.5
-8 0 -5 12.9 1.7
9 0 5 759.72 4.1
-9 0 -5 759.12 4.1
-9 0 -5 782.02 7.2
-9 0 -5 888.11 6.3
-10 0 -5 19.4 2.1
10 0 5 3.1 1.2
-10 0 -5 12.9 1.5
-10 0 -5 14.2 1.8
7 -1 -5 46 1.4
-7 1 5 8.1 1.9
7 -1 -5 42.3 1.7
7 -1 -5 11 1.7
6 -1 -5 483.45 3.1
-6 1 5 541.95 3.6
6 -1 -5 459.05 3.4
6 -1 -5 457.65 3.2
5 -1 -5 15.4 1.3
-5 1 5 17.9 1.2
5 -1 -5 17.3 1.3
5 -1 -5 17.8 1.2
4 -1 -5 1463.15 4.9
-4 1 5 1415.06 5.2
4 -1 -5 1367.96 5
4 -1 -5 1446.06 5.2
3 -1 -5 15 1.2
3 -1 -5 15.3 0.9
-3 1 5 15.9 0.9
3 -1 -5 16 1.2
2 -1 -5 1186.68 4.4
2 -1 -5 1166.58 4.7
2 -1 -5 1162.88 4.4
-2 1 5 1176.28 4.8
1 -1 -5 25.2 1.3
1 -1 -5 21.4 1.1
-1 1 5 20.9 1.1
0 1 5 1878.61 5.7
0 -1 -5 1990.7 6.1
0 -1 -5 1727.33 6.1
0 1 5 1837.82 6.1
-1 -1 -5 158.28 1.9
-1 -1 -5 152.88 2.3
1 1 5 171.28 2.3
1 1 5 152.08 1.8
2 1 5 1183.58 4.7
-2 -1 -5 1245.18 4.9
2 1 5 1357.16 5.4
-2 -1 -5 1186.68 5.3
-3 -1 -5 813.12 4.5
-3 -1 -5 804.92 3.9
3 1 5 939.91 4.7
3 1 5 798.02 4
-4 -1 -5 971 4.4
-4 -1 -5 1096.59 5.4
-4 -1 -5 986.2 4.9
4 1 5 952 4.2
-5 -1 -5 1102.99 5.4
-5 -1 -5 999 5.3
5 1 5 1010.5 4.2
-5 -1 -5 991.1 4.3
-6 -1 -5 564.94 4.1
6 1 5 549.74 3.2
-6 -1 -5 526.65 3.1
-6 -1 -5 556.24 3.8
-7 -1 -5 820.72 4.8
7 1 5 744.93 3.8
-7 -1 -5 823.02 5.2
-7 -1 -5 749.23 3.8
8 1 5 179.68 2.3
-8 -1 -5 209.18 3
-8 -1 -5 191.48 2.1
-8 -1 -5 202.98 2.7
-9 -1 -5 314.57 3.4
9 1 5 294.07 2.8
-9 -1 -5 290.47 2.7
-9 -1 -5 347.47 3.8
10 1 5 46 1.5
-10 -1 -5 56.79 2.2
-10 -1 -5 48.2 1.8
-10 -1 -5 56.49 2.3
7 -2 -5 215.68 2.5
7 -2 -5 18.9 2.7
7 -2 -5 204.98 2.5
-7 2 5 218.78 3
6 -2 -5 168.38 2.1
6 -2 -5 149.49 1.9
-6 2 5 184.38 2.5
6 -2 -5 166.38 2.3
5 -2 -5 389.76 2.7
-5 2 5 414.36 3.2
5 -2 -5 369.46 2.7
5 -2 -5 386.16 3
4 -2 -5 446.06 3.1
4 -2 -5 434.46 2.6
-4 2 5 430.96 3.1
4 -2 -5 428.76 2.6
3 -2 -5 242.88 2.3
3 -2 -5 224.88 2
-3 2 5 250.47 2.5
3 -2 -5 213.88 1.9
2 -2 -5 679.63 3.3
2 -2 -5 681.53 3.2
2 -2 -5 649.34 3.5
-2 2 5 705.93 3.9
-1 2 5 318.77 2.6
-1 2 5 313.07 2.3
1 -2 -5 286.37 2.5
1 -2 -5 331.57 2.4
0 -2 -5 1903.41 5.6
0 2 5 1839.32 5.9
0 2 5 1732.93 5.3
0 -2 -5 1689.93 5.6
1 2 5 99.59 1.7
1 2 5 113.09 1.7
-1 -2 -5 97.89 1.7
-1 -2 -5 106.89 1.9
-2 -2 -5 1905.91 6.2
2 2 5 2180.08 6.5
-2 -2 -5 1907.71 5.7
2 2 5 1838.82 5.5
-3 -2 -5 9.2 1
3 2 5 1.4 1.1
-3 -2 -5 2.4 1.1
3 2 5 4.2 0.9
-4 -2 -5 4039.5 9.2
-4 -2 -5 3545.25 8.5
-4 -2 -5 3229.48 7.5
4 2 5 3438.46 7.8
5 2 5 7.2 1.1
-5 -2 -5 9.1 0.8
-5 -2 -5 9.8 1.4
-5 -2 -5 8 1
-6 -2 -5 1782.72 6.1
-6 -2 -5 1769.72 6.4
6 2 5 1710.63 5.4
-6 -2 -5 1642.14 5.3
-7 -2 -5 66.29 1.7
-7 -2 -5 68.09 1.8
7 2 5 62.19 1.7
-7 -2 -5 59.49 1.6
8 2 5 501.05 3.3
-8 -2 -5 516.85 3.7
-8 -2 -5 470.15 3.2
-8 -2 -5 528.85 3.9
-9 -2 -5 73.29 1.8
9 2 5 81.19 1.9
-9 -2 -5 90.19 2.2
-9 -2 -5 76.09 1.6
10 2 5 125.29 2.3
-10 -2 -5 128.49 2.4
-10 -2 -5 129.79 2.2
-10 -2 -5 130.09 2.5
-6 3 5 19.6 1.2
6 -3 -5 22 1.5
6 -3 -5 18.6 1.1
6 -3 -5 19.9 1.2
-5 3 5 513.75 3.4
5 -3 -5 491.95 3.2
5 -3 -5 479.45 3.1
5 -3 -5 530.95 3.5
-4 3 5 249.08 2.4
4 -3 -5 257.47 2.6
4 -3 -5 234.18 2
4 -3 -5 228.18 2
3 -3 -5 653.13 3.3
-3 3 5 723.83 3.7
3 -3 -5 709.43 3.7
3 -3 -5 639.94 3.1
2 -3 -5 588.74 2.9
2 -3 -5 655.03 3.1
2 -3 -5 642.54 3.4
-2 3 5 702.63 3.7
1 -3 -5 806.82 3.5
-1 3 5 892.01 4.1
1 -3 -5 783.02 3.7
-1 3 5 772.22 3.4
0 -3 -5 2384.06 6
0 3 5 2215.98 5.8
0 3 5 2573.04 6.8
0 -3 -5 2278.87 6.3
-1 -3 -5 86.19 1.5
1 3 5 86.89 1.4
1 3 5 98.39 1.8
-1 -3 -5 80.69 1.3
2 3 5 2109.69 5.8
-2 -3 -5 2142.29 5.8
2 3 5 2416.96 6.6
-2 -3 -5 2189.58 6.3
3 3 5 815.72 3.7
-3 -3 -5 819.72 3.7
-3 -3 -5 914.91 4.1
4 3 5 1799.42 5.3
-4 -3 -5 2074.49 6.4
-4 -3 -5 1783.12 5.3
-4 -3 -5 1856.21 5.8
5 3 5 47.8 1.1
-5 -3 -5 47.7 1.7
-5 -3 -5 48.3 1.3
-5 -3 -5 52.69 1.4
-6 -3 -5 951.6 4.5
6 3 5 959 4.3
-6 -3 -5 938.51 4.2
-6 -3 -5 1034.8 4.6
7 3 5 18.6 1.1
-7 -3 -5 19.8 1.4
-7 -3 -5 18.8 1.3
-7 -3 -5 19.3 1.4
-8 -3 -5 422.76 3.2
-8 -3 -5 451.15 3.4
8 3 5 414.06 3.2
-8 -3 -5 301.27 3.3
-9 -3 -5 46.2 1.8
9 3 5 41.3 1.6
-9 -3 -5 38 1.6
-9 -3 -5 42 1.6
6 -4 -5 12.5 1.2
-6 4 5 12.2 1.6
6 -4 -5 11.4 1.2
6 -4 -5 10.8 1.2
5 -4 -5 403.76 3.3
-5 4 5 367.76 3.1
5 -4 -5 338.87 2.6
5 -4 -5 334.97 2.7
4 -4 -5 1.9 1.1
4 -4 -5 1.2 1.3
-4 4 5 1.4 1.2
4 -4 -5 0.9 0.8
3 -4 -5 811.92 3.6
3 -4 -5 837.42 4.1
-3 4 5 908.91 4.2
3 -4 -5 792.82 3.6
2 -4 -5 6.9 0.8
2 -4 -5 7.1 0.8
2 -4 -5 8.5 0.9
-2 4 5 7.6 0.9
-1 4 5 1958.6 5.2
1 -4 -5 2015.9 5.4
1 -4 -5 2148.78 5.9
-1 4 5 2173.98 6.1
0 -4 -5 659.53 3.3
0 -4 -5 625.84 3.1
0 4 5 736.13 3.5
0 4 5 623.64 3.1
-1 -4 -5 1710.73 5.4
1 4 5 1551.44 4.8
-1 -4 -5 1593.24 4.8
1 4 5 1782.22 5.4
2 4 5 206.58 1.8
-2 -4 -5 215.58 1.9
-2 -4 -5 213.98 2
2 4 5 236.98 2.2
3 4 5 906.41 3.7
-3 -4 -5 884.71 3.9
-3 -4 -5 942.11 3.8
-3 -4 -5 1040.6 4.3
4 4 5 458.35 2.7
-4 -4 -5 469.25 2.9
-4 -4 -5 543.45 3.1
-4 -4 -5 464.05 2.9
-5 -4 -5 108.99 1.8
-5 -4 -5 123.99 1.7
5 4 5 116.79 1.7
-5 -4 -5 105.99 1.5
-6 -4 -5 477.15 3.2
6 4 5 435.46 2.8
-6 -4 -5 460.15 3
-6 -4 -5 459.35 3.1
7 4 5 83.79 1.8
-7 -4 -5 69.99 1.5
-7 -4 -5 83.09 1.5
-7 -4 -5 24 1.8
-8 -4 -5 454.05 3.3
-8 -4 -5 421.36 3.2
-8 -4 -5 458.95 3.3
8 4 5 436.26 3.3
-9 -4 -5 70.59 2
9 4 5 70.29 1.6
-9 -4 -5 71.29 1.7
-9 -4 -5 67.19 1.7
-6 5 5 146.59 2.5
6 -5 -5 126.29 2
6 -5 -5 130.29 2
6 -5 -5 153.48 2.5
-5 5 5 343.67 3.1
5 -5 -5 312.07 2.7
5 -5 -5 329.47 2.9
5 -5 -5 283.97 2.5
4 -5 -5 275.17 2.2
-4 5 5 310.57 2.7
4 -5 -5 300.87 2.8
4 -5 -5 270.87 2.3
3 -5 -5 596.14 3.2
3 -5 -5 653.83 3.5
-3 5 5 670.73 3.7
3 -5 -5 619.04 3.3
2 -5 -5 284.47 2.2
-2 5 5 345.47 2.8
2 -5 -5 298.07 2.3
2 -5 -5 314.17 2.5
1 -5 -5 993 3.7
-1 5 5 1194.78 4.5
1 -5 -5 1084.39 4.1
0 5 5 128.79 1.5
0 -5 -5 130.09 1.5
0 -5 -5 135.79 1.6
0 5 5 149.99 1.7
1 5 5 783.52 3.4
1 5 5 921.71 3.9
-1 -5 -5 789.32 3.3
-1 -5 -5 822.42 3.6
2 5 5 19.2 1.1
-2 -5 -5 20 0.9
-2 -5 -5 17.2 0.9
3 5 5 1108.99 4
-3 -5 -5 1137.49 4
-3 -5 -5 1126.59 4.3
-3 -5 -5 1012.3 4.1
-4 -5 -5 185.88 2
-4 -5 -5 225.88 2.2
-4 -5 -5 210.38 2
4 5 5 198.38 1.9
5 5 5 901.91 4
-5 -5 -5 1014.5 4.3
-5 -5 -5 880.51 3.9
-5 -5 -5 868.71 3.9
-6 -5 -5 179.68 2
6 5 5 161.08 1.9
-6 -5 -5 182.38 2.2
-6 -5 -5 172.48 2.1
7 5 5 694.73 3.8
-7 -5 -5 699.93 3.8
-7 -5 -5 699.83 3.7
-7 -5 -5 706.73 3.8
8 5 5 181.48 2.2
-8 -5 -5 195.68 2.4
-8 -5 -5 175.98 2.2
-8 -5 -5 174.38 2.3
9 5 5 337.47 3.1
-9 -5 -5 338.47 3.3
-9 -5 -5 321.77 3.1
-9 -5 -5 332.67 3.1
-5 6 5 85.39 2.1
5 -6 -5 75.89 1.8
5 -6 -5 86.09 2.1
5 -6 -5 76.39 1.7
4 -6 -5 523.05 3.2
-4 6 5 620.64 3.9
4 -6 -5 577.04 3.7
4 -6 -5 519.65 3.4
3 -6 -5 134.49 1.8
-3 6 5 138.49 1.9
3 -6 -5 137.59 1.8
3 -6 -5 124.09 1.6
2 -6 -5 460.45 2.7
2 -6 -5 447.96 2.6
-2 6 5 535.15 3.4
2 -6 -5 489.65 3
1 -6 -5 295.27 2.5
-1 6 5 314.07 2.5
1 -6 -5 287.37 2.2
0 6 5 441.76 2.6
0 -6 -5 486.25 2.8
0 6 5 483.95 3
0 -6 -5 433.86 2.5
1 6 5 853.51 3.5
-1 -6 -5 805.32 3.3
-1 -6 -5 777.52 3.5
2 6 5 74.49 1.3
-2 -6 -5 82.99 1.5
-2 -6 -5 68.79 1.3
-2 -6 -5 77.99 1.3
-3 -6 -5 1016.7 4.2
3 6 5 1040.2 4
-3 -6 -5 1086.39 4.3
-3 -6 -5 1063.89 4
4 6 5 39.7 1.4
-4 -6 -5 38.8 1.4
-4 -6 -5 32.8 1.3
-4 -6 -5 39.3 1.2
-5 -6 -5 872.71 4.1
5 6 5 877.31 4.1
-5 -6 -5 955.2 4.1
-5 -6 -5 1046.6 4.3
-6 -6 -5 2.8 1.4
6 6 5 0.5 0.9
-6 -6 -5 0.9 1.2
-6 -6 -5 -0.4 1.2
7 6 5 619.34 3.8
-7 -6 -5 239.18 3.8
-7 -6 -5 610.94 3.6
-7 -6 -5 679.33 3.8
-8 -6 -5 0.4 1.4
8 6 5 -0.3 1.4
-8 -6 -5 0.2 1.1
-8 -6 -5 2.2 1.4
5 -7 -5 4.9 1.4
5 -7 -5 3.6 1.5
-5 7 5 11.6 1.5
5 -7 -5 11.1 1
4 -7 -5 236.08 2.3
4 -7 -5 259.97 2.9
4 -7 -5 225.08 2.2
-4 7 5 279.87 3
-3 7 5 0.6 1
3 -7 -5 1.9 0.9
3 -7 -5 2 1.2
3 -7 -5 1.9 0.9
2 -7 -5 -49.2 3.3
2 -7 -5 561.54 3
-2 7 5 579.54 3.5
2 -7 -5 591.04 3.4
1 -7 -5 186.08 1.9
1 -7 -5 185.18 2
-1 7 5 197.68 2.3
1 -7 -5 181.08 1.8
0 -7 -5 637.64 3.2
0 -7 -5 679.53 3.4
0 7 5 650.23 3.3
-1 -7 -5 341.37 2.5
1 7 5 368.66 2.5
-1 -7 -5 365.76 2.5
-1 -7 -5 387.66 2.6
-2 -7 -5 657.43 3.5
2 7 5 601.24 3.2
-2 -7 -5 570.94 3.3
-2 -7 -5 663.93 3.3
-3 -7 -5 147.69 2
3 7 5 155.38 1.7
-3 -7 -5 162.98 1.9
-3 -7 -5 155.78 1.9
-4 -7 -5 684.13 3.6
4 7 5 689.53 3.5
-4 -7 -5 678.93 3.4
-4 -7 -5 773.22 3.9
-5 -7 -5 399.46 3
-5 -7 -5 393.46 2.9
-5 -7 -5 365.16 2.8
5 7 5 374.86 2.9
6 7 5 192.18 2.1
-6 -7 -5 200.08 2.5
-6 -7 -5 205.48 2.4
-6 -7 -5 217.28 2.4
-7 -7 -5 218.78 2.6
-7 -7 -5 209.28 2.5
-7 -7 -5 213.58 2.5
7 7 5 213.18 2.6
8 7 5 39 1.7
-8 -7 -5 41 1.7
-8 -7 -5 43 1.7
-8 -7 -5 39.8 1.4
4 -8 -5 84.49 1.5
-4 8 5 92.99 2
4 -8 -5 0.1 2
4 -8 -5 78.09 1.5
-3 8 5 56.89 1.9
3 -8 -5 51.89 1.7
3 -8 -5 -7 1.5
3 -8 -5 49.1 1.3
2 -8 -5 447.76 2.9
2 -8 -5 476.25 3
-2 8 5 503.45 3.4
2 -8 -5 485.95 3.3
1 -8 -5 17.2 1
1 -8 -5 17.4 1.3
1 -8 -5 15.7 0.9
1 -8 -5 17.6 1.3
0 8 5 565.04 3.2
0 -8 -5 466.85 3.1
0 -8 -5 527.75 2.9
0 -8 -5 518.75 3.2
-1 -8 -5 45.9 1.6
1 8 5 43.8 1.1
-1 -8 -5 47.6 1.3
-1 -8 -5 43.2 1.2
-2 -8 -5 695.93 3.7
-2 -8 -5 596.64 3.5
-2 -8 -5 653.93 3.4
2 8 5 631.54 3.3
-3 -8 -5 11.2 1.3
-3 -8 -5 22.8 1
-3 -8 -5 19.6 1.3
3 8 5 10.8 1.2
-4 -8 -5 512.25 3.2
4 8 5 508.75 3.3
-4 -8 -5 528.15 3.3
-4 -8 -5 545.85 3.3
-5 -8 -5 19.6 1.2
-5 -8 -5 16.1 1
-5 -8 -5 14.9 1.4
5 8 5 16.2 1.2
6 8 5 289.27 3
-6 -8 -5 292.47 2.6
-6 -8 -5 342.77 3
-6 -8 -5 291.37 3
-7 -8 -5 29 1.5
7 8 5 21.8 1.3
-7 -8 -5 26.6 1.4
-7 -8 -5 27.5 1.3
3 -9 -5 219.18 2.3
3 -9 -5 178.08 2.6
3 -9 -5 187.48 2.5
3 -9 -5 -38 2.3
2 -9 -5 142.99 2.3
2 -9 -5 148.99 2.1
2 -9 -5 -57.29 2
2 -9 -5 153.18 2
1 -9 -5 320.97 2.7
1 -9 -5 332.97 2.9
1 -9 -5 280.07 2.8
1 -9 -5 309.57 2.6
0 -9 -5 250.87 2.3
0 -9 -5 250.77 2.4
0 -9 -5 241.78 2.6
0 -9 -5 279.57 2.5
-1 -9 -5 230.98 2.5
-1 -9 -5 245.38 2.2
1 9 5 243.08 2.3
-1 -9 -5 233.68 2.3
-2 -9 -5 274.37 2.6
2 9 5 259.97 2.3
-2 -9 -5 282.87 2.5
-2 -9 -5 235.88 2.6
-3 -9 -5 42.5 1.4
-3 -9 -5 37.4 1.3
-3 -9 -5 36.3 1.6
3 9 5 33.1 1.1
4 9 5 215.38 2.5
-4 -9 -5 207.28 2.3
-4 -9 -5 220.48 2.4
-4 -9 -5 238.48 2.7
-5 -9 -5 11.7 1.1
5 9 5 11.8 1.1
-5 -9 -5 12 1.1
-5 -9 -5 12.3 1.1
1 -10 -5 -70.49 2.1
1 -10 -5 206.78 2.3
1 -10 -5 204.08 2.7
1 -10 -5 211.88 2.4
0 -10 -5 30.8 1.5
0 -10 -5 27.5 1.7
0 -10 -5 2.5 1.7
0 -10 -5 27.9 1.4
-1 -10 -5 151.28 2
-1 -10 -5 138.19 2.1
-1 -10 -5 132.69 2.2
2 10 5 98.79 1.9
-2 -10 -5 91.89 1.7
-2 -10 -5 110.59 1.9
-2 -10 -5 92.49 1.9
3 10 5 98.39 1.9
-3 -10 -5 84.99 1.9
-3 -10 -5 101.69 2.1
-3 -10 -5 98.59 1.8
2 -9 6 246.88 3.4
-2 9 -6 223.28 3.1
-1 -8 6 135.49 2.4
1 8 -6 139.19 2.3
0 -8 6 51.79 2.1
0 8 -6 76.19 1.9
1 -8 6 133.09 2.4
-1 8 -6 136.89 2.5
2 -8 6 366.66 3.6
-2 8 -6 375.56 3.7
3 -8 6 16.8 1.7
-3 8 -6 14.9 1.6
4 -8 6 441.56 5.7
4 -8 6 510.25 5.3
4 -8 6 454.05 5.9
5 -8 6 2.2 1.9
5 -8 6 0.9 1.8
5 -8 6 1.4 1.6
-3 -7 6 211.58 2.8
3 7 -6 165.38 2.7
-2 -7 6 0.5 1.5
2 7 -6 1.6 1.5
-1 -7 6 390.96 3.3
1 7 -6 389.76 3.3
0 -7 6 121.89 2.1
0 7 -6 137.29 2.3
1 -7 6 581.94 4
-1 7 -6 639.24 4.3
2 -7 6 242.18 2.9
-2 7 -6 254.97 2.9
3 -7 6 511.65 6.7
-3 7 -6 561.54 4.4
3 -7 6 483.65 6.4
3 -7 6 491.95 4.4
-4 7 -6 343.07 4.3
4 -7 6 345.07 4.3
4 -7 6 318.47 4
-4 7 -6 327.77 4
-5 7 -6 -15 4.2
5 -7 6 321.27 6.5
5 -7 6 339.67 3.8
5 -7 6 311.37 6.3
6 -7 6 238.38 3.2
-6 7 -6 290.27 3.3
7 -7 6 71.69 2
-7 7 -6 85.99 2.1
-4 -6 6 58.69 1.8
4 6 -6 44.7 3.6
4 6 -6 -8.6 1.6
4 6 -6 50.89 4.1
-3 -6 6 314.97 3
3 6 -6 269.07 2.9
-2 -6 6 29.5 1.3
2 6 -6 32.6 1.7
-1 -6 6 867.91 4.5
1 6 -6 901.81 4.7
0 -6 6 0.4 1.4
0 6 -6 0.1 1.4
1 -6 6 694.33 4.3
-1 6 -6 768.62 4.6
-2 6 -6 39.3 1.7
2 -6 6 36.9 1.7
-3 6 -6 1170.88 7.9
-3 6 -6 1121.79 6.4
3 -6 6 1012.1 6.8
3 -6 6 1069.99 6.1
-4 6 -6 71.59 2.3
4 -6 6 71.09 2.5
4 -6 6 69.39 2.3
-4 6 -6 76.39 2.5
5 -6 6 658.33 10.7
5 -6 6 589.14 4.4
5 -6 6 639.64 10.7
-5 6 -6 627.14 4.4
6 -6 6 85.99 2
-6 6 -6 94.79 2
7 -6 6 171.98 2.5
-7 6 -6 225.78 2.8
8 -6 6 80.49 1.9
-8 6 -6 100.99 2
-4 -5 6 277.07 2.8
4 5 -6 264.07 3.8
4 5 -6 249.78 2.7
4 5 -6 266.07 4.5
-3 -5 6 375.06 3.4
3 5 -6 341.87 3.2
3 5 -6 335.77 5.7
3 5 -6 391.76 5.2
-2 -5 6 551.54 3.7
2 5 -6 476.15 3.4
-1 -5 6 645.04 3.7
1 5 -6 654.53 4
0 5 -6 352.06 3
0 -5 6 357.06 3
1 -5 6 233.78 2.5
-1 5 -6 266.67 2.8
2 -5 6 216.88 2.7
2 -5 6 227.38 3.9
-2 5 -6 230.98 2.9
-2 5 -6 233.28 4.8
3 -5 6 632.94 4.6
3 -5 6 596.44 4.7
-3 5 -6 688.53 5
-3 5 -6 660.73 5.5
-4 5 -6 12.1 1.5
4 -5 6 9.9 1.4
4 -5 6 9.5 1.6
-4 5 -6 10.1 1.5
5 -5 6 326.07 3.2
-5 5 -6 331.57 3.1
6 -5 6 12.6 1.4
-6 5 -6 11.5 1.4
7 -5 6 493.95 3.6
-7 5 -6 548.75 3.7
8 -5 6 9.9 1.4
-8 5 -6 11.2 1.5
5 4 -6 1.4 1.2
5 4 -6 0.6 1.1
5 4 -6 0.5 1.6
-5 -4 6 0.2 1.2
4 4 -6 678.03 4.8
-4 -4 6 695.43 4.2
4 4 -6 625.44 4
4 4 -6 749.82 6
3 4 -6 5 1.3
3 4 -6 5.4 1.5
3 4 -6 5.2 1.8
-3 -4 6 6.2 1.2
2 4 -6 1212.08 7.2
2 4 -6 969.9 4.7
2 4 -6 1182.18 8.7
-2 -4 6 1031.3 4.7
-1 -4 6 43.3 1.7
1 4 -6 43.1 2.3
1 4 -6 49 1.7
1 4 -6 48.1 2.7
0 -4 6 838.42 4.3
0 4 -6 802.32 9.5
0 4 -6 830.12 4.4
0 4 -6 879.61 9.7
1 -4 6 178.78 2.3
1 -4 6 176.48 3.5
-1 4 -6 177.38 2.5
-1 4 -6 187.68 4.4
2 -4 6 1158.58 6.5
2 -4 6 1201.28 5.6
-2 4 -6 1191.38 5.9
-2 4 -6 1209.28 8.4
3 -4 6 692.93 4.6
3 -4 6 756.32 4.9
-3 4 -6 808.92 5.5
-3 4 -6 757.02 5.8
-4 4 -6 628.14 5.6
4 -4 6 581.64 4
-4 4 -6 553.74 4.3
4 -4 6 587.74 4.9
5 -4 6 631.94 4
-5 4 -6 642.54 4.3
6 -4 6 367.06 3.2
-6 4 -6 348.37 3
7 -4 6 785.42 4.4
-7 4 -6 870.31 4.5
8 -4 6 63.79 1.6
-8 4 -6 70.79 1.9
9 -4 6 404.36 3.3
-9 4 -6 496.75 3.7
5 3 -6 118.19 2.1
5 3 -6 94.39 1.9
5 3 -6 115.49 2.4
-5 -3 6 124.69 2.2
4 3 -6 392.36 3.2
-4 -3 6 391.06 3
4 3 -6 364.86 2.9
4 3 -6 417.66 3.9
3 3 -6 181.58 2.4
-3 -3 6 178.48 2.2
3 3 -6 167.98 2.3
3 3 -6 184.08 2.8
2 3 -6 705.93 4.7
-2 -3 6 674.53 3.8
2 3 -6 636.84 3.9
2 3 -6 709.93 5.2
-1 -3 6 61.79 1.5
1 3 -6 64.09 1.8
1 3 -6 64.99 1.7
1 3 -6 60.59 1.9
0 3 -6 1213.68 6.7
0 -3 6 1154.68 4.9
0 3 -6 1111.79 6.5
0 3 -6 1085.99 5
1 -3 6 37.2 1.7
1 -3 6 27.8 1.4
-1 3 -6 26.6 1.8
-1 3 -6 29.3 1.7
2 -3 6 2391.46 8.1
2 -3 6 2453.85 7.8
-2 3 -6 2387.96 9.7
-2 3 -6 2168.88 8.1
3 -3 6 346.07 3.1
3 -3 6 355.46 3.4
-3 3 -6 373.16 3.7
-3 3 -6 343.87 3.9
4 -3 6 1768.52 8
4 -3 6 1709.73 6.4
-4 3 -6 1763.12 7
-4 3 -6 1717.43 9.6
-5 3 -6 384.76 7.3
5 -3 6 340.77 3
-5 3 -6 357.36 3.1
6 -3 6 1159.08 4.9
-6 3 -6 1085.19 5
7 -3 6 199.48 2.3
-7 3 -6 210.08 2.3
8 -3 6 333.47 2.9
-8 3 -6 357.86 2.9
9 -3 6 155.58 2.3
-9 3 -6 163.18 2.2
-6 -2 6 47.5 1.5
6 2 -6 41.3 1.4
6 2 -6 39.9 1.6
6 2 -6 52.49 1.9
5 2 -6 237.08 2.5
-5 -2 6 231.78 2.6
5 2 -6 194.68 2.4
5 2 -6 224.48 2.8
4 2 -6 217.38 2.3
-4 -2 6 215.28 2.4
4 2 -6 203.78 2.4
4 2 -6 197.98 2.6
-3 -2 6 429.86 3.3
3 2 -6 428.96 3.2
3 2 -6 386.66 3
3 2 -6 429.16 3.5
2 2 -6 573.84 3.8
-2 -2 6 592.44 3.6
2 2 -6 531.85 3.5
2 2 -6 579.24 4
1 2 -6 243.88 2.7
-1 -2 6 247.88 2.5
1 2 -6 223.78 2.3
1 2 -6 256.47 2.7
0 -2 6 1557.44 6.4
0 2 -6 1558.14 6.4
0 -2 6 1626.24 5.7
0 2 -6 1507.75 5.8
1 -2 6 318.27 3
-1 2 -6 331.77 3.2
1 -2 6 337.07 2.8
-1 2 -6 322.97 3.2
2 -2 6 1831.32 6.5
-2 2 -6 1763.22 6.9
2 -2 6 1797.32 6.6
-2 2 -6 1622.84 6.9
-3 2 -6 325.17 3.7
3 -2 6 355.96 3
-3 2 -6 359.06 3.2
3 -2 6 373.26 3.4
-4 2 -6 1870.91 9.5
4 -2 6 2196.98 6.9
4 -2 6 2388.16 9
-4 2 -6 2372.46 7.4
-5 2 -6 57.99 2.8
5 -2 6 63.29 1.7
-5 2 -6 57.59 1.5
6 -2 6 1024.8 4.6
-6 2 -6 981.1 4.6
7 -2 6 10.8 1.1
-7 2 -6 11 1.5
8 -2 6 434.36 3.3
-8 2 -6 437.96 3.1
9 -2 6 36 1.3
-9 2 -6 41.2 1.6
6 1 -6 0.9 1
-6 -1 6 0.7 1
6 1 -6 1.5 1.3
6 1 -6 1.5 1.1
5 1 -6 312.97 2.7
-5 -1 6 303.77 3
5 1 -6 276.07 2.6
5 1 -6 287.97 2.7
-4 -1 6 17.9 1.2
4 1 -6 20.9 1
4 1 -6 17.9 1.1
4 1 -6 17 1.3
3 1 -6 957.2 4.3
-3 -1 6 941.61 4.6
3 1 -6 926.61 4.4
3 1 -6 935.91 4.5
2 1 -6 227.68 2.2
-2 -1 6 236.18 2.3
2 1 -6 218.78 2.2
2 1 -6 227.98 2.4
1 1 -6 1396.96 5.4
1 1 -6 1417.56 5.4
-1 -1 6 1269.27 4.9
1 1 -6 1307.67 5.2
0 1 -6 682.03 4
0 -1 6 651.13 3.7
0 1 -6 653.43 3.9
0 -1 6 638.04 3.6
-1 1 -6 2147.49 7.1
1 -1 6 2068.69 6.6
-1 1 -6 2120.99 6.8
1 -1 6 2182.08 6.7
-2 1 -6 638.84 4.2
2 -1 6 660.33 3.8
-2 1 -6 671.33 4
2 -1 6 659.73 3.8
-3 1 -6 2294.37 8.4
3 -1 6 2543.45 6.9
-3 1 -6 2474.15 7.3
3 -1 6 2649.73 8.1
-4 1 -6 1053.59 6.1
4 -1 6 1177.68 4.8
-4 1 -6 1282.37 5.1
4 -1 6 1383.76 6.3
5 -1 6 318.97 2.7
-5 1 -6 253.77 3.4
-5 1 -6 299.47 2.7
-5 1 -6 266.07 3.4
-6 1 -6 768.32 6.5
6 -1 6 796.02 4
-6 1 -6 752.62 3.7
-6 1 -6 695.63 6.1
7 -1 6 71.69 1.7
-7 1 -6 72.69 2.8
-7 1 -6 66.89 1.5
-7 1 -6 75.19 2.5
-8 1 -6 999.1 8.8
8 -1 6 928.01 4.6
-8 1 -6 768.72 4.8
-8 1 -6 1067.99 10.2
-9 1 -6 14.8 2.2
-9 1 -6 14.3 2.7
9 -1 6 3.6 1.5
-9 1 -6 11.4 1.2
10 -1 6 344.17 3.3
-10 1 -6 351.06 3.1
6 0 -6 113.49 1.8
-6 0 6 112.49 2.2
6 0 -6 108.19 2
6 0 -6 124.19 2.1
-5 0 6 224.98 2.4
5 0 -6 193.28 2.3
5 0 -6 223.28 2.4
5 0 -6 237.58 2.3
4 0 -6 525.35 3.1
-4 0 6 544.25 3.4
4 0 -6 529.65 3.3
4 0 -6 518.65 3.2
3 0 -6 1447.76 5
-3 0 6 1489.65 5.4
3 0 -6 1378.56 5.1
3 0 -6 1385.76 5
2 0 -6 111.19 1.7
2 0 -6 121.09 1.9
-2 0 6 112.79 1.7
2 0 -6 111.49 1.8
1 0 -6 1869.41 6
1 0 -6 2017 6
1 0 -6 1975.5 5.8
-1 0 6 1944.41 6.1
0 0 6 254.47 2.2
0 0 -6 268.67 2.5
0 0 -6 278.57 2.5
0 0 6 258.97 2.5
1 0 6 2105.19 6.1
-1 0 -6 2011.7 6.7
-1 0 -6 2121.99 6.3
1 0 6 2093.09 6.4
2 0 6 14 1.1
2 0 6 11.9 0.9
-2 0 -6 12.6 1.3
-2 0 -6 9.8 1.5
-3 0 -6 1680.73 5.6
-3 0 -6 1453.25 6.1
3 0 6 1795.12 6.2
3 0 6 1603.54 5.4
4 0 6 381.16 2.8
-4 0 -6 381.26 2.8
-4 0 -6 380.96 3.3
4 0 6 463.85 3.5
-5 0 -6 1023.6 5.6
-5 0 -6 1049.89 5.5
-5 0 -6 1115.19 4.5
5 0 6 1109.49 4.4
-6 0 -6 711.03 5
-6 0 -6 695.73 4.8
6 0 6 679.03 3.5
-6 0 -6 659.93 3.5
7 0 6 1372.96 5.1
-7 0 -6 1587.54 8
-7 0 -6 1501.45 7.2
-7 0 -6 1472.75 5.2
8 0 6 742.13 3.9
-8 0 -6 862.51 6.6
-8 0 -6 782.42 3.9
-8 0 -6 821.42 5.7
9 0 6 290.67 2.7
-9 0 -6 274.07 2.9
-9 0 -6 347.37 4.7
-9 0 -6 295.77 4.3
-10 0 -6 273.87 5.3
10 0 6 263.37 2.7
-10 0 -6 240.88 2.9
-10 0 -6 260.67 4.5
6 -1 -6 378.06 3.1
-6 1 6 401.96 3.6
6 -1 -6 353.66 3.4
6 -1 -6 335.67 3
5 -1 -6 169.98 1.9
-5 1 6 181.78 2.3
5 -1 -6 168.38 2.1
5 -1 -6 158.48 2
-4 1 6 581.04 3.5
4 -1 -6 542.45 3.1
4 -1 -6 529.35 3.2
4 -1 -6 574.64 3.4
3 -1 -6 554.84 3.4
3 -1 -6 565.64 3.1
-3 1 6 531.95 3.4
3 -1 -6 543.55 3.2
2 -1 -6 692.23 3.3
2 -1 -6 659.63 3.6
2 -1 -6 688.53 3.4
-2 1 6 671.13 3.7
1 -1 -6 537.75 3.3
1 -1 -6 608.24 3.1
-1 1 6 551.24 3.4
0 1 6 587.34 3.1
0 -1 -6 608.74 3.2
0 -1 -6 525.85 3.4
0 1 6 550.24 3.3
1 1 6 1543.75 5.3
1 1 6 1378.36 4.8
-1 -1 -6 1383.86 4.8
-1 -1 -6 1361.16 5.1
2 1 6 40.6 1.3
-2 -1 -6 32.3 1
2 1 6 36.1 1.4
-2 -1 -6 32.5 1.2
3 1 6 1340.77 4.7
3 1 6 1578.14 5.6
-3 -1 -6 1380.46 4.8
-3 -1 -6 1402.66 5.6
-4 -1 -6 16 1.4
4 1 6 13.6 0.9
-4 -1 -6 18.9 1.1
4 1 6 16.4 1.3
-5 -1 -6 1863.01 6.6
5 1 6 1850.31 5.6
-5 -1 -6 1939.61 6.8
-5 -1 -6 1872.11 5.6
-6 -1 -6 24.3 1.5
6 1 6 21.9 1
-6 -1 -6 21.1 1
-6 -1 -6 22.8 1.4
-7 -1 -6 1282.67 5.9
-7 -1 -6 1294.77 6.4
7 1 6 1248.18 4.8
-7 -1 -6 1231.58 4.7
-8 -1 -6 35.1 1.6
8 1 6 32.3 1.5
-8 -1 -6 32.1 1.8
-8 -1 -6 33.4 1.5
9 1 6 453.05 3.3
-9 -1 -6 519.05 4.2
-9 -1 -6 499.85 4.7
-9 -1 -6 464.65 3.3
10 1 6 64.89 1.8
-10 -1 -6 11.9 2.4
-10 -1 -6 56.09 1.7
-10 -1 -6 75.49 2.6
6 -2 -6 321.67 2.9
6 -2 -6 322.47 2.9
6 -2 -6 354.56 3.3
-6 2 6 358.06 3.3
5 -2 -6 3.5 0.9
-5 2 6 5.3 1.1
5 -2 -6 2.3 0.9
5 -2 -6 3.4 1.4
4 -2 -6 427.46 2.7
-4 2 6 458.95 3.3
4 -2 -6 405.06 2.7
4 -2 -6 455.45 3.1
3 -2 -6 15.3 1.3
-3 2 6 17.7 1.1
3 -2 -6 15.2 0.9
3 -2 -6 17.5 1.1
2 -2 -6 823.62 3.4
2 -2 -6 835.72 3.4
-2 2 6 803.92 3.9
2 -2 -6 777.32 3.8
-1 2 6 213.58 2.1
-1 2 6 213.68 2
1 -2 -6 230.88 2.1
1 -2 -6 193.18 1.9
0 2 6 889.21 3.9
0 -2 -6 921.21 3.8
0 -2 -6 822.72 3.9
0 2 6 870.81 3.6
1 2 6 592.34 3.1
-1 -2 -6 630.24 3.2
1 2 6 640.24 3.4
-1 -2 -6 572.34 3.3
2 2 6 1641.54 5.4
2 2 6 1400.96 4.7
-2 -2 -6 1462.35 4.8
-2 -2 -6 1400.26 5
-3 -2 -6 1143.29 4.7
3 2 6 1005.3 4
-3 -2 -6 1049.2 4.1
3 2 6 1247.38 4.7
4 2 6 962.6 4
4 2 6 1224.08 4.9
-4 -2 -6 933.51 3.8
-4 -2 -6 1081.69 4.7
-5 -2 -6 1023.9 4.6
5 2 6 941.11 3.9
-5 -2 -6 972.3 4.1
-5 -2 -6 1125.29 4.9
-6 -2 -6 525.85 3.5
-6 -2 -6 531.95 3.7
6 2 6 512.95 3.1
-6 -2 -6 489.45 2.9
-7 -2 -6 542.35 3.9
7 2 6 538.75 3.3
-7 -2 -6 517.85 3.6
-7 -2 -6 490.95 3.1
8 2 6 94.19 1.6
-8 -2 -6 95.59 2
-8 -2 -6 88.29 1.8
-8 -2 -6 96.69 1.9
9 2 6 434.96 3.4
-9 -2 -6 422.86 4.1
-9 -2 -6 417.56 3.3
-9 -2 -6 402.96 3.7
10 2 6 0.8 1.1
-10 -2 -6 8.9 1.6
-10 -2 -6 -1.3 1.5
-10 -2 -6 0.4 1.3
-6 3 6 124.69 2.1
6 -3 -6 111.89 1.7
6 -3 -6 111.39 1.9
6 -3 -6 132.09 2.3
-5 3 6 113.79 1.9
5 -3 -6 105.59 1.8
5 -3 -6 99.39 1.6
5 -3 -6 113.19 1.9
-4 3 6 369.86 2.9
4 -3 -6 399.06 3
4 -3 -6 394.36 2.7
4 -3 -6 336.37 2.5
-3 3 6 68.19 1.8
3 -3 -6 64.79 1.2
3 -3 -6 66.79 1.5
3 -3 -6 57.99 1.3
2 -3 -6 1119.69 4
2 -3 -6 1123.39 4
-2 3 6 1254.87 4.9
2 -3 -6 1136.49 4.4
-1 3 6 7.2 0.9
1 -3 -6 7.4 0.9
-1 3 6 12.2 1.1
1 -3 -6 6.4 1
0 3 6 1866.41 5.1
0 -3 -6 1997.6 5.4
0 3 6 2092.69 5.9
0 -3 -6 1887.31 5.5
1 3 6 189.88 1.7
-1 -3 -6 191.48 1.9
-1 -3 -6 192.48 1.9
1 3 6 217.18 2.1
-2 -3 -6 2580.14 6.5
-2 -3 -6 2793.72 6.4
2 3 6 2940.91 6.9
2 3 6 2579.34 6.1
3 3 6 83.19 1.3
-3 -3 -6 89.49 1.7
-3 -3 -6 82.09 1.3
3 3 6 93.59 1.6
-4 -3 -6 2075.29 5.9
4 3 6 2062.29 5.5
-4 -3 -6 2060.99 5.5
-4 -3 -6 2438.56 6.5
-5 -3 -6 350.96 2.8
-5 -3 -6 308.67 2.5
5 3 6 300.17 2.3
-5 -3 -6 292.47 2.2
-6 -3 -6 873.91 4.3
6 3 6 814.22 3.8
-6 -3 -6 895.71 4.2
-6 -3 -6 815.52 3.7
-7 -3 -6 484.35 3.5
7 3 6 436.36 3
-7 -3 -6 426.66 2.9
-7 -3 -6 488.45 3.3
-8 -3 -6 175.78 2.3
8 3 6 171.48 2.4
-8 -3 -6 188.98 2.5
-8 -3 -6 155.48 2.1
9 3 6 278.27 2.8
-9 -3 -6 283.27 3.3
-9 -3 -6 274.67 2.7
-9 -3 -6 277.37 2.9
6 -4 -6 31.5 1.3
-6 4 6 31.3 1.4
6 -4 -6 28.4 1.2
6 -4 -6 -6.1 1.6
5 -4 -6 175.98 2.4
5 -4 -6 152.58 2.1
-5 4 6 164.38 2.4
5 -4 -6 139.59 1.9
4 -4 -6 322.47 2.8
4 -4 -6 277.37 2.5
-4 4 6 297.77 2.8
4 -4 -6 255.17 2.3
3 -4 -6 320.57 2.3
3 -4 -6 330.27 2.6
-3 4 6 369.86 3
3 -4 -6 316.97 2.3
2 -4 -6 1063.09 4
2 -4 -6 1046.7 4.2
-2 4 6 1198.98 4.7
2 -4 -6 1011.3 4
-1 4 6 550.24 2.8
1 -4 -6 525.55 3
-1 4 6 590.34 3.3
1 -4 -6 574.54 2.9
0 4 6 1111.69 4.3
0 4 6 1022.3 3.7
0 -4 -6 1072.39 3.8
0 -4 -6 1018.4 4.1
-1 -4 -6 265.67 2.2
1 4 6 251.17 2
-1 -4 -6 256.77 2.1
1 4 6 289.97 2.3
2 4 6 1080.89 4
2 4 6 1253.27 4.4
-2 -4 -6 1128.39 4.2
-2 -4 -6 1120.19 4
3 4 6 63.99 1.3
-3 -4 -6 68.19 1.3
3 4 6 82.19 1.5
-3 -4 -6 81.89 1.3
-4 -4 -6 1077.69 4.3
4 4 6 862.81 3.7
-4 -4 -6 895.71 3.6
-4 -4 -6 918.11 3.8
5 4 6 3.8 1.1
-5 -4 -6 6.3 1.2
-5 -4 -6 5.1 0.8
-5 -4 -6 8.8 1.2
-6 -4 -6 517.55 3.3
-6 -4 -6 438.06 2.8
6 4 6 447.36 2.8
-6 -4 -6 512.75 3.3
-7 -4 -6 88.59 1.7
-7 -4 -6 85.29 1.8
7 4 6 81.69 1.7
-7 -4 -6 78.09 1.5
8 4 6 314.07 2.9
-8 -4 -6 333.67 2.9
-8 -4 -6 330.37 2.8
-8 -4 -6 309.57 2.7
9 4 6 65.49 1.5
-9 -4 -6 64.19 1.7
-9 -4 -6 45.6 2.2
-9 -4 -6 65.59 1.7
5 -5 -6 381.16 3.4
-5 5 6 356.96 3.4
5 -5 -6 300.27 2.9
5 -5 -6 -78.89 2.6
4 -5 -6 9.4 1.4
4 -5 -6 13.2 1.2
-4 5 6 9.5 1.1
4 -5 -6 9.8 1.1
3 -5 -6 865.51 3.7
3 -5 -6 931.21 4.4
-3 5 6 953.2 4.5
3 -5 -6 931.61 3.8
2 -5 -6 95.39 1.4
2 -5 -6 94.99 1.6
2 -5 -6 103.69 1.8
-2 5 6 111.79 1.7
-1 5 6 863.61 4
1 -5 -6 783.22 3.4
1 -5 -6 810.42 3.7
0 5 6 263.27 2
0 -5 -6 269.77 2.1
0 5 6 304.47 2.5
0 -5 -6 262.87 2.2
1 5 6 403.96 2.5
-1 -5 -6 448.86 2.7
1 5 6 498.65 3
-1 -5 -6 416.36 2.5
2 5 6 554.44 2.8
-2 -5 -6 579.04 2.9
-2 -5 -6 581.44 3.1
2 5 6 701.03 3.3
-3 -5 -6 356.66 2.5
-3 -5 -6 393.86 2.5
3 5 6 342.37 2.3
-3 -5 -6 382.66 2.5
-4 -5 -6 802.82 3.8
4 5 6 760.52 3.5
-4 -5 -6 715.13 3.5
-4 -5 -6 794.92 3.5
5 5 6 130.09 1.7
-5 -5 -6 133.59 1.8
-5 -5 -6 150.08 1.8
-5 -5 -6 131.49 1.7
-6 -5 -6 760.92 3.9
6 5 6 684.73 3.5
-6 -5 -6 727.43 3.7
-6 -5 -6 806.32 4
7 5 6 104.79 1.9
-7 -5 -6 100.19 1.7
-7 -5 -6 110.09 1.9
-7 -5 -6 107.09 1.7
8 5 6 513.95 3.6
-8 -5 -6 487.75 3.3
-8 -5 -6 495.75 3.4
-8 -5 -6 487.45 3.4
9 5 6 5.6 1.5
-9 -5 -6 8.6 1.5
-9 -5 -6 14.2 1.4
-9 -5 -6 6.1 1.6
5 -6 -6 241.68 3
5 -6 -6 195.88 2.4
5 -6 -6 -62.19 2
-5 6 6 223.68 2.7
-4 6 6 60.09 1.7
4 -6 -6 51.99 1.3
4 -6 -6 56.29 1.7
4 -6 -6 47.5 1.2
-3 6 6 420.66 3.3
3 -6 -6 405.06 3.1
3 -6 -6 406.26 2.8
3 -6 -6 387.76 2.7
2 -6 -6 39.9 1.1
2 -6 -6 39.7 1.2
-2 6 6 46.9 1.5
2 -6 -6 42.4 1.4
1 -6 -6 538.65 3
1 -6 -6 568.24 3.1
-1 6 6 632.64 3.6
0 -6 -6 14.5 0.9
0 6 6 13.3 0.9
0 -6 -6 15 0.8
0 6 6 17.1 1.3
1 6 6 817.92 3.5
-1 -6 -6 839.02 3.7
-1 -6 -6 884.81 3.5
1 6 6 984.2 4
-2 -6 -6 235.28 2.1
2 6 6 247.28 2.1
-2 -6 -6 250.77 2
-2 -6 -6 246.68 2.1
-3 -6 -6 637.64 3.4
-3 -6 -6 688.63 3.3
3 6 6 661.73 3.3
-3 -6 -6 716.63 3.6
-4 -6 -6 339.87 2.5
-4 -6 -6 370.26 2.8
4 6 6 355.96 2.5
-4 -6 -6 377.96 2.6
5 6 6 712.33 3.4
-5 -6 -6 747.23 3.6
-5 -6 -6 -14 4.2
-5 -6 -6 696.63 3.6
6 6 6 270.87 2.5
-6 -6 -6 275.57 2.7
-6 -6 -6 270.57 2.5
-6 -6 -6 290.77 2.5
-7 -6 -6 378.76 3
-7 -6 -6 353.66 2.8
7 6 6 360.76 2.8
-7 -6 -6 359.76 2.9
8 6 6 172.38 2.5
-8 -6 -6 170.88 2.3
-8 -6 -6 171.38 2.2
-8 -6 -6 175.48 2.3
4 -7 -6 106.59 1.8
4 -7 -6 122.79 2.2
-4 7 6 134.69 2.2
4 -7 -6 114.49 2
3 -7 -6 126.39 1.8
3 -7 -6 125.19 2
-3 7 6 132.69 1.9
3 -7 -6 118.39 1.7
2 -7 -6 64.79 1.7
-2 7 6 94.09 1.7
2 -7 -6 87.89 1.7
2 -7 -6 91.89 1.6
1 -7 -6 400.56 2.7
1 -7 -6 450.05 2.9
1 -7 -6 -0.1 3.2
-1 7 6 469.35 3.3
0 -7 -6 31.9 1
0 7 6 35.4 1.4
0 7 6 31.6 1.3
0 -7 -6 32.2 1.1
1 7 6 761.92 3.5
-1 -7 -6 788.92 3.5
-1 -7 -6 768.22 3.5
-2 -7 -6 19.5 1
2 7 6 23.7 1.1
-2 -7 -6 24.3 1.3
-2 -7 -6 25.2 1
-3 -7 -6 794.92 3.7
3 7 6 808.22 3.6
-3 -7 -6 925.01 3.9
-3 -7 -6 913.81 4
-4 -7 -6 44.1 1.3
-4 -7 -6 39.9 1.2
4 7 6 43 1.3
-4 -7 -6 45.7 1.4
5 7 6 633.64 3.5
-5 -7 -6 642.24 3.7
-5 -7 -6 653.23 3.5
-5 -7 -6 -8.6 4.4
6 7 6 7.3 0.9
-6 -7 -6 10.5 1.4
-6 -7 -6 7.1 0.9
-6 -7 -6 8.1 1.1
-7 -7 -6 165.28 2.1
-7 -7 -6 169.68 2.3
7 7 6 171.68 2.3
-7 -7 -6 174.98 2.2
-3 8 6 2.9 1.4
3 -8 -6 26.9 1.1
3 -8 -6 28.3 1.5
3 -8 -6 27.4 1.3
2 -8 -6 -47.2 2.1
2 -8 -6 266.17 2.3
2 -8 -6 275.27 2.6
-2 8 6 300.57 2.9
1 -8 -6 163.98 2
-1 8 6 170.78 2.1
1 -8 -6 174.78 2
1 -8 -6 178.98 2.1
0 -8 -6 377.36 3
0 -8 -6 429.66 2.9
0 -8 -6 422.76 2.8
0 8 6 447.56 2.8
1 8 6 293.07 2.2
-1 -8 -6 257.97 2.4
-1 -8 -6 273.07 2.4
-1 -8 -6 273.27 2.2
2 8 6 428.56 2.8
-2 -8 -6 408.76 2.7
-2 -8 -6 396.76 3
-2 -8 -6 409.56 3.2
3 8 6 318.97 2.7
-3 -8 -6 320.57 2.7
-3 -8 -6 380.86 2.8
-3 -8 -6 386.26 3
-4 -8 -6 179.18 2
4 8 6 -10 2
-4 -8 -6 169.28 2.1
-4 -8 -6 180.48 2.1
5 8 6 337.07 2.7
-5 -8 -6 260.97 3
-5 -8 -6 362.36 2.7
-5 -8 -6 290.17 3.2
6 8 6 7 1.3
-6 -8 -6 4.7 1.3
-6 -8 -6 3.8 1.3
-6 -8 -6 2.8 1.1
2 -9 -6 344.27 3.1
2 -9 -6 346.27 3.1
2 -9 -6 419.66 3.3
2 -9 -6 384.86 3.1
1 -9 -6 6.3 1.3
1 -9 -6 7.6 1
1 -9 -6 5.1 1.3
1 -9 -6 1.3 1
0 -9 -6 420.86 3.3
0 -9 -6 442.56 3.2
0 -9 -6 441.96 3.1
1 9 6 3 0.9
-1 -9 -6 3 1
-1 -9 -6 4.1 1.2
-1 -9 -6 2 1.1
2 9 6 236.98 2.3
-2 -9 -6 244.78 2.6
-2 -9 -6 246.78 2.3
-2 -9 -6 241.38 2.6
-3 -9 -6 20.4 1.2
-3 -9 -6 22.3 1.3
3 9 6 22.1 1.3
-3 -9 -6 20 1.5
4 9 6 150.88 2.2
-4 -9 -6 139.59 2.4
-4 -9 -6 146.89 2.3
-4 -9 -6 154.78 2.1
5 9 6 35.1 2.3
-5 -9 -6 188.78 2.7
-5 -9 -6 195.48 2.3
-5 -9 -6 183.88 2.5
1 10 6 -0.2 1.1
-1 -10 -6 11 1
-1 -10 -6 7.8 1.1
-1 -10 -6 -0.8 1
2 10 6 175.18 2.3
-2 -10 -6 150.68 2.4
-2 -10 -6 171.88 2.3
-2 -10 -6 -6.6 2.3
3 10 6 0.5 1.2
-3 -10 -6 0.3 1
-3 -10 -6 0.7 1.3
-3 -10 -6 0.6 1.4
0 -8 7 354.86 3.4
0 8 -7 364.26 3.7
1 -8 7 45.7 1.9
-1 8 -7 2.7 2
2 -8 7 339.17 3.5
-2 8 -7 334.77 3.6
3 -8 7 126.29 2.7
-3 8 -7 131.99 2.7
4 -8 7 242.18 5.4
4 -8 7 260.57 5.6
-4 8 -7 42.5 4.4
4 -8 7 281.37 4.4
2 7 -7 156.78 2.7
-2 -7 7 162.48 2.5
1 7 -7 100.39 2.3
-1 -7 7 101.79 2.2
0 -7 7 548.35 4
0 7 -7 526.05 4.2
1 -7 7 23.9 1.3
-1 7 -7 21.1 1.6
2 -7 7 607.84 4.2
-2 7 -7 634.84 4.5
3 -7 7 28.2 1.4
-3 7 -7 32.7 1.7
-4 7 -7 574.44 6.5
-4 7 -7 577.04 5.1
4 -7 7 512.55 5.4
4 -7 7 549.45 5.2
5 -7 7 9.4 1.5
5 -7 7 10.2 2
5 -7 7 8.7 1.8
-5 7 -7 8.3 1.5
6 -7 7 337.07 4
-6 7 -7 321.47 4
-3 -6 7 349.96 3.5
3 6 -7 324.07 3.3
-2 -6 7 167.28 2.4
2 6 -7 144.39 2.3
-1 -6 7 370.76 3.3
1 6 -7 391.16 3.4
0 -6 7 323.77 3
0 6 -7 311.97 3.1
1 -6 7 680.03 4.2
-1 6 -7 711.63 4.4
2 -6 7 749.13 4.6
-2 6 -7 802.72 4.8
3 -6 7 454.95 3.8
-3 6 -7 476.85 4.1
3 -6 7 429.16 5.2
-3 6 -7 458.55 6.1
4 -6 7 555.94 4.5
-4 6 -7 653.93 5.4
4 -6 7 575.34 5
-4 6 -7 620.34 5.3
5 -6 7 69.69 2.7
-5 6 -7 55.89 2.9
5 -6 7 78.29 2
-5 6 -7 70.49 2
6 -6 7 419.46 3.8
-6 6 -7 309.37 3.7
7 -6 7 13.4 1.4
-7 6 -7 -2.2 1.2
-4 -5 7 14.8 1.6
4 5 -7 12.9 1.9
4 5 -7 13.2 1.3
4 5 -7 -0.4 2.3
-3 -5 7 609.54 4.1
3 5 -7 590.54 6.9
3 5 -7 499.15 3.7
3 5 -7 401.96 7.9
-2 -5 7 3.7 1.4
2 5 -7 4.6 1.6
2 5 -7 5.1 3.6
-1 -5 7 610.84 3.9
1 5 -7 606.54 3.9
0 -5 7 2.2 1.4
0 5 -7 2.2 1.5
1 -5 7 1123.79 5
-1 5 -7 1099.19 5.2
2 -5 7 87.39 1.8
2 -5 7 91.59 2.8
-2 5 -7 97.89 1.9
-2 5 -7 96.49 3.4
3 -5 7 286.47 3.4
3 -5 7 309.77 3.2
-3 5 -7 318.07 3.5
-3 5 -7 303.87 4.1
4 -5 7 171.68 2.6
-4 5 -7 206.48 3.4
4 -5 7 195.18 3.1
-4 5 -7 190.48 3
-5 5 -7 301.27 5
5 -5 7 317.27 4.6
5 -5 7 301.57 3.1
-5 5 -7 263.27 3
6 -5 7 476.95 3.6
-6 5 -7 421.76 3.4
7 -5 7 213.58 2.6
-7 5 -7 219.58 2.7
8 -5 7 286.17 3.1
-8 5 -7 305.77 3.2
4 4 -7 -0.2 3
-4 -4 7 163.28 2.3
4 4 -7 0.7 2.3
4 4 -7 152.38 3.6
-3 -4 7 302.87 3
3 4 -7 258.67 3.1
3 4 -7 350.86 4.7
3 4 -7 338.57 3.9
-2 -4 7 134.59 2.2
2 4 -7 163.58 3
2 4 -7 131.49 2.4
2 4 -7 157.68 3.4
1 4 -7 432.86 5
-1 -4 7 404.26 3
1 4 -7 410.86 3.3
1 4 -7 454.65 5.7
0 -4 7 183.78 2.2
0 4 -7 185.08 3.9
0 4 -7 177.88 2.5
0 4 -7 198.98 3.9
1 -4 7 457.05 3.3
-1 4 -7 486.55 5.8
1 -4 7 461.75 4.8
-1 4 -7 443.36 3.3
2 -4 7 32.8 1.7
2 -4 7 27.7 1.2
-2 4 -7 35.4 2
-2 4 -7 30 1.6
3 -4 7 532.25 3.9
3 -4 7 587.14 4.1
-3 4 -7 586.94 4.4
-3 4 -7 594.74 5
4 -4 7 2.1 1.3
-4 4 -7 4.4 1.5
-4 4 -7 6.1 1.6
4 -4 7 2 1.2
-5 4 -7 1356.46 9.7
5 -4 7 1260.67 5.5
-5 4 -7 1160.68 6
5 -4 7 1376.86 8.8
6 -4 7 35.9 1.3
-6 4 -7 31.4 1.6
7 -4 7 800.12 4.4
-7 4 -7 719.03 4.2
8 -4 7 45.6 1.7
-8 4 -7 47.1 1.7
9 -4 7 135.09 3.1
-9 4 -7 318.27 3.1
5 3 -7 8.5 1.3
-5 -3 7 8.8 1.5
5 3 -7 3.2 1.5
5 3 -7 5.6 1.6
-4 -3 7 428.06 3.5
4 3 -7 385.56 3.2
4 3 -7 418.36 4.2
4 3 -7 377.86 3.5
3 3 -7 42.4 1.5
-3 -3 7 41.7 1.7
3 3 -7 39.1 1.7
3 3 -7 40.5 1.7
2 3 -7 516.85 4.1
-2 -3 7 483.45 3.4
2 3 -7 446.26 3.4
2 3 -7 521.75 4.4
-1 -3 7 229.98 2.3
1 3 -7 260.27 3
1 3 -7 241.38 2.6
1 3 -7 241.98 3.1
0 3 -7 533.25 4.2
0 -3 7 467.75 3.2
0 3 -7 472.35 4.1
0 3 -7 449.16 3.3
1 -3 7 831.22 4.9
1 -3 7 817.12 4.2
-1 3 -7 783.22 5.2
-1 3 -7 741.53 4.4
2 -3 7 180.18 2.4
2 -3 7 181.98 2.2
-2 3 -7 173.08 2.8
-2 3 -7 162.98 2.5
3 -3 7 1452.35 5.8
-3 3 -7 1571.14 6.9
3 -3 7 1535.55 6.2
-3 3 -7 1326.97 6.7
4 -3 7 282.17 3.1
4 -3 7 242.98 2.4
-4 3 -7 292.97 3.1
-4 3 -7 271.97 3.6
5 -3 7 1256.47 7.5
5 -3 7 1170.38 5.2
-5 3 -7 1132.49 5.3
-5 3 -7 1217.28 8.7
6 -3 7 176.08 2.3
-6 3 -7 168.58 2.3
7 -3 7 751.62 4.1
-7 3 -7 740.13 4.2
8 -3 7 8.1 1.4
-8 3 -7 5.6 1.5
9 -3 7 273.67 3
-9 3 -7 298.67 3.1
5 2 -7 44.1 1.6
-5 -2 7 -0.4 1.6
5 2 -7 43.7 1.7
5 2 -7 -12.7 1.5
4 2 -7 335.47 2.8
-4 -2 7 347.17 3
4 2 -7 302.47 2.8
4 2 -7 334.97 3.2
3 2 -7 3.8 1
-3 -2 7 1 1.3
3 2 -7 -0.7 1.3
3 2 -7 0.3 0.9
2 2 -7 873.01 4.5
-2 -2 7 748.03 4
2 2 -7 747.93 4.1
2 2 -7 819.12 4.6
1 2 -7 11.1 1.2
1 2 -7 11 1.2
-1 -2 7 9.3 1
1 2 -7 10.1 1.3
0 -2 7 1417.16 5.9
0 2 -7 1443.26 6.1
0 -2 7 1443.26 5.1
0 2 -7 1468.55 5.5
1 -2 7 184.58 2.3
-1 2 -7 190.48 2.4
1 -2 7 206.98 2.2
-1 2 -7 192.98 2.6
2 -2 7 1345.67 5.4
-2 2 -7 1341.87 5.8
2 -2 7 1426.46 5.5
-2 2 -7 1305.87 5.9
-3 2 -7 157.28 2.6
3 -2 7 152.68 2.1
-3 2 -7 163.58 2.1
3 -2 7 157.98 2.2
-4 2 -7 818.42 5.7
4 -2 7 884.91 4.3
4 -2 7 992.5 5.3
-4 2 -7 983.7 4.8
-5 2 -7 307.07 4.3
5 -2 7 319.87 2.7
-5 2 -7 343.77 3
5 -2 7 378.96 3.8
-6 2 -7 433.76 5.7
6 -2 7 469.25 3.2
-6 2 -7 429.36 3.2
-6 2 -7 431.56 6.4
7 -2 7 373.56 3.1
-7 2 -7 377.16 3.1
8 -2 7 113.89 2
-8 2 -7 16.6 2.1
9 -2 7 259.77 2.5
-9 2 -7 250.27 2.5
-5 -1 7 98.29 2
5 1 -7 89.99 1.9
5 1 -7 85.29 1.7
5 1 -7 91.99 2.1
4 1 -7 437.46 3.1
-4 -1 7 372.86 3.4
4 1 -7 398.06 3.3
4 1 -7 435.76 3.3
-3 -1 7 45.1 2.2
3 1 -7 173.48 2.3
3 1 -7 142.89 2
3 1 -7 145.09 1.9
2 1 -7 1000.4 4.5
-2 -1 7 1003.3 4.5
2 1 -7 976.4 4.6
2 1 -7 966.2 4.4
1 1 -7 314.57 2.7
1 1 -7 305.87 2.7
-1 -1 7 287.17 2.5
1 1 -7 282.57 2.5
0 1 -7 1575.74 5.8
0 1 -7 1661.43 5.8
0 -1 7 1593.54 5.6
0 -1 7 1531.25 5.3
-1 1 -7 222.68 2.6
-1 1 -7 194.18 2.1
1 -1 7 194.08 2
1 -1 7 213.08 2.1
-2 1 -7 1781.02 6.5
2 -1 7 1810.12 5.8
-2 1 -7 1802.82 6.2
2 -1 7 1798.82 5.9
3 -1 7 25.1 1.4
-3 1 -7 20 1.6
3 -1 7 19.5 1
-3 1 -7 20 1.4
-4 1 -7 941.81 5.5
4 -1 7 1079.59 4.4
-4 1 -7 1148.99 4.8
4 -1 7 1260.07 5.5
5 -1 7 86.79 1.8
-5 1 -7 71.79 2
5 -1 7 90.09 1.9
-5 1 -7 89.29 1.8
-6 1 -7 423.16 4.3
6 -1 7 417.66 2.9
-6 1 -7 374.16 4.3
-6 1 -7 427.76 3.1
-7 1 -7 39.7 2.3
7 -1 7 37.8 1.2
-7 1 -7 33.9 2.2
-7 1 -7 34.9 1.2
8 -1 7 373.76 3.1
-8 1 -7 362.16 5.7
-8 1 -7 375.26 3.1
-8 1 -7 412.26 6.2
-9 1 -7 202.98 7.7
9 -1 7 200.58 2.5
-9 1 -7 210.68 7.3
-9 1 -7 171.38 2.4
10 -1 7 203.78 2.5
-10 1 -7 197.48 2.5
5 0 -7 466.85 3.4
-5 0 7 437.36 3.6
5 0 -7 484.65 3.4
5 0 -7 473.85 3.6
4 0 -7 242.58 2.4
-4 0 7 225.58 2.7
4 0 -7 234.78 2.7
4 0 -7 241.58 2.5
3 0 -7 949.6 4.1
-3 0 7 889.61 4.3
3 0 -7 951.4 4.5
3 0 -7 959.6 4.3
2 0 -7 361.06 2.5
-2 0 7 360.66 2.8
2 0 -7 377.76 3
2 0 -7 370.66 2.7
1 0 -7 615.34 3.5
1 0 -7 655.63 3.5
1 0 -7 632.34 3.4
-1 0 7 604.24 3.4
0 0 7 593.34 3.2
0 0 -7 592.34 3.4
0 0 -7 625.24 3.3
0 0 7 591.24 3.4
1 0 7 399.96 2.7
-1 0 -7 424.96 3.2
-1 0 -7 406.36 2.8
1 0 7 414.86 2.8
2 0 7 914.31 4
2 0 7 967.4 4.3
-2 0 -7 854.71 4.3
-2 0 -7 939.51 4.2
3 0 7 122.89 1.6
-3 0 -7 124.69 1.9
-3 0 -7 113.49 1.8
3 0 7 134.79 2
4 0 7 1370.36 5.5
-4 0 -7 1179.38 4.5
-4 0 -7 1121.59 5.4
4 0 7 1204.08 4.5
-5 0 -7 70.99 1.6
5 0 7 72.59 1.5
5 0 7 79.09 1.8
-5 0 -7 62.79 1.7
-6 0 -7 765.62 4.8
6 0 7 812.82 3.8
-6 0 -7 805.12 3.8
-6 0 -7 765.92 5
-7 0 -7 22.6 1.7
-7 0 -7 22.6 1.7
7 0 7 23.9 1.1
-7 0 -7 22.1 1.4
-8 0 -7 901.11 6
8 0 7 896.31 4.6
-8 0 -7 950 6.9
-8 0 -7 832.52 4.3
-9 0 -7 3.3 1.6
9 0 7 6.2 1.1
-9 0 -7 5.5 1.7
-9 0 -7 4.9 1
-10 0 -7 209.98 4.6
10 0 7 224.08 2.6
-10 0 -7 219.28 2.5
-10 0 -7 247.28 5.1
5 -1 -7 549.05 3.5
-5 1 7 573.14 3.8
5 -1 -7 540.75 3.8
5 -1 -7 540.25 3.6
4 -1 -7 18.4 1.3
-4 1 7 28.7 1.6
4 -1 -7 17.4 1.4
4 -1 -7 18.2 1.5
3 -1 -7 644.74 3.3
-3 1 7 617.94 3.7
3 -1 -7 669.63 3.5
3 -1 -7 646.24 3.7
2 -1 -7 1.4 1.2
2 -1 -7 2.7 1
2 -1 -7 1.7 0.8
-2 1 7 -0.1 1.3
1 -1 -7 920.31 4
1 -1 -7 973.9 3.9
-1 1 7 925.21 4.1
0 1 7 83.79 1.5
0 -1 -7 100.79 1.7
0 -1 -7 78.19 1.4
0 1 7 78.29 1.4
1 1 7 1017.8 4.3
1 1 7 1063.49 4
-1 -1 -7 1072.29 4.1
-1 -1 -7 956.3 4.4
-2 -1 -7 320.07 2.3
-2 -1 -7 293.97 2.5
2 1 7 337.77 2.6
2 1 7 310.57 2.4
3 1 7 1352.46 4.6
-3 -1 -7 1407.46 4.7
-3 -1 -7 1339.87 5.3
3 1 7 1529.35 5.3
4 1 7 601.84 3.1
-4 -1 -7 638.64 3.2
4 1 7 759.52 4
-4 -1 -7 648.14 3.8
-5 -1 -7 910.01 4.7
5 1 7 816.72 3.7
-5 -1 -7 826.62 3.7
-6 -1 -7 854.61 4.7
-6 -1 -7 894.01 4.7
6 1 7 844.42 3.9
-6 -1 -7 844.62 3.8
-7 -1 -7 558.24 4.3
7 1 7 542.75 3.2
-7 -1 -7 543.55 4
-7 -1 -7 524.85 3.1
8 1 7 743.23 3.8
-8 -1 -7 754.22 5.1
-8 -1 -7 742.53 4.7
-8 -1 -7 660.33 3.6
9 1 7 133.19 2
-9 -1 -7 142.59 2.9
-9 -1 -7 123.89 2
-9 -1 -7 135.59 2.6
10 1 7 162.68 2.3
-10 -1 -7 152.08 2.3
-10 -1 -7 121.29 3.5
-10 -1 -7 169.08 3.1
5 -2 -7 83.99 1.7
5 -2 -7 84.69 1.9
-5 2 7 86.99 1.8
5 -2 -7 93.59 1.9
4 -2 -7 185.58 2
4 -2 -7 -24 2.3
-4 2 7 130.99 2.5
4 -2 -7 213.08 2.5
3 -2 -7 318.57 2.7
3 -2 -7 296.27 2.4
-3 2 7 303.47 2.7
3 -2 -7 284.07 2.3
-2 2 7 120.99 1.9
2 -2 -7 117.69 1.7
2 -2 -7 107.79 1.6
2 -2 -7 107.69 1.5
-1 2 7 906.41 4.1
1 -2 -7 1006.2 3.8
1 -2 -7 827.42 3.9
0 2 7 7.3 1.1
0 -2 -7 8.8 1.1
0 2 7 7.5 0.8
0 -2 -7 5.1 0.8
1 2 7 1414.96 4.5
-1 -2 -7 1500.15 4.8
1 2 7 1493.95 5
-1 -2 -7 1311.27 4.7
2 2 7 3.4 0.9
-2 -2 -7 2.3 0.7
-2 -2 -7 1.5 1.1
2 2 7 11 0.9
3 2 7 1930.71 5.4
-3 -2 -7 2025.4 5.6
3 2 7 2367.86 6.3
-3 -2 -7 2132.69 6.2
-4 -2 -7 2.8 0.9
4 2 7 3.2 0.9
-4 -2 -7 6.9 0.7
4 2 7 4.1 0.9
5 2 7 1338.37 4.5
-5 -2 -7 1445.66 5.4
-5 -2 -7 1382.66 4.6
-5 -2 -7 1447.26 5.3
-6 -2 -7 13.6 1.2
6 2 7 11.9 1
-6 -2 -7 16.9 1
-6 -2 -7 13.7 1
7 2 7 1018.9 4.3
-7 -2 -7 958.3 4.2
-7 -2 -7 1027.9 5.3
-7 -2 -7 995.3 4.9
-8 -2 -7 125.79 2
8 2 7 139.99 1.8
-8 -2 -7 145.59 2.3
-8 -2 -7 128.49 1.9
-9 -2 -7 193.58 2.8
9 2 7 207.28 2.3
-9 -2 -7 225.08 3
-9 -2 -7 203.68 2.3
-10 -2 -7 48.4 2.7
10 2 7 156.78 2.3
-10 -2 -7 148.49 3
-10 -2 -7 145.39 2.4
-5 3 7 16.9 1.6
5 -3 -7 15.2 1
5 -3 -7 14.2 1.2
5 -3 -7 17.6 1.3
4 -3 -7 384.46 3.1
-4 3 7 369.06 3
4 -3 -7 327.87 2.6
4 -3 -7 328.37 2.6
-3 3 7 132.59 1.9
3 -3 -7 124.29 1.8
3 -3 -7 133.89 1.8
3 -3 -7 126.09 1.8
2 -3 -7 603.94 3
2 -3 -7 625.84 3
-2 3 7 593.64 3.5
2 -3 -7 524.25 3.2
1 -3 -7 511.65 2.9
-1 3 7 533.35 3.1
1 -3 -7 472.15 3
0 -3 -7 586.64 2.9
0 3 7 577.14 2.9
0 3 7 638.74 3.3
0 -3 -7 554.64 3.1
1 3 7 1215.88 4
-1 -3 -7 1221.38 4.1
-1 -3 -7 1175.38 4.4
1 3 7 1270.07 4.5
2 3 7 743.23 3.2
2 3 7 913.31 3.8
-2 -3 -7 772.32 3.3
-2 -3 -7 777.12 3.5
3 3 7 1556.34 4.9
-3 -3 -7 1405.76 4.8
3 3 7 1233.38 4.2
-3 -3 -7 1313.27 4.4
4 3 7 156.08 1.8
4 3 7 197.58 1.9
-4 -3 -7 181.68 1.9
-4 -3 -7 158.58 1.6
5 3 7 888.81 3.7
-5 -3 -7 899.91 3.8
-5 -3 -7 950.9 4.2
-5 -3 -7 1033.8 4.4
-6 -3 -7 6.4 1.2
6 3 7 5.4 0.9
-6 -3 -7 8.2 1.2
-6 -3 -7 5.9 0.9
-7 -3 -7 737.73 4
-7 -3 -7 628.74 3.8
7 3 7 647.34 3.5
-7 -3 -7 621.54 3.4
-8 -3 -7 8.4 1.2
8 3 7 8.1 1.3
-8 -3 -7 10.4 1.3
-8 -3 -7 8.2 1
-9 -3 -7 407.96 3.7
-9 -3 -7 479.55 3.9
9 3 7 451.85 3.4
-9 -3 -7 398.66 3.1
5 -4 -7 3.1 1.4
5 -4 -7 1.5 1.3
-5 4 7 1.7 1.1
5 -4 -7 1 1.2
4 -4 -7 382.96 3.2
-4 4 7 366.66 3.3
4 -4 -7 328.87 2.8
4 -4 -7 297.07 2.6
-3 4 7 0.4 1.1
3 -4 -7 2.8 1
3 -4 -7 2.6 1.2
3 -4 -7 0.8 0.9
2 -4 -7 842.62 3.7
2 -4 -7 844.92 3.7
2 -4 -7 884.41 4
-2 4 7 1003.6 4.4
1 -4 -7 86.89 1.5
1 -4 -7 60.29 1.5
-1 4 7 68.69 1.4
0 4 7 1166.78 4
0 -4 -7 1243.08 4.1
0 -4 -7 1111.19 4.2
0 4 7 1326.57 4.7
1 4 7 11.5 0.8
1 4 7 17.1 1.2
-1 -4 -7 12.8 0.8
-1 -4 -7 15.9 0.9
-2 -4 -7 1104.19 4.1
2 4 7 1124.09 3.9
-2 -4 -7 1123.49 3.8
2 4 7 1276.27 4.4
3 4 7 297.07 2.3
3 4 7 259.57 2.1
-3 -4 -7 276.07 2.3
-3 -4 -7 270.27 2
-4 -4 -7 184.78 1.9
4 4 7 173.38 1.8
-4 -4 -7 186.18 1.9
-4 -4 -7 198.28 2
-5 -4 -7 483.35 3.1
5 4 7 457.45 2.8
-5 -4 -7 460.95 2.8
-5 -4 -7 529.05 3.2
-6 -4 -7 130.29 1.9
-6 -4 -7 126.39 1.9
6 4 7 115.59 1.8
-6 -4 -7 110.79 1.6
-7 -4 -7 482.45 3.3
-7 -4 -7 477.25 3.4
7 4 7 458.45 3.1
-7 -4 -7 390.56 3
8 4 7 158.28 2.1
-8 -4 -7 176.68 2.3
-8 -4 -7 160.68 2.3
-8 -4 -7 147.79 2.2
9 4 7 478.85 3.6
-9 -4 -7 478.45 3.8
-9 -4 -7 -80.19 3.6
-9 -4 -7 419.36 3.4
4 -5 -7 200.08 2.3
4 -5 -7 212.38 2.5
-4 5 7 30.7 2.7
4 -5 -7 198.28 2.2
3 -5 -7 159.88 1.9
3 -5 -7 157.78 2.2
-3 5 7 170.88 2.3
3 -5 -7 150.58 1.9
2 -5 -7 434.56 2.7
2 -5 -7 431.66 2.7
2 -5 -7 440.96 3
-2 5 7 467.75 3.1
-1 5 7 107.79 1.8
1 -5 -7 94.69 1.5
1 -5 -7 94.79 1.5
0 5 7 250.27 2
0 -5 -7 252.57 2
0 5 7 282.57 2.4
0 -5 -7 246.28 2.1
-1 -5 -7 255.27 2.2
-1 -5 -7 262.47 2.1
1 5 7 301.07 2.4
1 5 7 239.48 2.1
2 5 7 590.34 3
-2 -5 -7 614.24 3.3
-2 -5 -7 599.34 2.9
2 5 7 692.13 3.4
3 5 7 26.8 0.9
3 5 7 32.5 1.1
-3 -5 -7 29.5 1.3
-3 -5 -7 29.3 1
-4 -5 -7 703.83 3.4
4 5 7 666.73 3.2
-4 -5 -7 672.73 3.3
-4 -5 -7 779.42 3.6
-5 -5 -7 13.5 1
5 5 7 11.1 1.1
-5 -5 -7 14.6 0.9
-5 -5 -7 12.5 1.3
-6 -5 -7 974.3 4.4
-6 -5 -7 939.71 4.2
6 5 7 880.01 4
-6 -5 -7 920.11 4.2
-7 -5 -7 89.79 1.6
-7 -5 -7 81.59 1.6
-7 -5 -7 86.49 1.9
7 5 7 75.19 1.7
8 5 7 465.05 3.4
-8 -5 -7 474.55 3.6
-8 -5 -7 379.66 3.3
-8 -5 -7 427.26 3.1
9 5 7 70.19 1.6
-9 -5 -7 89.69 2.1
-9 -5 -7 82.79 1.8
-9 -5 -7 77.79 1.9
-4 6 7 37 1.7
4 -6 -7 32.6 1.5
4 -6 -7 8.6 1.6
4 -6 -7 34.1 1.5
-3 6 7 334.17 3
3 -6 -7 156.18 2.5
3 -6 -7 293.97 2.8
3 -6 -7 257.27 2.4
2 -6 -7 126.89 1.7
2 -6 -7 125.29 1.8
-2 6 7 132.79 2.1
2 -6 -7 117.79 1.7
1 -6 -7 313.77 2.4
-1 6 7 352.96 2.7
1 -6 -7 307.47 2.6
0 6 7 323.37 2.7
0 6 7 257.77 2.1
0 -6 -7 270.07 2.2
0 -6 -7 283.87 2.4
-1 -6 -7 139.29 1.7
1 6 7 140.09 1.6
-1 -6 -7 143.99 1.7
1 6 7 170.38 1.9
-2 -6 -7 756.62 3.6
2 6 7 693.43 3.2
2 6 7 883.71 4.1
-2 -6 -7 801.32 3.4
-3 -6 -7 72.99 1.4
3 6 7 78.69 1.3
-3 -6 -7 76.79 1.3
-3 -6 -7 73.59 1.4
-4 -6 -7 707.03 3.6
4 6 7 721.43 3.3
-4 -6 -7 753.62 3.3
-4 -6 -7 739.83 3.7
-5 -6 -7 124.99 1.8
5 6 7 120.39 1.8
-5 -6 -7 108.49 1.7
-5 -6 -7 118.39 1.8
6 6 7 706.23 3.8
-6 -6 -7 826.62 4.3
-6 -6 -7 702.43 3.7
-6 -6 -7 798.32 4.2
7 6 7 2.3 1.3
-7 -6 -7 6.6 1.4
-7 -6 -7 1.5 1
-7 -6 -7 2 1.2
8 6 7 278.77 2.8
-8 -6 -7 285.47 2.7
-8 -6 -7 312.87 3
-8 -6 -7 256.37 2.9
3 -7 -7 201.38 2.3
3 -7 -7 221.88 2.6
-3 7 7 220.88 2.6
3 -7 -7 159.88 2.3
2 -7 -7 29.1 1.4
2 -7 -7 33.8 1.4
2 -7 -7 34.5 1.2
-2 7 7 38.5 1.6
1 -7 -7 397.66 2.9
-1 7 7 411.56 3.1
1 -7 -7 368.36 2.8
1 -7 -7 378.76 2.9
0 7 7 164.58 2.2
0 7 7 141.09 1.7
0 -7 -7 147.19 1.7
0 -7 -7 157.08 2.1
-1 -7 -7 387.56 2.8
1 7 7 436.26 3.1
-1 -7 -7 395.86 2.7
1 7 7 384.36 2.6
-2 -7 -7 87.59 1.5
2 7 7 105.89 1.7
-2 -7 -7 103.29 1.7
-2 -7 -7 96.09 1.6
-3 -7 -7 547.45 3.1
3 7 7 538.95 3
-3 -7 -7 604.34 3.2
-3 -7 -7 586.24 3.3
-4 -7 -7 172.68 2.1
4 7 7 162.58 2
-4 -7 -7 169.98 1.9
-4 -7 -7 169.68 2
-5 -7 -7 259.77 2.7
5 7 7 248.58 2.2
-5 -7 -7 227.28 2.5
-5 -7 -7 250.57 2.3
6 7 7 130.59 1.8
-6 -7 -7 133.09 2
-6 -7 -7 141.29 2
-6 -7 -7 128.19 1.9
7 7 7 50.99 2
-7 -7 -7 96.69 1.8
-7 -7 -7 73.19 1.8
-7 -7 -7 98.49 2
2 -8 -7 -2.3 0.9
2 -8 -7 17.9 1
2 -8 -7 17.3 1.1
-2 8 7 1 1.3
1 -8 -7 237.58 2.4
1 -8 -7 242.58 2.4
1 -8 -7 252.57 2.4
-1 8 7 286.47 2.7
0 -8 -7 38.5 1.4
0 8 7 38.6 1.3
0 -8 -7 41.3 1.4
-1 -8 -7 407.66 3.1
-1 -8 -7 430.96 3.2
1 8 7 429.96 2.8
-1 -8 -7 426.66 2.8
-2 -8 -7 18.7 1.1
-2 -8 -7 25.2 1
-2 -8 -7 22.6 1.1
2 8 7 21.4 1
3 8 7 495.35 3.1
-3 -8 -7 449.56 3.1
-3 -8 -7 492.45 3
-3 -8 -7 478.65 3.2
4 8 7 20.1 1
-4 -8 -7 15.9 1
-4 -8 -7 17.6 1
-4 -8 -7 16 1.1
-5 -8 -7 208.38 2.3
5 8 7 203.08 2.2
-5 -8 -7 195.78 2.4
-5 -8 -7 211.18 2.2
6 8 7 1.9 0.9
-6 -8 -7 3.1 1.5
-6 -8 -7 5.5 1.4
-6 -8 -7 5 1
1 -9 -7 74.59 1.6
1 -9 -7 82.89 1.8
1 -9 -7 79.49 1.7
0 -9 -7 154.68 2.1
0 -9 -7 140.29 2
0 -9 -7 156.48 2
1 9 7 166.28 2.1
-1 -9 -7 159.38 2.2
-1 -9 -7 126.79 2
-1 -9 -7 175.58 2.1
2 9 7 44.4 1.3
-2 -9 -7 40.9 1.5
-2 -9 -7 45.3 1.3
-2 -9 -7 4 1.4
3 9 7 262.67 2.5
-3 -9 -7 272.67 2.5
-3 -9 -7 248.18 2.7
-3 -9 -7 225.68 2.5
4 9 7 1.3 1.2
-4 -9 -7 2.1 1.2
-4 -9 -7 -0.1 0.9
-4 -9 -7 0.2 1.1
5 9 7 169.38 2.1
-5 -9 -7 177.58 2.5
-5 -9 -7 181.88 2.2
-5 -9 -7 146.59 2.7
0 -7 8 294.87 3.2
0 7 -8 302.37 3.3
1 -7 8 -31.2 2.6
-1 7 -8 152.98 2.6
2 -7 8 392.16 3.6
-2 7 -8 366.36 3.9
-3 7 -8 188.68 3
3 -7 8 157.48 2.6
-4 7 -8 352.16 5.9
-4 7 -8 320.57 4.4
4 -7 8 332.67 4.1
4 -7 8 310.87 4.8
-5 7 -8 209.18 4.4
5 -7 8 195.48 3.5
5 -7 8 95.29 4.3
-5 7 -8 202.98 4.3
-2 -6 8 56.89 3.4
2 6 -8 339.07 3.4
-1 -6 8 3.8 1.7
1 6 -8 12.7 1.6
0 -6 8 10.4 4.3
0 6 -8 612.34 4.1
1 -6 8 13.6 1.2
-1 6 -8 15.2 1.7
2 -6 8 670.53 4.3
-2 6 -8 726.53 4.8
3 -6 8 4.9 1.8
-3 6 -8 7.2 1.5
3 -6 8 5.8 1.3
-3 6 -8 5.3 2.2
4 -6 8 472.55 4.7
-4 6 -8 569.94 5
4 -6 8 522.65 4.7
-4 6 -8 523.85 5.4
5 -6 8 26 2
-5 6 -8 23.4 2.3
5 -6 8 26 1.7
-5 6 -8 2.8 1.8
6 -6 8 235.38 3.2
-6 6 -8 10.8 3.1
7 -6 8 116.89 2.3
-7 6 -8 85.59 2.4
3 5 -8 265.67 5.5
3 5 -8 233.98 2.8
3 5 -8 218.18 6
-3 -5 8 243.88 2.8
-2 -5 8 215.58 2.6
2 5 -8 209.88 7.8
2 5 -8 218.98 2.6
2 5 -8 224.98 8.2
-1 -5 8 360.26 3.1
1 5 -8 374.76 3.3
0 -5 8 318.37 2.8
0 5 -8 338.37 3.1
1 -5 8 149.79 2.1
-1 5 -8 166.78 2.4
2 -5 8 575.84 6.3
-2 5 -8 542.35 3.9
2 -5 8 587.74 3.8
-2 5 -8 550.84 7.3
3 -5 8 29.6 1.7
3 -5 8 22.1 1.4
-3 5 -8 24.3 1.6
-3 5 -8 23.1 2.1
4 -5 8 402.66 3.9
-4 5 -8 478.85 4.5
4 -5 8 436.86 4
-4 5 -8 419.86 4.4
5 -5 8 8.8 1.6
-5 5 -8 4.9 1.8
5 -5 8 5.6 1.2
-5 5 -8 4.4 1.5
6 -5 8 532.15 3.9
-6 5 -8 500.25 4.1
7 -5 8 3 1.5
-7 5 -8 4.2 1.6
8 -5 8 474.65 3.9
-8 5 -8 391.96 3.8
3 4 -8 432.96 4.5
-3 -4 8 375.96 3.5
3 4 -8 349.17 3.4
3 4 -8 430.96 5.6
-2 -4 8 1.4 1.5
2 4 -8 1.4 1.4
2 4 -8 0.4 1.5
2 4 -8 1.6 1.9
-1 -4 8 425.36 3.2
1 4 -8 495.55 5.2
1 4 -8 419.36 3.5
1 4 -8 485.45 5.6
0 -4 8 35.5 1.3
0 4 -8 35.6 2
0 4 -8 34.8 1.7
0 4 -8 40.3 2.1
-1 4 -8 972.7 6.5
1 -4 8 808.62 4.3
-1 4 -8 838.52 6.9
-1 4 -8 748.53 4.3
2 -4 8 321.57 3.5
2 -4 8 323.17 3
-2 4 -8 356.46 4.5
-2 4 -8 310.27 3.1
3 -4 8 712.43 4.6
3 -4 8 737.03 4.4
-3 4 -8 791.32 5.8
-3 4 -8 701.53 4.8
4 -4 8 459.75 3.5
-4 4 -8 489.55 4.6
-4 4 -8 500.15 4.5
4 -4 8 477.85 3.9
5 -4 8 362.56 3.1
5 -4 8 406.06 4.5
-5 4 -8 424.96 4.9
-5 4 -8 405.56 3.7
6 -4 8 822.32 4.5
-6 4 -8 779.02 4.6
7 -4 8 155.68 2.1
-7 4 -8 136.99 2.1
8 -4 8 501.15 3.8
-8 4 -8 518.75 3.9
4 3 -8 102.39 2
-4 -3 8 31.6 2.4
4 3 -8 100.89 2
4 3 -8 106.59 2.6
3 3 -8 254.97 3.1
-3 -3 8 246.68 2.7
3 3 -8 217.58 2.5
3 3 -8 232.38 3.4
2 3 -8 59.29 1.8
-2 -3 8 46.8 1.5
2 3 -8 51.99 1.9
2 3 -8 54.29 1.9
1 3 -8 604.54 4.6
-1 -3 8 553.64 3.6
1 3 -8 516.35 3.5
1 3 -8 594.64 4.7
0 3 -8 12.5 1.3
0 3 -8 9.3 1.2
0 -3 8 9.9 1.5
0 3 -8 11.2 1.7
1 -3 8 1722.23 7
-1 3 -8 1651.13 7.4
1 -3 8 1757.82 5.8
-1 3 -8 1492.95 6
2 -3 8 66.29 1.8
-2 3 -8 62.29 1.9
2 -3 8 68.39 1.5
-2 3 -8 59.99 1.9
3 -3 8 1367.06 5.6
-3 3 -8 1396.06 6.4
3 -3 8 1426.56 5.8
-3 3 -8 1187.78 6
4 -3 8 126.99 2.2
4 -3 8 110.19 1.7
-4 3 -8 117.09 2
-4 3 -8 111.49 2.5
5 -3 8 1459.95 5.6
-5 3 -8 1578.44 6.3
-5 3 -8 1556.54 8.7
5 -3 8 1643.44 7.6
6 -3 8 319.57 2.8
-6 3 -8 319.37 5.5
-6 3 -8 290.07 2.8
7 -3 8 539.65 3.5
-7 3 -8 531.05 3.6
8 -3 8 185.38 2.3
-8 3 -8 174.78 2.4
9 -3 8 110.29 1.9
-9 3 -8 107.89 2.1
4 2 -8 195.68 2.4
-4 -2 8 -38.6 2.2
4 2 -8 182.48 2.4
4 2 -8 188.98 2.7
3 2 -8 200.28 2.4
-3 -2 8 -17.4 2.3
3 2 -8 170.78 2.4
3 2 -8 188.98 2.5
2 2 -8 213.58 2.5
-2 -2 8 5.7 2.3
2 2 -8 208.18 2.3
2 2 -8 35.6 2.7
1 2 -8 750.32 4.3
-1 -2 8 680.43 3.7
1 2 -8 710.93 3.9
1 2 -8 753.72 4.4
0 2 -8 231.38 2.6
0 -2 8 222.38 2.2
0 2 -8 228.28 2.6
-1 2 -8 911.61 4.7
1 -2 8 959.5 4.3
1 -2 8 894.01 4.5
-1 2 -8 905.81 4.6
2 -2 8 116.59 1.9
-2 2 -8 109.59 1.8
2 -2 8 112.19 1.7
-2 2 -8 118.29 2.2
3 -2 8 824.42 4.2
-3 2 -8 831.62 4.5
3 -2 8 822.02 4.3
-3 2 -8 796.42 4.7
-4 2 -8 103.79 2.3
4 -2 8 103.09 1.8
4 -2 8 118.59 2
-4 2 -8 108.49 1.9
-5 2 -8 1009.2 6.8
5 -2 8 1211.08 5.9
5 -2 8 973.6 4.4
-5 2 -8 1113.09 4.8
-6 2 -8 9.8 1.8
6 -2 8 10 1
-6 2 -8 6.9 1
-7 2 -8 469.15 7.4
7 -2 8 485.05 3.4
-7 2 -8 435.66 3.2
-7 2 -8 477.95 8
8 -2 8 27.4 1.6
-8 2 -8 23.9 1.3
9 -2 8 269.67 2.9
-9 2 -8 260.97 2.7
4 1 -8 314.77 2.9
-4 -1 8 225.88 2.9
4 1 -8 293.07 2.8
4 1 -8 314.37 3.1
3 1 -8 2 1.1
-3 -1 8 3 1.1
3 1 -8 4.8 1
3 1 -8 0.9 1.3
2 1 -8 841.02 4.2
-2 -1 8 825.82 4.3
2 1 -8 775.82 4.1
2 1 -8 866.11 4.2
1 1 -8 124.89 1.9
1 1 -8 122.79 1.9
-1 -1 8 114.59 1.7
1 1 -8 112.09 1.8
0 1 -8 1321.57 5.4
0 -1 8 1333.27 5.1
0 -1 8 1414.06 5
0 1 -8 1407.36 5.3
-1 1 -8 169.18 2.1
1 -1 8 166.98 2
-1 1 -8 161.08 2.1
1 -1 8 165.88 2
2 -1 8 1196.98 4.6
-2 1 -8 1238.58 5.2
-2 1 -8 1189.48 4.8
2 -1 8 1272.07 4.9
3 -1 8 505.05 3.3
-3 1 -8 493.55 3.6
3 -1 8 473.55 2.9
-3 1 -8 491.35 3.2
-4 1 -8 351.46 3.4
4 -1 8 369.36 2.7
-4 1 -8 379.86 3
4 -1 8 420.26 3.1
-5 1 -8 376.46 3.7
5 -1 8 386.56 2.8
-5 1 -8 393.96 2.9
5 -1 8 465.85 3.6
-6 1 -8 168.78 2.6
-6 1 -8 148.99 3
6 -1 8 174.48 2
-6 1 -8 175.08 2
-7 1 -8 925.81 6.7
-7 1 -8 780.42 6.4
7 -1 8 904.81 4.3
-7 1 -8 871.81 4.3
-8 1 -8 61.79 2.8
8 -1 8 67.59 1.8
-8 1 -8 69.49 2.9
-8 1 -8 68.09 1.8
-9 1 -8 585.24 12.9
9 -1 8 567.34 3.8
-9 1 -8 537.55 3.8
-9 1 -8 544.35 12.9
5 0 -8 142.29 2.2
-5 0 8 142.59 2.3
5 0 -8 125.29 2.4
5 0 -8 137.99 2.3
4 0 -8 413.06 3.1
-4 0 8 402.46 3.4
4 0 -8 393.66 3.2
4 0 -8 437.46 3.4
3 0 -8 51.29 1.4
-3 0 8 47.4 1.4
3 0 -8 52.99 1.7
3 0 -8 50.79 1.3
2 0 -8 761.52 3.7
-2 0 8 731.93 3.8
2 0 -8 748.93 3.8
2 0 -8 806.62 3.7
1 0 -8 165.38 2
1 0 -8 176.98 1.9
1 0 -8 169.38 2
-1 0 8 156.58 2.1
0 0 -8 1097.79 4.7
0 0 8 1057.99 4.3
0 0 -8 1114.99 4.5
0 0 8 1057.19 4.3
1 0 8 2.5 1
-1 0 -8 2 1.3
-1 0 -8 0.9 1.1
1 0 8 4.3 1.2
2 0 8 966.7 4.1
2 0 8 898.51 3.9
-2 0 -8 906.51 4.4
-2 0 -8 918.81 4
3 0 8 289.37 2.3
-3 0 -8 257.07 2.7
3 0 8 302.17 2.5
-3 0 -8 292.57 2.5
4 0 8 506.85 3.3
4 0 8 445.26 2.7
-4 0 -8 411.26 3.3
-4 0 -8 450.55 3
5 0 8 268.47 2.7
5 0 8 243.08 2.3
-5 0 -8 246.48 2.2
-5 0 -8 232.38 2.6
-6 0 -8 1188.08 5.6
6 0 8 1322.97 4.8
-6 0 -8 1232.98 4.6
-6 0 -8 1195.58 6
-7 0 -8 561.34 4.6
7 0 8 594.84 3.3
-7 0 -8 560.24 3.2
-7 0 -8 514.95 4.5
8 0 8 313.57 2.7
-8 0 -8 345.27 4.1
-8 0 -8 308.27 2.7
-8 0 -8 316.77 3.9
9 0 8 232.08 2.5
-9 0 -8 242.58 4.2
-9 0 -8 210.98 2.4
-9 0 -8 162.08 3.6
5 -1 -8 227.08 2.5
-5 1 8 211.48 2.6
5 -1 -8 221.38 2.7
5 -1 -8 217.88 2.6
4 -1 -8 282.27 2.5
-4 1 8 275.67 2.7
4 -1 -8 306.47 2.9
4 -1 -8 201.58 2.7
3 -1 -8 241.68 2.2
-3 1 8 246.28 2.8
3 -1 -8 -37.7 2.6
3 -1 -8 233.58 2.5
2 -1 -8 186.58 1.9
2 -1 -8 180.08 2
2 -1 -8 193.78 2
-2 1 8 180.38 2.3
1 -1 -8 463.45 2.9
1 -1 -8 438.26 3.2
1 -1 -8 478.25 3
-1 1 8 -6.8 3.2
0 1 8 559.74 3.3
0 -1 -8 523.55 3.2
0 -1 -8 643.24 3.3
0 1 8 569.14 3
1 1 8 49 1.1
1 1 8 51.99 1.1
-1 -1 -8 54.49 1.2
-1 -1 -8 49.2 1.5
2 1 8 870.61 3.6
-2 -1 -8 860.61 3.6
2 1 8 913.51 3.9
-2 -1 -8 800.62 3.8
3 1 8 3.8 0.8
-3 -1 -8 10.9 0.9
-3 -1 -8 1 1.3
3 1 8 4.7 1.2
4 1 8 1206.38 4.2
4 1 8 1357.96 5.1
-4 -1 -8 1231.68 4.3
-4 -1 -8 1193.88 5.1
5 1 8 1.5 1.2
5 1 8 1.1 1.1
-5 -1 -8 2.5 1.1
-5 -1 -8 4 1.2
-6 -1 -8 1093.19 5.2
-6 -1 -8 1070.39 5.1
6 1 8 1025 4.2
-6 -1 -8 1114.89 4.3
-7 -1 -8 25 1.4
-7 -1 -8 27.6 1.6
7 1 8 21.2 1.1
-7 -1 -8 19.5 1
-8 -1 -8 238.88 3
-8 -1 -8 246.08 3.1
8 1 8 244.38 2.6
-8 -1 -8 219.38 2.4
-9 -1 -8 8.5 1.5
9 1 8 5.6 1.3
-9 -1 -8 9.8 1.5
-9 -1 -8 7.4 1.4
4 -2 -8 5.1 1
4 -2 -8 -0.7 1
4 -2 -8 8.6 1
-4 2 8 1.9 1.4
3 -2 -8 412.46 3.2
3 -2 -8 411.96 2.7
3 -2 -8 427.96 2.8
-3 2 8 414.76 3.2
2 -2 -8 76.79 1.6
-2 2 8 76.79 1.7
2 -2 -8 77.99 1.7
2 -2 -8 84.59 1.6
-1 2 8 578.14 3.5
1 -2 -8 523.35 3.4
1 -2 -8 582.34 3
0 2 8 521.15 2.9
0 2 8 502.85 3
0 -2 -8 559.84 3
0 -2 -8 469.35 3
1 2 8 763.32 3.2
-1 -2 -8 765.12 3.3
1 2 8 734.23 3.5
-1 -2 -8 690.73 3.6
2 2 8 646.34 3
-2 -2 -8 664.83 3
-2 -2 -8 631.34 3.3
2 2 8 733.63 3.4
3 2 8 1009.5 4
3 2 8 815.92 3.5
-3 -2 -8 835.82 3.5
-3 -2 -8 875.81 4
4 2 8 828.72 3.8
4 2 8 682.83 3.3
-4 -2 -8 713.13 3.4
-4 -2 -8 774.32 3.9
5 2 8 595.14 3.4
-5 -2 -8 537.75 3.4
5 2 8 477.15 2.9
-5 -2 -8 470.35 2.8
-6 -2 -8 468.95 3.3
-6 -2 -8 497.05 3.5
6 2 8 432.76 2.9
-6 -2 -8 447.26 2.8
-7 -2 -8 31.4 1.4
7 2 8 31.5 1.1
-7 -2 -8 30 1.4
-7 -2 -8 29.3 1.4
-8 -2 -8 379.76 3.4
8 2 8 311.27 2.9
-8 -2 -8 335.57 3.1
-8 -2 -8 86.49 2.7
9 2 8 0.6 1.3
-9 -2 -8 2.7 1.3
-9 -2 -8 1.1 1.2
-9 -2 -8 0.4 1.2
4 -3 -8 48.6 1.7
-4 3 8 36.1 1.3
4 -3 -8 41.2 1.4
4 -3 -8 35.3 1.1
3 -3 -8 461.95 3.4
-3 3 8 452.45 3.3
3 -3 -8 455.05 2.9
3 -3 -8 443.76 2.8
2 -3 -8 2.7 0.8
2 -3 -8 6.5 1.2
2 -3 -8 1.8 1.4
-2 3 8 1.9 1.1
1 -3 -8 942.91 3.8
-1 3 8 879.71 4.2
1 -3 -8 789.72 4
0 3 8 8.1 1
0 -3 -8 9.1 0.9
0 -3 -8 1.9 1
0 3 8 9.6 1.2
1 3 8 1245.68 4.2
-1 -3 -8 1317.67 4.4
-1 -3 -8 1280.07 4.7
1 3 8 1376.76 4.8
2 3 8 26.5 1
2 3 8 22.5 1.1
-2 -3 -8 22.1 1.1
-2 -3 -8 22.9 1.3
3 3 8 1179.28 4.2
-3 -3 -8 1207.48 4.3
3 3 8 1461.75 4.9
-3 -3 -8 1307.27 4.8
-4 -3 -8 72.29 1.7
4 3 8 64.29 1.4
-4 -3 -8 67.19 1.4
4 3 8 76.59 1.6
-5 -3 -8 696.13 3.4
-5 -3 -8 760.82 3.8
5 3 8 678.43 3.3
-5 -3 -8 703.03 3.4
-6 -3 -8 273.17 2.5
6 3 8 251.87 2.3
-6 -3 -8 280.37 2.4
-6 -3 -8 252.17 2.4
-7 -3 -8 220.78 2.5
7 3 8 227.58 2.3
-7 -3 -8 211.38 2.1
-7 -3 -8 245.28 2.5
-8 -3 -8 294.57 3
8 3 8 280.87 2.5
-8 -3 -8 272.47 2.4
-8 -3 -8 286.77 2.7
9 3 8 4.4 1.9
-9 -3 -8 70.49 2
-9 -3 -8 69.79 1.9
-9 -3 -8 67.29 1.8
4 -4 -8 240.48 2.8
4 -4 -8 216.78 2.4
-4 4 8 167.78 3
4 -4 -8 198.38 2.2
3 -4 -8 407.36 3.2
3 -4 -8 171.48 2.8
-3 4 8 336.87 3.3
3 -4 -8 339.67 2.8
2 -4 -8 350.06 2.5
2 -4 -8 360.56 2.6
2 -4 -8 310.47 2.6
-2 4 8 371.96 3.1
1 -4 -8 614.24 3.1
1 -4 -8 544.55 3.3
-1 4 8 610.64 3.6
0 4 8 275.57 2.2
0 -4 -8 309.47 2.3
0 -4 -8 259.47 2.3
0 4 8 309.57 2.6
1 4 8 1152.18 4.4
1 4 8 1019.2 4
-1 -4 -8 1075.89 4
-1 -4 -8 1004.4 4.2
-2 -4 -8 6.8 1.1
2 4 8 12.6 0.9
2 4 8 10.4 0.9
-2 -4 -8 4.8 1.2
3 4 8 648.44 3.2
3 4 8 738.63 3.4
-3 -4 -8 663.43 3.1
-3 -4 -8 654.33 3.4
4 4 8 2.1 1.3
4 4 8 4.7 1.1
-4 -4 -8 2.5 1
-4 -4 -8 0.9 1
-5 -4 -8 516.05 3.1
5 4 8 454.75 2.8
-5 -4 -8 529.25 3.3
-5 -4 -8 458.15 2.8
-6 -4 -8 55.79 1.5
6 4 8 46.4 1.2
-6 -4 -8 50.29 1.5
-6 -4 -8 53.29 1.6
-7 -4 -8 518.55 3.4
7 4 8 494.35 3.4
-7 -4 -8 491.45 3.1
-7 -4 -8 537.25 3.5
-8 -4 -8 76.49 1.7
8 4 8 63.69 1.6
-8 -4 -8 2.1 1.6
-8 -4 -8 74.19 1.9
-9 -4 -8 -43.4 3
9 4 8 319.07 3
-9 -4 -8 273.17 3.3
-9 -4 -8 299.97 2.8
4 -5 -8 297.67 2.7
4 -5 -8 375.66 3.4
-4 5 8 41.4 3.4
4 -5 -8 318.87 2.7
3 -5 -8 25.4 1.2
3 -5 -8 20.4 1.3
-3 5 8 23.2 1.2
3 -5 -8 21.6 1
2 -5 -8 307.37 2.4
2 -5 -8 312.87 2.5
2 -5 -8 275.07 2.5
-2 5 8 329.57 2.8
1 -5 -8 47.3 1.1
1 -5 -8 45.2 1.6
-1 5 8 49 1.5
0 5 8 438.76 2.7
0 5 8 469.55 3.1
0 -5 -8 458.95 2.7
0 -5 -8 415.76 2.8
1 5 8 526.65 2.9
-1 -5 -8 573.64 3
1 5 8 612.04 3.4
-1 -5 -8 530.55 3.2
-2 -5 -8 199.78 2.2
2 5 8 238.68 2.1
2 5 8 204.98 2
-2 -5 -8 208.18 1.9
-3 -5 -8 429.86 2.9
3 5 8 402.76 2.6
3 5 8 490.35 3
-3 -5 -8 420.46 2.7
-4 -5 -8 121.59 1.6
4 5 8 119.99 1.5
-4 -5 -8 148.29 1.8
-4 -5 -8 129.69 1.7
-5 -5 -8 669.73 3.5
5 5 8 593.14 3.3
-5 -5 -8 580.64 3.1
-5 -5 -8 726.03 3.8
-6 -5 -8 76.79 1.5
6 5 8 68.69 1.5
-6 -5 -8 69.39 1.4
-6 -5 -8 79.59 1.7
-7 -5 -8 530.15 3.4
7 5 8 495.45 3.5
-7 -5 -8 486.35 3.4
-7 -5 -8 540.75 3.5
-8 -5 -8 5.1 1.5
8 5 8 22.1 1.1
-8 -5 -8 23.1 1.4
-8 -5 -8 24 1.4
-3 6 8 9.6 1.7
3 -6 -8 31.9 1.5
3 -6 -8 30.7 1.7
3 -6 -8 24.2 1.5
2 -6 -8 190.08 2.1
-2 6 8 206.68 2.5
2 -6 -8 188.18 2
2 -6 -8 172.58 2.1
1 -6 -8 3.5 1.1
1 -6 -8 4.3 1.1
-1 6 8 2.1 1.4
1 -6 -8 1.5 1.3
0 6 8 505.55 2.9
0 -6 -8 549.15 3
0 6 8 597.84 3.5
0 -6 -8 528.45 3.2
1 6 8 50.39 1.3
-1 -6 -8 47.7 1.3
1 6 8 55.79 1.5
-1 -6 -8 -0.9 1.5
-2 -6 -8 475.75 2.8
2 6 8 458.75 2.7
-2 -6 -8 462.95 2.9
2 6 8 576.34 3.2
3 6 8 91.99 1.4
-3 -6 -8 101.89 1.8
-3 -6 -8 108.39 1.7
-4 -6 -8 704.13 3.6
4 6 8 640.44 3.4
-4 -6 -8 666.03 3.7
-4 -6 -8 725.03 4
-5 -6 -8 231.28 2.3
5 6 8 225.78 2.3
-5 -6 -8 243.98 2.3
-5 -6 -8 276.37 2.6
-6 -6 -8 417.26 3.1
6 6 8 424.46 3
-6 -6 -8 407.16 2.8
-6 -6 -8 423.26 3.1
-7 -6 -8 126.79 2.2
7 6 8 114.79 1.8
-7 -6 -8 126.69 2
-7 -6 -8 116.89 1.9
-8 -6 -8 17.8 2.6
8 6 8 112.29 2.3
-8 -6 -8 195.48 2.5
-8 -6 -8 174.08 2.1
2 -7 -8 -41.3 1.9
2 -7 -8 198.38 2.2
2 -7 -8 189.98 2.3
-2 7 8 203.68 2.6
-1 7 8 32.5 1.5
1 -7 -8 29.8 1.1
1 -7 -8 33.1 1.4
1 -7 -8 29.6 1.3
0 7 8 316.97 2.5
0 -7 -8 334.57 2.7
0 7 8 341.17 3
0 -7 -8 321.17 2.8
-1 -7 -8 62.99 1.6
1 7 8 48.9 1.3
-1 -7 -8 59.09 1.5
1 7 8 64.79 1.5
2 7 8 444.66 2.8
-2 -7 -8 427.56 2.9
-2 -7 -8 435.66 2.9
-3 -7 -8 40.7 1.2
3 7 8 48 1.5
-3 -7 -8 42.6 1.4
-3 -7 -8 40.6 1.2
-4 -7 -8 479.45 3.2
4 7 8 -55.09 2.9
-4 -7 -8 522.85 3.1
-4 -7 -8 486.65 3.3
-5 -7 -8 2.9 1.3
5 7 8 -0.1 0.8
-5 -7 -8 2 1.1
-5 -7 -8 -0.1 1.4
6 7 8 211.98 2.3
-6 -7 -8 -22.8 2.5
-6 -7 -8 219.48 2.2
-6 -7 -8 230.68 2.5
-7 -7 -8 -2.3 1.5
7 7 8 13.1 1.5
-7 -7 -8 22.7 1.3
-7 -7 -8 25.5 1.5
1 -8 -8 223.08 2.4
-1 8 8 243.58 3
1 -8 -8 242.38 2.6
1 -8 -8 206.98 2.7
0 -8 -8 58.59 1.7
0 8 8 70.79 1.7
0 -8 -8 70.69 1.7
-1 -8 -8 308.17 2.7
-1 -8 -8 333.77 2.6
1 8 8 292.57 2.5
-2 -8 -8 142.49 2.1
2 8 8 145.49 1.9
-2 -8 -8 77.59 2.1
-2 -8 -8 142.79 1.8
-3 -8 -8 150.18 2.1
3 8 8 149.59 1.8
-3 -8 -8 144.39 1.8
-3 -8 -8 154.88 2.1
4 8 8 120.89 1.7
-4 -8 -8 117.39 2
-4 -8 -8 131.39 1.8
-4 -8 -8 137.49 2.2
5 8 8 34.3 1.6
-5 -8 -8 39 1.5
-5 -8 -8 38.8 1.5
-5 -8 -8 40.3 1.4
6 8 8 219.18 2.5
-6 -8 -8 190.08 2.5
-6 -8 -8 198.88 2.3
-6 -8 -8 138.29 2.5
-1 -9 -8 146.89 2.1
1 9 8 144.99 2
-1 -9 -8 145.59 2.3
-1 -9 -8 165.28 2.2
2 9 8 2.7 1.1
-2 -9 -8 10.9 1.4
-2 -9 -8 0.3 1
-2 -9 -8 11.9 1.4
3 9 8 101.09 1.7
-3 -9 -8 100.99 1.8
-3 -9 -8 -9.6 1.7
-3 -9 -8 92.99 1.9
4 9 8 65.99 1.5
-4 -9 -8 55.19 1.5
-4 -9 -8 75.69 1.8
-4 -9 -8 70.09 1.7
0 -6 9 181.58 2.7
0 6 -9 179.28 2.7
1 -6 9 152.08 2.4
-1 6 -9 148.59 2.5
2 -6 9 283.67 3
-2 6 -9 313.77 3.5
3 -6 9 292.47 6.4
-3 6 -9 304.77 3.6
3 -6 9 266.97 3
-3 6 -9 174.88 7.9
4 -6 9 90.49 2.6
-4 6 -9 106.09 2.6
4 -6 9 91.09 2.3
-4 6 -9 79.29 3.2
5 -6 9 287.57 4.3
5 -6 9 279.97 3.7
-5 6 -9 335.97 4.9
-5 6 -9 277.87 4.2
6 -6 9 13.6 1.5
-6 6 -9 14.1 1.7
-1 -5 9 0.2 1.6
1 5 -9 1.8 1.7
0 -5 9 403.16 3.3
0 5 -9 371.56 3.5
1 -5 9 24.4 1.4
-1 5 -9 24.1 1.7
2 -5 9 209.68 2.6
-2 5 -9 188.78 2.6
-2 5 -9 198.48 5
3 -5 9 57.79 2
-3 5 -9 57.19 1.9
3 -5 9 63.39 1.7
-3 5 -9 57.09 2.7
4 -5 9 277.87 3.3
-4 5 -9 316.77 3.6
-4 5 -9 272.87 4.2
4 -5 9 288.97 3.2
5 -5 9 240.38 3.5
5 -5 9 209.48 2.7
-5 5 -9 237.28 4.1
-5 5 -9 222.38 3.2
6 -5 9 313.37 6
-6 5 -9 282.97 6.4
6 -5 9 269.47 3.1
-6 5 -9 261.17 3.4
7 -5 9 279.37 3.1
-7 5 -9 233.28 3.2
2 4 -9 187.48 3.7
-2 -4 9 124.49 2.3
2 4 -9 149.88 2.3
2 4 -9 190.28 4.2
1 4 -9 126.49 3.1
-1 -4 9 100.69 2.1
1 4 -9 104.09 2.2
1 4 -9 121.39 3.4
0 -4 9 311.97 2.8
0 4 -9 329.67 4.8
0 4 -9 286.37 2.9
0 4 -9 368.66 4.8
-1 4 -9 7.5 1.4
1 -4 9 5.6 1
-1 4 -9 5.9 2
-1 4 -9 2.8 1.4
2 -4 9 242.08 3.2
2 -4 9 229.98 2.4
-2 4 -9 250.87 3.8
-2 4 -9 218.58 2.8
3 -4 9 1.5 1.2
-3 4 -9 0.5 1.6
-3 4 -9 3.2 1.3
3 -4 9 1.1 1.1
4 -4 9 750.12 4.4
-4 4 -9 710.23 5.4
-4 4 -9 799.72 5.4
4 -4 9 761.02 4.6
5 -4 9 12.5 1.2
5 -4 9 14.9 1.6
-5 4 -9 16.1 1.8
-5 4 -9 19 1.6
6 -4 9 539.85 3.9
-6 4 -9 580.54 7
-6 4 -9 557.74 4.3
6 -4 9 597.14 6.3
7 -4 9 40.6 1.7
-7 4 -9 35 1.5
8 -4 9 316.57 3.3
-8 4 -9 271.47 3.1
3 3 -9 213.38 3.1
-3 -3 9 -36.6 2.2
3 3 -9 203.48 2.6
3 3 -9 222.08 3.6
2 3 -9 32 1.6
-2 -3 9 -4.1 1.2
2 3 -9 32.2 1.7
2 3 -9 32.7 1.9
1 3 -9 459.75 4.1
-1 -3 9 409.46 3.1
1 3 -9 360.46 3.3
1 3 -9 471.25 4.3
0 3 -9 -19.1 4.3
0 3 -9 389.46 3.8
0 -3 9 359.36 2.9
0 3 -9 347.47 3.2
1 -3 9 217.28 2.8
-1 3 -9 210.38 2.9
1 -3 9 208.88 2.4
-1 3 -9 199.98 2.6
2 -3 9 708.33 4.4
-2 3 -9 649.14 5
2 -3 9 750.92 4
-2 3 -9 719.33 4.4
3 -3 9 489.45 3.6
-3 3 -9 503.75 4.1
-3 3 -9 470.55 3.9
3 -3 9 499.65 3.5
4 -3 9 858.51 4.9
4 -3 9 795.82 4.2
-4 3 -9 891.21 5.2
-4 3 -9 801.32 5.5
5 -3 9 149.19 1.9
-5 3 -9 186.98 2.5
5 -3 9 185.48 2.7
-5 3 -9 172.28 3.2
6 -3 9 501.75 5
6 -3 9 449.16 3.3
-6 3 -9 449.16 3.4
-6 3 -9 464.85 5.7
7 -3 9 32.1 1.3
-7 3 -9 33 1.7
8 -3 9 251.97 3.3
-8 3 -9 -65.29 3.1
3 2 -9 294.57 3.1
-3 -2 9 270.27 3.3
3 2 -9 -35.8 3.1
3 2 -9 302.77 3.3
2 2 -9 1.7 1
-2 -2 9 0.5 1.3
2 2 -9 0.2 1.5
2 2 -9 0.1 1.2
1 2 -9 265.97 4.6
-1 -2 9 634.44 3.9
1 2 -9 727.33 4.3
1 2 -9 711.13 4.4
0 2 -9 72.09 1.7
0 2 -9 70.29 1.7
0 -2 9 66.09 1.5
0 2 -9 66.79 1.9
1 -2 9 959.5 4.7
-1 2 -9 947.51 4.9
1 -2 9 906.41 4.2
-1 2 -9 933.01 4.7
2 -2 9 41.9 1.4
-2 2 -9 44.1 1.5
2 -2 9 47.8 1.5
-2 2 -9 46 1.4
3 -2 9 1298.37 5.3
-3 2 -9 1222.58 5.4
3 -2 9 1235.38 5
-3 2 -9 1136.79 5.5
-4 2 -9 257.57 3.1
4 -2 9 263.17 2.5
4 -2 9 292.17 2.8
-4 2 -9 274.47 2.7
-5 2 -9 321.97 3.8
5 -2 9 323.97 2.7
-5 2 -9 363.76 3
5 -2 9 385.66 3.4
-6 2 -9 338.27 4.6
6 -2 9 351.36 2.9
6 -2 9 366.56 3.9
-6 2 -9 367.86 3
-7 2 -9 159.08 3.5
7 -2 9 172.68 2.3
-7 2 -9 169.78 2.1
-7 2 -9 135.19 4.3
8 -2 9 294.07 3.2
-8 2 -9 347.07 3.1
9 -2 9 55.29 1.6
-9 2 -9 53.09 1.9
3 1 -9 314.07 2.9
-3 -1 9 304.87 3
3 1 -9 314.97 3
3 1 -9 -74.99 3
2 1 -9 153.38 2
-2 -1 9 144.39 2
2 1 -9 -25.2 2
2 1 -9 102.69 2.3
1 1 -9 615.94 3.7
1 1 -9 642.34 3.7
-1 -1 9 552.64 3.8
1 1 -9 553.34 3.8
0 1 -9 182.68 2.2
0 -1 9 170.08 2.1
0 1 -9 187.48 2.4
-1 1 -9 915.11 4.4
1 -1 9 902.41 4.2
-1 1 -9 905.71 4.4
1 -1 9 893.41 4
-2 1 -9 158.38 2.3
2 -1 9 140.09 1.9
-2 1 -9 147.39 2
2 -1 9 155.28 2.1
-3 1 -9 763.02 4.2
3 -1 9 768.92 3.9
3 -1 9 738.73 3.7
-3 1 -9 702.03 3.8
-4 1 -9 3.3 1.1
4 -1 9 2.2 1
-4 1 -9 2.8 0.9
4 -1 9 2 1.2
-5 1 -9 550.24 4.3
5 -1 9 637.84 4
5 -1 9 501.05 3.1
-5 1 -9 549.25 3.3
-6 1 -9 42.5 1.9
6 -1 9 47.4 1.7
6 -1 9 40.3 1.2
-6 1 -9 44 1.6
-7 1 -9 516.95 4.7
-7 1 -9 488.15 4.9
7 -1 9 540.25 3.3
-7 1 -9 543.15 3.4
-8 1 -9 132.49 3.8
-8 1 -9 153.48 3.6
8 -1 9 140.39 2
-8 1 -9 43.3 2.2
-9 1 -9 351.16 7.9
9 -1 9 296.17 3.2
-9 1 -9 306.27 7.5
-9 1 -9 307.87 3
4 0 -9 78.59 3
-4 0 9 319.37 3.3
4 0 -9 344.07 3.2
4 0 -9 345.97 3.3
3 0 -9 41.8 1.5
-3 0 9 39.3 1.5
3 0 -9 42.9 1.7
3 0 -9 43.9 1.7
2 0 -9 517.85 3.2
-2 0 9 478.05 3.3
2 0 -9 503.65 3.4
2 0 -9 514.05 3.3
1 0 -9 276.07 2.6
1 0 -9 303.27 2.5
1 0 -9 305.47 2.5
-1 0 9 266.27 2.7
0 0 -9 418.06 3.1
0 0 9 375.16 2.7
0 0 -9 424.36 2.9
0 0 9 394.56 2.7
-1 0 -9 576.94 3.4
1 0 9 529.35 3
-1 0 -9 536.65 3.2
1 0 9 556.44 3.1
2 0 9 178.08 2
-2 0 -9 166.58 2.1
-2 0 -9 168.38 1.8
2 0 9 167.48 1.7
3 0 9 676.93 3.3
-3 0 -9 630.34 3.8
3 0 9 698.73 3.6
-3 0 -9 677.43 3.4
4 0 9 268.87 2.3
-4 0 -9 239.38 2.6
-4 0 -9 264.77 2.4
4 0 9 294.17 2.6
5 0 9 1071.59 4.3
-5 0 -9 967.2 5.1
-5 0 -9 1091.19 4.5
5 0 9 1244.68 5.2
6 0 9 50.89 1.3
-6 0 -9 53.29 1.8
-6 0 -9 51.79 1.3
6 0 9 59.69 1.6
-7 0 -9 977 5.6
7 0 9 1027.7 4.5
-7 0 -9 962.6 5.8
-7 0 -9 993.6 4.4
-8 0 -9 1.8 1.6
8 0 9 2.8 1.3
-8 0 -9 3.1 1.5
-8 0 -9 1.1 1.3
9 0 9 471.65 3.5
-9 0 -9 487.65 5.8
-9 0 -9 450.85 5.4
-9 0 -9 428.56 3.3
4 -1 -9 1 1.8
4 -1 -9 105.39 2.2
4 -1 -9 -25.9 1.5
-4 1 9 96.39 2.1
3 -1 -9 43.7 1.4
-3 1 9 39.4 1.6
3 -1 -9 38 1.4
3 -1 -9 25.2 1.5
2 -1 -9 422.86 2.9
2 -1 -9 381.66 2.9
2 -1 -9 400.16 2.7
-2 1 9 -27.3 2.8
1 -1 -9 11.4 1.2
1 -1 -9 11.3 1
1 -1 -9 12.4 1.2
-1 1 9 11.3 1
0 1 9 476.85 3.2
0 1 9 493.95 2.9
0 -1 -9 462.85 3.1
0 -1 -9 520.05 2.9
1 1 9 57.69 1.4
1 1 9 61.79 1.3
-1 -1 -9 54.79 1.4
-1 -1 -9 62.49 1.4
2 1 9 613.14 3.1
-2 -1 -9 616.64 3.7
-2 -1 -9 653.13 3.4
2 1 9 696.53 3.6
3 1 9 210.28 2.2
-3 -1 -9 212.68 2
-3 -1 -9 188.18 2.3
3 1 9 224.88 2.3
4 1 9 828.92 3.7
-4 -1 -9 813.52 3.7
-4 -1 -9 767.02 4.1
4 1 9 857.71 4
5 1 9 573.44 3.4
5 1 9 506.35 3.1
-5 -1 -9 494.95 3.1
-5 -1 -9 496.25 3.5
6 1 9 538.65 3.1
-6 -1 -9 532.95 3
-6 -1 -9 524.85 3.8
-7 -1 -9 454.45 3.5
7 1 9 482.95 3.2
-7 -1 -9 430.66 3
-7 -1 -9 436.16 3.6
-8 -1 -9 347.07 3.6
8 1 9 370.26 3
-8 -1 -9 350.06 3
-8 -1 -9 322.67 3.4
-9 -1 -9 252.17 3.5
9 1 9 237.88 2.6
-9 -1 -9 234.98 3.8
-9 -1 -9 232.38 2.7
-4 2 9 33.9 1.8
4 -2 -9 0.2 1.6
4 -2 -9 18.9 1.6
4 -2 -9 22 1.8
3 -2 -9 101.29 1.8
-3 2 9 88.09 1.8
3 -2 -9 99.09 1.8
3 -2 -9 99.19 1.8
2 -2 -9 -46.2 2.7
2 -2 -9 344.47 2.8
-2 2 9 363.86 3.1
2 -2 -9 362.86 2.5
1 -2 -9 79.49 1.4
-1 2 9 79.09 1.7
1 -2 -9 72.49 1.7
1 -2 -9 81.59 1.6
0 2 9 577.14 3
0 -2 -9 558.74 3.5
0 -2 -9 665.83 3.3
0 2 9 583.94 3.5
1 2 9 83.49 1.5
-1 -2 -9 88.79 1.6
-1 -2 -9 67.79 1.4
1 2 9 77.59 1.4
2 2 9 1171.28 4.1
-2 -2 -9 1314.97 4.5
-2 -2 -9 1105.79 4.4
2 2 9 1270.57 4.5
3 2 9 15.8 1
3 2 9 10 0.9
-3 -2 -9 13.2 0.9
-3 -2 -9 10.5 1.4
4 2 9 993.6 3.8
-4 -2 -9 1027.4 3.9
4 2 9 1113.99 4.6
-4 -2 -9 947.41 4.4
5 2 9 0.6 1.1
5 2 9 1.9 0.8
-5 -2 -9 2.5 0.9
-5 -2 -9 1.2 1.2
-6 -2 -9 949.01 4.5
-6 -2 -9 884.81 4.3
6 2 9 772.62 3.8
-6 -2 -9 782.12 3.9
-7 -2 -9 39.1 1.4
7 2 9 42.6 1.6
-7 -2 -9 37.1 1.3
-7 -2 -9 43.1 1.5
-8 -2 -9 305.67 3
-8 -2 -9 345.97 3.3
8 2 9 322.87 3
-8 -2 -9 302.17 2.8
-9 -2 -9 103.39 2.4
9 2 9 145.59 2.1
-9 -2 -9 133.49 2.6
-9 -2 -9 125.29 2
3 -3 -9 230.98 2.4
3 -3 -9 228.88 2.3
-3 3 9 234.08 2.6
3 -3 -9 213.08 2.2
2 -3 -9 98.79 1.8
2 -3 -9 129.19 2.1
2 -3 -9 126.19 1.7
-2 3 9 123.99 2
1 -3 -9 425.66 2.8
1 -3 -9 349.67 2.8
1 -3 -9 390.26 2.6
-1 3 9 396.76 3
0 3 9 368.76 2.4
0 -3 -9 425.76 2.7
0 -3 -9 322.47 2.5
0 3 9 385.96 2.8
1 3 9 488.05 2.7
-1 -3 -9 520.85 2.9
-1 -3 -9 435.76 3
1 3 9 481.35 3
2 3 9 710.43 3.4
2 3 9 634.74 3
-2 -3 -9 658.63 3.1
-2 -3 -9 620.64 3.2
3 3 9 186.18 1.8
-3 -3 -9 202.38 1.8
3 3 9 228.68 2
-3 -3 -9 204.78 2.1
4 3 9 662.43 3.3
4 3 9 864.21 3.9
-4 -3 -9 682.13 3.4
-4 -3 -9 771.52 3.9
5 3 9 18.1 1.2
-5 -3 -9 19.1 1.2
5 3 9 16.2 0.9
-5 -3 -9 17.8 1.2
-6 -3 -9 531.55 3.2
-6 -3 -9 588.84 3.5
6 3 9 523.95 3
-6 -3 -9 504.85 3
-7 -3 -9 23.8 1.4
-7 -3 -9 19.1 1.4
7 3 9 24 1.3
-7 -3 -9 23.4 1.3
-8 -3 -9 275.67 3
8 3 9 242.38 2.5
-8 -3 -9 245.68 2.8
-8 -3 -9 241.58 2.3
9 3 9 16 1.3
-9 -3 -9 21.7 1.6
-9 -3 -9 14.7 1.3
-9 -3 -9 1.8 1.6
3 -4 -9 326.27 2.8
3 -4 -9 315.67 2.6
-3 4 9 316.17 2.8
3 -4 -9 303.87 2.6
2 -4 -9 0.3 0.9
2 -4 -9 0.6 1.2
2 -4 -9 0.4 1
-2 4 9 1.1 1
1 -4 -9 609.54 3.4
1 -4 -9 597.64 3.4
1 -4 -9 561.34 3.6
-1 4 9 596.44 3.8
0 4 9 6.7 1.2
0 -4 -9 8.8 1.3
0 -4 -9 2.6 1.2
0 4 9 6.5 1.2
1 4 9 487.15 3
1 4 9 445.96 2.7
-1 -4 -9 477.65 2.8
-1 -4 -9 437.66 3
2 4 9 25.7 1
2 4 9 32.5 1.1
-2 -4 -9 30 1
-2 -4 -9 25.4 1.1
3 4 9 250.07 2
-3 -4 -9 261.37 2.2
3 4 9 319.97 2.3
-3 -4 -9 265.27 2.3
-4 -4 -9 262.47 2.4
4 4 9 275.57 2.3
4 4 9 227.08 2.1
-4 -4 -9 240.28 2.2
-5 -4 -9 190.38 2.3
5 4 9 176.38 1.8
-5 -4 -9 186.38 1.9
-6 -4 -9 331.57 2.6
6 4 9 303.27 2.5
-6 -4 -9 355.86 2.9
-6 -4 -9 304.67 2.3
-7 -4 -9 142.99 2.1
7 4 9 121.79 1.7
-7 -4 -9 131.49 1.9
-7 -4 -9 123.89 1.9
-8 -4 -9 367.76 3.3
8 4 9 362.76 3
-8 -4 -9 363.96 3.1
-8 -4 -9 367.96 3.3
3 -5 -9 181.18 2.5
3 -5 -9 180.88 2.1
-3 5 9 188.38 2.5
3 -5 -9 136.69 2.2
2 -5 -9 55.39 1.3
2 -5 -9 59.79 1.5
2 -5 -9 54.79 1.7
-2 5 9 58.99 1.5
1 -5 -9 261.97 2.3
1 -5 -9 252.87 2.3
1 -5 -9 239.48 2.6
-1 5 9 274.97 2.8
0 5 9 51.79 1.5
0 -5 -9 46.5 1.2
0 5 9 45 1.4
0 -5 -9 45.9 1.5
1 5 9 299.87 2.3
-1 -5 -9 310.57 2.3
1 5 9 324.47 2.5
-1 -5 -9 281.17 2.3
2 5 9 11 0.8
-2 -5 -9 8.7 1
-2 -5 -9 7 1.2
2 5 9 7.4 1.2
-3 -5 -9 451.05 3
3 5 9 435.76 2.7
-3 -5 -9 449.66 2.6
3 5 9 498.05 3.2
-4 -5 -9 4.7 1
4 5 9 4.4 1
4 5 9 5 1.2
-4 -5 -9 6.1 1.1
-5 -5 -9 683.13 3.7
5 5 9 643.24 3.4
-5 -5 -9 697.73 3.7
-5 -5 -9 648.94 3.2
-6 -5 -9 41.7 1.2
6 5 9 37.8 1.2
-6 -5 -9 41.5 1.5
-6 -5 -9 38.8 1.2
-7 -5 -9 414.46 3.1
7 5 9 368.36 3
-7 -5 -9 370.16 2.9
-7 -5 -9 430.06 3.3
8 5 9 85.19 1.7
-8 -5 -9 24.5 2
-8 -5 -9 78.89 1.6
-8 -5 -9 83.99 1.7
2 -6 -9 107.89 2.1
-2 6 9 -11.1 2.3
2 -6 -9 185.88 2.2
2 -6 -9 167.48 2.3
1 -6 -9 125.99 1.9
1 -6 -9 122.89 1.7
-1 6 9 138.59 2.2
1 -6 -9 124.79 2
0 6 9 116.99 1.7
0 -6 -9 123.69 1.7
0 6 9 114.79 2.1
0 -6 -9 116.79 2
1 6 9 556.44 3.5
1 6 9 489.95 3
-1 -6 -9 534.55 3.1
-1 -6 -9 486.05 3.2
2 6 9 52.99 1.4
-2 -6 -9 52.49 1.2
2 6 9 62.39 1.4
-2 -6 -9 48.4 1.5
-3 -6 -9 507.95 3.3
3 6 9 628.14 3.6
3 6 9 504.25 3
-3 -6 -9 510.35 2.9
-4 -6 -9 121.89 1.8
4 6 9 120.09 1.7
-4 -6 -9 139.49 2.1
-4 -6 -9 122.69 1.9
-5 -6 -9 528.25 3.3
5 6 9 492.75 3.1
-5 -6 -9 548.45 3.5
-5 -6 -9 496.25 3.2
-6 -6 -9 13.7 1.1
6 6 9 12.6 1
-6 -6 -9 15.7 1
-6 -6 -9 12.4 1.4
-7 -6 -9 -48.9 2.8
7 6 9 241.38 2.6
-7 -6 -9 238.18 2.4
-7 -6 -9 264.57 2.9
1 -7 -9 35.7 1.2
1 -7 -9 35.4 1.5
1 -7 -9 29.1 1.2
-1 7 9 35.9 1.3
0 7 9 306.37 2.7
0 -7 -9 -15.8 2.7
0 7 9 371.96 3.1
0 -7 -9 276.17 2.7
1 7 9 99.49 1.7
-1 -7 -9 100.89 1.7
-1 -7 -9 98.89 1.9
1 7 9 104.09 1.9
-2 -7 -9 407.16 2.9
2 7 9 408.86 2.9
-2 -7 -9 417.66 3
2 7 9 482.55 3.2
-3 -7 -9 100.29 1.6
-3 -7 -9 107.69 1.9
3 7 9 103.59 1.7
-3 -7 -9 63.09 1.8
-4 -7 -9 -21 2.3
4 7 9 248.18 2.3
-4 -7 -9 233.28 2.5
-4 -7 -9 242.38 2.4
-5 -7 -9 170.18 2
5 7 9 171.78 1.9
-5 -7 -9 174.98 2.1
-5 -7 -9 190.48 2.2
-6 -7 -9 55.39 1.4
6 7 9 55.99 1.3
-6 -7 -9 57.79 1.3
-6 -7 -9 60.59 1.5
0 -8 -9 247.78 2.4
0 8 9 188.08 3
0 -8 -9 197.68 2.5
1 8 9 16.4 1
1 8 9 18.8 1.2
-1 -8 -9 15.1 1
-1 -8 -9 21.9 1.3
-2 -8 -9 257.97 2.7
-2 -8 -9 249.68 2.6
2 8 9 265.47 2.4
-2 -8 -9 261.27 2.4
-3 -8 -9 0.6 1.3
3 8 9 -0.1 0.8
-3 -8 -9 2.4 1
-3 -8 -9 0.2 1.1
-4 -8 -9 201.08 2.5
4 8 9 165.68 2
-4 -8 -9 177.88 2.4
-4 -8 -9 167.98 2
5 8 9 16.4 1.2
-5 -8 -9 13.7 1.5
-5 -8 -9 18.5 1.1
-5 -8 -9 17.9 1.5
-3 6 -10 244.88 3.5
3 -6 10 267.67 3.2
0 -5 10 -20.3 1.8
0 5 -10 83.99 2.3
1 -5 10 159.58 2.5
-1 5 -10 149.49 2.5
-1 5 -10 154.48 7.8
-1 5 -10 160.78 7.5
-2 5 -10 47 2.7
2 -5 10 38.1 1.7
-2 5 -10 34.2 1.7
-2 5 -10 38.6 3
3 -5 10 252.27 3.9
-3 5 -10 244.08 3.5
3 -5 10 265.17 3
-3 5 -10 252.67 4.7
4 -5 10 13.8 1.5
-4 5 -10 15.1 1.6
-4 5 -10 8.2 1.9
4 -5 10 -1.8 1.4
5 -5 10 341.77 4.2
5 -5 10 340.57 3.7
-5 5 -10 403.46 4.9
-5 5 -10 335.87 4.5
6 -5 10 1 1.6
6 -5 10 1.1 1.2
-6 5 -10 2 2.1
-6 5 -10 0.8 1.4
1 4 -10 19 1.9
-1 -4 10 19.2 1.5
1 4 -10 17 1.7
1 4 -10 19.8 2.3
0 4 -10 213.88 4.1
0 -4 10 199.88 2.5
0 4 -10 191.28 2.8
0 4 -10 191.88 4.2
-1 4 -10 36.1 2.2
-1 4 -10 59.69 2.4
1 -4 10 52.49 1.7
-1 4 -10 52.69 1.8
2 -4 10 498.15 4.5
-2 4 -10 465.15 5.3
2 -4 10 429.26 3.5
-2 4 -10 383.96 3.7
3 -4 10 229.98 3.1
-3 4 -10 204.68 3.8
-3 4 -10 212.78 2.9
3 -4 10 242.28 2.7
4 -4 10 289.77 3.1
4 -4 10 283.47 3.1
-4 4 -10 300.97 3.9
-4 4 -10 296.47 3.5
5 -4 10 423.16 3.7
5 -4 10 487.55 4.5
-5 4 -10 541.75 5.2
-5 4 -10 512.45 4.5
6 -4 10 189.08 2.5
6 -4 10 196.78 3.7
-6 4 -10 225.38 4.3
-6 4 -10 208.78 3
7 -4 10 365.86 3.4
-7 4 -10 -65.29 3.5
1 3 -10 0.1 1.4
-1 -3 10 0 1.2
1 3 -10 1 1.5
1 3 -10 0.1 1.5
0 3 -10 548.05 4.6
0 3 -10 561.84 4.7
0 -3 10 503.05 3.6
0 3 -10 506.15 3.7
-1 3 -10 5.9 1.3
1 -3 10 1.9 1
-1 3 -10 4.5 1.2
2 -3 10 591.54 4
-2 3 -10 548.45 4.5
2 -3 10 588.74 3.7
-2 3 -10 577.04 4
3 -3 10 41.1 1.5
-3 3 -10 42.7 1.7
-3 3 -10 41 1.7
3 -3 10 -1.5 1.7
4 -3 10 623.94 4.1
4 -3 10 623.34 3.8
-4 3 -10 665.93 4.5
-4 3 -10 573.04 4.6
5 -3 10 50.59 1.5
5 -3 10 60.19 1.7
-5 3 -10 62.99 1.6
-5 3 -10 61.19 2.2
6 -3 10 418.96 3.3
6 -3 10 479.75 4.5
-6 3 -10 443.66 3.7
-6 3 -10 449.46 5.3
-7 3 -10 82.59 3
7 -3 10 75.39 1.7
-7 3 -10 86.09 3.6
-7 3 -10 81.89 1.9
8 -3 10 100.69 2.1
-8 3 -10 110.69 2.3
2 2 -10 247.08 3
-2 -2 10 225.38 2.7
2 2 -10 228.28 2.9
2 2 -10 262.37 3.2
1 2 -10 176.18 2.5
-1 -2 10 144.09 2.3
1 2 -10 171.68 2.5
1 2 -10 156.38 2.4
0 2 -10 447.06 3.5
0 2 -10 476.45 3.6
0 -2 10 417.46 3
0 2 -10 260.97 3.4
1 -2 10 68.49 1.6
-1 2 -10 73.59 1.7
1 -2 10 66.19 1.4
-1 2 -10 69.19 1.6
2 -2 10 485.55 3.3
-2 2 -10 455.65 3.5
2 -2 10 500.05 3.4
-2 2 -10 494.65 3.7
3 -2 10 26.2 1.2
3 -2 10 2.7 1.3
-3 2 -10 25.3 1.4
-3 2 -10 27.9 1.6
4 -2 10 642.44 3.6
4 -2 10 631.04 3.8
-4 2 -10 642.84 4
-4 2 -10 610.84 4.2
5 -2 10 1.4 0.8
-5 2 -10 0.8 1.4
5 -2 10 0.9 1.1
-5 2 -10 0.7 1.4
6 -2 10 275.67 2.7
-6 2 -10 -23.5 2.9
6 -2 10 327.97 3.4
-6 2 -10 303.37 3.9
-7 2 -10 4.8 1.4
7 -2 10 1.4 1
-7 2 -10 1.5 1.3
-7 2 -10 -0.3 1.9
-8 2 -10 233.98 5.9
8 -2 10 258.07 2.8
-8 2 -10 255.77 2.7
-8 2 -10 253.97 6.1
2 1 -10 25.4 1.4
-2 -1 10 18 1.3
2 1 -10 24.3 1.4
2 1 -10 21 1.4
1 1 -10 528.05 3.7
1 1 -10 540.45 3.7
-1 -1 10 479.35 3.5
1 1 -10 508.25 3.7
0 1 -10 52.29 1.5
0 1 -10 54.99 1.5
0 -1 10 46.1 1.6
0 1 -10 47.9 1.5
-1 1 -10 477.85 3.5
1 -1 10 488.15 3.2
-1 1 -10 519.25 3.4
1 -1 10 26.9 3.6
2 -1 10 235.68 2.3
-2 1 -10 230.98 2.7
2 -1 10 218.58 2.1
-2 1 -10 220.78 2.3
-3 1 -10 270.87 2.8
3 -1 10 268.37 2.3
3 -1 10 253.37 2.2
-3 1 -10 250.27 2.5
-4 1 -10 249.48 2.7
4 -1 10 245.38 2.2
-4 1 -10 245.48 2.4
4 -1 10 255.67 2.4
5 -1 10 53.79 1.3
-5 1 -10 48.1 1.7
5 -1 10 48.8 1.5
-5 1 -10 51.29 1.3
-6 1 -10 315.47 3.5
6 -1 10 324.37 3.2
6 -1 10 289.47 2.6
-6 1 -10 304.77 2.6
-7 1 -10 69.89 2.1
-7 1 -10 61.39 2.2
7 -1 10 66.99 1.5
-7 1 -10 2.5 1.8
-8 1 -10 503.85 6
-8 1 -10 473.55 5.5
8 -1 10 480.85 3.6
-8 1 -10 472.85 3.5
2 0 -10 52.59 1.6
-2 0 10 50.09 1.8
2 0 -10 50.69 1.6
2 0 -10 53.09 1.6
1 0 -10 422.96 3
1 0 -10 405.96 2.9
-1 0 10 366.26 3.1
1 0 -10 384.56 3.2
0 0 -10 6.2 1.2
0 0 -10 7.7 1.2
0 0 10 1.9 1.4
1 0 10 540.85 3.4
-1 0 -10 532.55 3.5
1 0 10 557.54 3.2
-1 0 -10 564.44 3.2
-2 0 -10 21.3 1.2
2 0 10 23.1 1
2 0 10 24.1 1.4
-2 0 -10 20.9 1
3 0 10 553.24 3.1
-3 0 -10 532.15 3.6
-3 0 -10 579.14 3.2
3 0 10 599.44 3.4
4 0 10 100.59 1.6
-4 0 -10 95.69 1.8
-4 0 -10 99.59 1.7
4 0 10 108.69 1.6
5 0 10 664.13 3.6
-5 0 -10 648.94 4.2
5 0 10 796.82 4.2
-5 0 -10 728.63 3.7
6 0 10 273.27 2.9
6 0 10 251.37 2.3
-6 0 -10 238.98 2.8
-6 0 -10 259.97 2.4
-7 0 -10 349.67 3.4
7 0 10 376.46 2.8
-7 0 -10 318.77 3.6
-7 0 -10 327.87 2.8
-8 0 -10 182.38 3.1
8 0 10 164.98 2.2
-8 0 -10 25.5 3.3
-8 0 -10 154.08 2
9 0 10 149.09 2.1
-9 0 -10 157.58 3.9
-9 0 -10 10.4 3.8
-9 0 -10 139.09 2.2
3 -1 -10 112.69 1.8
3 -1 -10 92.39 2.3
3 -1 -10 124.29 2
-3 1 10 106.69 2.1
2 -1 -10 163.28 2.1
-2 1 10 159.98 2.2
2 -1 -10 124.39 2.2
2 -1 -10 164.98 2.1
-1 1 10 259.17 2.6
1 -1 -10 290.97 2.5
1 -1 -10 275.37 2.7
1 -1 -10 276.87 2.4
0 1 10 34.7 1.3
0 1 10 34.1 1.6
0 -1 -10 32.8 1.4
0 -1 -10 37.5 1.2
1 1 10 522.05 3
-1 -1 -10 513.35 3.5
1 1 10 518.95 3.2
-1 -1 -10 578.44 3.3
2 1 10 23.5 1.2
-2 -1 -10 25.7 1.3
-2 -1 -10 24 1.3
2 1 10 24.5 1.5
3 1 10 808.52 3.6
-3 -1 -10 701.43 3.8
-3 -1 -10 809.32 3.7
3 1 10 866.21 4
4 1 10 9.9 0.9
4 1 10 8.6 0.9
-4 -1 -10 9.5 0.9
-4 -1 -10 13.1 1.3
5 1 10 895.81 4
-5 -1 -10 867.41 3.9
-5 -1 -10 858.21 4.4
5 1 10 1045.2 4.5
6 1 10 12.2 1.3
6 1 10 9.8 1
-6 -1 -10 12.4 1
-6 -1 -10 10.4 1.3
-7 -1 -10 237.98 2.8
7 1 10 244.88 2.3
-7 -1 -10 243.48 2.3
-7 -1 -10 227.68 2.8
-8 -1 -10 9.1 1.4
8 1 10 10.6 1
-8 -1 -10 4.9 1.4
-8 -1 -10 8.6 1.4
9 1 10 205.78 2.5
-9 -1 -10 205.28 3.6
-9 -1 -10 206.68 2.6
-9 -1 -10 185.18 3.3
2 -2 -10 265.87 2.4
2 -2 -10 261.87 2.8
-2 2 10 255.07 2.8
2 -2 -10 268.17 2.4
1 -2 -10 162.58 1.9
1 -2 -10 145.29 2.2
-1 2 10 154.68 2
1 -2 -10 165.98 2.1
0 2 10 424.46 2.8
0 -2 -10 377.86 3.1
0 2 10 404.46 3
0 -2 -10 442.96 2.8
1 2 10 226.18 2.2
-1 -2 -10 209.88 2.5
-1 -2 -10 263.37 2.3
1 2 10 226.78 2.5
2 2 10 581.14 3
-2 -2 -10 624.74 3.4
-2 -2 -10 548.95 3.3
2 2 10 622.34 3.3
3 2 10 240.78 2.2
-3 -2 -10 223.18 2.1
-3 -2 -10 220.18 2.4
3 2 10 240.38 2.2
4 2 10 612.14 3.1
4 2 10 683.53 3.5
-4 -2 -10 575.84 3.1
-4 -2 -10 594.14 3.5
5 2 10 297.87 2.4
5 2 10 338.47 2.7
-5 -2 -10 282.37 2.5
-5 -2 -10 299.27 2.6
6 2 10 102.49 1.7
-6 -2 -10 94.49 1.6
-6 -2 -10 98.19 1.7
-7 -2 -10 291.17 2.8
7 2 10 282.77 2.7
-7 -2 -10 271.37 2.5
-7 -2 -10 284.77 2.8
-8 -2 -10 38.8 1.5
8 2 10 43.5 1.6
-8 -2 -10 30.2 1.6
-8 -2 -10 39.1 1.6
2 -3 -10 -92.49 2.7
2 -3 -10 323.17 3
2 -3 -10 344.27 3.1
-2 3 10 328.97 3.1
1 -3 -10 6.4 0.9
1 -3 -10 3.7 1
1 -3 -10 3.5 0.9
-1 3 10 0.6 1.4
0 3 10 633.84 3.2
0 -3 -10 594.24 3.6
0 -3 -10 582.24 3.6
0 3 10 653.53 3.6
1 3 10 -0.1 0.8
-1 -3 -10 -0.2 0.9
-1 -3 -10 6.2 1.3
1 3 10 -0.7 0.9
2 3 10 688.63 3.4
-2 -3 -10 765.02 3.5
-2 -3 -10 682.93 3.9
2 3 10 772.62 3.9
3 3 10 15.5 0.9
3 3 10 18.1 1
-3 -3 -10 15.2 1
-3 -3 -10 13.7 1
4 3 10 533.15 3
-4 -3 -10 537.75 3.2
-4 -3 -10 540.35 3.4
4 3 10 601.54 3.3
5 3 10 148.79 1.9
5 3 10 166.08 2.1
-5 -3 -10 142.49 1.8
-5 -3 -10 151.08 2
-6 -3 -10 238.28 2.3
6 3 10 225.88 2.2
-6 -3 -10 227.98 2.4
-6 -3 -10 261.77 2.6
-7 -3 -10 153.28 2.3
-7 -3 -10 145.59 2
7 3 10 114.79 2
-7 -3 -10 144.99 2.1
-8 -3 -10 258.97 2.9
-8 -3 -10 302.07 3.1
8 3 10 277.37 2.6
-8 -3 -10 261.97 2.5
2 -4 -10 -42.7 1.6
2 -4 -10 158.98 2.4
2 -4 -10 120.29 1.9
-2 4 10 153.08 2.5
1 -4 -10 150.18 1.9
1 -4 -10 163.88 1.9
1 -4 -10 143.29 2
-1 4 10 5.8 2.4
0 4 10 242.18 2.3
0 -4 -10 257.27 2.4
0 -4 -10 214.48 2.4
0 4 10 264.27 2.6
1 4 10 59.09 1.7
1 4 10 59.09 1.3
-1 -4 -10 68.69 1.6
-1 -4 -10 50.49 1.4
2 4 10 356.86 2.5
2 4 10 356.16 2.8
-2 -4 -10 361.56 2.6
-2 -4 -10 312.17 2.7
3 4 10 1.5 1
-3 -4 -10 1 0.9
-3 -4 -10 8.3 1.4
3 4 10 2.6 1.3
4 4 10 317.87 2.5
-4 -4 -10 303.67 2.4
4 4 10 391.66 2.8
-4 -4 -10 346.57 2.8
-5 -4 -10 19.8 1.4
5 4 10 19.5 1.4
5 4 10 15.5 1.2
-5 -4 -10 17.1 1.3
-6 -4 -10 402.96 3
-6 -4 -10 392.56 3
6 4 10 366.66 2.8
-6 -4 -10 391.36 2.8
-7 -4 -10 7 1.4
-7 -4 -10 3.9 1.2
7 4 10 4.2 0.9
-7 -4 -10 2.1 1.2
-8 -4 -10 -17.7 3.4
-8 -4 -10 366.76 3.4
8 4 10 314.37 3
-8 -4 -10 -1.3 3
1 -5 -10 196.08 2.3
1 -5 -10 170.28 2.3
1 -5 -10 171.88 2.5
-1 5 10 197.68 2.7
0 5 10 106.99 1.8
0 5 10 88.39 1.5
0 -5 -10 -11 1.6
0 -5 -10 -15.1 1.5
1 5 10 148.59 2
-1 -5 -10 196.78 2.2
1 5 10 183.78 2.1
-1 -5 -10 154.18 2.2
2 5 10 127.99 1.7
-2 -5 -10 136.39 1.9
2 5 10 137.89 1.9
-2 -5 -10 116.89 1.9
3 5 10 180.28 1.9
-3 -5 -10 188.58 1.9
3 5 10 198.58 2.4
-3 -5 -10 183.88 2.3
4 5 10 351.06 2.6
-4 -5 -10 341.67 2.6
4 5 10 422.56 3
-4 -5 -10 372.96 2.9
-5 -5 -10 133.79 1.9
-5 -5 -10 124.59 1.8
5 5 10 116.19 1.6
-5 -5 -10 109.99 1.6
-6 -5 -10 437.66 3.2
-6 -5 -10 445.96 3.4
6 5 10 390.66 2.9
-6 -5 -10 401.96 2.8
-7 -5 -10 40.6 1.5
7 5 10 47.4 1.6
-7 -5 -10 43.6 1.5
-7 -5 -10 46 1.4
1 -6 -10 196.08 2.3
1 -6 -10 176.48 2.4
-1 6 10 190.88 2.5
1 -6 -10 176.58 2.5
0 6 10 15.4 1.3
0 -6 -10 19.8 1.1
0 6 10 -1.3 1.4
0 -6 -10 15.2 1.1
1 6 10 136.59 1.9
-1 -6 -10 133.29 1.8
-1 -6 -10 118.49 2
1 6 10 139.79 2
2 6 10 2.3 0.8
-2 -6 -10 0.6 0.8
2 6 10 4.8 1.2
-2 -6 -10 0.6 1.2
3 6 10 376.26 2.7
3 6 10 417.96 3.1
-3 -6 -10 360.66 2.6
-3 -6 -10 -46.4 3.1
-4 -6 -10 92.29 1.9
4 6 10 77.09 1.5
-4 -6 -10 77.59 1.4
-5 -6 -10 265.17 2.7
-5 -6 -10 330.67 2.9
5 6 10 274.37 2.6
-5 -6 -10 304.47 2.5
-6 -6 -10 45.4 1.7
6 6 10 37.5 1.3
-6 -6 -10 43.5 1.4
-6 -6 -10 40.2 1.5
-7 -6 -10 157.88 2.2
7 6 10 142.39 2
-7 -6 -10 111.49 2.5
-7 -6 -10 144.69 2.2
1 7 10 123.49 2
-1 -7 -10 121.39 1.8
1 7 10 134.49 2.3
-1 -7 -10 108.49 1.9
2 7 10 56.79 1.4
-2 -7 -10 56.39 1.7
2 7 10 51.49 1.5
-2 -7 -10 47.8 1.4
-3 -7 -10 281.77 2.8
3 7 10 273.87 2.5
-3 -7 -10 86.49 2.7
-4 -7 -10 1.3 1.3
-4 -7 -10 8.4 1.5
4 7 10 6.3 0.9
-4 -7 -10 -0.6 1
-5 -7 -10 129.39 1.9
5 7 10 -19.7 1.7
-5 -7 -10 -12.5 2.1
-5 -7 -10 137.09 2
-1 4 -11 220.58 4.4
1 -4 11 210.68 2.5
-1 4 -11 190.98 2.6
-1 4 -11 241.08 4.2
-2 4 -11 5.3 2
-2 4 -11 14.6 1.4
2 -4 11 9.5 1.5
3 -4 11 469.35 4.5
-3 4 -11 445.86 5.3
-3 4 -11 399.66 4
3 -4 11 427.56 3.6
4 -4 11 -0.2 1.2
4 -4 11 0.2 1.2
-4 4 -11 1 1.6
-4 4 -11 1.8 1.5
5 -4 11 340.27 3.6
5 -4 11 352.36 4
-5 4 -11 367.46 4.7
-5 4 -11 391.06 4.4
0 3 -11 186.28 3.4
0 -3 11 160.88 2.4
0 3 -11 180.28 2.5
0 3 -11 154.48 3.3
-1 3 -11 273.77 3.6
-1 3 -11 253.57 3.7
-1 3 -11 229.28 2.8
1 -3 11 210.18 2.8
2 -3 11 363.26 3.6
-2 3 -11 344.07 4
-2 3 -11 351.66 3.5
2 -3 11 346.27 3.2
3 -3 11 439.06 3.6
-3 3 -11 441.06 4.1
-3 3 -11 442.96 3.9
3 -3 11 436.36 3.6
4 -3 11 172.48 2.5
4 -3 11 153.38 2.3
-4 3 -11 177.68 2.7
-4 3 -11 167.38 2.9
5 -3 11 266.77 2.8
5 -3 11 293.27 3.3
-5 3 -11 137.29 3.3
-5 3 -11 266.87 3.9
6 -3 11 27.9 1.5
6 -3 11 27.9 1.7
-6 3 -11 25.7 1.5
-6 3 -11 30.8 2.2
7 -3 11 218.88 2.6
-7 3 -11 244.58 3
-7 3 -11 210.98 5
0 2 -11 311.27 3.3
0 2 -11 300.47 3.2
0 -2 11 295.87 3
0 2 -11 316.87 3.1
1 -2 11 -0.3 0.9
-1 2 -11 2.6 1.3
1 -2 11 1.2 1
-1 2 -11 2.2 1.6
2 -2 11 726.63 4.4
-2 2 -11 757.52 4.8
-2 2 -11 743.13 4.4
2 -2 11 724.13 4.1
3 -2 11 55.89 1.4
3 -2 11 50.29 1.5
-3 2 -11 52.19 1.5
-3 2 -11 48.5 1.6
4 -2 11 279.57 2.6
4 -2 11 289.77 2.9
-4 2 -11 285.67 3.1
-4 2 -11 301.57 3.4
5 -2 11 112.89 1.7
-5 2 -11 128.49 2
5 -2 11 119.09 2.1
-5 2 -11 122.09 2.5
6 -2 11 256.77 2.7
6 -2 11 222.18 3.4
-6 2 -11 282.57 3.1
-6 2 -11 296.97 3.9
7 -2 11 214.88 2.6
-7 2 -11 216.68 2.6
-7 2 -11 243.68 4.4
1 1 -11 77.39 1.8
-1 -1 11 63.09 1.9
1 1 -11 66.79 1.7
1 1 -11 59.29 1.7
0 1 -11 390.16 3.3
0 1 -11 386.96 3.3
0 -1 11 303.37 2.9
0 1 -11 345.67 3.1
1 -1 11 86.79 1.8
-1 1 -11 98.89 2
1 -1 11 86.99 1.7
-1 1 -11 91.59 2
-2 1 -11 379.66 3.2
2 -1 11 386.96 2.9
2 -1 11 403.96 3
-2 1 -11 408.36 3.2
-3 1 -11 22 1.2
3 -1 11 24.3 1.2
3 -1 11 24.7 1.4
-3 1 -11 23.3 1.4
-4 1 -11 242.38 2.7
4 -1 11 240.88 2.3
-4 1 -11 227.38 2.4
4 -1 11 254.27 2.4
-5 1 -11 8.9 1.2
5 -1 11 10.5 0.9
-5 1 -11 8.1 1
5 -1 11 7.9 1.1
-6 1 -11 481.95 4.6
6 -1 11 446.66 3.2
-6 1 -11 540.45 3.7
6 -1 11 524.95 4.1
-7 1 -11 98.39 2.7
7 -1 11 89.49 1.9
-7 1 -11 87.59 1.9
-8 1 -11 295.27 5.1
-8 1 -11 272.77 4.4
8 -1 11 292.07 2.9
-8 1 -11 291.57 3
1 0 -11 -53.29 2.5
1 0 -11 207.48 2.6
1 0 -11 192.78 2.6
-1 0 11 169.88 2.7
0 0 -11 161.28 2.2
0 0 11 152.98 2.2
0 0 -11 159.88 2.3
0 0 -11 173.38 2.3
-1 0 -11 114.89 2.1
1 0 11 110.79 1.6
1 0 11 111.79 1.9
-1 0 -11 112.59 1.7
-2 0 -11 291.07 2.8
2 0 11 306.97 2.5
2 0 11 323.97 2.8
-2 0 -11 327.17 2.7
-3 0 -11 74.19 1.8
3 0 11 86.59 1.5
3 0 11 75.99 1.5
-3 0 -11 83.29 1.8
4 0 11 468.35 3
-4 0 -11 465.65 3.6
-4 0 -11 453.35 3.1
4 0 11 523.05 3.4
5 0 11 98.89 1.7
5 0 11 86.89 1.7
-5 0 -11 81.89 1.8
-5 0 -11 89.49 1.6
6 0 11 563.34 3.8
6 0 11 447.66 3.3
-6 0 -11 482.75 4
-6 0 -11 512.45 3.4
7 0 11 16.3 1.4
-7 0 -11 11.8 1.5
-7 0 -11 15.2 1.2
-8 0 -11 348.27 4.1
8 0 11 329.97 3.1
-8 0 -11 332.77 4.2
-8 0 -11 -78.39 2.5
1 -1 -11 195.98 2.5
1 -1 -11 210.58 2.4
-1 1 11 187.68 2.4
1 -1 -11 136.09 2.5
0 -1 -11 11 1.4
0 1 11 14 1.1
0 -1 -11 9.6 1.1
1 1 11 322.27 2.6
-1 -1 -11 323.27 3
1 1 11 318.47 2.6
-1 -1 -11 350.76 2.7
2 1 11 123.39 1.7
-2 -1 -11 113.99 2.1
-2 -1 -11 140.09 1.9
2 1 11 126.59 2
3 1 11 457.35 2.9
-3 -1 -11 421.86 3.1
-3 -1 -11 528.75 3.3
3 1 11 537.05 3.3
4 1 11 349.67 2.7
4 1 11 310.67 2.4
-4 -1 -11 315.67 2.9
-4 -1 -11 306.67 2.5
5 1 11 223.28 2.3
-5 -1 -11 230.28 2.5
-5 -1 -11 246.88 2.3
5 1 11 284.47 2.5
6 1 11 6.7 2.8
6 1 11 196.28 2.2
-6 -1 -11 180.08 2.7
-6 -1 -11 191.98 2.1
-7 -1 -11 234.38 2.8
7 1 11 -29 2.3
-7 -1 -11 234.08 2.9
-7 -1 -11 259.47 2.6
-8 -1 -11 140.99 2.8
8 1 11 162.58 2.1
-8 -1 -11 159.08 2.9
-8 -1 -11 151.18 2.3
1 -2 -11 184.98 2.2
1 -2 -11 178.98 2.6
-1 2 11 177.58 2.6
1 -2 -11 184.68 2.2
0 2 11 47.5 1.3
0 -2 -11 47.9 1.6
0 -2 -11 -3 1.4
0 2 11 44.8 1.5
1 2 11 453.65 2.9
-1 -2 -11 321.47 3.4
-1 -2 -11 489.15 3.2
1 2 11 427.96 3.3
2 2 11 15.6 1
-2 -2 -11 10.2 1.1
-2 -2 -11 13.5 1
2 2 11 14.1 1.3
3 2 11 529.65 3.1
-3 -2 -11 503.25 3.3
-3 -2 -11 564.74 3.3
3 2 11 584.54 3.4
4 2 11 7.3 0.9
4 2 11 11.2 1.2
-4 -2 -11 12.2 1
-4 -2 -11 7.1 1.1
5 2 11 384.16 2.8
5 2 11 342.27 2.6
-5 -2 -11 309.67 2.5
-5 -2 -11 360.16 3
6 2 11 18.1 1.4
6 2 11 13.6 1.3
-6 -2 -11 12.4 1.1
-6 -2 -11 16.3 1.4
-7 -2 -11 209.88 2.4
7 2 11 208.68 2.4
-7 -2 -11 217.98 2.3
-7 -2 -11 224.48 2.7
-8 -2 -11 125.99 2.5
8 2 11 123.39 2
-8 -2 -11 115.69 2
-8 -2 -11 117.69 2.4
1 -3 -11 112.89 2
1 -3 -11 96.59 2
1 -3 -11 123.99 1.8
-1 3 11 106.09 2.3
0 3 11 250.47 2.6
0 -3 -11 238.38 2.8
0 -3 -11 302.07 2.6
0 3 11 273.27 2.7
1 3 11 313.27 2.5
-1 -3 -11 344.47 2.5
-1 -3 -11 285.67 2.9
1 3 11 326.17 2.8
2 3 11 184.78 2
-2 -3 -11 206.98 2.2
-2 -3 -11 152.88 2.1
2 3 11 173.58 2.4
3 3 11 387.16 2.7
3 3 11 477.15 3.1
-3 -3 -11 418.06 2.9
-3 -3 -11 392.16 3.1
4 3 11 42.4 1.3
-4 -3 -11 45 1.5
-4 -3 -11 44.9 1.5
4 3 11 54.59 1.6
5 3 11 328.47 2.5
-5 -3 -11 372.06 2.8
-5 -3 -11 353.96 2.9
5 3 11 401.96 3
6 3 11 0.7 1.2
-6 -3 -11 0.9 1.2
-6 -3 -11 0.7 1.3
-7 -3 -11 279.67 2.9
7 3 11 245.48 2.7
-7 -3 -11 238.28 2.5
-7 -3 -11 278.77 3
-8 -3 -11 52.39 1.7
8 3 11 41.3 1.7
-8 -3 -11 1.3 1.7
-8 -3 -11 30.2 1.6
0 4 11 -1 2.4
0 -4 -11 281.97 2.5
0 -4 -11 243.18 2.7
0 4 11 255.67 2.6
1 4 11 50.29 1.4
-1 -4 -11 51.99 1.5
-1 -4 -11 43.2 1.6
1 4 11 43.5 1.3
2 4 11 148.59 2
2 4 11 160.88 2.2
-2 -4 -11 151.08 1.9
-2 -4 -11 138.19 1.9
3 4 11 107.29 1.6
-3 -4 -11 115.69 1.8
3 4 11 122.79 1.7
-3 -4 -11 111.29 1.9
4 4 11 110.19 1.8
4 4 11 125.59 1.9
-4 -4 -11 105.49 1.7
-4 -4 -11 116.29 1.8
5 4 11 146.29 2
-5 -4 -11 140.99 2
5 4 11 177.28 2.1
-5 -4 -11 168.78 2.3
-6 -4 -11 104.99 1.8
6 4 11 99.09 1.7
-6 -4 -11 104.39 1.8
-6 -4 -11 -30.5 1.6
-7 -4 -11 264.27 2.8
-7 -4 -11 256.97 2.7
7 4 11 208.38 2.5
-7 -4 -11 243.78 2.5
0 5 11 166.48 2.4
0 -5 -11 190.18 2.3
0 -5 -11 144.19 2.2
1 5 11 0.9 1.2
-1 -5 -11 3 1.2
1 5 11 4 1.4
-1 -5 -11 1.9 1
2 5 11 297.57 2.5
-2 -5 -11 306.47 2.5
-2 -5 -11 242.68 2.5
2 5 11 292.67 2.7
3 5 11 1.1 0.9
3 5 11 2 0.9
-3 -5 -11 0.5 0.8
-3 -5 -11 -0.7 1.2
4 5 11 370.36 2.9
4 5 11 342.87 2.7
-4 -5 -11 278.77 2.7
-4 -5 -11 349.37 3
5 5 11 7.5 1
-5 -5 -11 9.4 1.2
-5 -5 -11 -3.7 1.1
-6 -5 -11 335.57 3.1
-6 -5 -11 24.2 3
6 5 11 274.57 2.7
-6 -5 -11 271.97 2.5
1 6 11 91.99 1.7
-1 -6 -11 107.69 2
-1 -6 -11 78.59 1.7
1 6 11 11.1 2.2
2 6 11 375.26 3
2 6 11 368.26 3.1
-2 -6 -11 364.66 2.9
-2 -6 -11 322.97 3.1
3 6 11 7.1 1.9
3 6 11 76.89 1.5
-3 -6 -11 0.7 1.6
-3 -6 -11 60.79 1.7
4 6 11 300.77 2.6
4 6 11 355.96 3.1
-4 -6 -11 237.28 2.7
-4 -6 -11 305.37 2.9
-5 -6 -11 15.8 1
-5 -6 -11 15.7 1
5 6 11 -3.6 1.2
-5 -6 -11 16 1.1
4 -3 12 21.5 1.3
4 -3 12 27.5 1.5
-4 3 -12 22.5 1.6
-4 3 -12 22.2 1.8
2 -2 12 21.9 1.5
2 -2 12 23.7 1.4
-2 2 -12 25 1.6
-2 2 -12 25.6 1.6
3 -2 12 265.97 2.9
3 -2 12 284.57 2.8
-3 2 -12 289.77 3.2
-3 2 -12 280.97 3.1
4 -2 12 20.7 1.3
4 -2 12 1.7 1.1
-4 2 -12 19 1.2
-4 2 -12 19 1.6
5 -2 12 171.38 2.4
-5 2 -12 1.5 2.7
5 -2 12 193.18 2.7
-5 2 -12 176.78 2.9
6 -2 12 4.2 1
6 -2 12 -0.9 1.1
-6 2 -12 3.1 1.1
-6 2 -12 0.4 1.6
1 -1 12 69.29 2
-1 1 -12 67.19 1.8
-1 1 -12 -4.6 1.9
2 -1 12 206.78 2.5
2 -1 12 204.98 2.4
-2 1 -12 223.38 2.8
-2 1 -12 214.68 2.6
-3 1 -12 61.89 2
3 -1 12 57.79 1.4
3 -1 12 66.19 1.7
-3 1 -12 57.79 1.6
-4 1 -12 177.08 2.7
4 -1 12 164.38 2.3
-4 1 -12 161.78 2.4
4 -1 12 176.78 2.4
-5 1 -12 217.08 2.9
5 -1 12 207.18 2.3
-5 1 -12 223.68 2.8
5 -1 12 247.48 2.7
-6 1 -12 69.99 2.2
6 -1 12 63.69 1.5
-6 1 -12 47 1.9
6 -1 12 71.19 1.8
-1 0 -12 0.2 1.1
1 0 12 0.2 1.2
1 0 12 1.3 1.3
-1 0 -12 -0.5 1.3
-2 0 -12 245.28 2.9
2 0 12 248.58 2.6
2 0 12 253.47 2.7
-2 0 -12 283.87 2.9
-3 0 -12 5.7 1.1
3 0 12 2.7 0.9
-3 0 -12 1.2 1.4
3 0 12 2.3 0.9
-4 0 -12 420.46 3.8
4 0 12 389.06 3
-4 0 -12 395.06 3.2
4 0 12 413.66 3.3
5 0 12 92.29 1.8
-5 0 -12 74.79 1.9
5 0 12 80.49 1.7
-5 0 -12 81.69 1.8
-6 0 -12 -35.5 3.6
6 0 12 318.47 2.8
-6 0 -12 309.47 2.9
6 0 12 340.17 3.2
7 0 12 108.99 2.2
-7 0 -12 87.29 2.3
7 0 12 78.19 1.7
-7 0 -12 95.69 1.8
1 1 12 54.99 1.4
-1 -1 -12 58.69 1.7
1 1 12 46.2 1.6
-1 -1 -12 63.89 1.5
2 1 12 342.47 2.9
-2 -1 -12 320.07 3.1
-2 -1 -12 354.16 3
2 1 12 353.16 3
3 1 12 26.2 1.3
-3 -1 -12 23.5 1.5
-3 -1 -12 27.6 1.4
3 1 12 28.6 1.2
4 1 12 453.05 3.2
4 1 12 426.66 3
-4 -1 -12 408.96 3.4
-4 -1 -12 427.26 3.1
5 1 12 23.4 1.1
-5 -1 -12 26.1 1.6
-5 -1 -12 28.1 1.3
5 1 12 -6.1 1.3
6 1 12 304.97 2.9
-6 -1 -12 268.77 3.4
-6 -1 -12 318.57 2.9
6 1 12 337.17 3.3
7 1 12 1.4 1.4
-7 -1 -12 1.2 1.4
-7 -1 -12 0.6 1.4
1 2 12 246.38 2.4
-1 -2 -12 236.88 2.8
-1 -2 -12 262.27 2.7
1 2 12 250.67 2.6
2 2 12 106.19 1.8
-2 -2 -12 86.69 1.7
-2 -2 -12 119.09 2
2 2 12 101.19 1.7
3 2 12 210.38 2.2
-3 -2 -12 201.38 2.5
-3 -2 -12 237.08 2.5
3 2 12 236.78 2.7
4 2 12 107.09 1.9
4 2 12 122.59 1.8
-4 -2 -12 99.59 2.1
-4 -2 -12 109.19 1.8
5 2 12 119.69 1.8
-5 -2 -12 19 2.2
-5 -2 -12 115.79 2
5 2 12 132.79 2.1
6 2 12 177.78 2.1
6 2 12 212.28 2.6
-6 -2 -12 169.98 2.1
-6 -2 -12 194.08 2.6
-7 -2 -12 52.19 1.4
7 2 12 37.8 1.2
-7 -2 -12 38 1.5
-7 -2 -12 40 1.5
1 3 12 250.37 2.4
-1 -3 -12 220.28 2.7
-1 -3 -12 277.77 2.7
1 3 12 230.48 2.5
2 3 12 0.9 1.2
-2 -3 -12 -0.1 1
-2 -3 -12 5.1 0.9
2 3 12 1.1 1.3
3 3 12 252.67 2.5
3 3 12 275.47 2.6
-3 -3 -12 281.47 2.7
-3 -3 -12 224.78 2.5
4 3 12 42.3 1.2
-4 -3 -12 41.6 1.2
-4 -3 -12 48.4 1.8
4 3 12 54.39 1.7
5 3 12 141.09 1.9
5 3 12 161.28 2.2
-5 -3 -12 136.69 2
-5 -3 -12 115.69 2.1
6 3 12 51.49 1.4
-6 -3 -12 43.8 1.5
-6 -3 -12 53.19 1.5
6 3 12 70.69 1.7
2 4 12 5.6 1.1
2 4 12 2.9 1
-2 -4 -12 1.3 1.1
-2 -4 -12 2.4 1
3 4 12 204.78 2.2
-3 -4 -12 236.18 2.4
-3 -4 -12 173.58 2.3
3 4 12 110.39 2.4
4 4 12 6.8 1.3
4 4 12 6.5 1.2
-4 -4 -12 6.6 1.2
-4 -4 -12 1.7 1.1
5 4 12 268.87 2.6
5 4 12 343.87 3
-5 -4 -12 265.67 2.6
-5 -4 -12 291.97 2.9
6 4 12 0.9 0.9
-6 -4 -12 0.2 0.9
-6 -4 -12 1.5 1.3
3 5 12 113.89 1.9
3 5 12 93.89 1.7
-3 -5 -12 120.79 1.9
-3 -5 -12 101.59 2.1
4 5 12 97.59 1.7
-4 -5 -12 72.59 1.9
-4 -5 -12 94.29 1.9
4 5 12 -29.8 1.7
-1 0 0 617.84 7.6
1 0 0 621.14 9
1 0 0 630.84 7.4
-1 0 0 608.74 9.1
-2 0 0 6083.59 19.6
2 0 0 6091.59 16.3
-2 0 0 6522.55 16.5
2 0 0 5649.73 18
3 0 0 173.68 2.8
3 0 0 162.28 2.7
-3 0 0 162.98 2.5
-3 0 0 165.98 3.1
4 0 0 2441.66 7.5
4 0 0 2401.86 8.7
-4 0 0 2605.84 9.4
-4 0 0 2596.24 7.8
5 0 0 713.53 4
-5 0 0 747.33 4.7
5 0 0 722.83 4.6
-5 0 0 777.82 3.9
-6 0 0 645.84 4.3
-6 0 0 616.34 3.4
6 0 0 567.54 3.4
6 0 0 623.64 4
7 0 0 570.54 3.9
-7 0 0 636.64 3.5
-7 0 0 616.64 4.3
7 0 0 578.64 3.4
8 0 0 148.99 2
-8 0 0 171.18 2.3
8 0 0 156.78 2.3
-8 0 0 154.48 2.5
9 0 0 223.98 2.4
9 0 0 253.07 3
-9 0 0 254.17 3.1
-9 0 0 160.38 2.6
-9 1 0 250.47 3.4
9 -1 0 239.08 3.2
9 -1 0 231.48 2.6
-9 1 0 269.17 2.6
8 -1 0 4.5 1.3
8 -1 0 0.9 1.3
-8 1 0 5.3 1.1
-8 1 0 -1.5 1.4
-7 1 0 811.42 5
7 -1 0 795.52 4.7
-7 1 0 851.61 4
7 -1 0 785.92 4
6 -1 0 466.45 2.9
-6 1 0 513.05 3.2
6 -1 0 476.85 3.8
-6 1 0 459.55 3.9
-5 1 0 1182.08 4.7
5 -1 0 1141.49 4.7
5 -1 0 1106.99 5.8
-5 1 0 1055.09 6
-4 1 0 1605.74 6
-4 1 0 1358.76 7.4
4 -1 0 1460.85 5.7
4 -1 0 1487.15 7.4
-3 1 0 1274.77 6
-3 1 0 1106.89 7.6
3 -1 0 1195.58 5.7
3 -1 0 1184.98 7.7
2 -1 0 3510.75 16
2 -1 0 3406.76 10.9
-2 1 0 3673.13 11.5
-2 1 0 3351.06 15.7
1 -1 0 2656.93 11.9
-1 1 0 2678.33 16.6
-1 1 0 2825.62 12.4
1 -1 0 2900.91 17.3
0 1 0 3981.5 21.9
0 1 0 3392.56 18.8
0 -1 0 3865.51 21.8
0 -1 0 3351.26 18.6
-1 -1 0 98.19 3.6
-1 -1 0 106.19 3.3
1 1 0 111.09 3.4
1 1 0 97.09 3.3
-2 -1 0 1407.56 7.9
2 1 0 1416.46 8.1
2 1 0 1386.66 8.2
-2 -1 0 1418.46 8.4
-3 -1 0 140.49 2.5
3 1 0 120.39 2.3
-3 -1 0 130.59 2.4
3 1 0 134.49 2.8
-4 -1 0 3198.28 9.5
4 1 0 3289.87 9.2
-4 -1 0 3167.78 8.6
4 1 0 2984.2 8.8
5 1 0 85.09 1.9
5 1 0 91.09 1.7
-5 -1 0 89.19 1.6
-5 -1 0 94.39 2.2
-6 -1 0 1199.18 4.7
6 1 0 1101.79 5.1
6 1 0 1145.79 4.8
-6 -1 0 1152.48 5.4
7 1 0 41.1 1.3
-7 -1 0 -0.2 1.4
-7 -1 0 39.1 1.7
7 1 0 38.3 1.6
8 1 0 530.95 3.7
8 1 0 549.74 3.7
-8 -1 0 623.24 4.2
-8 -1 0 -12.1 4.1
-9 -1 0 33.6 1.5
9 1 0 29.4 1.4
-9 -1 0 31.9 1.6
9 1 0 29.4 1.4
-9 2 0 243.88 3.7
9 -2 0 212.38 2.7
9 -2 0 232.88 3.5
-9 2 0 244.48 2.8
8 -2 0 15.2 1.4
-8 2 0 15.3 1.4
8 -2 0 13.9 1.1
-8 2 0 15.7 1.5
7 -2 0 881.11 5.4
-7 2 0 923.11 4.2
-7 2 0 858.71 5.4
7 -2 0 872.11 4.1
-6 2 0 1.3 1.3
-6 2 0 -0.1 0.9
6 -2 0 12.2 1.3
6 -2 0 0.9 1.4
-5 2 0 1918.61 8.3
-5 2 0 2213.48 6.3
5 -2 0 2126.39 6.3
5 -2 0 2185.18 8.6
-4 2 0 28.2 1.7
4 -2 0 34.6 1.9
4 -2 0 33 1.2
-4 2 0 59.19 1.7
-3 2 0 3162.58 12
3 -2 0 3054.79 12.3
-3 2 0 3422.86 8.8
3 -2 0 3370.56 8.9
2 -2 0 93.49 2.7
2 -2 0 89.79 1.9
-2 2 0 88.79 2.6
-2 2 0 93.19 2.1
1 -2 0 2747.33 12.2
-1 2 0 2797.82 10.7
-1 2 0 2911.61 13.1
1 -2 0 2770.62 10.6
0 2 0 41.5 2.2
0 2 0 43.7 2.1
0 -2 0 60.29 2.2
0 -2 0 43.8 2.1
-1 -2 0 1713.83 8.6
1 2 0 1680.63 8.5
1 2 0 1605.14 9.8
-1 -2 0 1556.24 10.3
2 2 0 1638.54 7.5
2 2 0 1402.96 8.2
-2 -2 0 1607.54 9
-2 -2 0 1601.44 7.4
3 2 0 983.4 6
-3 -2 0 1065.79 5.5
-3 -2 0 1082.09 6.1
3 2 0 1043.7 5.6
4 2 0 1929.01 6.8
-4 -2 0 2042.1 7
-4 -2 0 1957.7 7.1
4 2 0 2013.8 7.2
5 2 0 384.36 3.1
-5 -2 0 424.46 3.3
5 2 0 415.56 3.4
-5 -2 0 433.26 3.4
-6 -2 0 1581.44 6
-6 -2 0 1517.55 5.6
6 2 0 1315.17 5.3
6 2 0 1409.36 5.6
-7 -2 0 260.87 2.6
7 2 0 237.58 2.7
7 2 0 212.88 2.3
-7 -2 0 262.37 2.8
-8 -2 0 661.43 4.2
8 2 0 563.14 3.8
-8 -2 0 609.74 3.7
8 2 0 546.85 3.7
9 2 0 38.4 1.6
-9 -2 0 39.5 1.4
9 2 0 37.1 1.7
-9 -2 0 42.7 1.9
-9 3 0 201.48 3.6
9 -3 0 -26.3 2.3
9 -3 0 175.88 3.6
-9 3 0 97.59 2.5
-8 3 0 290.87 2.6
8 -3 0 254.47 2.6
8 -3 0 276.67 3.9
-8 3 0 270.47 3.7
-7 3 0 301.07 3.6
-7 3 0 350.46 2.7
7 -3 0 285.07 2.5
7 -3 0 292.27 3.6
6 -3 0 1045.5 6.3
-6 3 0 1004.6 5.9
6 -3 0 1006.9 4.3
-6 3 0 1146.39 4.6
5 -3 0 1129.39 4.5
-5 3 0 1115.99 6.2
-5 3 0 1189.18 4.6
5 -3 0 1213.58 6.7
-4 3 0 361.26 2.8
-4 3 0 325.87 3.8
4 -3 0 340.47 4.1
4 -3 0 325.47 2.6
3 -3 0 1857.81 6.2
-3 3 0 1936.21 8.8
-3 3 0 2027 6.5
3 -3 0 1886.81 8.6
2 -3 0 73.59 1.7
-2 3 0 79.39 2.3
2 -3 0 77.19 2
-2 3 0 74.79 1.7
1 -3 0 2778.52 9.6
1 -3 0 2509.15 10.4
1 -3 0 2887.51 10
1 -3 0 2765.32 10
0 3 0 272.37 3.2
0 -3 0 275.27 3.4
0 -3 0 250.07 3.4
0 3 0 263.27 3.6
-1 -3 0 3908.01 13.7
1 3 0 3790.82 12.9
-1 -3 0 4100.29 11.2
1 3 0 3927.11 11
2 3 0 511.75 3.8
2 3 0 468.15 4.3
-2 -3 0 509.05 3.9
-2 -3 0 476.25 4.7
3 3 0 2822.62 9.6
3 3 0 2916.11 8.4
-3 -3 0 3016 10.3
-3 -3 0 3011 8.6
-4 -3 0 546.55 3.6
-4 -3 0 553.84 4.2
4 3 0 493.65 3.9
4 3 0 515.95 3.6
-5 -3 0 2247.18 7.2
5 3 0 2230.18 6.6
5 3 0 2105.89 7.1
-5 -3 0 2449.45 7
6 3 0 529.65 3.4
6 3 0 529.75 3.7
-6 -3 0 596.44 3.7
-6 -3 0 607.44 3.7
-7 -3 0 517.05 3.6
-7 -3 0 530.25 3.6
7 3 0 486.45 3.6
7 3 0 452.45 3.4
-8 -3 0 -93.89 2.6
8 3 0 297.57 2.8
-8 -3 0 314.27 2.9
8 3 0 296.47 3
-9 -3 0 47.8 1.7
9 3 0 41.4 1.7
9 3 0 43.4 1.5
-9 -3 0 51.89 1.7
-8 4 0 -76.19 3.2
-8 4 0 490.95 4.9
8 -4 0 424.06 3.2
8 -4 0 479.45 5.1
7 -4 0 13.8 1.9
-7 4 0 -1.2 1.5
7 -4 0 11.1 1.2
-7 4 0 14.8 1.7
6 -4 0 837.62 6
-6 4 0 822.42 3.9
-6 4 0 862.91 5.7
6 -4 0 752.52 3.7
5 -4 0 358.56 4
5 -4 0 363.16 2.7
-5 4 0 394.16 2.8
-5 4 0 421.26 4
-4 4 0 589.04 4.7
-4 4 0 585.14 3.3
4 -4 0 558.64 3.4
4 -4 0 537.65 4.5
3 -4 0 586.44 4.4
-3 4 0 630.34 3.6
-3 4 0 659.93 5
3 -4 0 594.04 3.6
2 -4 0 936.21 5.7
2 -4 0 1009.6 5
2 -4 0 1094.89 5.7
1 -4 0 1724.43 6.9
1 -4 0 1606.44 7.4
1 -4 0 1821.52 7.1
1 -4 0 1843.82 7.2
0 4 0 578.24 4.6
0 -4 0 557.14 4.2
0 -4 0 557.74 4.4
0 4 0 533.75 3.9
1 4 0 2744.73 10
-1 -4 0 2949.8 10.6
1 4 0 2811.82 8.4
-1 -4 0 2889.91 8.6
-2 -4 0 57.69 1.8
-2 -4 0 52.89 2.1
2 4 0 52.79 1.9
2 4 0 56.39 1.8
-3 -4 0 2513.45 9.4
3 4 0 2276.57 8.2
-3 -4 0 2363.86 7.1
3 4 0 2270.77 7
-4 -4 0 45.8 1.9
-4 -4 0 44.4 1.3
4 4 0 46.3 1.5
4 4 0 42.8 1.7
5 4 0 1179.78 4.9
5 4 0 1326.57 5.8
-5 -4 0 1340.37 6.1
-5 -4 0 1288.47 5.3
6 4 0 4.4 1
-6 -4 0 2.5 1.3
6 4 0 1.9 1.3
-6 -4 0 2.3 1.1
-7 -4 0 375.76 3.2
-7 -4 0 357.86 3.1
7 4 0 329.47 3
7 4 0 356.86 3.2
8 4 0 84.69 1.9
-8 -4 0 88.79 2.1
-8 -4 0 90.69 1.9
8 4 0 82.89 1.8
-8 5 0 224.48 4
8 -5 0 204.38 4
8 -5 0 178.38 2.3
-8 5 0 217.18 2.4
7 -5 0 6.4 1
-7 5 0 4.2 1.4
-7 5 0 5.2 1.8
7 -5 0 0.7 1.9
-6 5 0 783.02 3.9
6 -5 0 678.83 3.6
-6 5 0 745.03 5.8
6 -5 0 719.43 6.1
5 -5 0 158.28 2.9
-5 5 0 178.28 2.8
-5 5 0 174.18 2.2
5 -5 0 164.48 2.1
4 -5 0 1172.48 6.2
-4 5 0 1278.27 4.7
4 -5 0 1209.08 4.6
3 -5 0 159.68 2.2
3 -5 0 154.78 2.4
3 -5 0 138.59 2.4
2 -5 0 2420.46 7.3
2 -5 0 2445.26 7.8
2 -5 0 2285.67 6.9
2 -5 0 2090.39 7.8
1 -5 0 710.73 4.4
1 -5 0 666.13 4.3
1 -5 0 692.33 4.2
1 -5 0 619.04 4
0 -5 0 2225.88 7.5
0 -5 0 2239.28 7.8
0 5 0 2116.99 6.9
1 5 0 983.1 5.7
-1 -5 0 1002.7 4.7
-1 -5 0 1022.8 5.9
1 5 0 968.9 4.6
-2 -5 0 533.55 3.5
-2 -5 0 503.15 4.6
2 5 0 525.75 4.1
2 5 0 519.45 3.4
-3 -5 0 481.95 3.1
3 5 0 478.95 3.8
-3 -5 0 482.45 4.4
3 5 0 460.25 3.1
4 5 0 283.27 3
-4 -5 0 283.27 2.6
4 5 0 281.47 2.5
-4 -5 0 302.37 3.4
-5 -5 0 333.37 3.4
-5 -5 0 328.87 2.8
5 5 0 298.07 2.6
5 5 0 319.27 3.2
6 5 0 7.9 1.4
6 5 0 8.3 1.1
-6 -5 0 13.9 1.4
-6 -5 0 10.9 1.5
7 5 0 382.66 3
-7 -5 0 458.95 3.5
7 5 0 438.16 3.7
-7 -5 0 416.96 3.6
8 5 0 0.2 1.1
-8 -5 0 0.1 1.7
-8 -5 0 1.7 1.4
8 5 0 1.4 1.3
-7 6 0 141.79 2
7 -6 0 138.19 2.1
7 -6 0 142.69 3.5
6 -6 0 680.93 5.5
6 -6 0 777.92 6.5
-6 6 0 852.41 4.3
6 -6 0 776.62 4.1
5 -6 0 74.89 2.2
5 -6 0 82.19 2.5
5 -6 0 78.19 1.5
4 -6 0 1094.89 6
4 -6 0 1183.98 4.7
4 -6 0 1129.09 4.5
4 -6 0 1271.67 6.1
3 -6 0 97.29 1.8
3 -6 0 95.89 1.9
3 -6 0 83.29 1.9
3 -6 0 102.29 1.8
2 -6 0 1964.7 7.3
2 -6 0 2005.2 6.4
2 -6 0 2175.88 7.1
2 -6 0 2067.89 6.7
1 -6 0 24.4 1.6
1 -6 0 23.1 1.1
1 -6 0 23.8 1.3
1 -6 0 24.1 1.4
0 -6 0 1491.65 6.6
0 -6 0 1480.05 5.7
0 -6 0 1491.15 6.3
-1 -6 0 21.5 1.3
1 6 0 24 1.2
-1 -6 0 20.3 1.5
1 6 0 20.9 1.3
-2 -6 0 1127.29 4.6
-2 -6 0 1110.39 6.3
2 6 0 1179.98 5.9
2 6 0 1141.99 4.7
-3 -6 0 182.88 2
-3 -6 0 179.88 2.8
3 6 0 169.68 2.4
3 6 0 183.18 2
-4 -6 0 528.55 3.4
4 6 0 528.75 3.4
4 6 0 530.75 4.1
-4 -6 0 587.64 4.7
5 6 0 386.46 3
-5 -6 0 420.16 3.2
5 6 0 407.56 3.6
-5 -6 0 422.96 3.9
6 6 0 174.58 2.6
6 6 0 177.18 2.4
-6 -6 0 194.68 2.7
-6 -6 0 187.68 2.6
7 6 0 201.08 2.3
-7 -6 0 213.78 2.9
-7 -6 0 197.98 2.6
7 6 0 197.98 2.9
7 -7 0 300.77 3
7 -7 0 269.07 3.1
7 -7 0 246.38 4.8
7 -7 0 58.09 5.1
6 -7 0 198.18 2.4
6 -7 0 191.28 3.8
6 -7 0 172.88 3.3
6 -7 0 193.28 2.4
5 -7 0 -15.6 5.6
5 -7 0 653.63 3.8
5 -7 0 604.24 5
5 -7 0 643.24 3.8
4 -7 0 90.99 4.6
4 -7 0 487.05 3.2
4 -7 0 469.65 4.1
4 -7 0 494.35 3.4
3 -7 0 557.24 3.4
3 -7 0 594.74 4.2
3 -7 0 655.73 4.1
3 -7 0 591.84 3.6
2 -7 0 674.33 3.9
2 -7 0 605.44 3.6
2 -7 0 638.74 3.9
2 -7 0 588.94 4
1 -7 0 183.28 2.4
1 -7 0 180.28 2.2
1 -7 0 195.08 2.2
1 -7 0 190.48 2.4
0 -7 0 678.93 3.8
0 -7 0 685.23 4.6
0 -7 0 687.33 4.5
0 -7 0 709.53 3.8
1 7 0 26 1.6
-1 -7 0 21.3 1.5
1 7 0 22.8 1.4
-1 -7 0 23.9 1.4
2 7 0 1200.08 4.7
-2 -7 0 1206.18 4.8
2 7 0 1246.38 6.2
-2 -7 0 1115.89 6.3
3 7 0 10.7 1.3
3 7 0 15.3 1
-3 -7 0 13.9 1.8
-3 -7 0 11.2 1.4
-4 -7 0 816.32 4.1
4 7 0 804.62 5.3
-4 -7 0 909.41 6.4
4 7 0 816.12 4.1
5 7 0 6.8 1.4
5 7 0 8.7 1.3
-5 -7 0 7.5 1.4
-5 -7 0 7.1 1.4
-6 -7 0 518.75 3.8
6 7 0 566.94 4.6
6 7 0 521.85 3.8
-6 -7 0 520.55 4.7
7 7 0 2.3 1.5
-7 -7 0 1.4 1.5
7 7 0 4.1 1.5
-7 -7 0 0.6 1.2
6 -8 0 0.5 1.8
6 -8 0 2 1.6
6 -8 0 1.8 1
6 -8 0 2 1
5 -8 0 569.14 3.6
5 -8 0 579.14 5.1
5 -8 0 509.35 5
5 -8 0 550.44 3.7
4 -8 0 88.99 2
4 -8 0 72.89 1.7
4 -8 0 77.39 1.7
4 -8 0 77.99 2.1
3 -8 0 364.86 3
3 -8 0 339.47 3.3
3 -8 0 333.77 2.8
3 -8 0 359.26 2.9
2 -8 0 194.78 2.6
2 -8 0 208.78 2.3
2 -8 0 231.48 2.5
2 -8 0 211.98 2.6
1 -8 0 309.17 3.1
1 -8 0 297.17 2.7
1 -8 0 291.87 2.8
1 -8 0 292.47 2.6
0 -8 0 682.83 4.4
0 -8 0 668.23 3.8
0 -8 0 657.43 4.7
0 -8 0 666.13 3.6
1 8 0 380.36 2.8
-1 -8 0 423.46 3.9
-1 -8 0 385.46 3.1
-1 -8 0 397.36 3.8
-2 -8 0 535.35 3.4
2 8 0 497.15 3.3
-2 -8 0 486.75 4.7
2 8 0 539.25 4.7
3 8 0 329.87 3.7
-3 -8 0 188.38 3.1
-3 -8 0 328.87 4.1
3 8 0 297.47 2.8
-4 -8 0 340.77 3.1
4 8 0 356.46 3.9
-4 -8 0 380.66 4.5
4 8 0 318.47 3
5 8 0 135.39 2.3
-5 -8 0 137.19 2.3
5 8 0 144.59 2.7
-5 -8 0 143.39 3
6 8 0 237.38 3.6
-6 -8 0 222.68 2.8
-6 -8 0 250.97 3.9
6 8 0 214.08 2.7
5 -9 0 201.28 3.5
5 -9 0 202.18 2.6
5 -9 0 221.58 2.7
5 -9 0 213.28 3.7
4 -9 0 16.5 1.4
4 -9 0 13.7 1.6
4 -9 0 15.3 1.3
4 -9 0 14.1 1.2
3 -9 0 408.26 3.3
3 -9 0 374.86 2.9
3 -9 0 434.96 3.5
3 -9 0 385.76 3.6
2 -9 0 17.4 1.4
2 -9 0 13 0.9
2 -9 0 15 1
2 -9 0 15 1.1
1 -9 0 1069.29 5.8
1 -9 0 1085.99 5.3
1 -9 0 1061.59 4.7
1 -9 0 1045.7 5
0 -9 0 58.09 1.9
0 -9 0 14 2
0 -9 0 57.29 1.8
0 -9 0 59.39 1.5
-1 -9 0 971.8 6.3
-1 -9 0 942.41 4.6
-1 -9 0 980.5 4.5
-1 -9 0 492.35 6.4
2 9 0 67.69 1.6
-2 -9 0 74.69 2.4
-2 -9 0 75.29 1.6
3 9 0 402.66 3.3
-3 -9 0 418.16 3.4
3 9 0 488.75 5.2
-3 -9 0 499.85 5.6
4 9 0 96.99 2.6
4 9 0 91.49 2
-4 -9 0 100.89 3
-4 -9 0 95.29 2
-5 -9 0 138.59 2.2
-5 -9 0 147.19 3.7
5 9 0 136.69 2.2
5 9 0 148.59 3.3
3 -10 0 279.07 3.3
3 -10 0 274.47 3
3 -10 0 308.57 3.3
3 -10 0 268.97 3
2 -10 0 138.59 2.3
2 -10 0 126.39 2.5
2 -10 0 112.79 2.3
2 -10 0 -4.8 2.6
1 -10 0 346.97 3.7
1 -10 0 320.77 3.2
1 -10 0 38.3 3.4
1 -10 0 343.37 3.9
0 -10 0 130.79 2.5
0 -10 0 113.69 2.8
0 -10 0 131.59 2.2
0 -10 0 134.39 2.3
-1 -10 0 333.17 3.1
-1 -10 0 48.3 4.4
-1 -10 0 340.47 3.1
-1 -10 0 327.97 4.2
-2 -10 0 2.2 2
-2 -10 0 1.9 1.6
-2 -10 0 1.5 1.6
-3 -10 0 191.08 2.6
3 10 0 185.68 2.5
-3 -10 0 203.88 4.3
-3 -10 0 135.09 5.1
-2 -10 1 218.28 2.7
2 10 -1 181.98 2.6
-1 -10 1 29.8 1.8
-1 -10 1 38.6 4
-1 -10 1 23.3 4
0 -10 1 395.36 6
0 -10 1 5.9 3.4
0 -10 1 403.66 5.6
0 -10 1 391.96 3.5
1 -10 1 33 1.7
1 -10 1 33.6 1.4
1 -10 1 34.7 1.8
1 -10 1 35.2 2.2
2 -10 1 468.15 4.9
2 -10 1 407.96 4.3
2 -10 1 442.76 3.6
2 -10 1 405.06 3.8
3 -10 1 26.7 1.8
3 -10 1 20.4 1.5
3 -10 1 24.1 1.5
3 -10 1 21.5 1.6
4 9 -1 71.69 2
-4 -9 1 34.3 3.4
4 9 -1 77.19 3.2
-4 -9 1 57.19 1.7
3 9 -1 461.45 3.4
-3 -9 1 460.75 8.9
-3 -9 1 456.05 3.5
-3 -9 1 496.15 8.4
-2 -9 1 187.78 5.4
-2 -9 1 216.68 6.5
-2 -9 1 198.28 2.5
2 9 -1 188.28 2.3
1 9 -1 603.64 4.1
-1 -9 1 244.68 7.9
-1 -9 1 630.04 4.1
-1 -9 1 601.64 8.1
0 -9 1 418.46 3.2
0 -9 1 422.26 5.1
0 -9 1 431.26 3.2
0 -9 1 437.56 4.8
1 -9 1 228.48 2.6
1 -9 1 243.98 2.5
1 -9 1 220.58 3.3
1 -9 1 238.98 3
2 -9 1 287.07 3
2 -9 1 316.37 3
2 -9 1 310.97 3.4
2 -9 1 303.77 3
3 -9 1 144.19 2.4
3 -9 1 134.89 2.4
3 -9 1 144.29 2.4
3 -9 1 132.99 2.1
4 -9 1 174.48 2.5
4 -9 1 220.58 3.1
4 -9 1 189.38 3.1
4 -9 1 203.08 2.8
5 -9 1 30.9 2.2
5 -9 1 30.2 1.7
5 -9 1 29.3 2
5 -9 1 28.6 1.6
5 8 -1 511.05 3.8
-5 -8 1 523.45 3.8
5 8 -1 530.25 5.6
-5 -8 1 567.94 5.8
-4 -8 1 4.2 1.5
-4 -8 1 7.1 1.8
4 8 -1 4.5 1.6
4 8 -1 2.2 1.5
-3 -8 1 724.63 7.6
3 8 -1 668.03 4
-3 -8 1 691.73 4.1
3 8 -1 747.43 6.8
-2 -8 1 15.4 1.7
2 8 -1 14.2 1.4
-2 -8 1 14.4 1.5
-2 -8 1 17 2.2
-1 -8 1 915.51 4.4
1 8 -1 894.31 4.5
-1 -8 1 1005 7.8
-1 -8 1 871.61 7.8
0 -8 1 100.69 1.9
0 8 -1 95.99 1.8
0 -8 1 97.99 2.4
0 -8 1 111.59 2.4
1 -8 1 395.56 3.7
1 -8 1 459.15 3.3
1 -8 1 398.56 3.2
1 -8 1 415.76 4.1
2 -8 1 16.6 1.3
2 -8 1 14.5 1.4
2 -8 1 14.4 1.4
2 -8 1 20.8 1.3
3 -8 1 493.25 3.8
3 -8 1 431.56 3.2
3 -8 1 475.75 3.6
3 -8 1 463.25 3.8
4 -8 1 201.88 2.5
4 -8 1 196.08 2.3
4 -8 1 209.48 3.1
4 -8 1 237.28 3
5 -8 1 8.7 2.4
5 -8 1 142.99 3
5 -8 1 130.29 2
5 -8 1 140.09 3.1
6 -8 1 149.19 5
6 -8 1 217.48 4.8
6 -8 1 225.08 2.8
6 -8 1 231.68 2.8
-6 -7 1 255.77 2.8
6 7 -1 289.47 3.8
-6 -7 1 -34.8 3.9
6 7 -1 257.47 2.9
-5 -7 1 160.08 2.1
5 7 -1 153.18 2.8
-5 -7 1 173.68 3.1
5 7 -1 155.28 2.3
-4 -7 1 557.04 3.6
4 7 -1 561.34 4.8
-4 -7 1 586.14 5.5
4 7 -1 542.45 3.4
3 7 -1 210.58 2.4
-3 -7 1 237.98 4.1
-3 -7 1 211.68 2.4
3 7 -1 231.88 3.4
-2 -7 1 539.25 3.4
2 7 -1 517.15 3.3
2 7 -1 554.94 5.4
-2 -7 1 552.54 6.3
-1 -7 1 558.44 5.5
-1 -7 1 497.65 5.5
-1 -7 1 561.34 3.5
1 7 -1 551.74 3.4
0 7 -1 173.48 2.2
0 -7 1 181.38 2.8
0 -7 1 167.98 2.1
0 -7 1 182.18 3
1 -7 1 681.73 4.4
1 -7 1 667.13 4.1
1 -7 1 756.52 4.1
1 -7 1 666.23 4.7
2 -7 1 115.29 2
2 -7 1 114.09 2.2
2 -7 1 135.39 2.1
2 -7 1 118.99 2.2
3 -7 1 1294.57 5.5
3 -7 1 1519.95 6.4
3 -7 1 1379.36 6.6
3 -7 1 1411.06 5.9
4 -7 1 61.59 2.3
4 -7 1 64.89 1.7
4 -7 1 66.49 1.7
4 -7 1 65.49 1.9
5 -7 1 797.72 4.3
5 -7 1 756.12 6.2
5 -7 1 774.22 4.2
5 -7 1 813.22 6.2
6 -7 1 5.1 1.8
6 -7 1 7.2 2
6 -7 1 7.2 1
7 -7 1 526.95 3.8
-7 -6 1 -1 1.3
7 6 -1 1.8 1.5
7 6 -1 4.7 1.4
-7 -6 1 3.6 1.6
6 6 -1 641.04 4.2
6 6 -1 628.44 5
-6 -6 1 637.94 4.2
-6 -6 1 701.63 4.9
-5 -6 1 10.2 1.1
5 6 -1 8.9 1.4
5 6 -1 10.3 1.5
-5 -6 1 9 1.4
-4 -6 1 1121.19 6.9
-4 -6 1 1113.69 4.9
4 6 -1 1032.8 4.8
4 6 -1 1038.7 6
3 6 -1 174.18 2.7
3 6 -1 181.68 2.1
-3 -6 1 199.88 3.5
-3 -6 1 173.58 2.2
-2 -6 1 765.22 4.1
2 6 -1 734.93 3.9
2 6 -1 785.22 6
-2 -6 1 798.52 7.2
-1 -6 1 490.15 5.5
-1 -6 1 529.95 3.4
1 6 -1 538.55 3.4
0 -6 1 1096.69 6.8
0 -6 1 1116.59 6.6
0 -6 1 1125.19 5.2
0 6 -1 1066.89 4.8
1 -6 1 1043.6 5.2
1 -6 1 1054.39 5.9
1 -6 1 1007 5.3
2 -6 1 694.53 4.1
2 -6 1 673.23 4.3
2 -6 1 654.83 4
2 -6 1 672.33 4.5
3 -6 1 1342.97 6.8
3 -6 1 1517.95 6.4
3 -6 1 1346.87 5.3
3 -6 1 1327.97 5.5
4 -6 1 370.86 3
4 -6 1 366.86 4
4 -6 1 407.86 3.8
-5 6 -1 989.6 4.3
5 -6 1 916.71 6.9
5 -6 1 839.02 6.6
5 -6 1 911.41 4.3
-6 6 -1 62.79 1.5
6 -6 1 56.99 2.7
6 -6 1 59.49 2.9
6 -6 1 53.89 1.4
7 -6 1 514.55 3.5
7 -6 1 433.66 8.5
-7 6 -1 545.75 3.6
7 -6 1 457.15 9
-8 6 -1 1.2 1.3
8 -6 1 0 1.3
7 5 -1 186.08 2.3
-7 -5 1 231.58 2.9
-7 -5 1 216.88 2.5
7 5 -1 205.78 2.9
-6 -5 1 707.53 4.5
6 5 -1 655.33 4.1
-6 -5 1 699.23 4.4
6 5 -1 672.13 4.4
5 5 -1 59.39 1.9
-5 -5 1 67.19 2
5 5 -1 55.19 1.5
-5 -5 1 59.79 1.8
4 5 -1 666.63 3.7
-4 -5 1 695.13 3.8
-4 -5 1 695.83 5
4 5 -1 682.63 4.8
3 5 -1 4.2 0.9
-3 -5 1 1.5 1.3
-3 -5 1 2.9 1.4
3 5 -1 3.1 1.1
2 5 -1 2358.76 6.9
-2 -5 1 2496.85 7.2
-2 -5 1 2629.24 12.7
2 5 -1 2293.17 9.8
-1 -5 1 189.18 3.8
1 5 -1 212.78 2.5
-1 -5 1 200.68 2.3
1 5 -1 215.48 3.6
0 5 -1 3321.07 8.8
0 -5 1 3378.96 12.5
0 -5 1 3487.15 9.2
0 -5 1 3422.86 11.9
1 -5 1 342.07 3.4
1 -5 1 371.76 3.5
1 -5 1 378.26 3.8
-1 5 -1 334.37 3
2 -5 1 1962.6 8
2 -5 1 1998.1 7.3
2 -5 1 2030 7
2 -5 1 2157.18 7.7
3 -5 1 58.09 2.1
3 -5 1 65.49 1.8
3 -5 1 59.39 1.7
-3 5 -1 66.19 1.5
4 -5 1 1168.78 4.8
4 -5 1 1177.08 7.2
4 -5 1 1083.39 7.2
-4 5 -1 1264.67 5
5 -5 1 281.57 4.2
5 -5 1 324.97 4.6
5 -5 1 328.17 2.7
-5 5 -1 368.26 2.8
6 -5 1 185.38 2.3
-6 5 -1 149.49 2.4
6 -5 1 179.68 3.9
6 -5 1 151.78 3.5
7 -5 1 177.78 2.2
-7 5 -1 -20 2.6
7 -5 1 191.58 4.6
-8 5 -1 -11.5 1.8
8 -5 1 73.89 4
8 -5 1 66.29 1.9
8 4 -1 40 1.5
8 4 -1 38 1.6
-8 -4 1 43.8 1.6
-8 -4 1 46 1.9
7 4 -1 360.06 3
7 4 -1 348.17 3.4
-7 -4 1 419.86 3.4
-7 -4 1 419.96 3.4
6 4 -1 261.87 2.8
6 4 -1 284.17 2.6
-6 -4 1 300.97 3
-6 -4 1 305.27 2.7
-5 -4 1 249.18 2.6
5 4 -1 237.98 2.5
-5 -4 1 250.97 2.9
5 4 -1 243.28 2.9
4 4 -1 642.44 4.5
-4 -4 1 668.93 4.7
4 4 -1 618.54 3.5
-4 -4 1 636.84 3.6
3 4 -1 1085.19 6.2
-3 -4 1 1137.29 6.9
-3 -4 1 1112.29 5
3 4 -1 1091.59 4.9
-2 -4 1 4130.89 15.6
2 4 -1 3744.03 9.3
-2 -4 1 4048.8 9.7
2 4 -1 3578.24 12.2
1 4 -1 711.73 4.4
-1 -4 1 638.74 7.5
-1 -4 1 697.23 4.3
1 4 -1 640.74 6.3
0 4 -1 2076.59 7.7
0 -4 1 2151.28 8
0 -4 1 2285.37 11.4
0 -4 1 2145.79 10.6
1 -4 1 463.85 4.4
1 -4 1 463.45 4.2
-1 4 -1 428.26 3.9
1 -4 1 436.26 4
2 -4 1 1141.99 6.3
2 -4 1 1061.99 6.8
-2 4 -1 1156.18 5.6
2 -4 1 1080.59 5.6
-3 4 -1 227.68 2.6
3 -4 1 205.78 2.3
3 -4 1 220.78 3.3
3 -4 1 190.48 3.3
4 -4 1 1219.38 8.3
-4 4 -1 1478.25 5.3
4 -4 1 1309.77 8.6
4 -4 1 1363.76 5.2
5 -4 1 29 2.1
-5 4 -1 30.6 1.9
-5 4 -1 31.2 1.2
5 -4 1 26.9 1.2
6 -4 1 1213.18 4.7
6 -4 1 1234.48 8.9
-6 4 -1 1306.47 4.8
-6 4 -1 1269.77 8.5
7 -4 1 22.2 1.2
-7 4 -1 25.8 1.9
-7 4 -1 23.7 1.2
7 -4 1 22.6 2
-8 4 -1 658.23 3.8
8 -4 1 619.64 7.1
8 -4 1 582.54 3.7
-8 4 -1 671.73 6.9
9 -4 1 114.39 2
-9 4 -1 116.79 2
-9 4 -1 99.49 3.8
9 -4 1 60.29 3.5
8 3 -1 0.9 1.3
-8 -3 1 3.9 1.4
8 3 -1 3.5 1.5
-8 -3 1 1.5 1.1
-7 -3 1 684.53 4.1
-7 -3 1 73.49 4.6
7 3 -1 575.64 3.6
7 3 -1 629.64 4.1
6 3 -1 159.98 2.4
6 3 -1 146.39 2
-6 -3 1 -9.8 2.4
-6 -3 1 178.28 2.5
-5 -3 1 881.91 4.2
5 3 -1 837.72 4
5 3 -1 845.42 4.8
-5 -3 1 888.91 4.7
4 3 -1 300.67 2.7
-4 -3 1 330.87 3.3
-4 -3 1 321.57 2.8
4 3 -1 311.57 3.2
3 3 -1 2549.44 9.5
-3 -3 1 2764.72 10
-3 -3 1 2818.62 8.1
3 3 -1 2523.85 7.6
-2 -3 1 399.26 5
2 3 -1 371.06 3.5
2 3 -1 355.86 4.3
-2 -3 1 391.36 3.6
1 3 -1 1723.63 7.2
1 3 -1 1646.14 10.8
-1 -3 1 1779.82 13.6
-1 -3 1 1759.92 7.4
0 -3 1 222.98 3.1
0 -3 1 236.38 4.8
0 -3 1 222.48 4.4
0 3 -1 234.08 3.3
-1 3 -1 1102.19 7.3
-1 3 -1 1182.68 7.4
1 -3 1 1187.28 7.6
1 -3 1 1126.69 7.6
2 -3 1 814.42 5.2
2 -3 1 863.41 6.6
-2 3 -1 822.72 5.3
2 -3 1 826.52 7.2
3 -3 1 468.65 3.5
-3 3 -1 501.35 3.6
3 -3 1 433.16 5.7
3 -3 1 483.05 5.7
-4 3 -1 2380.66 7.1
4 -3 1 2140.59 6.7
-4 3 -1 2381.66 12.1
4 -3 1 2253.77 12.6
5 -3 1 188.38 3.5
-5 3 -1 185.48 3.5
-5 3 -1 194.08 2
5 -3 1 175.98 2.1
-6 3 -1 1251.27 4.7
6 -3 1 1255.37 8
6 -3 1 1165.98 4.7
-6 3 -1 1254.37 7.7
7 -3 1 67.09 1.4
-7 3 -1 3.4 1.8
-7 3 -1 77.09 2.3
7 -3 1 73.19 2.5
8 -3 1 754.72 6.3
-8 3 -1 782.62 6.3
8 -3 1 654.63 3.7
-8 3 -1 742.63 3.9
-9 3 -1 0.2 1
9 -3 1 2 1.1
-9 3 -1 3.4 1.6
9 -3 1 2.5 1.8
-8 -2 1 -25.1 2.5
-8 -2 1 211.58 2.7
8 2 -1 182.18 2.3
8 2 -1 172.28 2.4
7 2 -1 699.63 3.9
-7 -2 1 768.02 4.2
-7 -2 1 827.22 4.3
7 2 -1 736.43 4.3
6 2 -1 122.49 2
-6 -2 1 133.59 2
6 2 -1 122.79 2.1
-6 -2 1 136.19 2.1
-5 -2 1 1491.65 5.5
5 2 -1 1325.07 5.1
-5 -2 1 1439.06 5.6
5 2 -1 1427.96 5.9
-4 -2 1 286.37 2.9
4 2 -1 269.67 2.6
4 2 -1 305.37 3.3
-4 -2 1 286.57 2.8
-3 -2 1 1890.91 7.8
-3 -2 1 1884.11 6.9
3 2 -1 1869.61 8
3 2 -1 1794.52 6.8
2 2 -1 10 1.7
-2 -2 1 6.5 1.5
-2 -2 1 5.5 1.6
2 2 -1 6.8 1.8
-1 -2 1 1830.62 8.4
-1 -2 1 1843.12 14.2
1 2 -1 1749.53 13.4
1 2 -1 1824.22 8.4
0 -2 1 690.63 13.6
0 -2 1 738.23 6.5
0 -2 1 697.03 12.3
0 2 -1 733.13 6.3
1 -2 1 2822.02 15.4
-1 2 -1 2834.22 14.9
1 -2 1 2735.23 13.2
-1 2 -1 2890.71 13.1
2 -2 1 1665.53 8
-2 2 -1 1764.42 8.2
2 -2 1 1758.82 14.7
2 -2 1 1841.82 13.9
3 -2 1 3404.76 9.7
3 -2 1 3162.88 18.2
-3 2 -1 3757.52 10
-3 2 -1 3108.99 16.9
-4 2 -1 1550.44 6
4 -2 1 1453.25 9.7
4 -2 1 1488.95 5.9
-4 2 -1 1340.87 9.1
-5 2 -1 1363.76 5
-5 2 -1 1130.79 7.4
5 -2 1 1303.07 5
5 -2 1 1295.97 7.9
-6 2 -1 448.76 4.4
6 -2 1 508.85 4.5
6 -2 1 470.25 3.1
-6 2 -1 529.95 3.1
-7 2 -1 422.86 4.5
7 -2 1 473.25 4.4
7 -2 1 436.26 3.1
-7 2 -1 492.85 3.1
8 -2 1 397.36 4.2
-8 2 -1 400.86 4.4
-8 2 -1 438.06 3
8 -2 1 391.46 2.9
-9 2 -1 88.49 1.7
-9 2 -1 89.19 2.7
9 -2 1 82.19 1.7
9 -2 1 87.69 2.5
9 1 -1 43.9 1.7
-9 -1 1 47.9 1.7
9 1 -1 41.3 1.9
-9 -1 1 2.7 1.6
-8 -1 1 472.35 3.6
8 1 -1 417.16 3.4
-8 -1 1 475.35 3.4
8 1 -1 -64.99 3.2
7 1 -1 161.58 2.1
-7 -1 1 191.58 2.3
-7 -1 1 185.18 2.3
7 1 -1 174.58 2.3
6 1 -1 723.03 4
-6 -1 1 843.62 4.1
-6 -1 1 774.92 4.2
6 1 -1 748.93 4.1
-5 -1 1 618.74 4
-5 -1 1 600.94 3.5
5 1 -1 536.15 3.5
5 1 -1 598.24 3.7
-4 -1 1 355.96 3
4 1 -1 339.17 3.2
4 1 -1 351.06 3
-4 -1 1 364.36 3.2
3 1 -1 1061.79 5.6
3 1 -1 1064.09 5.8
-3 -1 1 1046.1 5.5
-3 -1 1 1132.39 5.9
-2 -1 1 128.89 2.5
2 1 -1 148.79 3
-2 -1 1 153.88 2.7
2 1 -1 138.49 2.5
-1 -1 1 1562.34 8.9
-1 -1 1 1519.25 10.4
1 1 -1 1514.45 8.8
1 1 -1 1514.15 11
0 1 -1 349.07 5.7
0 1 -1 305.07 11.3
0 -1 1 346.37 5.8
0 -1 1 312.57 10.5
-1 1 -1 2766.12 15.5
1 -1 1 2705.53 25.9
-1 1 -1 3249.18 26.6
1 -1 1 2827.22 15.6
2 -1 1 5.7 1.4
-2 1 -1 7.6 1.9
2 -1 1 6.8 2.8
-2 1 -1 12.9 3.2
3 -1 1 4601.14 11.8
-3 1 -1 5104.79 12
3 -1 1 4288.47 18.4
-3 1 -1 4162.18 18.7
4 -1 1 2.4 1.1
4 -1 1 4.1 1.6
-4 1 -1 2.5 1.7
-4 1 -1 4 1
-5 1 -1 2267.47 6.6
-5 1 -1 2062.69 9.4
5 -1 1 2056.69 6.4
5 -1 1 2094.99 8.9
6 -1 1 111.79 2.3
6 -1 1 104.79 1.6
-6 1 -1 112.19 2.4
-6 1 -1 119.99 1.6
7 -1 1 710.83 4.8
-7 1 -1 -51.89 4
7 -1 1 663.23 3.7
-7 1 -1 706.63 5.1
8 -1 1 139.49 1.9
8 -1 1 140.09 2.5
-8 1 -1 -12.2 1.9
-8 1 -1 150.88 2.7
-9 1 -1 191.28 3
9 -1 1 175.28 2.9
9 -1 1 148.79 2.1
-9 1 -1 181.38 2.2
9 0 -1 -2.2 1.5
9 0 -1 19.8 1.4
-9 0 1 24.2 1.7
-9 0 1 22.1 1.4
-8 0 1 418.26 3.7
8 0 -1 408.96 3.4
8 0 -1 358.26 2.9
-8 0 1 448.66 3.3
-7 0 1 0.1 0.9
7 0 -1 0.5 1.2
-7 0 1 1.1 1.4
7 0 -1 -0.2 1.3
6 0 -1 745.93 4.2
-6 0 1 822.82 4.5
6 0 -1 819.52 3.9
-6 0 1 917.81 4
-5 0 1 247.28 2.5
5 0 -1 246.28 2.7
-5 0 1 251.07 2.9
5 0 -1 239.38 2.3
-4 0 1 1221.08 5.8
-4 0 1 1252.17 5.2
4 0 -1 1182.78 5.7
4 0 -1 1204.68 5.1
3 0 -1 660.03 4.3
-3 0 1 646.04 4.8
3 0 -1 629.54 4.6
-3 0 1 655.63 4.2
-2 0 1 5401.56 15
2 0 -1 5419.56 13.2
2 0 -1 5257.07 14.6
-2 0 1 5062.59 12.8
1 0 -1 2344.17 10.8
-1 0 1 2535.65 11.2
1 0 -1 2277.97 11.8
-1 0 1 2430.86 12.4
0 0 -1 1438.16 12.3
0 0 1 1441.16 12.1
0 0 1 1616.54 11.9
0 0 -1 1549.74 12.1
1 0 1 2962.9 19.3
-1 0 -1 2780.82 18.4
1 0 1 2275.17 13.3
-1 0 -1 2458.35 13.7
-2 0 -1 2464.05 14.6
2 0 1 2358.46 10.3
2 0 1 2359.36 14.4
-2 0 -1 2247.98 10.1
3 0 1 1092.79 6
3 0 1 1006 7.4
-3 0 -1 1035.7 7.6
-3 0 -1 1087.29 6.1
-4 0 -1 695.43 4.3
-4 0 -1 712.13 5.5
4 0 1 690.93 4.4
4 0 1 622.24 5
5 0 1 984.5 5.6
5 0 1 956.3 4.5
-5 0 -1 1060.89 6.1
-5 0 -1 975.7 4.4
6 0 1 4.2 1.2
-6 0 -1 10.8 1.5
-6 0 -1 3 0.8
6 0 1 3 1.4
-7 0 -1 876.01 5.3
7 0 1 771.32 4.7
7 0 1 749.82 3.9
-7 0 -1 786.32 3.8
-8 0 -1 -1.8 1.2
8 0 1 22.2 1.2
8 0 1 22.3 1.6
-8 0 -1 19.5 1.6
9 0 1 480.45 3.4
-9 0 -1 192.78 4.7
9 0 1 453.15 4.1
-9 0 -1 61.69 3.5
-9 1 1 100.19 2
-9 1 1 108.19 2.3
9 -1 -1 85.69 2.2
9 -1 -1 93.19 2
8 -1 -1 416.86 3.3
8 -1 -1 451.15 3.7
-8 1 1 499.95 3.5
-8 1 1 -58.29 4
7 -1 -1 47.7 1.4
7 -1 -1 49.3 1.4
-7 1 1 58.49 1.4
-7 1 1 52.49 1.6
-6 1 1 1145.69 5.7
-6 1 1 1327.77 5
6 -1 -1 1156.08 4.6
6 -1 -1 1223.58 5.6
-5 1 1 30.5 1.7
5 -1 -1 34.2 1.6
5 -1 -1 32.7 1.3
-5 1 1 35.6 1.3
4 -1 -1 3141.49 9.5
-4 1 1 2837.02 9.3
4 -1 -1 3245.88 8.1
-4 1 1 3163.58 7.8
3 -1 -1 117.89 1.9
-3 1 1 117.79 2.2
-3 1 1 101.59 2.4
3 -1 -1 116.99 2.5
2 -1 -1 4523.85 14
2 -1 -1 5860.61 12.5
-2 1 1 5639.34 12.3
-2 1 1 4668.53 14.6
1 -1 -1 1211.08 6.7
1 -1 -1 1144.29 7.8
-1 1 1 1279.47 7
-1 1 1 1159.58 7.8
0 -1 -1 2267.27 10.9
0 1 1 2455.25 12
0 -1 -1 2446.36 12
0 1 1 2288.17 10.9
1 1 1 501.05 5.4
-1 -1 -1 508.15 5.4
1 1 1 449.76 5.3
-1 -1 -1 457.15 5.3
-2 -1 -1 2569.84 10.6
2 1 1 2413.76 10.1
-2 -1 -1 2937.41 12.2
2 1 1 2608.44 11.5
3 1 1 450.85 4.1
-3 -1 -1 443.66 4.4
3 1 1 436.56 4.4
-3 -1 -1 494.25 4.3
4 1 1 653.93 4.4
-4 -1 -1 659.33 4.3
-4 -1 -1 650.83 4.7
4 1 1 604.74 4.5
5 1 1 1077.39 5
5 1 1 1013.2 5.3
-5 -1 -1 1134.69 5.8
-5 -1 -1 1057.09 4.7
6 1 1 352.16 2.8
-6 -1 -1 401.06 3.4
6 1 1 381.66 3.3
-6 -1 -1 357.16 2.7
-7 -1 -1 982.9 4.2
7 1 1 870.01 4.6
-7 -1 -1 938.21 5.2
7 1 1 925.21 4.2
-8 -1 -1 141.89 2.4
8 1 1 117.09 2.1
8 1 1 123.49 2.1
-8 -1 -1 132.59 2.1
-9 -1 -1 429.46 3.2
9 1 1 -25.3 3.4
9 1 1 452.35 3.8
-9 -1 -1 488.25 4.1
9 -2 -1 187.08 3.1
9 -2 -1 125.19 2.3
-9 2 1 -40.6 2.1
-9 2 1 196.58 3
8 -2 -1 204.28 2.9
-8 2 1 223.38 2.6
-8 2 1 228.18 3.1
8 -2 -1 191.28 2.3
-7 2 1 339.87 3.4
7 -2 -1 376.86 3.4
7 -2 -1 336.17 2.7
-7 2 1 383.06 2.8
-6 2 1 576.24 4.1
6 -2 -1 612.54 4.3
6 -2 -1 573.04 3.4
-6 2 1 645.84 3.5
-5 2 1 1035.2 4.3
5 -2 -1 1023.9 4.3
5 -2 -1 1032.5 5.6
-5 2 1 956.4 5.4
4 -2 -1 1114.69 4.6
4 -2 -1 1139.39 6.1
-4 2 1 1192.68 4.7
-4 2 1 1088.09 5.9
3 -2 -1 1516.65 7.3
-3 2 1 1714.43 6
3 -2 -1 1626.24 5.7
-3 2 1 1498.95 7.1
-2 2 1 1430.96 5.8
-2 2 1 1294.17 7.1
2 -2 -1 1342.07 5.7
2 -2 -1 1235.88 6.9
1 -2 -1 1900.01 7.5
1 -2 -1 1898.91 8.5
1 -2 -1 1884.51 7.6
-1 2 1 1891.51 8.6
0 2 1 3242.98 11
0 -2 -1 3220.68 10.9
0 2 1 3310.57 11.5
0 -2 -1 3373.76 11.5
-1 -2 -1 666.83 5.3
1 2 1 630.74 5.2
-1 -2 -1 613.24 5.1
1 2 1 661.23 5.2
2 2 1 2282.47 9
2 2 1 2253.87 9
-2 -2 -1 2168.48 9
-2 -2 -1 2454.65 9.4
3 2 1 177.28 2.5
-3 -2 -1 196.98 2.8
-3 -2 -1 180.68 2.6
3 2 1 185.28 2.6
-4 -2 -1 2804.72 8.5
-4 -2 -1 2806.32 8.6
4 2 1 2733.33 8.3
4 2 1 2624.34 8.2
-5 -2 -1 226.38 2.7
-5 -2 -1 218.78 2.6
5 2 1 196.48 2.5
5 2 1 202.58 2.4
6 2 1 1672.33 5.9
6 2 1 1628.44 5.9
-6 -2 -1 1815.92 6.6
-6 -2 -1 1778.32 6
-7 -2 -1 176.78 2.5
-7 -2 -1 168.98 2.3
7 2 1 165.18 2.5
7 2 1 147.29 2
-8 -2 -1 686.33 3.9
-8 -2 -1 753.02 4.5
8 2 1 670.93 4.1
8 2 1 636.64 3.8
9 2 1 78.69 1.9
9 2 1 79.09 2
-9 -2 -1 94.59 1.8
-9 -2 -1 97.89 2.2
-8 3 1 3.4 1.3
8 -3 -1 6 1.3
8 -3 -1 0.5 1.4
-8 3 1 3.9 1.5
7 -3 -1 882.01 4.1
-7 3 1 843.72 5.4
7 -3 -1 914.61 5.5
-7 3 1 1017.2 4.3
-6 3 1 63.59 1.9
-6 3 1 68.09 1.7
6 -3 -1 65.09 1.4
6 -3 -1 68.89 2
-5 3 1 1557.54 5
5 -3 -1 1377.96 4.7
-5 3 1 1406.26 6.3
5 -3 -1 1505.85 6.7
4 -3 -1 263.37 3.1
-4 3 1 280.97 2.3
-4 3 1 258.07 3
4 -3 -1 251.27 2.1
-3 3 1 1155.68 5.9
3 -3 -1 1119.79 5.7
-3 3 1 1217.18 4.9
3 -3 -1 1134.09 4.6
2 -3 -1 1153.58 5.9
-2 3 1 1179.48 6.2
2 -3 -1 1257.47 5.3
-1 3 1 1351.46 6.8
1 -3 -1 1290.27 5.8
1 -3 -1 1310.07 5.8
1 -3 -1 1338.17 6.5
0 -3 -1 2381.26 8.6
0 -3 -1 2571.44 8.7
0 -3 -1 2640.34 8.9
0 3 1 2714.83 9.1
-1 -3 -1 1039.3 5.7
1 3 1 1083.39 6
-1 -3 -1 1129.29 6.2
1 3 1 1099.29 5.6
-2 -3 -1 3331.87 10.5
2 3 1 3883.91 10
2 3 1 3442.06 10.1
-2 -3 -1 3533.25 10
3 3 1 1179.68 5.8
-3 -3 -1 1263.37 5.6
3 3 1 1292.17 5.8
-3 -3 -1 1214.98 6
4 3 1 3039.8 8.6
-4 -3 -1 2985.3 8.8
4 3 1 2799.32 7.9
-4 -3 -1 3047.6 8.4
5 3 1 254.57 2.6
-5 -3 -1 272.07 2.8
-5 -3 -1 264.87 2.9
5 3 1 247.08 2.5
6 3 1 1245.08 5.1
-6 -3 -1 1368.56 5.5
6 3 1 1260.67 5.2
-6 -3 -1 1289.17 5.3
-7 -3 -1 5.7 1.4
7 3 1 6.3 1.3
7 3 1 6.4 1.4
-7 -3 -1 8.1 1.1
-8 -3 -1 545.95 3.9
8 3 1 448.76 3.4
-8 -3 -1 516.65 3.6
8 3 1 454.55 3.4
-9 -3 -1 18.7 1.8
-9 -3 -1 18.8 1.4
9 3 1 15.9 1.2
9 3 1 17.3 1.4
-8 4 1 89.29 2.6
8 -4 -1 96.49 1.8
8 -4 -1 107.59 2.7
-8 4 1 104.89 2.1
-7 4 1 631.04 3.6
7 -4 -1 540.05 4.7
7 -4 -1 530.05 3.4
-7 4 1 496.25 4.7
-6 4 1 75.49 1.7
-6 4 1 79.39 2
6 -4 -1 64.99 1.4
6 -4 -1 77.89 2.2
5 -4 -1 591.44 3.2
5 -4 -1 648.34 4.5
-5 4 1 655.73 4.4
-5 4 1 654.73 3.4
4 -4 -1 2.9 1
4 -4 -1 2.4 1.3
-4 4 1 2.4 1
-4 4 1 1.9 1.2
3 -4 -1 1069.49 4.4
3 -4 -1 1057.39 5.4
-3 4 1 1109.69 5.7
2 -4 -1 333.47 2.6
-2 4 1 370.26 3.4
2 -4 -1 355.56 2.8
2 -4 -1 355.36 3.2
1 -4 -1 2173.28 6.9
1 -4 -1 1899.91 7.1
1 -4 -1 2006.3 6.6
1 -4 -1 2149.08 7.2
0 -4 -1 374.66 3.1
0 -4 -1 378.86 3.4
0 -4 -1 344.77 3.1
0 4 1 360.96 3.3
1 4 1 3910.01 9.6
1 4 1 4083.39 10.3
-1 -4 -1 4328.27 10.8
-1 -4 -1 4167.08 10.1
2 4 1 830.42 4.7
2 4 1 826.42 4.5
-2 -4 -1 805.42 4.8
-2 -4 -1 829.92 4.4
-3 -4 -1 1966.8 7.5
3 4 1 2039.5 7.1
-3 -4 -1 1980.2 6.5
3 4 1 1943.01 6.5
4 4 1 512.05 3.3
-4 -4 -1 558.84 4
4 4 1 523.85 3.7
-4 -4 -1 547.75 3.4
5 4 1 660.33 3.6
-5 -4 -1 722.83 3.8
5 4 1 684.93 4
-5 -4 -1 720.03 4.4
6 4 1 711.73 4.1
6 4 1 657.63 3.7
-6 -4 -1 701.83 4.3
-6 -4 -1 748.53 4
-7 -4 -1 119.69 1.9
7 4 1 123.79 2
7 4 1 131.19 2.2
-7 -4 -1 120.09 2.2
8 4 1 220.88 2.5
8 4 1 213.38 2.5
-8 -4 -1 244.58 2.8
-8 -4 -1 232.08 2.5
9 4 1 1.5 1.1
-9 -4 -1 14.1 1.4
-9 -4 -1 14.9 1.3
9 4 1 11 1.5
8 -5 -1 132.59 2
-8 5 1 139.69 3.2
8 -5 -1 130.49 3.2
-8 5 1 139.99 2
7 -5 -1 45.7 2
7 -5 -1 -4.9 1.6
-7 5 1 45.9 2
-7 5 1 51.39 1.6
6 -5 -1 272.07 3.4
-6 5 1 296.97 3.4
6 -5 -1 259.37 2.4
-6 5 1 276.97 2.5
-5 5 1 322.27 3.5
-5 5 1 342.97 2.5
5 -5 -1 306.97 2.4
5 -5 -1 304.77 3.4
-4 5 1 359.16 3.4
4 -5 -1 348.27 2.6
4 -5 -1 335.07 3.1
-3 5 1 1585.44 6.6
3 -5 -1 1524.35 5.1
3 -5 -1 1507.15 6
3 -5 -1 1493.45 5
2 -5 -1 884.01 4.5
2 -5 -1 751.82 4.5
2 -5 -1 821.32 3.9
2 -5 -1 852.91 4.1
1 -5 -1 2912.01 7.7
1 -5 -1 2553.94 7.8
1 -5 -1 2912.71 7.7
1 -5 -1 2718.03 7.2
0 5 1 619.14 3.9
0 -5 -1 590.84 3.7
0 -5 -1 559.14 3.7
0 -5 -1 610.04 3.6
1 5 1 2419.36 7.1
1 5 1 2406.66 7.7
-1 -5 -1 2542.85 7.4
-1 -5 -1 2627.24 8.2
-2 -5 -1 117.79 2
-2 -5 -1 119.79 2.1
2 5 1 118.29 1.9
2 5 1 117.99 2
-3 -5 -1 966.8 5.3
3 5 1 1003.5 4.9
3 5 1 968.9 4.5
-3 -5 -1 1022 4.6
4 5 1 3.7 1.2
-4 -5 -1 5.3 1.2
-4 -5 -1 3.2 1.1
4 5 1 5.2 1.2
-5 -5 -1 1749.12 6.9
-5 -5 -1 1798.62 6
5 5 1 1624.44 5.6
5 5 1 1716.23 6.5
6 5 1 333.97 2.8
6 5 1 338.17 3
-6 -5 -1 346.67 2.9
-6 -5 -1 341.47 3.3
7 5 1 514.85 3.7
-7 -5 -1 479.25 3.4
7 5 1 436.56 3.2
-7 -5 -1 478.65 3.7
8 5 1 137.99 2.4
8 5 1 154.88 2.6
-8 -5 -1 152.88 2.4
-8 -5 -1 146.99 2.5
-7 6 1 5.2 1.5
7 -6 -1 1.7 1
7 -6 -1 3.2 1.8
6 -6 -1 441.16 3.2
6 -6 -1 469.75 4.4
-6 6 1 528.55 4.4
6 -6 -1 452.05 3.4
5 -6 -1 138.49 2.5
5 -6 -1 140.19 1.8
5 -6 -1 144.69 1.9
-5 6 1 154.08 2.5
4 -6 -1 978.7 5.1
4 -6 -1 1022.5 4.4
4 -6 -1 962.8 4.2
3 -6 -1 199.58 2.4
3 -6 -1 235.78 2.5
3 -6 -1 228.18 2.1
3 -6 -1 231.08 2.3
2 -6 -1 1475.55 5.1
2 -6 -1 1626.84 5.7
2 -6 -1 1399.36 5.8
2 -6 -1 1612.64 5.5
1 -6 -1 709.23 3.8
1 -6 -1 788.32 4.1
1 -6 -1 806.82 4.1
1 -6 -1 720.43 4.2
0 -6 -1 614.74 3.7
0 -6 -1 664.63 3.9
0 6 1 668.93 4
0 -6 -1 648.94 3.7
1 6 1 739.03 4.2
-1 -6 -1 778.62 4.3
-1 -6 -1 774.72 4
-2 -6 -1 134.09 2.2
2 6 1 122.69 2
-2 -6 -1 130.89 1.7
2 6 1 128.09 1.9
3 6 1 1122.99 4.6
-3 -6 -1 1169.78 4.6
-3 -6 -1 1139.89 5.6
3 6 1 1144.29 5.2
-4 -6 -1 51.69 1.8
4 6 1 51.99 1.4
-4 -6 -1 53.69 1.4
4 6 1 52.69 1.6
5 6 1 1237.18 5.2
-5 -6 -1 1220.08 4.9
5 6 1 1206.28 5.5
-5 -6 -1 1216.18 5.9
6 6 1 2 1.5
6 6 1 2.4 1
-6 -6 -1 0.3 1.4
-6 -6 -1 3 1.5
7 6 1 370.56 3.1
-7 -6 -1 357.06 3.8
7 6 1 408.26 3.7
-7 -6 -1 420.36 3.3
8 6 1 2 1.1
8 6 1 1.8 1.3
-8 -6 -1 0.9 1.4
-8 -6 -1 0.3 1
7 -7 -1 23.9 1.3
7 -7 -1 21.6 2.2
7 -7 -1 19.2 2
7 -7 -1 30.2 1.5
6 -7 -1 502.55 4.9
6 -7 -1 517.25 3.5
6 -7 -1 365.46 4.5
6 -7 -1 503.15 3.4
5 -7 -1 56.99 1.9
5 -7 -1 53.69 1.3
5 -7 -1 47.3 2
5 -7 -1 48.1 1.3
4 -7 -1 758.62 4.7
4 -7 -1 895.81 4.9
4 -7 -1 803.32 3.9
4 -7 -1 788.82 3.9
3 -7 -1 10.5 1.1
3 -7 -1 10.1 1.3
3 -7 -1 12.4 1.3
3 -7 -1 11.2 0.9
2 -7 -1 797.52 4.1
2 -7 -1 673.23 3.6
2 -7 -1 698.33 4.2
2 -7 -1 743.63 3.9
1 -7 -1 47.4 1.6
1 -7 -1 47.6 1.3
1 -7 -1 47.9 1.4
1 -7 -1 53.99 1.6
0 -7 -1 666.53 3.9
0 -7 -1 678.63 3.8
0 -7 -1 664.63 3.8
0 -7 -1 667.53 3.5
-1 -7 -1 423.66 3.3
-1 -7 -1 437.26 3
1 7 1 434.36 3.4
-1 -7 -1 488.05 3
2 7 1 428.36 3.4
2 7 1 421.66 3
-2 -7 -1 453.35 3.5
-2 -7 -1 431.56 3.1
-3 -7 -1 702.83 4.6
-3 -7 -1 698.83 3.7
3 7 1 697.13 3.7
3 7 1 710.83 4.3
-4 -7 -1 380.06 3.6
4 7 1 371.66 3.3
-4 -7 -1 374.96 3
4 7 1 372.56 2.9
-5 -7 -1 357.06 2.9
5 7 1 338.37 2.9
-5 -7 -1 360.56 3.5
5 7 1 349.37 3.2
-6 -7 -1 219.18 3
-6 -7 -1 211.08 2.5
6 7 1 225.88 2.8
6 7 1 213.58 2.6
7 7 1 216.38 2.7
7 7 1 246.28 3.1
-7 -7 -1 15.4 3.2
-7 -7 -1 219.38 2.6
6 -8 -1 124.39 2.2
6 -8 -1 125.69 2.2
6 -8 -1 127.29 3.2
6 -8 -1 112.59 3
5 -8 -1 124.59 1.9
5 -8 -1 127.19 1.9
5 -8 -1 128.69 2.7
5 -8 -1 145.49 2.7
4 -8 -1 302.47 3.2
4 -8 -1 337.87 3.2
4 -8 -1 312.77 2.7
4 -8 -1 314.47 2.7
3 -8 -1 28.9 1.3
3 -8 -1 28 1.4
3 -8 -1 27.2 1.1
3 -8 -1 28.2 1.4
2 -8 -1 358.36 3
2 -8 -1 369.96 2.9
2 -8 -1 346.27 3.1
2 -8 -1 345.47 2.8
1 -8 -1 100.79 1.7
1 -8 -1 101.09 2
1 -8 -1 103.09 1.6
1 -8 -1 103.59 1.8
0 -8 -1 846.62 4.5
0 -8 -1 821.62 4.2
0 -8 -1 807.82 3.9
0 -8 -1 832.42 4.6
1 8 1 1.6 1.1
-1 -8 -1 2.4 1.4
-1 -8 -1 1.7 1.1
-1 -8 -1 1.4 1.2
-2 -8 -1 994.9 5.3
-2 -8 -1 986.3 4.4
2 8 1 959.2 5.4
-3 -8 -1 0.9 1
3 8 1 2 1.2
-3 -8 -1 4.1 1.4
3 8 1 1.5 1.4
4 8 1 815.72 5
4 8 1 725.53 4.2
-4 -8 -1 838.82 5.5
-4 -8 -1 773.92 4.2
-5 -8 -1 21.5 1.3
5 8 1 25.8 1.4
-5 -8 -1 29.7 1.7
5 8 1 26.8 1.3
6 8 1 307.17 3.7
-6 -8 -1 -18.2 4.2
-6 -8 -1 322.57 3.1
6 8 1 298.37 3
5 -9 -1 155.68 3
5 -9 -1 146.69 3.1
5 -9 -1 163.48 2.4
5 -9 -1 -21.1 2.1
4 -9 -1 106.79 2.3
4 -9 -1 106.49 1.9
4 -9 -1 105.99 2.2
4 -9 -1 117.79 2.1
3 -9 -1 241.18 2.6
3 -9 -1 219.18 2.5
3 -9 -1 243.88 2.6
3 -9 -1 238.58 2.8
2 -9 -1 176.98 2.3
2 -9 -1 189.88 2.2
2 -9 -1 192.28 2.3
2 -9 -1 201.48 2.4
1 -9 -1 466.55 3.3
1 -9 -1 428.06 3.2
1 -9 -1 409.56 3.4
1 -9 -1 414.26 3.3
0 -9 -1 639.04 4.2
0 -9 -1 630.24 4
0 -9 -1 586.44 3.6
0 -9 -1 615.04 3.9
-1 -9 -1 257.07 2.9
-1 -9 -1 249.68 3
-1 -9 -1 238.18 2.4
-1 -9 -1 262.87 2.4
-2 -9 -1 477.15 4
-2 -9 -1 500.05 3.4
2 9 1 511.95 4.2
-2 -9 -1 431.76 3.3
-3 -9 -1 208.08 3.3
-3 -9 -1 204.08 2.5
3 9 1 226.88 3.2
-4 -9 -1 347.87 4.3
4 9 1 353.26 3.8
-4 -9 -1 316.17 2.9
4 9 1 1 2.8
-5 -9 -1 1.4 1.3
5 9 1 11.2 1.6
5 9 1 13 1.2
-5 -9 -1 12.3 1.8
3 -10 -1 471.15 4.1
3 -10 -1 416.86 3.3
3 -10 -1 393.76 3.9
3 -10 -1 458.05 3.7
2 -10 -1 18.6 1.3
2 -10 -1 14 1
2 -10 -1 10.8 1.5
2 -10 -1 17.7 1.4
1 -10 -1 571.44 4.2
1 -10 -1 507.65 4.1
1 -10 -1 508.35 3.8
1 -10 -1 532.05 4.3
0 -10 -1 135.79 2.1
0 -10 -1 135.99 2.4
0 -10 -1 145.59 2.5
0 -10 -1 143.59 2.2
-1 -10 -1 254.57 3.2
-1 -10 -1 234.98 2.6
-1 -10 -1 -32.4 3.5
-1 -10 -1 256.37 2.7
-2 -10 -1 72.29 2.1
-2 -10 -1 65.19 1.9
-2 -10 -1 64.89 2.2
-2 -10 -1 66.89 1.7
-3 -10 -1 119.39 1.9
-3 -10 -1 119.59 3.1
3 10 1 122.39 3
-3 -10 -1 122.39 2
2 10 -2 218.78 2.8
-2 -10 2 233.48 2.8
1 10 -2 36.1 1.5
-1 -10 2 37.9 1.7
0 -10 2 364.16 3.4
1 -10 2 110.59 4.2
1 -10 2 100.59 2.2
1 -10 2 108.89 2.2
1 -10 2 103.39 3.7
2 -10 2 374.96 3.6
2 -10 2 343.17 4.8
2 -10 2 361.16 5.6
2 -10 2 438.86 3.6
3 -10 2 125.69 3
3 -10 2 120.29 2.8
3 -10 2 109.09 2.5
3 -10 2 68.59 2.5
4 9 -2 242.38 2.8
-4 -9 2 246.28 3.1
3 9 -2 78.19 1.7
-3 -9 2 81.69 2
2 9 -2 630.24 4
-2 -9 2 569.14 3.9
-1 -9 2 53.89 1.8
1 9 -2 47.9 1.6
0 -9 2 664.93 4
0 9 -2 708.03 4.1
1 -9 2 74.29 2.5
1 -9 2 73.79 1.9
1 -9 2 76.79 1.9
1 -9 2 70.49 2.9
2 -9 2 532.55 4.7
2 -9 2 553.94 3.7
2 -9 2 515.35 5.3
2 -9 2 495.05 3.8
3 -9 2 2.4 1.1
3 -9 2 1.4 1.4
3 -9 2 0.8 1
3 -9 2 2.7 1.1
4 -9 2 328.17 4.1
4 -9 2 255.27 3.2
4 -9 2 315.67 3.6
4 -9 2 358.26 3.9
5 -9 2 28.7 1.4
5 -9 2 26.5 1.5
5 -9 2 17.3 2.2
5 -9 2 30.2 2.4
-5 -8 2 37.8 4.5
-5 -8 2 235.48 3
5 8 -2 226.98 2.7
5 8 -2 238.18 4.9
4 8 -2 229.48 5.6
-4 -8 2 197.58 2.5
4 8 -2 193.78 2.7
-4 -8 2 210.48 5.6
3 8 -2 453.95 3.5
-3 -8 2 453.95 3.4
2 8 -2 475.65 3.4
-2 -8 2 480.15 3.4
1 8 -2 349.37 2.9
-1 -8 2 356.96 3.1
0 8 -2 206.58 2.3
0 -8 2 201.78 2.3
1 -8 2 262.97 3.7
-1 8 -2 239.98 2.5
1 -8 2 250.17 2.7
1 -8 2 256.07 4.2
2 -8 2 411.56 4.4
2 -8 2 428.46 3.8
2 -8 2 406.46 3.5
2 -8 2 459.45 3.5
3 -8 2 59.59 2
3 -8 2 56.59 1.7
3 -8 2 64.09 1.8
3 -8 2 64.39 2
4 -8 2 671.63 4.9
4 -8 2 579.94 4
4 -8 2 608.84 5.1
4 -8 2 650.43 4.3
5 -8 2 6.8 1.7
5 -8 2 8.6 1.3
5 -8 2 4.5 1.5
5 -8 2 6.1 2
6 -8 2 430.26 3.8
6 -8 2 446.46 3.8
6 7 -2 13.1 1.3
6 7 -2 14.2 2
-6 -7 2 1.3 1.7
-6 -7 2 4.6 1.7
5 7 -2 455.25 3.5
5 7 -2 518.75 5.3
-5 -7 2 476.25 3.6
-5 -7 2 485.55 5.1
4 7 -2 28.8 2
4 7 -2 32.2 1.4
-4 -7 2 30.9 1.7
-4 -7 2 29.5 2
-3 -7 2 879.31 4.4
-3 -7 2 892.61 9.2
3 7 -2 953.7 9.1
3 7 -2 891.31 4.4
2 7 -2 7.2 1.1
-2 -7 2 7.5 1.1
-1 -7 2 528.45 3.5
1 7 -2 554.74 3.5
0 -7 2 129.99 1.9
0 -7 2 137.79 4.7
0 7 -2 141.29 2
0 -7 2 148.99 5.5
1 -7 2 732.43 5.5
1 -7 2 653.53 4.1
1 -7 2 673.53 6.2
-1 7 -2 640.54 4
2 -7 2 1161.08 5.4
2 -7 2 1035.3 5.4
2 -7 2 1005 6.2
2 -7 2 1001.4 5.3
3 -7 2 443.16 3.5
3 -7 2 528.75 4
3 -7 2 491.35 4
3 -7 2 451.75 4
4 -7 2 574.24 5.1
4 -7 2 658.33 5.2
4 -7 2 614.04 4.1
4 -7 2 585.24 3.9
5 -7 2 336.37 5
5 -7 2 341.17 5
5 -7 2 333.07 3
-6 7 -2 446.46 3.4
6 -7 2 378.46 3.2
7 -7 2 118.79 2
-7 7 -2 143.39 2.3
6 6 -2 337.27 4
-6 -6 2 347.67 3.8
-6 -6 2 289.77 3.3
6 6 -2 277.57 3
5 6 -2 399.96 3.2
5 6 -2 416.46 4.2
-5 -6 2 395.86 4
-5 -6 2 410.66 3.1
4 6 -2 243.58 3.4
4 6 -2 246.08 2.4
-4 -6 2 244.38 2.7
-4 -6 2 237.18 3.4
3 6 -2 752.42 4
-3 -6 2 768.12 4.1
-3 -6 2 752.62 6.6
3 6 -2 786.22 6.4
2 6 -2 99.39 4.2
2 6 -2 93.89 1.9
-2 -6 2 103.39 2
-2 -6 2 90.89 4.2
-1 -6 2 1412.16 5.4
1 6 -2 1469.35 5.5
0 -6 2 8.6 1.1
0 -6 2 9.2 2.5
0 6 -2 14.6 1.5
0 -6 2 9.8 2.8
1 -6 2 2549.15 8
1 -6 2 2625.54 11.8
-1 6 -2 2560.54 7.8
1 -6 2 2691.73 10.3
2 -6 2 140.69 2.6
2 -6 2 148.09 2.5
2 -6 2 132.59 2.2
3 -6 2 1597.24 6.6
3 -6 2 1557.94 7.6
3 -6 2 1822.42 7.4
-4 6 -2 131.49 2
4 -6 2 140.79 2.7
4 -6 2 122.89 2.1
4 -6 2 124.19 2.9
5 -6 2 912.31 9.2
5 -6 2 1005.7 9.6
-5 6 -2 1024.9 4.8
5 -6 2 954.2 4.6
6 -6 2 218.88 2.5
-6 6 -2 223.68 2.6
-7 6 -2 317.07 2.7
7 -6 2 303.17 2.7
8 -6 2 121.79 2.5
-8 6 -2 176.48 2.5
7 5 -2 1.1 1.5
-7 -5 2 12 1.2
7 5 -2 8.8 1.5
-7 -5 2 9.5 1.4
-6 -5 2 91.59 3.2
6 5 -2 268.07 3.1
6 5 -2 265.57 2.8
-6 -5 2 315.67 3.2
5 5 -2 148.59 2.2
-5 -5 2 157.78 2.5
-5 -5 2 178.58 2.5
5 5 -2 152.78 2.6
4 5 -2 424.36 3.1
-4 -5 2 445.56 3.2
4 5 -2 436.86 4.2
-4 -5 2 426.26 4
3 5 -2 560.64 4.9
3 5 -2 528.55 3.4
-3 -5 2 556.64 3.4
-3 -5 2 528.45 4.8
2 5 -2 637.34 6.6
2 5 -2 651.23 3.8
-2 -5 2 656.23 3.9
-2 -5 2 642.54 7.2
1 5 -2 1765.22 6.1
-1 -5 2 1766.42 6.2
0 5 -2 722.03 4.3
0 -5 2 769.92 17
0 -5 2 721.43 4.4
0 -5 2 659.93 14.1
1 -5 2 1947.71 7.5
-1 5 -2 1991.1 7.4
1 -5 2 1886.71 9.1
1 -5 2 1974.9 11
2 -5 2 438.06 4.1
2 -5 2 426.66 4
-2 5 -2 415.46 3.7
3 -5 2 1546.15 6.6
3 -5 2 1427.56 8
3 -5 2 1663.53 7.8
-3 5 -2 1659.33 6.4
-4 5 -2 40.3 1.6
4 -5 2 37.1 1.3
4 -5 2 34.8 2.2
4 -5 2 39 2
5 -5 2 707.73 14.7
5 -5 2 690.83 14.8
5 -5 2 685.13 3.8
-5 5 -2 736.53 3.9
6 -5 2 4.2 1
-6 5 -2 0.9 1
-7 5 -2 369.86 2.9
7 -5 2 335.17 2.8
-8 5 -2 30.2 1.5
8 -5 2 23.6 1.2
7 4 -2 21.3 1.7
7 4 -2 17.1 1.4
-7 -4 2 19.5 1.4
-7 -4 2 19.9 1.5
6 4 -2 702.73 4
-6 -4 2 794.62 4.3
6 4 -2 681.03 4.6
-6 -4 2 741.73 4.4
5 4 -2 37.9 1.2
5 4 -2 41.9 1.8
-5 -4 2 43 1.3
-5 -4 2 42.1 1.6
4 4 -2 2313.47 8.8
-4 -4 2 2670.33 7.3
-4 -4 2 2462.85 8.5
4 4 -2 2477.35 6.9
3 4 -2 40.7 1.9
3 4 -2 42.7 1.5
-3 -4 2 41.5 1.5
-3 -4 2 41.2 1.7
-2 -4 2 2520.35 12
2 4 -2 2505.65 11.8
2 4 -2 2494.45 7.3
-2 -4 2 2568.04 7.5
1 4 -2 329.97 3.1
-1 -4 2 295.37 3.1
0 -4 2 2538.35 8.6
0 4 -2 2692.83 8.5
1 -4 2 328.57 4.3
-1 4 -2 351.56 3.7
1 -4 2 358.96 5.3
1 -4 2 346.27 3.7
2 -4 2 1370.86 7.3
-2 4 -2 1327.47 7.3
2 -4 2 1380.66 7.9
-2 4 -2 1445.86 6.9
3 -4 2 844.12 6.5
3 -4 2 786.92 4.7
3 -4 2 767.52 7.2
-3 4 -2 852.01 4.8
4 -4 2 656.53 10
4 -4 2 715.13 10.5
4 -4 2 708.43 4.2
-4 4 -2 744.73 4.1
5 -4 2 1082.99 4.6
-5 4 -2 1178.18 4.8
6 -4 2 104.89 2
-6 4 -2 117.09 1.8
7 -4 2 945.01 4.4
-7 4 -2 70.99 4.9
8 -4 2 49.99 1.7
-8 4 -2 54.09 1.4
9 -4 2 395.16 3.2
-9 4 -2 -45.3 3
8 3 -2 51.29 2.7
8 3 -2 180.28 2.9
-8 -3 2 224.88 2.8
-8 -3 2 221.88 2.9
-7 -3 2 290.87 2.8
7 3 -2 273.37 2.8
7 3 -2 261.47 2.7
-7 -3 2 283.07 2.7
6 3 -2 835.02 4.1
-6 -3 2 860.91 4.6
6 3 -2 927.01 5
-6 -3 2 983.7 4.6
5 3 -2 781.62 4.8
5 3 -2 798.72 4
-5 -3 2 886.71 4.3
-5 -3 2 764.82 4.4
4 3 -2 1856.31 5.9
4 3 -2 2020.9 8.1
-4 -3 2 2082.59 6.4
-4 -3 2 1995.9 7.2
3 3 -2 363.46 3.1
3 3 -2 377.56 4
-3 -3 2 359.26 3.1
-3 -3 2 341.67 3.5
2 3 -2 3552.44 9.3
2 3 -2 3559.34 13.8
-2 -3 2 3523.65 9.2
-2 -3 2 3434.16 12.5
-1 -3 2 308.57 6
-1 -3 2 307.57 3.2
1 3 -2 304.47 3.3
1 3 -2 294.97 6.1
0 3 -2 3599.94 10.8
0 -3 2 3632.54 10.9
-1 3 -2 10.9 1.6
1 -3 2 12.4 2
1 -3 2 8.7 1.7
-1 3 -2 8.5 1.7
2 -3 2 2089.39 11.6
-2 3 -2 2150.68 9.1
2 -3 2 2096.39 9.3
-2 3 -2 2076.39 10.9
3 -3 2 177.58 5.1
3 -3 2 172.78 5.6
3 -3 2 166.28 2.6
-3 3 -2 180.18 2.7
4 -3 2 1944.31 6.8
-4 3 -2 2000.7 6.7
5 -3 2 1403.66 5.2
-5 3 -2 1501.95 5.4
6 -3 2 708.83 9.8
6 -3 2 826.72 3.9
-6 3 -2 858.61 10.2
-6 3 -2 844.42 4.1
-7 3 -2 556.04 3.3
7 -3 2 447.76 6.4
7 -3 2 455.25 3.1
-7 3 -2 531.15 6.8
8 -3 2 463.15 6.1
-8 3 -2 522.35 6.5
-8 3 -2 529.75 3.6
8 -3 2 432.46 3.3
-9 3 -2 219.28 5.3
-9 3 -2 -47.5 2.2
9 -3 2 245.68 5.1
9 -3 2 185.48 2.7
-8 -2 2 77.19 1.8
8 2 -2 67.49 1.8
8 2 -2 71.69 2
-8 -2 2 83.29 1.7
-7 -2 2 760.52 4.4
7 2 -2 673.03 4
7 2 -2 17.9 4.4
-7 -2 2 737.43 4
-6 -2 2 98.89 2
-6 -2 2 84.89 1.6
6 2 -2 79.89 1.6
6 2 -2 86.99 2
-5 -2 2 1055.39 4.6
-5 -2 2 991.2 4.7
5 2 -2 900.11 4.2
5 2 -2 981.4 5
4 2 -2 262.67 2.6
4 2 -2 290.57 3.1
-4 -2 2 270.97 2.8
-4 -2 2 275.67 2.5
-3 -2 2 1260.67 5.9
3 2 -2 1231.18 5.3
3 2 -2 1327.27 6.7
-3 -2 2 1324.97 5.6
2 2 -2 1493.45 6.3
-2 -2 2 1528.55 6.5
2 2 -2 1547.55 8.6
-2 -2 2 1449.85 7.3
1 2 -2 600.84 4.5
1 2 -2 643.34 7.5
-1 -2 2 650.53 4.9
-1 -2 2 632.04 6.4
0 2 -2 2004.7 23.7
0 2 -2 1960.1 9.1
0 -2 2 1967.3 9.2
0 2 -2 1785.32 25.5
1 -2 2 443.26 6.1
-1 2 -2 486.45 5.6
-1 2 -2 480.05 6.9
1 -2 2 462.25 5.6
2 -2 2 2794.52 18.7
-2 2 -2 3018 19.4
-2 2 -2 2772.32 11
2 -2 2 2907.21 11.5
-3 2 -2 219.88 2.8
3 -2 2 229.68 2.8
-4 2 -2 2581.44 7.7
4 -2 2 2400.36 7.5
5 -2 2 75.69 3.1
-5 2 -2 79.49 1.5
-5 2 -2 71.59 2.9
5 -2 2 79.69 1.7
-6 2 -2 1132.89 8.3
6 -2 2 1097.69 4.5
-6 2 -2 1251.67 4.7
6 -2 2 1169.48 8.3
-7 2 -2 93.59 1.7
7 -2 2 76.99 1.6
7 -2 2 82.99 2.3
-7 2 -2 83.59 2.4
8 -2 2 498.95 5.6
8 -2 2 547.45 3.6
-8 2 -2 663.73 5.9
-8 2 -2 672.53 3.6
-9 2 -2 87.79 2.9
9 -2 2 87.09 2.6
9 -2 2 84.59 1.9
-9 2 -2 97.59 1.8
-8 -1 2 37.5 1.7
8 1 -2 35.8 1.6
-8 -1 2 38 1.6
8 1 -2 35.1 1.4
-7 -1 2 618.94 4.1
7 1 -2 535.05 3.5
7 1 -2 517.45 3.4
-7 -1 2 611.34 3.7
6 1 -2 36.2 1.6
6 1 -2 33.1 1.3
-6 -1 2 38.9 1.7
-6 -1 2 38.3 1.5
-5 -1 2 1186.48 5.1
5 1 -2 1050.49 4.5
5 1 -2 1126.69 4.9
-5 -1 2 1115.69 4.7
-4 -1 2 32.2 1.4
4 1 -2 27.8 1.3
-4 -1 2 28 1.2
4 1 -2 30.6 1.3
-3 -1 2 1649.23 6.3
3 1 -2 1550.14 6.1
3 1 -2 1618.54 6.6
-3 -1 2 1665.13 6.4
-2 -1 2 191.58 2.7
2 1 -2 187.48 2.9
-2 -1 2 208.18 2.8
2 1 -2 203.58 2.8
-1 -1 2 2735.03 10.4
1 1 -2 2792.32 11.6
1 1 -2 2604.84 10.1
0 1 -2 1488.65 9.1
0 -1 2 1598.94 9.1
0 1 -2 1503.55 10.5
0 -1 2 1476.15 10.2
1 -1 2 5135.59 20
-1 1 -2 5015.8 20.6
-1 1 -2 4967.2 18.5
1 -1 2 4951.6 17.6
-2 1 -2 2943.01 11.5
-2 1 -2 2407.56 21.6
2 -1 2 2717.03 11
3 -1 2 2605.84 9.1
-3 1 -2 2562.04 9
-3 1 -2 2373.86 20.2
-4 1 -2 1725.83 6.5
4 -1 2 1703.23 6.4
4 -1 2 1559.54 10.6
-4 1 -2 1714.73 11.7
-5 1 -2 1074.49 8.1
5 -1 2 1029.6 4.7
5 -1 2 985.4 7.1
-5 1 -2 1066.59 4.8
6 -1 2 762.02 5.6
-6 1 -2 846.62 6.3
6 -1 2 768.82 3.8
-6 1 -2 828.62 3.9
7 -1 2 131.09 2.6
-7 1 -2 142.59 2.1
7 -1 2 155.98 2.2
-7 1 -2 144.09 3
8 -1 2 422.36 4.5
-8 1 -2 519.05 4.9
8 -1 2 441.36 3
-8 1 -2 497.45 3.1
9 -1 2 5.8 1
-9 1 -2 7.2 1.1
9 -1 2 8.8 1.6
-9 1 -2 7.5 1.6
8 0 -2 215.48 2.7
-8 0 2 -59.29 2.8
8 0 -2 265.37 3
-8 0 2 290.87 3.4
-7 0 2 203.28 2.4
-7 0 2 180.28 2.5
7 0 -2 161.48 2.3
7 0 -2 170.38 2.3
-6 0 2 277.87 2.8
6 0 -2 266.77 2.6
6 0 -2 274.57 2.7
-6 0 2 293.37 2.4
5 0 -2 874.61 4.5
-5 0 2 930.01 4.7
5 0 -2 946.01 4.2
-5 0 2 934.01 4
-4 0 2 141.39 2
4 0 -2 134.19 2
4 0 -2 152.88 2.1
-4 0 2 136.09 2.1
-3 0 2 2393.56 7.2
3 0 -2 2314.17 7.2
3 0 -2 2199.68 7.6
-3 0 2 2243.08 7.8
-2 0 2 324.17 3.5
2 0 -2 314.97 3.2
2 0 -2 326.67 3.6
-2 0 2 338.87 3.2
1 0 -2 7573.94 17
1 0 -2 9999 18.5
1 0 -2 9111.89 19.2
-1 0 2 9628.94 19.9
0 0 2 59.09 2.1
0 0 -2 60.79 2.6
0 0 -2 66.29 2
0 0 2 59.69 2.1
1 0 2 5445.76 15.6
-1 0 -2 5451.65 15.7
1 0 2 5202.78 17.3
-1 0 -2 5000.3 17.5
-2 0 -2 21.3 1.9
-2 0 -2 15.9 1.7
-2 0 -2 21.7 1.9
2 0 2 17.4 1.5
3 0 2 2809.82 12.8
-3 0 -2 3461.45 14.7
-3 0 -2 3470.25 10.4
3 0 2 3259.47 10
4 0 2 649.34 4.2
4 0 2 585.14 5.2
-4 0 -2 665.23 4.4
-4 0 -2 663.43 5.7
5 0 2 1045.1 4.9
-5 0 -2 1099.89 6.8
5 0 2 994.2 6
-5 0 -2 1053.69 4.9
6 0 2 567.74 4.4
-6 0 -2 578.04 3.3
6 0 2 573.44 3.5
-6 0 -2 678.53 5
7 0 2 328.47 3.3
7 0 2 344.17 2.7
-7 0 -2 349.87 2.7
-7 0 -2 410.76 3.9
8 0 2 298.17 3.4
-8 0 -2 333.77 2.8
-8 0 -2 394.86 3.9
8 0 2 306.67 2.8
9 0 2 278.47 3.1
-9 0 -2 324.57 3.6
9 0 2 224.08 2.8
-9 0 -2 271.47 2.8
-8 1 2 424.66 3.2
8 -1 -2 358.66 2.9
8 -1 -2 390.06 3.5
-8 1 2 451.95 3.8
-7 1 2 17.7 2.1
-7 1 2 100.39 1.9
7 -1 -2 99.49 1.7
7 -1 -2 102.69 1.8
-6 1 2 785.02 3.8
6 -1 -2 789.32 3.8
6 -1 -2 686.93 4.1
-6 1 2 724.33 4.3
5 -1 -2 724.03 4.3
5 -1 -2 649.74 3.4
-5 1 2 681.23 4.3
-5 1 2 684.13 3.5
-4 1 2 1007.8 4.2
-4 1 2 940.61 5
4 -1 -2 953 4.2
4 -1 -2 991.9 5
3 -1 -2 2349.67 7.9
-3 1 2 2448.16 8.3
3 -1 -2 2478.15 7.1
-3 1 2 2649.93 7.2
2 -1 -2 1281.77 5.6
2 -1 -2 1204.58 6.2
-2 1 2 1266.47 6.4
-2 1 2 1324.07 5.6
1 -1 -2 3148.98 9.5
1 -1 -2 2702.23 9.7
1 -1 -2 3143.79 9.5
-1 1 2 2843.32 10.2
0 1 2 28.3 1.8
0 1 2 23.3 1.6
0 -1 -2 24.3 1.6
0 -1 -2 28.2 1.8
1 1 2 278.17 3.4
-1 -1 -2 278.77 3.4
1 1 2 305.17 3.8
-1 -1 -2 292.47 3.6
-2 -1 -2 220.78 3.1
-2 -1 -2 237.28 3.5
2 1 2 215.18 3.1
-2 -1 -2 187.48 3.1
3 1 2 4235.68 10.9
-3 -1 -2 4125.29 10.8
3 1 2 3573.04 11.8
-3 -1 -2 3952.2 12.5
4 1 2 15.2 1.6
-4 -1 -2 18 1.7
4 1 2 15.3 1.7
-4 -1 -2 14.9 1.7
5 1 2 1527.65 6.7
-5 -1 -2 1619.54 6
5 1 2 1622.94 6.1
-5 -1 -2 1814.82 7.5
6 1 2 26.7 1.6
-6 -1 -2 38.9 1.8
-6 -1 -2 31.5 1.4
6 1 2 26.9 1.4
7 1 2 941.81 5
-7 -1 -2 1037.7 5.5
7 1 2 953.4 4.5
-7 -1 -2 925.01 4.2
8 1 2 17.7 1.6
-8 -1 -2 15.1 1.5
8 1 2 18 1.2
-8 -1 -2 20.4 1.5
9 1 2 429.56 3.7
-9 -1 -2 447.26 3.2
-9 -1 -2 497.25 4
9 1 2 399.66 3.2
-8 2 2 460.95 3.4
8 -2 -2 377.96 3.6
-8 2 2 389.56 3.8
8 -2 -2 387.56 3.1
7 -2 -2 1.7 1.3
7 -2 -2 0.1 1
-7 2 2 1.9 1.3
-7 2 2 1.8 1
-6 2 2 1038.7 4.4
-6 2 2 976.7 5.1
6 -2 -2 1020.4 5.2
6 -2 -2 922.71 4.2
-5 2 2 9 0.9
-5 2 2 5.5 1.4
5 -2 -2 6.9 1.1
5 -2 -2 11.8 1.4
4 -2 -2 1854.71 6.8
-4 2 2 1932.61 5.6
-4 2 2 1777.32 6.7
4 -2 -2 1818.92 5.6
-3 2 2 35.8 1.1
3 -2 -2 31.4 1.7
3 -2 -2 37.5 1.4
-3 2 2 35.2 1.7
-2 2 2 1772.92 7.2
2 -2 -2 1803.62 6.1
2 -2 -2 1644.74 6.7
2 -2 -2 1835.82 6.1
1 -2 -2 197.78 2.7
1 -2 -2 177.18 2.2
-1 2 2 186.78 2.7
1 -2 -2 194.38 2.3
0 2 2 93.39 2
0 -2 -2 81.29 1.7
0 2 2 86.29 1.8
0 -2 -2 92.09 1.9
1 2 2 1103.49 5.7
-1 -2 -2 1107.79 5.8
1 2 2 1180.28 6.3
-1 -2 -2 1181.18 6.3
-2 -2 -2 482.95 4.1
-2 -2 -2 526.75 4.1
2 2 2 526.15 4
3 2 2 1970.9 7.1
-3 -2 -2 2072.99 7.9
3 2 2 1976.7 7.5
-3 -2 -2 2123.49 7.5
4 2 2 333.87 2.9
-4 -2 -2 347.67 3.2
-4 -2 -2 318.17 2.9
4 2 2 314.47 3
5 2 2 980.5 4.8
5 2 2 1061.49 4.8
-5 -2 -2 1040.9 4.7
-5 -2 -2 1090.69 5.2
-6 -2 -2 515.05 3.3
6 2 2 448.76 3.4
6 2 2 504.05 3.3
-6 -2 -2 513.95 3.8
7 2 2 855.41 4.2
-7 -2 -2 879.41 4.2
-7 -2 -2 903.21 4.9
7 2 2 796.52 4.4
8 2 2 125.89 2.1
-8 -2 -2 68.29 2.6
8 2 2 131.39 2.2
-8 -2 -2 133.79 1.9
9 2 2 433.46 3.5
-9 -2 -2 436.96 3.3
-9 -2 -2 492.95 4
9 2 2 380.06 3.1
-8 3 2 231.58 2.6
8 -3 -2 221.08 3.1
8 -3 -2 208.58 2.8
-8 3 2 231.78 3.2
-7 3 2 362.96 2.8
7 -3 -2 -4.1 2.9
7 -3 -2 289.67 3.4
-7 3 2 357.76 3.4
-6 3 2 498.45 3.1
6 -3 -2 499.45 3.1
6 -3 -2 510.05 4
-6 3 2 494.95 3.8
-5 3 2 348.37 2.6
-5 3 2 331.57 3.1
5 -3 -2 317.67 2.5
5 -3 -2 342.77 3.2
-4 3 2 1061.29 5.2
4 -3 -2 1112.79 5.3
-4 3 2 1107.79 4.3
4 -3 -2 1020.3 4
3 -3 -2 288.47 2.8
-3 3 2 313.37 3.1
3 -3 -2 283.47 2.3
2 -3 -2 2192.18 6.3
-2 3 2 2249.68 7.6
2 -3 -2 2208.78 6.4
2 -3 -2 2258.47 7.4
1 -3 -2 68.39 1.7
1 -3 -2 58.29 1.6
-1 3 2 63.69 1.8
0 -3 -2 3252.97 8.8
0 -3 -2 3133.69 8.3
0 3 2 3119.19 8.8
0 3 2 2954.6 8.1
1 3 2 63.39 1.5
-1 -3 -2 68.79 1.7
-1 -3 -2 60.79 1.8
-1 -3 -2 68.49 1.7
-2 -3 -2 4082.09 9.9
2 3 2 4280.47 10
-2 -3 -2 4389.06 10.3
3 3 2 306.57 3
-3 -3 -2 284.87 2.8
3 3 2 285.07 3
-3 -3 -2 306.97 2.9
4 3 2 2244.18 7.1
-4 -3 -2 2291.67 7.1
-4 -3 -2 2385.96 7.4
4 3 2 2275.97 7.2
-5 -3 -2 333.87 2.8
-5 -3 -2 353.46 3
5 3 2 321.67 2.9
5 3 2 352.46 2.9
-6 -3 -2 1183.28 5.1
6 3 2 1156.88 4.7
6 3 2 993.7 4.5
-6 -3 -2 1104.39 4.7
7 3 2 380.06 2.9
7 3 2 420.56 3.1
-7 -3 -2 447.26 3.3
-7 -3 -2 419.46 3.2
8 3 2 203.58 2.5
8 3 2 224.38 2.5
-8 -3 -2 201.78 2.3
-8 -3 -2 231.98 2.6
9 3 2 336.87 3.2
9 3 2 352.86 3.3
-9 -3 -2 354.66 3.2
-9 -3 -2 416.86 3.9
-8 4 2 26.6 1.6
-8 4 2 27.5 1.7
8 -4 -2 27.8 1.8
8 -4 -2 31.8 1.5
-7 4 2 449.06 3.3
7 -4 -2 410.56 3
-7 4 2 447.36 3.9
7 -4 -2 433.76 3.8
6 -4 -2 226.18 2.9
6 -4 -2 227.38 2.2
-6 4 2 254.97 2.4
-6 4 2 236.08 2.7
5 -4 -2 372.16 3.4
5 -4 -2 339.67 2.7
-5 4 2 369.86 3.3
4 -4 -2 516.35 3.7
-4 4 2 503.85 3.6
4 -4 -2 504.35 2.9
3 -4 -2 466.55 3.3
3 -4 -2 436.96 2.7
3 -4 -2 455.75 2.8
-3 4 2 479.05 3.5
2 -4 -2 1440.16 5.1
-2 4 2 1452.45 5.9
2 -4 -2 1434.76 5
2 -4 -2 1420.06 5.6
1 -4 -2 494.15 3.1
-1 4 2 519.65 3.7
1 -4 -2 495.35 3.2
1 -4 -2 533.65 3.4
0 -4 -2 3317.97 8.3
0 -4 -2 3225.48 7.9
0 4 2 3044.9 7.8
-1 -4 -2 234.18 2.7
1 4 2 251.57 2.4
-1 -4 -2 257.17 2.6
-1 -4 -2 260.37 2.5
-2 -4 -2 2940.51 8
-2 -4 -2 3049.5 8.1
2 4 2 3024.6 8
3 4 2 40.8 1.5
3 4 2 42 1.3
-3 -4 -2 38.4 1.3
-3 -4 -2 38.8 1.6
4 4 2 1577.34 5.8
4 4 2 1489.55 5.6
-4 -4 -2 1492.15 5.5
-4 -4 -2 1592.04 6
5 4 2 2.9 1
5 4 2 2.6 1.3
-5 -4 -2 12 1.1
-5 -4 -2 13.8 1.5
-6 -4 -2 427.76 3.2
6 4 2 445.56 3.2
6 4 2 397.26 3.2
-6 -4 -2 439.06 3.2
-7 -4 -2 82.49 1.9
7 4 2 86.69 1.8
-7 -4 -2 84.69 1.9
7 4 2 68.69 1.8
8 4 2 238.38 2.6
-8 -4 -2 251.57 2.8
8 4 2 287.07 2.8
-8 -4 -2 272.37 2.7
9 4 2 65.59 1.9
-9 -4 -2 65.79 1.8
9 4 2 60.59 1.6
-9 -4 -2 74.39 1.8
7 -5 -2 347.37 3
7 -5 -2 -12.7 4
-7 5 2 362.56 4.2
6 -5 -2 49.99 1.4
6 -5 -2 51.79 1.8
6 -5 -2 46.8 1.4
-6 5 2 53.19 1.7
5 -5 -2 826.32 3.9
-5 5 2 966.6 5.1
5 -5 -2 811.82 3.8
5 -5 -2 888.81 5.1
-4 5 2 62.39 1.7
4 -5 -2 60.39 1.5
4 -5 -2 63.59 1.3
4 -5 -2 57.69 1.7
3 -5 -2 1774.12 5.2
3 -5 -2 1750.82 6.1
-3 5 2 1899.71 6.6
3 -5 -2 1785.92 5.2
2 -5 -2 433.26 2.7
2 -5 -2 419.66 2.9
2 -5 -2 414.16 2.8
-2 5 2 448.36 3.4
1 -5 -2 2305.67 6.7
1 -5 -2 2326.27 6.4
1 -5 -2 2063.19 5.9
0 -5 -2 650.43 3.5
0 -5 -2 611.64 3.7
0 -5 -2 697.23 3.7
0 5 2 710.33 3.7
-1 -5 -2 870.21 4.3
1 5 2 864.31 4.2
-1 -5 -2 920.91 4.3
-1 -5 -2 959.6 4.4
-2 -5 -2 266.47 2.4
-2 -5 -2 296.47 2.7
2 5 2 285.27 2.6
3 5 2 742.03 3.8
-3 -5 -2 745.33 3.8
3 5 2 795.32 4
-3 -5 -2 773.92 4.1
4 5 2 623.04 3.5
-4 -5 -2 661.13 4
4 5 2 671.33 3.8
-4 -5 -2 659.53 3.5
5 5 2 14.9 1
5 5 2 11.3 1.3
-5 -5 -2 14.3 1.3
-5 -5 -2 14.4 1.4
-6 -5 -2 490.55 3.4
6 5 2 556.04 3.7
-6 -5 -2 531.85 3.3
6 5 2 507.15 3.2
-7 -5 -2 24.3 1.3
7 5 2 21 1.4
7 5 2 22.7 1.6
-7 -5 -2 20.6 1.3
-8 -5 -2 442.56 3.7
8 5 2 484.05 3.9
8 5 2 428.96 3.3
-8 -5 -2 475.15 3.6
7 -6 -2 324.27 3.1
-7 6 2 388.66 4.4
7 -6 -2 310.07 3
7 -6 -2 354.46 4.4
6 -6 -2 78.29 2
6 -6 -2 77.99 1.6
-6 6 2 95.19 2.1
6 -6 -2 78.79 1.7
-5 6 2 610.94 4.3
5 -6 -2 569.54 3.4
5 -6 -2 556.24 4.1
5 -6 -2 586.24 3.5
-4 6 2 221.48 2.6
4 -6 -2 186.18 2.3
4 -6 -2 193.08 2.2
4 -6 -2 185.08 2.2
3 -6 -2 1844.12 6.3
3 -6 -2 1753.12 5.3
3 -6 -2 1852.81 5.5
-3 6 2 2008.3 6.9
2 -6 -2 5.4 0.9
2 -6 -2 1.1 1.2
2 -6 -2 4.7 1.2
1 -6 -2 1507.05 5.1
1 -6 -2 1458.05 5
1 -6 -2 1583.64 5.4
1 -6 -2 1421.46 5.4
0 6 2 1.9 0.8
0 -6 -2 1.4 0.9
0 -6 -2 2.8 1.3
0 -6 -2 3 0.8
-1 -6 -2 1488.05 5.4
-1 -6 -2 1384.36 5.1
-1 -6 -2 1475.45 5.1
1 6 2 1400.06 5.2
-2 -6 -2 17 0.9
2 6 2 18.9 1.2
-2 -6 -2 18.9 1
-2 -6 -2 22.5 1.3
3 6 2 1353.66 4.9
-3 -6 -2 1374.36 5
-3 -6 -2 1434.06 5.6
3 6 2 1366.06 5.2
-4 -6 -2 653.23 4.1
4 6 2 630.34 3.8
-4 -6 -2 641.84 3.6
4 6 2 642.34 3.6
5 6 2 410.86 3
5 6 2 404.16 3.1
-5 -6 -2 412.26 3
-5 -6 -2 410.96 3.2
6 6 2 351.66 2.9
-6 -6 -2 387.36 3.1
-6 -6 -2 388.76 3.1
6 6 2 404.46 3.2
7 6 2 479.75 3.7
7 6 2 443.36 3.3
-7 -6 -2 456.15 3.3
-7 -6 -2 496.85 3.7
-8 -6 -2 244.98 2.9
8 6 2 202.78 2.6
8 6 2 244.28 3
-8 -6 -2 207.08 2.7
-6 7 2 292.57 3.7
6 -7 -2 267.87 3.7
6 -7 -2 250.97 2.5
6 -7 -2 247.28 2.5
5 -7 -2 87.09 2
5 -7 -2 79.59 1.6
-5 7 2 96.99 2.1
5 -7 -2 82.59 1.7
4 -7 -2 473.35 3
4 -7 -2 471.95 3
4 -7 -2 488.85 3.7
3 -7 -2 419.06 2.9
3 -7 -2 366.66 3.2
3 -7 -2 419.16 2.8
3 -7 -2 446.86 3.3
2 -7 -2 165.48 2
2 -7 -2 189.38 2.2
2 -7 -2 173.58 2
2 -7 -2 175.28 1.9
1 -7 -2 492.95 3.1
1 -7 -2 457.55 3.3
1 -7 -2 436.46 2.8
1 -7 -2 488.15 3
0 -7 -2 70.39 1.5
0 -7 -2 67.69 1.7
0 -7 -2 71.49 1.4
1 7 2 1064.89 4.6
-1 -7 -2 1069.29 4.4
-1 -7 -2 1152.98 4.4
-1 -7 -2 1091.29 4.6
-2 -7 -2 3.3 0.9
-2 -7 -2 4.6 1.2
-2 -7 -2 8.5 1.3
2 7 2 11 1.1
3 7 2 995 4.7
-3 -7 -2 999.1 4.3
-3 -7 -2 1030.3 4.9
4 7 2 4.1 1.1
-4 -7 -2 7.7 1.3
4 7 2 3.4 0.9
-4 -7 -2 14.3 1.1
5 7 2 927.31 4.3
-5 -7 -2 1020.4 4.6
-5 -7 -2 -58.49 5.6
5 7 2 944.21 4.7
6 7 2 23.8 1.3
6 7 2 23.7 1.6
-6 -7 -2 24.8 1.6
-6 -7 -2 23.8 1.4
7 7 2 496.35 4.2
-7 -7 -2 461.35 3.4
-7 -7 -2 515.65 4.2
7 7 2 439.56 3.3
5 -8 -2 1.5 1.3
5 -8 -2 9.8 1.4
5 -8 -2 9.5 1.3
5 -8 -2 10.6 1.4
4 -8 -2 256.97 2.4
4 -8 -2 274.07 2.7
4 -8 -2 270.67 2.6
4 -8 -2 241.98 2.8
3 -8 -2 46 1.5
3 -8 -2 37.9 1.5
3 -8 -2 40.2 1.4
3 -8 -2 1.3 1.6
2 -8 -2 429.26 2.9
2 -8 -2 457.15 2.9
2 -8 -2 408.56 3.2
2 -8 -2 469.55 3.2
1 -8 -2 -46 3.3
1 -8 -2 339.47 2.8
1 -8 -2 377.56 2.7
1 -8 -2 335.87 2.7
0 -8 -2 575.64 3.6
0 -8 -2 545.35 3.6
0 -8 -2 546.25 3.4
0 -8 -2 563.44 3.4
-1 -8 -2 515.95 3.1
-1 -8 -2 485.45 3.2
-1 -8 -2 505.15 3.3
1 8 2 499.35 3.4
-2 -8 -2 508.65 3.5
-2 -8 -2 519.25 3.2
-2 -8 -2 563.34 3.4
2 8 2 486.45 3.5
-3 -8 -2 459.65 3.5
-3 -8 -2 426.56 3.2
-3 -8 -2 471.25 3.2
3 8 2 441.46 3.4
4 8 2 310.27 3
4 8 2 336.87 2.7
-4 -8 -2 346.37 2.9
-4 -8 -2 334.77 3.3
5 8 2 376.96 3.3
-5 -8 -2 410.56 3.1
5 8 2 370.56 3.1
-5 -8 -2 177.98 3.7
6 8 2 58.99 1.9
6 8 2 50.49 1.7
-6 -8 -2 57.09 1.9
-6 -8 -2 40.8 1.9
4 -9 -2 148.49 2.2
4 -9 -2 138.89 2.5
4 -9 -2 170.68 2.5
4 -9 -2 151.78 2.2
3 -9 -2 9.5 1.3
3 -9 -2 9 1.2
3 -9 -2 9.6 1.2
3 -9 -2 10 1.4
2 -9 -2 704.23 3.9
2 -9 -2 721.63 4
2 -9 -2 797.42 4.2
2 -9 -2 706.93 4.3
1 -9 -2 6 1.1
1 -9 -2 6.7 1.1
1 -9 -2 7.3 1.2
1 -9 -2 1.9 1.4
0 -9 -2 777.02 4.2
0 -9 -2 764.92 4
0 -9 -2 800.72 4.4
0 -9 -2 795.92 4.1
-1 -9 -2 2.3 1
-1 -9 -2 4.4 1.2
-1 -9 -2 4 1.3
2 9 2 719.83 4.4
-2 -9 -2 600.34 4
-2 -9 -2 675.43 4.3
-2 -9 -2 679.93 4
-3 -9 -2 67.99 1.7
-3 -9 -2 77.79 1.9
-3 -9 -2 77.19 1.9
3 9 2 77.39 1.8
-4 -9 -2 242.78 2.7
4 9 2 241.88 3
-4 -9 -2 162.38 3.3
5 9 2 78.29 2.1
-5 -9 -2 88.19 1.8
-5 -9 -2 -1.6 2.4
3 -10 -2 147.39 2.3
3 -10 -2 123.69 2.2
3 -10 -2 140.89 2.2
3 -10 -2 126.49 2.1
2 -10 -2 212.38 2.5
2 -10 -2 214.88 2.9
2 -10 -2 216.88 2.5
2 -10 -2 215.68 2.7
1 -10 -2 122.69 2.2
1 -10 -2 126.39 2.2
1 -10 -2 120.39 2.1
1 -10 -2 138.39 2.2
0 -10 -2 114.49 1.9
0 -10 -2 124.19 2.1
0 -10 -2 123.99 2
0 -10 -2 123.19 2
-1 -10 -2 57.39 1.8
-1 -10 -2 61.99 1.9
-1 -10 -2 53.59 1.5
-1 -10 -2 55.89 1.5
-2 -10 -2 251.17 2.7
2 10 2 245.88 3.2
-2 -10 -2 248.38 3.1
-2 -10 -2 235.08 2.5
-3 -10 -2 0.1 1.4
3 10 2 0.8 1.3
-3 -10 -2 0.6 1.4
-3 -10 -2 -0.5 1.4
-4 -10 -2 244.68 2.8
-4 -10 -2 248.18 2.9
-4 -10 -2 252.87 3.6
4 10 2 232.78 3.3
0 10 -3 76.99 1.8
0 -10 3 80.19 2.1
1 -10 3 373.06 3.6
2 -10 3 59.79 3.6
2 -10 3 54.79 3.8
2 -10 3 55.99 2
2 -10 3 64.19 2
3 -10 3 343.27 4.6
3 -10 3 167.78 3.8
3 -10 3 246.48 5.5
3 -10 3 285.97 4.1
3 9 -3 48.2 1.8
-3 -9 3 58.09 1.8
2 9 -3 516.65 4
-2 -9 3 464.25 3.8
1 9 -3 111.09 2
-1 -9 3 103.29 1.9
0 9 -3 443.46 3.6
0 -9 3 437.16 3.5
-1 9 -3 212.18 2.7
1 -9 3 235.18 2.8
2 -9 3 175.78 4.4
2 -9 3 151.78 2.3
2 -9 3 168.68 3.6
2 -9 3 190.58 2.5
3 -9 3 69.49 3
3 -9 3 168.38 3.4
3 -9 3 165.98 2.8
3 -9 3 177.58 2.7
4 -9 3 54.09 1.8
4 -9 3 57.89 2.3
4 -9 3 57.89 2.1
4 -9 3 67.79 2.1
5 -9 3 214.48 2.8
5 -9 3 222.38 4.7
5 -9 3 236.78 5.4
5 -9 3 231.48 3.2
4 8 -3 390.36 3.4
-4 -8 3 398.96 3.5
3 8 -3 -0.2 1.4
-3 -8 3 29.5 1.4
2 8 -3 565.14 3.8
-2 -8 3 569.04 3.8
1 8 -3 6.5 1.2
-1 -8 3 3.4 1.5
0 -8 3 529.35 3.7
0 8 -3 547.35 3.6
-1 8 -3 9.6 1
1 -8 3 4.3 1.4
2 -8 3 554.34 5
2 -8 3 526.35 3.9
2 -8 3 627.64 6.3
3 -8 3 103.49 2.1
3 -8 3 89.69 2.1
3 -8 3 89.49 2.3
3 -8 3 89.59 2.6
4 -8 3 304.57 3.4
4 -8 3 291.67 3.2
4 -8 3 359.16 4.3
4 -8 3 390.96 4.1
5 -8 3 268.97 2.9
5 -8 3 352.06 5.6
5 -8 3 273.67 3
5 -8 3 337.17 5.1
6 -8 3 171.08 2.4
5 7 -3 248.38 4.6
-5 -7 3 257.57 3
5 7 -3 178.78 2.9
4 7 -3 99.49 3.8
4 7 -3 108.69 4
4 7 -3 104.29 2.2
-4 -7 3 122.09 2.3
3 7 -3 248.18 2.7
-3 -7 3 249.88 3
-2 -7 3 249.78 2.5
2 7 -3 266.67 2.5
1 7 -3 163.98 2.3
-1 -7 3 152.18 2.3
0 7 -3 421.86 3.2
0 -7 3 413.26 3.3
1 -7 3 250.17 2.8
-1 7 -3 261.07 2.8
-2 7 -3 1046.7 5.2
2 -7 3 1038.4 6.2
2 -7 3 1026.6 5.5
2 -7 3 1102.49 7.7
3 -7 3 4.6 1.3
3 -7 3 5.7 1.5
3 -7 3 5.6 1.5
3 -7 3 1 1.3
4 -7 3 1083.69 6.8
4 -7 3 887.51 5.2
4 -7 3 1012.1 7.2
5 -7 3 15 1.4
5 -7 3 11.2 2.1
-5 7 -3 12.1 1.3
5 -7 3 11.8 2.4
6 -7 3 774.42 4.4
-6 7 -3 906.01 4.7
-7 7 -3 4.3 1.6
7 -7 3 4.4 1.1
-6 -6 3 4.3 1.7
6 6 -3 3.1 1.2
6 6 -3 3.6 1.5
-6 -6 3 4 1.3
-5 -6 3 494.95 4.8
5 6 -3 488.15 3.5
5 6 -3 523.55 5.3
-5 -6 3 535.55 3.8
-4 -6 3 35.2 1.8
4 6 -3 32.8 1.6
4 6 -3 33 1.9
-4 -6 3 16.5 1.7
3 6 -3 685.43 8
3 6 -3 720.93 8.1
-3 -6 3 662.33 4.1
3 6 -3 639.04 3.9
2 6 -3 254.57 2.6
-2 -6 3 239.38 2.4
1 6 -3 1023.5 4.7
-1 -6 3 985.7 4.5
0 6 -3 591.74 3.9
0 -6 3 545.65 3.7
1 -6 3 872.51 10
1 -6 3 806.02 4.6
1 -6 3 777.02 10.8
-1 6 -3 867.81 4.7
-2 6 -3 1141.49 5.6
2 -6 3 1175.38 6.5
2 -6 3 1173.58 5.9
2 -6 3 1314.47 8
3 -6 3 622.84 4.7
3 -6 3 554.44 4.4
3 -6 3 551.84 4.7
-3 6 -3 591.54 4.2
-4 6 -3 862.01 4.9
4 -6 3 757.32 4.7
4 -6 3 944.11 6.7
4 -6 3 887.91 7.3
-5 6 -3 -32.8 3.8
5 -6 3 404.16 3.3
-6 6 -3 816.72 4.3
6 -6 3 709.63 4.1
-7 6 -3 14 1.5
7 -6 3 11.8 1.1
-8 6 -3 298.07 2.8
8 -6 3 251.97 2.8
7 5 -3 148.79 2.3
7 5 -3 158.78 2.9
-7 -5 3 159.78 2.6
-7 -5 3 158.08 2.5
-6 -5 3 18.4 1.6
6 5 -3 30.8 1.4
6 5 -3 31.5 1.8
-6 -5 3 34.6 1.7
5 5 -3 384.96 3.1
-5 -5 3 406.46 3.3
5 5 -3 356.26 4.1
-5 -5 3 -15.7 4.1
4 5 -3 4.4 1.5
-4 -5 3 5 1.5
-4 -5 3 4 1.5
4 5 -3 6.3 1
-3 -5 3 1362.36 5.4
3 5 -3 1318.17 8.2
3 5 -3 1258.57 5
-3 -5 3 1360.46 7.9
2 5 -3 31.9 3.8
2 5 -3 24.5 3.7
2 5 -3 30.7 1.2
-2 -5 3 28.1 1.4
1 5 -3 2778.62 7.5
-1 -5 3 2857.11 7.8
0 5 -3 235.48 2.5
0 -5 3 220.58 2.7
1 -5 3 2283.77 14.2
-1 5 -3 2515.75 8.2
1 -5 3 2319.97 8.1
1 -5 3 2120.19 15.7
-2 5 -3 289.87 3.6
2 -5 3 299.87 4.2
2 -5 3 272.17 3.3
-2 5 -3 277.37 3.2
3 -5 3 1158.18 6.2
3 -5 3 1224.28 7.5
-3 5 -3 1291.77 6.2
4 -5 3 184.68 4.4
4 -5 3 161.58 2.4
4 -5 3 183.88 4
-4 5 -3 195.78 2.5
5 -5 3 343.07 2.9
-5 5 -3 391.96 3.1
6 -5 3 260.47 2.5
-6 5 -3 303.87 2.7
7 -5 3 126.59 2
-7 5 -3 156.88 2.1
8 -5 3 -47.7 2.9
-8 5 -3 339.27 2.9
-7 -4 3 85.49 2
-7 -4 3 74.79 1.9
7 4 -3 68.79 1.8
7 4 -3 76.89 2.2
-6 -4 3 196.08 2.4
-6 -4 3 -44.9 2.4
6 4 -3 3.4 2.8
6 4 -3 156.58 2.5
5 4 -3 280.17 2.8
-5 -4 3 -24 3.2
5 4 -3 281.37 3.4
-5 -4 3 310.07 2.7
-4 -4 3 322.37 3.6
4 4 -3 434.16 4.1
4 4 -3 428.16 3.3
-4 -4 3 452.35 3.2
-3 -4 3 1210.28 6.4
-3 -4 3 1269.47 5
3 4 -3 1206.68 7.5
3 4 -3 1244.98 5
2 4 -3 607.24 3.7
-2 -4 3 626.84 3.8
2 4 -3 562.94 6.4
2 4 -3 584.94 5.9
-1 -4 3 1081.29 5.1
1 4 -3 1051.49 4.9
0 4 -3 407.76 3.5
0 -4 3 378.96 3.3
-1 4 -3 1458.25 6.8
1 -4 3 1355.96 6.6
1 -4 3 1285.47 10.8
2 -4 3 173.78 3.2
-2 4 -3 174.78 2.9
2 -4 3 164.98 2.9
-2 4 -3 175.78 3
-3 4 -3 1318.57 8.4
3 -4 3 1396.46 6.8
3 -4 3 1388.56 9.3
-3 4 -3 1451.35 6.7
4 -4 3 12.1 1.5
-4 4 -3 7 1.5
5 -4 3 1249.28 5.4
-5 4 -3 1309.37 5.2
6 -4 3 19.1 1.6
-6 4 -3 10.2 1.1
7 -4 3 941.91 4.4
-7 4 -3 1091.29 4.5
8 -4 3 89.89 1.8
-8 4 -3 101.19 1.7
9 -4 3 336.37 2.9
-9 4 -3 -65.69 2.5
-7 -3 3 15.9 1.3
-7 -3 3 9.9 1.4
7 3 -3 12.9 1.6
7 3 -3 12.1 1.5
-6 -3 3 -43.9 4.1
-6 -3 3 685.33 4.1
6 3 -3 610.24 3.8
6 3 -3 331.97 4.3
-5 -3 3 137.59 2.2
-5 -3 3 164.38 2.2
5 3 -3 142.19 1.9
5 3 -3 154.68 2.5
4 3 -3 1994.6 7.9
-4 -3 3 1746.33 6.6
4 3 -3 1792.02 6
-4 -3 3 1918.61 6.3
-3 -3 3 232.08 2.8
3 3 -3 245.48 3.2
-3 -3 3 239.48 2.4
3 3 -3 224.88 2.4
2 3 -3 1255.97 5.4
2 3 -3 1414.56 8.5
-2 -3 3 1324.87 5.5
1 3 -3 174.18 4
1 3 -3 198.18 2.5
1 3 -3 201.88 5.2
-1 -3 3 192.48 2.7
0 3 -3 1191.28 6
0 -3 3 1167.38 5.9
1 -3 3 1018.6 8.4
-1 3 -3 1124.39 6.5
-1 3 -3 1111.89 10.3
1 -3 3 1066.69 6.3
2 -3 3 860.31 6.3
-2 3 -3 965.4 7.2
-2 3 -3 875.91 6.4
2 -3 3 909.01 6.8
-3 3 -3 4061.69 11.2
-3 3 -3 3118.09 17.3
3 -3 3 3554.54 19.1
3 -3 3 4302.57 11.8
-4 3 -3 103.19 1.9
4 -3 3 98.09 1.9
-5 3 -3 2153.78 6.5
5 -3 3 1946.61 6.2
6 -3 3 117.69 2
-6 3 -3 126.19 1.7
7 -3 3 1333.37 4.9
-7 3 -3 1448.06 5.1
-8 3 -3 0.5 1
8 -3 3 0.1 1.4
9 -3 3 445.26 3.5
-9 3 -3 521.15 3.4
-8 -2 3 231.08 2.8
8 2 -3 205.88 2.5
8 2 -3 99.09 2.7
-8 -2 3 231.18 2.8
-7 -2 3 99.59 1.7
7 2 -3 94.09 2
7 2 -3 94.19 1.9
-7 -2 3 115.89 2
-6 -2 3 -86.39 3.9
6 2 -3 546.15 3.5
-6 -2 3 624.64 3.8
6 2 -3 598.54 3.9
-5 -2 3 376.76 3.1
5 2 -3 421.46 3
-5 -2 3 466.05 3.1
5 2 -3 439.96 3.5
-4 -2 3 1468.65 5.6
-4 -2 3 1614.34 5.7
4 2 -3 1363.46 5.1
4 2 -3 1597.14 6.4
-3 -2 3 9.6 1.3
-3 -2 3 8.6 1.3
3 2 -3 10.3 1
3 2 -3 11 1.2
-2 -2 3 1023.9 5.1
2 2 -3 928.81 4.9
2 2 -3 974.6 6.1
1 2 -3 232.18 3.4
-1 -2 3 256.97 2.9
1 2 -3 246.38 2.9
1 2 -3 250.67 3.9
0 -2 3 2655.13 9.5
0 -2 3 2617.84 13.2
0 2 -3 2567.34 13.3
0 2 -3 2655.73 9.4
1 -2 3 1033.7 6.7
1 -2 3 1021 7.3
-1 2 -3 1038.5 8.4
-1 2 -3 976.2 7
-2 2 -3 4222.08 17.1
2 -2 3 4202.68 13
-2 2 -3 4156.48 14
2 -2 3 4015.2 15.6
-3 2 -3 1940.81 22.2
-3 2 -3 1837.12 7.8
3 -2 3 1781.12 7.5
4 -2 3 1697.93 6.5
-4 2 -3 1792.62 6.7
-5 2 -3 524.55 3.4
5 -2 3 528.85 3.6
6 -2 3 804.72 4.1
-6 2 -3 847.32 4
-6 2 -3 1024.3 12.3
-6 2 -3 815.82 12
7 -2 3 1050.09 4.5
-7 2 -3 1116.79 9.9
-7 2 -3 1113.19 4.5
8 -2 3 53.99 2.3
8 -2 3 57.69 1.6
-8 2 -3 66.49 2.8
-8 2 -3 62.29 1.4
9 -2 3 262.87 2.8
-9 2 -3 290.57 5.1
-9 2 -3 -58.69 2.5
-8 -1 3 59.29 1.8
8 1 -3 51.39 1.8
8 1 -3 47.6 1.7
-8 -1 3 54.99 1.7
-7 -1 3 447.66 3.2
-7 -1 3 453.65 3.4
7 1 -3 426.16 3.4
7 1 -3 402.16 3.1
-6 -1 3 136.49 1.8
-6 -1 3 151.88 2.1
6 1 -3 131.99 1.9
6 1 -3 139.39 2.1
-5 -1 3 950.8 4.4
-5 -1 3 780.32 4
5 1 -3 875.61 4.3
5 1 -3 861.41 4.5
-4 -1 3 639.84 3.7
-4 -1 3 644.84 3.8
4 1 -3 632.14 3.7
4 1 -3 639.34 3.8
-3 -1 3 381.96 3
3 1 -3 374.46 3.2
3 1 -3 353.46 2.9
-3 -1 3 364.16 3
-2 -1 3 1546.95 6.4
2 1 -3 1464.95 6.1
2 1 -3 1514.65 6.5
1 1 -3 1308.97 6.9
-1 -1 3 1292.37 6.4
1 1 -3 1327.57 6.6
1 1 -3 1301.17 6.4
0 -1 3 4138.19 13.4
0 1 -3 4293.87 13.9
0 -1 3 5253.47 13.8
0 1 -3 4776.82 13.6
-1 1 -3 208.88 3.5
1 -1 3 210.08 3.4
-1 1 -3 220.58 3.3
1 -1 3 215.58 3.2
2 -1 3 5039.9 16.5
-2 1 -3 4385.46 18
2 -1 3 4882.01 13.3
-2 1 -3 5353.96 14.4
3 -1 3 138.99 2.3
-3 1 -3 132.99 3.6
-3 1 -3 155.38 2.7
-3 1 -3 137.09 4
-4 1 -3 3071.99 15.5
-4 1 -3 3439.06 18.4
4 -1 3 3286.07 9
-4 1 -3 3364.06 9.2
5 -1 3 35.5 1.2
-5 1 -3 37.8 1.3
-5 1 -3 40.5 2.5
-5 1 -3 42.9 2
6 -1 3 1506.95 8.4
-6 1 -3 1831.12 10.7
6 -1 3 1629.74 5.7
-6 1 -3 1716.83 5.7
-7 1 -3 363.26 2.8
-7 1 -3 390.86 4.6
7 -1 3 302.57 3.7
7 -1 3 336.87 2.9
-8 1 -3 388.06 4.7
8 -1 3 322.07 2.8
-8 1 -3 346.67 2.6
8 -1 3 300.57 3.8
-9 1 -3 164.68 3.5
9 -1 3 -19.3 2
-9 1 -3 156.28 2.2
9 -1 3 133.99 2.9
10 -1 3 130.49 3.4
-10 1 -3 55.39 3.7
10 -1 3 140.09 2.4
-10 1 -3 -8.8 2.4
-8 0 3 -0.3 1.3
8 0 -3 -0.1 1.3
-8 0 3 2 1.6
8 0 -3 3 1.5
-7 0 3 476.05 3.3
-7 0 3 446.66 3.4
7 0 -3 412.36 3.3
7 0 -3 442.26 3.1
-6 0 3 41.2 1.5
6 0 -3 37.2 1.5
-6 0 3 35.4 1.6
6 0 -3 38.6 1.6
-5 0 3 820.92 3.8
5 0 -3 806.92 4.1
5 0 -3 830.12 3.9
-5 0 3 826.42 4.2
-4 0 3 226.08 2.1
-4 0 3 231.38 2.4
4 0 -3 213.38 2.3
4 0 -3 215.88 2.2
-3 0 3 3263.77 7.8
-3 0 3 2985.7 8.3
3 0 -3 3319.17 7.9
3 0 -3 3000.8 8.2
2 0 -3 1736.33 6.2
2 0 -3 1587.64 6.4
2 0 -3 1732.33 6.3
-2 0 3 1726.53 6.9
1 0 -3 3839.22 10.2
1 0 -3 3767.52 9.9
1 0 -3 3618.64 10.3
-1 0 3 3554.24 10.6
0 0 3 2690.93 9.7
0 0 -3 2813.92 9.4
0 0 3 2729.33 9.2
0 0 -3 2631.14 9.9
1 0 3 2135.09 8.4
-1 0 -3 2064.59 8.3
-1 0 -3 1928.71 8.9
1 0 3 2045.3 8.8
2 0 3 1597.94 8.2
-2 0 -3 1452.15 8.1
2 0 3 1395.86 6.7
-2 0 -3 1439.56 6.7
3 0 3 363.46 3.3
-3 0 -3 365.86 3.5
-3 0 -3 319.07 4
-3 0 -3 374.26 4.5
-4 0 -3 1293.37 5.5
-4 0 -3 1308.77 7.9
-4 0 -3 1415.86 7.6
4 0 3 1266.97 5.6
5 0 3 6.2 1.4
5 0 3 11.4 1
-5 0 -3 13.9 1.6
-5 0 -3 7.7 1
6 0 3 978.9 5.9
6 0 3 1136.29 4.9
-6 0 -3 1215.38 7.1
-6 0 -3 1177.78 4.9
7 0 3 0.5 1.3
7 0 3 0.4 1.4
-7 0 -3 1.8 1.3
-7 0 -3 2.2 1.4
-8 0 -3 919.31 4.2
8 0 3 832.72 5.4
8 0 3 888.41 4.3
-8 0 -3 1040.6 6.5
-9 0 -3 32.3 2.1
9 0 3 26.1 1.5
9 0 3 26.1 1.3
-9 0 -3 27.5 1.5
-10 0 -3 465.65 5.2
10 0 3 385.36 4.2
10 0 3 377.46 3.4
-10 0 -3 437.06 3.5
-8 1 3 64.09 1.8
-8 1 3 64.59 1.9
8 -1 -3 57.69 1.7
8 -1 -3 56.39 1.6
-7 1 3 474.85 3.1
7 -1 -3 426.76 3.3
7 -1 -3 457.35 3.5
-7 1 3 461.25 3.5
-6 1 3 91.69 2
-6 1 3 86.09 1.6
6 -1 -3 86.59 1.9
6 -1 -3 88.99 1.8
-5 1 3 1271.27 4.5
5 -1 -3 1207.98 5.1
-5 1 3 1265.67 5.3
5 -1 -3 1279.07 4.6
-4 1 3 217.68 2.2
4 -1 -3 206.28 2.2
4 -1 -3 202.28 2.5
-4 1 3 210.18 2.5
3 -1 -3 3174.68 8.4
-3 1 3 3288.47 8.6
3 -1 -3 3343.77 7.6
2 -1 -3 58.79 1.6
2 -1 -3 52.39 1.9
2 -1 -3 54.79 1.7
-2 1 3 53.59 1.7
1 -1 -3 2375.56 7.3
1 -1 -3 2226.18 7.8
-1 1 3 2225.98 8
0 1 3 123.09 2.4
0 -1 -3 110.89 2.1
0 -1 -3 108.39 1.9
0 1 3 140.99 2
-1 -1 -3 6962.2 14.6
1 1 3 6670.33 13.2
1 1 3 7179.18 14.7
-1 -1 -3 7261.77 14
-2 -1 -3 348.47 3.3
2 1 3 365.06 3.3
2 1 3 371.06 3.6
-2 -1 -3 347.57 3.5
-3 -1 -3 1215.88 6.4
-3 -1 -3 1342.07 5.7
-3 -1 -3 1473.55 7
3 1 3 1264.67 5.7
4 1 3 1199.78 5.3
-4 -1 -3 1225.28 5.3
-4 -1 -3 1164.18 6.3
5 1 3 863.71 4.2
5 1 3 840.42 5
-5 -1 -3 976.7 5.6
-5 -1 -3 862.21 4.3
-6 -1 -3 1136.69 6
6 1 3 1014.3 4.4
-6 -1 -3 1035.4 4.6
6 1 3 937.01 5.1
-7 -1 -3 464.55 3.2
7 1 3 441.96 3.4
7 1 3 459.55 3.1
-7 -1 -3 559.94 4.3
8 1 3 653.83 4.3
8 1 3 677.53 3.8
-8 -1 -3 759.12 3.8
-8 -1 -3 439.26 5.8
9 1 3 85.89 2
9 1 3 84.49 2
-9 -1 -3 87.89 1.8
-9 -1 -3 111.09 2.3
-10 -1 -3 253.57 3.4
10 1 3 206.68 2.5
10 1 3 221.18 3.1
-10 -1 -3 201.28 2.5
-8 2 3 191.48 2.4
8 -2 -3 181.08 2.7
8 -2 -3 163.98 2.4
-8 2 3 192.28 2.8
-7 2 3 143.19 2.2
7 -2 -3 -2.2 2.2
-7 2 3 132.59 2.1
7 -2 -3 129.89 2.1
-6 2 3 666.23 3.4
-6 2 3 625.44 3.9
6 -2 -3 586.04 3.5
6 -2 -3 578.84 3.8
-5 2 3 548.35 3
-5 2 3 497.45 3.4
5 -2 -3 541.05 3.1
5 -2 -3 510.35 3.6
4 -2 -3 819.62 4.4
4 -2 -3 760.82 3.5
-4 2 3 767.72 4.2
3 -2 -3 1066.59 5
-3 2 3 990.5 4.9
3 -2 -3 952 4
3 -2 -3 953.8 4.1
2 -2 -3 402.96 2.9
2 -2 -3 399.96 2.8
2 -2 -3 397.56 3.2
-2 2 3 404.56 3.4
-1 2 3 1612.44 6.3
-1 2 3 1583.54 5.5
1 -2 -3 1529.25 5.5
1 -2 -3 1535.15 6
0 -2 -3 1819.42 6.8
0 2 3 1755.82 6.1
0 -2 -3 1610.94 6.1
0 2 3 1793.22 6.9
1 2 3 4118.99 9.4
-1 -2 -3 4232.28 9.6
1 2 3 4154.28 10
-1 -2 -3 3807.52 9.8
-2 -2 -3 249.28 2.9
2 2 3 211.98 2.4
-2 -2 -3 231.28 2.6
-3 -2 -3 3326.27 8.5
-3 -2 -3 3333.27 9.2
3 2 3 3623.54 8.9
-3 -2 -3 3705.73 9.9
4 2 3 95.19 1.8
4 2 3 110.89 2.1
-4 -2 -3 110.89 2
-4 -2 -3 109.59 2.2
5 2 3 3733.13 8.6
-5 -2 -3 3799.52 9.8
-5 -2 -3 3439.66 8.3
5 2 3 3265.17 8.9
-6 -2 -3 107.19 1.6
6 2 3 113.99 1.8
-6 -2 -3 123.39 2.2
6 2 3 104.49 2
7 2 3 1064.79 5
7 2 3 1220.08 4.8
-7 -2 -3 1292.17 5.8
-7 -2 -3 1230.78 4.9
8 2 3 77.89 1.8
8 2 3 89.69 2
-8 -2 -3 87.09 1.9
-8 -2 -3 75.29 1.6
9 2 3 285.27 3.1
9 2 3 290.67 2.9
-9 -2 -3 62.49 3.7
-9 -2 -3 284.47 2.8
-8 3 3 250.07 3.4
8 -3 -3 237.28 3.2
8 -3 -3 240.88 2.8
7 -3 -3 0.6 1.5
7 -3 -3 8 1.4
-7 3 3 6.5 1.6
6 -3 -3 674.63 3.7
6 -3 -3 674.63 4.3
-6 3 3 681.83 4.2
5 -3 -3 50.39 1.5
-5 3 3 51.09 1.4
5 -3 -3 58.19 1.7
4 -3 -3 866.01 3.6
4 -3 -3 878.61 4.4
-4 3 3 875.41 4.4
4 -3 -3 871.21 3.7
-3 3 3 609.34 3.7
3 -3 -3 605.64 3.8
3 -3 -3 595.44 3.2
3 -3 -3 609.24 3.2
2 -3 -3 950.5 4
2 -3 -3 978.3 4.1
2 -3 -3 996.8 4.6
-2 3 3 1027.1 4.8
1 -3 -3 1190.78 4.7
-1 3 3 1217.58 5.3
-1 3 3 1126.99 4.5
1 -3 -3 1203.78 5.1
0 -3 -3 929.71 4.2
0 -3 -3 980.7 4.6
0 3 3 914.61 4.2
0 3 3 1029.1 4.8
-1 -3 -3 2385.36 7.2
-1 -3 -3 2352.26 6.8
1 3 3 2260.17 6.7
1 3 3 2626.84 7.5
-2 -3 -3 1017.7 4.8
-2 -3 -3 976.7 4.6
2 3 3 934.51 4.4
-2 -3 -3 861.01 4.4
-3 -3 -3 3014.6 8.1
-3 -3 -3 2640.34 7.2
3 3 3 2692.53 7.2
-3 -3 -3 2578.04 7.5
4 3 3 874.11 4.4
4 3 3 932.81 4.3
-4 -3 -3 948.91 4.4
-4 -3 -3 935.11 4.5
5 3 3 1774.92 6
-5 -3 -3 1849.81 6.2
5 3 3 1980.3 6.1
-5 -3 -3 1870.21 5.9
6 3 3 69.79 1.6
-6 -3 -3 67.89 1.7
-6 -3 -3 69.69 1.8
6 3 3 58.99 1.7
7 3 3 645.04 3.7
7 3 3 832.52 4.2
-7 -3 -3 808.62 4.3
-7 -3 -3 777.52 4
8 3 3 8.1 1.3
8 3 3 8.2 1.5
-8 -3 -3 10 1.2
-8 -3 -3 10.2 1.1
9 3 3 277.27 2.9
9 3 3 229.48 2.6
-9 -3 -3 260.97 2.7
-9 -3 -3 276.07 3.2
7 -4 -3 55.49 1.9
-7 4 3 51.09 1.6
7 -4 -3 42.1 1.6
7 -4 -3 45.6 1.4
-6 4 3 294.47 3
6 -4 -3 280.07 2.4
6 -4 -3 288.47 2.5
6 -4 -3 267.87 2.9
5 -4 -3 27.4 1.5
5 -4 -3 23.4 1
5 -4 -3 23.4 1
-5 4 3 27.4 1.4
4 -4 -3 836.12 3.7
-4 4 3 835.02 4.4
4 -4 -3 832.72 4.4
4 -4 -3 827.62 3.6
3 -4 -3 64.99 1.2
3 -4 -3 67.19 1.4
-3 4 3 75.39 1.8
3 -4 -3 66.49 1.3
2 -4 -3 1842.52 5.4
2 -4 -3 1969.9 6.1
2 -4 -3 1795.82 5.2
-2 4 3 2017.5 6.4
1 -4 -3 291.57 2.6
-1 4 3 291.37 2.6
1 -4 -3 267.67 2.2
0 -4 -3 2864.61 6.9
0 4 3 2898.51 7.1
0 -4 -3 2868.61 7.3
0 4 3 3232.68 8
-1 -4 -3 932.21 4.1
1 4 3 845.82 4
-1 -4 -3 937.81 4.4
-2 -4 -3 2357.06 6.8
-2 -4 -3 2622.04 6.9
-2 -4 -3 2682.83 7.2
2 4 3 2530.45 6.8
-3 -4 -3 572.34 3.3
3 4 3 566.94 3.3
-3 -4 -3 631.14 3.7
-3 -4 -3 529.85 3.3
4 4 3 907.51 4.1
-4 -4 -3 900.41 4.3
4 4 3 825.42 4
-4 -4 -3 890.01 4.2
5 4 3 527.75 3.3
-5 -4 -3 544.75 3.2
5 4 3 575.24 3.3
-5 -4 -3 567.24 3.5
-6 -4 -3 268.97 2.5
6 4 3 242.78 2.4
6 4 3 290.97 2.7
-6 -4 -3 277.57 2.5
7 4 3 408.66 3
-7 -4 -3 468.05 3.3
-7 -4 -3 491.95 3.3
7 4 3 508.05 3.4
-8 -4 -3 28.1 1.7
8 4 3 39.4 1.3
8 4 3 27 1.4
-8 -4 -3 32.4 1.3
9 4 3 319.27 3.1
9 4 3 259.07 3
-9 -4 -3 279.87 3.4
-9 -4 -3 270.07 2.8
7 -5 -3 83.19 2.1
7 -5 -3 80.39 2
7 -5 -3 81.19 1.7
-7 5 3 94.79 2
6 -5 -3 105.89 2.1
6 -5 -3 98.69 1.6
-6 5 3 112.49 2.1
6 -5 -3 91.99 1.7
5 -5 -3 216.78 2.3
-5 5 3 248.08 2.7
5 -5 -3 246.58 2.8
5 -5 -3 212.88 2.1
-4 5 3 746.93 4.2
4 -5 -3 679.53 3.3
4 -5 -3 713.03 3.5
4 -5 -3 706.23 4.1
-3 5 3 528.95 3.4
3 -5 -3 464.95 2.7
3 -5 -3 504.25 3.2
3 -5 -3 479.35 2.8
2 -5 -3 1305.97 4.5
2 -5 -3 1299.47 4.4
2 -5 -3 1397.46 5
-2 5 3 1361.46 5.2
1 -5 -3 460.85 3
1 -5 -3 434.16 2.8
-1 5 3 482.45 3.1
0 -5 -3 1479.95 4.8
0 5 3 1421.86 4.8
0 -5 -3 1524.35 5.2
1 5 3 85.29 1.4
-1 -5 -3 86.99 1.4
-1 -5 -3 92.99 1.7
-1 -5 -3 78.69 1.6
-2 -5 -3 775.62 3.8
-2 -5 -3 931.51 4.2
-2 -5 -3 919.61 4
2 5 3 867.41 3.9
-3 -5 -3 26.2 1.3
-3 -5 -3 23 1
3 5 3 25 1
-3 -5 -3 25.7 1.1
4 5 3 1037.2 4.3
-4 -5 -3 1042.7 4.6
-4 -5 -3 1002.3 4.2
4 5 3 963.3 4.2
-5 -5 -3 163.98 2.1
5 5 3 173.08 2.1
5 5 3 151.08 1.9
-5 -5 -3 179.18 2.3
-6 -5 -3 710.13 3.8
6 5 3 735.73 4
-6 -5 -3 764.62 3.9
6 5 3 687.73 3.8
7 5 3 142.89 2.1
-7 -5 -3 164.98 2.3
7 5 3 155.98 2.1
-7 -5 -3 161.18 2
8 5 3 465.35 3.4
-8 -5 -3 474.85 3.6
-8 -5 -3 437.26 3.3
8 5 3 402.86 3.1
9 5 3 146.69 2.1
9 5 3 174.98 2.3
-9 -5 -3 -9.7 2.7
-9 -5 -3 150.28 2.2
6 -6 -3 45.2 1.7
6 -6 -3 39.6 1.5
-6 6 3 48.3 1.7
6 -6 -3 39.2 1.6
5 -6 -3 817.22 4.8
5 -6 -3 690.43 3.9
-5 6 3 447.66 5
5 -6 -3 745.43 4
4 -6 -3 217.18 2
4 -6 -3 227.58 2.1
4 -6 -3 228.08 2.6
-4 6 3 252.97 2.7
-3 6 3 1109.59 5
3 -6 -3 1063.39 4.7
3 -6 -3 1026.3 3.9
3 -6 -3 1045.7 4.1
2 -6 -3 308.37 2.4
2 -6 -3 310.57 2.5
2 -6 -3 285.97 2.1
-2 6 3 318.77 2.9
1 -6 -3 781.72 3.5
1 -6 -3 708.93 3.3
1 -6 -3 788.42 3.8
0 6 3 602.04 3.3
0 -6 -3 579.84 3.2
0 -6 -3 542.05 3.3
0 -6 -3 609.14 3.3
-1 -6 -3 327.37 2.6
-1 -6 -3 271.77 2.3
-1 -6 -3 320.77 2.5
1 6 3 311.27 2.4
2 6 3 1387.16 4.9
-2 -6 -3 1502.15 5.1
-2 -6 -3 1281.07 4.6
-2 -6 -3 1473.95 5
-3 -6 -3 27.9 1.1
-3 -6 -3 30.7 1.1
3 6 3 29.9 1.3
-3 -6 -3 35.5 1.2
4 6 3 1252.17 4.8
-4 -6 -3 1271.57 5
-4 -6 -3 1331.57 4.9
-5 -6 -3 3.4 0.9
-5 -6 -3 0.9 1.3
5 6 3 0.4 1.2
5 6 3 2.3 1.2
6 6 3 512.25 3.5
-6 -6 -3 553.44 3.6
6 6 3 551.14 3.5
-6 -6 -3 562.14 3.4
7 6 3 3.2 1.3
7 6 3 1.3 1
-7 -6 -3 0.7 1.4
-7 -6 -3 3.5 1.4
-8 -6 -3 540.85 4
8 6 3 523.85 4.1
-8 -6 -3 507.35 4
8 6 3 65.59 3.8
6 -7 -3 43.3 1.4
6 -7 -3 43.7 1.6
-6 7 3 54.49 1.9
6 -7 -3 49.6 1.9
5 -7 -3 613.94 3.6
5 -7 -3 662.13 4.5
-5 7 3 738.73 4.7
5 -7 -3 681.33 3.8
4 -7 -3 2.6 1.1
-4 7 3 2.1 1.3
4 -7 -3 5.4 0.9
4 -7 -3 3.9 1.2
-3 7 3 593.94 3.7
3 -7 -3 494.55 3.1
3 -7 -3 532.95 3.3
3 -7 -3 -25.3 3.6
2 -7 -3 51.19 1.3
2 -7 -3 60.79 1.5
2 -7 -3 55.99 1.3
2 -7 -3 54.69 1.2
1 -7 -3 556.64 3.1
1 -7 -3 572.74 3.1
1 -7 -3 509.75 3.1
1 -7 -3 610.74 3.3
0 -7 -3 424.96 2.8
0 -7 -3 375.06 2.6
0 -7 -3 374.26 2.8
0 7 3 383.96 2.6
-1 -7 -3 558.94 3.2
-1 -7 -3 567.14 3.1
-1 -7 -3 598.84 3.2
1 7 3 559.74 3.2
2 7 3 692.33 3.7
-2 -7 -3 778.62 3.9
-2 -7 -3 803.02 3.8
-2 -7 -3 693.93 3.6
3 7 3 488.95 3.2
-3 -7 -3 623.74 3.6
-3 -7 -3 563.54 3.4
-3 -7 -3 541.95 3.4
4 7 3 434.66 3.1
-4 -7 -3 525.65 3.3
-4 -7 -3 448.36 3.1
-4 -7 -3 465.85 3.3
5 7 3 223.38 2.4
-5 -7 -3 211.88 2.3
-5 -7 -3 213.58 2.3
6 7 3 272.97 2.7
6 7 3 312.27 2.8
-6 -7 -3 299.97 3.1
-6 -7 -3 290.17 2.7
7 7 3 -0.9 1.8
7 7 3 84.99 2.1
-7 -7 -3 83.39 1.9
-7 -7 -3 93.49 2.1
5 -8 -3 147.29 2.1
5 -8 -3 151.88 2.4
5 -8 -3 159.78 2.2
4 -8 -3 64.19 1.4
4 -8 -3 55.09 1.8
4 -8 -3 64.29 1.6
4 -8 -3 -10.1 1.7
3 -8 -3 346.37 2.7
3 -8 -3 329.27 3
3 -8 -3 326.67 3
3 -8 -3 374.66 2.8
2 -8 -3 44.9 1.4
2 -8 -3 37.3 1.4
2 -8 -3 37 1.3
2 -8 -3 39 1.2
1 -8 -3 701.93 3.6
1 -8 -3 595.74 3.5
1 -8 -3 661.83 3.4
1 -8 -3 679.63 3.6
0 -8 -3 12.9 1.4
0 -8 -3 16.3 1.3
0 -8 -3 22.6 1
1 8 3 827.92 4
-1 -8 -3 859.21 4.2
-1 -8 -3 883.01 4.1
-1 -8 -3 910.21 4.1
-2 -8 -3 39.8 1.6
2 8 3 37.7 1.2
-2 -8 -3 43 1.4
-2 -8 -3 45.7 1.5
-3 -8 -3 933.81 4.3
3 8 3 807.42 4.2
-3 -8 -3 844.82 4.3
-3 -8 -3 943.01 4.5
-4 -8 -3 4.4 1.2
4 8 3 5.8 1.1
-4 -8 -3 6.1 0.9
-4 -8 -3 6.5 1.3
5 8 3 441.36 3.3
-5 -8 -3 411.46 3.1
-5 -8 -3 483.65 3.5
-5 -8 -3 493.15 3.3
6 8 3 52.39 1.7
-6 -8 -3 50.79 1.4
-6 -8 -3 52.89 1.8
7 8 3 166.78 2.5
-7 -8 -3 171.58 2.6
-7 -8 -3 167.98 2.3
7 8 3 157.38 2.2
4 -9 -3 222.68 2.6
4 -9 -3 223.28 2.9
4 -9 -3 263.97 3
4 -9 -3 230.08 2.7
3 -9 -3 -30.4 2.2
3 -9 -3 182.28 2.6
3 -9 -3 197.48 2.3
3 -9 -3 172.98 2.5
2 -9 -3 338.07 2.7
2 -9 -3 351.76 2.9
2 -9 -3 352.86 3.1
2 -9 -3 357.96 2.9
1 -9 -3 -31 3.5
1 -9 -3 460.75 3.4
1 -9 -3 474.85 3.1
1 -9 -3 518.65 3.3
0 -9 -3 344.67 2.8
0 -9 -3 331.17 2.7
0 -9 -3 324.27 3
0 -9 -3 341.97 2.7
1 9 3 570.54 3.5
-1 -9 -3 519.45 3.6
-1 -9 -3 558.84 3.5
-1 -9 -3 529.35 3.3
2 9 3 213.48 2.4
-2 -9 -3 196.18 2.4
-2 -9 -3 205.68 2.3
-2 -9 -3 237.98 2.5
3 9 3 326.17 2.8
-3 -9 -3 334.07 3
-3 -9 -3 359.96 3.1
-3 -9 -3 351.66 3
-4 -9 -3 16 1.2
4 9 3 17.4 1.3
-4 -9 -3 20.2 1.4
-4 -9 -3 16.3 1.4
5 9 3 212.78 2.7
-5 -9 -3 207.88 2.5
-5 -9 -3 216.78 2.8
-5 -9 -3 249.28 2.5
2 -10 -3 361.66 3.4
2 -10 -3 413.06 3.3
2 -10 -3 399.36 3.6
2 -10 -3 404.56 3.4
1 -10 -3 50.89 1.5
1 -10 -3 42.3 1.5
1 -10 -3 49.5 1.5
1 -10 -3 49.5 1.6
0 -10 -3 377.76 3.2
0 -10 -3 352.36 3.2
0 -10 -3 331.67 2.9
0 -10 -3 343.97 3
-1 -10 -3 70.69 1.7
-1 -10 -3 62.89 1.6
-1 -10 -3 71.29 1.7
-1 -10 -3 64.29 1.9
2 10 3 176.58 2.4
-2 -10 -3 172.18 2.4
-2 -10 -3 168.28 2.4
-2 -10 -3 157.88 2.1
-3 -10 -3 167.18 2.2
-3 -10 -3 177.98 2.4
3 10 3 156.18 2.3
-3 -10 -3 161.38 2.5
4 10 3 54.09 1.6
-4 -10 -3 43 1.8
-4 -10 -3 54.69 1.8
-4 -10 -3 65.89 1.6
2 9 -4 41.1 1.7
-2 -9 4 55.99 1.7
1 9 -4 571.44 4.1
-1 -9 4 583.84 4.2
0 9 -4 4.1 1.6
0 -9 4 5.1 1.7
-1 9 -4 394.36 3.4
1 -9 4 347.77 3.3
-2 9 -4 1.3 1.3
2 -9 4 -0.3 1.4
3 -9 4 324.97 4.7
3 -9 4 337.77 3.9
3 -9 4 304.87 3.8
3 -9 4 310.37 5.4
4 -9 4 10 1.7
4 -9 4 7.4 1.8
4 -9 4 2.5 2
4 -9 4 11.3 1.9
5 -9 4 325.27 6
5 -9 4 264.77 3.5
5 -9 4 226.18 3.7
5 -9 4 287.97 5.7
3 8 -4 161.98 2.4
-3 -8 4 170.08 2.3
2 8 -4 315.97 3.1
-2 -8 4 319.27 3.1
1 8 -4 -2 2.7
-1 -8 4 182.48 2.5
0 8 -4 238.08 2.7
0 -8 4 215.48 2.5
-1 8 -4 321.47 2.9
1 -8 4 297.97 3
-2 8 -4 67.89 1.6
2 -8 4 65.99 1.9
3 -8 4 587.94 6.1
3 -8 4 605.44 4.8
3 -8 4 565.04 5
3 -8 4 682.93 4.7
4 -8 4 17.8 1.8
4 -8 4 13.4 1.6
4 -8 4 13.4 1.5
4 -8 4 13.7 2
5 -8 4 553.04 7.9
5 -8 4 556.34 7.1
5 -8 4 435.66 4
5 -8 4 388.76 4
6 -8 4 0.3 1.4
4 7 -4 445.16 3.5
-4 -7 4 430.46 3.6
3 7 -4 1.4 1.6
-3 -7 4 -0.3 1.6
2 7 -4 386.46 3.1
-2 -7 4 53.39 3.6
-1 -7 4 19.8 1.2
1 7 -4 23.5 1.3
0 7 -4 942.11 4.7
0 -7 4 873.01 4.6
-1 7 -4 914.71 4.9
1 -7 4 873.51 4.8
2 -7 4 556.94 7.1
2 -7 4 596.74 6.6
2 -7 4 574.94 4.3
-2 7 -4 590.94 4.2
3 -7 4 617.44 4.8
3 -7 4 584.54 5.6
-3 7 -4 595.24 4.4
3 -7 4 553.34 4.8
-4 7 -4 472.35 4.1
4 -7 4 473.05 4.2
4 -7 4 511.45 4.8
4 -7 4 496.35 5.2
-5 7 -4 516.05 3.9
5 -7 4 522.25 11.2
5 -7 4 435.16 3.6
5 -7 4 506.75 10.6
-6 7 -4 243.28 2.9
6 -7 4 199.08 2.8
-7 7 -4 319.07 3.3
7 -7 4 288.87 3.1
5 6 -4 167.78 3.8
5 6 -4 171.88 3.2
5 6 -4 173.18 2.5
-5 -6 4 180.98 2.4
4 6 -4 324.27 4.6
4 6 -4 295.97 2.9
4 6 -4 301.27 4.8
-4 -6 4 314.27 3.1
3 6 -4 68.39 1.6
-3 -6 4 78.89 1.8
2 6 -4 572.54 3.5
-2 -6 4 606.64 3.6
1 6 -4 44 1.9
-1 -6 4 42.7 1.5
0 -6 4 1854.11 6.5
0 6 -4 2029.4 6.8
-1 6 -4 21.2 1.7
1 -6 4 20.3 1.3
-2 6 -4 1201.78 6
2 -6 4 1165.48 8.6
2 -6 4 1184.08 7.9
2 -6 4 1256.47 5.9
-3 6 -4 2.2 1.3
-3 6 -4 5.6 1.3
3 -6 4 4 1.5
3 -6 4 8.6 1.5
-4 6 -4 1539.85 6.6
4 -6 4 1492.75 9.2
4 -6 4 1498.85 8.4
4 -6 4 1358.46 6.7
5 -6 4 201.18 2.5
-5 6 -4 244.38 2.6
-6 6 -4 484.45 3.4
6 -6 4 433.26 3.4
7 -6 4 115.39 1.9
-7 6 -4 125.39 2
8 -6 4 -19.8 2.3
-8 6 -4 178.58 2.5
-6 -5 4 56.39 1.9
6 5 -4 45.9 2.1
6 5 -4 45.8 1.9
-5 -5 4 267.67 2.7
5 5 -4 242.18 3.5
5 5 -4 213.28 2.7
4 5 -4 235.98 3.7
4 5 -4 247.48 2.4
-4 -5 4 271.27 2.5
4 5 -4 267.47 3.4
3 5 -4 584.14 6.1
3 5 -4 517.15 3.4
3 5 -4 578.44 5.4
-3 -5 4 546.45 3.6
2 5 -4 911.21 4.4
-2 -5 4 1006.3 4.6
1 5 -4 845.72 4.2
-1 -5 4 831.22 4.2
0 5 -4 1327.17 5.6
0 -5 4 1291.47 5.5
-1 5 -4 698.73 4.4
1 -5 4 630.74 4.2
-2 5 -4 643.64 5.8
-2 5 -4 628.24 4.6
2 -5 4 614.24 4.5
2 -5 4 558.14 5.6
-3 5 -4 257.17 3.4
3 -5 4 249.97 3.3
-3 5 -4 270.97 3.4
3 -5 4 263.67 3.5
4 -5 4 956.1 8
4 -5 4 885.61 8.4
4 -5 4 824.32 4.9
-4 5 -4 893.51 5.1
5 -5 4 2.8 1.2
-5 5 -4 4.9 0.9
6 -5 4 490.55 3.5
-6 5 -4 536.85 3.5
7 -5 4 1.1 1.4
-7 5 -4 12.6 1.3
-8 5 -4 505.85 3.6
8 -5 4 437.16 3.5
9 -5 4 23.2 1.3
-9 5 -4 28.3 1.4
-6 -4 4 16.2 1.3
-6 -4 4 17.2 1.3
6 4 -4 18.5 1.7
6 4 -4 20 1.3
5 4 -4 854.91 4.5
5 4 -4 909.01 5.8
-5 -4 4 967.9 4.7
-4 -4 4 6.7 1.1
4 4 -4 2.9 1.5
4 4 -4 3.1 1.5
3 4 -4 1504.35 7.1
3 4 -4 1362.86 5.2
3 4 -4 1459.65 8
-3 -4 4 1490.65 5.4
2 4 -4 101.19 3.1
2 4 -4 91.89 1.6
-2 -4 4 92.69 1.6
2 4 -4 91.69 2.5
1 4 -4 1677.73 6.1
-1 -4 4 1719.23 6.1
0 4 -4 127.79 2.3
0 -4 4 115.49 2.2
-1 4 -4 1036.9 5.5
1 -4 4 965.2 10.2
1 -4 4 955.1 5.2
-1 4 -4 1004.3 11.8
2 -4 4 319.17 3.5
2 -4 4 279.97 3.7
-2 4 -4 324.77 4.4
-2 4 -4 328.37 3.6
3 -4 4 784.32 6.4
-3 4 -4 807.02 6.3
3 -4 4 753.12 5.2
-3 4 -4 799.92 5.3
4 -4 4 584.84 11.1
4 -4 4 545.35 4
4 -4 4 588.84 11.3
-4 4 -4 545.45 3.8
5 -4 4 524.45 3.7
-5 4 -4 534.55 3.6
-6 4 -4 1038.6 4.7
6 -4 4 925.21 4.6
7 -4 4 149.29 2
-7 4 -4 25.9 2.6
8 -4 4 572.04 3.8
-8 4 -4 651.83 3.8
9 -4 4 16.4 1.1
-9 4 -4 22.9 1.4
-7 -3 4 233.68 2.7
7 3 -4 230.88 2.7
7 3 -4 245.08 3.2
-7 -3 4 275.27 3.1
-6 -3 4 327.57 3
6 3 -4 318.77 3
-6 -3 4 375.46 3.2
6 3 -4 332.67 3.4
-5 -3 4 673.93 4
5 3 -4 677.23 4.1
5 3 -4 744.43 4.8
-5 -3 4 737.73 4.2
-4 -3 4 194.88 2.4
4 3 -4 183.18 2.4
4 3 -4 205.58 2.9
-3 -3 4 1071.39 4.5
3 3 -4 1019.1 5.3
3 3 -4 1027.1 4.6
3 3 -4 1087.09 6.4
-2 -3 4 543.65 3.5
2 3 -4 542.15 4.4
2 3 -4 570.64 3.6
2 3 -4 606.64 5.6
-1 -3 4 2039.4 6.7
1 3 -4 2036.7 10.1
1 3 -4 2023.9 6.8
1 3 -4 2204.78 12.1
0 3 -4 116.59 3.6
0 -3 4 110.09 2.2
0 3 -4 106.59 3.6
0 3 -4 113.29 2
1 -3 4 1904.21 9.9
1 -3 4 2067.99 7.8
-1 3 -4 1958.5 7.8
-1 3 -4 2075.69 12.6
2 -3 4 81.29 2.2
-2 3 -4 94.19 2.5
-2 3 -4 91.39 2.6
2 -3 4 80.19 2.2
-3 3 -4 1939.11 8.1
3 -3 4 1790.22 7.6
3 -3 4 1823.52 9.9
-3 3 -4 2031.7 11.3
4 -3 4 423.06 3.4
-4 3 -4 441.36 3.6
5 -3 4 1754.02 6.3
-5 3 -4 1843.12 6.4
6 -3 4 376.36 3
-6 3 -4 403.56 3
7 -3 4 922.01 4.4
-7 3 -4 1020.9 4.3
8 -3 4 178.68 2.3
-8 3 -4 181.98 2.1
-9 3 -4 -46.5 2.2
9 -3 4 -11.3 2.3
-7 -2 4 30.6 1.4
-7 -2 4 28.8 1.5
7 2 -4 28.3 1.5
7 2 -4 25.9 1.4
-6 -2 4 457.25 3.4
-6 -2 4 401.76 3.1
6 2 -4 386.96 3.1
6 2 -4 424.36 3.5
-5 -2 4 351.66 3
-5 -2 4 313.87 2.7
5 2 -4 298.17 2.5
5 2 -4 329.27 3
-4 -2 4 254.97 2.6
4 2 -4 221.88 2.4
4 2 -4 250.77 2.7
-3 -2 4 575.04 3.5
3 2 -4 615.34 3.8
3 2 -4 534.65 3.3
3 2 -4 581.44 4.2
2 2 -4 459.45 3.3
-2 -2 4 504.55 3.5
2 2 -4 495.65 4.1
2 2 -4 485.95 3.7
1 2 -4 1325.07 6.8
-1 -2 4 1415.36 5.8
1 2 -4 1372.46 6
1 2 -4 1388.46 7.1
0 -2 4 152.88 2.3
0 2 -4 138.19 2.8
0 2 -4 152.88 2.4
0 -2 4 141.99 2.6
1 -2 4 2730.53 9.2
1 -2 4 2684.43 10
-1 2 -4 2609.04 10.8
-1 2 -4 2679.53 9.7
2 -2 4 109.29 2.4
2 -2 4 94.99 2
-2 2 -4 99.49 2.4
-2 2 -4 102.29 2.7
3 -2 4 1994.9 7.6
3 -2 4 2051.09 10.1
-3 2 -4 2078.09 8
-3 2 -4 1945.81 11.8
4 -2 4 148.69 2.1
-4 2 -4 145.59 8.1
-4 2 -4 184.68 8.8
-4 2 -4 168.48 2.6
5 -2 4 1573.94 5.9
-5 2 -4 1507.45 5.8
6 -2 4 141.69 2.1
-6 2 -4 151.78 1.9
7 -2 4 554.94 3.3
-7 2 -4 598.64 3.4
-8 2 -4 16.1 1.5
8 -2 4 18.6 1.6
9 -2 4 215.68 2.6
-9 2 -4 229.18 2.4
10 -2 4 28.7 1.3
-10 2 -4 3 1.6
-7 -1 4 48.5 1.7
7 1 -4 45.7 1.6
-7 -1 4 55.59 1.6
7 1 -4 48.4 1.5
-6 -1 4 472.85 3.1
-6 -1 4 517.35 3.7
6 1 -4 461.75 3.4
6 1 -4 488.95 3.4
-5 -1 4 30.8 1.3
-5 -1 4 38.6 1.6
5 1 -4 33 1.6
5 1 -4 34.5 1.6
-4 -1 4 671.23 3.8
4 1 -4 599.84 3.5
4 1 -4 675.23 4
3 1 -4 18.9 1.4
3 1 -4 22.8 1.1
3 1 -4 20 1.1
-3 -1 4 21.5 1.4
-2 -1 4 1105.19 5.1
2 1 -4 1136.89 5.2
2 1 -4 1169.78 5.4
2 1 -4 1153.98 5.1
1 1 -4 372.96 3.3
-1 -1 4 381.16 3.4
1 1 -4 372.06 3.3
1 1 -4 376.16 3.5
0 1 -4 2137.99 8.1
0 1 -4 2039.8 7.9
0 -1 4 2120.89 7.9
0 -1 4 2185.18 7.8
-1 1 -4 1037.1 6.4
-1 1 -4 1100.19 5.9
1 -1 4 1039.5 5.6
1 -1 4 1030.4 5.7
2 -1 4 2957.1 9.1
-2 1 -4 2891.71 9.4
2 -1 4 2941.61 10.2
-2 1 -4 2787.62 11.1
3 -1 4 1322.87 5.9
-3 1 -4 1183.48 7.9
-3 1 -4 1333.07 6.1
3 -1 4 1457.25 7.8
-4 1 -4 2278.27 12
4 -1 4 2254.57 7.1
-4 1 -4 2343.17 7.4
-4 1 -4 2182.08 11.5
5 -1 4 841.92 4.3
-5 1 -4 923.61 8.5
-5 1 -4 913.11 4.6
-5 1 -4 901.11 7.5
-6 1 -4 303.97 4.3
6 -1 4 258.47 2.4
-6 1 -4 279.17 2.6
-6 1 -4 301.27 5
-7 1 -4 642.74 6.6
-7 1 -4 661.13 5.7
7 -1 4 507.85 3.3
-7 1 -4 530.25 3.3
-8 1 -4 27.4 1.8
-8 1 -4 27.6 2
-8 1 -4 20.4 1.1
8 -1 4 22.8 1.5
-9 1 -4 374.16 5.2
-9 1 -4 422.06 5.7
9 -1 4 325.97 2.8
-9 1 -4 351.26 2.8
-10 1 -4 37.1 2.3
-10 1 -4 37.3 2.5
10 -1 4 23.8 1.7
-10 1 -4 24.1 1.4
-7 0 4 125.99 2.3
7 0 -4 129.29 2.1
7 0 -4 137.59 2.3
-6 0 4 374.26 2.8
-6 0 4 436.06 3.3
6 0 -4 377.76 3.1
6 0 -4 396.06 2.9
-5 0 4 202.78 2.3
5 0 -4 194.88 2.5
5 0 -4 196.18 2.3
-4 0 4 1339.77 5.2
4 0 -4 1244.78 4.9
4 0 -4 1362.16 5
3 0 -4 290.07 2.4
-3 0 4 268.07 2.6
3 0 -4 297.57 2.6
3 0 -4 246.38 2.5
2 0 -4 3668.23 8.9
2 0 -4 4231.68 8.9
-2 0 4 4059.69 9.6
2 0 -4 4250.27 8.9
1 0 -4 18 1.3
-1 0 4 18.8 1.4
1 0 -4 20.4 1.4
1 0 -4 18.8 1.3
0 0 4 3689.53 9.6
0 0 -4 3867.91 9.9
0 0 4 3840.32 10.2
0 0 -4 3994.2 10.4
1 0 4 2.5 0.8
-1 0 -4 1.9 1.1
1 0 4 21.2 1.5
-1 0 -4 4.7 1.6
2 0 4 2994.7 9.5
-2 0 -4 2970.9 8.6
-2 0 -4 2651.33 9.5
2 0 4 2948.7 8.4
3 0 4 349.87 3.6
3 0 4 292.47 2.8
-3 0 -4 299.17 3.4
-3 0 -4 300.17 2.8
4 0 4 1667.43 6.1
-4 0 -4 1537.85 7.7
-4 0 -4 1568.44 5.8
-4 0 -4 1673.03 7.9
-5 0 -4 826.32 5.9
5 0 4 769.32 4.1
-5 0 -4 874.61 5.6
-5 0 -4 746.63 4
-6 0 -4 837.82 5.4
6 0 4 769.42 3.9
-6 0 -4 859.91 5.9
-6 0 -4 753.72 3.8
-7 0 -4 885.71 4.2
7 0 4 831.32 4.1
-7 0 -4 974 6.2
-7 0 -4 1013.2 5.9
8 0 4 470.95 3.2
-8 0 -4 506.95 3.1
-8 0 -4 550.94 5.3
-9 0 -4 475.75 5
9 0 4 355.26 2.9
-9 0 -4 408.56 3
10 0 4 121.09 2
-10 0 -4 155.48 3.7
-10 0 -4 172.88 3.3
-10 0 -4 136.69 2.3
-7 1 4 318.57 3.3
7 -1 -4 310.37 3.1
7 -1 -4 309.47 2.9
6 -1 -4 154.48 2.3
-6 1 4 174.08 2.2
6 -1 -4 177.08 2.2
-5 1 4 818.02 4.4
5 -1 -4 822.32 3.9
5 -1 -4 765.62 4.2
4 -1 -4 937.21 3.7
-4 1 4 897.11 4.4
4 -1 -4 878.11 3.9
4 -1 -4 894.01 4.2
3 -1 -4 830.92 4.2
3 -1 -4 809.72 3.7
-3 1 4 797.62 4.2
3 -1 -4 851.31 3.8
2 -1 -4 1213.18 4.6
2 -1 -4 1194.58 4.5
2 -1 -4 1214.08 5.2
-2 1 4 1215.68 5.2
1 -1 -4 448.86 3.1
1 -1 -4 414.16 3.4
-1 1 4 431.56 3.3
0 1 4 659.53 3.8
0 -1 -4 674.63 4
0 -1 -4 701.53 3.9
0 1 4 698.63 4.2
1 1 4 25 1.4
-1 -1 -4 22.7 1.4
1 1 4 22.7 1.3
-1 -1 -4 31.4 1.7
2 1 4 1784.92 6.9
-2 -1 -4 1596.14 6.6
-2 -1 -4 1618.54 6
2 1 4 1568.34 5.9
3 1 4 15.7 1.3
-3 -1 -4 13.1 1.1
-3 -1 -4 14 1.3
3 1 4 14.9 1.5
-4 -1 -4 1326.17 5.3
-4 -1 -4 1322.97 6.2
4 1 4 1381.26 5.4
-4 -1 -4 1499.15 6.5
5 1 4 1.3 1.1
-5 -1 -4 1.8 1
-5 -1 -4 3.4 1.2
-5 -1 -4 4.8 1
6 1 4 1592.44 5.3
-6 -1 -4 1737.03 7.3
-6 -1 -4 1678.03 5.5
-6 -1 -4 1815.32 6.9
7 1 4 41.8 1.3
-7 -1 -4 51.59 1.8
-7 -1 -4 44.4 1.3
8 1 4 685.03 4.4
8 1 4 764.52 4.1
-8 -1 -4 716.13 3.9
-8 -1 -4 907.11 5.5
9 1 4 47.5 1.7
9 1 4 50.89 1.7
-9 -1 -4 49.2 1.5
-9 -1 -4 64.89 2.1
-10 -1 -4 221.88 4
10 1 4 223.28 2.5
-10 -1 -4 181.68 2.6
7 -2 -4 239.58 3.5
7 -2 -4 121.29 4.3
7 -2 -4 490.55 3.4
-7 2 4 569.84 4.2
6 -2 -4 2.6 1.3
-6 2 4 3.8 1.4
6 -2 -4 2.3 1.4
6 -2 -4 4.2 1.1
5 -2 -4 1065.99 4.1
-5 2 4 1028.6 4.7
5 -2 -4 1020.2 4.1
5 -2 -4 991.4 4.5
4 -2 -4 9.6 1.4
4 -2 -4 6.5 1
-4 2 4 4.1 1.4
4 -2 -4 15.6 1.2
3 -2 -4 1204.28 4.3
3 -2 -4 1317.17 5.1
-3 2 4 1303.87 5.3
3 -2 -4 1199.78 4.3
2 -2 -4 13.9 1.1
2 -2 -4 14.1 0.9
2 -2 -4 8.9 1.3
-2 2 4 9.2 1.1
1 -2 -4 1049.2 4.3
-1 2 4 1062.29 4.9
-1 2 4 998.8 4.2
1 -2 -4 1009.5 4.5
0 -2 -4 1172.88 4.7
0 2 4 1270.37 5.2
0 2 4 1169.68 4.6
0 -2 -4 1185.48 5
-1 -2 -4 1296.27 5.4
1 2 4 1190.58 4.7
-1 -2 -4 1286.77 5
1 2 4 1333.77 5.4
2 2 4 2375.16 7.1
-2 -2 -4 2141.99 6.5
2 2 4 2127.79 6.5
-2 -2 -4 2155.68 6.9
3 2 4 792.32 3.9
-3 -2 -4 900.81 4.7
-3 -2 -4 832.52 4.2
-3 -2 -4 782.52 4.3
-4 -2 -4 1311.37 5.1
-4 -2 -4 1548.95 6
4 2 4 1226.78 4.8
-4 -2 -4 1310.07 5.6
5 2 4 802.92 4
-5 -2 -4 733.33 3.7
-5 -2 -4 786.82 4.5
-5 -2 -4 814.22 4.4
6 2 4 1275.77 4.8
-6 -2 -4 1257.27 4.8
-6 -2 -4 1328.27 5.7
7 2 4 281.97 2.8
-7 -2 -4 355.16 2.8
7 2 4 346.47 2.7
-7 -2 -4 371.86 3.3
8 2 4 671.53 4
8 2 4 812.12 4.2
-8 -2 -4 885.41 5
-8 -2 -4 800.32 4.1
9 2 4 15.4 1.4
9 2 4 18.9 1.6
-9 -2 -4 17.5 1.6
-9 -2 -4 20.5 1.6
-10 -2 -4 241.08 2.9
-10 -2 -4 333.07 3.9
10 2 4 242.58 3.1
10 2 4 253.47 2.8
-7 3 4 235.08 2.9
7 -3 -4 220.18 2.5
7 -3 -4 182.88 2.3
7 -3 -4 217.28 2.9
6 -3 -4 169.58 2.1
6 -3 -4 171.38 2.3
6 -3 -4 172.18 2.3
-6 3 4 176.48 2.2
-5 3 4 408.16 3.3
5 -3 -4 405.56 2.7
5 -3 -4 406.16 2.8
5 -3 -4 440.46 3.3
-4 3 4 200.18 2.3
4 -3 -4 207.38 2.2
4 -3 -4 208.58 1.9
4 -3 -4 205.38 2
-3 3 4 852.11 4.2
3 -3 -4 819.02 3.5
3 -3 -4 782.62 3.9
3 -3 -4 763.22 3.4
2 -3 -4 26.8 0.9
2 -3 -4 26 1.1
-2 3 4 31.2 1.2
2 -3 -4 26.3 1.1
-1 3 4 1824.22 5.4
1 -3 -4 1855.21 5.5
-1 3 4 2055.89 6.3
1 -3 -4 1939.51 6
0 -3 -4 71.39 1.5
0 3 4 68.59 1.5
0 -3 -4 68.29 1.5
0 3 4 80.09 1.8
1 3 4 4558.14 8.7
-1 -3 -4 4653.73 8.8
-1 -3 -4 4882.91 9.6
1 3 4 5241.08 9.9
-2 -3 -4 7.6 1
2 3 4 19.7 1.3
-2 -3 -4 7.6 0.9
2 3 4 11.6 1.1
-3 -3 -4 2424.76 6.8
-3 -3 -4 2560.24 6.7
-3 -3 -4 2773.62 7.4
3 3 4 2507.25 6.7
-4 -3 -4 246.58 2.4
-4 -3 -4 235.68 2.4
4 3 4 238.88 2.2
-4 -3 -4 291.37 2.5
5 3 4 1661.73 5.5
-5 -3 -4 1686.03 5.5
-5 -3 -4 1853.81 6.2
-5 -3 -4 1995.6 6.3
-6 -3 -4 504.85 3.3
6 3 4 540.35 3.1
-6 -3 -4 519.95 3.1
7 3 4 409.46 3.1
7 3 4 554.34 3.3
-7 -3 -4 515.85 3.6
-7 -3 -4 514.05 3.1
8 3 4 429.56 3.2
8 3 4 563.04 3.7
-8 -3 -4 589.34 3.9
-8 -3 -4 532.85 3.6
9 3 4 61.49 1.5
9 3 4 76.49 1.6
-9 -3 -4 68.69 2.1
-9 -3 -4 71.09 1.8
7 -4 -4 21.7 1.3
-7 4 4 22.1 1.6
7 -4 -4 20.2 1.5
7 -4 -4 23.1 1.7
6 -4 -4 276.77 2.5
-6 4 4 266.57 3
6 -4 -4 242.88 2.3
6 -4 -4 275.47 3
5 -4 -4 203.48 2.4
5 -4 -4 176.88 2
-5 4 4 175.88 2.3
5 -4 -4 163.28 1.8
4 -4 -4 336.37 2.5
4 -4 -4 341.47 2.6
-4 4 4 360.76 2.9
4 -4 -4 358.86 2.9
3 -4 -4 679.23 3.3
-3 4 4 714.23 3.9
3 -4 -4 693.63 3.8
3 -4 -4 702.43 3.3
2 -4 -4 517.15 2.8
2 -4 -4 517.45 2.8
2 -4 -4 565.84 3.3
-2 4 4 598.34 3.5
-1 4 4 1807.52 5.8
-1 4 4 1571.24 4.9
1 -4 -4 1684.63 5
1 -4 -4 1749.82 5.6
0 4 4 1461.75 4.8
0 -4 -4 1524.95 4.8
0 -4 -4 1548.65 5.2
0 4 4 1704.73 5.5
1 4 4 2157.78 5.8
1 4 4 2486.05 6.6
-1 -4 -4 2332.37 6.1
-1 -4 -4 2333.07 6.4
-2 -4 -4 338.07 2.6
2 4 4 367.66 2.5
-2 -4 -4 387.76 2.7
-2 -4 -4 374.96 2.8
-3 -4 -4 1752.12 5.7
3 4 4 1617.14 5.2
-3 -4 -4 1512.45 5.2
-3 -4 -4 1636.24 5.2
-4 -4 -4 148.49 2.1
-4 -4 -4 132.99 1.8
-4 -4 -4 128.09 1.7
4 4 4 131.09 1.8
-5 -4 -4 1347.67 4.9
-5 -4 -4 1196.28 4.6
5 4 4 1208.98 4.5
-5 -4 -4 1172.48 4.5
-6 -4 -4 49.4 1.7
6 4 4 50.39 1.7
-6 -4 -4 44.8 1.5
7 4 4 480.55 3.2
-7 -4 -4 511.55 3.4
7 4 4 384.96 2.8
-7 -4 -4 467.65 3.2
8 4 4 80.59 1.8
8 4 4 67.39 1.7
-8 -4 -4 76.99 1.7
-8 -4 -4 74.49 1.8
9 4 4 96.89 2.8
9 4 4 263.47 3
-9 -4 -4 280.67 3.2
-9 -4 -4 -32.2 3
6 -5 -4 426.16 3.7
6 -5 -4 374.26 2.9
6 -5 -4 362.26 2.8
-6 5 4 407.26 3.7
5 -5 -4 9 1.3
5 -5 -4 6.5 1.2
-5 5 4 7.2 1.2
5 -5 -4 8.8 0.9
4 -5 -4 826.52 3.7
4 -5 -4 912.41 4.4
4 -5 -4 875.11 3.9
-4 5 4 918.61 4.4
-3 5 4 118.19 1.9
3 -5 -4 107.89 1.5
3 -5 -4 116.19 1.9
3 -5 -4 110.29 1.6
2 -5 -4 1513.85 4.7
-2 5 4 1666.63 5.6
2 -5 -4 1623.04 5.3
2 -5 -4 1448.26 4.5
1 -5 -4 316.77 2.3
1 -5 -4 353.66 2.6
-1 5 4 383.66 2.8
0 -5 -4 1039.7 4.2
0 -5 -4 971.2 3.8
0 5 4 992.1 3.9
0 5 4 1105.79 4.4
-1 -5 -4 278.67 2.2
-1 -5 -4 258.07 2.2
1 5 4 258.87 2.1
-2 -5 -4 675.23 3.4
2 5 4 774.52 3.5
-2 -5 -4 799.62 3.5
-2 -5 -4 776.62 3.7
3 5 4 602.94 3.2
-3 -5 -4 541.05 3
-3 -5 -4 624.74 3.4
-3 -5 -4 596.14 3.1
-4 -5 -4 257.27 2.2
-4 -5 -4 249.28 2.3
-4 -5 -4 277.17 2.4
4 5 4 270.37 2.3
-5 -5 -4 965.5 4.1
-5 -5 -4 1089.59 4.5
5 5 4 996.8 4.3
-5 -5 -4 948.51 4.2
6 5 4 78.59 1.7
-6 -5 -4 75.89 1.5
-6 -5 -4 88.19 1.7
7 5 4 678.03 3.7
7 5 4 789.92 4.1
-7 -5 -4 784.62 4
-7 -5 -4 787.52 4
8 5 4 36.3 1.6
-8 -5 -4 48.2 1.7
8 5 4 48 1.7
-8 -5 -4 42 1.7
9 5 4 275.87 2.9
9 5 4 282.37 3.2
-9 -5 -4 300.07 3.2
-9 -5 -4 335.57 3.3
6 -6 -4 157.58 2.5
6 -6 -4 150.88 2.1
-6 6 4 164.08 2.7
6 -6 -4 141.59 2.2
5 -6 -4 123.39 1.8
5 -6 -4 144.69 2.4
-5 6 4 137.59 2.1
5 -6 -4 122.49 1.8
4 -6 -4 561.64 3.3
4 -6 -4 580.44 3.3
4 -6 -4 579.64 3.7
-4 6 4 628.44 3.8
3 -6 -4 67.59 1.3
3 -6 -4 69.69 1.4
-3 6 4 74.09 1.6
3 -6 -4 68.99 1.3
2 -6 -4 928.71 3.7
2 -6 -4 889.01 3.7
2 -6 -4 900.21 4
-2 6 4 962.6 4.3
1 -6 -4 60.99 1.2
1 -6 -4 61.99 1.3
1 -6 -4 68.79 1.4
-1 6 4 67.29 1.4
0 6 4 898.41 3.7
0 -6 -4 938.91 3.8
0 -6 -4 909.91 3.6
-1 -6 -4 3.1 1
-1 -6 -4 4.5 0.7
1 6 4 3.8 1.1
-1 -6 -4 3.6 0.8
-2 -6 -4 1289.17 4.6
-2 -6 -4 1073.49 4.2
2 6 4 1175.18 4.3
-2 -6 -4 1256.97 4.5
3 6 4 296.07 2.3
-3 -6 -4 292.77 2.3
-3 -6 -4 315.57 2.5
-3 -6 -4 345.47 2.6
-4 -6 -4 709.43 3.6
4 6 4 645.64 3.4
-4 -6 -4 656.13 3.5
-4 -6 -4 627.44 3.3
5 6 4 214.78 2.1
-5 -6 -4 241.28 2.2
-5 -6 -4 217.88 2.3
-5 -6 -4 256.47 2.4
6 6 4 1088.09 4.8
-6 -6 -4 1082.29 4.7
-6 -6 -4 1122.49 4.6
-6 -6 -4 1217.68 5
7 6 4 313.47 2.9
-7 -6 -4 295.87 2.7
-7 -6 -4 312.07 2.9
-8 -6 -4 226.88 2.8
8 6 4 238.08 2.8
-8 -6 -4 217.28 2.9
-5 7 4 235.58 3
5 -7 -4 197.28 2.1
5 -7 -4 218.18 2.9
5 -7 -4 206.88 2.3
4 -7 -4 168.38 1.9
-4 7 4 200.08 2.5
4 -7 -4 97.29 2.4
4 -7 -4 16.7 2.2
-3 7 4 151.78 2.1
3 -7 -4 141.19 1.7
3 -7 -4 148.79 2
3 -7 -4 134.29 1.7
2 -7 -4 -10.4 2.2
-2 7 4 223.98 2.3
2 -7 -4 199.78 2
2 -7 -4 204.18 1.9
1 -7 -4 133.19 1.8
1 -7 -4 128.49 1.7
1 -7 -4 145.59 1.8
0 -7 -4 732.03 3.7
0 7 4 793.62 3.7
0 -7 -4 782.12 3.5
0 -7 -4 862.91 3.8
-1 -7 -4 19.7 1
1 7 4 18.9 1.1
-1 -7 -4 14.6 0.8
-1 -7 -4 11.4 1.3
-2 -7 -4 999.3 4.2
2 7 4 1097.99 4.2
-2 -7 -4 1155.08 4.3
-2 -7 -4 869.01 4.6
-3 -7 -4 3.5 1
-3 -7 -4 -0.9 1.3
3 7 4 1.6 1
-3 -7 -4 2 1
4 7 4 889.11 4.1
-4 -7 -4 895.81 4.2
-4 -7 -4 955.4 4.3
-4 -7 -4 1038.7 4.4
-5 -7 -4 110.99 1.9
5 7 4 120.79 1.7
-5 -7 -4 115.49 1.9
-5 -7 -4 125.79 2
6 7 4 846.12 4.3
-6 -7 -4 857.31 4.4
-6 -7 -4 729.33 4.4
-6 -7 -4 925.71 4.7
-7 -7 -4 13.8 1.2
7 7 4 11.6 1.2
-7 -7 -4 11.4 1.4
-7 -7 -4 11.7 1.1
8 7 4 149.19 2.5
-8 -7 -4 115.19 2.6
-8 -7 -4 172.48 2.6
4 -8 -4 20.5 1.3
4 -8 -4 21 1.4
4 -8 -4 18.4 1.4
-4 8 4 24.9 1.5
3 -8 -4 190.58 2.1
3 -8 -4 210.68 2.3
3 -8 -4 16.4 2.3
2 -8 -4 57.09 1.4
2 -8 -4 61.99 1.4
2 -8 -4 10.8 1.8
2 -8 -4 58.79 1.3
1 -8 -4 399.46 2.7
1 -8 -4 365.36 3
1 -8 -4 439.36 3
1 -8 -4 401.46 2.8
0 -8 -4 260.97 2.4
0 -8 -4 269.17 2.2
0 -8 -4 269.57 2.3
-1 -8 -4 490.55 2.9
-1 -8 -4 462.85 3.1
-1 -8 -4 518.45 3
1 8 4 496.55 3
-2 -8 -4 489.55 3
-2 -8 -4 475.25 2.9
-2 -8 -4 462.65 3.2
2 8 4 467.75 3
3 8 4 361.46 2.7
-3 -8 -4 319.27 2.6
-3 -8 -4 393.96 2.9
-3 -8 -4 379.86 2.8
4 8 4 364.46 2.8
-4 -8 -4 379.16 2.8
-4 -8 -4 423.36 3.1
-4 -8 -4 368.06 2.7
-5 -8 -4 124.79 2.1
5 8 4 108.19 1.7
-5 -8 -4 112.69 2
-5 -8 -4 113.39 1.8
-6 -8 -4 246.68 2.7
6 8 4 261.47 2.8
-6 -8 -4 272.07 2.9
-6 -8 -4 242.38 2.4
-7 -8 -4 1.1 1.4
-7 -8 -4 1.9 1.5
7 8 4 3.2 1.2
-7 -8 -4 0.7 1.3
3 -9 -4 395.76 3.1
3 -9 -4 343.87 3.5
3 -9 -4 392.96 3.5
3 -9 -4 390.86 3.1
2 -9 -4 1.5 1
2 -9 -4 1 1
2 -9 -4 2 1.1
2 -9 -4 1.4 1.2
1 -9 -4 591.64 3.4
1 -9 -4 563.64 3.8
1 -9 -4 537.35 3.3
1 -9 -4 623.24 3.6
0 -9 -4 3.7 0.9
0 -9 -4 5.7 1
0 -9 -4 2.4 1
0 -9 -4 1.9 1
-1 -9 -4 582.54 3.6
-1 -9 -4 654.43 3.7
-1 -9 -4 651.63 3.6
1 9 4 646.84 3.7
2 9 4 25.9 1.1
-2 -9 -4 25.7 1.6
-2 -9 -4 28.3 1.2
-2 -9 -4 28.3 1.3
3 9 4 339.07 2.9
-3 -9 -4 324.77 2.8
-3 -9 -4 362.86 3
-3 -9 -4 348.17 3.1
4 9 4 84.39 1.8
-4 -9 -4 99.79 1.8
-4 -9 -4 76.79 1.7
-4 -9 -4 87.89 1.9
5 9 4 106.09 1.9
-5 -9 -4 115.89 1.9
-5 -9 -4 123.09 2.2
-5 -9 -4 126.19 2
2 -10 -4 75.39 1.9
2 -10 -4 74.49 1.7
2 -10 -4 71.79 1.8
2 -10 -4 77.49 1.8
1 -10 -4 117.19 2
1 -10 -4 119.49 2
1 -10 -4 94.29 1.9
1 -10 -4 105.89 1.8
0 -10 -4 43.3 1.4
0 -10 -4 43 1.5
0 -10 -4 45.1 1.5
0 -10 -4 49.5 1.6
-1 -10 -4 211.68 2.8
-1 -10 -4 186.28 2.3
-1 -10 -4 214.98 2.6
2 10 4 1.5 1.2
-2 -10 -4 4.9 1.3
-2 -10 -4 1.6 1.4
-2 -10 -4 1.2 1.2
3 10 4 199.08 2.6
-3 -10 -4 201.58 2.6
-3 -10 -4 204.78 2.4
-3 -10 -4 191.68 2.5
4 10 4 6.2 1.3
-4 -10 -4 4 1.4
-4 -10 -4 6 1.3
-4 -10 -4 4.7 1.1
1 9 -5 292.77 3.3
-1 -9 5 289.27 3.3
0 9 -5 85.99 2.3
0 -9 5 75.59 1.9
-1 9 -5 194.78 2.8
1 -9 5 180.78 2.6
-2 9 -5 157.48 2.5
2 -9 5 155.38 2.4
3 -9 5 89.59 2.5
4 -9 5 320.57 4.8
4 -9 5 263.07 4.3
4 -9 5 284.67 4.9
4 -9 5 312.87 4.4
3 8 -5 262.67 3.3
-3 -8 5 354.96 3.5
2 8 -5 16.4 1.8
-2 -8 5 0.1 1.4
1 8 -5 302.77 3
-1 -8 5 281.57 3
0 8 -5 2.4 1.4
0 -8 5 3.6 1
1 -8 5 364.86 3.4
-1 8 -5 385.46 3.4
-2 8 -5 32.9 1.5
2 -8 5 16.8 1.7
-3 8 -5 370.96 3.7
3 -8 5 383.26 5.4
3 -8 5 353.96 5.9
3 -8 5 406.46 4
4 -8 5 247.18 3.9
4 -8 5 224.38 3.4
4 -8 5 240.68 3.7
4 -8 5 265.87 3.7
5 -8 5 183.78 5.8
5 -8 5 240.58 3.5
5 -8 5 306.17 5.8
-6 8 -5 229.08 3.2
6 -8 5 165.28 2.9
-4 -7 5 157.68 2.7
4 7 -5 158.68 2.4
3 7 -5 131.49 2.2
-3 -7 5 143.49 2.5
2 7 -5 178.18 2.3
-2 -7 5 188.88 2.5
1 7 -5 482.15 3.5
-1 -7 5 478.95 3.7
0 7 -5 118.09 2.2
0 -7 5 99.09 1.8
-1 7 -5 840.82 4.6
1 -7 5 794.62 4.5
-2 7 -5 13.5 1.1
2 -7 5 12.3 1.4
3 -7 5 1010 6
3 -7 5 935.11 6.7
-3 7 -5 1018.9 5.7
3 -7 5 954.6 7.3
-4 7 -5 30.1 1.8
4 -7 5 32 1.9
4 -7 5 35.1 2.1
4 -7 5 32.5 1.9
-5 7 -5 901.11 5.3
5 -7 5 833.42 13.1
5 -7 5 750.52 5
5 -7 5 821.32 13.1
-6 7 -5 -0.4 1.3
6 -7 5 1.9 1.3
-7 7 -5 336.57 3.3
7 -7 5 283.37 3.3
-5 -6 5 5 1.3
5 6 -5 5.5 1.6
5 6 -5 1.9 1.7
5 6 -5 7.1 2.1
-4 -6 5 410.96 3.5
4 6 -5 371.66 5.8
4 6 -5 348.87 3.1
4 6 -5 387.66 6.4
3 6 -5 67.29 1.7
-3 -6 5 3.5 1.9
2 6 -5 769.32 4.2
-2 -6 5 809.12 4.3
1 6 -5 522.15 3.7
-1 -6 5 511.45 3.4
0 6 -5 617.14 3.9
0 -6 5 538.45 3.6
-1 6 -5 1108.69 5.4
1 -6 5 1025.5 5
2 -6 5 601.64 8.4
2 -6 5 595.74 8.4
-2 6 -5 640.84 4.5
2 -6 5 621.84 4.3
-3 6 -5 1128.39 7.5
3 -6 5 1197.18 6.5
-3 6 -5 1182.28 6.4
3 -6 5 1155.78 7.2
4 -6 5 374.36 4.5
4 -6 5 343.07 3.7
-4 6 -5 394.66 3.9
5 -6 5 596.64 4.3
-5 6 -5 736.93 4.5
6 -6 5 20.4 1.5
-6 6 -5 19.7 1.5
7 -6 5 340.47 3.3
-7 6 -5 388.96 3.4
8 -6 5 -0.7 1.3
-8 6 -5 2 1.3
-5 -5 5 50.09 1.5
5 5 -5 42.6 1.8
5 5 -5 38 1.8
5 5 -5 41.4 2.3
-4 -5 5 692.83 4.1
4 5 -5 670.03 5.4
4 5 -5 592.54 3.9
4 5 -5 574.34 5.9
-3 -5 5 12.2 1.1
3 5 -5 5.3 1.9
3 5 -5 14.7 1.5
3 5 -5 14.5 2.1
-2 -5 5 1542.35 5.6
2 5 -5 1500.35 5.5
1 5 -5 14.4 1.7
-1 -5 5 11.8 1.7
0 5 -5 2106.09 6.9
0 -5 5 2013.4 6.6
1 -5 5 125.89 2.2
-1 5 -5 140.49 2.1
2 -5 5 1798.32 7.3
2 -5 5 1648.94 9.3
-2 5 -5 1802.42 7.5
-2 5 -5 1836.22 10.9
3 -5 5 213.78 3
-3 5 -5 216.78 3.1
3 -5 5 206.08 3
-3 5 -5 229.48 3.2
4 -5 5 495.85 5.4
-4 5 -5 498.15 5.3
4 -5 5 495.15 4
-4 5 -5 513.55 4
5 -5 5 384.06 3.5
-5 5 -5 406.66 3.4
6 -5 5 167.48 2.2
-6 5 -5 200.08 2.5
7 -5 5 401.36 3.3
-7 5 -5 471.65 3.3
8 -5 5 111.59 2.2
-8 5 -5 129.99 2
6 4 -5 103.29 2.3
6 4 -5 105.09 1.9
6 4 -5 15.4 2.6
-6 -4 5 112.19 2.1
5 4 -5 297.67 3.2
-5 -4 5 336.57 3.2
5 4 -5 301.77 3
5 4 -5 344.57 3.8
-4 -4 5 593.74 3.7
4 4 -5 520.75 4.2
4 4 -5 523.05 3.4
4 4 -5 598.54 5.1
-3 -4 5 355.16 2.9
3 4 -5 353.56 3.5
3 4 -5 348.97 3
3 4 -5 375.16 4.5
-2 -4 5 811.72 4.3
2 4 -5 808.02 6
2 4 -5 719.73 3.9
2 4 -5 812.32 7.3
-1 -4 5 283.37 2.5
1 4 -5 266.17 5.6
1 4 -5 288.87 2.5
1 4 -5 303.87 6.8
0 -4 5 1211.28 5.3
0 4 -5 1177.98 5.1
1 -4 5 169.58 2.4
1 -4 5 148.89 3.9
-1 4 -5 160.38 2.3
-1 4 -5 159.88 4.9
2 -4 5 1100.29 5.8
2 -4 5 1042.7 6.5
-2 4 -5 1166.08 6.1
-2 4 -5 1108.69 7.8
3 -4 5 15.5 1.5
3 -4 5 12.4 1.4
-3 4 -5 15 1.8
-3 4 -5 12.7 1.5
-4 4 -5 1745.83 10.9
4 -4 5 1641.54 6.7
-4 4 -5 1672.93 6.9
4 -4 5 1662.33 10.1
5 -4 5 101.09 1.8
-5 4 -5 104.49 2
6 -4 5 1086.29 4.9
-6 4 -5 1121.09 5.1
7 -4 5 115.59 2.1
-7 4 -5 125.49 2
8 -4 5 583.94 3.7
-8 4 -5 644.64 3.7
9 -4 5 71.09 1.7
-9 4 -5 83.69 1.8
6 3 -5 11.1 1.4
-6 -3 5 7.1 1.2
6 3 -5 9.2 1.5
6 3 -5 11.2 1.5
5 3 -5 804.02 4.5
-5 -3 5 840.32 4.5
5 3 -5 379.16 4.4
5 3 -5 828.32 5.2
4 3 -5 11.6 1.3
-4 -3 5 14.7 1.1
4 3 -5 8.6 1.4
4 3 -5 11.6 1.5
-3 -3 5 1126.69 5.1
3 3 -5 1088.69 5.3
3 3 -5 1013.9 4.6
3 3 -5 1191.18 6.5
-2 -3 5 103.19 1.7
2 3 -5 108.19 2.2
2 3 -5 94.69 1.8
2 3 -5 102.69 2.5
-1 -3 5 759.12 4
1 3 -5 823.02 5.7
1 3 -5 756.82 4.2
1 3 -5 808.22 6.4
0 3 -5 455.75 4.9
0 -3 5 447.96 3.4
0 3 -5 427.96 4.9
0 3 -5 419.66 3.3
1 -3 5 718.03 4.4
1 -3 5 682.23 5.3
-1 3 -5 701.13 6.4
-1 3 -5 688.13 4.5
2 -3 5 1580.34 7
2 -3 5 1584.44 7
-2 3 -5 1689.93 8.6
-2 3 -5 1619.04 7.4
3 -3 5 377.36 3.4
3 -3 5 397.26 4
-3 3 -5 430.86 4.6
-3 3 -5 423.16 4
4 -3 5 2693.23 12.9
4 -3 5 2543.65 8
-4 3 -5 2789.92 15.1
-4 3 -5 2642.74 8.6
5 -3 5 240.58 2.7
-5 3 -5 238.38 2.7
6 -3 5 1608.74 5.8
-6 3 -5 1717.43 5.9
7 -3 5 27.8 1.3
-7 3 -5 34 1.6
-8 3 -5 758.52 4.1
8 -3 5 652.23 4
9 -3 5 0.8 1.3
-9 3 -5 0.4 1.3
6 2 -5 177.08 2.3
-6 -2 5 181.98 2.3
6 2 -5 132.69 2.1
6 2 -5 168.98 2.5
5 2 -5 541.45 3.4
-5 -2 5 528.85 3.7
5 2 -5 484.15 3.5
5 2 -5 524.15 3.8
4 2 -5 170.28 2.2
-4 -2 5 172.48 2.3
4 2 -5 153.08 2.2
4 2 -5 166.08 2.4
3 2 -5 924.01 4.5
3 2 -5 870.91 4.2
3 2 -5 926.41 5.1
-3 -2 5 956 4.5
-2 -2 5 13.3 1.3
2 2 -5 11.1 1.2
2 2 -5 13.5 1.4
2 2 -5 12.2 1.3
-1 -2 5 2390.46 7.1
1 2 -5 2368.76 7.4
1 2 -5 2574.94 8.4
1 2 -5 2511.15 8.5
0 -2 5 206.28 2.5
0 2 -5 195.08 2.7
0 -2 5 202.68 2.7
0 2 -5 192.48 2.4
1 -2 5 3111.69 9.5
1 -2 5 3256.27 9.1
-1 2 -5 3139.49 10.1
-1 2 -5 3109.59 9.5
2 -2 5 778.02 4.7
2 -2 5 779.22 4.8
-2 2 -5 734.63 4.9
-2 2 -5 739.83 5.4
3 -2 5 1725.73 6.6
-3 2 -5 1910.51 7.3
3 -2 5 1870.11 8
-3 2 -5 1607.34 8.9
4 -2 5 295.37 2.7
4 -2 5 334.97 4.3
-4 2 -5 310.67 3
-4 2 -5 283.07 4.8
5 -2 5 1482.95 5.6
-5 2 -5 1397.46 22
-5 2 -5 1523.45 5.8
-5 2 -5 1586.64 22.6
6 -2 5 1235.28 4.9
-6 2 -5 1257.77 5
7 -2 5 218.08 2.4
-7 2 -5 228.58 2.4
8 -2 5 395.36 3.1
-8 2 -5 465.35 3.2
9 -2 5 32.8 1.3
-9 2 -5 37.1 1.3
10 -2 5 234.98 2.6
-10 2 -5 189.68 2.7
7 1 -5 50.29 1.7
-7 -1 5 63.39 2
7 1 -5 51.09 1.9
7 1 -5 47.3 1.8
6 1 -5 306.57 2.8
-6 -1 5 322.57 3.1
6 1 -5 274.27 2.8
6 1 -5 303.47 2.9
-5 -1 5 165.18 2.1
5 1 -5 158.28 2.1
5 1 -5 143.89 2
5 1 -5 158.78 2.3
4 1 -5 139.49 1.9
4 1 -5 118.09 1.9
-4 -1 5 138.89 2.1
4 1 -5 133.49 1.9
3 1 -5 578.74 3.4
-3 -1 5 583.44 3.5
3 1 -5 532.85 3.3
3 1 -5 563.14 3.4
2 1 -5 648.64 3.8
-2 -1 5 619.24 3.7
2 1 -5 564.94 3.6
2 1 -5 635.74 3.8
1 1 -5 2644.84 7.7
1 1 -5 2628.24 7.7
-1 -1 5 2574.64 7.5
1 1 -5 2420.06 7.6
0 1 -5 353.16 3.3
0 1 -5 337.87 3.1
0 -1 5 351.66 3.1
0 -1 5 332.77 3
-1 1 -5 2637.34 8.7
-1 1 -5 2676.13 8.2
1 -1 5 2708.53 8
1 -1 5 2731.33 8.3
2 -1 5 184.28 2.4
-2 1 -5 196.58 3
-2 1 -5 182.78 2.5
2 -1 5 191.18 2.6
-3 1 -5 1400.06 7.4
3 -1 5 1583.34 5.9
3 -1 5 1743.53 7.2
-3 1 -5 1512.95 6.1
4 -1 5 40.8 1.7
4 -1 5 40 1.6
-4 1 -5 35 2
-4 1 -5 41.2 1.6
-5 1 -5 1669.53 9.6
5 -1 5 1763.62 5.7
-5 1 -5 1700.63 5.8
-5 1 -5 1557.64 9.2
-6 1 -5 187.78 3.9
-6 1 -5 181.28 3.5
-6 1 -5 164.48 1.9
6 -1 5 165.98 2.1
7 -1 5 316.77 2.7
-7 1 -5 355.16 4.7
-7 1 -5 331.07 2.8
-7 1 -5 371.06 5.6
-8 1 -5 34.9 2.4
8 -1 5 30.8 1.5
-8 1 -5 39.7 1.6
-8 1 -5 35.9 2
-9 1 -5 355.66 6.3
9 -1 5 296.97 2.9
-9 1 -5 315.57 2.8
-9 1 -5 334.87 5.6
-10 1 -5 243.08 2.7
10 -1 5 214.48 2.5
-10 1 -5 227.38 5.7
-10 1 -5 257.47 5.7
7 0 -5 0 1
7 0 -5 0.8 1.4
-7 0 5 1.5 1.6
7 0 -5 4.5 1.1
6 0 -5 388.66 2.9
-6 0 5 437.06 3.2
6 0 -5 359.46 3.1
6 0 -5 398.66 3.2
5 0 -5 127.69 1.7
-5 0 5 25.9 2.4
5 0 -5 122.49 2.1
5 0 -5 120.29 2
-4 0 5 1156.48 4.7
4 0 -5 1199.48 4.5
4 0 -5 1140.09 4.7
4 0 -5 1100.39 4.6
3 0 -5 460.85 3
-3 0 5 432.96 3
3 0 -5 411.26 2.8
3 0 -5 439.76 3
2 0 -5 2484.55 6.9
2 0 -5 2715.33 6.9
-2 0 5 2606.94 7.2
2 0 -5 2659.63 6.8
1 0 -5 1130.89 4.6
1 0 -5 1165.68 4.7
1 0 -5 1093.09 4.8
-1 0 5 1115.29 4.9
0 0 5 1420.26 5.4
0 0 -5 1489.45 5.9
0 0 5 1559.74 5.9
0 0 -5 1600.84 5.8
1 0 5 879.91 4.3
-1 0 -5 852.31 4.7
1 0 5 943.81 4.8
-1 0 -5 886.21 4.4
2 0 5 742.73 4.3
2 0 5 645.64 3.7
-2 0 -5 655.23 3.9
-2 0 -5 644.84 4.3
3 0 5 1617.14 6.5
3 0 5 1460.85 5.5
-3 0 -5 1469.95 5.5
-3 0 -5 1321.87 6.3
4 0 5 52.89 1.8
-4 0 -5 44.4 1.7
4 0 5 45.5 1.3
-4 0 -5 45.3 1.6
-5 0 -5 1457.75 7.1
5 0 5 1440.96 5.3
-5 0 -5 1485.35 7
-5 0 -5 1462.75 5.4
-6 0 -5 19.5 1.5
6 0 5 13.1 0.9
-6 0 -5 15.1 1.2
-6 0 -5 14.1 1.3
7 0 5 732.23 3.8
-7 0 -5 821.52 5.3
-7 0 -5 822.02 5.8
-7 0 -5 729.03 3.9
8 0 5 11.4 1.3
-8 0 -5 4.4 1.4
-8 0 -5 12 1.5
-8 0 -5 12.9 1.7
9 0 5 759.72 4.1
-9 0 -5 759.12 4.1
-9 0 -5 782.02 7.2
-9 0 -5 888.11 6.3
-10 0 -5 19.4 2.1
10 0 5 3.1 1.2
-10 0 -5 12.9 1.5
-10 0 -5 14.2 1.8
7 -1 -5 46 1.4
-7 1 5 8.1 1.9
7 -1 -5 42.3 1.7
7 -1 -5 11 1.7
6 -1 -5 483.45 3.1
-6 1 5 541.95 3.6
6 -1 -5 459.05 3.4
6 -1 -5 457.65 3.2
5 -1 -5 15.4 1.3
-5 1 5 17.9 1.2
5 -1 -5 17.3 1.3
5 -1 -5 17.8 1.2
4 -1 -5 1463.15 4.9
-4 1 5 1415.06 5.2
4 -1 -5 1367.96 5
4 -1 -5 1446.06 5.2
3 -1 -5 15 1.2
3 -1 -5 15.3 0.9
-3 1 5 15.9 0.9
3 -1 -5 16 1.2
2 -1 -5 1186.68 4.4
2 -1 -5 1166.58 4.7
2 -1 -5 1162.88 4.4
-2 1 5 1176.28 4.8
1 -1 -5 25.2 1.3
1 -1 -5 21.4 1.1
-1 1 5 20.9 1.1
0 1 5 1878.61 5.7
0 -1 -5 1990.7 6.1
0 -1 -5 1727.33 6.1
0 1 5 1837.82 6.1
-1 -1 -5 158.28 1.9
-1 -1 -5 152.88 2.3
1 1 5 171.28 2.3
1 1 5 152.08 1.8
2 1 5 1183.58 4.7
-2 -1 -5 1245.18 4.9
2 1 5 1357.16 5.4
-2 -1 -5 1186.68 5.3
-3 -1 -5 813.12 4.5
-3 -1 -5 804.92 3.9
3 1 5 939.91 4.7
3 1 5 798.02 4
-4 -1 -5 971 4.4
-4 -1 -5 1096.59 5.4
-4 -1 -5 986.2 4.9
4 1 5 952 4.2
-5 -1 -5 1102.99 5.4
-5 -1 -5 999 5.3
5 1 5 1010.5 4.2
-5 -1 -5 991.1 4.3
-6 -1 -5 564.94 4.1
6 1 5 549.74 3.2
-6 -1 -5 526.65 3.1
-6 -1 -5 556.24 3.8
-7 -1 -5 820.72 4.8
7 1 5 744.93 3.8
-7 -1 -5 823.02 5.2
-7 -1 -5 749.23 3.8
8 1 5 179.68 2.3
-8 -1 -5 209.18 3
-8 -1 -5 191.48 2.1
-8 -1 -5 202.98 2.7
-9 -1 -5 314.57 3.4
9 1 5 294.07 2.8
-9 -1 -5 290.47 2.7
-9 -1 -5 347.47 3.8
10 1 5 46 1.5
-10 -1 -5 56.79 2.2
-10 -1 -5 48.2 1.8
-10 -1 -5 56.49 2.3
7 -2 -5 215.68 2.5
7 -2 -5 18.9 2.7
7 -2 -5 204.98 2.5
-7 2 5 218.78 3
6 -2 -5 168.38 2.1
6 -2 -5 149.49 1.9
-6 2 5 184.38 2.5
6 -2 -5 166.38 2.3
5 -2 -5 389.76 2.7
-5 2 5 414.36 3.2
5 -2 -5 369.46 2.7
5 -2 -5 386.16 3
4 -2 -5 446.06 3.1
4 -2 -5 434.46 2.6
-4 2 5 430.96 3.1
4 -2 -5 428.76 2.6
3 -2 -5 242.88 2.3
3 -2 -5 224.88 2
-3 2 5 250.47 2.5
3 -2 -5 213.88 1.9
2 -2 -5 679.63 3.3
2 -2 -5 681.53 3.2
2 -2 -5 649.34 3.5
-2 2 5 705.93 3.9
-1 2 5 318.77 2.6
-1 2 5 313.07 2.3
1 -2 -5 286.37 2.5
1 -2 -5 331.57 2.4
0 -2 -5 1903.41 5.6
0 2 5 1839.32 5.9
0 2 5 1732.93 5.3
0 -2 -5 1689.93 5.6
1 2 5 99.59 1.7
1 2 5 113.09 1.7
-1 -2 -5 97.89 1.7
-1 -2 -5 106.89 1.9
-2 -2 -5 1905.91 6.2
2 2 5 2180.08 6.5
-2 -2 -5 1907.71 5.7
2 2 5 1838.82 5.5
-3 -2 -5 9.2 1
3 2 5 1.4 1.1
-3 -2 -5 2.4 1.1
3 2 5 4.2 0.9
-4 -2 -5 4039.5 9.2
-4 -2 -5 3545.25 8.5
-4 -2 -5 3229.48 7.5
4 2 5 3438.46 7.8
5 2 5 7.2 1.1
-5 -2 -5 9.1 0.8
-5 -2 -5 9.8 1.4
-5 -2 -5 8 1
-6 -2 -5 1782.72 6.1
-6 -2 -5 1769.72 6.4
6 2 5 1710.63 5.4
-6 -2 -5 1642.14 5.3
-7 -2 -5 66.29 1.7
-7 -2 -5 68.09 1.8
7 2 5 62.19 1.7
-7 -2 -5 59.49 1.6
8 2 5 501.05 3.3
-8 -2 -5 516.85 3.7
-8 -2 -5 470.15 3.2
-8 -2 -5 528.85 3.9
-9 -2 -5 73.29 1.8
9 2 5 81.19 1.9
-9 -2 -5 90.19 2.2
-9 -2 -5 76.09 1.6
10 2 5 125.29 2.3
-10 -2 -5 128.49 2.4
-10 -2 -5 129.79 2.2
-10 -2 -5 130.09 2.5
-6 3 5 19.6 1.2
6 -3 -5 22 1.5
6 -3 -5 18.6 1.1
6 -3 -5 19.9 1.2
-5 3 5 513.75 3.4
5 -3 -5 491.95 3.2
5 -3 -5 479.45 3.1
5 -3 -5 530.95 3.5
-4 3 5 249.08 2.4
4 -3 -5 257.47 2.6
4 -3 -5 234.18 2
4 -3 -5 228.18 2
3 -3 -5 653.13 3.3
-3 3 5 723.83 3.7
3 -3 -5 709.43 3.7
3 -3 -5 639.94 3.1
2 -3 -5 588.74 2.9
2 -3 -5 655.03 3.1
2 -3 -5 642.54 3.4
-2 3 5 702.63 3.7
1 -3 -5 806.82 3.5
-1 3 5 892.01 4.1
1 -3 -5 783.02 3.7
-1 3 5 772.22 3.4
0 -3 -5 2384.06 6
0 3 5 2215.98 5.8
0 3 5 2573.04 6.8
0 -3 -5 2278.87 6.3
-1 -3 -5 86.19 1.5
1 3 5 86.89 1.4
1 3 5 98.39 1.8
-1 -3 -5 80.69 1.3
2 3 5 2109.69 5.8
-2 -3 -5 2142.29 5.8
2 3 5 2416.96 6.6
-2 -3 -5 2189.58 6.3
3 3 5 815.72 3.7
-3 -3 -5 819.72 3.7
-3 -3 -5 914.91 4.1
4 3 5 1799.42 5.3
-4 -3 -5 2074.49 6.4
-4 -3 -5 1783.12 5.3
-4 -3 -5 1856.21 5.8
5 3 5 47.8 1.1
-5 -3 -5 47.7 1.7
-5 -3 -5 48.3 1.3
-5 -3 -5 52.69 1.4
-6 -3 -5 951.6 4.5
6 3 5 959 4.3
-6 -3 -5 938.51 4.2
-6 -3 -5 1034.8 4.6
7 3 5 18.6 1.1
-7 -3 -5 19.8 1.4
-7 -3 -5 18.8 1.3
-7 -3 -5 19.3 1.4
-8 -3 -5 422.76 3.2
-8 -3 -5 451.15 3.4
8 3 5 414.06 3.2
-8 -3 -5 301.27 3.3
-9 -3 -5 46.2 1.8
9 3 5 41.3 1.6
-9 -3 -5 38 1.6
-9 -3 -5 42 1.6
6 -4 -5 12.5 1.2
-6 4 5 12.2 1.6
6 -4 -5 11.4 1.2
6 -4 -5 10.8 1.2
5 -4 -5 403.76 3.3
-5 4 5 367.76 3.1
5 -4 -5 338.87 2.6
5 -4 -5 334.97 2.7
4 -4 -5 1.9 1.1
4 -4 -5 1.2 1.3
-4 4 5 1.4 1.2
4 -4 -5 0.9 0.8
3 -4 -5 811.92 3.6
3 -4 -5 837.42 4.1
-3 4 5 908.91 4.2
3 -4 -5 792.82 3.6
2 -4 -5 6.9 0.8
2 -4 -5 7.1 0.8
2 -4 -5 8.5 0.9
-2 4 5 7.6 0.9
-1 4 5 1958.6 5.2
1 -4 -5 2015.9 5.4
1 -4 -5 2148.78 5.9
-1 4 5 2173.98 6.1
0 -4 -5 659.53 3.3
0 -4 -5 625.84 3.1
0 4 5 736.13 3.5
0 4 5 623.64 3.1
-1 -4 -5 1710.73 5.4
1 4 5 1551.44 4.8
-1 -4 -5 1593.24 4.8
1 4 5 1782.22 5.4
2 4 5 206.58 1.8
-2 -4 -5 215.58 1.9
-2 -4 -5 213.98 2
2 4 5 236.98 2.2
3 4 5 906.41 3.7
-3 -4 -5 884.71 3.9
-3 -4 -5 942.11 3.8
-3 -4 -5 1040.6 4.3
4 4 5 458.35 2.7
-4 -4 -5 469.25 2.9
-4 -4 -5 543.45 3.1
-4 -4 -5 464.05 2.9
-5 -4 -5 108.99 1.8
-5 -4 -5 123.99 1.7
5 4 5 116.79 1.7
-5 -4 -5 105.99 1.5
-6 -4 -5 477.15 3.2
6 4 5 435.46 2.8
-6 -4 -5 460.15 3
-6 -4 -5 459.35 3.1
7 4 5 83.79 1.8
-7 -4 -5 69.99 1.5
-7 -4 -5 83.09 1.5
-7 -4 -5 24 1.8
-8 -4 -5 454.05 3.3
-8 -4 -5 421.36 3.2
-8 -4 -5 458.95 3.3
8 4 5 436.26 3.3
-9 -4 -5 70.59 2
9 4 5 70.29 1.6
-9 -4 -5 71.29 1.7
-9 -4 -5 67.19 1.7
-6 5 5 146.59 2.5
6 -5 -5 126.29 2
6 -5 -5 130.29 2
6 -5 -5 153.48 2.5
-5 5 5 343.67 3.1
5 -5 -5 312.07 2.7
5 -5 -5 329.47 2.9
5 -5 -5 283.97 2.5
4 -5 -5 275.17 2.2
-4 5 5 310.57 2.7
4 -5 -5 300.87 2.8
4 -5 -5 270.87 2.3
3 -5 -5 596.14 3.2
3 -5 -5 653.83 3.5
-3 5 5 670.73 3.7
3 -5 -5 619.04 3.3
2 -5 -5 284.47 2.2
-2 5 5 345.47 2.8
2 -5 -5 298.07 2.3
2 -5 -5 314.17 2.5
1 -5 -5 993 3.7
-1 5 5 1194.78 4.5
1 -5 -5 1084.39 4.1
0 5 5 128.79 1.5
0 -5 -5 130.09 1.5
0 -5 -5 135.79 1.6
0 5 5 149.99 1.7
1 5 5 783.52 3.4
1 5 5 921.71 3.9
-1 -5 -5 789.32 3.3
-1 -5 -5 822.42 3.6
2 5 5 19.2 1.1
-2 -5 -5 20 0.9
-2 -5 -5 17.2 0.9
3 5 5 1108.99 4
-3 -5 -5 1137.49 4
-3 -5 -5 1126.59 4.3
-3 -5 -5 1012.3 4.1
-4 -5 -5 185.88 2
-4 -5 -5 225.88 2.2
-4 -5 -5 210.38 2
4 5 5 198.38 1.9
5 5 5 901.91 4
-5 -5 -5 1014.5 4.3
-5 -5 -5 880.51 3.9
-5 -5 -5 868.71 3.9
-6 -5 -5 179.68 2
6 5 5 161.08 1.9
-6 -5 -5 182.38 2.2
-6 -5 -5 172.48 2.1
7 5 5 694.73 3.8
-7 -5 -5 699.93 3.8
-7 -5 -5 699.83 3.7
-7 -5 -5 706.73 3.8
8 5 5 181.48 2.2
-8 -5 -5 195.68 2.4
-8 -5 -5 175.98 2.2
-8 -5 -5 174.38 2.3
9 5 5 337.47 3.1
-9 -5 -5 338.47 3.3
-9 -5 -5 321.77 3.1
-9 -5 -5 332.67 3.1
-5 6 5 85.39 2.1
5 -6 -5 75.89 1.8
5 -6 -5 86.09 2.1
5 -6 -5 76.39 1.7
4 -6 -5 523.05 3.2
-4 6 5 620.64 3.9
4 -6 -5 577.04 3.7
4 -6 -5 519.65 3.4
3 -6 -5 134.49 1.8
-3 6 5 138.49 1.9
3 -6 -5 137.59 1.8
3 -6 -5 124.09 1.6
2 -6 -5 460.45 2.7
2 -6 -5 447.96 2.6
-2 6 5 535.15 3.4
2 -6 -5 489.65 3
1 -6 -5 295.27 2.5
-1 6 5 314.07 2.5
1 -6 -5 287.37 2.2
0 6 5 441.76 2.6
0 -6 -5 486.25 2.8
0 6 5 483.95 3
0 -6 -5 433.86 2.5
1 6 5 853.51 3.5
-1 -6 -5 805.32 3.3
-1 -6 -5 777.52 3.5
2 6 5 74.49 1.3
-2 -6 -5 82.99 1.5
-2 -6 -5 68.79 1.3
-2 -6 -5 77.99 1.3
-3 -6 -5 1016.7 4.2
3 6 5 1040.2 4
-3 -6 -5 1086.39 4.3
-3 -6 -5 1063.89 4
4 6 5 39.7 1.4
-4 -6 -5 38.8 1.4
-4 -6 -5 32.8 1.3
-4 -6 -5 39.3 1.2
-5 -6 -5 872.71 4.1
5 6 5 877.31 4.1
-5 -6 -5 955.2 4.1
-5 -6 -5 1046.6 4.3
-6 -6 -5 2.8 1.4
6 6 5 0.5 0.9
-6 -6 -5 0.9 1.2
-6 -6 -5 -0.4 1.2
7 6 5 619.34 3.8
-7 -6 -5 239.18 3.8
-7 -6 -5 610.94 3.6
-7 -6 -5 679.33 3.8
-8 -6 -5 0.4 1.4
8 6 5 -0.3 1.4
-8 -6 -5 0.2 1.1
-8 -6 -5 2.2 1.4
5 -7 -5 4.9 1.4
5 -7 -5 3.6 1.5
-5 7 5 11.6 1.5
5 -7 -5 11.1 1
4 -7 -5 236.08 2.3
4 -7 -5 259.97 2.9
4 -7 -5 225.08 2.2
-4 7 5 279.87 3
-3 7 5 0.6 1
3 -7 -5 1.9 0.9
3 -7 -5 2 1.2
3 -7 -5 1.9 0.9
2 -7 -5 -49.2 3.3
2 -7 -5 561.54 3
-2 7 5 579.54 3.5
2 -7 -5 591.04 3.4
1 -7 -5 186.08 1.9
1 -7 -5 185.18 2
-1 7 5 197.68 2.3
1 -7 -5 181.08 1.8
0 -7 -5 637.64 3.2
0 -7 -5 679.53 3.4
0 7 5 650.23 3.3
-1 -7 -5 341.37 2.5
1 7 5 368.66 2.5
-1 -7 -5 365.76 2.5
-1 -7 -5 387.66 2.6
-2 -7 -5 657.43 3.5
2 7 5 601.24 3.2
-2 -7 -5 570.94 3.3
-2 -7 -5 663.93 3.3
-3 -7 -5 147.69 2
3 7 5 155.38 1.7
-3 -7 -5 162.98 1.9
-3 -7 -5 155.78 1.9
-4 -7 -5 684.13 3.6
4 7 5 689.53 3.5
-4 -7 -5 678.93 3.4
-4 -7 -5 773.22 3.9
-5 -7 -5 399.46 3
-5 -7 -5 393.46 2.9
-5 -7 -5 365.16 2.8
5 7 5 374.86 2.9
6 7 5 192.18 2.1
-6 -7 -5 200.08 2.5
-6 -7 -5 205.48 2.4
-6 -7 -5 217.28 2.4
-7 -7 -5 218.78 2.6
-7 -7 -5 209.28 2.5
-7 -7 -5 213.58 2.5
7 7 5 213.18 2.6
8 7 5 39 1.7
-8 -7 -5 41 1.7
-8 -7 -5 43 1.7
-8 -7 -5 39.8 1.4
4 -8 -5 84.49 1.5
-4 8 5 92.99 2
4 -8 -5 0.1 2
4 -8 -5 78.09 1.5
-3 8 5 56.89 1.9
3 -8 -5 51.89 1.7
3 -8 -5 -7 1.5
3 -8 -5 49.1 1.3
2 -8 -5 447.76 2.9
2 -8 -5 476.25 3
-2 8 5 503.45 3.4
2 -8 -5 485.95 3.3
1 -8 -5 17.2 1
1 -8 -5 17.4 1.3
1 -8 -5 15.7 0.9
1 -8 -5 17.6 1.3
0 8 5 565.04 3.2
0 -8 -5 466.85 3.1
0 -8 -5 527.75 2.9
0 -8 -5 518.75 3.2
-1 -8 -5 45.9 1.6
1 8 5 43.8 1.1
-1 -8 -5 47.6 1.3
-1 -8 -5 43.2 1.2
-2 -8 -5 695.93 3.7
-2 -8 -5 596.64 3.5
-2 -8 -5 653.93 3.4
2 8 5 631.54 3.3
-3 -8 -5 11.2 1.3
-3 -8 -5 22.8 1
-3 -8 -5 19.6 1.3
3 8 5 10.8 1.2
-4 -8 -5 512.25 3.2
4 8 5 508.75 3.3
-4 -8 -5 528.15 3.3
-4 -8 -5 545.85 3.3
-5 -8 -5 19.6 1.2
-5 -8 -5 16.1 1
-5 -8 -5 14.9 1.4
5 8 5 16.2 1.2
6 8 5 289.27 3
-6 -8 -5 292.47 2.6
-6 -8 -5 342.77 3
-6 -8 -5 291.37 3
-7 -8 -5 29 1.5
7 8 5 21.8 1.3
-7 -8 -5 26.6 1.4
-7 -8 -5 27.5 1.3
3 -9 -5 219.18 2.3
3 -9 -5 178.08 2.6
3 -9 -5 187.48 2.5
3 -9 -5 -38 2.3
2 -9 -5 142.99 2.3
2 -9 -5 148.99 2.1
2 -9 -5 -57.29 2
2 -9 -5 153.18 2
1 -9 -5 320.97 2.7
1 -9 -5 332.97 2.9
1 -9 -5 280.07 2.8
1 -9 -5 309.57 2.6
0 -9 -5 250.87 2.3
0 -9 -5 250.77 2.4
0 -9 -5 241.78 2.6
0 -9 -5 279.57 2.5
-1 -9 -5 230.98 2.5
-1 -9 -5 245.38 2.2
1 9 5 243.08 2.3
-1 -9 -5 233.68 2.3
-2 -9 -5 274.37 2.6
2 9 5 259.97 2.3
-2 -9 -5 282.87 2.5
-2 -9 -5 235.88 2.6
-3 -9 -5 42.5 1.4
-3 -9 -5 37.4 1.3
-3 -9 -5 36.3 1.6
3 9 5 33.1 1.1
4 9 5 215.38 2.5
-4 -9 -5 207.28 2.3
-4 -9 -5 220.48 2.4
-4 -9 -5 238.48 2.7
-5 -9 -5 11.7 1.1
5 9 5 11.8 1.1
-5 -9 -5 12 1.1
-5 -9 -5 12.3 1.1
1 -10 -5 -70.49 2.1
1 -10 -5 206.78 2.3
1 -10 -5 204.08 2.7
1 -10 -5 211.88 2.4
0 -10 -5 30.8 1.5
0 -10 -5 27.5 1.7
0 -10 -5 2.5 1.7
0 -10 -5 27.9 1.4
-1 -10 -5 151.28 2
-1 -10 -5 138.19 2.1
-1 -10 -5 132.69 2.2
2 10 5 98.79 1.9
-2 -10 -5 91.89 1.7
-2 -10 -5 110.59 1.9
-2 -10 -5 92.49 1.9
3 10 5 98.39 1.9
-3 -10 -5 84.99 1.9
-3 -10 -5 101.69 2.1
-3 -10 -5 98.59 1.8
2 -9 6 246.88 3.4
-2 9 -6 223.28 3.1
-1 -8 6 135.49 2.4
1 8 -6 139.19 2.3
0 -8 6 51.79 2.1
0 8 -6 76.19 1.9
1 -8 6 133.09 2.4
-1 8 -6 136.89 2.5
2 -8 6 366.66 3.6
-2 8 -6 375.56 3.7
3 -8 6 16.8 1.7
-3 8 -6 14.9 1.6
4 -8 6 441.56 5.7
4 -8 6 510.25 5.3
4 -8 6 454.05 5.9
5 -8 6 2.2 1.9
5 -8 6 0.9 1.8
5 -8 6 1.4 1.6
-3 -7 6 211.58 2.8
3 7 -6 165.38 2.7
-2 -7 6 0.5 1.5
2 7 -6 1.6 1.5
-1 -7 6 390.96 3.3
1 7 -6 389.76 3.3
0 -7 6 121.89 2.1
0 7 -6 137.29 2.3
1 -7 6 581.94 4
-1 7 -6 639.24 4.3
2 -7 6 242.18 2.9
-2 7 -6 254.97 2.9
3 -7 6 511.65 6.7
-3 7 -6 561.54 4.4
3 -7 6 483.65 6.4
3 -7 6 491.95 4.4
-4 7 -6 343.07 4.3
4 -7 6 345.07 4.3
4 -7 6 318.47 4
-4 7 -6 327.77 4
-5 7 -6 -15 4.2
5 -7 6 321.27 6.5
5 -7 6 339.67 3.8
5 -7 6 311.37 6.3
6 -7 6 238.38 3.2
-6 7 -6 290.27 3.3
7 -7 6 71.69 2
-7 7 -6 85.99 2.1
-4 -6 6 58.69 1.8
4 6 -6 44.7 3.6
4 6 -6 -8.6 1.6
4 6 -6 50.89 4.1
-3 -6 6 314.97 3
3 6 -6 269.07 2.9
-2 -6 6 29.5 1.3
2 6 -6 32.6 1.7
-1 -6 6 867.91 4.5
1 6 -6 901.81 4.7
0 -6 6 0.4 1.4
0 6 -6 0.1 1.4
1 -6 6 694.33 4.3
-1 6 -6 768.62 4.6
-2 6 -6 39.3 1.7
2 -6 6 36.9 1.7
-3 6 -6 1170.88 7.9
-3 6 -6 1121.79 6.4
3 -6 6 1012.1 6.8
3 -6 6 1069.99 6.1
-4 6 -6 71.59 2.3
4 -6 6 71.09 2.5
4 -6 6 69.39 2.3
-4 6 -6 76.39 2.5
5 -6 6 658.33 10.7
5 -6 6 589.14 4.4
5 -6 6 639.64 10.7
-5 6 -6 627.14 4.4
6 -6 6 85.99 2
-6 6 -6 94.79 2
7 -6 6 171.98 2.5
-7 6 -6 225.78 2.8
8 -6 6 80.49 1.9
-8 6 -6 100.99 2
-4 -5 6 277.07 2.8
4 5 -6 264.07 3.8
4 5 -6 249.78 2.7
4 5 -6 266.07 4.5
-3 -5 6 375.06 3.4
3 5 -6 341.87 3.2
3 5 -6 335.77 5.7
3 5 -6 391.76 5.2
-2 -5 6 551.54 3.7
2 5 -6 476.15 3.4
-1 -5 6 645.04 3.7
1 5 -6 654.53 4
0 5 -6 352.06 3
0 -5 6 357.06 3
1 -5 6 233.78 2.5
-1 5 -6 266.67 2.8
2 -5 6 216.88 2.7
2 -5 6 227.38 3.9
-2 5 -6 230.98 2.9
-2 5 -6 233.28 4.8
3 -5 6 632.94 4.6
3 -5 6 596.44 4.7
-3 5 -6 688.53 5
-3 5 -6 660.73 5.5
-4 5 -6 12.1 1.5
4 -5 6 9.9 1.4
4 -5 6 9.5 1.6
-4 5 -6 10.1 1.5
5 -5 6 326.07 3.2
-5 5 -6 331.57 3.1
6 -5 6 12.6 1.4
-6 5 -6 11.5 1.4
7 -5 6 493.95 3.6
-7 5 -6 548.75 3.7
8 -5 6 9.9 1.4
-8 5 -6 11.2 1.5
5 4 -6 1.4 1.2
5 4 -6 0.6 1.1
5 4 -6 0.5 1.6
-5 -4 6 0.2 1.2
4 4 -6 678.03 4.8
-4 -4 6 695.43 4.2
4 4 -6 625.44 4
4 4 -6 749.82 6
3 4 -6 5 1.3
3 4 -6 5.4 1.5
3 4 -6 5.2 1.8
-3 -4 6 6.2 1.2
2 4 -6 1212.08 7.2
2 4 -6 969.9 4.7
2 4 -6 1182.18 8.7
-2 -4 6 1031.3 4.7
-1 -4 6 43.3 1.7
1 4 -6 43.1 2.3
1 4 -6 49 1.7
1 4 -6 48.1 2.7
0 -4 6 838.42 4.3
0 4 -6 802.32 9.5
0 4 -6 830.12 4.4
0 4 -6 879.61 9.7
1 -4 6 178.78 2.3
1 -4 6 176.48 3.5
-1 4 -6 177.38 2.5
-1 4 -6 187.68 4.4
2 -4 6 1158.58 6.5
2 -4 6 1201.28 5.6
-2 4 -6 1191.38 5.9
-2 4 -6 1209.28 8.4
3 -4 6 692.93 4.6
3 -4 6 756.32 4.9
-3 4 -6 808.92 5.5
-3 4 -6 757.02 5.8
-4 4 -6 628.14 5.6
4 -4 6 581.64 4
-4 4 -6 553.74 4.3
4 -4 6 587.74 4.9
5 -4 6 631.94 4
-5 4 -6 642.54 4.3
6 -4 6 367.06 3.2
-6 4 -6 348.37 3
7 -4 6 785.42 4.4
-7 4 -6 870.31 4.5
8 -4 6 63.79 1.6
-8 4 -6 70.79 1.9
9 -4 6 404.36 3.3
-9 4 -6 496.75 3.7
5 3 -6 118.19 2.1
5 3 -6 94.39 1.9
5 3 -6 115.49 2.4
-5 -3 6 124.69 2.2
4 3 -6 392.36 3.2
-4 -3 6 391.06 3
4 3 -6 364.86 2.9
4 3 -6 417.66 3.9
3 3 -6 181.58 2.4
-3 -3 6 178.48 2.2
3 3 -6 167.98 2.3
3 3 -6 184.08 2.8
2 3 -6 705.93 4.7
-2 -3 6 674.53 3.8
2 3 -6 636.84 3.9
2 3 -6 709.93 5.2
-1 -3 6 61.79 1.5
1 3 -6 64.09 1.8
1 3 -6 64.99 1.7
1 3 -6 60.59 1.9
0 3 -6 1213.68 6.7
0 -3 6 1154.68 4.9
0 3 -6 1111.79 6.5
0 3 -6 1085.99 5
1 -3 6 37.2 1.7
1 -3 6 27.8 1.4
-1 3 -6 26.6 1.8
-1 3 -6 29.3 1.7
2 -3 6 2391.46 8.1
2 -3 6 2453.85 7.8
-2 3 -6 2387.96 9.7
-2 3 -6 2168.88 8.1
3 -3 6 346.07 3.1
3 -3 6 355.46 3.4
-3 3 -6 373.16 3.7
-3 3 -6 343.87 3.9
4 -3 6 1768.52 8
4 -3 6 1709.73 6.4
-4 3 -6 1763.12 7
-4 3 -6 1717.43 9.6
-5 3 -6 384.76 7.3
5 -3 6 340.77 3
-5 3 -6 357.36 3.1
6 -3 6 1159.08 4.9
-6 3 -6 1085.19 5
7 -3 6 199.48 2.3
-7 3 -6 210.08 2.3
8 -3 6 333.47 2.9
-8 3 -6 357.86 2.9
9 -3 6 155.58 2.3
-9 3 -6 163.18 2.2
-6 -2 6 47.5 1.5
6 2 -6 41.3 1.4
6 2 -6 39.9 1.6
6 2 -6 52.49 1.9
5 2 -6 237.08 2.5
-5 -2 6 231.78 2.6
5 2 -6 194.68 2.4
5 2 -6 224.48 2.8
4 2 -6 217.38 2.3
-4 -2 6 215.28 2.4
4 2 -6 203.78 2.4
4 2 -6 197.98 2.6
-3 -2 6 429.86 3.3
3 2 -6 428.96 3.2
3 2 -6 386.66 3
3 2 -6 429.16 3.5
2 2 -6 573.84 3.8
-2 -2 6 592.44 3.6
2 2 -6 531.85 3.5
2 2 -6 579.24 4
1 2 -6 243.88 2.7
-1 -2 6 247.88 2.5
1 2 -6 223.78 2.3
1 2 -6 256.47 2.7
0 -2 6 1557.44 6.4
0 2 -6 1558.14 6.4
0 -2 6 1626.24 5.7
0 2 -6 1507.75 5.8
1 -2 6 318.27 3
-1 2 -6 331.77 3.2
1 -2 6 337.07 2.8
-1 2 -6 322.97 3.2
2 -2 6 1831.32 6.5
-2 2 -6 1763.22 6.9
2 -2 6 1797.32 6.6
-2 2 -6 1622.84 6.9
-3 2 -6 325.17 3.7
3 -2 6 355.96 3
-3 2 -6 359.06 3.2
3 -2 6 373.26 3.4
-4 2 -6 1870.91 9.5
4 -2 6 2196.98 6.9
4 -2 6 2388.16 9
-4 2 -6 2372.46 7.4
-5 2 -6 57.99 2.8
5 -2 6 63.29 1.7
-5 2 -6 57.59 1.5
6 -2 6 1024.8 4.6
-6 2 -6 981.1 4.6
7 -2 6 10.8 1.1
-7 2 -6 11 1.5
8 -2 6 434.36 3.3
-8 2 -6 437.96 3.1
9 -2 6 36 1.3
-9 2 -6 41.2 1.6
6 1 -6 0.9 1
-6 -1 6 0.7 1
6 1 -6 1.5 1.3
6 1 -6 1.5 1.1
5 1 -6 312.97 2.7
-5 -1 6 303.77 3
5 1 -6 276.07 2.6
5 1 -6 287.97 2.7
-4 -1 6 17.9 1.2
4 1 -6 20.9 1
4 1 -6 17.9 1.1
4 1 -6 17 1.3
3 1 -6 957.2 4.3
-3 -1 6 941.61 4.6
3 1 -6 926.61 4.4
3 1 -6 935.91 4.5
2 1 -6 227.68 2.2
-2 -1 6 236.18 2.3
2 1 -6 218.78 2.2
2 1 -6 227.98 2.4
1 1 -6 1396.96 5.4
1 1 -6 1417.56 5.4
-1 -1 6 1269.27 4.9
1 1 -6 1307.67 5.2
0 1 -6 682.03 4
0 -1 6 651.13 3.7
0 1 -6 653.43 3.9
0 -1 6 638.04 3.6
-1 1 -6 2147.49 7.1
1 -1 6 2068.69 6.6
-1 1 -6 2120.99 6.8
1 -1 6 2182.08 6.7
-2 1 -6 638.84 4.2
2 -1 6 660.33 3.8
-2 1 -6 671.33 4
2 -1 6 659.73 3.8
-3 1 -6 2294.37 8.4
3 -1 6 2543.45 6.9
-3 1 -6 2474.15 7.3
3 -1 6 2649.73 8.1
-4 1 -6 1053.59 6.1
4 -1 6 1177.68 4.8
-4 1 -6 1282.37 5.1
4 -1 6 1383.76 6.3
5 -1 6 318.97 2.7
-5 1 -6 253.77 3.4
-5 1 -6 299.47 2.7
-5 1 -6 266.07 3.4
-6 1 -6 768.32 6.5
6 -1 6 796.02 4
-6 1 -6 752.62 3.7
-6 1 -6 695.63 6.1
7 -1 6 71.69 1.7
-7 1 -6 72.69 2.8
-7 1 -6 66.89 1.5
-7 1 -6 75.19 2.5
-8 1 -6 999.1 8.8
8 -1 6 928.01 4.6
-8 1 -6 768.72 4.8
-8 1 -6 1067.99 10.2
-9 1 -6 14.8 2.2
-9 1 -6 14.3 2.7
9 -1 6 3.6 1.5
-9 1 -6 11.4 1.2
10 -1 6 344.17 3.3
-10 1 -6 351.06 3.1
6 0 -6 113.49 1.8
-6 0 6 112.49 2.2
6 0 -6 108.19 2
6 0 -6 124.19 2.1
-5 0 6 224.98 2.4
5 0 -6 193.28 2.3
5 0 -6 223.28 2.4
5 0 -6 237.58 2.3
4 0 -6 525.35 3.1
-4 0 6 544.25 3.4
4 0 -6 529.65 3.3
4 0 -6 518.65 3.2
3 0 -6 1447.76 5
-3 0 6 1489.65 5.4
3 0 -6 1378.56 5.1
3 0 -6 1385.76 5
2 0 -6 111.19 1.7
2 0 -6 121.09 1.9
-2 0 6 112.79 1.7
2 0 -6 111.49 1.8
1 0 -6 1869.41 6
1 0 -6 2017 6
1 0 -6 1975.5 5.8
-1 0 6 1944.41 6.1
0 0 6 254.47 2.2
0 0 -6 268.67 2.5
0 0 -6 278.57 2.5
0 0 6 258.97 2.5
1 0 6 2105.19 6.1
-1 0 -6 2011.7 6.7
-1 0 -6 2121.99 6.3
1 0 6 2093.09 6.4
2 0 6 14 1.1
2 0 6 11.9 0.9
-2 0 -6 12.6 1.3
-2 0 -6 9.8 1.5
-3 0 -6 1680.73 5.6
-3 0 -6 1453.25 6.1
3 0 6 1795.12 6.2
3 0 6 1603.54 5.4
4 0 6 381.16 2.8
-4 0 -6 381.26 2.8
-4 0 -6 380.96 3.3
4 0 6 463.85 3.5
-5 0 -6 1023.6 5.6
-5 0 -6 1049.89 5.5
-5 0 -6 1115.19 4.5
5 0 6 1109.49 4.4
-6 0 -6 711.03 5
-6 0 -6 695.73 4.8
6 0 6 679.03 3.5
-6 0 -6 659.93 3.5
7 0 6 1372.96 5.1
-7 0 -6 1587.54 8
-7 0 -6 1501.45 7.2
-7 0 -6 1472.75 5.2
8 0 6 742.13 3.9
-8 0 -6 862.51 6.6
-8 0 -6 782.42 3.9
-8 0 -6 821.42 5.7
9 0 6 290.67 2.7
-9 0 -6 274.07 2.9
-9 0 -6 347.37 4.7
-9 0 -6 295.77 4.3
-10 0 -6 273.87 5.3
10 0 6 263.37 2.7
-10 0 -6 240.88 2.9
-10 0 -6 260.67 4.5
6 -1 -6 378.06 3.1
-6 1 6 401.96 3.6
6 -1 -6 353.66 3.4
6 -1 -6 335.67 3
5 -1 -6 169.98 1.9
-5 1 6 181.78 2.3
5 -1 -6 168.38 2.1
5 -1 -6 158.48 2
-4 1 6 581.04 3.5
4 -1 -6 542.45 3.1
4 -1 -6 529.35 3.2
4 -1 -6 574.64 3.4
3 -1 -6 554.84 3.4
3 -1 -6 565.64 3.1
-3 1 6 531.95 3.4
3 -1 -6 543.55 3.2
2 -1 -6 692.23 3.3
2 -1 -6 659.63 3.6
2 -1 -6 688.53 3.4
-2 1 6 671.13 3.7
1 -1 -6 537.75 3.3
1 -1 -6 608.24 3.1
-1 1 6 551.24 3.4
0 1 6 587.34 3.1
0 -1 -6 608.74 3.2
0 -1 -6 525.85 3.4
0 1 6 550.24 3.3
1 1 6 1543.75 5.3
1 1 6 1378.36 4.8
-1 -1 -6 1383.86 4.8
-1 -1 -6 1361.16 5.1
2 1 6 40.6 1.3
-2 -1 -6 32.3 1
2 1 6 36.1 1.4
-2 -1 -6 32.5 1.2
3 1 6 1340.77 4.7
3 1 6 1578.14 5.6
-3 -1 -6 1380.46 4.8
-3 -1 -6 1402.66 5.6
-4 -1 -6 16 1.4
4 1 6 13.6 0.9
-4 -1 -6 18.9 1.1
4 1 6 16.4 1.3
-5 -1 -6 1863.01 6.6
5 1 6 1850.31 5.6
-5 -1 -6 1939.61 6.8
-5 -1 -6 1872.11 5.6
-6 -1 -6 24.3 1.5
6 1 6 21.9 1
-6 -1 -6 21.1 1
-6 -1 -6 22.8 1.4
-7 -1 -6 1282.67 5.9
-7 -1 -6 1294.77 6.4
7 1 6 1248.18 4.8
-7 -1 -6 1231.58 4.7
-8 -1 -6 35.1 1.6
8 1 6 32.3 1.5
-8 -1 -6 32.1 1.8
-8 -1 -6 33.4 1.5
9 1 6 453.05 3.3
-9 -1 -6 519.05 4.2
-9 -1 -6 499.85 4.7
-9 -1 -6 464.65 3.3
10 1 6 64.89 1.8
-10 -1 -6 11.9 2.4
-10 -1 -6 56.09 1.7
-10 -1 -6 75.49 2.6
6 -2 -6 321.67 2.9
6 -2 -6 322.47 2.9
6 -2 -6 354.56 3.3
-6 2 6 358.06 3.3
5 -2 -6 3.5 0.9
-5 2 6 5.3 1.1
5 -2 -6 2.3 0.9
5 -2 -6 3.4 1.4
4 -2 -6 427.46 2.7
-4 2 6 458.95 3.3
4 -2 -6 405.06 2.7
4 -2 -6 455.45 3.1
3 -2 -6 15.3 1.3
-3 2 6 17.7 1.1
3 -2 -6 15.2 0.9
3 -2 -6 17.5 1.1
2 -2 -6 823.62 3.4
2 -2 -6 835.72 3.4
-2 2 6 803.92 3.9
2 -2 -6 777.32 3.8
-1 2 6 213.58 2.1
-1 2 6 213.68 2
1 -2 -6 230.88 2.1
1 -2 -6 193.18 1.9
0 2 6 889.21 3.9
0 -2 -6 921.21 3.8
0 -2 -6 822.72 3.9
0 2 6 870.81 3.6
1 2 6 592.34 3.1
-1 -2 -6 630.24 3.2
1 2 6 640.24 3.4
-1 -2 -6 572.34 3.3
2 2 6 1641.54 5.4
2 2 6 1400.96 4.7
-2 -2 -6 1462.35 4.8
-2 -2 -6 1400.26 5
-3 -2 -6 1143.29 4.7
3 2 6 1005.3 4
-3 -2 -6 1049.2 4.1
3 2 6 1247.38 4.7
4 2 6 962.6 4
4 2 6 1224.08 4.9
-4 -2 -6 933.51 3.8
-4 -2 -6 1081.69 4.7
-5 -2 -6 1023.9 4.6
5 2 6 941.11 3.9
-5 -2 -6 972.3 4.1
-5 -2 -6 1125.29 4.9
-6 -2 -6 525.85 3.5
-6 -2 -6 531.95 3.7
6 2 6 512.95 3.1
-6 -2 -6 489.45 2.9
-7 -2 -6 542.35 3.9
7 2 6 538.75 3.3
-7 -2 -6 517.85 3.6
-7 -2 -6 490.95 3.1
8 2 6 94.19 1.6
-8 -2 -6 95.59 2
-8 -2 -6 88.29 1.8
-8 -2 -6 96.69 1.9
9 2 6 434.96 3.4
-9 -2 -6 422.86 4.1
-9 -2 -6 417.56 3.3
-9 -2 -6 402.96 3.7
10 2 6 0.8 1.1
-10 -2 -6 8.9 1.6
-10 -2 -6 -1.3 1.5
-10 -2 -6 0.4 1.3
-6 3 6 124.69 2.1
6 -3 -6 111.89 1.7
6 -3 -6 111.39 1.9
6 -3 -6 132.09 2.3
-5 3 6 113.79 1.9
5 -3 -6 105.59 1.8
5 -3 -6 99.39 1.6
5 -3 -6 113.19 1.9
-4 3 6 369.86 2.9
4 -3 -6 399.06 3
4 -3 -6 394.36 2.7
4 -3 -6 336.37 2.5
-3 3 6 68.19 1.8
3 -3 -6 64.79 1.2
3 -3 -6 66.79 1.5
3 -3 -6 57.99 1.3
2 -3 -6 1119.69 4
2 -3 -6 1123.39 4
-2 3 6 1254.87 4.9
2 -3 -6 1136.49 4.4
-1 3 6 7.2 0.9
1 -3 -6 7.4 0.9
-1 3 6 12.2 1.1
1 -3 -6 6.4 1
0 3 6 1866.41 5.1
0 -3 -6 1997.6 5.4
0 3 6 2092.69 5.9
0 -3 -6 1887.31 5.5
1 3 6 189.88 1.7
-1 -3 -6 191.48 1.9
-1 -3 -6 192.48 1.9
1 3 6 217.18 2.1
-2 -3 -6 2580.14 6.5
-2 -3 -6 2793.72 6.4
2 3 6 2940.91 6.9
2 3 6 2579.34 6.1
3 3 6 83.19 1.3
-3 -3 -6 89.49 1.7
-3 -3 -6 82.09 1.3
3 3 6 93.59 1.6
-4 -3 -6 2075.29 5.9
4 3 6 2062.29 5.5
-4 -3 -6 2060.99 5.5
-4 -3 -6 2438.56 6.5
-5 -3 -6 350.96 2.8
-5 -3 -6 308.67 2.5
5 3 6 300.17 2.3
-5 -3 -6 292.47 2.2
-6 -3 -6 873.91 4.3
6 3 6 814.22 3.8
-6 -3 -6 895.71 4.2
-6 -3 -6 815.52 3.7
-7 -3 -6 484.35 3.5
7 3 6 436.36 3
-7 -3 -6 426.66 2.9
-7 -3 -6 488.45 3.3
-8 -3 -6 175.78 2.3
8 3 6 171.48 2.4
-8 -3 -6 188.98 2.5
-8 -3 -6 155.48 2.1
9 3 6 278.27 2.8
-9 -3 -6 283.27 3.3
-9 -3 -6 274.67 2.7
-9 -3 -6 277.37 2.9
6 -4 -6 31.5 1.3
-6 4 6 31.3 1.4
6 -4 -6 28.4 1.2
6 -4 -6 -6.1 1.6
5 -4 -6 175.98 2.4
5 -4 -6 152.58 2.1
-5 4 6 164.38 2.4
5 -4 -6 139.59 1.9
4 -4 -6 322.47 2.8
4 -4 -6 277.37 2.5
-4 4 6 297.77 2.8
4 -4 -6 255.17 2.3
3 -4 -6 320.57 2.3
3 -4 -6 330.27 2.6
-3 4 6 369.86 3
3 -4 -6 316.97 2.3
2 -4 -6 1063.09 4
2 -4 -6 1046.7 4.2
-2 4 6 1198.98 4.7
2 -4 -6 1011.3 4
-1 4 6 550.24 2.8
1 -4 -6 525.55 3
-1 4 6 590.34 3.3
1 -4 -6 574.54 2.9
0 4 6 1111.69 4.3
0 4 6 1022.3 3.7
0 -4 -6 1072.39 3.8
0 -4 -6 1018.4 4.1
-1 -4 -6 265.67 2.2
1 4 6 251.17 2
-1 -4 -6 256.77 2.1
1 4 6 289.97 2.3
2 4 6 1080.89 4
2 4 6 1253.27 4.4
-2 -4 -6 1128.39 4.2
-2 -4 -6 1120.19 4
3 4 6 63.99 1.3
-3 -4 -6 68.19 1.3
3 4 6 82.19 1.5
-3 -4 -6 81.89 1.3
-4 -4 -6 1077.69 4.3
4 4 6 862.81 3.7
-4 -4 -6 895.71 3.6
-4 -4 -6 918.11 3.8
5 4 6 3.8 1.1
-5 -4 -6 6.3 1.2
-5 -4 -6 5.1 0.8
-5 -4 -6 8.8 1.2
-6 -4 -6 517.55 3.3
-6 -4 -6 438.06 2.8
6 4 6 447.36 2.8
-6 -4 -6 512.75 3.3
-7 -4 -6 88.59 1.7
-7 -4 -6 85.29 1.8
7 4 6 81.69 1.7
-7 -4 -6 78.09 1.5
8 4 6 314.07 2.9
-8 -4 -6 333.67 2.9
-8 -4 -6 330.37 2.8
-8 -4 -6 309.57 2.7
9 4 6 65.49 1.5
-9 -4 -6 64.19 1.7
-9 -4 -6 45.6 2.2
-9 -4 -6 65.59 1.7
5 -5 -6 381.16 3.4
-5 5 6 356.96 3.4
5 -5 -6 300.27 2.9
5 -5 -6 -78.89 2.6
4 -5 -6 9.4 1.4
4 -5 -6 13.2 1.2
-4 5 6 9.5 1.1
4 -5 -6 9.8 1.1
3 -5 -6 865.51 3.7
3 -5 -6 931.21 4.4
-3 5 6 953.2 4.5
3 -5 -6 931.61 3.8
2 -5 -6 95.39 1.4
2 -5 -6 94.99 1.6
2 -5 -6 103.69 1.8
-2 5 6 111.79 1.7
-1 5 6 863.61 4
1 -5 -6 783.22 3.4
1 -5 -6 810.42 3.7
0 5 6 263.27 2
0 -5 -6 269.77 2.1
0 5 6 304.47 2.5
0 -5 -6 262.87 2.2
1 5 6 403.96 2.5
-1 -5 -6 448.86 2.7
1 5 6 498.65 3
-1 -5 -6 416.36 2.5
2 5 6 554.44 2.8
-2 -5 -6 579.04 2.9
-2 -5 -6 581.44 3.1
2 5 6 701.03 3.3
-3 -5 -6 356.66 2.5
-3 -5 -6 393.86 2.5
3 5 6 342.37 2.3
-3 -5 -6 382.66 2.5
-4 -5 -6 802.82 3.8
4 5 6 760.52 3.5
-4 -5 -6 715.13 3.5
-4 -5 -6 794.92 3.5
5 5 6 130.09 1.7
-5 -5 -6 133.59 1.8
-5 -5 -6 150.08 1.8
-5 -5 -6 131.49 1.7
-6 -5 -6 760.92 3.9
6 5 6 684.73 3.5
-6 -5 -6 727.43 3.7
-6 -5 -6 806.32 4
7 5 6 104.79 1.9
-7 -5 -6 100.19 1.7
-7 -5 -6 110.09 1.9
-7 -5 -6 107.09 1.7
8 5 6 513.95 3.6
-8 -5 -6 487.75 3.3
-8 -5 -6 495.75 3.4
-8 -5 -6 487.45 3.4
9 5 6 5.6 1.5
-9 -5 -6 8.6 1.5
-9 -5 -6 14.2 1.4
-9 -5 -6 6.1 1.6
5 -6 -6 241.68 3
5 -6 -6 195.88 2.4
5 -6 -6 -62.19 2
-5 6 6 223.68 2.7
-4 6 6 60.09 1.7
4 -6 -6 51.99 1.3
4 -6 -6 56.29 1.7
4 -6 -6 47.5 1.2
-3 6 6 420.66 3.3
3 -6 -6 405.06 3.1
3 -6 -6 406.26 2.8
3 -6 -6 387.76 2.7
2 -6 -6 39.9 1.1
2 -6 -6 39.7 1.2
-2 6 6 46.9 1.5
2 -6 -6 42.4 1.4
1 -6 -6 538.65 3
1 -6 -6 568.24 3.1
-1 6 6 632.64 3.6
0 -6 -6 14.5 0.9
0 6 6 13.3 0.9
0 -6 -6 15 0.8
0 6 6 17.1 1.3
1 6 6 817.92 3.5
-1 -6 -6 839.02 3.7
-1 -6 -6 884.81 3.5
1 6 6 984.2 4
-2 -6 -6 235.28 2.1
2 6 6 247.28 2.1
-2 -6 -6 250.77 2
-2 -6 -6 246.68 2.1
-3 -6 -6 637.64 3.4
-3 -6 -6 688.63 3.3
3 6 6 661.73 3.3
-3 -6 -6 716.63 3.6
-4 -6 -6 339.87 2.5
-4 -6 -6 370.26 2.8
4 6 6 355.96 2.5
-4 -6 -6 377.96 2.6
5 6 6 712.33 3.4
-5 -6 -6 747.23 3.6
-5 -6 -6 -14 4.2
-5 -6 -6 696.63 3.6
6 6 6 270.87 2.5
-6 -6 -6 275.57 2.7
-6 -6 -6 270.57 2.5
-6 -6 -6 290.77 2.5
-7 -6 -6 378.76 3
-7 -6 -6 353.66 2.8
7 6 6 360.76 2.8
-7 -6 -6 359.76 2.9
8 6 6 172.38 2.5
-8 -6 -6 170.88 2.3
-8 -6 -6 171.38 2.2
-8 -6 -6 175.48 2.3
4 -7 -6 106.59 1.8
4 -7 -6 122.79 2.2
-4 7 6 134.69 2.2
4 -7 -6 114.49 2
3 -7 -6 126.39 1.8
3 -7 -6 125.19 2
-3 7 6 132.69 1.9
3 -7 -6 118.39 1.7
2 -7 -6 64.79 1.7
-2 7 6 94.09 1.7
2 -7 -6 87.89 1.7
2 -7 -6 91.89 1.6
1 -7 -6 400.56 2.7
1 -7 -6 450.05 2.9
1 -7 -6 -0.1 3.2
-1 7 6 469.35 3.3
0 -7 -6 31.9 1
0 7 6 35.4 1.4
0 7 6 31.6 1.3
0 -7 -6 32.2 1.1
1 7 6 761.92 3.5
-1 -7 -6 788.92 3.5
-1 -7 -6 768.22 3.5
-2 -7 -6 19.5 1
2 7 6 23.7 1.1
-2 -7 -6 24.3 1.3
-2 -7 -6 25.2 1
-3 -7 -6 794.92 3.7
3 7 6 808.22 3.6
-3 -7 -6 925.01 3.9
-3 -7 -6 913.81 4
-4 -7 -6 44.1 1.3
-4 -7 -6 39.9 1.2
4 7 6 43 1.3
-4 -7 -6 45.7 1.4
5 7 6 633.64 3.5
-5 -7 -6 642.24 3.7
-5 -7 -6 653.23 3.5
-5 -7 -6 -8.6 4.4
6 7 6 7.3 0.9
-6 -7 -6 10.5 1.4
-6 -7 -6 7.1 0.9
-6 -7 -6 8.1 1.1
-7 -7 -6 165.28 2.1
-7 -7 -6 169.68 2.3
7 7 6 171.68 2.3
-7 -7 -6 174.98 2.2
-3 8 6 2.9 1.4
3 -8 -6 26.9 1.1
3 -8 -6 28.3 1.5
3 -8 -6 27.4 1.3
2 -8 -6 -47.2 2.1
2 -8 -6 266.17 2.3
2 -8 -6 275.27 2.6
-2 8 6 300.57 2.9
1 -8 -6 163.98 2
-1 8 6 170.78 2.1
1 -8 -6 174.78 2
1 -8 -6 178.98 2.1
0 -8 -6 377.36 3
0 -8 -6 429.66 2.9
0 -8 -6 422.76 2.8
0 8 6 447.56 2.8
1 8 6 293.07 2.2
-1 -8 -6 257.97 2.4
-1 -8 -6 273.07 2.4
-1 -8 -6 273.27 2.2
2 8 6 428.56 2.8
-2 -8 -6 408.76 2.7
-2 -8 -6 396.76 3
-2 -8 -6 409.56 3.2
3 8 6 318.97 2.7
-3 -8 -6 320.57 2.7
-3 -8 -6 380.86 2.8
-3 -8 -6 386.26 3
-4 -8 -6 179.18 2
4 8 6 -10 2
-4 -8 -6 169.28 2.1
-4 -8 -6 180.48 2.1
5 8 6 337.07 2.7
-5 -8 -6 260.97 3
-5 -8 -6 362.36 2.7
-5 -8 -6 290.17 3.2
6 8 6 7 1.3
-6 -8 -6 4.7 1.3
-6 -8 -6 3.8 1.3
-6 -8 -6 2.8 1.1
2 -9 -6 344.27 3.1
2 -9 -6 346.27 3.1
2 -9 -6 419.66 3.3
2 -9 -6 384.86 3.1
1 -9 -6 6.3 1.3
1 -9 -6 7.6 1
1 -9 -6 5.1 1.3
1 -9 -6 1.3 1
0 -9 -6 420.86 3.3
0 -9 -6 442.56 3.2
0 -9 -6 441.96 3.1
1 9 6 3 0.9
-1 -9 -6 3 1
-1 -9 -6 4.1 1.2
-1 -9 -6 2 1.1
2 9 6 236.98 2.3
-2 -9 -6 244.78 2.6
-2 -9 -6 246.78 2.3
-2 -9 -6 241.38 2.6
-3 -9 -6 20.4 1.2
-3 -9 -6 22.3 1.3
3 9 6 22.1 1.3
-3 -9 -6 20 1.5
4 9 6 150.88 2.2
-4 -9 -6 139.59 2.4
-4 -9 -6 146.89 2.3
-4 -9 -6 154.78 2.1
5 9 6 35.1 2.3
-5 -9 -6 188.78 2.7
-5 -9 -6 195.48 2.3
-5 -9 -6 183.88 2.5
1 10 6 -0.2 1.1
-1 -10 -6 11 1
-1 -10 -6 7.8 1.1
-1 -10 -6 -0.8 1
2 10 6 175.18 2.3
-2 -10 -6 150.68 2.4
-2 -10 -6 171.88 2.3
-2 -10 -6 -6.6 2.3
3 10 6 0.5 1.2
-3 -10 -6 0.3 1
-3 -10 -6 0.7 1.3
-3 -10 -6 0.6 1.4
0 -8 7 354.86 3.4
0 8 -7 364.26 3.7
1 -8 7 45.7 1.9
-1 8 -7 2.7 2
2 -8 7 339.17 3.5
-2 8 -7 334.77 3.6
3 -8 7 126.29 2.7
-3 8 -7 131.99 2.7
4 -8 7 242.18 5.4
4 -8 7 260.57 5.6
-4 8 -7 42.5 4.4
4 -8 7 281.37 4.4
2 7 -7 156.78 2.7
-2 -7 7 162.48 2.5
1 7 -7 100.39 2.3
-1 -7 7 101.79 2.2
0 -7 7 548.35 4
0 7 -7 526.05 4.2
1 -7 7 23.9 1.3
-1 7 -7 21.1 1.6
2 -7 7 607.84 4.2
-2 7 -7 634.84 4.5
3 -7 7 28.2 1.4
-3 7 -7 32.7 1.7
-4 7 -7 574.44 6.5
-4 7 -7 577.04 5.1
4 -7 7 512.55 5.4
4 -7 7 549.45 5.2
5 -7 7 9.4 1.5
5 -7 7 10.2 2
5 -7 7 8.7 1.8
-5 7 -7 8.3 1.5
6 -7 7 337.07 4
-6 7 -7 321.47 4
-3 -6 7 349.96 3.5
3 6 -7 324.07 3.3
-2 -6 7 167.28 2.4
2 6 -7 144.39 2.3
-1 -6 7 370.76 3.3
1 6 -7 391.16 3.4
0 -6 7 323.77 3
0 6 -7 311.97 3.1
1 -6 7 680.03 4.2
-1 6 -7 711.63 4.4
2 -6 7 749.13 4.6
-2 6 -7 802.72 4.8
3 -6 7 454.95 3.8
-3 6 -7 476.85 4.1
3 -6 7 429.16 5.2
-3 6 -7 458.55 6.1
4 -6 7 555.94 4.5
-4 6 -7 653.93 5.4
4 -6 7 575.34 5
-4 6 -7 620.34 5.3
5 -6 7 69.69 2.7
-5 6 -7 55.89 2.9
5 -6 7 78.29 2
-5 6 -7 70.49 2
6 -6 7 419.46 3.8
-6 6 -7 309.37 3.7
7 -6 7 13.4 1.4
-7 6 -7 -2.2 1.2
-4 -5 7 14.8 1.6
4 5 -7 12.9 1.9
4 5 -7 13.2 1.3
4 5 -7 -0.4 2.3
-3 -5 7 609.54 4.1
3 5 -7 590.54 6.9
3 5 -7 499.15 3.7
3 5 -7 401.96 7.9
-2 -5 7 3.7 1.4
2 5 -7 4.6 1.6
2 5 -7 5.1 3.6
-1 -5 7 610.84 3.9
1 5 -7 606.54 3.9
0 -5 7 2.2 1.4
0 5 -7 2.2 1.5
1 -5 7 1123.79 5
-1 5 -7 1099.19 5.2
2 -5 7 87.39 1.8
2 -5 7 91.59 2.8
-2 5 -7 97.89 1.9
-2 5 -7 96.49 3.4
3 -5 7 286.47 3.4
3 -5 7 309.77 3.2
-3 5 -7 318.07 3.5
-3 5 -7 303.87 4.1
4 -5 7 171.68 2.6
-4 5 -7 206.48 3.4
4 -5 7 195.18 3.1
-4 5 -7 190.48 3
-5 5 -7 301.27 5
5 -5 7 317.27 4.6
5 -5 7 301.57 3.1
-5 5 -7 263.27 3
6 -5 7 476.95 3.6
-6 5 -7 421.76 3.4
7 -5 7 213.58 2.6
-7 5 -7 219.58 2.7
8 -5 7 286.17 3.1
-8 5 -7 305.77 3.2
4 4 -7 -0.2 3
-4 -4 7 163.28 2.3
4 4 -7 0.7 2.3
4 4 -7 152.38 3.6
-3 -4 7 302.87 3
3 4 -7 258.67 3.1
3 4 -7 350.86 4.7
3 4 -7 338.57 3.9
-2 -4 7 134.59 2.2
2 4 -7 163.58 3
2 4 -7 131.49 2.4
2 4 -7 157.68 3.4
1 4 -7 432.86 5
-1 -4 7 404.26 3
1 4 -7 410.86 3.3
1 4 -7 454.65 5.7
0 -4 7 183.78 2.2
0 4 -7 185.08 3.9
0 4 -7 177.88 2.5
0 4 -7 198.98 3.9
1 -4 7 457.05 3.3
-1 4 -7 486.55 5.8
1 -4 7 461.75 4.8
-1 4 -7 443.36 3.3
2 -4 7 32.8 1.7
2 -4 7 27.7 1.2
-2 4 -7 35.4 2
-2 4 -7 30 1.6
3 -4 7 532.25 3.9
3 -4 7 587.14 4.1
-3 4 -7 586.94 4.4
-3 4 -7 594.74 5
4 -4 7 2.1 1.3
-4 4 -7 4.4 1.5
-4 4 -7 6.1 1.6
4 -4 7 2 1.2
-5 4 -7 1356.46 9.7
5 -4 7 1260.67 5.5
-5 4 -7 1160.68 6
5 -4 7 1376.86 8.8
6 -4 7 35.9 1.3
-6 4 -7 31.4 1.6
7 -4 7 800.12 4.4
-7 4 -7 719.03 4.2
8 -4 7 45.6 1.7
-8 4 -7 47.1 1.7
9 -4 7 135.09 3.1
-9 4 -7 318.27 3.1
5 3 -7 8.5 1.3
-5 -3 7 8.8 1.5
5 3 -7 3.2 1.5
5 3 -7 5.6 1.6
-4 -3 7 428.06 3.5
4 3 -7 385.56 3.2
4 3 -7 418.36 4.2
4 3 -7 377.86 3.5
3 3 -7 42.4 1.5
-3 -3 7 41.7 1.7
3 3 -7 39.1 1.7
3 3 -7 40.5 1.7
2 3 -7 516.85 4.1
-2 -3 7 483.45 3.4
2 3 -7 446.26 3.4
2 3 -7 521.75 4.4
-1 -3 7 229.98 2.3
1 3 -7 260.27 3
1 3 -7 241.38 2.6
1 3 -7 241.98 3.1
0 3 -7 533.25 4.2
0 -3 7 467.75 3.2
0 3 -7 472.35 4.1
0 3 -7 449.16 3.3
1 -3 7 831.22 4.9
1 -3 7 817.12 4.2
-1 3 -7 783.22 5.2
-1 3 -7 741.53 4.4
2 -3 7 180.18 2.4
2 -3 7 181.98 2.2
-2 3 -7 173.08 2.8
-2 3 -7 162.98 2.5
3 -3 7 1452.35 5.8
-3 3 -7 1571.14 6.9
3 -3 7 1535.55 6.2
-3 3 -7 1326.97 6.7
4 -3 7 282.17 3.1
4 -3 7 242.98 2.4
-4 3 -7 292.97 3.1
-4 3 -7 271.97 3.6
5 -3 7 1256.47 7.5
5 -3 7 1170.38 5.2
-5 3 -7 1132.49 5.3
-5 3 -7 1217.28 8.7
6 -3 7 176.08 2.3
-6 3 -7 168.58 2.3
7 -3 7 751.62 4.1
-7 3 -7 740.13 4.2
8 -3 7 8.1 1.4
-8 3 -7 5.6 1.5
9 -3 7 273.67 3
-9 3 -7 298.67 3.1
5 2 -7 44.1 1.6
-5 -2 7 -0.4 1.6
5 2 -7 43.7 1.7
5 2 -7 -12.7 1.5
4 2 -7 335.47 2.8
-4 -2 7 347.17 3
4 2 -7 302.47 2.8
4 2 -7 334.97 3.2
3 2 -7 3.8 1
-3 -2 7 1 1.3
3 2 -7 -0.7 1.3
3 2 -7 0.3 0.9
2 2 -7 873.01 4.5
-2 -2 7 748.03 4
2 2 -7 747.93 4.1
2 2 -7 819.12 4.6
1 2 -7 11.1 1.2
1 2 -7 11 1.2
-1 -2 7 9.3 1
1 2 -7 10.1 1.3
0 -2 7 1417.16 5.9
0 2 -7 1443.26 6.1
0 -2 7 1443.26 5.1
0 2 -7 1468.55 5.5
1 -2 7 184.58 2.3
-1 2 -7 190.48 2.4
1 -2 7 206.98 2.2
-1 2 -7 192.98 2.6
2 -2 7 1345.67 5.4
-2 2 -7 1341.87 5.8
2 -2 7 1426.46 5.5
-2 2 -7 1305.87 5.9
-3 2 -7 157.28 2.6
3 -2 7 152.68 2.1
-3 2 -7 163.58 2.1
3 -2 7 157.98 2.2
-4 2 -7 818.42 5.7
4 -2 7 884.91 4.3
4 -2 7 992.5 5.3
-4 2 -7 983.7 4.8
-5 2 -7 307.07 4.3
5 -2 7 319.87 2.7
-5 2 -7 343.77 3
5 -2 7 378.96 3.8
-6 2 -7 433.76 5.7
6 -2 7 469.25 3.2
-6 2 -7 429.36 3.2
-6 2 -7 431.56 6.4
7 -2 7 373.56 3.1
-7 2 -7 377.16 3.1
8 -2 7 113.89 2
-8 2 -7 16.6 2.1
9 -2 7 259.77 2.5
-9 2 -7 250.27 2.5
-5 -1 7 98.29 2
5 1 -7 89.99 1.9
5 1 -7 85.29 1.7
5 1 -7 91.99 2.1
4 1 -7 437.46 3.1
-4 -1 7 372.86 3.4
4 1 -7 398.06 3.3
4 1 -7 435.76 3.3
-3 -1 7 45.1 2.2
3 1 -7 173.48 2.3
3 1 -7 142.89 2
3 1 -7 145.09 1.9
2 1 -7 1000.4 4.5
-2 -1 7 1003.3 4.5
2 1 -7 976.4 4.6
2 1 -7 966.2 4.4
1 1 -7 314.57 2.7
1 1 -7 305.87 2.7
-1 -1 7 287.17 2.5
1 1 -7 282.57 2.5
0 1 -7 1575.74 5.8
0 1 -7 1661.43 5.8
0 -1 7 1593.54 5.6
0 -1 7 1531.25 5.3
-1 1 -7 222.68 2.6
-1 1 -7 194.18 2.1
1 -1 7 194.08 2
1 -1 7 213.08 2.1
-2 1 -7 1781.02 6.5
2 -1 7 1810.12 5.8
-2 1 -7 1802.82 6.2
2 -1 7 1798.82 5.9
3 -1 7 25.1 1.4
-3 1 -7 20 1.6
3 -1 7 19.5 1
-3 1 -7 20 1.4
-4 1 -7 941.81 5.5
4 -1 7 1079.59 4.4
-4 1 -7 1148.99 4.8
4 -1 7 1260.07 5.5
5 -1 7 86.79 1.8
-5 1 -7 71.79 2
5 -1 7 90.09 1.9
-5 1 -7 89.29 1.8
-6 1 -7 423.16 4.3
6 -1 7 417.66 2.9
-6 1 -7 374.16 4.3
-6 1 -7 427.76 3.1
-7 1 -7 39.7 2.3
7 -1 7 37.8 1.2
-7 1 -7 33.9 2.2
-7 1 -7 34.9 1.2
8 -1 7 373.76 3.1
-8 1 -7 362.16 5.7
-8 1 -7 375.26 3.1
-8 1 -7 412.26 6.2
-9 1 -7 202.98 7.7
9 -1 7 200.58 2.5
-9 1 -7 210.68 7.3
-9 1 -7 171.38 2.4
10 -1 7 203.78 2.5
-10 1 -7 197.48 2.5
5 0 -7 466.85 3.4
-5 0 7 437.36 3.6
5 0 -7 484.65 3.4
5 0 -7 473.85 3.6
4 0 -7 242.58 2.4
-4 0 7 225.58 2.7
4 0 -7 234.78 2.7
4 0 -7 241.58 2.5
3 0 -7 949.6 4.1
-3 0 7 889.61 4.3
3 0 -7 951.4 4.5
3 0 -7 959.6 4.3
2 0 -7 361.06 2.5
-2 0 7 360.66 2.8
2 0 -7 377.76 3
2 0 -7 370.66 2.7
1 0 -7 615.34 3.5
1 0 -7 655.63 3.5
1 0 -7 632.34 3.4
-1 0 7 604.24 3.4
0 0 7 593.34 3.2
0 0 -7 592.34 3.4
0 0 -7 625.24 3.3
0 0 7 591.24 3.4
1 0 7 399.96 2.7
-1 0 -7 424.96 3.2
-1 0 -7 406.36 2.8
1 0 7 414.86 2.8
2 0 7 914.31 4
2 0 7 967.4 4.3
-2 0 -7 854.71 4.3
-2 0 -7 939.51 4.2
3 0 7 122.89 1.6
-3 0 -7 124.69 1.9
-3 0 -7 113.49 1.8
3 0 7 134.79 2
4 0 7 1370.36 5.5
-4 0 -7 1179.38 4.5
-4 0 -7 1121.59 5.4
4 0 7 1204.08 4.5
-5 0 -7 70.99 1.6
5 0 7 72.59 1.5
5 0 7 79.09 1.8
-5 0 -7 62.79 1.7
-6 0 -7 765.62 4.8
6 0 7 812.82 3.8
-6 0 -7 805.12 3.8
-6 0 -7 765.92 5
-7 0 -7 22.6 1.7
-7 0 -7 22.6 1.7
7 0 7 23.9 1.1
-7 0 -7 22.1 1.4
-8 0 -7 901.11 6
8 0 7 896.31 4.6
-8 0 -7 950 6.9
-8 0 -7 832.52 4.3
-9 0 -7 3.3 1.6
9 0 7 6.2 1.1
-9 0 -7 5.5 1.7
-9 0 -7 4.9 1
-10 0 -7 209.98 4.6
10 0 7 224.08 2.6
-10 0 -7 219.28 2.5
-10 0 -7 247.28 5.1
5 -1 -7 549.05 3.5
-5 1 7 573.14 3.8
5 -1 -7 540.75 3.8
5 -1 -7 540.25 3.6
4 -1 -7 18.4 1.3
-4 1 7 28.7 1.6
4 -1 -7 17.4 1.4
4 -1 -7 18.2 1.5
3 -1 -7 644.74 3.3
-3 1 7 617.94 3.7
3 -1 -7 669.63 3.5
3 -1 -7 646.24 3.7
2 -1 -7 1.4 1.2
2 -1 -7 2.7 1
2 -1 -7 1.7 0.8
-2 1 7 -0.1 1.3
1 -1 -7 920.31 4
1 -1 -7 973.9 3.9
-1 1 7 925.21 4.1
0 1 7 83.79 1.5
0 -1 -7 100.79 1.7
0 -1 -7 78.19 1.4
0 1 7 78.29 1.4
1 1 7 1017.8 4.3
1 1 7 1063.49 4
-1 -1 -7 1072.29 4.1
-1 -1 -7 956.3 4.4
-2 -1 -7 320.07 2.3
-2 -1 -7 293.97 2.5
2 1 7 337.77 2.6
2 1 7 310.57 2.4
3 1 7 1352.46 4.6
-3 -1 -7 1407.46 4.7
-3 -1 -7 1339.87 5.3
3 1 7 1529.35 5.3
4 1 7 601.84 3.1
-4 -1 -7 638.64 3.2
4 1 7 759.52 4
-4 -1 -7 648.14 3.8
-5 -1 -7 910.01 4.7
5 1 7 816.72 3.7
-5 -1 -7 826.62 3.7
-6 -1 -7 854.61 4.7
-6 -1 -7 894.01 4.7
6 1 7 844.42 3.9
-6 -1 -7 844.62 3.8
-7 -1 -7 558.24 4.3
7 1 7 542.75 3.2
-7 -1 -7 543.55 4
-7 -1 -7 524.85 3.1
8 1 7 743.23 3.8
-8 -1 -7 754.22 5.1
-8 -1 -7 742.53 4.7
-8 -1 -7 660.33 3.6
9 1 7 133.19 2
-9 -1 -7 142.59 2.9
-9 -1 -7 123.89 2
-9 -1 -7 135.59 2.6
10 1 7 162.68 2.3
-10 -1 -7 152.08 2.3
-10 -1 -7 121.29 3.5
-10 -1 -7 169.08 3.1
5 -2 -7 83.99 1.7
5 -2 -7 84.69 1.9
-5 2 7 86.99 1.8
5 -2 -7 93.59 1.9
4 -2 -7 185.58 2
4 -2 -7 -24 2.3
-4 2 7 130.99 2.5
4 -2 -7 213.08 2.5
3 -2 -7 318.57 2.7
3 -2 -7 296.27 2.4
-3 2 7 303.47 2.7
3 -2 -7 284.07 2.3
-2 2 7 120.99 1.9
2 -2 -7 117.69 1.7
2 -2 -7 107.79 1.6
2 -2 -7 107.69 1.5
-1 2 7 906.41 4.1
1 -2 -7 1006.2 3.8
1 -2 -7 827.42 3.9
0 2 7 7.3 1.1
0 -2 -7 8.8 1.1
0 2 7 7.5 0.8
0 -2 -7 5.1 0.8
1 2 7 1414.96 4.5
-1 -2 -7 1500.15 4.8
1 2 7 1493.95 5
-1 -2 -7 1311.27 4.7
2 2 7 3.4 0.9
-2 -2 -7 2.3 0.7
-2 -2 -7 1.5 1.1
2 2 7 11 0.9
3 2 7 1930.71 5.4
-3 -2 -7 2025.4 5.6
3 2 7 2367.86 6.3
-3 -2 -7 2132.69 6.2
-4 -2 -7 2.8 0.9
4 2 7 3.2 0.9
-4 -2 -7 6.9 0.7
4 2 7 4.1 0.9
5 2 7 1338.37 4.5
-5 -2 -7 1445.66 5.4
-5 -2 -7 1382.66 4.6
-5 -2 -7 1447.26 5.3
-6 -2 -7 13.6 1.2
6 2 7 11.9 1
-6 -2 -7 16.9 1
-6 -2 -7 13.7 1
7 2 7 1018.9 4.3
-7 -2 -7 958.3 4.2
-7 -2 -7 1027.9 5.3
-7 -2 -7 995.3 4.9
-8 -2 -7 125.79 2
8 2 7 139.99 1.8
-8 -2 -7 145.59 2.3
-8 -2 -7 128.49 1.9
-9 -2 -7 193.58 2.8
9 2 7 207.28 2.3
-9 -2 -7 225.08 3
-9 -2 -7 203.68 2.3
-10 -2 -7 48.4 2.7
10 2 7 156.78 2.3
-10 -2 -7 148.49 3
-10 -2 -7 145.39 2.4
-5 3 7 16.9 1.6
5 -3 -7 15.2 1
5 -3 -7 14.2 1.2
5 -3 -7 17.6 1.3
4 -3 -7 384.46 3.1
-4 3 7 369.06 3
4 -3 -7 327.87 2.6
4 -3 -7 328.37 2.6
-3 3 7 132.59 1.9
3 -3 -7 124.29 1.8
3 -3 -7 133.89 1.8
3 -3 -7 126.09 1.8
2 -3 -7 603.94 3
2 -3 -7 625.84 3
-2 3 7 593.64 3.5
2 -3 -7 524.25 3.2
1 -3 -7 511.65 2.9
-1 3 7 533.35 3.1
1 -3 -7 472.15 3
0 -3 -7 586.64 2.9
0 3 7 577.14 2.9
0 3 7 638.74 3.3
0 -3 -7 554.64 3.1
1 3 7 1215.88 4
-1 -3 -7 1221.38 4.1
-1 -3 -7 1175.38 4.4
1 3 7 1270.07 4.5
2 3 7 743.23 3.2
2 3 7 913.31 3.8
-2 -3 -7 772.32 3.3
-2 -3 -7 777.12 3.5
3 3 7 1556.34 4.9
-3 -3 -7 1405.76 4.8
3 3 7 1233.38 4.2
-3 -3 -7 1313.27 4.4
4 3 7 156.08 1.8
4 3 7 197.58 1.9
-4 -3 -7 181.68 1.9
-4 -3 -7 158.58 1.6
5 3 7 888.81 3.7
-5 -3 -7 899.91 3.8
-5 -3 -7 950.9 4.2
-5 -3 -7 1033.8 4.4
-6 -3 -7 6.4 1.2
6 3 7 5.4 0.9
-6 -3 -7 8.2 1.2
-6 -3 -7 5.9 0.9
-7 -3 -7 737.73 4
-7 -3 -7 628.74 3.8
7 3 7 647.34 3.5
-7 -3 -7 621.54 3.4
-8 -3 -7 8.4 1.2
8 3 7 8.1 1.3
-8 -3 -7 10.4 1.3
-8 -3 -7 8.2 1
-9 -3 -7 407.96 3.7
-9 -3 -7 479.55 3.9
9 3 7 451.85 3.4
-9 -3 -7 398.66 3.1
5 -4 -7 3.1 1.4
5 -4 -7 1.5 1.3
-5 4 7 1.7 1.1
5 -4 -7 1 1.2
4 -4 -7 382.96 3.2
-4 4 7 366.66 3.3
4 -4 -7 328.87 2.8
4 -4 -7 297.07 2.6
-3 4 7 0.4 1.1
3 -4 -7 2.8 1
3 -4 -7 2.6 1.2
3 -4 -7 0.8 0.9
2 -4 -7 842.62 3.7
2 -4 -7 844.92 3.7
2 -4 -7 884.41 4
-2 4 7 1003.6 4.4
1 -4 -7 86.89 1.5
1 -4 -7 60.29 1.5
-1 4 7 68.69 1.4
0 4 7 1166.78 4
0 -4 -7 1243.08 4.1
0 -4 -7 1111.19 4.2
0 4 7 1326.57 4.7
1 4 7 11.5 0.8
1 4 7 17.1 1.2
-1 -4 -7 12.8 0.8
-1 -4 -7 15.9 0.9
-2 -4 -7 1104.19 4.1
2 4 7 1124.09 3.9
-2 -4 -7 1123.49 3.8
2 4 7 1276.27 4.4
3 4 7 297.07 2.3
3 4 7 259.57 2.1
-3 -4 -7 276.07 2.3
-3 -4 -7 270.27 2
-4 -4 -7 184.78 1.9
4 4 7 173.38 1.8
-4 -4 -7 186.18 1.9
-4 -4 -7 198.28 2
-5 -4 -7 483.35 3.1
5 4 7 457.45 2.8
-5 -4 -7 460.95 2.8
-5 -4 -7 529.05 3.2
-6 -4 -7 130.29 1.9
-6 -4 -7 126.39 1.9
6 4 7 115.59 1.8
-6 -4 -7 110.79 1.6
-7 -4 -7 482.45 3.3
-7 -4 -7 477.25 3.4
7 4 7 458.45 3.1
-7 -4 -7 390.56 3
8 4 7 158.28 2.1
-8 -4 -7 176.68 2.3
-8 -4 -7 160.68 2.3
-8 -4 -7 147.79 2.2
9 4 7 478.85 3.6
-9 -4 -7 478.45 3.8
-9 -4 -7 -80.19 3.6
-9 -4 -7 419.36 3.4
4 -5 -7 200.08 2.3
4 -5 -7 212.38 2.5
-4 5 7 30.7 2.7
4 -5 -7 198.28 2.2
3 -5 -7 159.88 1.9
3 -5 -7 157.78 2.2
-3 5 7 170.88 2.3
3 -5 -7 150.58 1.9
2 -5 -7 434.56 2.7
2 -5 -7 431.66 2.7
2 -5 -7 440.96 3
-2 5 7 467.75 3.1
-1 5 7 107.79 1.8
1 -5 -7 94.69 1.5
1 -5 -7 94.79 1.5
0 5 7 250.27 2
0 -5 -7 252.57 2
0 5 7 282.57 2.4
0 -5 -7 246.28 2.1
-1 -5 -7 255.27 2.2
-1 -5 -7 262.47 2.1
1 5 7 301.07 2.4
1 5 7 239.48 2.1
2 5 7 590.34 3
-2 -5 -7 614.24 3.3
-2 -5 -7 599.34 2.9
2 5 7 692.13 3.4
3 5 7 26.8 0.9
3 5 7 32.5 1.1
-3 -5 -7 29.5 1.3
-3 -5 -7 29.3 1
-4 -5 -7 703.83 3.4
4 5 7 666.73 3.2
-4 -5 -7 672.73 3.3
-4 -5 -7 779.42 3.6
-5 -5 -7 13.5 1
5 5 7 11.1 1.1
-5 -5 -7 14.6 0.9
-5 -5 -7 12.5 1.3
-6 -5 -7 974.3 4.4
-6 -5 -7 939.71 4.2
6 5 7 880.01 4
-6 -5 -7 920.11 4.2
-7 -5 -7 89.79 1.6
-7 -5 -7 81.59 1.6
-7 -5 -7 86.49 1.9
7 5 7 75.19 1.7
8 5 7 465.05 3.4
-8 -5 -7 474.55 3.6
-8 -5 -7 379.66 3.3
-8 -5 -7 427.26 3.1
9 5 7 70.19 1.6
-9 -5 -7 89.69 2.1
-9 -5 -7 82.79 1.8
-9 -5 -7 77.79 1.9
-4 6 7 37 1.7
4 -6 -7 32.6 1.5
4 -6 -7 8.6 1.6
4 -6 -7 34.1 1.5
-3 6 7 334.17 3
3 -6 -7 156.18 2.5
3 -6 -7 293.97 2.8
3 -6 -7 257.27 2.4
2 -6 -7 126.89 1.7
2 -6 -7 125.29 1.8
-2 6 7 132.79 2.1
2 -6 -7 117.79 1.7
1 -6 -7 313.77 2.4
-1 6 7 352.96 2.7
1 -6 -7 307.47 2.6
0 6 7 323.37 2.7
0 6 7 257.77 2.1
0 -6 -7 270.07 2.2
0 -6 -7 283.87 2.4
-1 -6 -7 139.29 1.7
1 6 7 140.09 1.6
-1 -6 -7 143.99 1.7
1 6 7 170.38 1.9
-2 -6 -7 756.62 3.6
2 6 7 693.43 3.2
2 6 7 883.71 4.1
-2 -6 -7 801.32 3.4
-3 -6 -7 72.99 1.4
3 6 7 78.69 1.3
-3 -6 -7 76.79 1.3
-3 -6 -7 73.59 1.4
-4 -6 -7 707.03 3.6
4 6 7 721.43 3.3
-4 -6 -7 753.62 3.3
-4 -6 -7 739.83 3.7
-5 -6 -7 124.99 1.8
5 6 7 120.39 1.8
-5 -6 -7 108.49 1.7
-5 -6 -7 118.39 1.8
6 6 7 706.23 3.8
-6 -6 -7 826.62 4.3
-6 -6 -7 702.43 3.7
-6 -6 -7 798.32 4.2
7 6 7 2.3 1.3
-7 -6 -7 6.6 1.4
-7 -6 -7 1.5 1
-7 -6 -7 2 1.2
8 6 7 278.77 2.8
-8 -6 -7 285.47 2.7
-8 -6 -7 312.87 3
-8 -6 -7 256.37 2.9
3 -7 -7 201.38 2.3
3 -7 -7 221.88 2.6
-3 7 7 220.88 2.6
3 -7 -7 159.88 2.3
2 -7 -7 29.1 1.4
2 -7 -7 33.8 1.4
2 -7 -7 34.5 1.2
-2 7 7 38.5 1.6
1 -7 -7 397.66 2.9
-1 7 7 411.56 3.1
1 -7 -7 368.36 2.8
1 -7 -7 378.76 2.9
0 7 7 164.58 2.2
0 7 7 141.09 1.7
0 -7 -7 147.19 1.7
0 -7 -7 157.08 2.1
-1 -7 -7 387.56 2.8
1 7 7 436.26 3.1
-1 -7 -7 395.86 2.7
1 7 7 384.36 2.6
-2 -7 -7 87.59 1.5
2 7 7 105.89 1.7
-2 -7 -7 103.29 1.7
-2 -7 -7 96.09 1.6
-3 -7 -7 547.45 3.1
3 7 7 538.95 3
-3 -7 -7 604.34 3.2
-3 -7 -7 586.24 3.3
-4 -7 -7 172.68 2.1
4 7 7 162.58 2
-4 -7 -7 169.98 1.9
-4 -7 -7 169.68 2
-5 -7 -7 259.77 2.7
5 7 7 248.58 2.2
-5 -7 -7 227.28 2.5
-5 -7 -7 250.57 2.3
6 7 7 130.59 1.8
-6 -7 -7 133.09 2
-6 -7 -7 141.29 2
-6 -7 -7 128.19 1.9
7 7 7 50.99 2
-7 -7 -7 96.69 1.8
-7 -7 -7 73.19 1.8
-7 -7 -7 98.49 2
2 -8 -7 -2.3 0.9
2 -8 -7 17.9 1
2 -8 -7 17.3 1.1
-2 8 7 1 1.3
1 -8 -7 237.58 2.4
1 -8 -7 242.58 2.4
1 -8 -7 252.57 2.4
-1 8 7 286.47 2.7
0 -8 -7 38.5 1.4
0 8 7 38.6 1.3
0 -8 -7 41.3 1.4
-1 -8 -7 407.66 3.1
-1 -8 -7 430.96 3.2
1 8 7 429.96 2.8
-1 -8 -7 426.66 2.8
-2 -8 -7 18.7 1.1
-2 -8 -7 25.2 1
-2 -8 -7 22.6 1.1
2 8 7 21.4 1
3 8 7 495.35 3.1
-3 -8 -7 449.56 3.1
-3 -8 -7 492.45 3
-3 -8 -7 478.65 3.2
4 8 7 20.1 1
-4 -8 -7 15.9 1
-4 -8 -7 17.6 1
-4 -8 -7 16 1.1
-5 -8 -7 208.38 2.3
5 8 7 203.08 2.2
-5 -8 -7 195.78 2.4
-5 -8 -7 211.18 2.2
6 8 7 1.9 0.9
-6 -8 -7 3.1 1.5
-6 -8 -7 5.5 1.4
-6 -8 -7 5 1
1 -9 -7 74.59 1.6
1 -9 -7 82.89 1.8
1 -9 -7 79.49 1.7
0 -9 -7 154.68 2.1
0 -9 -7 140.29 2
0 -9 -7 156.48 2
1 9 7 166.28 2.1
-1 -9 -7 159.38 2.2
-1 -9 -7 126.79 2
-1 -9 -7 175.58 2.1
2 9 7 44.4 1.3
-2 -9 -7 40.9 1.5
-2 -9 -7 45.3 1.3
-2 -9 -7 4 1.4
3 9 7 262.67 2.5
-3 -9 -7 272.67 2.5
-3 -9 -7 248.18 2.7
-3 -9 -7 225.68 2.5
4 9 7 1.3 1.2
-4 -9 -7 2.1 1.2
-4 -9 -7 -0.1 0.9
-4 -9 -7 0.2 1.1
5 9 7 169.38 2.1
-5 -9 -7 177.58 2.5
-5 -9 -7 181.88 2.2
-5 -9 -7 146.59 2.7
0 -7 8 294.87 3.2
0 7 -8 302.37 3.3
1 -7 8 -31.2 2.6
-1 7 -8 152.98 2.6
2 -7 8 392.16 3.6
-2 7 -8 366.36 3.9
-3 7 -8 188.68 3
3 -7 8 157.48 2.6
-4 7 -8 352.16 5.9
-4 7 -8 320.57 4.4
4 -7 8 332.67 4.1
4 -7 8 310.87 4.8
-5 7 -8 209.18 4.4
5 -7 8 195.48 3.5
5 -7 8 95.29 4.3
-5 7 -8 202.98 4.3
-2 -6 8 56.89 3.4
2 6 -8 339.07 3.4
-1 -6 8 3.8 1.7
1 6 -8 12.7 1.6
0 -6 8 10.4 4.3
0 6 -8 612.34 4.1
1 -6 8 13.6 1.2
-1 6 -8 15.2 1.7
2 -6 8 670.53 4.3
-2 6 -8 726.53 4.8
3 -6 8 4.9 1.8
-3 6 -8 7.2 1.5
3 -6 8 5.8 1.3
-3 6 -8 5.3 2.2
4 -6 8 472.55 4.7
-4 6 -8 569.94 5
4 -6 8 522.65 4.7
-4 6 -8 523.85 5.4
5 -6 8 26 2
-5 6 -8 23.4 2.3
5 -6 8 26 1.7
-5 6 -8 2.8 1.8
6 -6 8 235.38 3.2
-6 6 -8 10.8 3.1
7 -6 8 116.89 2.3
-7 6 -8 85.59 2.4
3 5 -8 265.67 5.5
3 5 -8 233.98 2.8
3 5 -8 218.18 6
-3 -5 8 243.88 2.8
-2 -5 8 215.58 2.6
2 5 -8 209.88 7.8
2 5 -8 218.98 2.6
2 5 -8 224.98 8.2
-1 -5 8 360.26 3.1
1 5 -8 374.76 3.3
0 -5 8 318.37 2.8
0 5 -8 338.37 3.1
1 -5 8 149.79 2.1
-1 5 -8 166.78 2.4
2 -5 8 575.84 6.3
-2 5 -8 542.35 3.9
2 -5 8 587.74 3.8
-2 5 -8 550.84 7.3
3 -5 8 29.6 1.7
3 -5 8 22.1 1.4
-3 5 -8 24.3 1.6
-3 5 -8 23.1 2.1
4 -5 8 402.66 3.9
-4 5 -8 478.85 4.5
4 -5 8 436.86 4
-4 5 -8 419.86 4.4
5 -5 8 8.8 1.6
-5 5 -8 4.9 1.8
5 -5 8 5.6 1.2
-5 5 -8 4.4 1.5
6 -5 8 532.15 3.9
-6 5 -8 500.25 4.1
7 -5 8 3 1.5
-7 5 -8 4.2 1.6
8 -5 8 474.65 3.9
-8 5 -8 391.96 3.8
3 4 -8 432.96 4.5
-3 -4 8 375.96 3.5
3 4 -8 349.17 3.4
3 4 -8 430.96 5.6
-2 -4 8 1.4 1.5
2 4 -8 1.4 1.4
2 4 -8 0.4 1.5
2 4 -8 1.6 1.9
-1 -4 8 425.36 3.2
1 4 -8 495.55 5.2
1 4 -8 419.36 3.5
1 4 -8 485.45 5.6
0 -4 8 35.5 1.3
0 4 -8 35.6 2
0 4 -8 34.8 1.7
0 4 -8 40.3 2.1
-1 4 -8 972.7 6.5
1 -4 8 808.62 4.3
-1 4 -8 838.52 6.9
-1 4 -8 748.53 4.3
2 -4 8 321.57 3.5
2 -4 8 323.17 3
-2 4 -8 356.46 4.5
-2 4 -8 310.27 3.1
3 -4 8 712.43 4.6
3 -4 8 737.03 4.4
-3 4 -8 791.32 5.8
-3 4 -8 701.53 4.8
4 -4 8 459.75 3.5
-4 4 -8 489.55 4.6
-4 4 -8 500.15 4.5
4 -4 8 477.85 3.9
5 -4 8 362.56 3.1
5 -4 8 406.06 4.5
-5 4 -8 424.96 4.9
-5 4 -8 405.56 3.7
6 -4 8 822.32 4.5
-6 4 -8 779.02 4.6
7 -4 8 155.68 2.1
-7 4 -8 136.99 2.1
8 -4 8 501.15 3.8
-8 4 -8 518.75 3.9
4 3 -8 102.39 2
-4 -3 8 31.6 2.4
4 3 -8 100.89 2
4 3 -8 106.59 2.6
3 3 -8 254.97 3.1
-3 -3 8 246.68 2.7
3 3 -8 217.58 2.5
3 3 -8 232.38 3.4
2 3 -8 59.29 1.8
-2 -3 8 46.8 1.5
2 3 -8 51.99 1.9
2 3 -8 54.29 1.9
1 3 -8 604.54 4.6
-1 -3 8 553.64 3.6
1 3 -8 516.35 3.5
1 3 -8 594.64 4.7
0 3 -8 12.5 1.3
0 3 -8 9.3 1.2
0 -3 8 9.9 1.5
0 3 -8 11.2 1.7
1 -3 8 1722.23 7
-1 3 -8 1651.13 7.4
1 -3 8 1757.82 5.8
-1 3 -8 1492.95 6
2 -3 8 66.29 1.8
-2 3 -8 62.29 1.9
2 -3 8 68.39 1.5
-2 3 -8 59.99 1.9
3 -3 8 1367.06 5.6
-3 3 -8 1396.06 6.4
3 -3 8 1426.56 5.8
-3 3 -8 1187.78 6
4 -3 8 126.99 2.2
4 -3 8 110.19 1.7
-4 3 -8 117.09 2
-4 3 -8 111.49 2.5
5 -3 8 1459.95 5.6
-5 3 -8 1578.44 6.3
-5 3 -8 1556.54 8.7
5 -3 8 1643.44 7.6
6 -3 8 319.57 2.8
-6 3 -8 319.37 5.5
-6 3 -8 290.07 2.8
7 -3 8 539.65 3.5
-7 3 -8 531.05 3.6
8 -3 8 185.38 2.3
-8 3 -8 174.78 2.4
9 -3 8 110.29 1.9
-9 3 -8 107.89 2.1
4 2 -8 195.68 2.4
-4 -2 8 -38.6 2.2
4 2 -8 182.48 2.4
4 2 -8 188.98 2.7
3 2 -8 200.28 2.4
-3 -2 8 -17.4 2.3
3 2 -8 170.78 2.4
3 2 -8 188.98 2.5
2 2 -8 213.58 2.5
-2 -2 8 5.7 2.3
2 2 -8 208.18 2.3
2 2 -8 35.6 2.7
1 2 -8 750.32 4.3
-1 -2 8 680.43 3.7
1 2 -8 710.93 3.9
1 2 -8 753.72 4.4
0 2 -8 231.38 2.6
0 -2 8 222.38 2.2
0 2 -8 228.28 2.6
-1 2 -8 911.61 4.7
1 -2 8 959.5 4.3
1 -2 8 894.01 4.5
-1 2 -8 905.81 4.6
2 -2 8 116.59 1.9
-2 2 -8 109.59 1.8
2 -2 8 112.19 1.7
-2 2 -8 118.29 2.2
3 -2 8 824.42 4.2
-3 2 -8 831.62 4.5
3 -2 8 822.02 4.3
-3 2 -8 796.42 4.7
-4 2 -8 103.79 2.3
4 -2 8 103.09 1.8
4 -2 8 118.59 2
-4 2 -8 108.49 1.9
-5 2 -8 1009.2 6.8
5 -2 8 1211.08 5.9
5 -2 8 973.6 4.4
-5 2 -8 1113.09 4.8
-6 2 -8 9.8 1.8
6 -2 8 10 1
-6 2 -8 6.9 1
-7 2 -8 469.15 7.4
7 -2 8 485.05 3.4
-7 2 -8 435.66 3.2
-7 2 -8 477.95 8
8 -2 8 27.4 1.6
-8 2 -8 23.9 1.3
9 -2 8 269.67 2.9
-9 2 -8 260.97 2.7
4 1 -8 314.77 2.9
-4 -1 8 225.88 2.9
4 1 -8 293.07 2.8
4 1 -8 314.37 3.1
3 1 -8 2 1.1
-3 -1 8 3 1.1
3 1 -8 4.8 1
3 1 -8 0.9 1.3
2 1 -8 841.02 4.2
-2 -1 8 825.82 4.3
2 1 -8 775.82 4.1
2 1 -8 866.11 4.2
1 1 -8 124.89 1.9
1 1 -8 122.79 1.9
-1 -1 8 114.59 1.7
1 1 -8 112.09 1.8
0 1 -8 1321.57 5.4
0 -1 8 1333.27 5.1
0 -1 8 1414.06 5
0 1 -8 1407.36 5.3
-1 1 -8 169.18 2.1
1 -1 8 166.98 2
-1 1 -8 161.08 2.1
1 -1 8 165.88 2
2 -1 8 1196.98 4.6
-2 1 -8 1238.58 5.2
-2 1 -8 1189.48 4.8
2 -1 8 1272.07 4.9
3 -1 8 505.05 3.3
-3 1 -8 493.55 3.6
3 -1 8 473.55 2.9
-3 1 -8 491.35 3.2
-4 1 -8 351.46 3.4
4 -1 8 369.36 2.7
-4 1 -8 379.86 3
4 -1 8 420.26 3.1
-5 1 -8 376.46 3.7
5 -1 8 386.56 2.8
-5 1 -8 393.96 2.9
5 -1 8 465.85 3.6
-6 1 -8 168.78 2.6
-6 1 -8 148.99 3
6 -1 8 174.48 2
-6 1 -8 175.08 2
-7 1 -8 925.81 6.7
-7 1 -8 780.42 6.4
7 -1 8 904.81 4.3
-7 1 -8 871.81 4.3
-8 1 -8 61.79 2.8
8 -1 8 67.59 1.8
-8 1 -8 69.49 2.9
-8 1 -8 68.09 1.8
-9 1 -8 585.24 12.9
9 -1 8 567.34 3.8
-9 1 -8 537.55 3.8
-9 1 -8 544.35 12.9
5 0 -8 142.29 2.2
-5 0 8 142.59 2.3
5 0 -8 125.29 2.4
5 0 -8 137.99 2.3
4 0 -8 413.06 3.1
-4 0 8 402.46 3.4
4 0 -8 393.66 3.2
4 0 -8 437.46 3.4
3 0 -8 51.29 1.4
-3 0 8 47.4 1.4
3 0 -8 52.99 1.7
3 0 -8 50.79 1.3
2 0 -8 761.52 3.7
-2 0 8 731.93 3.8
2 0 -8 748.93 3.8
2 0 -8 806.62 3.7
1 0 -8 165.38 2
1 0 -8 176.98 1.9
1 0 -8 169.38 2
-1 0 8 156.58 2.1
0 0 -8 1097.79 4.7
0 0 8 1057.99 4.3
0 0 -8 1114.99 4.5
0 0 8 1057.19 4.3
1 0 8 2.5 1
-1 0 -8 2 1.3
-1 0 -8 0.9 1.1
1 0 8 4.3 1.2
2 0 8 966.7 4.1
2 0 8 898.51 3.9
-2 0 -8 906.51 4.4
-2 0 -8 918.81 4
3 0 8 289.37 2.3
-3 0 -8 257.07 2.7
3 0 8 302.17 2.5
-3 0 -8 292.57 2.5
4 0 8 506.85 3.3
4 0 8 445.26 2.7
-4 0 -8 411.26 3.3
-4 0 -8 450.55 3
5 0 8 268.47 2.7
5 0 8 243.08 2.3
-5 0 -8 246.48 2.2
-5 0 -8 232.38 2.6
-6 0 -8 1188.08 5.6
6 0 8 1322.97 4.8
-6 0 -8 1232.98 4.6
-6 0 -8 1195.58 6
-7 0 -8 561.34 4.6
7 0 8 594.84 3.3
-7 0 -8 560.24 3.2
-7 0 -8 514.95 4.5
8 0 8 313.57 2.7
-8 0 -8 345.27 4.1
-8 0 -8 308.27 2.7
-8 0 -8 316.77 3.9
9 0 8 232.08 2.5
-9 0 -8 242.58 4.2
-9 0 -8 210.98 2.4
-9 0 -8 162.08 3.6
5 -1 -8 227.08 2.5
-5 1 8 211.48 2.6
5 -1 -8 221.38 2.7
5 -1 -8 217.88 2.6
4 -1 -8 282.27 2.5
-4 1 8 275.67 2.7
4 -1 -8 306.47 2.9
4 -1 -8 201.58 2.7
3 -1 -8 241.68 2.2
-3 1 8 246.28 2.8
3 -1 -8 -37.7 2.6
3 -1 -8 233.58 2.5
2 -1 -8 186.58 1.9
2 -1 -8 180.08 2
2 -1 -8 193.78 2
-2 1 8 180.38 2.3
1 -1 -8 463.45 2.9
1 -1 -8 438.26 3.2
1 -1 -8 478.25 3
-1 1 8 -6.8 3.2
0 1 8 559.74 3.3
0 -1 -8 523.55 3.2
0 -1 -8 643.24 3.3
0 1 8 569.14 3
1 1 8 49 1.1
1 1 8 51.99 1.1
-1 -1 -8 54.49 1.2
-1 -1 -8 49.2 1.5
2 1 8 870.61 3.6
-2 -1 -8 860.61 3.6
2 1 8 913.51 3.9
-2 -1 -8 800.62 3.8
3 1 8 3.8 0.8
-3 -1 -8 10.9 0.9
-3 -1 -8 1 1.3
3 1 8 4.7 1.2
4 1 8 1206.38 4.2
4 1 8 1357.96 5.1
-4 -1 -8 1231.68 4.3
-4 -1 -8 1193.88 5.1
5 1 8 1.5 1.2
5 1 8 1.1 1.1
-5 -1 -8 2.5 1.1
-5 -1 -8 4 1.2
-6 -1 -8 1093.19 5.2
-6 -1 -8 1070.39 5.1
6 1 8 1025 4.2
-6 -1 -8 1114.89 4.3
-7 -1 -8 25 1.4
-7 -1 -8 27.6 1.6
7 1 8 21.2 1.1
-7 -1 -8 19.5 1
-8 -1 -8 238.88 3
-8 -1 -8 246.08 3.1
8 1 8 244.38 2.6
-8 -1 -8 219.38 2.4
-9 -1 -8 8.5 1.5
9 1 8 5.6 1.3
-9 -1 -8 9.8 1.5
-9 -1 -8 7.4 1.4
4 -2 -8 5.1 1
4 -2 -8 -0.7 1
4 -2 -8 8.6 1
-4 2 8 1.9 1.4
3 -2 -8 412.46 3.2
3 -2 -8 411.96 2.7
3 -2 -8 427.96 2.8
-3 2 8 414.76 3.2
2 -2 -8 76.79 1.6
-2 2 8 76.79 1.7
2 -2 -8 77.99 1.7
2 -2 -8 84.59 1.6
-1 2 8 578.14 3.5
1 -2 -8 523.35 3.4
1 -2 -8 582.34 3
0 2 8 521.15 2.9
0 2 8 502.85 3
0 -2 -8 559.84 3
0 -2 -8 469.35 3
1 2 8 763.32 3.2
-1 -2 -8 765.12 3.3
1 2 8 734.23 3.5
-1 -2 -8 690.73 3.6
2 2 8 646.34 3
-2 -2 -8 664.83 3
-2 -2 -8 631.34 3.3
2 2 8 733.63 3.4
3 2 8 1009.5 4
3 2 8 815.92 3.5
-3 -2 -8 835.82 3.5
-3 -2 -8 875.81 4
4 2 8 828.72 3.8
4 2 8 682.83 3.3
-4 -2 -8 713.13 3.4
-4 -2 -8 774.32 3.9
5 2 8 595.14 3.4
-5 -2 -8 537.75 3.4
5 2 8 477.15 2.9
-5 -2 -8 470.35 2.8
-6 -2 -8 468.95 3.3
-6 -2 -8 497.05 3.5
6 2 8 432.76 2.9
-6 -2 -8 447.26 2.8
-7 -2 -8 31.4 1.4
7 2 8 31.5 1.1
-7 -2 -8 30 1.4
-7 -2 -8 29.3 1.4
-8 -2 -8 379.76 3.4
8 2 8 311.27 2.9
-8 -2 -8 335.57 3.1
-8 -2 -8 86.49 2.7
9 2 8 0.6 1.3
-9 -2 -8 2.7 1.3
-9 -2 -8 1.1 1.2
-9 -2 -8 0.4 1.2
4 -3 -8 48.6 1.7
-4 3 8 36.1 1.3
4 -3 -8 41.2 1.4
4 -3 -8 35.3 1.1
3 -3 -8 461.95 3.4
-3 3 8 452.45 3.3
3 -3 -8 455.05 2.9
3 -3 -8 443.76 2.8
2 -3 -8 2.7 0.8
2 -3 -8 6.5 1.2
2 -3 -8 1.8 1.4
-2 3 8 1.9 1.1
1 -3 -8 942.91 3.8
-1 3 8 879.71 4.2
1 -3 -8 789.72 4
0 3 8 8.1 1
0 -3 -8 9.1 0.9
0 -3 -8 1.9 1
0 3 8 9.6 1.2
1 3 8 1245.68 4.2
-1 -3 -8 1317.67 4.4
-1 -3 -8 1280.07 4.7
1 3 8 1376.76 4.8
2 3 8 26.5 1
2 3 8 22.5 1.1
-2 -3 -8 22.1 1.1
-2 -3 -8 22.9 1.3
3 3 8 1179.28 4.2
-3 -3 -8 1207.48 4.3
3 3 8 1461.75 4.9
-3 -3 -8 1307.27 4.8
-4 -3 -8 72.29 1.7
4 3 8 64.29 1.4
-4 -3 -8 67.19 1.4
4 3 8 76.59 1.6
-5 -3 -8 696.13 3.4
-5 -3 -8 760.82 3.8
5 3 8 678.43 3.3
-5 -3 -8 703.03 3.4
-6 -3 -8 273.17 2.5
6 3 8 251.87 2.3
-6 -3 -8 280.37 2.4
-6 -3 -8 252.17 2.4
-7 -3 -8 220.78 2.5
7 3 8 227.58 2.3
-7 -3 -8 211.38 2.1
-7 -3 -8 245.28 2.5
-8 -3 -8 294.57 3
8 3 8 280.87 2.5
-8 -3 -8 272.47 2.4
-8 -3 -8 286.77 2.7
9 3 8 4.4 1.9
-9 -3 -8 70.49 2
-9 -3 -8 69.79 1.9
-9 -3 -8 67.29 1.8
4 -4 -8 240.48 2.8
4 -4 -8 216.78 2.4
-4 4 8 167.78 3
4 -4 -8 198.38 2.2
3 -4 -8 407.36 3.2
3 -4 -8 171.48 2.8
-3 4 8 336.87 3.3
3 -4 -8 339.67 2.8
2 -4 -8 350.06 2.5
2 -4 -8 360.56 2.6
2 -4 -8 310.47 2.6
-2 4 8 371.96 3.1
1 -4 -8 614.24 3.1
1 -4 -8 544.55 3.3
-1 4 8 610.64 3.6
0 4 8 275.57 2.2
0 -4 -8 309.47 2.3
0 -4 -8 259.47 2.3
0 4 8 309.57 2.6
1 4 8 1152.18 4.4
1 4 8 1019.2 4
-1 -4 -8 1075.89 4
-1 -4 -8 1004.4 4.2
-2 -4 -8 6.8 1.1
2 4 8 12.6 0.9
2 4 8 10.4 0.9
-2 -4 -8 4.8 1.2
3 4 8 648.44 3.2
3 4 8 738.63 3.4
-3 -4 -8 663.43 3.1
-3 -4 -8 654.33 3.4
4 4 8 2.1 1.3
4 4 8 4.7 1.1
-4 -4 -8 2.5 1
-4 -4 -8 0.9 1
-5 -4 -8 516.05 3.1
5 4 8 454.75 2.8
-5 -4 -8 529.25 3.3
-5 -4 -8 458.15 2.8
-6 -4 -8 55.79 1.5
6 4 8 46.4 1.2
-6 -4 -8 50.29 1.5
-6 -4 -8 53.29 1.6
-7 -4 -8 518.55 3.4
7 4 8 494.35 3.4
-7 -4 -8 491.45 3.1
-7 -4 -8 537.25 3.5
-8 -4 -8 76.49 1.7
8 4 8 63.69 1.6
-8 -4 -8 2.1 1.6
-8 -4 -8 74.19 1.9
-9 -4 -8 -43.4 3
9 4 8 319.07 3
-9 -4 -8 273.17 3.3
-9 -4 -8 299.97 2.8
4 -5 -8 297.67 2.7
4 -5 -8 375.66 3.4
-4 5 8 41.4 3.4
4 -5 -8 318.87 2.7
3 -5 -8 25.4 1.2
3 -5 -8 20.4 1.3
-3 5 8 23.2 1.2
3 -5 -8 21.6 1
2 -5 -8 307.37 2.4
2 -5 -8 312.87 2.5
2 -5 -8 275.07 2.5
-2 5 8 329.57 2.8
1 -5 -8 47.3 1.1
1 -5 -8 45.2 1.6
-1 5 8 49 1.5
0 5 8 438.76 2.7
0 5 8 469.55 3.1
0 -5 -8 458.95 2.7
0 -5 -8 415.76 2.8
1 5 8 526.65 2.9
-1 -5 -8 573.64 3
1 5 8 612.04 3.4
-1 -5 -8 530.55 3.2
-2 -5 -8 199.78 2.2
2 5 8 238.68 2.1
2 5 8 204.98 2
-2 -5 -8 208.18 1.9
-3 -5 -8 429.86 2.9
3 5 8 402.76 2.6
3 5 8 490.35 3
-3 -5 -8 420.46 2.7
-4 -5 -8 121.59 1.6
4 5 8 119.99 1.5
-4 -5 -8 148.29 1.8
-4 -5 -8 129.69 1.7
-5 -5 -8 669.73 3.5
5 5 8 593.14 3.3
-5 -5 -8 580.64 3.1
-5 -5 -8 726.03 3.8
-6 -5 -8 76.79 1.5
6 5 8 68.69 1.5
-6 -5 -8 69.39 1.4
-6 -5 -8 79.59 1.7
-7 -5 -8 530.15 3.4
7 5 8 495.45 3.5
-7 -5 -8 486.35 3.4
-7 -5 -8 540.75 3.5
-8 -5 -8 5.1 1.5
8 5 8 22.1 1.1
-8 -5 -8 23.1 1.4
-8 -5 -8 24 1.4
-3 6 8 9.6 1.7
3 -6 -8 31.9 1.5
3 -6 -8 30.7 1.7
3 -6 -8 24.2 1.5
2 -6 -8 190.08 2.1
-2 6 8 206.68 2.5
2 -6 -8 188.18 2
2 -6 -8 172.58 2.1
1 -6 -8 3.5 1.1
1 -6 -8 4.3 1.1
-1 6 8 2.1 1.4
1 -6 -8 1.5 1.3
0 6 8 505.55 2.9
0 -6 -8 549.15 3
0 6 8 597.84 3.5
0 -6 -8 528.45 3.2
1 6 8 50.39 1.3
-1 -6 -8 47.7 1.3
1 6 8 55.79 1.5
-1 -6 -8 -0.9 1.5
-2 -6 -8 475.75 2.8
2 6 8 458.75 2.7
-2 -6 -8 462.95 2.9
2 6 8 576.34 3.2
3 6 8 91.99 1.4
-3 -6 -8 101.89 1.8
-3 -6 -8 108.39 1.7
-4 -6 -8 704.13 3.6
4 6 8 640.44 3.4
-4 -6 -8 666.03 3.7
-4 -6 -8 725.03 4
-5 -6 -8 231.28 2.3
5 6 8 225.78 2.3
-5 -6 -8 243.98 2.3
-5 -6 -8 276.37 2.6
-6 -6 -8 417.26 3.1
6 6 8 424.46 3
-6 -6 -8 407.16 2.8
-6 -6 -8 423.26 3.1
-7 -6 -8 126.79 2.2
7 6 8 114.79 1.8
-7 -6 -8 126.69 2
-7 -6 -8 116.89 1.9
-8 -6 -8 17.8 2.6
8 6 8 112.29 2.3
-8 -6 -8 195.48 2.5
-8 -6 -8 174.08 2.1
2 -7 -8 -41.3 1.9
2 -7 -8 198.38 2.2
2 -7 -8 189.98 2.3
-2 7 8 203.68 2.6
-1 7 8 32.5 1.5
1 -7 -8 29.8 1.1
1 -7 -8 33.1 1.4
1 -7 -8 29.6 1.3
0 7 8 316.97 2.5
0 -7 -8 334.57 2.7
0 7 8 341.17 3
0 -7 -8 321.17 2.8
-1 -7 -8 62.99 1.6
1 7 8 48.9 1.3
-1 -7 -8 59.09 1.5
1 7 8 64.79 1.5
2 7 8 444.66 2.8
-2 -7 -8 427.56 2.9
-2 -7 -8 435.66 2.9
-3 -7 -8 40.7 1.2
3 7 8 48 1.5
-3 -7 -8 42.6 1.4
-3 -7 -8 40.6 1.2
-4 -7 -8 479.45 3.2
4 7 8 -55.09 2.9
-4 -7 -8 522.85 3.1
-4 -7 -8 486.65 3.3
-5 -7 -8 2.9 1.3
5 7 8 -0.1 0.8
-5 -7 -8 2 1.1
-5 -7 -8 -0.1 1.4
6 7 8 211.98 2.3
-6 -7 -8 -22.8 2.5
-6 -7 -8 219.48 2.2
-6 -7 -8 230.68 2.5
-7 -7 -8 -2.3 1.5
7 7 8 13.1 1.5
-7 -7 -8 22.7 1.3
-7 -7 -8 25.5 1.5
1 -8 -8 223.08 2.4
-1 8 8 243.58 3
1 -8 -8 242.38 2.6
1 -8 -8 206.98 2.7
0 -8 -8 58.59 1.7
0 8 8 70.79 1.7
0 -8 -8 70.69 1.7
-1 -8 -8 308.17 2.7
-1 -8 -8 333.77 2.6
1 8 8 292.57 2.5
-2 -8 -8 142.49 2.1
2 8 8 145.49 1.9
-2 -8 -8 77.59 2.1
-2 -8 -8 142.79 1.8
-3 -8 -8 150.18 2.1
3 8 8 149.59 1.8
-3 -8 -8 144.39 1.8
-3 -8 -8 154.88 2.1
4 8 8 120.89 1.7
-4 -8 -8 117.39 2
-4 -8 -8 131.39 1.8
-4 -8 -8 137.49 2.2
5 8 8 34.3 1.6
-5 -8 -8 39 1.5
-5 -8 -8 38.8 1.5
-5 -8 -8 40.3 1.4
6 8 8 219.18 2.5
-6 -8 -8 190.08 2.5
-6 -8 -8 198.88 2.3
-6 -8 -8 138.29 2.5
-1 -9 -8 146.89 2.1
1 9 8 144.99 2
-1 -9 -8 145.59 2.3
-1 -9 -8 165.28 2.2
2 9 8 2.7 1.1
-2 -9 -8 10.9 1.4
-2 -9 -8 0.3 1
-2 -9 -8 11.9 1.4
3 9 8 101.09 1.7
-3 -9 -8 100.99 1.8
-3 -9 -8 -9.6 1.7
-3 -9 -8 92.99 1.9
4 9 8 65.99 1.5
-4 -9 -8 55.19 1.5
-4 -9 -8 75.69 1.8
-4 -9 -8 70.09 1.7
0 -6 9 181.58 2.7
0 6 -9 179.28 2.7
1 -6 9 152.08 2.4
-1 6 -9 148.59 2.5
2 -6 9 283.67 3
-2 6 -9 313.77 3.5
3 -6 9 292.47 6.4
-3 6 -9 304.77 3.6
3 -6 9 266.97 3
-3 6 -9 174.88 7.9
4 -6 9 90.49 2.6
-4 6 -9 106.09 2.6
4 -6 9 91.09 2.3
-4 6 -9 79.29 3.2
5 -6 9 287.57 4.3
5 -6 9 279.97 3.7
-5 6 -9 335.97 4.9
-5 6 -9 277.87 4.2
6 -6 9 13.6 1.5
-6 6 -9 14.1 1.7
-1 -5 9 0.2 1.6
1 5 -9 1.8 1.7
0 -5 9 403.16 3.3
0 5 -9 371.56 3.5
1 -5 9 24.4 1.4
-1 5 -9 24.1 1.7
2 -5 9 209.68 2.6
-2 5 -9 188.78 2.6
-2 5 -9 198.48 5
3 -5 9 57.79 2
-3 5 -9 57.19 1.9
3 -5 9 63.39 1.7
-3 5 -9 57.09 2.7
4 -5 9 277.87 3.3
-4 5 -9 316.77 3.6
-4 5 -9 272.87 4.2
4 -5 9 288.97 3.2
5 -5 9 240.38 3.5
5 -5 9 209.48 2.7
-5 5 -9 237.28 4.1
-5 5 -9 222.38 3.2
6 -5 9 313.37 6
-6 5 -9 282.97 6.4
6 -5 9 269.47 3.1
-6 5 -9 261.17 3.4
7 -5 9 279.37 3.1
-7 5 -9 233.28 3.2
2 4 -9 187.48 3.7
-2 -4 9 124.49 2.3
2 4 -9 149.88 2.3
2 4 -9 190.28 4.2
1 4 -9 126.49 3.1
-1 -4 9 100.69 2.1
1 4 -9 104.09 2.2
1 4 -9 121.39 3.4
0 -4 9 311.97 2.8
0 4 -9 329.67 4.8
0 4 -9 286.37 2.9
0 4 -9 368.66 4.8
-1 4 -9 7.5 1.4
1 -4 9 5.6 1
-1 4 -9 5.9 2
-1 4 -9 2.8 1.4
2 -4 9 242.08 3.2
2 -4 9 229.98 2.4
-2 4 -9 250.87 3.8
-2 4 -9 218.58 2.8
3 -4 9 1.5 1.2
-3 4 -9 0.5 1.6
-3 4 -9 3.2 1.3
3 -4 9 1.1 1.1
4 -4 9 750.12 4.4
-4 4 -9 710.23 5.4
-4 4 -9 799.72 5.4
4 -4 9 761.02 4.6
5 -4 9 12.5 1.2
5 -4 9 14.9 1.6
-5 4 -9 16.1 1.8
-5 4 -9 19 1.6
6 -4 9 539.85 3.9
-6 4 -9 580.54 7
-6 4 -9 557.74 4.3
6 -4 9 597.14 6.3
7 -4 9 40.6 1.7
-7 4 -9 35 1.5
8 -4 9 316.57 3.3
-8 4 -9 271.47 3.1
3 3 -9 213.38 3.1
-3 -3 9 -36.6 2.2
3 3 -9 203.48 2.6
3 3 -9 222.08 3.6
2 3 -9 32 1.6
-2 -3 9 -4.1 1.2
2 3 -9 32.2 1.7
2 3 -9 32.7 1.9
1 3 -9 459.75 4.1
-1 -3 9 409.46 3.1
1 3 -9 360.46 3.3
1 3 -9 471.25 4.3
0 3 -9 -19.1 4.3
0 3 -9 389.46 3.8
0 -3 9 359.36 2.9
0 3 -9 347.47 3.2
1 -3 9 217.28 2.8
-1 3 -9 210.38 2.9
1 -3 9 208.88 2.4
-1 3 -9 199.98 2.6
2 -3 9 708.33 4.4
-2 3 -9 649.14 5
2 -3 9 750.92 4
-2 3 -9 719.33 4.4
3 -3 9 489.45 3.6
-3 3 -9 503.75 4.1
-3 3 -9 470.55 3.9
3 -3 9 499.65 3.5
4 -3 9 858.51 4.9
4 -3 9 795.82 4.2
-4 3 -9 891.21 5.2
-4 3 -9 801.32 5.5
5 -3 9 149.19 1.9
-5 3 -9 186.98 2.5
5 -3 9 185.48 2.7
-5 3 -9 172.28 3.2
6 -3 9 501.75 5
6 -3 9 449.16 3.3
-6 3 -9 449.16 3.4
-6 3 -9 464.85 5.7
7 -3 9 32.1 1.3
-7 3 -9 33 1.7
8 -3 9 251.97 3.3
-8 3 -9 -65.29 3.1
3 2 -9 294.57 3.1
-3 -2 9 270.27 3.3
3 2 -9 -35.8 3.1
3 2 -9 302.77 3.3
2 2 -9 1.7 1
-2 -2 9 0.5 1.3
2 2 -9 0.2 1.5
2 2 -9 0.1 1.2
1 2 -9 265.97 4.6
-1 -2 9 634.44 3.9
1 2 -9 727.33 4.3
1 2 -9 711.13 4.4
0 2 -9 72.09 1.7
0 2 -9 70.29 1.7
0 -2 9 66.09 1.5
0 2 -9 66.79 1.9
1 -2 9 959.5 4.7
-1 2 -9 947.51 4.9
1 -2 9 906.41 4.2
-1 2 -9 933.01 4.7
2 -2 9 41.9 1.4
-2 2 -9 44.1 1.5
2 -2 9 47.8 1.5
-2 2 -9 46 1.4
3 -2 9 1298.37 5.3
-3 2 -9 1222.58 5.4
3 -2 9 1235.38 5
-3 2 -9 1136.79 5.5
-4 2 -9 257.57 3.1
4 -2 9 263.17 2.5
4 -2 9 292.17 2.8
-4 2 -9 274.47 2.7
-5 2 -9 321.97 3.8
5 -2 9 323.97 2.7
-5 2 -9 363.76 3
5 -2 9 385.66 3.4
-6 2 -9 338.27 4.6
6 -2 9 351.36 2.9
6 -2 9 366.56 3.9
-6 2 -9 367.86 3
-7 2 -9 159.08 3.5
7 -2 9 172.68 2.3
-7 2 -9 169.78 2.1
-7 2 -9 135.19 4.3
8 -2 9 294.07 3.2
-8 2 -9 347.07 3.1
9 -2 9 55.29 1.6
-9 2 -9 53.09 1.9
3 1 -9 314.07 2.9
-3 -1 9 304.87 3
3 1 -9 314.97 3
3 1 -9 -74.99 3
2 1 -9 153.38 2
-2 -1 9 144.39 2
2 1 -9 -25.2 2
2 1 -9 102.69 2.3
1 1 -9 615.94 3.7
1 1 -9 642.34 3.7
-1 -1 9 552.64 3.8
1 1 -9 553.34 3.8
0 1 -9 182.68 2.2
0 -1 9 170.08 2.1
0 1 -9 187.48 2.4
-1 1 -9 915.11 4.4
1 -1 9 902.41 4.2
-1 1 -9 905.71 4.4
1 -1 9 893.41 4
-2 1 -9 158.38 2.3
2 -1 9 140.09 1.9
-2 1 -9 147.39 2
2 -1 9 155.28 2.1
-3 1 -9 763.02 4.2
3 -1 9 768.92 3.9
3 -1 9 738.73 3.7
-3 1 -9 702.03 3.8
-4 1 -9 3.3 1.1
4 -1 9 2.2 1
-4 1 -9 2.8 0.9
4 -1 9 2 1.2
-5 1 -9 550.24 4.3
5 -1 9 637.84 4
5 -1 9 501.05 3.1
-5 1 -9 549.25 3.3
-6 1 -9 42.5 1.9
6 -1 9 47.4 1.7
6 -1 9 40.3 1.2
-6 1 -9 44 1.6
-7 1 -9 516.95 4.7
-7 1 -9 488.15 4.9
7 -1 9 540.25 3.3
-7 1 -9 543.15 3.4
-8 1 -9 132.49 3.8
-8 1 -9 153.48 3.6
8 -1 9 140.39 2
-8 1 -9 43.3 2.2
-9 1 -9 351.16 7.9
9 -1 9 296.17 3.2
-9 1 -9 306.27 7.5
-9 1 -9 307.87 3
4 0 -9 78.59 3
-4 0 9 319.37 3.3
4 0 -9 344.07 3.2
4 0 -9 345.97 3.3
3 0 -9 41.8 1.5
-3 0 9 39.3 1.5
3 0 -9 42.9 1.7
3 0 -9 43.9 1.7
2 0 -9 517.85 3.2
-2 0 9 478.05 3.3
2 0 -9 503.65 3.4
2 0 -9 514.05 3.3
1 0 -9 276.07 2.6
1 0 -9 303.27 2.5
1 0 -9 305.47 2.5
-1 0 9 266.27 2.7
0 0 -9 418.06 3.1
0 0 9 375.16 2.7
0 0 -9 424.36 2.9
0 0 9 394.56 2.7
-1 0 -9 576.94 3.4
1 0 9 529.35 3
-1 0 -9 536.65 3.2
1 0 9 556.44 3.1
2 0 9 178.08 2
-2 0 -9 166.58 2.1
-2 0 -9 168.38 1.8
2 0 9 167.48 1.7
3 0 9 676.93 3.3
-3 0 -9 630.34 3.8
3 0 9 698.73 3.6
-3 0 -9 677.43 3.4
4 0 9 268.87 2.3
-4 0 -9 239.38 2.6
-4 0 -9 264.77 2.4
4 0 9 294.17 2.6
5 0 9 1071.59 4.3
-5 0 -9 967.2 5.1
-5 0 -9 1091.19 4.5
5 0 9 1244.68 5.2
6 0 9 50.89 1.3
-6 0 -9 53.29 1.8
-6 0 -9 51.79 1.3
6 0 9 59.69 1.6
-7 0 -9 977 5.6
7 0 9 1027.7 4.5
-7 0 -9 962.6 5.8
-7 0 -9 993.6 4.4
-8 0 -9 1.8 1.6
8 0 9 2.8 1.3
-8 0 -9 3.1 1.5
-8 0 -9 1.1 1.3
9 0 9 471.65 3.5
-9 0 -9 487.65 5.8
-9 0 -9 450.85 5.4
-9 0 -9 428.56 3.3
4 -1 -9 1 1.8
4 -1 -9 105.39 2.2
4 -1 -9 -25.9 1.5
-4 1 9 96.39 2.1
3 -1 -9 43.7 1.4
-3 1 9 39.4 1.6
3 -1 -9 38 1.4
3 -1 -9 25.2 1.5
2 -1 -9 422.86 2.9
2 -1 -9 381.66 2.9
2 -1 -9 400.16 2.7
-2 1 9 -27.3 2.8
1 -1 -9 11.4 1.2
1 -1 -9 11.3 1
1 -1 -9 12.4 1.2
-1 1 9 11.3 1
0 1 9 476.85 3.2
0 1 9 493.95 2.9
0 -1 -9 462.85 3.1
0 -1 -9 520.05 2.9
1 1 9 57.69 1.4
1 1 9 61.79 1.3
-1 -1 -9 54.79 1.4
-1 -1 -9 62.49 1.4
2 1 9 613.14 3.1
-2 -1 -9 616.64 3.7
-2 -1 -9 653.13 3.4
2 1 9 696.53 3.6
3 1 9 210.28 2.2
-3 -1 -9 212.68 2
-3 -1 -9 188.18 2.3
3 1 9 224.88 2.3
4 1 9 828.92 3.7
-4 -1 -9 813.52 3.7
-4 -1 -9 767.02 4.1
4 1 9 857.71 4
5 1 9 573.44 3.4
5 1 9 506.35 3.1
-5 -1 -9 494.95 3.1
-5 -1 -9 496.25 3.5
6 1 9 538.65 3.1
-6 -1 -9 532.95 3
-6 -1 -9 524.85 3.8
-7 -1 -9 454.45 3.5
7 1 9 482.95 3.2
-7 -1 -9 430.66 3
-7 -1 -9 436.16 3.6
-8 -1 -9 347.07 3.6
8 1 9 370.26 3
-8 -1 -9 350.06 3
-8 -1 -9 322.67 3.4
-9 -1 -9 252.17 3.5
9 1 9 237.88 2.6
-9 -1 -9 234.98 3.8
-9 -1 -9 232.38 2.7
-4 2 9 33.9 1.8
4 -2 -9 0.2 1.6
4 -2 -9 18.9 1.6
4 -2 -9 22 1.8
3 -2 -9 101.29 1.8
-3 2 9 88.09 1.8
3 -2 -9 99.09 1.8
3 -2 -9 99.19 1.8
2 -2 -9 -46.2 2.7
2 -2 -9 344.47 2.8
-2 2 9 363.86 3.1
2 -2 -9 362.86 2.5
1 -2 -9 79.49 1.4
-1 2 9 79.09 1.7
1 -2 -9 72.49 1.7
1 -2 -9 81.59 1.6
0 2 9 577.14 3
0 -2 -9 558.74 3.5
0 -2 -9 665.83 3.3
0 2 9 583.94 3.5
1 2 9 83.49 1.5
-1 -2 -9 88.79 1.6
-1 -2 -9 67.79 1.4
1 2 9 77.59 1.4
2 2 9 1171.28 4.1
-2 -2 -9 1314.97 4.5
-2 -2 -9 1105.79 4.4
2 2 9 1270.57 4.5
3 2 9 15.8 1
3 2 9 10 0.9
-3 -2 -9 13.2 0.9
-3 -2 -9 10.5 1.4
4 2 9 993.6 3.8
-4 -2 -9 1027.4 3.9
4 2 9 1113.99 4.6
-4 -2 -9 947.41 4.4
5 2 9 0.6 1.1
5 2 9 1.9 0.8
-5 -2 -9 2.5 0.9
-5 -2 -9 1.2 1.2
-6 -2 -9 949.01 4.5
-6 -2 -9 884.81 4.3
6 2 9 772.62 3.8
-6 -2 -9 782.12 3.9
-7 -2 -9 39.1 1.4
7 2 9 42.6 1.6
-7 -2 -9 37.1 1.3
-7 -2 -9 43.1 1.5
-8 -2 -9 305.67 3
-8 -2 -9 345.97 3.3
8 2 9 322.87 3
-8 -2 -9 302.17 2.8
-9 -2 -9 103.39 2.4
9 2 9 145.59 2.1
-9 -2 -9 133.49 2.6
-9 -2 -9 125.29 2
3 -3 -9 230.98 2.4
3 -3 -9 228.88 2.3
-3 3 9 234.08 2.6
3 -3 -9 213.08 2.2
2 -3 -9 98.79 1.8
2 -3 -9 129.19 2.1
2 -3 -9 126.19 1.7
-2 3 9 123.99 2
1 -3 -9 425.66 2.8
1 -3 -9 349.67 2.8
1 -3 -9 390.26 2.6
-1 3 9 396.76 3
0 3 9 368.76 2.4
0 -3 -9 425.76 2.7
0 -3 -9 322.47 2.5
0 3 9 385.96 2.8
1 3 9 488.05 2.7
-1 -3 -9 520.85 2.9
-1 -3 -9 435.76 3
1 3 9 481.35 3
2 3 9 710.43 3.4
2 3 9 634.74 3
-2 -3 -9 658.63 3.1
-2 -3 -9 620.64 3.2
3 3 9 186.18 1.8
-3 -3 -9 202.38 1.8
3 3 9 228.68 2
-3 -3 -9 204.78 2.1
4 3 9 662.43 3.3
4 3 9 864.21 3.9
-4 -3 -9 682.13 3.4
-4 -3 -9 771.52 3.9
5 3 9 18.1 1.2
-5 -3 -9 19.1 1.2
5 3 9 16.2 0.9
-5 -3 -9 17.8 1.2
-6 -3 -9 531.55 3.2
-6 -3 -9 588.84 3.5
6 3 9 523.95 3
-6 -3 -9 504.85 3
-7 -3 -9 23.8 1.4
-7 -3 -9 19.1 1.4
7 3 9 24 1.3
-7 -3 -9 23.4 1.3
-8 -3 -9 275.67 3
8 3 9 242.38 2.5
-8 -3 -9 245.68 2.8
-8 -3 -9 241.58 2.3
9 3 9 16 1.3
-9 -3 -9 21.7 1.6
-9 -3 -9 14.7 1.3
-9 -3 -9 1.8 1.6
3 -4 -9 326.27 2.8
3 -4 -9 315.67 2.6
-3 4 9 316.17 2.8
3 -4 -9 303.87 2.6
2 -4 -9 0.3 0.9
2 -4 -9 0.6 1.2
2 -4 -9 0.4 1
-2 4 9 1.1 1
1 -4 -9 609.54 3.4
1 -4 -9 597.64 3.4
1 -4 -9 561.34 3.6
-1 4 9 596.44 3.8
0 4 9 6.7 1.2
0 -4 -9 8.8 1.3
0 -4 -9 2.6 1.2
0 4 9 6.5 1.2
1 4 9 487.15 3
1 4 9 445.96 2.7
-1 -4 -9 477.65 2.8
-1 -4 -9 437.66 3
2 4 9 25.7 1
2 4 9 32.5 1.1
-2 -4 -9 30 1
-2 -4 -9 25.4 1.1
3 4 9 250.07 2
-3 -4 -9 261.37 2.2
3 4 9 319.97 2.3
-3 -4 -9 265.27 2.3
-4 -4 -9 262.47 2.4
4 4 9 275.57 2.3
4 4 9 227.08 2.1
-4 -4 -9 240.28 2.2
-5 -4 -9 190.38 2.3
5 4 9 176.38 1.8
-5 -4 -9 186.38 1.9
-6 -4 -9 331.57 2.6
6 4 9 303.27 2.5
-6 -4 -9 355.86 2.9
-6 -4 -9 304.67 2.3
-7 -4 -9 142.99 2.1
7 4 9 121.79 1.7
-7 -4 -9 131.49 1.9
-7 -4 -9 123.89 1.9
-8 -4 -9 367.76 3.3
8 4 9 362.76 3
-8 -4 -9 363.96 3.1
-8 -4 -9 367.96 3.3
3 -5 -9 181.18 2.5
3 -5 -9 180.88 2.1
-3 5 9 188.38 2.5
3 -5 -9 136.69 2.2
2 -5 -9 55.39 1.3
2 -5 -9 59.79 1.5
2 -5 -9 54.79 1.7
-2 5 9 58.99 1.5
1 -5 -9 261.97 2.3
1 -5 -9 252.87 2.3
1 -5 -9 239.48 2.6
-1 5 9 274.97 2.8
0 5 9 51.79 1.5
0 -5 -9 46.5 1.2
0 5 9 45 1.4
0 -5 -9 45.9 1.5
1 5 9 299.87 2.3
-1 -5 -9 310.57 2.3
1 5 9 324.47 2.5
-1 -5 -9 281.17 2.3
2 5 9 11 0.8
-2 -5 -9 8.7 1
-2 -5 -9 7 1.2
2 5 9 7.4 1.2
-3 -5 -9 451.05 3
3 5 9 435.76 2.7
-3 -5 -9 449.66 2.6
3 5 9 498.05 3.2
-4 -5 -9 4.7 1
4 5 9 4.4 1
4 5 9 5 1.2
-4 -5 -9 6.1 1.1
-5 -5 -9 683.13 3.7
5 5 9 643.24 3.4
-5 -5 -9 697.73 3.7
-5 -5 -9 648.94 3.2
-6 -5 -9 41.7 1.2
6 5 9 37.8 1.2
-6 -5 -9 41.5 1.5
-6 -5 -9 38.8 1.2
-7 -5 -9 414.46 3.1
7 5 9 368.36 3
-7 -5 -9 370.16 2.9
-7 -5 -9 430.06 3.3
8 5 9 85.19 1.7
-8 -5 -9 24.5 2
-8 -5 -9 78.89 1.6
-8 -5 -9 83.99 1.7
2 -6 -9 107.89 2.1
-2 6 9 -11.1 2.3
2 -6 -9 185.88 2.2
2 -6 -9 167.48 2.3
1 -6 -9 125.99 1.9
1 -6 -9 122.89 1.7
-1 6 9 138.59 2.2
1 -6 -9 124.79 2
0 6 9 116.99 1.7
0 -6 -9 123.69 1.7
0 6 9 114.79 2.1
0 -6 -9 116.79 2
1 6 9 556.44 3.5
1 6 9 489.95 3
-1 -6 -9 534.55 3.1
-1 -6 -9 486.05 3.2
2 6 9 52.99 1.4
-2 -6 -9 52.49 1.2
2 6 9 62.39 1.4
-2 -6 -9 48.4 1.5
-3 -6 -9 507.95 3.3
3 6 9 628.14 3.6
3 6 9 504.25 3
-3 -6 -9 510.35 2.9
-4 -6 -9 121.89 1.8
4 6 9 120.09 1.7
-4 -6 -9 139.49 2.1
-4 -6 -9 122.69 1.9
-5 -6 -9 528.25 3.3
5 6 9 492.75 3.1
-5 -6 -9 548.45 3.5
-5 -6 -9 496.25 3.2
-6 -6 -9 13.7 1.1
6 6 9 12.6 1
-6 -6 -9 15.7 1
-6 -6 -9 12.4 1.4
-7 -6 -9 -48.9 2.8
7 6 9 241.38 2.6
-7 -6 -9 238.18 2.4
-7 -6 -9 264.57 2.9
1 -7 -9 35.7 1.2
1 -7 -9 35.4 1.5
1 -7 -9 29.1 1.2
-1 7 9 35.9 1.3
0 7 9 306.37 2.7
0 -7 -9 -15.8 2.7
0 7 9 371.96 3.1
0 -7 -9 276.17 2.7
1 7 9 99.49 1.7
-1 -7 -9 100.89 1.7
-1 -7 -9 98.89 1.9
1 7 9 104.09 1.9
-2 -7 -9 407.16 2.9
2 7 9 408.86 2.9
-2 -7 -9 417.66 3
2 7 9 482.55 3.2
-3 -7 -9 100.29 1.6
-3 -7 -9 107.69 1.9
3 7 9 103.59 1.7
-3 -7 -9 63.09 1.8
-4 -7 -9 -21 2.3
4 7 9 248.18 2.3
-4 -7 -9 233.28 2.5
-4 -7 -9 242.38 2.4
-5 -7 -9 170.18 2
5 7 9 171.78 1.9
-5 -7 -9 174.98 2.1
-5 -7 -9 190.48 2.2
-6 -7 -9 55.39 1.4
6 7 9 55.99 1.3
-6 -7 -9 57.79 1.3
-6 -7 -9 60.59 1.5
0 -8 -9 247.78 2.4
0 8 9 188.08 3
0 -8 -9 197.68 2.5
1 8 9 16.4 1
1 8 9 18.8 1.2
-1 -8 -9 15.1 1
-1 -8 -9 21.9 1.3
-2 -8 -9 257.97 2.7
-2 -8 -9 249.68 2.6
2 8 9 265.47 2.4
-2 -8 -9 261.27 2.4
-3 -8 -9 0.6 1.3
3 8 9 -0.1 0.8
-3 -8 -9 2.4 1
-3 -8 -9 0.2 1.1
-4 -8 -9 201.08 2.5
4 8 9 165.68 2
-4 -8 -9 177.88 2.4
-4 -8 -9 167.98 2
5 8 9 16.4 1.2
-5 -8 -9 13.7 1.5
-5 -8 -9 18.5 1.1
-5 -8 -9 17.9 1.5
-3 6 -10 244.88 3.5
3 -6 10 267.67 3.2
0 -5 10 -20.3 1.8
0 5 -10 83.99 2.3
1 -5 10 159.58 2.5
-1 5 -10 149.49 2.5
-1 5 -10 154.48 7.8
-1 5 -10 160.78 7.5
-2 5 -10 47 2.7
2 -5 10 38.1 1.7
-2 5 -10 34.2 1.7
-2 5 -10 38.6 3
3 -5 10 252.27 3.9
-3 5 -10 244.08 3.5
3 -5 10 265.17 3
-3 5 -10 252.67 4.7
4 -5 10 13.8 1.5
-4 5 -10 15.1 1.6
-4 5 -10 8.2 1.9
4 -5 10 -1.8 1.4
5 -5 10 341.77 4.2
5 -5 10 340.57 3.7
-5 5 -10 403.46 4.9
-5 5 -10 335.87 4.5
6 -5 10 1 1.6
6 -5 10 1.1 1.2
-6 5 -10 2 2.1
-6 5 -10 0.8 1.4
1 4 -10 19 1.9
-1 -4 10 19.2 1.5
1 4 -10 17 1.7
1 4 -10 19.8 2.3
0 4 -10 213.88 4.1
0 -4 10 199.88 2.5
0 4 -10 191.28 2.8
0 4 -10 191.88 4.2
-1 4 -10 36.1 2.2
-1 4 -10 59.69 2.4
1 -4 10 52.49 1.7
-1 4 -10 52.69 1.8
2 -4 10 498.15 4.5
-2 4 -10 465.15 5.3
2 -4 10 429.26 3.5
-2 4 -10 383.96 3.7
3 -4 10 229.98 3.1
-3 4 -10 204.68 3.8
-3 4 -10 212.78 2.9
3 -4 10 242.28 2.7
4 -4 10 289.77 3.1
4 -4 10 283.47 3.1
-4 4 -10 300.97 3.9
-4 4 -10 296.47 3.5
5 -4 10 423.16 3.7
5 -4 10 487.55 4.5
-5 4 -10 541.75 5.2
-5 4 -10 512.45 4.5
6 -4 10 189.08 2.5
6 -4 10 196.78 3.7
-6 4 -10 225.38 4.3
-6 4 -10 208.78 3
7 -4 10 365.86 3.4
-7 4 -10 -65.29 3.5
1 3 -10 0.1 1.4
-1 -3 10 0 1.2
1 3 -10 1 1.5
1 3 -10 0.1 1.5
0 3 -10 548.05 4.6
0 3 -10 561.84 4.7
0 -3 10 503.05 3.6
0 3 -10 506.15 3.7
-1 3 -10 5.9 1.3
1 -3 10 1.9 1
-1 3 -10 4.5 1.2
2 -3 10 591.54 4
-2 3 -10 548.45 4.5
2 -3 10 588.74 3.7
-2 3 -10 577.04 4
3 -3 10 41.1 1.5
-3 3 -10 42.7 1.7
-3 3 -10 41 1.7
3 -3 10 -1.5 1.7
4 -3 10 623.94 4.1
4 -3 10 623.34 3.8
-4 3 -10 665.93 4.5
-4 3 -10 573.04 4.6
5 -3 10 50.59 1.5
5 -3 10 60.19 1.7
-5 3 -10 62.99 1.6
-5 3 -10 61.19 2.2
6 -3 10 418.96 3.3
6 -3 10 479.75 4.5
-6 3 -10 443.66 3.7
-6 3 -10 449.46 5.3
-7 3 -10 82.59 3
7 -3 10 75.39 1.7
-7 3 -10 86.09 3.6
-7 3 -10 81.89 1.9
8 -3 10 100.69 2.1
-8 3 -10 110.69 2.3
2 2 -10 247.08 3
-2 -2 10 225.38 2.7
2 2 -10 228.28 2.9
2 2 -10 262.37 3.2
1 2 -10 176.18 2.5
-1 -2 10 144.09 2.3
1 2 -10 171.68 2.5
1 2 -10 156.38 2.4
0 2 -10 447.06 3.5
0 2 -10 476.45 3.6
0 -2 10 417.46 3
0 2 -10 260.97 3.4
1 -2 10 68.49 1.6
-1 2 -10 73.59 1.7
1 -2 10 66.19 1.4
-1 2 -10 69.19 1.6
2 -2 10 485.55 3.3
-2 2 -10 455.65 3.5
2 -2 10 500.05 3.4
-2 2 -10 494.65 3.7
3 -2 10 26.2 1.2
3 -2 10 2.7 1.3
-3 2 -10 25.3 1.4
-3 2 -10 27.9 1.6
4 -2 10 642.44 3.6
4 -2 10 631.04 3.8
-4 2 -10 642.84 4
-4 2 -10 610.84 4.2
5 -2 10 1.4 0.8
-5 2 -10 0.8 1.4
5 -2 10 0.9 1.1
-5 2 -10 0.7 1.4
6 -2 10 275.67 2.7
-6 2 -10 -23.5 2.9
6 -2 10 327.97 3.4
-6 2 -10 303.37 3.9
-7 2 -10 4.8 1.4
7 -2 10 1.4 1
-7 2 -10 1.5 1.3
-7 2 -10 -0.3 1.9
-8 2 -10 233.98 5.9
8 -2 10 258.07 2.8
-8 2 -10 255.77 2.7
-8 2 -10 253.97 6.1
2 1 -10 25.4 1.4
-2 -1 10 18 1.3
2 1 -10 24.3 1.4
2 1 -10 21 1.4
1 1 -10 528.05 3.7
1 1 -10 540.45 3.7
-1 -1 10 479.35 3.5
1 1 -10 508.25 3.7
0 1 -10 52.29 1.5
0 1 -10 54.99 1.5
0 -1 10 46.1 1.6
0 1 -10 47.9 1.5
-1 1 -10 477.85 3.5
1 -1 10 488.15 3.2
-1 1 -10 519.25 3.4
1 -1 10 26.9 3.6
2 -1 10 235.68 2.3
-2 1 -10 230.98 2.7
2 -1 10 218.58 2.1
-2 1 -10 220.78 2.3
-3 1 -10 270.87 2.8
3 -1 10 268.37 2.3
3 -1 10 253.37 2.2
-3 1 -10 250.27 2.5
-4 1 -10 249.48 2.7
4 -1 10 245.38 2.2
-4 1 -10 245.48 2.4
4 -1 10 255.67 2.4
5 -1 10 53.79 1.3
-5 1 -10 48.1 1.7
5 -1 10 48.8 1.5
-5 1 -10 51.29 1.3
-6 1 -10 315.47 3.5
6 -1 10 324.37 3.2
6 -1 10 289.47 2.6
-6 1 -10 304.77 2.6
-7 1 -10 69.89 2.1
-7 1 -10 61.39 2.2
7 -1 10 66.99 1.5
-7 1 -10 2.5 1.8
-8 1 -10 503.85 6
-8 1 -10 473.55 5.5
8 -1 10 480.85 3.6
-8 1 -10 472.85 3.5
2 0 -10 52.59 1.6
-2 0 10 50.09 1.8
2 0 -10 50.69 1.6
2 0 -10 53.09 1.6
1 0 -10 422.96 3
1 0 -10 405.96 2.9
-1 0 10 366.26 3.1
1 0 -10 384.56 3.2
0 0 -10 6.2 1.2
0 0 -10 7.7 1.2
0 0 10 1.9 1.4
1 0 10 540.85 3.4
-1 0 -10 532.55 3.5
1 0 10 557.54 3.2
-1 0 -10 564.44 3.2
-2 0 -10 21.3 1.2
2 0 10 23.1 1
2 0 10 24.1 1.4
-2 0 -10 20.9 1
3 0 10 553.24 3.1
-3 0 -10 532.15 3.6
-3 0 -10 579.14 3.2
3 0 10 599.44 3.4
4 0 10 100.59 1.6
-4 0 -10 95.69 1.8
-4 0 -10 99.59 1.7
4 0 10 108.69 1.6
5 0 10 664.13 3.6
-5 0 -10 648.94 4.2
5 0 10 796.82 4.2
-5 0 -10 728.63 3.7
6 0 10 273.27 2.9
6 0 10 251.37 2.3
-6 0 -10 238.98 2.8
-6 0 -10 259.97 2.4
-7 0 -10 349.67 3.4
7 0 10 376.46 2.8
-7 0 -10 318.77 3.6
-7 0 -10 327.87 2.8
-8 0 -10 182.38 3.1
8 0 10 164.98 2.2
-8 0 -10 25.5 3.3
-8 0 -10 154.08 2
9 0 10 149.09 2.1
-9 0 -10 157.58 3.9
-9 0 -10 10.4 3.8
-9 0 -10 139.09 2.2
3 -1 -10 112.69 1.8
3 -1 -10 92.39 2.3
3 -1 -10 124.29 2
-3 1 10 106.69 2.1
2 -1 -10 163.28 2.1
-2 1 10 159.98 2.2
2 -1 -10 124.39 2.2
2 -1 -10 164.98 2.1
-1 1 10 259.17 2.6
1 -1 -10 290.97 2.5
1 -1 -10 275.37 2.7
1 -1 -10 276.87 2.4
0 1 10 34.7 1.3
0 1 10 34.1 1.6
0 -1 -10 32.8 1.4
0 -1 -10 37.5 1.2
1 1 10 522.05 3
-1 -1 -10 513.35 3.5
1 1 10 518.95 3.2
-1 -1 -10 578.44 3.3
2 1 10 23.5 1.2
-2 -1 -10 25.7 1.3
-2 -1 -10 24 1.3
2 1 10 24.5 1.5
3 1 10 808.52 3.6
-3 -1 -10 701.43 3.8
-3 -1 -10 809.32 3.7
3 1 10 866.21 4
4 1 10 9.9 0.9
4 1 10 8.6 0.9
-4 -1 -10 9.5 0.9
-4 -1 -10 13.1 1.3
5 1 10 895.81 4
-5 -1 -10 867.41 3.9
-5 -1 -10 858.21 4.4
5 1 10 1045.2 4.5
6 1 10 12.2 1.3
6 1 10 9.8 1
-6 -1 -10 12.4 1
-6 -1 -10 10.4 1.3
-7 -1 -10 237.98 2.8
7 1 10 244.88 2.3
-7 -1 -10 243.48 2.3
-7 -1 -10 227.68 2.8
-8 -1 -10 9.1 1.4
8 1 10 10.6 1
-8 -1 -10 4.9 1.4
-8 -1 -10 8.6 1.4
9 1 10 205.78 2.5
-9 -1 -10 205.28 3.6
-9 -1 -10 206.68 2.6
-9 -1 -10 185.18 3.3
2 -2 -10 265.87 2.4
2 -2 -10 261.87 2.8
-2 2 10 255.07 2.8
2 -2 -10 268.17 2.4
1 -2 -10 162.58 1.9
1 -2 -10 145.29 2.2
-1 2 10 154.68 2
1 -2 -10 165.98 2.1
0 2 10 424.46 2.8
0 -2 -10 377.86 3.1
0 2 10 404.46 3
0 -2 -10 442.96 2.8
1 2 10 226.18 2.2
-1 -2 -10 209.88 2.5
-1 -2 -10 263.37 2.3
1 2 10 226.78 2.5
2 2 10 581.14 3
-2 -2 -10 624.74 3.4
-2 -2 -10 548.95 3.3
2 2 10 622.34 3.3
3 2 10 240.78 2.2
-3 -2 -10 223.18 2.1
-3 -2 -10 220.18 2.4
3 2 10 240.38 2.2
4 2 10 612.14 3.1
4 2 10 683.53 3.5
-4 -2 -10 575.84 3.1
-4 -2 -10 594.14 3.5
5 2 10 297.87 2.4
5 2 10 338.47 2.7
-5 -2 -10 282.37 2.5
-5 -2 -10 299.27 2.6
6 2 10 102.49 1.7
-6 -2 -10 94.49 1.6
-6 -2 -10 98.19 1.7
-7 -2 -10 291.17 2.8
7 2 10 282.77 2.7
-7 -2 -10 271.37 2.5
-7 -2 -10 284.77 2.8
-8 -2 -10 38.8 1.5
8 2 10 43.5 1.6
-8 -2 -10 30.2 1.6
-8 -2 -10 39.1 1.6
2 -3 -10 -92.49 2.7
2 -3 -10 323.17 3
2 -3 -10 344.27 3.1
-2 3 10 328.97 3.1
1 -3 -10 6.4 0.9
1 -3 -10 3.7 1
1 -3 -10 3.5 0.9
-1 3 10 0.6 1.4
0 3 10 633.84 3.2
0 -3 -10 594.24 3.6
0 -3 -10 582.24 3.6
0 3 10 653.53 3.6
1 3 10 -0.1 0.8
-1 -3 -10 -0.2 0.9
-1 -3 -10 6.2 1.3
1 3 10 -0.7 0.9
2 3 10 688.63 3.4
-2 -3 -10 765.02 3.5
-2 -3 -10 682.93 3.9
2 3 10 772.62 3.9
3 3 10 15.5 0.9
3 3 10 18.1 1
-3 -3 -10 15.2 1
-3 -3 -10 13.7 1
4 3 10 533.15 3
-4 -3 -10 537.75 3.2
-4 -3 -10 540.35 3.4
4 3 10 601.54 3.3
5 3 10 148.79 1.9
5 3 10 166.08 2.1
-5 -3 -10 142.49 1.8
-5 -3 -10 151.08 2
-6 -3 -10 238.28 2.3
6 3 10 225.88 2.2
-6 -3 -10 227.98 2.4
-6 -3 -10 261.77 2.6
-7 -3 -10 153.28 2.3
-7 -3 -10 145.59 2
7 3 10 114.79 2
-7 -3 -10 144.99 2.1
-8 -3 -10 258.97 2.9
-8 -3 -10 302.07 3.1
8 3 10 277.37 2.6
-8 -3 -10 261.97 2.5
2 -4 -10 -42.7 1.6
2 -4 -10 158.98 2.4
2 -4 -10 120.29 1.9
-2 4 10 153.08 2.5
1 -4 -10 150.18 1.9
1 -4 -10 163.88 1.9
1 -4 -10 143.29 2
-1 4 10 5.8 2.4
0 4 10 242.18 2.3
0 -4 -10 257.27 2.4
0 -4 -10 214.48 2.4
0 4 10 264.27 2.6
1 4 10 59.09 1.7
1 4 10 59.09 1.3
-1 -4 -10 68.69 1.6
-1 -4 -10 50.49 1.4
2 4 10 356.86 2.5
2 4 10 356.16 2.8
-2 -4 -10 361.56 2.6
-2 -4 -10 312.17 2.7
3 4 10 1.5 1
-3 -4 -10 1 0.9
-3 -4 -10 8.3 1.4
3 4 10 2.6 1.3
4 4 10 317.87 2.5
-4 -4 -10 303.67 2.4
4 4 10 391.66 2.8
-4 -4 -10 346.57 2.8
-5 -4 -10 19.8 1.4
5 4 10 19.5 1.4
5 4 10 15.5 1.2
-5 -4 -10 17.1 1.3
-6 -4 -10 402.96 3
-6 -4 -10 392.56 3
6 4 10 366.66 2.8
-6 -4 -10 391.36 2.8
-7 -4 -10 7 1.4
-7 -4 -10 3.9 1.2
7 4 10 4.2 0.9
-7 -4 -10 2.1 1.2
-8 -4 -10 -17.7 3.4
-8 -4 -10 366.76 3.4
8 4 10 314.37 3
-8 -4 -10 -1.3 3
1 -5 -10 196.08 2.3
1 -5 -10 170.28 2.3
1 -5 -10 171.88 2.5
-1 5 10 197.68 2.7
0 5 10 106.99 1.8
0 5 10 88.39 1.5
0 -5 -10 -11 1.6
0 -5 -10 -15.1 1.5
1 5 10 148.59 2
-1 -5 -10 196.78 2.2
1 5 10 183.78 2.1
-1 -5 -10 154.18 2.2
2 5 10 127.99 1.7
-2 -5 -10 136.39 1.9
2 5 10 137.89 1.9
-2 -5 -10 116.89 1.9
3 5 10 180.28 1.9
-3 -5 -10 188.58 1.9
3 5 10 198.58 2.4
-3 -5 -10 183.88 2.3
4 5 10 351.06 2.6
-4 -5 -10 341.67 2.6
4 5 10 422.56 3
-4 -5 -10 372.96 2.9
-5 -5 -10 133.79 1.9
-5 -5 -10 124.59 1.8
5 5 10 116.19 1.6
-5 -5 -10 109.99 1.6
-6 -5 -10 437.66 3.2
-6 -5 -10 445.96 3.4
6 5 10 390.66 2.9
-6 -5 -10 401.96 2.8
-7 -5 -10 40.6 1.5
7 5 10 47.4 1.6
-7 -5 -10 43.6 1.5
-7 -5 -10 46 1.4
1 -6 -10 196.08 2.3
1 -6 -10 176.48 2.4
-1 6 10 190.88 2.5
1 -6 -10 176.58 2.5
0 6 10 15.4 1.3
0 -6 -10 19.8 1.1
0 6 10 -1.3 1.4
0 -6 -10 15.2 1.1
1 6 10 136.59 1.9
-1 -6 -10 133.29 1.8
-1 -6 -10 118.49 2
1 6 10 139.79 2
2 6 10 2.3 0.8
-2 -6 -10 0.6 0.8
2 6 10 4.8 1.2
-2 -6 -10 0.6 1.2
3 6 10 376.26 2.7
3 6 10 417.96 3.1
-3 -6 -10 360.66 2.6
-3 -6 -10 -46.4 3.1
-4 -6 -10 92.29 1.9
4 6 10 77.09 1.5
-4 -6 -10 77.59 1.4
-5 -6 -10 265.17 2.7
-5 -6 -10 330.67 2.9
5 6 10 274.37 2.6
-5 -6 -10 304.47 2.5
-6 -6 -10 45.4 1.7
6 6 10 37.5 1.3
-6 -6 -10 43.5 1.4
-6 -6 -10 40.2 1.5
-7 -6 -10 157.88 2.2
7 6 10 142.39 2
-7 -6 -10 111.49 2.5
-7 -6 -10 144.69 2.2
1 7 10 123.49 2
-1 -7 -10 121.39 1.8
1 7 10 134.49 2.3
-1 -7 -10 108.49 1.9
2 7 10 56.79 1.4
-2 -7 -10 56.39 1.7
2 7 10 51.49 1.5
-2 -7 -10 47.8 1.4
-3 -7 -10 281.77 2.8
3 7 10 273.87 2.5
-3 -7 -10 86.49 2.7
-4 -7 -10 1.3 1.3
-4 -7 -10 8.4 1.5
4 7 10 6.3 0.9
-4 -7 -10 -0.6 1
-5 -7 -10 129.39 1.9
5 7 10 -19.7 1.7
-5 -7 -10 -12.5 2.1
-5 -7 -10 137.09 2
-1 4 -11 220.58 4.4
1 -4 11 210.68 2.5
-1 4 -11 190.98 2.6
-1 4 -11 241.08 4.2
-2 4 -11 5.3 2
-2 4 -11 14.6 1.4
2 -4 11 9.5 1.5
3 -4 11 469.35 4.5
-3 4 -11 445.86 5.3
-3 4 -11 399.66 4
3 -4 11 427.56 3.6
4 -4 11 -0.2 1.2
4 -4 11 0.2 1.2
-4 4 -11 1 1.6
-4 4 -11 1.8 1.5
5 -4 11 340.27 3.6
5 -4 11 352.36 4
-5 4 -11 367.46 4.7
-5 4 -11 391.06 4.4
0 3 -11 186.28 3.4
0 -3 11 160.88 2.4
0 3 -11 180.28 2.5
0 3 -11 154.48 3.3
-1 3 -11 273.77 3.6
-1 3 -11 253.57 3.7
-1 3 -11 229.28 2.8
1 -3 11 210.18 2.8
2 -3 11 363.26 3.6
-2 3 -11 344.07 4
-2 3 -11 351.66 3.5
2 -3 11 346.27 3.2
3 -3 11 439.06 3.6
-3 3 -11 441.06 4.1
-3 3 -11 442.96 3.9
3 -3 11 436.36 3.6
4 -3 11 172.48 2.5
4 -3 11 153.38 2.3
-4 3 -11 177.68 2.7
-4 3 -11 167.38 2.9
5 -3 11 266.77 2.8
5 -3 11 293.27 3.3
-5 3 -11 137.29 3.3
-5 3 -11 266.87 3.9
6 -3 11 27.9 1.5
6 -3 11 27.9 1.7
-6 3 -11 25.7 1.5
-6 3 -11 30.8 2.2
7 -3 11 218.88 2.6
-7 3 -11 244.58 3
-7 3 -11 210.98 5
0 2 -11 311.27 3.3
0 2 -11 300.47 3.2
0 -2 11 295.87 3
0 2 -11 316.87 3.1
1 -2 11 -0.3 0.9
-1 2 -11 2.6 1.3
1 -2 11 1.2 1
-1 2 -11 2.2 1.6
2 -2 11 726.63 4.4
-2 2 -11 757.52 4.8
-2 2 -11 743.13 4.4
2 -2 11 724.13 4.1
3 -2 11 55.89 1.4
3 -2 11 50.29 1.5
-3 2 -11 52.19 1.5
-3 2 -11 48.5 1.6
4 -2 11 279.57 2.6
4 -2 11 289.77 2.9
-4 2 -11 285.67 3.1
-4 2 -11 301.57 3.4
5 -2 11 112.89 1.7
-5 2 -11 128.49 2
5 -2 11 119.09 2.1
-5 2 -11 122.09 2.5
6 -2 11 256.77 2.7
6 -2 11 222.18 3.4
-6 2 -11 282.57 3.1
-6 2 -11 296.97 3.9
7 -2 11 214.88 2.6
-7 2 -11 216.68 2.6
-7 2 -11 243.68 4.4
1 1 -11 77.39 1.8
-1 -1 11 63.09 1.9
1 1 -11 66.79 1.7
1 1 -11 59.29 1.7
0 1 -11 390.16 3.3
0 1 -11 386.96 3.3
0 -1 11 303.37 2.9
0 1 -11 345.67 3.1
1 -1 11 86.79 1.8
-1 1 -11 98.89 2
1 -1 11 86.99 1.7
-1 1 -11 91.59 2
-2 1 -11 379.66 3.2
2 -1 11 386.96 2.9
2 -1 11 403.96 3
-2 1 -11 408.36 3.2
-3 1 -11 22 1.2
3 -1 11 24.3 1.2
3 -1 11 24.7 1.4
-3 1 -11 23.3 1.4
-4 1 -11 242.38 2.7
4 -1 11 240.88 2.3
-4 1 -11 227.38 2.4
4 -1 11 254.27 2.4
-5 1 -11 8.9 1.2
5 -1 11 10.5 0.9
-5 1 -11 8.1 1
5 -1 11 7.9 1.1
-6 1 -11 481.95 4.6
6 -1 11 446.66 3.2
-6 1 -11 540.45 3.7
6 -1 11 524.95 4.1
-7 1 -11 98.39 2.7
7 -1 11 89.49 1.9
-7 1 -11 87.59 1.9
-8 1 -11 295.27 5.1
-8 1 -11 272.77 4.4
8 -1 11 292.07 2.9
-8 1 -11 291.57 3
1 0 -11 -53.29 2.5
1 0 -11 207.48 2.6
1 0 -11 192.78 2.6
-1 0 11 169.88 2.7
0 0 -11 161.28 2.2
0 0 11 152.98 2.2
0 0 -11 159.88 2.3
0 0 -11 173.38 2.3
-1 0 -11 114.89 2.1
1 0 11 110.79 1.6
1 0 11 111.79 1.9
-1 0 -11 112.59 1.7
-2 0 -11 291.07 2.8
2 0 11 306.97 2.5
2 0 11 323.97 2.8
-2 0 -11 327.17 2.7
-3 0 -11 74.19 1.8
3 0 11 86.59 1.5
3 0 11 75.99 1.5
-3 0 -11 83.29 1.8
4 0 11 468.35 3
-4 0 -11 465.65 3.6
-4 0 -11 453.35 3.1
4 0 11 523.05 3.4
5 0 11 98.89 1.7
5 0 11 86.89 1.7
-5 0 -11 81.89 1.8
-5 0 -11 89.49 1.6
6 0 11 563.34 3.8
6 0 11 447.66 3.3
-6 0 -11 482.75 4
-6 0 -11 512.45 3.4
7 0 11 16.3 1.4
-7 0 -11 11.8 1.5
-7 0 -11 15.2 1.2
-8 0 -11 348.27 4.1
8 0 11 329.97 3.1
-8 0 -11 332.77 4.2
-8 0 -11 -78.39 2.5
1 -1 -11 195.98 2.5
1 -1 -11 210.58 2.4
-1 1 11 187.68 2.4
1 -1 -11 136.09 2.5
0 -1 -11 11 1.4
0 1 11 14 1.1
0 -1 -11 9.6 1.1
1 1 11 322.27 2.6
-1 -1 -11 323.27 3
1 1 11 318.47 2.6
-1 -1 -11 350.76 2.7
2 1 11 123.39 1.7
-2 -1 -11 113.99 2.1
-2 -1 -11 140.09 1.9
2 1 11 126.59 2
3 1 11 457.35 2.9
-3 -1 -11 421.86 3.1
-3 -1 -11 528.75 3.3
3 1 11 537.05 3.3
4 1 11 349.67 2.7
4 1 11 310.67 2.4
-4 -1 -11 315.67 2.9
-4 -1 -11 306.67 2.5
5 1 11 223.28 2.3
-5 -1 -11 230.28 2.5
-5 -1 -11 246.88 2.3
5 1 11 284.47 2.5
6 1 11 6.7 2.8
6 1 11 196.28 2.2
-6 -1 -11 180.08 2.7
-6 -1 -11 191.98 2.1
-7 -1 -11 234.38 2.8
7 1 11 -29 2.3
-7 -1 -11 234.08 2.9
-7 -1 -11 259.47 2.6
-8 -1 -11 140.99 2.8
8 1 11 162.58 2.1
-8 -1 -11 159.08 2.9
-8 -1 -11 151.18 2.3
1 -2 -11 184.98 2.2
1 -2 -11 178.98 2.6
-1 2 11 177.58 2.6
1 -2 -11 184.68 2.2
0 2 11 47.5 1.3
0 -2 -11 47.9 1.6
0 -2 -11 -3 1.4
0 2 11 44.8 1.5
1 2 11 453.65 2.9
-1 -2 -11 321.47 3.4
-1 -2 -11 489.15 3.2
1 2 11 427.96 3.3
2 2 11 15.6 1
-2 -2 -11 10.2 1.1
-2 -2 -11 13.5 1
2 2 11 14.1 1.3
3 2 11 529.65 3.1
-3 -2 -11 503.25 3.3
-3 -2 -11 564.74 3.3
3 2 11 584.54 3.4
4 2 11 7.3 0.9
4 2 11 11.2 1.2
-4 -2 -11 12.2 1
-4 -2 -11 7.1 1.1
5 2 11 384.16 2.8
5 2 11 342.27 2.6
-5 -2 -11 309.67 2.5
-5 -2 -11 360.16 3
6 2 11 18.1 1.4
6 2 11 13.6 1.3
-6 -2 -11 12.4 1.1
-6 -2 -11 16.3 1.4
-7 -2 -11 209.88 2.4
7 2 11 208.68 2.4
-7 -2 -11 217.98 2.3
-7 -2 -11 224.48 2.7
-8 -2 -11 125.99 2.5
8 2 11 123.39 2
-8 -2 -11 115.69 2
-8 -2 -11 117.69 2.4
1 -3 -11 112.89 2
1 -3 -11 96.59 2
1 -3 -11 123.99 1.8
-1 3 11 106.09 2.3
0 3 11 250.47 2.6
0 -3 -11 238.38 2.8
0 -3 -11 302.07 2.6
0 3 11 273.27 2.7
1 3 11 313.27 2.5
-1 -3 -11 344.47 2.5
-1 -3 -11 285.67 2.9
1 3 11 326.17 2.8
2 3 11 184.78 2
-2 -3 -11 206.98 2.2
-2 -3 -11 152.88 2.1
2 3 11 173.58 2.4
3 3 11 387.16 2.7
3 3 11 477.15 3.1
-3 -3 -11 418.06 2.9
-3 -3 -11 392.16 3.1
4 3 11 42.4 1.3
-4 -3 -11 45 1.5
-4 -3 -11 44.9 1.5
4 3 11 54.59 1.6
5 3 11 328.47 2.5
-5 -3 -11 372.06 2.8
-5 -3 -11 353.96 2.9
5 3 11 401.96 3
6 3 11 0.7 1.2
-6 -3 -11 0.9 1.2
-6 -3 -11 0.7 1.3
-7 -3 -11 279.67 2.9
7 3 11 245.48 2.7
-7 -3 -11 238.28 2.5
-7 -3 -11 278.77 3
-8 -3 -11 52.39 1.7
8 3 11 41.3 1.7
-8 -3 -11 1.3 1.7
-8 -3 -11 30.2 1.6
0 4 11 -1 2.4
0 -4 -11 281.97 2.5
0 -4 -11 243.18 2.7
0 4 11 255.67 2.6
1 4 11 50.29 1.4
-1 -4 -11 51.99 1.5
-1 -4 -11 43.2 1.6
1 4 11 43.5 1.3
2 4 11 148.59 2
2 4 11 160.88 2.2
-2 -4 -11 151.08 1.9
-2 -4 -11 138.19 1.9
3 4 11 107.29 1.6
-3 -4 -11 115.69 1.8
3 4 11 122.79 1.7
-3 -4 -11 111.29 1.9
4 4 11 110.19 1.8
4 4 11 125.59 1.9
-4 -4 -11 105.49 1.7
-4 -4 -11 116.29 1.8
5 4 11 146.29 2
-5 -4 -11 140.99 2
5 4 11 177.28 2.1
-5 -4 -11 168.78 2.3
-6 -4 -11 104.99 1.8
6 4 11 99.09 1.7
-6 -4 -11 104.39 1.8
-6 -4 -11 -30.5 1.6
-7 -4 -11 264.27 2.8
-7 -4 -11 256.97 2.7
7 4 11 208.38 2.5
-7 -4 -11 243.78 2.5
0 5 11 166.48 2.4
0 -5 -11 190.18 2.3
0 -5 -11 144.19 2.2
1 5 11 0.9 1.2
-1 -5 -11 3 1.2
1 5 11 4 1.4
-1 -5 -11 1.9 1
2 5 11 297.57 2.5
-2 -5 -11 306.47 2.5
-2 -5 -11 242.68 2.5
2 5 11 292.67 2.7
3 5 11 1.1 0.9
3 5 11 2 0.9
-3 -5 -11 0.5 0.8
-3 -5 -11 -0.7 1.2
4 5 11 370.36 2.9
4 5 11 342.87 2.7
-4 -5 -11 278.77 2.7
-4 -5 -11 349.37 3
5 5 11 7.5 1
-5 -5 -11 9.4 1.2
-5 -5 -11 -3.7 1.1
-6 -5 -11 335.57 3.1
-6 -5 -11 24.2 3
6 5 11 274.57 2.7
-6 -5 -11 271.97 2.5
1 6 11 91.99 1.7
-1 -6 -11 107.69 2
-1 -6 -11 78.59 1.7
1 6 11 11.1 2.2
2 6 11 375.26 3
2 6 11 368.26 3.1
-2 -6 -11 364.66 2.9
-2 -6 -11 322.97 3.1
3 6 11 7.1 1.9
3 6 11 76.89 1.5
-3 -6 -11 0.7 1.6
-3 -6 -11 60.79 1.7
4 6 11 300.77 2.6
4 6 11 355.96 3.1
-4 -6 -11 237.28 2.7
-4 -6 -11 305.37 2.9
-5 -6 -11 15.8 1
-5 -6 -11 15.7 1
5 6 11 -3.6 1.2
-5 -6 -11 16 1.1
4 -3 12 21.5 1.3
4 -3 12 27.5 1.5
-4 3 -12 22.5 1.6
-4 3 -12 22.2 1.8
2 -2 12 21.9 1.5
2 -2 12 23.7 1.4
-2 2 -12 25 1.6
-2 2 -12 25.6 1.6
3 -2 12 265.97 2.9
3 -2 12 284.57 2.8
-3 2 -12 289.77 3.2
-3 2 -12 280.97 3.1
4 -2 12 20.7 1.3
4 -2 12 1.7 1.1
-4 2 -12 19 1.2
-4 2 -12 19 1.6
5 -2 12 171.38 2.4
-5 2 -12 1.5 2.7
5 -2 12 193.18 2.7
-5 2 -12 176.78 2.9
6 -2 12 4.2 1
6 -2 12 -0.9 1.1
-6 2 -12 3.1 1.1
-6 2 -12 0.4 1.6
1 -1 12 69.29 2
-1 1 -12 67.19 1.8
-1 1 -12 -4.6 1.9
2 -1 12 206.78 2.5
2 -1 12 204.98 2.4
-2 1 -12 223.38 2.8
-2 1 -12 214.68 2.6
-3 1 -12 61.89 2
3 -1 12 57.79 1.4
3 -1 12 66.19 1.7
-3 1 -12 57.79 1.6
-4 1 -12 177.08 2.7
4 -1 12 164.38 2.3
-4 1 -12 161.78 2.4
4 -1 12 176.78 2.4
-5 1 -12 217.08 2.9
5 -1 12 207.18 2.3
-5 1 -12 223.68 2.8
5 -1 12 247.48 2.7
-6 1 -12 69.99 2.2
6 -1 12 63.69 1.5
-6 1 -12 47 1.9
6 -1 12 71.19 1.8
-1 0 -12 0.2 1.1
1 0 12 0.2 1.2
1 0 12 1.3 1.3
-1 0 -12 -0.5 1.3
-2 0 -12 245.28 2.9
2 0 12 248.58 2.6
2 0 12 253.47 2.7
-2 0 -12 283.87 2.9
-3 0 -12 5.7 1.1
3 0 12 2.7 0.9
-3 0 -12 1.2 1.4
3 0 12 2.3 0.9
-4 0 -12 420.46 3.8
4 0 12 389.06 3
-4 0 -12 395.06 3.2
4 0 12 413.66 3.3
5 0 12 92.29 1.8
-5 0 -12 74.79 1.9
5 0 12 80.49 1.7
-5 0 -12 81.69 1.8
-6 0 -12 -35.5 3.6
6 0 12 318.47 2.8
-6 0 -12 309.47 2.9
6 0 12 340.17 3.2
7 0 12 108.99 2.2
-7 0 -12 87.29 2.3
7 0 12 78.19 1.7
-7 0 -12 95.69 1.8
1 1 12 54.99 1.4
-1 -1 -12 58.69 1.7
1 1 12 46.2 1.6
-1 -1 -12 63.89 1.5
2 1 12 342.47 2.9
-2 -1 -12 320.07 3.1
-2 -1 -12 354.16 3
2 1 12 353.16 3
3 1 12 26.2 1.3
-3 -1 -12 23.5 1.5
-3 -1 -12 27.6 1.4
3 1 12 28.6 1.2
4 1 12 453.05 3.2
4 1 12 426.66 3
-4 -1 -12 408.96 3.4
-4 -1 -12 427.26 3.1
5 1 12 23.4 1.1
-5 -1 -12 26.1 1.6
-5 -1 -12 28.1 1.3
5 1 12 -6.1 1.3
6 1 12 304.97 2.9
-6 -1 -12 268.77 3.4
-6 -1 -12 318.57 2.9
6 1 12 337.17 3.3
7 1 12 1.4 1.4
-7 -1 -12 1.2 1.4
-7 -1 -12 0.6 1.4
1 2 12 246.38 2.4
-1 -2 -12 236.88 2.8
-1 -2 -12 262.27 2.7
1 2 12 250.67 2.6
2 2 12 106.19 1.8
-2 -2 -12 86.69 1.7
-2 -2 -12 119.09 2
2 2 12 101.19 1.7
3 2 12 210.38 2.2
-3 -2 -12 201.38 2.5
-3 -2 -12 237.08 2.5
3 2 12 236.78 2.7
4 2 12 107.09 1.9
4 2 12 122.59 1.8
-4 -2 -12 99.59 2.1
-4 -2 -12 109.19 1.8
5 2 12 119.69 1.8
-5 -2 -12 19 2.2
-5 -2 -12 115.79 2
5 2 12 132.79 2.1
6 2 12 177.78 2.1
6 2 12 212.28 2.6
-6 -2 -12 169.98 2.1
-6 -2 -12 194.08 2.6
-7 -2 -12 52.19 1.4
7 2 12 37.8 1.2
-7 -2 -12 38 1.5
-7 -2 -12 40 1.5
1 3 12 250.37 2.4
-1 -3 -12 220.28 2.7
-1 -3 -12 277.77 2.7
1 3 12 230.48 2.5
2 3 12 0.9 1.2
-2 -3 -12 -0.1 1
-2 -3 -12 5.1 0.9
2 3 12 1.1 1.3
3 3 12 252.67 2.5
3 3 12 275.47 2.6
-3 -3 -12 281.47 2.7
-3 -3 -12 224.78 2.5
4 3 12 42.3 1.2
-4 -3 -12 41.6 1.2
-4 -3 -12 48.4 1.8
4 3 12 54.39 1.7
5 3 12 141.09 1.9
5 3 12 161.28 2.2
-5 -3 -12 136.69 2
-5 -3 -12 115.69 2.1
6 3 12 51.49 1.4
-6 -3 -12 43.8 1.5
-6 -3 -12 53.19 1.5
6 3 12 70.69 1.7
2 4 12 5.6 1.1
2 4 12 2.9 1
-2 -4 -12 1.3 1.1
-2 -4 -12 2.4 1
3 4 12 204.78 2.2
-3 -4 -12 236.18 2.4
-3 -4 -12 173.58 2.3
3 4 12 110.39 2.4
4 4 12 6.8 1.3
4 4 12 6.5 1.2
-4 -4 -12 6.6 1.2
-4 -4 -12 1.7 1.1
5 4 12 268.87 2.6
5 4 12 343.87 3
-5 -4 -12 265.67 2.6
-5 -4 -12 291.97 2.9
6 4 12 0.9 0.9
-6 -4 -12 0.2 0.9
-6 -4 -12 1.5 1.3
3 5 12 113.89 1.9
3 5 12 93.89 1.7
-3 -5 -12 120.79 1.9
-3 -5 -12 101.59 2.1
4 5 12 97.59 1.7
-4 -5 -12 72.59 1.9
-4 -5 -12 94.29 1.9
4 5 12 -29.8 1.7
loop_
_geom_angle_atom_site_label_1
_geom_angle_atom_site_label_2
_geom_angle_atom_site_label_3
_geom_angle
_geom_angle_site_symmetry_1
_geom_angle_site_symmetry_3
_geom_angle_publ_flag
C13 Au1 Cl1 177.10(12) . . ?
C1 N1 C13 126.1(3) . . ?
C14 N1 C13 110.3(3) . . ?
C14 N1 C1 123.6(3) . . ?
C15 N2 C13 111.0(3) . . ?
C16 N2 C13 125.1(3) . . ?
C16 N2 C15 123.8(3) . . ?
N1 C13 Au1 127.9(3) . . ?
N2 C13 Au1 127.1(3) . . ?
N2 C13 N1 105.0(3) . . ?
C1 C2 H2 119.5(2) . . ?
C3 C2 H2 119.5(2) . . ?
C3 C2 C1 121.1(4) . . ?
H15 C15 N2 126.6(2) . . ?
C14 C15 N2 106.8(4) . . ?
C14 C15 H15 126.6(2) . . ?
C5 C12 C11 147.0(4) . . ?
C7 C12 C11 122.6(4) . . ?
C7 C12 C5 90.3(3) . . ?
H11 C11 C12 122.6(3) . . ?
C10 C11 C12 114.8(4) . . ?
C10 C11 H11 122.6(2) . . ?
C5 C6 C1 121.2(3) . . ?
C7 C6 C1 148.8(4) . . ?
C7 C6 C5 90.0(3) . . ?
C2 C1 N1 119.4(3) . . ?
C6 C1 N1 123.5(3) . . ?
C6 C1 C2 117.1(4) . . ?
C6 C5 C12 89.5(3) . . ?
C4 C5 C12 147.6(4) . . ?
C4 C5 C6 122.9(4) . . ?
C15 C14 N1 106.9(4) . . ?
H14 C14 N1 126.6(2) . . ?
H14 C14 C15 126.6(2) . . ?
H4 C4 C5 122.5(2) . . ?
C3 C4 C5 115.1(4) . . ?
C3 C4 H4 122.5(2) . . ?
C7 C8 H8 122.2(2) . . ?
C9 C8 H8 122.2(3) . . ?
C9 C8 C7 115.6(4) . . ?
C6 C7 C12 90.2(3) . . ?
C8 C7 C12 122.6(4) . . ?
C8 C7 C6 147.2(4) . . ?
C4 C3 C2 122.7(4) . . ?
H3 C3 C2 118.7(2) . . ?
H3 C3 C4 118.7(2) . . ?
H16a C16 N2 109.4(2) . . ?
H16b C16 N2 109.4(2) . . ?
H16b C16 H16a 108.0 . . ?
C17 C16 N2 111.3(4) . . ?
C17 C16 H16a 109.4(3) . . ?
C17 C16 H16b 109.4(3) . . ?
H9 C9 C8 119.2(3) . . ?
C10 C9 C8 121.5(4) . . ?
C10 C9 H9 119.2(3) . . ?
C9 C10 C11 122.9(4) . . ?
H10 C10 C11 118.6(2) . . ?
H10 C10 C9 118.6(3) . . ?
H17a C17 C16 109.5 . . ?
H17b C17 C16 109.5 . . ?
H17b C17 H17a 109.5 . . ?
H17c C17 C16 109.5 . . ?
H17c C17 H17a 109.5 . . ?
H17c C17 H17b 109.5 . . ?
loop_
_geom_bond_atom_site_label_1
_geom_bond_atom_site_label_2
_geom_bond_distance
_geom_bond_site_symmetry_2
_geom_bond_publ_flag
Au1 Cl1 2.2859(12) . ?
Au1 C13 1.979(4) . ?
N1 C13 1.358(5) . ?
N1 C1 1.427(5) . ?
N1 C14 1.385(5) . ?
N2 C13 1.337(5) . ?
N2 C15 1.385(5) . ?
N2 C16 1.470(5) . ?
C2 H2 0.9300 . ?
C2 C1 1.415(6) . ?
C2 C3 1.370(6) . ?
C15 H15 0.9300 . ?
C15 C14 1.335(6) . ?
C12 C11 1.374(6) . ?
C12 C5 1.513(5) . ?
C12 C7 1.412(6) . ?
C11 H11 0.9300 . ?
C11 C10 1.410(7) . ?
C6 C1 1.360(5) . ?
C6 C5 1.426(5) . ?
C6 C7 1.508(5) . ?
C5 C4 1.362(6) . ?
C14 H14 0.9300 . ?
C4 H4 0.9300 . ?
C4 C3 1.424(6) . ?
C8 H8 0.9300 . ?
C8 C7 1.359(6) . ?
C8 C9 1.421(6) . ?
C3 H3 0.9300 . ?
C16 H16a 0.9700 . ?
C16 H16b 0.9700 . ?
C16 C17 1.506(6) . ?
C9 H9 0.9300 . ?
C9 C10 1.376(7) . ?
C10 H10 0.9300 . ?
C17 H17a 0.9600 . ?
C17 H17b 0.9600 . ?
C17 H17c 0.9600 . ?
