#------------------------------------------------------------------------------
#$Date: 2021-07-05 20:38:39 +0300 (Mon, 05 Jul 2021) $
#$Revision: 267177 $
#$URL: file:///home/coder/svn-repositories/cod/cif/7/70/73/7707399.cif $
#------------------------------------------------------------------------------
#
# This file is available in the Crystallography Open Database (COD),
# http://www.crystallography.net/
#
# All data on this site have been placed in the public domain by the
# contributors.
#
data_7707399
loop_
_publ_author_name
'Marchuk, Margarita V.'
'Vorotnikova, Natalya A.'
'Vorotnikov, Yuri A.'
'Kuratieva, Natalia V.'
'Stass, Dmitri V.'
'Shestopalov, Michael A.'
_publ_section_title
;
 Optical property trends in a family of {Mo<sub>6</sub>I<sub>8</sub>}
 aquahydroxo complexes.
;
_journal_issue                   25
_journal_name_full
'Dalton transactions (Cambridge, England : 2003)'
_journal_page_first              8794
_journal_page_last               8802
_journal_paper_doi               10.1039/d1dt01293b
_journal_volume                  50
_journal_year                    2021
_chemical_formula_moiety         'H8 I8 Mo6 O6, 12(H2 O)'
_chemical_formula_sum            'H32 I8 Mo6 O18'
_chemical_formula_weight         1911.09
_space_group_crystal_system      triclinic
_space_group_IT_number           2
_space_group_name_Hall           '-P 1'
_space_group_name_H-M_alt        'P -1'
_audit_creation_method           SHELXL-2014/7
_audit_update_record
;
2021-04-16 deposited with the CCDC.	2021-05-17 downloaded from the CCDC.
;
_cell_angle_alpha                73.929(4)
_cell_angle_beta                 67.566(4)
_cell_angle_gamma                88.598(4)
_cell_formula_units_Z            1
_cell_length_a                   9.4284(9)
_cell_length_b                   9.7991(10)
_cell_length_c                   10.0079(10)
_cell_measurement_reflns_used    7707
_cell_measurement_temperature    150(2)
_cell_measurement_theta_max      36.31
_cell_measurement_theta_min      2.30
_cell_volume                     817.81(14)
_computing_cell_refinement       'SAINT V8.38A'
_computing_data_collection       'Bruker APEX3 V2018.7-2'
_computing_data_reduction        'SAINT V8.38A'
_computing_molecular_graphics    'Bruker SHELXTL'
_computing_publication_material  'Bruker SHELXTL'
_computing_structure_refinement  'Bruker SHELXTL'
_computing_structure_solution    'Bruker SHELXTL'
_diffrn_ambient_temperature      150(2)
_diffrn_detector                 CPAD
_diffrn_detector_area_resol_mean 7.4
_diffrn_detector_type            'PHOTON III C14'
_diffrn_measured_fraction_theta_full 0.998
_diffrn_measured_fraction_theta_max 0.921
_diffrn_measurement_details
;
Data collection was performed by Dr. Dmitry A. Piryazev 
in XRD Facility of NIIC SB RAS.
;
_diffrn_measurement_device       'three-circle diffractometer'
_diffrn_measurement_device_type  'Bruker D8 VENTURE'
_diffrn_measurement_method       '\f and \w scans'
_diffrn_radiation_monochromator  'goebel mirror'
_diffrn_radiation_probe          x-ray
_diffrn_radiation_type           MoK\a
_diffrn_radiation_wavelength     0.71073
_diffrn_reflns_av_R_equivalents  0.0411
_diffrn_reflns_av_unetI/netI     0.0477
_diffrn_reflns_Laue_measured_fraction_full 0.998
_diffrn_reflns_Laue_measured_fraction_max 0.921
_diffrn_reflns_limit_h_max       12
_diffrn_reflns_limit_h_min       -15
_diffrn_reflns_limit_k_max       14
_diffrn_reflns_limit_k_min       -16
_diffrn_reflns_limit_l_max       13
_diffrn_reflns_limit_l_min       -16
_diffrn_reflns_number            22858
_diffrn_reflns_point_group_measured_fraction_full 0.998
_diffrn_reflns_point_group_measured_fraction_max 0.921
_diffrn_reflns_theta_full        25.250
_diffrn_reflns_theta_max         36.312
_diffrn_reflns_theta_min         2.300
_diffrn_source_type              'Incoatec ImS 3.0'
_diffrn_standards_decay_%        0
_diffrn_standards_number         0
_exptl_absorpt_coefficient_mu    9.837
_exptl_absorpt_correction_T_max  0.747
_exptl_absorpt_correction_T_min  0.560
_exptl_absorpt_correction_type   multi-scan
_exptl_absorpt_process_details   'Bruker SADABS-2012/1'
_exptl_crystal_colour            red
_exptl_crystal_density_diffrn    3.880
_exptl_crystal_description       prism
_exptl_crystal_F_000             852
_exptl_crystal_size_max          0.085
_exptl_crystal_size_mid          0.085
_exptl_crystal_size_min          0.035
_refine_diff_density_max         1.462
_refine_diff_density_min         -2.278
_refine_diff_density_rms         0.285
_refine_ls_extinction_method     none
_refine_ls_goodness_of_fit_ref   1.018
_refine_ls_hydrogen_treatment    undef
_refine_ls_matrix_type           full
_refine_ls_number_parameters     159
_refine_ls_number_reflns         7293
_refine_ls_number_restraints     0
_refine_ls_restrained_S_all      1.018
_refine_ls_R_factor_all          0.0504
_refine_ls_R_factor_gt           0.0357
_refine_ls_shift/su_max          0.001
_refine_ls_shift/su_mean         0.000
_refine_ls_structure_factor_coef Fsqd
_refine_ls_weighting_details
'w=1/[\s^2^(Fo^2^)+(0.0217P)^2^+0.7960P] where P=(Fo^2^+2Fc^2^)/3'
_refine_ls_weighting_scheme      calc
_refine_ls_wR_factor_gt          0.0645
_refine_ls_wR_factor_ref         0.0692
_reflns_Friedel_coverage         0.000
_reflns_number_gt                5781
_reflns_number_total             7293
_reflns_threshold_expression     >2\s(I)
_cod_data_source_file            d1dt01293b2.cif
_cod_data_source_block           VMV577-3
_cod_depositor_comments
'Adding full bibliography for 7707398--7707400.cif.'
_cod_database_code               7707399
_shelx_shelxl_version_number     2014/7
_shelx_space_group_comment
;
The symmetry employed for this shelxl refinement is uniquely defined
by the following loop, which should always be used as a source of
symmetry information in preference to the above space-group names.
They are only intended as comments.
;
_shelx_estimated_absorpt_t_min   0.489
_shelx_estimated_absorpt_t_max   0.725
_shelx_res_file
;

    D:\Job\SHESTO~1\AH\VMV577~1\S1_-1_~1\test.res created by SHELXL-2014/7

TITL vmv577-3 in P-1
CELL 0.71073 9.4284 9.7991 10.0079 73.929 67.566 88.598
ZERR 1.0000 0.0009 0.0010 0.0010 0.004 0.004 0.004
LATT 1
SFAC O H MO I
UNIT 18 32 6 8
MERG 2
OMIT 0 180
OMIT 0 -2 2
OMIT 1 -1 1
OMIT 3 1 2
FMAP 2
GRID
PLAN 5
TEMP -123
SIZE 0.085 0.085 0.035
OMIT    -7 3 10
OMIT    -11 8 0
EADP O5WA O5WB
BOND $H
L.S. 10
ACTA 50.5
WGHT    0.021700    0.796000
FVAR       0.07299   0.72443   0.69353
I1    4    0.382526    0.443516    0.386970    11.00000    0.01262    0.01635 =
         0.01920   -0.00511   -0.00799    0.00317
I2    4    0.101108    0.433597    0.804597    11.00000    0.01852    0.01870 =
         0.01557   -0.00458   -0.01092    0.00261
I3    4    0.216607    0.796468    0.226795    11.00000    0.01667    0.01563 =
         0.02108    0.00266   -0.00904   -0.00247
I4    4    0.063038    0.213161    0.360523    11.00000    0.01949    0.01519 =
         0.02647   -0.01214   -0.01248    0.00550
MO2   3    0.151641    0.609227    0.514845    11.00000    0.01263    0.00975 =
         0.01477   -0.00367   -0.00782    0.00119
MO1   3    0.078808    0.331673    0.578050    11.00000    0.01289    0.00933 =
         0.01481   -0.00290   -0.00794    0.00169
MO3   3    0.132891    0.504855    0.302735    11.00000    0.01239    0.01350 =
         0.01249   -0.00395   -0.00625    0.00180
O1    1    0.170530    0.147539    0.663232    11.00000    0.02200    0.01530 =
         0.02889   -0.00389   -0.01586    0.00538
O2    1    0.315988    0.730490    0.537995    11.00000    0.02136    0.01599 =
         0.03138   -0.00695   -0.01597    0.00184
O1W   1    0.364313    0.015574    0.474540    11.00000    0.02713    0.02685 =
         0.03038   -0.00751   -0.01260    0.00238
O3    1    0.288413    0.514321    0.071648    11.00000    0.02826    0.04172 =
         0.02377   -0.00404   -0.00973    0.00195
O3W   1    0.498566    0.900512   -0.171860    11.00000    0.03811    0.02813 =
         0.03344   -0.00777   -0.01744   -0.00171
O4W   1    0.251778    0.742953   -0.161156    11.00000    0.03607    0.02845 =
         0.02948   -0.01042   -0.00878   -0.00645
O2W   1   -0.002897   -0.086285    0.910464    11.00000    0.05904    0.03329 =
         0.02388   -0.00477   -0.01047    0.01606
PART 1
O5WA  1    0.409675    0.177557    0.742161    21.00000    0.02596    0.03357 =
         0.02952   -0.01534   -0.01352    0.00682
O6WA  1    0.682256    0.767721   -0.011006    31.00000    0.05014    0.05330 =
         0.02526   -0.01797   -0.01922    0.02463
PART 2
O6WB  1    0.571211    0.687562    0.010863   -31.00000    0.03488    0.03802 =
         0.01982   -0.01028   -0.00310    0.01961
O5WB  1    0.304127    0.135977    0.886435   -21.00000    0.02596    0.03357 =
         0.02952   -0.01534   -0.01352    0.00682
HKLF 4

REM  vmv577-3 in P-1
REM R1 =  0.0357 for    5781 Fo > 4sig(Fo)  and  0.0504 for all    7293 data
REM    159 parameters refined using      0 restraints

END

WGHT      0.0226      0.5847

REM Highest difference peak  1.462,  deepest hole -2.278,  1-sigma level  0.285
Q1    1   0.1928  0.8192  0.2833  11.00000  0.05    1.46
Q2    1   0.1167  0.2481  0.2971  11.00000  0.05    1.41
Q3    1   0.2619  0.5600 -0.0012  11.00000  0.05    1.38
Q4    1   0.0839  0.1028  0.7225  11.00000  0.05    1.04
Q5    1   0.1402  0.0564  0.7219  11.00000  0.05    1.04
;
_shelx_res_checksum              12568
_shelx_hkl_file
;
  -2   0   0    0.21    0.10
  -2   0   0    0.23    0.12
  -2   0   0    0.18    0.06
   2   0   0    0.17    0.06
   2   0   0    0.21    0.11
   2   0   0    0.13    0.08
   2   0   0    0.12    0.06
  -3   0   0   26.28    1.29
  -3   0   0   28.60    1.28
  -3   0   0   27.89    1.03
   3   0   0   28.16    1.04
   3   0   0   27.39    1.20
  -4   0   0  208.89    6.79
  -4   0   0  198.92    7.26
   4   0   0  191.87    6.80
   4   0   0  209.27    7.26
  -5   0   0   10.62    0.82
  -5   0   0   11.96    0.93
   5   0   0   11.85    0.77
   5   0   0   12.21    0.93
  -6   0   0   52.99    2.61
  -6   0   0   55.66    2.54
  -6   0   0   52.61    2.53
   6   0   0   55.43    2.40
   6   0   0   57.66    2.62
  -7   0   0   41.63    2.20
  -7   0   0   44.33    2.41
  -7   0   0   43.60    2.28
   7   0   0   45.53    2.37
   7   0   0   43.82    2.09
  -8   0   0    3.21    0.58
  -8   0   0    5.61    0.94
  -8   0   0    4.42    0.95
   8   0   0    3.89    0.64
  -9   0   0    3.47    0.94
  -9   0   0    3.76    0.82
   9   0   0    3.51    0.67
 -10   0   0   -0.31    0.94
 -10   0   0    1.50    0.57
 -11   0   0    1.06    1.20
 -11   0   0    2.39    0.65
 -12   0   0    2.20    0.71
  12   0   0    2.11    1.45
 -14   0   0    5.45    1.27
 -14   1   0    0.22    0.26
 -13   1   0    2.17    0.76
 -12   1   0    0.57    1.57
 -12   1   0    1.67    0.64
 -11   1   0    8.97    1.45
 -11   1   0    8.22    1.53
  10  -1   0   48.83    2.58
 -10   1   0   47.92    3.40
 -10   1   0   51.21    3.13
   9  -1   0    4.78    0.72
  -9   1   0    5.26    0.90
  -9   1   0    4.05    0.72
  -9   1   0    5.35    1.04
   8  -1   0   51.20    2.44
  -8   1   0   47.37    2.43
  -8   1   0   47.57    2.58
  -8   1   0   49.76    2.70
   7  -1   0   27.87    1.56
   7  -1   0   30.78    1.86
  -7   1   0   29.19    1.82
  -7   1   0   26.46    1.57
  -7   1   0   28.29    1.72
   6  -1   0   13.43    0.93
   6  -1   0   14.62    1.13
  -6   1   0   14.93    0.99
  -6   1   0   14.78    1.12
  -6   1   0   15.07    1.19
   5  -1   0   97.56    3.85
   5  -1   0   96.37    3.74
  -5   1   0   97.17    3.76
  -5   1   0   97.70    3.85
  -5   1   0   92.59    3.84
   4  -1   0  901.69   29.90
  -4   1   0  876.91   29.90
   3  -1   0  523.44   17.47
  -3   1   0  525.17   17.48
  -3   1   0  519.30   17.18
  -3   1   0  500.50   17.17
   2  -1   0    4.80    0.35
   2  -1   0    5.43    0.29
   2  -1   0    6.52    0.40
   2  -1   0    4.73    0.36
  -2   1   0    6.41    0.31
   1  -1   0   71.84    2.53
   1  -1   0   72.67    2.53
  -1   1   0   73.34    2.53
  -1   1   0   70.55    2.54
  -1  -1   0   37.94    1.37
  -1  -1   0   36.19    1.42
   1   1   0   37.51    1.38
   1   1   0   35.46    1.41
  -2  -1   0   10.61    0.57
  -2  -1   0   10.30    0.63
  -2  -1   0   10.90    0.51
  -2  -1   0   10.31    0.55
   2   1   0   10.33    0.56
   2   1   0   10.78    0.51
   2   1   0    9.65    0.54
   2   1   0    9.72    0.56
   2   1   0   11.41    0.64
  -3  -1   0  200.75    7.03
  -3  -1   0  206.90    7.29
   3   1   0  206.43    7.06
  -4  -1   0   10.63    0.74
  -4  -1   0   12.70    0.67
  -4  -1   0   12.44    0.92
  -4  -1   0   13.78    0.84
   4   1   0   10.80    0.68
   4   1   0   14.95    0.95
   4   1   0   12.07    0.71
  -5  -1   0    0.75    0.26
  -5  -1   0    0.32    0.35
  -5  -1   0    0.70    0.27
  -5  -1   0    0.21    0.17
   5   1   0    0.50    0.35
   5   1   0    0.75    0.24
   5   1   0    0.67    0.24
  -6  -1   0    2.01    0.28
  -6  -1   0    1.28    0.39
  -6  -1   0    2.22    0.47
  -6  -1   0    1.25    0.48
   6   1   0    2.61    0.48
   6   1   0    1.45    0.32
   6   1   0    1.88    0.53
  -7  -1   0    0.78    0.29
  -7  -1   0    0.71    0.34
  -7  -1   0    0.52    0.46
   7   1   0    0.92    0.24
   7   1   0    0.88    0.62
   7   1   0    1.06    0.32
  -8  -1   0   32.11    1.95
  -8  -1   0   35.49    2.24
  -8  -1   0   30.52    1.75
   8   1   0   32.67    1.76
  -9  -1   0   22.60    2.07
  -9  -1   0   24.60    1.57
  -9  -1   0   26.92    1.81
   9   1   0   23.44    1.51
   9   1   0   27.83    1.92
 -10  -1   0   25.31    1.83
 -10  -1   0   21.14    1.53
 -10  -1   0   25.96    2.29
  10   1   0   22.40    1.90
 -11  -1   0    2.02    0.67
  11   1   0    2.32    1.30
 -12  -1   0    0.61    0.37
 -13  -1   0    8.07    1.44
 -14  -1   0    1.28    0.58
 -14   2   0   14.87    2.04
 -13   2   0    1.78    0.67
 -12   2   0   16.31    1.61
 -12   2   0   15.40    2.29
 -11   2   0    8.51    1.19
 -11   2   0    8.47    1.55
  10  -2   0    4.21    0.71
 -10   2   0    3.96    1.24
 -10   2   0    6.28    1.25
   9  -2   0   14.10    1.14
  -9   2   0   15.17    1.48
  -9   2   0   14.02    1.28
  -9   2   0   11.24    1.09
   8  -2   0  276.18   10.67
  -8   2   0  296.09   10.73
  -8   2   0  288.60   10.53
   7  -2   0  247.71    9.10
  -7   2   0  252.69    9.18
  -7   2   0  237.90    9.02
   6  -2   0   -0.29    0.37
  -6   2   0    0.10    0.29
  -6   2   0    0.09    0.11
   5  -2   0   27.11    1.52
   5  -2   0   26.13    1.45
  -5   2   0   27.02    1.44
  -5   2   0   27.71    1.10
  -5   2   0   26.68    1.48
  -5   2   0   26.51    1.45
  -5   2   0   28.38    1.09
   4  -2   0  261.40    8.83
   4  -2   0  266.59    9.16
  -4   2   0  251.30    8.86
  -4   2   0  265.44    9.18
   3  -2   0   42.86    1.67
   3  -2   0   42.63    1.81
   3  -2   0   44.64    1.81
  -3   2   0   42.96    1.82
  -3   2   0   42.21    1.70
  -3   2   0   44.03    1.93
  -3   2   0   43.12    1.82
   2  -2   0   15.95    0.78
   2  -2   0   12.14    0.65
  -2   2   0   12.80    0.67
  -2   2   0   11.58    0.67
  -2   2   0   11.60    0.72
   1  -2   0   74.37    2.65
   1  -2   0   71.38    2.74
  -1   2   0   70.81    2.75
  -1   2   0   77.09    2.66
   0  -2   0    0.39    0.10
   0  -2   0    0.37    0.12
   0  -2   0    0.45    0.16
   0   2   0    0.48    0.11
   0   2   0    0.19    0.09
   0   2   0    0.53    0.17
   0   2   0    0.51    0.12
  -1  -2   0    0.68    0.13
  -1  -2   0    1.22    0.25
  -1  -2   0    0.97    0.17
  -1  -2   0    0.70    0.12
   1   2   0    0.64    0.13
   1   2   0    0.77    0.13
   1   2   0    0.76    0.22
   1   2   0    0.48    0.13
  -2  -2   0    0.82    0.18
  -2  -2   0    0.95    0.24
  -2  -2   0    1.22    0.19
  -2  -2   0    0.72    0.19
   2   2   0    0.90    0.15
   2   2   0    1.01    0.25
   2   2   0    1.13    0.22
  -3  -2   0    5.87    0.41
  -3  -2   0    5.92    0.48
  -3  -2   0    8.09    0.58
   3   2   0    6.71    0.57
   3   2   0    6.29    0.51
   3   2   0    6.13    0.42
  -4  -2   0  104.09    3.95
  -4  -2   0  101.50    3.87
   4   2   0  109.85    4.28
   4   2   0  110.16    4.20
   4   2   0  108.07    3.90
   4   2   0  103.34    4.00
  -5  -2   0    3.11    0.46
  -5  -2   0    2.74    0.42
   5   2   0    3.61    0.56
   5   2   0    2.71    0.39
   5   2   0    2.55    0.58
   5   2   0    3.98    0.56
  -6  -2   0   58.72    2.57
  -6  -2   0   64.18    2.47
  -6  -2   0   61.47    2.80
   6   2   0   55.86    2.52
   6   2   0   62.60    2.79
   6   2   0   64.80    2.95
   6   2   0   59.62    2.55
  -7  -2   0    0.72    0.27
  -7  -2   0    0.62    0.29
  -7  -2   0    0.59    0.28
   7   2   0    0.88    0.28
   7   2   0   -0.16    0.35
   7   2   0    0.52    0.42
   7   2   0    1.00    0.71
  -8  -2   0    5.97    0.98
  -8  -2   0    5.65    0.51
  -8  -2   0    5.07    0.77
   8   2   0    6.49    1.10
   8   2   0    6.76    0.73
   8   2   0    5.56    0.78
  -9  -2   0   15.55    1.34
  -9  -2   0   14.64    1.12
   9   2   0   13.33    1.07
   9   2   0   14.41    1.47
 -10  -2   0    0.11    0.12
 -10  -2   0   -0.03    0.08
  10   2   0    0.30    0.79
 -11  -2   0   30.24    2.17
  11   2   0   28.03    2.39
 -12  -2   0    0.17    0.21
 -13  -2   0   -0.07    0.11
 -14  -2   0    0.44    0.36
 -14   3   0    4.34    1.09
 -13   3   0    2.98    0.80
 -12   3   0   39.79    3.57
 -12   3   0   43.75    2.87
 -11   3   0   87.03    4.71
 -11   3   0   98.40    4.70
  10  -3   0    0.10    0.12
 -10   3   0    0.03    0.12
 -10   3   0   -0.30    0.83
   9  -3   0    9.30    1.24
  -9   3   0    6.33    1.19
  -9   3   0    8.20    1.26
   8  -3   0   71.67    3.27
  -8   3   0   67.15    3.36
  -8   3   0   71.98    3.43
   7  -3   0   49.02    2.38
   7  -3   0   41.66    2.20
  -7   3   0   42.62    2.33
  -7   3   0   42.30    2.30
   6  -3   0   20.31    1.27
   6  -3   0   21.42    1.38
  -6   3   0   22.02    1.38
  -6   3   0   21.25    1.01
  -6   3   0   20.36    0.99
  -6   3   0   20.66    1.35
  -6   3   0   21.55    1.46
   5  -3   0   15.09    0.98
   5  -3   0   15.47    1.04
   5  -3   0   14.42    0.77
  -5   3   0   15.04    1.02
  -5   3   0   15.24    1.03
  -5   3   0   13.51    0.82
  -5   3   0   14.49    1.00
   4  -3   0    0.58    0.19
   4  -3   0    0.04    0.23
   4  -3   0    0.54    0.20
  -4   3   0    0.27    0.14
  -4   3   0    0.18    0.22
  -4   3   0    0.27    0.16
  -4   3   0    0.45    0.25
   3  -3   0    7.06    0.55
   3  -3   0    6.51    0.52
  -3   3   0    7.06    0.59
  -3   3   0    7.19    0.56
  -3   3   0    6.79    0.55
  -3   3   0    6.87    0.54
   2  -3   0    5.31    0.41
   2  -3   0    4.85    0.45
   2  -3   0    5.46    0.44
   2  -3   0    6.17    0.47
  -2   3   0    5.92    0.44
  -2   3   0    5.57    0.44
  -2   3   0    5.62    0.46
  -2   3   0    5.43    0.53
   1  -3   0   25.54    1.29
   1  -3   0   25.53    1.18
   1  -3   0   25.95    1.11
  -1   3   0   24.78    1.14
  -1   3   0   26.93    1.13
  -1   3   0   26.52    1.26
  -1   3   0   26.27    1.33
   0  -3   0  174.07    6.51
   0  -3   0  194.59    6.31
   0   3   0  175.02    6.29
  -1  -3   0   72.28    2.75
  -1  -3   0   71.50    2.95
   1   3   0   74.87    3.00
   1   3   0   75.35    2.76
  -2  -3   0   81.96    3.26
  -2  -3   0   82.49    3.31
   2   3   0   84.24    3.14
   2   3   0   82.81    3.32
  -3  -3   0    7.59    0.62
  -3  -3   0    8.52    0.52
  -3  -3   0    8.55    0.62
  -3  -3   0   10.41    0.77
   3   3   0    8.43    0.76
   3   3   0    8.85    0.53
   3   3   0    8.26    0.63
   3   3   0    7.69    0.73
  -4  -3   0   10.86    0.79
  -4  -3   0   11.15    0.85
  -4  -3   0   10.67    0.67
   4   3   0   12.03    0.97
   4   3   0   13.22    0.97
   4   3   0   11.21    0.69
   4   3   0   12.05    0.86
  -5  -3   0    5.87    0.65
  -5  -3   0    6.56    0.53
  -5  -3   0    5.04    0.69
   5   3   0    5.72    0.49
   5   3   0    6.69    0.67
   5   3   0    9.47    1.06
   5   3   0    6.63    0.94
  -6  -3   0    3.36    0.59
  -6  -3   0    4.27    0.61
  -6  -3   0    4.43    0.61
   6   3   0    2.44    1.10
   6   3   0    3.87    0.86
   6   3   0    3.31    0.47
   6   3   0    3.94    0.66
  -7  -3   0   75.42    3.42
  -7  -3   0   71.53    3.12
  -7  -3   0   80.94    3.10
   7   3   0   78.51    3.46
   7   3   0   68.42    3.99
   7   3   0   70.76    3.10
  -8  -3   0    6.76    0.72
  -8  -3   0    8.20    1.11
  -8  -3   0    5.78    0.81
   8   3   0    7.04    1.02
   8   3   0    5.67    1.05
  -9  -3   0   -0.15    0.38
  -9  -3   0    0.04    0.11
   9   3   0   -0.44    0.66
   9   3   0    0.06    0.65
 -10  -3   0    2.67    0.57
 -10  -3   0    4.28    0.88
  10   3   0    3.16    1.03
 -11  -3   0    7.65    1.28
  11   3   0    7.38    1.50
 -12  -3   0    6.93    1.17
 -13  -3   0    0.11    0.17
 -14   4   0    0.01    0.17
 -13   4   0    5.47    1.34
 -12   4   0   19.12    1.81
 -11   4   0   22.84    1.93
 -11   4   0   22.56    3.22
  10  -4   0   11.67    1.15
 -10   4   0   16.71    2.28
 -10   4   0   12.43    1.62
   9  -4   0    1.77    0.56
  -9   4   0    1.20    0.47
  -9   4   0    2.16    0.86
  -8   4   0    1.53    0.65
  -8   4   0    0.74    0.31
   7  -4   0    5.17    0.79
   7  -4   0    7.22    0.99
  -7   4   0    5.13    0.77
  -7   4   0    6.52    0.64
  -7   4   0    5.83    0.63
  -7   4   0    8.39    1.10
   6  -4   0   12.80    0.98
   6  -4   0   14.33    1.10
   6  -4   0   11.51    0.78
  -6   4   0   12.75    1.05
  -6   4   0   11.42    0.98
  -6   4   0   12.83    0.89
   5  -4   0    3.11    0.45
   5  -4   0    5.88    0.92
   5  -4   0    3.15    0.53
  -5   4   0    3.13    0.56
  -5   4   0    3.14    0.62
  -5   4   0    2.46    0.49
   4  -4   0   40.90    1.86
   4  -4   0   37.52    1.87
  -4   4   0   37.52    1.90
  -4   4   0   41.46    1.95
  -4   4   0   51.77    2.25
   3  -4   0   84.67    3.32
   3  -4   0   80.56    3.21
  -3   4   0   83.95    3.26
  -3   4   0   81.99    3.38
   2  -4   0    4.68    0.40
   2  -4   0    4.33    0.43
   2  -4   0    5.12    0.55
   2  -4   0    4.50    0.46
  -2   4   0    4.31    0.44
  -2   4   0    4.94    0.67
  -2   4   0    4.23    0.40
   1  -4   0    0.89    0.33
   1  -4   0    0.77    0.22
   1  -4   0    0.36    0.12
  -1   4   0    1.06    0.25
  -1   4   0    0.55    0.17
   0  -4   0   29.90    1.27
   0  -4   0   29.56    1.43
   0  -4   0   27.26    1.53
   0  -4   0   28.64    1.37
   0   4   0   31.40    1.30
   0   4   0   29.19    1.63
   0   4   0   28.24    1.33
  -1  -4   0    1.68    0.33
  -1  -4   0    1.92    0.43
  -1  -4   0    1.80    0.32
   1   4   0    1.18    0.21
   1   4   0    1.06    0.26
   1   4   0    0.74    0.34
  -2  -4   0   40.28    2.05
  -2  -4   0   42.45    1.70
  -2  -4   0   40.70    1.84
  -2  -4   0   41.77    1.85
   2   4   0   42.84    2.11
   2   4   0   44.07    1.72
   2   4   0   40.55    1.82
  -3  -4   0  192.65    6.96
  -3  -4   0  197.69    7.22
   3   4   0  189.47    6.96
   3   4   0  194.94    7.26
  -4  -4   0   40.23    2.12
  -4  -4   0   44.41    2.06
  -4  -4   0   44.93    1.87
   4   4   0   45.70    2.08
   4   4   0   44.78    2.27
   4   4   0   46.16    1.88
   4   4   0   40.49    2.20
  -5  -4   0    3.34    0.61
  -5  -4   0    1.63    0.30
   5   4   0    3.52    1.19
   5   4   0    1.81    0.59
   5   4   0    2.18    0.51
   5   4   0    2.36    0.39
  -6  -4   0    4.90    0.65
  -6  -4   0    3.99    0.65
  -6  -4   0    2.87    0.60
   6   4   0    5.74    1.08
   6   4   0    4.24    0.74
   6   4   0    3.59    0.83
  -7  -4   0   31.42    1.92
  -7  -4   0   35.91    1.86
   7   4   0   32.55    2.05
   7   4   0   34.53    1.74
   7   4   0   33.74    2.08
  -8  -4   0    6.86    0.71
  -8  -4   0    9.18    0.97
  -8  -4   0    7.63    1.06
   8   4   0    8.69    1.27
   8   4   0    8.03    0.75
   8   4   0    7.06    1.16
  -9  -4   0    2.73    0.52
  -9  -4   0    3.42    0.71
  -9  -4   0    3.98    0.79
   9   4   0    4.39    1.05
   9   4   0    2.90    1.07
 -10  -4   0    8.48    0.83
 -10  -4   0    5.95    0.91
 -10  -4   0    7.46    1.17
  10   4   0    9.59    2.26
 -11  -4   0    0.33    0.25
 -13  -4   0    0.38    0.27
 -14   5   0    3.19    1.04
 -12   5   0    0.15    0.23
 -11   5   0    5.43    1.15
 -11   5   0    3.58    1.33
  10  -5   0    4.43    0.93
 -10   5   0    4.73    1.24
   9  -5   0    0.06    0.11
  -9   5   0    0.52    0.71
  -9   5   0    0.03    0.11
   8  -5   0    4.50    0.87
  -8   5   0    4.00    0.87
  -8   5   0    4.06    0.60
  -8   5   0    4.59    0.65
  -8   5   0    4.49    1.05
   7  -5   0  103.94    4.31
   7  -5   0   97.02    3.80
  -7   5   0   95.75    4.27
  -7   5   0  104.26    4.41
  -7   5   0   95.60    4.08
   6  -5   0    0.16    0.40
   6  -5   0    0.29    0.20
   6  -5   0    0.18    0.32
  -6   5   0    0.58    0.39
  -6   5   0    0.23    0.47
  -6   5   0    0.36    0.22
   5  -5   0    0.92    0.32
   5  -5   0    1.27    0.39
   5  -5   0    0.72    0.39
  -5   5   0    1.48    0.42
  -5   5   0    0.76    0.44
  -5   5   0    1.17    0.36
   4  -5   0    0.68    0.24
   4  -5   0    0.83    0.33
   4  -5   0    0.35    0.31
  -4   5   0    0.91    0.49
  -4   5   0    0.45    0.28
  -4   5   0    0.43    0.19
   3  -5   0   30.16    1.59
   3  -5   0   30.49    1.67
   3  -5   0   30.65    1.54
  -3   5   0   29.23    1.53
  -3   5   0   30.79    1.57
  -3   5   0   34.72    1.83
   2  -5   0   21.71    1.22
   2  -5   0   21.10    1.12
   2  -5   0   23.96    1.58
   2  -5   0   22.00    1.18
  -2   5   0   20.10    1.38
  -2   5   0   20.52    1.13
  -2   5   0   21.28    1.18
   1  -5   0   59.15    2.51
   1  -5   0   56.84    2.42
   1  -5   0   58.86    2.37
  -1   5   0   62.37    2.67
  -1   5   0   57.12    2.78
  -1   5   0   60.04    2.41
   0  -5   0   91.18    3.91
   0  -5   0   95.05    3.58
   0   5   0   90.62    3.97
   0   5   0   96.19    3.63
  -1  -5   0    0.61    0.32
  -1  -5   0    0.83    0.31
  -1  -5   0    0.28    0.13
   1   5   0    0.69    0.46
   1   5   0    0.34    0.19
   1   5   0    0.68    0.18
  -2  -5   0    0.99    0.21
  -2  -5   0    1.18    0.32
  -2  -5   0    1.65    0.48
  -2  -5   0    1.19    0.31
   2   5   0    1.69    0.30
   2   5   0    1.09    0.49
   2   5   0    1.01    0.31
  -3  -5   0   77.11    2.90
  -3  -5   0   71.52    3.09
  -3  -5   0   71.38    3.06
  -3  -5   0   77.12    3.38
   3   5   0   76.66    2.91
   3   5   0   72.19    3.42
   3   5   0   73.68    3.08
  -4  -5   0   -0.03    0.36
  -4  -5   0    0.10    0.08
  -4  -5   0    0.10    0.11
  -4  -5   0   -0.10    0.36
   4   5   0   -0.28    0.54
   4   5   0   -0.01    0.03
   4   5   0    0.29    0.30
   4   5   0    0.40    0.51
  -5  -5   0   56.29    2.77
  -5  -5   0   55.36    2.65
  -5  -5   0   54.57    2.40
   5   5   0   54.05    2.87
   5   5   0   57.49    2.95
   5   5   0   63.94    2.77
  -6  -5   0   15.47    1.17
  -6  -5   0   14.33    1.15
  -6  -5   0   15.01    1.29
   6   5   0   15.57    0.99
   6   5   0   16.69    1.28
   6   5   0   16.55    1.64
  -7  -5   0    1.48    0.35
  -7  -5   0    2.70    0.64
  -7  -5   0    1.16    0.59
   7   5   0    1.57    0.96
   7   5   0    1.87    0.41
   7   5   0    2.25    0.69
  -8  -5   0    7.79    1.17
  -8  -5   0    6.41    1.00
  -8  -5   0    7.20    0.72
   8   5   0    5.84    1.12
   8   5   0    6.99    1.35
  -9  -5   0    4.22    0.81
  -9  -5   0    2.86    0.58
  -9  -5   0    4.07    0.86
   9   5   0    1.69    1.30
   9   5   0    3.07    1.02
 -10  -5   0    1.14    0.45
 -10  -5   0    1.54    0.86
  10   5   0    0.61    1.03
 -11  -5   0    9.95    1.40
 -12  -5   0    0.31    0.30
 -13  -5   0    2.79    0.78
 -13   6   0    1.90    0.81
 -12   6   0    0.04    0.13
 -11   6   0   27.77    2.19
 -11   6   0   25.85    2.66
 -10   6   0    2.95    0.88
 -10   6   0    3.15    1.25
   9  -6   0    0.01    0.08
  -9   6   0   -0.24    0.52
  -9   6   0   -0.01    0.13
  -9   6   0    0.23    0.63
  -9   6   0    0.28    0.79
   8  -6   0    0.92    0.39
  -8   6   0   -0.10    0.70
  -8   6   0    0.86    0.59
  -8   6   0    0.82    0.70
   7  -6   0   19.83    1.46
   7  -6   0   19.78    1.30
  -7   6   0   22.28    1.62
  -7   6   0   18.34    1.48
  -7   6   0   20.97    1.54
   6  -6   0    6.42    0.86
   6  -6   0    5.13    0.82
   6  -6   0    5.12    0.77
  -6   6   0    4.70    0.88
  -6   6   0    4.92    0.82
   5  -6   0   16.43    1.22
   5  -6   0   17.06    1.22
   5  -6   0   16.77    1.28
  -5   6   0   18.92    1.43
  -5   6   0   19.22    1.28
  -5   6   0   16.01    1.24
   4  -6   0   86.47    3.74
   4  -6   0   89.70    3.80
   4  -6   0   86.35    3.64
  -4   6   0   93.33    3.73
  -4   6   0   86.82    3.70
  -4   6   0   90.81    3.93
   3  -6   0    0.52    0.31
   3  -6   0    0.43    0.25
   3  -6   0    0.59    0.40
  -3   6   0    0.63    0.31
  -3   6   0    0.90    0.56
  -3   6   0    1.56    0.46
   2  -6   0    3.04    0.63
   2  -6   0    1.89    0.43
   2  -6   0    1.90    0.40
   2  -6   0    1.69    0.42
  -2   6   0    1.96    0.64
  -2   6   0    1.45    0.34
  -2   6   0    1.20    0.34
   1  -6   0   36.78    2.04
   1  -6   0   36.56    1.75
   1  -6   0   33.73    1.78
   1  -6   0   36.94    1.76
  -1   6   0   36.75    1.71
  -1   6   0   36.39    2.17
  -1   6   0   36.99    1.78
   0  -6   0    2.88    0.46
   0  -6   0    2.24    0.48
   0  -6   0    2.11    0.57
   0  -6   0    2.55    0.45
   0   6   0    1.61    0.34
   0   6   0    2.51    0.43
   0   6   0    2.29    0.69
  -1  -6   0  103.02    4.53
  -1  -6   0  108.19    4.16
   1   6   0  108.19    4.03
   1   6   0  110.84    4.17
   1   6   0  100.61    4.58
  -2  -6   0    0.04    0.10
  -2  -6   0    0.06    0.38
  -2  -6   0    0.02    0.06
  -2  -6   0    0.00    0.28
   2   6   0    0.30    0.15
   2   6   0    0.37    0.27
   2   6   0    0.47    0.54
  -3  -6   0    8.44    0.76
  -3  -6   0    8.09    0.61
  -3  -6   0    8.18    0.81
  -3  -6   0    8.63    1.12
   3   6   0    9.34    0.83
   3   6   0    8.11    0.62
   3   6   0    7.44    1.11
  -4  -6   0   37.50    2.04
  -4  -6   0   38.16    2.21
  -4  -6   0   39.61    2.01
  -4  -6   0   39.71    1.77
   4   6   0   34.11    1.82
   4   6   0   38.87    2.03
   4   6   0   37.41    2.37
  -5  -6   0   27.15    1.65
  -5  -6   0   27.76    1.86
   5   6   0   32.23    1.80
   5   6   0   25.73    1.41
  -6  -6   0    2.01    0.70
  -6  -6   0    2.58    0.46
  -6  -6   0    2.46    0.61
   6   6   0    2.50    0.49
   6   6   0    1.22    1.00
   6   6   0    1.90    0.65
  -7  -6   0   15.09    1.45
  -7  -6   0   15.82    1.29
  -7  -6   0   13.65    1.02
   7   6   0   18.05    1.54
   7   6   0   15.67    1.89
  -8  -6   0    8.94    1.22
  -8  -6   0    9.87    0.87
  -8  -6   0   10.15    1.33
   8   6   0   10.08    1.72
   8   6   0    8.21    1.31
  -9  -6   0    1.72    0.47
  -9  -6   0    2.96    0.71
  -9  -6   0    3.19    1.03
   9   6   0    0.91    1.14
 -10  -6   0    0.03    0.11
 -10  -6   0    0.61    1.11
 -11  -6   0    2.70    0.92
 -12  -6   0    0.92    0.45
 -13   7   0    0.29    0.39
 -12   7   0    0.50    0.46
 -11   7   0    8.45    1.45
  10  -7   0    0.35    0.29
 -10   7   0    0.19    0.22
 -10   7   0    1.22    1.37
   9  -7   0    0.77    0.39
  -9   7   0    0.40    0.90
  -9   7   0    0.32    0.30
  -9   7   0    0.80    0.85
  -9   7   0    0.31    1.01
   8  -7   0   36.41    2.25
   8  -7   0   35.08    1.93
  -8   7   0   32.35    2.20
  -8   7   0   34.62    2.32
  -8   7   0   37.45    2.34
   7  -7   0    0.25    0.50
  -7   7   0    1.12    0.82
  -7   7   0   -0.35    0.55
  -7   7   0    0.39    0.31
   6  -7   0    3.06    0.79
   6  -7   0    0.52    0.49
  -6   7   0    0.87    0.80
  -6   7   0    0.46    0.46
  -6   7   0    1.75    0.45
   5  -7   0    4.38    0.85
   5  -7   0    3.80    0.78
  -5   7   0    4.60    0.78
  -5   7   0    2.62    0.87
  -5   7   0    3.94    0.72
   4  -7   0    9.59    1.06
   4  -7   0   11.80    1.03
   4  -7   0   11.50    1.10
  -4   7   0   10.86    1.32
  -4   7   0    9.86    0.95
  -4   7   0   11.35    0.94
   3  -7   0  113.12    4.62
   3  -7   0  115.14    4.78
   3  -7   0  120.05    4.98
  -3   7   0  123.41    4.71
  -3   7   0  115.28    5.09
  -3   7   0  117.85    4.70
   2  -7   0    6.98    0.71
   2  -7   0    6.83    1.01
   2  -7   0    5.70    0.56
  -2   7   0    7.13    0.77
  -2   7   0    6.75    0.64
  -2   7   0    6.59    1.19
   1  -7   0    9.90    1.03
   1  -7   0    8.32    0.77
   1  -7   0    7.32    0.75
  -1   7   0    9.15    0.72
  -1   7   0    6.55    1.20
  -1   7   0    8.46    0.80
   0  -7   0   22.87    1.70
   0  -7   0   29.98    2.10
   0  -7   0   23.17    1.26
   0  -7   0   24.39    1.44
   0   7   0   22.85    1.41
   0   7   0   23.17    1.29
  -1  -7   0  133.41    5.18
  -1  -7   0  131.82    5.58
  -1  -7   0  131.34    5.09
   1   7   0  131.10    5.11
   1   7   0  128.86    5.66
   1   7   0  131.52    4.95
  -2  -7   0    0.51    0.26
  -2  -7   0    1.47    0.49
  -2  -7   0    0.65    0.19
  -2  -7   0    0.49    0.47
   2   7   0    0.51    0.69
   2   7   0    1.15    0.30
   2   7   0    1.20    0.41
  -3  -7   0   12.90    1.03
  -3  -7   0   13.39    0.87
  -3  -7   0   11.62    1.25
   3   7   0   12.90    1.09
   3   7   0   14.40    0.91
   3   7   0   14.36    1.54
  -4  -7   0   41.95    2.19
  -4  -7   0   39.93    1.89
  -4  -7   0   41.59    2.49
   4   7   0   39.82    2.17
   4   7   0   39.30    2.65
  -5  -7   0    3.78    0.54
  -5  -7   0    5.44    0.88
  -5  -7   0    6.39    1.12
   5   7   0    4.64    0.67
   5   7   0    4.94    0.89
  -6  -7   0    0.34    0.24
  -6  -7   0    0.95    0.77
  -6  -7   0    0.36    0.18
   6   7   0    1.07    0.63
  -7  -7   0    9.13    1.33
  -7  -7   0   10.86    0.89
  -7  -7   0    9.15    1.19
   7   7   0   10.28    1.40
  -8  -7   0    1.69    1.07
  -8  -7   0    3.27    0.58
  -8  -7   0    2.73    0.67
   8   7   0    2.03    1.00
  -9  -7   0    0.17    1.49
  -9  -7   0    0.32    0.25
   9   7   0   -1.34    1.08
 -10  -7   0   38.96    2.49
 -11  -7   0   26.60    2.02
 -12  -7   0    3.40    0.82
 -13   8   0    0.97    0.61
 -12   8   0    6.56    1.34
 -11   8   0   -0.01    0.12
  10  -8   0   -0.03    0.08
 -10   8   0   -0.05    0.10
 -10   8   0   -0.63    1.17
   9  -8   0    1.32    0.54
  -9   8   0    0.53    0.37
  -9   8   0    0.83    1.03
  -9   8   0    1.32    1.01
   8  -8   0    1.82    0.79
   8  -8   0    3.07    0.75
  -8   8   0    1.49    0.57
  -8   8   0    2.86    1.34
  -8   8   0    2.50    0.94
   7  -8   0   53.00    2.85
   7  -8   0   51.11    2.68
  -7   8   0   48.68    2.82
  -7   8   0   53.99    3.09
  -7   8   0   46.65    2.81
   6  -8   0   45.78    2.47
   6  -8   0   39.02    2.35
  -6   8   0   38.06    2.73
  -6   8   0   39.90    2.37
  -6   8   0   42.40    2.43
   5  -8   0   11.07    1.26
   5  -8   0    9.86    1.00
  -5   8   0   11.91    1.63
  -5   8   0   11.36    1.06
   4  -8   0   20.41    1.68
   4  -8   0   20.62    1.46
  -4   8   0   20.44    1.45
  -4   8   0   20.44    1.41
  -4   8   0   20.82    1.98
   3  -8   0  123.48    5.37
   3  -8   0  124.49    5.14
  -3   8   0  127.14    5.08
  -3   8   0  123.31    5.01
  -3   8   0  125.01    5.62
   2  -8   0   25.22    1.61
   2  -8   0   29.75    2.01
   2  -8   0   27.23    1.49
   2  -8   0   27.13    1.67
  -2   8   0   25.74    1.53
  -2   8   0   25.78    2.18
  -2   8   0   26.06    1.59
   1  -8   0    2.03    0.39
   1  -8   0    4.06    0.77
   1  -8   0    2.38    0.75
   1  -8   0    2.96    0.66
  -1   8   0    4.13    0.73
  -1   8   0    2.26    0.92
  -1   8   0    2.53    0.56
   0  -8   0   43.39    2.19
   0  -8   0   42.53    1.99
   0  -8   0   42.82    2.21
   0  -8   0   41.27    2.53
   0   8   0   38.29    1.99
   0   8   0   44.36    2.20
  -1  -8   0    1.61    0.70
  -1  -8   0    0.81    0.35
   1   8   0    1.10    0.32
   1   8   0    0.48    0.39
  -2  -8   0    0.36    0.19
  -2  -8   0    1.57    0.68
  -2  -8   0    0.13    0.14
   2   8   0    0.57    0.24
   2   8   0    0.03    0.42
  -3  -8   0   12.32    1.06
  -3  -8   0   14.71    1.49
  -3  -8   0   13.05    0.90
   3   8   0   12.40    0.91
   3   8   0   11.28    1.22
  -4  -8   0   33.88    1.97
  -4  -8   0   26.19    2.86
   4   8   0   33.31    1.71
   4   8   0   33.18    1.99
  -5  -8   0    1.23    0.84
   5   8   0    1.73    0.68
  -6  -8   0   42.92    2.81
  -6  -8   0   42.92    2.17
  -6  -8   0   46.24    2.52
   6   8   0   43.43    2.61
  -7  -8   0   60.25    3.52
  -7  -8   0   64.03    3.29
  -7  -8   0   63.37    2.93
   7   8   0   68.49    3.53
  -8  -8   0    6.20    0.82
  -8  -8   0    8.28    1.52
  -8  -8   0    8.83    1.27
   8   8   0    4.04    1.23
  -9  -8   0    1.26    1.37
  -9  -8   0    1.96    0.61
 -10  -8   0   58.47    3.30
 -11  -8   0   26.34    2.01
 -11   9   0   11.06    1.55
  10  -9   0   25.59    2.11
 -10   9   0   25.27    2.15
   9  -9   0    1.99    1.00
   9  -9   0    1.07    0.48
  -9   9   0    0.73    1.37
  -9   9   0   -0.15    1.09
  -9   9   0    1.31    0.53
   8  -9   0    7.68    1.22
   8  -9   0    8.99    1.32
  -8   9   0   13.90    2.33
  -8   9   0    7.97    1.34
   7  -9   0   77.06    3.81
   7  -9   0   76.02    3.88
  -7   9   0   78.05    3.96
  -7   9   0   82.74    3.97
   6  -9   0   40.29    2.49
   6  -9   0   39.65    2.40
  -6   9   0   39.92    2.46
  -6   9   0   36.50    2.35
   5  -9   0    0.78    0.33
   5  -9   0    1.31    0.72
  -5   9   0    1.79    0.53
  -5   9   0    0.97    0.60
   4  -9   0   34.61    2.28
   4  -9   0   27.48    1.86
  -4   9   0   28.52    1.92
  -4   9   0   30.41    1.88
   3  -9   0    0.24    0.18
   3  -9   0    0.41    0.76
  -3   9   0    0.04    0.08
  -3   9   0   -0.79    0.44
   2  -9   0    8.38    1.10
  -2   9   0    9.19    1.67
  -2   9   0    7.55    0.96
   1  -9   0    4.62    0.80
   1  -9   0    4.08    1.15
   1  -9   0    4.54    0.72
   0  -9   0   58.52    3.25
   0  -9   0   52.54    2.68
   0  -9   0   52.32    2.43
   0   9   0   53.63    2.70
   0   9   0   49.11    2.46
  -1  -9   0    1.46    0.49
  -1  -9   0    0.63    0.70
   1   9   0    0.71    0.49
   1   9   0    1.45    0.40
  -2  -9   0   34.46    1.98
  -2  -9   0   33.08    2.38
  -2  -9   0   35.39    1.74
   2   9   0   28.95    1.68
   2   9   0   30.57    1.93
  -3  -9   0   97.52    3.96
  -3  -9   0  100.08    4.33
  -3  -9   0   98.68    4.82
   3   9   0   97.86    4.28
   3   9   0   91.13    3.97
  -4  -9   0   12.74    0.96
  -4  -9   0   12.27    1.66
   4   9   0   14.42    1.30
  -5  -9   0    0.08    0.09
  -5  -9   0    0.15    0.87
  -5  -9   0    0.04    0.12
   5   9   0    0.15    0.71
  -6  -9   0   94.30    4.42
  -6  -9   0   91.87    4.01
  -6  -9   0   92.58    4.81
   6   9   0  105.37    4.72
  -7  -9   0   87.07    3.82
  -7  -9   0   89.86    4.25
  -7  -9   0   87.18    4.64
   7   9   0   90.03    4.43
  -8  -9   0    0.98    0.41
  -8  -9   0    1.71    1.49
  -9  -9   0   -2.02    1.69
 -10  -9   0    4.92    1.04
 -11  -9   0    3.42    0.82
 -11  10   0   24.75    2.29
  10 -10   0   33.53    2.54
 -10  10   0   33.32    2.58
   9 -10   0    0.91    1.16
   9 -10   0    0.32    0.40
  -9  10   0    0.33    0.33
   8 -10   0    4.29    1.31
   8 -10   0    7.08    1.29
  -8  10   0    6.14    1.47
  -8  10   0    5.29    1.14
   7 -10   0    0.81    0.41
   7 -10   0    0.00    0.99
  -7  10   0   -0.65    0.85
  -7  10   0    0.01    0.10
   6 -10   0    5.03    1.01
   6 -10   0    6.20    1.27
  -6  10   0    2.96    0.80
  -6  10   0    3.44    1.01
   5 -10   0    0.41    0.27
   5 -10   0    0.13    0.82
  -5  10   0    0.02    0.16
  -5  10   0   -0.44    0.65
   4 -10   0   49.59    2.99
   4 -10   0   44.03    2.58
  -4  10   0   44.17    2.52
  -4  10   0   43.17    2.62
   3 -10   0    7.36    1.32
   3 -10   0    8.49    1.13
  -3  10   0    5.59    0.99
  -3  10   0    6.62    0.92
   2 -10   0   11.82    1.11
   2 -10   0    7.43    1.39
  -2  10   0    8.72    0.89
  -2  10   0    7.40    1.03
   1 -10   0   95.52    4.84
   1 -10   0   92.54    4.01
   1 -10   0   98.16    4.36
  -1  10   0  103.68    4.33
  -1  10   0   89.77    4.30
   0 -10   0   12.19    1.68
   0 -10   0   12.35    0.98
   0 -10   0   12.72    1.15
   0  10   0   13.85    1.08
   0  10   0   11.08    1.34
  -1 -10   0    1.08    0.86
  -1 -10   0    0.94    0.39
   1  10   0    0.25    0.62
   1  10   0    0.87    0.33
  -2 -10   0   57.85    2.69
  -2 -10   0   52.18    3.45
   2  10   0   64.20    3.10
   2  10   0   57.83    2.81
  -3 -10   0  134.62    5.67
  -3 -10   0  131.91    5.28
  -3 -10   0  138.31    6.36
   3  10   0  132.77    5.71
  -4 -10   0    4.63    1.45
  -4 -10   0    4.87    0.91
  -4 -10   0    5.36    0.82
   4  10   0    3.98    0.87
  -5 -10   0    0.37    0.23
  -5 -10   0    0.05    0.13
  -5 -10   0    0.73    1.12
   5  10   0    0.39    0.82
  -6 -10   0    7.36    1.69
  -6 -10   0    6.32    1.03
   6  10   0    6.45    1.41
  -7 -10   0    5.06    1.96
  -7 -10   0    5.79    1.00
  -8 -10   0    0.09    0.15
  -8 -10   0   -0.71    1.79
  -9 -10   0    2.68    0.68
 -10 -10   0    0.01    0.11
 -11  11   0    1.24    0.82
  10 -11   0    3.29    0.87
 -10  11   0    3.67    0.98
   9 -11   0   -0.01    0.14
  -9  11   0   -0.07    0.15
   8 -11   0   10.09    1.51
   8 -11   0   15.31    2.04
  -8  11   0    9.91    1.54
   7 -11   0    8.32    1.71
   7 -11   0   10.52    1.57
  -7  11   0    5.83    1.47
  -7  11   0   10.74    1.67
   6 -11   0    0.21    1.21
   6 -11   0    1.06    0.50
  -6  11   0    1.60    0.56
  -6  11   0    2.33    1.12
   5 -11   0   47.22    3.10
  -5  11   0   41.60    2.62
  -5  11   0   40.62    2.71
   4 -11   0   13.82    1.91
   4 -11   0   13.00    1.74
  -4  11   0   13.03    1.62
  -4  11   0   12.47    1.22
   3 -11   0    0.84    0.82
   3 -11   0    0.06    0.21
  -3  11   0    0.31    0.74
  -3  11   0    0.34    0.24
   2 -11   0   27.43    2.47
  -2  11   0   22.27    1.86
  -2  11   0   24.28    1.69
   1 -11   0  147.31    6.64
   1 -11   0  134.45    6.20
  -1  11   0  140.84    5.90
  -1  11   0  134.36    5.70
   0 -11   0    5.74    1.41
   0 -11   0    6.33    1.08
   0  11   0    6.59    1.05
   0  11   0    6.36    1.05
  -1 -11   0    2.84    1.15
  -1 -11   0    2.65    0.64
   1  11   0    3.94    0.96
  -2 -11   0   12.73    1.60
  -2 -11   0    8.77    1.69
   2  11   0    9.06    1.44
  -3 -11   0   17.34    2.35
  -3 -11   0   14.95    1.37
   3  11   0   16.99    2.79
  -4 -11   0    1.55    1.47
  -4 -11   0    1.77    0.54
   4  11   0    2.17    0.95
  -5 -11   0   -0.89    1.44
  -5 -11   0    0.59    0.34
  -6 -11   0    1.56    1.72
  -8 -11   0    0.58    0.38
  -9 -11   0   -0.01    0.11
  10 -12   0    0.21    0.33
 -10  12   0   -0.10    0.21
   9 -12   0   12.37    1.78
  -9  12   0   11.64    1.84
   8 -12   0    7.04    1.96
   8 -12   0    5.42    1.15
  -8  12   0    8.05    1.56
   7 -12   0    0.33    1.47
   7 -12   0    0.27    0.24
  -7  12   0    0.16    0.26
   6 -12   0    2.51    0.69
   6 -12   0   -0.79    1.45
  -6  12   0    2.20    0.64
   5 -12   0   59.91    3.39
   5 -12   0   62.91    3.91
  -5  12   0   54.82    3.28
  -5  12   0   58.24    3.46
   4 -12   0   12.86    1.70
   4 -12   0   11.30    1.83
  -4  12   0   11.10    1.59
  -4  12   0    7.91    1.41
   3 -12   0    8.51    1.70
   3 -12   0    9.86    1.50
  -3  12   0    5.86    1.33
   2 -12   0    6.12    1.56
   2 -12   0    5.12    1.05
  -2  12   0    8.27    1.42
   1 -12   0   14.95    1.40
   1 -12   0   13.28    2.04
  -1  12   0   12.63    1.60
   0 -12   0    1.73    0.55
   0 -12   0    0.43    1.14
   0  12   0    1.32    0.95
  -1 -12   0    3.06    0.72
  -1 -12   0   -0.24    1.16
   1  12   0    3.36    1.07
  -2 -12   0    0.58    0.33
  -2 -12   0   -1.22    1.24
   2  12   0    0.90    0.88
  -3 -12   0   16.44    1.46
  -3 -12   0   10.02    2.38
  -4 -12   0    2.27    0.67
  -5 -12   0    0.19    0.20
  -6 -12   0    1.24    0.60
  -7 -12   0   15.54    1.46
  -8 -12   0    0.62    0.38
   9 -13   0   12.83    2.56
   8 -13   0    6.90    1.31
   7 -13   0    7.74    1.42
   6 -13   0    5.55    1.12
   5 -13   0   11.57    1.57
   4 -13   0    0.74    0.43
   3 -13   0   11.30    1.46
   2 -13   0   -0.04    0.08
   1 -13   0   10.76    1.55
   0 -13   0    3.67    0.84
  -1 -13   0   -0.02    0.08
  -2 -13   0    0.33    0.28
  -3 -13   0   16.90    1.56
  -4 -13   0    1.18    0.48
  -5 -13   0    0.43    0.27
  -6 -13   0    1.30    0.52
   7 -14   0   11.39    1.82
   6 -14   0    0.27    0.33
   5 -14   0    3.94    0.93
   4 -14   0    5.17    1.05
   3 -14   0   -0.05    0.09
   2 -14   0    1.05    0.53
   1 -14   0   13.89    1.71
   0 -14   0   11.60    1.68
  -1 -14   0    1.38    0.72
  -2 -14   0    2.07    0.70
  -3 -14   0    0.75    0.42
  -4 -14   0    1.94    0.63
  -5 -14   0    0.99    0.45
   5 -15   0    3.37    0.97
   4 -15   0   10.32    1.60
   3 -15   0    0.05    0.16
   2 -15   0    2.65    0.84
   1 -15   0    1.20    0.56
   0 -15   0    1.50    0.63
  -1 -15   0    2.53    0.83
  -2 -15   0    7.76    1.28
  -1 -15   1    0.36    0.29
   0 -15   1    5.48    1.22
   1 -15   1    4.61    1.05
   2 -15   1    5.75    1.28
   3 -15   1    7.64    1.47
   4 -15   1    2.22    0.74
  -4 -14   1    3.90    0.90
  -3 -14   1    2.00    0.70
  -2 -14   1    7.27    1.36
  -1 -14   1    5.89    1.26
   0 -14   1   12.36    1.71
   2 -14   1    0.07    0.20
   3 -14   1    6.27    1.28
   4 -14   1    0.95    0.53
   5 -14   1    3.67    1.24
   6 -14   1    2.40    0.87
   7 -14   1    0.05    0.20
  -6 -13   1    4.66    1.09
  -5 -13   1    2.27    0.65
  -4 -13   1   27.90    2.17
  -3 -13   1    0.31    0.40
  -2 -13   1    2.11    0.71
  -1 -13   1    7.25    1.19
   0 -13   1    3.32    0.80
   1 -13   1    4.40    0.99
   2 -13   1    3.25    0.87
   3 -13   1    2.82    0.74
   4 -13   1    0.35    0.35
   5 -13   1    5.72    1.15
   6 -13   1    2.17    0.69
   7 -13   1    0.49    0.40
   8 -13   1    8.57    1.50
  -7 -12   1    2.59    0.84
  -6 -12   1    1.46    0.58
  -5 -12   1    9.25    1.39
  -4 -12   1   10.63    1.49
  -3 -12   1    2.23    0.70
  -2 -12   1    3.19    0.87
   1  12  -1   11.54    1.73
  -1 -12   1   13.79    1.37
  -1 -12   1   12.10    2.25
   0  12  -1    0.46    0.83
   0 -12   1    0.40    0.31
   0 -12   1    0.06    1.38
  -1  12  -1    4.25    1.21
   1 -12   1    6.28    1.62
   1 -12   1    5.04    0.96
  -2  12  -1    2.13    0.97
   2 -12   1    2.76    0.75
   2 -12   1    3.99    1.48
  -3  12  -1    4.12    1.16
   3 -12   1    4.40    1.54
   3 -12   1    3.85    0.88
  -4  12  -1    8.17    1.46
  -4  12  -1    7.64    1.17
   4 -12   1    7.07    1.76
   4 -12   1    7.97    1.21
  -5  12  -1   81.59    4.21
   5 -12   1   77.84    4.74
   5 -12   1   89.77    4.40
  -6  12  -1   31.53    2.38
   6 -12   1   35.70    2.50
   6 -12   1   38.10    3.10
  -7  12  -1    2.66    0.75
   7 -12   1    2.81    1.70
   7 -12   1    3.11    0.81
  -8  12  -1    7.66    1.41
   8 -12   1    5.76    1.88
   8 -12   1    8.35    1.44
  -9  12  -1   53.97    3.66
   9 -12   1   68.20    3.88
 -10  12  -1    6.32    1.43
  -8 -11   1   17.43    1.65
  -7 -11   1    0.37    0.27
  -6 -11   1    0.24    0.25
  -5 -11   1   14.55    1.45
  -4 -11   1    2.39    0.66
  -4 -11   1    2.95    1.39
   3  11  -1    8.13    1.41
  -3 -11   1    8.71    1.94
  -3 -11   1    6.69    1.16
   2  11  -1    2.43    0.96
  -2 -11   1    3.58    0.82
  -2 -11   1    0.79    2.55
   1  11  -1   20.27    1.74
  -1 -11   1   18.61    2.40
  -1 -11   1   18.04    1.56
   0  11  -1    4.22    0.96
   0  11  -1    3.11    0.87
   0 -11   1    3.11    1.40
   0 -11   1    4.80    0.93
  -1  11  -1   90.11    4.16
  -1  11  -1   87.90    4.31
   1 -11   1   95.79    4.45
   1 -11   1   94.08    5.04
  -2  11  -1   78.34    3.76
  -2  11  -1   70.30    3.49
   2 -11   1   66.48    4.27
   2 -11   1   71.21    4.20
  -3  11  -1    1.57    0.47
  -3  11  -1    1.39    0.79
   3 -11   1    2.03    0.66
   3 -11   1    0.98    1.09
  -4  11  -1    8.61    1.23
  -4  11  -1   12.11    1.56
   4 -11   1    7.71    1.31
   4 -11   1    5.81    1.32
  -5  11  -1   96.18    4.66
  -5  11  -1  101.44    4.88
   5 -11   1  101.87    5.13
   5 -11   1  103.81    5.56
  -6  11  -1   25.51    2.27
  -6  11  -1   28.65    2.09
   6 -11   1   25.01    2.54
  -7  11  -1    2.07    0.71
   7 -11   1    1.54    0.55
   7 -11   1    0.71    1.21
  -8  11  -1    3.17    1.05
   8 -11   1    2.71    1.44
   8 -11   1    2.11    0.73
  -9  11  -1    2.29    0.81
   9 -11   1    1.55    0.67
 -10  11  -1    0.88    0.52
  10 -11   1    1.04    0.53
 -11  11  -1    1.00    0.73
  -9 -10   1    5.26    1.09
  -8 -10   1    2.19    0.68
  -7 -10   1    2.15    0.65
  -7 -10   1    3.40    1.83
  -6 -10   1    0.56    1.39
  -6 -10   1    0.36    0.24
   5  10  -1   20.37    2.01
  -5 -10   1   25.57    2.89
  -5 -10   1   19.03    1.67
  -4 -10   1    3.67    1.33
  -4 -10   1    3.01    0.70
   3  10  -1   41.47    2.61
  -3 -10   1   42.61    3.08
  -3 -10   1   42.50    2.56
   2  10  -1   87.29    4.00
  -2 -10   1   78.19    4.53
  -2 -10   1   80.31    3.95
   1  10  -1    5.06    0.96
   1  10  -1    5.96    0.85
  -1 -10   1    4.71    1.25
  -1 -10   1    4.60    0.81
  -1 -10   1    3.54    0.58
   0  10  -1    3.72    0.76
   0  10  -1    4.86    0.94
   0 -10   1    2.15    0.92
   0 -10   1    2.51    0.60
   0 -10   1    2.84    0.68
  -1  10  -1  134.87    5.64
  -1  10  -1  146.59    5.86
   1 -10   1  145.27    5.97
   1 -10   1  132.66    6.35
  -2  10  -1   66.27    3.41
  -2  10  -1   71.14    3.29
   2 -10   1   69.16    3.89
   2 -10   1   67.60    3.45
  -3  10  -1    0.85    0.71
   3 -10   1    0.84    0.79
  -4  10  -1    1.65    0.70
  -4  10  -1    1.40    0.46
   4 -10   1    0.98    0.44
   4 -10   1    1.31    0.96
  -5  10  -1    3.46    0.71
  -5  10  -1    5.02    1.01
   5 -10   1    5.34    1.19
   5 -10   1    2.93    0.69
  -6  10  -1    1.36    0.90
  -6  10  -1    2.18    0.65
   6 -10   1    2.05    1.05
   6 -10   1    1.78    0.62
  -7  10  -1    4.60    1.38
  -7  10  -1    2.95    0.74
   7 -10   1    3.75    0.85
   7 -10   1    4.90    1.29
  -8  10  -1   10.16    1.59
  -8  10  -1   10.30    1.71
   8 -10   1    7.33    1.29
   8 -10   1    6.93    1.45
  -9  10  -1    1.45    0.59
   9 -10   1    2.89    1.31
   9 -10   1    2.11    0.74
 -10  10  -1    0.12    0.20
 -11  10  -1    4.01    0.94
 -12  10  -1    1.04    0.54
 -10  -9   1    0.68    0.40
  -9  -9   1   15.47    3.57
  -9  -9   1   16.07    1.57
  -8  -9   1    5.23    1.09
  -7  -9   1   11.92    1.52
  -7  -9   1    8.24    1.80
   6   9  -1   43.37    2.92
  -6  -9   1   51.01    2.88
  -6  -9   1   46.22    3.27
   5   9  -1    2.48    0.90
  -5  -9   1    2.99    1.13
  -5  -9   1    3.22    0.72
  -5  -9   1    2.92    0.75
   4   9  -1    0.82    0.65
  -4  -9   1    1.07    0.49
  -4  -9   1    1.46    0.41
  -4  -9   1    2.48    1.15
   3   9  -1   72.11    3.32
   3   9  -1   76.42    3.64
  -3  -9   1   80.56    3.75
  -3  -9   1   75.61    4.12
  -3  -9   1   71.67    3.26
   2   9  -1  108.45    4.70
   2   9  -1  106.64    4.46
  -2  -9   1  108.84    4.79
  -2  -9   1  107.68    4.56
  -2  -9   1  109.61    5.30
   1   9  -1    1.99    0.49
   1   9  -1    2.64    0.73
  -1  -9   1    1.92    0.93
  -1  -9   1    2.01    0.56
  -1  -9   1    2.00    0.43
   0   9  -1    0.50    0.48
   0  -9   1   -0.10    0.66
   0  -9   1    0.40    0.20
   0  -9   1    0.46    0.28
  -1   9  -1    0.88    0.32
  -1   9  -1    0.98    0.46
   1  -9   1    0.46    0.20
   1  -9   1    1.27    0.40
   1  -9   1    1.54    0.75
  -2   9  -1    0.92    0.36
  -2   9  -1    0.30    0.45
   2  -9   1    0.98    0.40
   2  -9   1    1.85    0.83
  -3   9  -1   25.21    1.81
  -3   9  -1   32.72    2.04
   3  -9   1   23.23    2.06
   3  -9   1   30.34    2.13
  -4   9  -1    9.93    0.98
  -4   9  -1   11.07    1.14
   4  -9   1   11.36    1.57
   4  -9   1   11.78    1.12
  -5   9  -1    0.37    0.60
  -5   9  -1    0.50    0.28
   5  -9   1    0.04    0.11
   5  -9   1    0.62    0.67
  -6   9  -1    2.86    0.93
  -6   9  -1    3.45    0.82
   6  -9   1    5.41    1.24
   6  -9   1    3.55    0.81
  -7   9  -1    7.53    1.27
  -7   9  -1    7.89    1.25
   7  -9   1    9.23    1.37
  -8   9  -1    0.22    0.22
  -8   9  -1    0.25    1.05
   8  -9   1    0.44    0.32
   8  -9   1    0.56    0.91
  -9   9  -1   29.16    2.56
   9  -9   1   28.41    2.20
   9  -9   1   27.27    2.11
 -10   9  -1    7.44    1.38
  10  -9   1    5.07    1.08
 -11   9  -1    1.98    0.72
 -12   9  -1    2.14    0.92
 -11  -8   1    0.34    0.31
 -10  -8   1   15.94    1.58
  -9  -8   1    3.24    1.74
  -9  -8   1    1.92    0.62
  -8  -8   1    0.60    0.36
  -8  -8   1    0.26    1.35
   7   8  -1   26.64    2.16
  -7  -8   1   22.62    2.38
  -7  -8   1   23.94    1.85
   6   8  -1   84.47    4.14
  -6  -8   1   80.30    3.73
  -6  -8   1   85.24    4.37
  -6  -8   1   92.86    4.24
   5   8  -1    0.39    0.64
  -5  -8   1   -0.24    0.82
  -5  -8   1    0.01    0.10
  -5  -8   1   -0.01    0.06
   4   8  -1    6.03    0.77
   4   8  -1    6.31    1.06
  -4  -8   1    8.13    1.41
  -4  -8   1    5.67    0.74
  -4  -8   1    6.23    0.94
   3   8  -1    5.68    0.89
   3   8  -1    4.40    0.65
  -3  -8   1    4.39    0.76
  -3  -8   1    3.68    0.97
   2   8  -1    0.17    0.44
   2   8  -1    0.20    0.14
  -2  -8   1   -0.24    0.78
  -2  -8   1    0.05    0.07
  -2  -8   1    0.01    0.10
   1   8  -1   58.02    2.74
   1   8  -1   55.57    2.55
  -1  -8   1   52.03    2.46
  -1  -8   1   54.53    3.16
  -1  -8   1   55.92    2.80
   0   8  -1    0.16    0.13
   0   8  -1    0.09    0.35
   0  -8   1    0.30    0.21
   0  -8   1    0.03    0.07
   0  -8   1    0.35    0.60
  -1   8  -1    2.89    0.54
  -1   8  -1    2.80    0.66
   1  -8   1    2.77    0.85
   1  -8   1    2.14    0.53
   1  -8   1    2.28    0.50
  -2   8  -1   17.02    1.19
  -2   8  -1   17.51    1.34
   2  -8   1   17.78    1.57
   2  -8   1   18.37    1.34
  -3   8  -1    4.46    0.70
  -3   8  -1    3.38    0.67
   3  -8   1    2.98    0.64
   3  -8   1    2.71    0.86
  -4   8  -1    1.17    0.58
  -4   8  -1    1.57    1.18
  -4   8  -1    1.59    0.43
   4  -8   1    1.53    0.68
   4  -8   1    1.71    0.49
  -5   8  -1   36.44    2.69
  -5   8  -1   37.81    2.12
  -5   8  -1   33.63    2.13
   5  -8   1   35.43    2.29
   5  -8   1   38.03    2.19
  -6   8  -1   35.62    2.29
  -6   8  -1   39.37    2.29
  -6   8  -1   39.42    2.69
   6  -8   1   36.65    2.28
   6  -8   1   40.37    2.33
  -7   8  -1    2.56    0.84
  -7   8  -1    3.75    1.33
  -7   8  -1    2.85    0.72
   7  -8   1    2.82    0.74
   7  -8   1    2.73    0.78
  -8   8  -1    3.65    1.35
  -8   8  -1    1.34    0.46
  -8   8  -1    1.81    0.97
   8  -8   1    3.54    0.86
   8  -8   1    1.79    0.55
  -9   8  -1    0.34    0.26
  -9   8  -1   -0.25    1.02
   9  -8   1    0.38    0.25
   9  -8   1   -0.14    0.79
 -10   8  -1    2.77    0.84
 -10   8  -1    2.42    1.22
  10  -8   1    3.89    0.95
 -11   8  -1    0.97    0.50
 -12   8  -1   22.40    2.10
 -13   8  -1    0.23    0.27
 -11  -7   1    1.78    0.61
  -9  -7   1    1.46    1.35
  -9  -7   1    0.43    0.31
   8   7  -1    5.35    1.17
  -8  -7   1    6.22    1.39
  -8  -7   1    9.76    1.35
   7   7  -1    0.81    0.80
  -7  -7   1    1.71    0.59
  -7  -7   1    1.12    0.34
  -7  -7   1   -0.45    0.90
   6   7  -1   -0.29    0.67
  -6  -7   1    0.96    0.40
  -6  -7   1    0.35    0.21
   5   7  -1   37.92    2.02
   5   7  -1   44.97    2.39
  -5  -7   1   38.84    2.31
  -5  -7   1   39.49    2.01
  -5  -7   1   42.72    2.63
   4   7  -1    4.76    0.73
   4   7  -1    4.27    0.85
  -4  -7   1    4.22    0.66
  -4  -7   1    4.08    0.79
  -4  -7   1    4.42    0.98
   3   7  -1    6.92    0.93
   3   7  -1    8.59    0.72
  -3  -7   1    8.90    1.31
  -3  -7   1   10.28    1.29
   2   7  -1   17.62    1.10
   2   7  -1   18.30    1.86
   2   7  -1   16.82    1.23
  -2  -7   1   17.51    1.48
  -2  -7   1   16.35    1.24
  -2  -7   1   16.75    1.06
  -2  -7   1   18.76    1.59
   1   7  -1    1.12    0.41
   1   7  -1    0.58    0.86
   1   7  -1    0.74    0.26
  -1  -7   1    1.34    0.62
  -1  -7   1    0.90    0.50
  -1  -7   1    1.68    0.47
  -1  -7   1    1.71    0.41
   0   7  -1    2.34    0.84
   0   7  -1    4.45    0.71
   0   7  -1    2.95    0.44
   0  -7   1    4.43    0.71
   0  -7   1    2.49    0.75
   0  -7   1    2.73    0.49
  -1   7  -1   31.64    2.28
  -1   7  -1   32.06    1.63
  -1   7  -1   30.41    1.69
   1  -7   1   32.69    1.72
   1  -7   1   29.56    1.56
   1  -7   1   27.05    1.98
   1  -7   1   30.30    1.75
  -2   7  -1  153.37    6.67
  -2   7  -1  171.00    6.18
  -2   7  -1  156.41    6.02
   2  -7   1  157.82    6.51
   2  -7   1  160.08    6.05
   2  -7   1  160.28    6.23
  -3   7  -1    0.83    0.30
  -3   7  -1    0.71    0.39
   3  -7   1    0.45    0.46
   3  -7   1    0.68    0.52
  -4   7  -1    0.13    0.13
  -4   7  -1    0.08    0.39
  -4   7  -1    0.87    0.75
   4  -7   1    0.14    0.46
   4  -7   1    0.05    0.10
   4  -7   1    0.06    0.47
  -5   7  -1    0.85    0.35
  -5   7  -1    1.38    0.51
  -5   7  -1    1.82    0.80
   5  -7   1    0.89    0.39
   5  -7   1    1.21    0.55
  -6   7  -1   16.11    1.30
  -6   7  -1   18.50    1.75
   6  -7   1   17.79    1.40
   6  -7   1   18.70    1.53
  -7   7  -1    0.45    0.26
  -7   7  -1    0.45    0.59
  -7   7  -1    0.12    0.84
   7  -7   1    0.99    0.57
  -8   7  -1   41.22    2.52
  -8   7  -1   42.40    2.51
  -8   7  -1   43.46    2.66
   8  -7   1   39.34    2.68
   8  -7   1   47.05    2.32
  -9   7  -1    5.96    1.00
  -9   7  -1    7.38    1.29
  -9   7  -1    6.94    1.29
   9  -7   1    7.84    0.93
   9  -7   1    8.66    1.17
 -10   7  -1   11.01    1.61
 -10   7  -1   12.79    1.59
 -10   7  -1   14.06    1.42
  10  -7   1   13.49    1.36
 -11   7  -1    2.86    0.84
 -12   7  -1    5.65    1.19
 -13   7  -1    3.95    1.07
 -12  -6   1    3.46    0.89
 -11  -6   1    0.97    0.50
 -10  -6   1    1.61    0.59
   9   6  -1    9.33    1.52
  -9  -6   1   12.21    1.56
  -9  -6   1   12.68    1.62
   8   6  -1   20.87    1.85
  -8  -6   1   15.87    1.25
  -8  -6   1   20.29    1.63
  -8  -6   1   18.24    1.80
   7   6  -1    7.92    1.17
  -7  -6   1    6.77    1.22
  -7  -6   1    8.84    1.23
  -7  -6   1    8.30    0.82
   6   6  -1    3.29    0.78
   6   6  -1    3.77    0.60
   6   6  -1    5.23    1.29
  -6  -6   1    3.96    0.65
  -6  -6   1    4.54    0.95
  -6  -6   1    3.59    0.73
   5   6  -1    0.75    0.28
   5   6  -1    2.14    1.02
  -5  -6   1    0.16    0.55
  -5  -6   1    1.05    0.32
  -5  -6   1    0.57    0.25
   4   6  -1   -0.38    0.78
   4   6  -1    0.09    0.10
   4   6  -1   -0.09    0.39
  -4  -6   1    3.43    0.81
  -4  -6   1   -0.02    0.05
  -4  -6   1    0.04    0.06
   3   6  -1    1.15    0.45
   3   6  -1    1.77    0.39
  -3  -6   1    2.13    0.67
  -3  -6   1    1.45    0.50
  -3  -6   1    1.42    0.39
   2   6  -1  131.38    5.01
   2   6  -1  135.09    5.74
   2   6  -1  137.73    5.19
  -2  -6   1  135.54    5.01
  -2  -6   1  128.66    5.41
  -2  -6   1  137.89    5.33
  -2  -6   1  132.61    5.62
   1   6  -1   14.05    0.88
   1   6  -1   12.04    1.28
   1   6  -1   14.14    0.99
  -1  -6   1   14.58    0.88
  -1  -6   1   13.75    1.24
  -1  -6   1   13.66    1.02
  -1  -6   1   13.39    1.01
   0   6  -1    4.38    0.58
   0   6  -1    4.51    0.90
   0   6  -1    2.86    0.47
   0  -6   1    3.30    0.53
   0  -6   1    3.82    0.71
   0  -6   1    3.19    0.57
  -1   6  -1    1.69    0.38
  -1   6  -1    0.85    0.23
  -1   6  -1    1.46    0.62
   1  -6   1    1.12    0.39
   1  -6   1    0.72    0.24
   1  -6   1    1.31    0.49
   1  -6   1    1.84    0.37
  -2   6  -1   28.24    1.92
  -2   6  -1   28.24    1.47
  -2   6  -1   27.47    1.53
   2  -6   1   29.31    1.80
   2  -6   1   28.77    1.60
   2  -6   1   28.70    1.53
  -3   6  -1    0.56    0.27
  -3   6  -1    1.71    0.48
  -3   6  -1    0.91    0.62
   3  -6   1    0.61    0.23
   3  -6   1    0.69    0.35
   3  -6   1    0.10    0.35
  -4   6  -1   53.63    2.42
  -4   6  -1   49.37    2.40
  -4   6  -1   52.32    2.71
   4  -6   1   45.96    2.57
   4  -6   1   51.44    2.54
   4  -6   1   50.76    2.47
  -5   6  -1   49.28    2.60
  -5   6  -1   49.03    2.48
  -5   6  -1   49.67    2.43
   5  -6   1   48.51    2.40
   5  -6   1   51.96    2.50
  -6   6  -1   37.82    2.14
  -6   6  -1   39.82    2.25
  -6   6  -1   40.19    2.23
   6  -6   1   42.74    2.11
   6  -6   1   39.36    2.17
  -7   6  -1   18.76    1.57
  -7   6  -1   22.53    2.46
  -7   6  -1   22.04    1.53
   7  -6   1   19.18    1.33
   7  -6   1   25.42    1.88
  -8   6  -1    9.08    1.12
  -8   6  -1    7.30    1.15
  -8   6  -1   10.64    1.07
   8  -6   1   10.36    1.33
  -9   6  -1    7.87    0.94
  -9   6  -1    4.93    1.07
  -9   6  -1    6.47    0.80
  -9   6  -1    8.47    1.34
   9  -6   1    4.60    0.88
 -10   6  -1   63.47    3.64
 -10   6  -1   62.40    3.48
  10  -6   1   60.91    3.35
 -11   6  -1    0.63    0.36
 -11   6  -1    0.20    1.24
 -12   6  -1    1.33    0.56
 -14   6  -1    5.10    1.25
 -12  -5   1    9.52    1.47
 -11  -5   1    3.05    0.87
  10   5  -1   -1.43    1.19
 -10  -5   1    0.03    0.13
   9   5  -1    1.12    0.99
  -9  -5   1    0.25    0.25
  -9  -5   1   -0.33    0.83
   8   5  -1    0.25    1.30
   8   5  -1    0.91    0.69
  -8  -5   1    0.31    0.20
  -8  -5   1    0.02    0.08
  -8  -5   1    0.49    0.75
   7   5  -1    1.71    0.43
   7   5  -1    4.17    0.92
  -7  -5   1    2.31    0.45
  -7  -5   1    3.45    0.82
  -7  -5   1    1.84    0.51
   6   5  -1   65.03    3.57
   6   5  -1   66.30    2.98
  -6  -5   1   71.21    3.36
  -6  -5   1   72.14    3.03
  -6  -5   1   72.68    3.37
   5   5  -1   41.74    2.11
   5   5  -1   38.59    2.45
   5   5  -1   37.91    1.86
  -5  -5   1   37.88    1.86
  -5  -5   1   37.08    2.21
  -5  -5   1   38.05    2.12
   4   5  -1    5.29    0.96
   4   5  -1    4.83    0.96
   4   5  -1    4.28    0.67
   4   5  -1    3.99    0.53
  -4  -5   1    3.47    0.53
  -4  -5   1    3.95    0.74
  -4  -5   1    3.97    0.69
  -4  -5   1    4.50    0.71
   3   5  -1    0.29    0.13
   3   5  -1    1.04    0.60
   3   5  -1    0.59    0.29
  -3  -5   1    0.16    0.31
  -3  -5   1    0.37    0.19
  -3  -5   1    0.52    0.44
   2   5  -1   36.71    2.15
   2   5  -1   36.48    1.67
   2   5  -1   36.66    1.79
  -2  -5   1   40.18    2.28
  -2  -5   1   37.62    1.68
  -2  -5   1   35.87    2.08
  -2  -5   1   36.75    1.80
   1   5  -1    0.23    0.13
   1   5  -1   -0.02    0.21
   1   5  -1    0.91    0.50
  -1  -5   1    0.38    0.36
  -1  -5   1    0.16    0.13
  -1  -5   1   -0.21    0.24
  -1  -5   1    0.27    0.12
   0   5  -1    2.28    0.44
   0   5  -1    2.74    0.63
   0   5  -1    2.04    0.33
   0  -5   1    2.14    0.35
   0  -5   1    2.02    0.39
   0  -5   1    2.33    0.42
   0  -5   1    2.18    0.55
  -1   5  -1   66.04    3.18
  -1   5  -1   69.13    2.82
   1  -5   1   70.17    2.73
   1  -5   1   70.28    2.78
   1  -5   1   66.66    3.09
   1  -5   1   65.14    2.86
  -2   5  -1   45.21    2.03
  -2   5  -1   41.74    2.05
  -2   5  -1   44.87    2.41
   2  -5   1   47.01    2.35
   2  -5   1   46.43    2.07
   2  -5   1   58.06    2.50
  -3   5  -1   64.05    2.98
  -3   5  -1   67.91    2.69
  -3   5  -1   62.18    2.69
   3  -5   1   62.55    2.84
   3  -5   1   57.07    2.61
   3  -5   1   63.28    2.75
  -4   5  -1   12.60    0.90
  -4   5  -1   12.45    1.12
  -4   5  -1   12.67    0.97
   4  -5   1   13.83    0.98
  -5   5  -1   10.36    0.94
  -5   5  -1    7.66    0.98
  -5   5  -1    7.68    0.82
   5  -5   1    7.87    0.74
   5  -5   1    6.83    0.73
   5  -5   1    7.44    0.82
  -6   5  -1  241.60    8.92
  -6   5  -1  241.06    8.73
   6  -5   1  247.24    8.89
   6  -5   1  240.10    8.61
   6  -5   1  230.18    8.79
  -7   5  -1   25.69    1.67
  -7   5  -1   24.88    1.74
  -7   5  -1   27.31    1.62
   7  -5   1   32.82    2.00
   7  -5   1   25.93    1.41
  -8   5  -1    1.04    0.54
  -8   5  -1    0.22    0.53
  -8   5  -1    0.73    0.32
   8  -5   1    1.04    0.36
   8  -5   1    0.33    0.34
  -9   5  -1    0.53    0.26
  -9   5  -1    0.62    0.71
   9  -5   1    0.51    0.27
 -10   5  -1   18.67    1.95
  10  -5   1   20.07    1.58
 -11   5  -1    0.27    1.21
 -11   5  -1    0.12    0.18
 -12   5  -1    9.41    1.56
 -13   5  -1   11.78    1.74
 -14   5  -1    0.49    0.36
 -13  -4   1    0.63    0.38
 -12  -4   1   -0.05    0.09
 -11  -4   1    6.06    1.19
  10   4  -1    9.53    1.55
 -10  -4   1   10.43    1.11
 -10  -4   1   11.86    1.54
   9   4  -1   19.76    2.13
   9   4  -1   24.08    1.98
  -9  -4   1   21.80    1.80
  -9  -4   1   26.80    1.66
  -9  -4   1   20.63    1.72
   8   4  -1    1.01    0.67
   8   4  -1    1.86    1.11
   8   4  -1    1.02    0.38
  -8  -4   1    1.17    0.35
  -8  -4   1    1.50    0.67
   7   4  -1    1.96    0.90
   7   4  -1    1.51    0.39
   7   4  -1    1.31    0.54
  -7  -4   1    0.59    0.29
  -7  -4   1    1.24    0.59
  -7  -4   1    1.44    0.42
   6   4  -1   11.50    1.08
   6   4  -1   11.44    0.87
   6   4  -1   12.83    1.43
  -6  -4   1   11.75    0.88
  -6  -4   1   11.13    1.03
  -6  -4   1   11.84    1.11
   5   4  -1    2.21    0.76
   5   4  -1    2.74    0.67
   5   4  -1    2.58    0.49
   5   4  -1    2.71    0.59
  -5  -4   1    1.67    0.35
  -5  -4   1    2.67    0.60
  -5  -4   1    1.59    0.51
   4   4  -1   13.77    1.27
   4   4  -1   11.78    0.91
   4   4  -1   12.36    0.81
   4   4  -1   13.01    1.15
  -4  -4   1   11.61    0.94
  -4  -4   1   12.36    1.07
   3   4  -1   37.94    1.68
   3   4  -1   36.52    2.09
   3   4  -1   36.80    1.78
  -3  -4   1   40.15    1.91
  -3  -4   1   38.29    2.02
  -3  -4   1   35.85    1.78
   2   4  -1   30.30    1.36
   2   4  -1   29.18    1.44
   2   4  -1   29.27    1.74
  -2  -4   1   30.20    1.36
  -2  -4   1   28.35    1.45
  -2  -4   1   29.02    1.51
   1   4  -1  123.53    4.95
   1   4  -1  124.23    4.57
  -1  -4   1  121.44    4.91
  -1  -4   1  125.21    4.57
   0   4  -1   23.30    1.45
   0   4  -1   23.04    1.17
   0   4  -1   22.54    1.11
   0  -4   1   22.97    1.16
   0  -4   1   24.37    1.26
   0  -4   1   25.06    1.12
   0  -4   1   23.59    1.42
  -1   4  -1    6.19    0.85
  -1   4  -1    4.55    0.46
   1  -4   1    4.57    0.46
   1  -4   1    3.89    0.37
   1  -4   1    4.57    0.68
   1  -4   1    6.92    0.95
  -2   4  -1  590.45   19.48
  -2   4  -1  562.88   19.74
   2  -4   1  577.41   19.69
   2  -4   1  565.44   19.43
  -3   4  -1  292.90   10.12
  -3   4  -1  295.14   10.56
   3  -4   1  286.81   10.18
   3  -4   1  276.29   10.02
  -4   4  -1    0.17    0.25
  -4   4  -1    0.13    0.10
  -4   4  -1    0.34    0.33
   4  -4   1    0.20    0.12
   4  -4   1    0.32    0.26
   4  -4   1    0.40    0.28
  -5   4  -1    0.20    0.36
  -5   4  -1    0.25    0.18
  -5   4  -1    0.10    0.23
   5  -4   1    0.39    0.37
   5  -4   1    0.17    0.14
   5  -4   1    0.65    0.30
  -6   4  -1   53.68    2.36
  -6   4  -1   55.15    2.62
   6  -4   1   53.70    2.53
   6  -4   1   55.17    2.27
  -7   4  -1   12.92    0.90
  -7   4  -1   12.12    1.18
  -7   4  -1   12.40    1.05
   7  -4   1   12.80    1.22
   7  -4   1   13.07    1.04
   7  -4   1   13.90    0.81
  -8   4  -1   13.81    1.17
  -8   4  -1   13.63    1.32
   8  -4   1   13.46    1.11
  -9   4  -1   65.28    3.40
  -9   4  -1   63.96    3.27
 -10   4  -1    0.42    0.26
 -10   4  -1    0.09    0.84
  10  -4   1    0.76    0.32
 -11   4  -1    1.84    1.25
 -11   4  -1    3.16    0.78
 -12   4  -1    2.39    0.72
 -12   4  -1    2.70    2.16
 -13   4  -1    0.13    0.20
 -14   4  -1    0.45    0.42
 -13  -3   1   11.81    1.66
 -12  -3   1    0.32    0.37
  11   3  -1    1.38    1.88
  10   3  -1    0.50    1.04
 -10  -3   1    1.59    0.57
   9   3  -1    4.99    1.06
   9   3  -1    2.02    1.09
  -9  -3   1    3.70    0.67
  -9  -3   1    3.62    0.81
  -9  -3   1    3.95    0.76
   8   3  -1   18.18    1.61
   8   3  -1   17.35    1.61
   8   3  -1   18.74    1.27
  -8  -3   1   19.51    1.54
  -8  -3   1   20.16    1.28
  -8  -3   1   16.98    1.26
   7   3  -1    1.47    0.59
   7   3  -1    0.80    0.28
   7   3  -1   -0.01    0.68
  -7  -3   1    0.09    0.48
  -7  -3   1    0.94    0.39
  -7  -3   1    1.35    0.41
   6   3  -1   11.24    1.29
   6   3  -1    7.57    0.99
   6   3  -1    9.13    1.08
   6   3  -1    9.50    0.75
  -6  -3   1   10.93    0.95
  -6  -3   1    7.32    0.98
   5   3  -1   84.70    3.73
   5   3  -1   89.15    3.63
   5   3  -1   83.97    3.45
   5   3  -1   85.18    3.77
  -5  -3   1   90.77    3.64
  -5  -3   1   87.43    3.75
   4   3  -1    4.14    0.68
   4   3  -1    4.18    0.55
   4   3  -1    4.39    0.43
   4   3  -1    3.53    0.64
  -4  -3   1    4.13    0.61
  -4  -3   1    3.68    0.65
   3   3  -1    7.02    0.84
   3   3  -1    6.70    0.50
   3   3  -1    6.00    0.56
   3   3  -1    8.13    0.94
  -3  -3   1    5.48    0.56
  -3  -3   1    6.64    0.60
  -3  -3   1    6.95    0.72
   2   3  -1  410.36   14.32
  -2  -3   1  420.67   14.34
  -2  -3   1  431.76   14.64
   1   3  -1  520.92   17.55
   1   3  -1  524.80   17.89
  -1  -3   1  504.02   17.84
  -1  -3   1  530.47   17.55
   0   3  -1   21.68    1.30
   0   3  -1   22.46    1.08
   0  -3   1   25.20    1.32
   0  -3   1   24.64    1.09
   0  -3   1   21.91    1.02
  -1   3  -1    0.75    0.30
  -1   3  -1    0.43    0.16
  -1   3  -1    0.66    0.20
  -1   3  -1    1.20    0.29
   1  -3   1    0.40    0.12
   1  -3   1    0.73    0.25
   1  -3   1    0.52    0.17
  -2   3  -1  247.04    9.03
  -2   3  -1  263.52    8.88
   2  -3   1  253.60    8.99
   2  -3   1  258.28    8.84
  -3   3  -1   37.07    1.73
  -3   3  -1   37.96    1.67
  -3   3  -1   37.21    1.70
  -3   3  -1   36.15    1.62
   3  -3   1   36.52    1.65
   3  -3   1   36.58    1.67
   3  -3   1   36.91    1.68
  -4   3  -1   22.71    1.69
  -4   3  -1   20.05    1.08
  -4   3  -1   17.55    1.04
  -4   3  -1   17.52    1.08
   4  -3   1   18.38    1.08
   4  -3   1   20.20    1.03
  -5   3  -1  277.77    9.54
  -5   3  -1  264.41    9.80
  -5   3  -1  290.12    9.87
   5  -3   1  276.17    9.47
   5  -3   1  267.05    9.76
  -6   3  -1   17.90    1.22
  -6   3  -1   20.51    1.01
  -6   3  -1   19.41    1.31
   6  -3   1   19.28    1.28
   6  -3   1   19.06    1.20
   6  -3   1   19.88    0.92
  -7   3  -1    0.63    0.28
  -7   3  -1    0.82    0.29
  -7   3  -1    0.45    0.45
   7  -3   1    0.46    0.24
   7  -3   1    1.69    0.60
  -8   3  -1   10.65    1.28
  -8   3  -1    8.89    0.92
  -8   3  -1    9.35    0.93
   8  -3   1    9.21    0.88
  -9   3  -1    2.23    0.53
  -9   3  -1    1.95    0.48
  -9   3  -1    2.53    0.81
   9  -3   1    2.14    0.54
 -10   3  -1    1.51    0.91
 -10   3  -1    1.49    0.53
  10  -3   1    1.77    0.54
 -11   3  -1   38.52    2.46
 -11   3  -1   31.64    2.58
 -12   3  -1   86.67    4.32
 -12   3  -1   73.68    4.44
 -13   3  -1    7.75    1.25
 -14   3  -1    1.80    0.63
 -13  -2   1    2.49    0.78
 -12  -2   1    8.49    1.51
  11   2  -1    1.60    1.21
 -11  -2   1    2.23    0.71
  10   2  -1    1.90    0.93
 -10  -2   1    2.09    0.67
   9   2  -1   38.56    2.38
   9   2  -1   35.40    1.70
   9   2  -1   37.41    2.09
  -9  -2   1   37.35    1.50
  -9  -2   1   36.39    2.68
   8   2  -1    1.63    0.67
   8   2  -1    0.88    0.61
   8   2  -1    1.32    0.39
  -8  -2   1    1.05    0.41
  -8  -2   1    1.81    0.45
   7   2  -1    2.06    0.57
   7   2  -1    2.47    0.49
   7   2  -1    2.01    0.65
  -7  -2   1    2.55    0.65
  -7  -2   1    2.92    0.48
   6   2  -1  168.11    6.40
   6   2  -1  159.23    6.21
   6   2  -1  178.25    6.33
   6   2  -1  164.50    7.64
  -6  -2   1  168.11    6.14
  -6  -2   1  166.37    6.57
   5   2  -1  541.20   19.15
   5   2  -1  562.60   19.15
   5   2  -1  555.49   19.31
  -5  -2   1  573.80   19.07
   4   2  -1   15.31    0.89
   4   2  -1   16.42    1.12
   4   2  -1   15.32    0.98
   4   2  -1   16.98    1.11
  -4  -2   1   15.71    1.05
  -4  -2   1   14.82    0.99
   3   2  -1    5.31    0.69
   3   2  -1    5.07    0.56
   3   2  -1    4.94    0.42
   3   2  -1    5.66    0.49
  -3  -2   1    5.34    0.54
  -3  -2   1    5.08    0.42
  -3  -2   1    5.71    0.53
   2   2  -1  151.67    5.60
   2   2  -1  155.01    5.37
  -2  -2   1  155.14    5.57
  -2  -2   1  145.58    5.36
   1   2  -1  285.86    9.90
   1   2  -1  281.61    9.64
  -1  -2   1  283.73    9.88
  -1  -2   1  283.12    9.64
   0   2  -1    5.77    0.42
   0   2  -1    6.58    0.54
   0   2  -1    5.46    0.38
   0  -2   1    5.15    0.37
   0  -2   1    7.60    0.45
   0  -2   1    6.19    0.52
   0  -2   1    5.48    0.41
  -1   2  -1  237.44    8.41
  -1   2  -1  246.80    8.23
   1  -2   1  234.59    8.38
   1  -2   1  245.58    8.22
  -2   2  -1  180.71    6.19
  -2   2  -1  175.90    6.25
   2  -2   1  174.70    6.23
  -3   2  -1    1.68    0.29
  -3   2  -1    1.76    0.27
  -3   2  -1    2.30    0.36
  -3   2  -1    1.27    0.25
   3  -2   1    1.86    0.27
   3  -2   1    1.51    0.25
   3  -2   1    1.27    0.27
  -4   2  -1   61.61    2.47
  -4   2  -1   57.65    2.48
  -4   2  -1   62.27    2.27
  -4   2  -1   58.15    2.40
   4  -2   1   57.64    2.40
   4  -2   1   60.09    2.46
   4  -2   1   57.42    2.22
  -5   2  -1   29.18    1.52
  -5   2  -1   31.63    1.61
  -5   2  -1   28.86    1.50
  -5   2  -1   31.24    1.24
   5  -2   1   30.38    1.59
   5  -2   1   30.74    1.50
   5  -2   1   30.26    1.19
  -6   2  -1    0.82    0.34
  -6   2  -1    1.10    0.31
   6  -2   1    1.45    0.49
   6  -2   1    1.60    0.38
  -7   2  -1   25.85    1.52
  -7   2  -1   27.37    1.66
  -7   2  -1   22.82    1.46
   7  -2   1   22.94    1.57
   7  -2   1   25.94    1.47
  -8   2  -1  230.54    8.75
  -8   2  -1  234.53    8.92
   8  -2   1  237.81    8.68
  -9   2  -1   31.93    1.96
  -9   2  -1   31.56    1.99
  -9   2  -1   32.79    2.16
   9  -2   1   35.08    1.93
 -10   2  -1   -0.43    0.79
 -10   2  -1    1.31    0.46
 -10   2  -1    1.33    0.52
  10  -2   1    1.78    0.52
 -11   2  -1   17.39    1.53
 -11   2  -1   14.12    1.82
 -12   2  -1   30.14    2.21
 -12   2  -1   28.40    2.83
 -13   2  -1    0.54    0.37
 -14   2  -1    0.65    0.41
 -13  -1   1   10.18    1.60
 -12  -1   1    0.76    0.48
  11   1  -1    3.03    1.10
 -11  -1   1    4.86    1.13
  10   1  -1   39.87    2.63
 -10  -1   1   46.10    2.78
   9   1  -1  205.72    7.74
   9   1  -1  189.83    7.46
  -9  -1   1  180.83    7.45
  -9  -1   1  203.68    7.96
   8   1  -1   33.05    1.96
   8   1  -1   26.15    1.27
   8   1  -1   30.15    1.70
  -8  -1   1   28.28    1.17
  -8  -1   1   25.69    1.62
  -8  -1   1   27.60    1.87
   7   1  -1    2.50    0.51
   7   1  -1    3.15    0.67
   7   1  -1    1.65    0.71
   7   1  -1    2.71    0.53
  -7  -1   1    1.88    0.37
  -7  -1   1    3.15    0.70
  -7  -1   1    3.89    0.70
  -7  -1   1    2.41    0.75
   6   1  -1   65.65    2.70
   6   1  -1   65.66    2.91
   6   1  -1   63.23    2.78
   6   1  -1   64.89    3.03
  -6  -1   1   64.66    2.82
  -6  -1   1   65.84    2.59
  -6  -1   1   66.05    3.15
  -6  -1   1   64.30    3.03
   5   1  -1  162.36    6.13
   5   1  -1  156.97    5.88
   5   1  -1  163.53    6.03
  -5  -1   1  157.37    5.94
  -5  -1   1  165.89    6.27
  -5  -1   1  164.94    5.81
   4   1  -1    7.50    0.64
   4   1  -1    8.09    0.69
   4   1  -1    7.98    0.59
   4   1  -1    8.79    0.77
  -4  -1   1    8.27    0.70
  -4  -1   1    7.77    0.61
  -4  -1   1    8.17    0.59
  -4  -1   1    8.59    0.77
   3   1  -1   86.70    3.49
   3   1  -1   96.03    3.47
   3   1  -1   96.39    3.58
  -3  -1   1   90.05    3.57
  -3  -1   1   92.57    3.48
   2   1  -1  268.06    9.57
   2   1  -1  278.02    9.72
   2   1  -1  291.18    9.70
  -2  -1   1  288.08    9.71
   1   1  -1    0.28    0.09
   1   1  -1    0.25    0.15
   1   1  -1    0.30    0.09
   1   1  -1    0.25    0.08
  -1  -1   1    0.17    0.06
  -1  -1   1    0.50    0.12
  -1  -1   1    0.26    0.15
  -1  -1   1    0.50    0.15
   0   1  -1   28.60    1.14
   0   1  -1   34.87    1.30
   0  -1   1   30.41    1.31
   0  -1   1   28.48    1.13
  -1   1  -1    3.85    0.26
  -1   1  -1    4.13    0.28
  -1   1  -1    3.94    0.24
  -1   1  -1    4.34    0.34
   1  -1   1    3.34    0.30
   1  -1   1    5.69    0.40
   1  -1   1    3.49    0.25
   1  -1   1    3.49    0.23
  -2   1  -1    6.14    0.36
  -2   1  -1    4.81    0.35
  -2   1  -1    5.79    0.38
  -2   1  -1    6.66    0.42
   2  -1   1    5.80    0.35
   2  -1   1    5.83    0.37
   2  -1   1    5.78    0.37
  -3   1  -1    1.93    0.32
  -3   1  -1    2.62    0.36
  -3   1  -1    1.88    0.22
   3  -1   1    2.14    0.32
   3  -1   1    1.76    0.18
   3  -1   1    1.63    0.27
  -4   1  -1  273.75    9.89
   4  -1   1  293.59    9.91
  -5   1  -1  150.82    5.64
   5  -1   1  148.98    5.61
  -6   1  -1   10.77    0.93
  -6   1  -1    7.58    0.81
   6  -1   1    6.73    0.86
   6  -1   1    7.71    0.64
  -7   1  -1   21.97    1.37
  -7   1  -1   22.15    1.52
   7  -1   1   20.34    1.63
   7  -1   1   21.82    1.28
  -8   1  -1  121.59    5.01
  -8   1  -1  115.82    5.11
   8  -1   1  126.78    4.84
  -9   1  -1    1.80    0.46
  -9   1  -1    3.39    0.86
   9  -1   1    2.03    0.48
 -10   1  -1    1.03    0.43
 -10   1  -1    0.66    0.74
  10  -1   1    1.46    0.43
 -11   1  -1    0.29    0.25
 -11   1  -1    0.25    0.96
 -12   1  -1    3.82    0.93
 -12   1  -1    1.71    1.51
 -13   1  -1    4.37    1.01
 -14   1  -1    0.44    0.33
 -14   0   1    5.00    1.11
 -13   0   1   67.29    4.03
 -12   0   1   20.59    1.91
 -11   0   1    3.79    0.88
  10   0  -1   19.09    1.75
 -10   0   1   16.45    2.00
 -10   0   1   16.44    1.54
   9   0  -1   79.90    3.61
  -9   0   1   74.47    3.59
  -9   0   1   81.39    4.06
  -9   0   1   80.98    3.93
   8   0  -1    3.09    0.59
  -8   0   1    2.86    0.66
  -8   0   1    4.17    0.89
  -8   0   1    2.97    0.65
   7   0  -1    8.18    0.74
   7   0  -1    6.72    1.02
  -7   0   1    7.13    1.05
  -7   0   1    6.64    0.43
  -7   0   1    6.46    0.41
  -7   0   1    7.36    1.10
  -7   0   1    7.43    0.96
   6   0  -1   77.74    2.82
   6   0  -1   74.10    3.13
   6   0  -1   76.33    3.29
  -6   0   1   72.09    3.13
  -6   0   1   69.82    3.34
  -6   0   1   75.97    2.77
  -6   0   1   73.31    3.34
   5   0  -1    0.06    0.24
   5   0  -1   -0.48    0.31
   5   0  -1    0.14    0.10
  -5   0   1    0.08    0.30
  -5   0   1    0.00    0.05
  -5   0   1    0.01    0.06
  -5   0   1    0.28    0.20
   4   0  -1   35.42    1.62
   4   0  -1   37.63    1.57
   4   0  -1   38.38    1.76
  -4   0   1   35.18    1.76
  -4   0   1   34.74    1.75
  -4   0   1   36.32    1.52
  -4   0   1   33.81    1.62
   3   0  -1    4.06    0.44
   3   0  -1    3.61    0.38
   3   0  -1    2.30    0.31
  -3   0   1    2.91    0.37
  -3   0   1    4.34    0.45
  -3   0   1    4.29    0.37
  -3   0   1    3.67    0.36
   2   0  -1   26.93    1.16
   2   0  -1   26.89    1.19
   2   0  -1   27.04    1.19
   2   0  -1   27.35    1.23
  -2   0   1   26.64    1.16
  -2   0   1   28.08    1.26
  -2   0   1   27.79    1.22
  -2   0   1   28.86    1.20
   1   0  -1    3.62    0.25
   1   0  -1    3.71    0.31
   1   0  -1    3.83    0.26
  -1   0   1    5.14    0.34
  -1   0   1    3.80    0.27
  -1   0   1    3.17    0.29
   0   0  -1  265.39    9.01
   0   0   1  267.58    9.01
  -1   0  -1  198.36    6.73
  -1   0  -1  203.29    6.70
   1   0   1  194.77    6.73
  -2   0  -1    3.87    0.24
  -2   0  -1    4.41    0.26
  -2   0  -1    4.27    0.33
  -2   0  -1    4.18    0.26
   2   0   1    3.87    0.25
   2   0   1    4.99    0.27
   2   0   1    4.37    0.26
  -3   0  -1    6.98    0.44
  -3   0  -1    7.33    0.54
  -3   0  -1    6.52    0.42
   3   0   1    7.17    0.53
   3   0   1    6.64    0.41
  -4   0  -1  293.77   10.00
   4   0   1  276.58    9.97
  -5   0  -1    1.25    0.31
  -5   0  -1    0.86    0.21
  -5   0  -1    0.90    0.32
   5   0   1    1.58    0.37
   5   0   1    0.90    0.21
  -6   0  -1   60.03    2.61
  -6   0  -1   56.37    2.49
  -6   0  -1   59.15    2.76
   6   0   1   60.46    2.48
   6   0   1   60.29    2.74
  -7   0  -1    2.01    0.56
  -7   0  -1    1.91    0.42
  -7   0  -1    2.03    0.45
   7   0   1    1.71    0.53
   7   0   1    1.56    0.33
  -8   0  -1    2.47    0.56
  -8   0  -1    2.45    0.64
  -8   0  -1    2.54    0.54
   8   0   1    2.40    0.51
  -9   0  -1   11.69    1.06
  -9   0  -1   10.60    1.36
  -9   0  -1   10.93    0.95
   9   0   1   10.64    0.90
 -10   0  -1    3.10    0.62
 -10   0  -1    2.17    0.94
  10   0   1    2.44    0.65
 -11   0  -1    1.99    1.16
 -11   0  -1    1.03    0.45
 -12   0  -1   26.25    1.96
 -12   0  -1   17.73    2.42
 -13   0  -1    1.62    0.63
 -14   0  -1    0.06    0.19
 -14   1   1    4.97    1.26
 -13   1   1   28.48    2.38
 -12   1   1    3.57    1.00
 -11   1   1    1.66    0.56
 -11   1   1    1.89    1.44
  10  -1  -1   21.86    1.60
 -10   1   1   20.89    2.21
 -10   1   1   24.53    1.90
   9  -1  -1    0.11    0.14
  -9   1   1    0.35    0.32
  -9   1   1    0.53    0.76
  -9   1   1    0.28    0.26
   8  -1  -1    0.35    0.21
  -8   1   1    0.26    0.17
  -8   1   1    0.43    0.26
  -8   1   1    0.88    0.61
   7  -1  -1    1.41    0.66
   7  -1  -1    0.98    0.30
  -7   1   1    0.82    0.36
  -7   1   1    1.89    0.50
  -7   1   1    1.85    0.63
   6  -1  -1   25.85    1.56
  -6   1   1   25.28    1.01
  -6   1   1   22.93    1.52
  -6   1   1   26.49    1.06
  -6   1   1   23.71    1.41
  -6   1   1   25.77    1.59
   5  -1  -1   21.00    1.26
  -5   1   1   20.11    1.29
  -5   1   1   20.58    1.27
  -5   1   1   19.79    1.17
  -5   1   1   22.00    0.98
  -5   1   1   19.42    0.89
   4  -1  -1   27.74    1.36
   4  -1  -1   28.04    1.39
  -4   1   1   25.91    1.19
  -4   1   1   27.44    1.37
  -4   1   1   27.40    1.41
  -4   1   1   28.19    1.48
  -4   1   1   28.10    1.14
   3  -1  -1  190.60    6.74
  -3   1   1  185.51    6.57
  -3   1   1  187.17    6.77
  -3   1   1  205.57    6.67
   2  -1  -1    2.64    0.28
   2  -1  -1    3.61    0.30
   2  -1  -1    4.77    0.59
   2  -1  -1    5.42    0.52
  -2   1   1    2.59    0.26
  -2   1   1    2.94    0.29
  -2   1   1    3.15    0.30
   1  -1  -1    0.12    0.06
   1  -1  -1    0.08    0.04
   1  -1  -1    0.29    0.10
  -1   1   1    0.32    0.09
  -1   1   1    0.25    0.11
  -1   1   1    0.08    0.07
  -1   1   1    0.18    0.07
  -1   1   1    0.19    0.06
   0  -1  -1  173.74    5.88
   0  -1  -1  177.90    6.02
   0   1   1  177.65    6.02
   0   1   1  177.90    5.92
  -1  -1  -1   28.39    1.11
  -1  -1  -1   29.41    1.11
   1   1   1   27.42    1.10
   1   1   1   27.54    1.10
  -2  -1  -1  138.69    4.70
  -2  -1  -1  137.79    4.84
   2   1   1  134.16    4.82
   2   1   1  136.10    4.70
  -3  -1  -1   12.71    0.60
  -3  -1  -1   11.87    0.57
  -3  -1  -1   13.06    0.79
  -3  -1  -1   12.10    0.63
   3   1   1   11.90    0.59
   3   1   1   12.93    0.77
   3   1   1   11.84    0.58
  -4  -1  -1   17.59    0.95
  -4  -1  -1   15.99    1.06
  -4  -1  -1   19.13    0.91
  -4  -1  -1   19.76    0.80
   4   1   1   19.15    0.90
   4   1   1   19.82    0.84
   4   1   1   19.27    1.12
  -5  -1  -1   40.72    1.75
  -5  -1  -1   39.37    1.82
  -5  -1  -1   42.02    2.04
  -5  -1  -1   39.34    1.49
   5   1   1   39.22    1.70
   5   1   1   41.97    2.03
   5   1   1   40.90    1.55
  -6  -1  -1   43.05    2.02
  -6  -1  -1   43.32    2.25
  -6  -1  -1   43.15    1.91
   6   1   1   41.84    1.87
   6   1   1   41.48    2.19
  -7  -1  -1    6.56    0.98
  -7  -1  -1    5.82    0.57
  -7  -1  -1    6.89    0.68
   7   1   1    6.05    0.56
   7   1   1    6.44    0.92
  -8  -1  -1   48.53    2.43
  -8  -1  -1   51.09    2.77
  -8  -1  -1   44.87    2.22
   8   1   1   45.19    2.20
  -9  -1  -1   15.98    1.66
  -9  -1  -1   18.46    1.41
  -9  -1  -1   20.54    1.32
   9   1   1   20.30    1.36
 -10  -1  -1    0.76    0.34
 -10  -1  -1    0.74    0.35
 -10  -1  -1   -0.36    0.93
 -11  -1  -1    0.29    0.25
 -11  -1  -1    0.15    1.14
  11   1   1    1.21    0.98
 -12  -1  -1   17.83    1.59
  12   1   1   14.86    1.91
 -13  -1  -1    0.02    0.17
 -14  -1  -1    0.56    0.41
 -14   2   1    0.71    0.50
 -13   2   1    0.28    0.32
 -12   2   1    0.20    0.27
 -11   2   1   -1.49    1.30
 -11   2   1    0.78    0.37
  10  -2  -1    7.85    1.08
 -10   2   1    7.13    1.12
 -10   2   1    8.98    1.55
   9  -2  -1    3.32    0.64
  -9   2   1    2.24    0.86
  -9   2   1    1.88    0.53
   8  -2  -1    0.10    0.12
  -8   2   1    0.01    0.08
  -8   2   1    0.13    0.57
   7  -2  -1   40.27    2.10
   7  -2  -1   42.80    2.25
  -7   2   1   40.45    2.29
  -7   2   1   41.51    2.27
  -7   2   1   40.14    2.39
   6  -2  -1    0.78    0.41
   6  -2  -1    0.59    0.21
  -6   2   1    0.91    0.31
  -6   2   1    1.14    0.46
  -6   2   1    1.51    0.24
  -6   2   1    0.77    0.24
   5  -2  -1    2.30    0.48
   5  -2  -1    2.44    0.42
  -5   2   1    3.56    0.40
  -5   2   1    2.17    0.39
  -5   2   1    4.23    0.65
  -5   2   1    3.28    0.56
  -5   2   1    3.34    0.36
   4  -2  -1   49.86    2.10
   4  -2  -1   40.89    1.84
  -4   2   1   41.07    1.71
  -4   2   1   38.81    1.92
  -4   2   1   37.18    1.83
  -4   2   1   39.71    1.85
  -4   2   1   40.78    1.65
   3  -2  -1   20.24    1.01
   3  -2  -1   20.58    1.06
  -3   2   1   18.48    0.97
  -3   2   1   24.03    1.21
  -3   2   1   19.08    0.94
  -3   2   1   19.55    1.01
   2  -2  -1  335.01   11.27
   2  -2  -1  335.31   11.25
  -2   2   1  324.40   11.29
  -2   2   1  335.35   11.27
   1  -2  -1   13.72    0.63
   1  -2  -1   14.55    0.70
   1  -2  -1   13.97    0.73
   1  -2  -1   14.22    0.69
  -1   2   1   13.82    0.74
  -1   2   1   14.56    0.65
  -1   2   1   14.23    0.70
  -1   2   1   16.07    0.73
   0  -2  -1    3.19    0.21
   0  -2  -1    3.10    0.22
   0  -2  -1    3.17    0.23
   0  -2  -1    3.14    0.30
   0   2   1    2.90    0.22
   0   2   1    3.74    0.33
   0   2   1    3.07    0.22
   0   2   1    3.09    0.22
  -1  -2  -1   16.59    0.73
  -1  -2  -1   15.82    0.83
  -1  -2  -1   17.28    0.64
  -1  -2  -1   16.31    0.67
   1   2   1   17.93    0.85
   1   2   1   16.23    0.67
   1   2   1   15.59    0.71
   1   2   1   16.28    0.64
  -2  -2  -1  138.50    5.06
   2   2   1  144.38    5.01
   2   2   1  148.07    5.13
   2   2   1  139.91    5.06
  -3  -2  -1    4.55    0.31
  -3  -2  -1    4.90    0.36
  -3  -2  -1    5.28    0.44
   3   2   1    4.73    0.44
   3   2   1    5.15    0.45
   3   2   1    5.57    0.35
   3   2   1    5.03    0.52
  -4  -2  -1   24.42    1.38
  -4  -2  -1   22.88    1.06
  -4  -2  -1   23.45    1.15
  -4  -2  -1   23.87    1.14
   4   2   1   23.35    1.35
   4   2   1   24.83    1.16
   4   2   1   26.02    1.28
  -5  -2  -1   70.75    2.79
  -5  -2  -1   72.29    2.91
  -5  -2  -1   72.58    3.20
  -5  -2  -1   75.16    2.76
   5   2   1   69.37    2.78
   5   2   1   72.28    3.13
  -6  -2  -1    0.77    0.28
  -6  -2  -1    0.48    0.22
  -6  -2  -1    0.13    0.38
  -6  -2  -1    0.82    0.23
   6   2   1   -0.20    0.44
   6   2   1    0.47    0.16
  -7  -2  -1    5.46    0.93
  -7  -2  -1    6.52    0.48
  -7  -2  -1    7.23    0.91
  -7  -2  -1    5.36    0.73
   7   2   1    7.18    0.59
   7   2   1    6.81    0.62
   7   2   1    5.18    0.88
  -8  -2  -1   57.53    2.74
  -8  -2  -1   61.05    2.93
  -8  -2  -1   49.94    2.95
   8   2   1   58.49    2.86
   8   2   1   52.85    2.46
  -9  -2  -1    8.39    1.11
  -9  -2  -1    7.23    0.72
  -9  -2  -1    6.81    1.26
   9   2   1    6.92    0.69
   9   2   1    5.81    1.00
 -10  -2  -1    8.05    1.10
 -10  -2  -1    6.02    0.89
  10   2   1    7.21    1.23
 -11  -2  -1    9.22    1.35
 -11  -2  -1    9.81    0.98
  11   2   1   10.07    2.16
 -12  -2  -1    0.00    0.09
 -13  -2  -1    0.11    0.29
 -14  -2  -1    0.61    0.38
 -14   3   1    2.66    0.86
 -13   3   1    0.15    0.21
 -12   3   1    4.45    1.12
 -11   3   1    7.12    1.63
 -11   3   1    9.22    1.35
  10  -3  -1    0.45    0.27
 -10   3   1    0.46    0.37
 -10   3   1    1.05    0.98
   9  -3  -1    1.46    0.50
  -9   3   1    0.24    0.77
  -9   3   1    1.08    0.46
   8  -3  -1    0.03    0.09
  -8   3   1    0.05    0.13
  -8   3   1   -0.14    0.55
   7  -3  -1   17.00    1.24
   7  -3  -1   18.61    1.40
  -7   3   1   18.67    0.86
  -7   3   1   20.90    1.45
  -7   3   1   17.30    0.83
  -7   3   1   19.96    1.43
   6  -3  -1   88.65    3.64
  -6   3   1   88.65    3.71
  -6   3   1   82.55    3.97
  -6   3   1   87.93    3.24
  -6   3   1   85.72    3.28
   5  -3  -1   40.72    2.04
   5  -3  -1   40.80    1.99
  -5   3   1   47.91    1.91
  -5   3   1   43.00    1.82
  -5   3   1   42.71    2.04
  -5   3   1   39.30    2.08
   4  -3  -1    6.73    0.52
   4  -3  -1    6.04    0.56
   4  -3  -1    7.76    0.63
  -4   3   1    6.90    0.63
  -4   3   1    6.65    0.61
  -4   3   1    5.55    0.54
  -4   3   1    6.24    0.57
   3  -3  -1    0.66    0.21
   3  -3  -1    0.79    0.21
   3  -3  -1    0.12    0.16
  -3   3   1    0.83    0.35
  -3   3   1    0.09    0.14
  -3   3   1    0.56    0.22
   2  -3  -1  168.32    5.65
   2  -3  -1  161.26    5.74
  -2   3   1  159.98    5.78
  -2   3   1  153.30    5.63
   1  -3  -1    0.11    0.07
   1  -3  -1    0.04    0.16
   1  -3  -1    0.17    0.11
   1  -3  -1    0.07    0.06
  -1   3   1    0.05    0.05
  -1   3   1    0.18    0.16
  -1   3   1    0.03    0.09
   0  -3  -1    1.30    0.19
   0  -3  -1    1.75    0.23
   0  -3  -1    2.03    0.34
   0  -3  -1    1.87    0.27
   0   3   1    1.97    0.21
   0   3   1    2.31    0.39
   0   3   1    1.31    0.19
  -1  -3  -1  218.99    7.21
  -1  -3  -1  208.23    7.44
   1   3   1  212.50    7.45
   1   3   1  198.82    7.19
  -2  -3  -1    0.62    0.15
  -2  -3  -1    1.11    0.25
  -2  -3  -1    0.32    0.09
  -2  -3  -1    0.44    0.23
   2   3   1    0.07    0.12
   2   3   1    0.19    0.22
   2   3   1    0.22    0.08
  -3  -3  -1    5.04    0.38
  -3  -3  -1    4.79    0.32
  -3  -3  -1    4.64    0.50
   3   3   1    4.24    0.57
   3   3   1    4.86    0.32
   3   3   1    4.40    0.45
   3   3   1    4.75    0.53
  -4  -3  -1   19.94    1.10
  -4  -3  -1   16.60    0.95
   4   3   1   18.11    1.06
   4   3   1   18.67    1.20
   4   3   1   18.53    0.87
   4   3   1   17.80    1.08
  -5  -3  -1   43.81    2.01
  -5  -3  -1   43.18    1.86
  -5  -3  -1   45.47    2.03
   5   3   1   46.90    2.30
   5   3   1   44.13    2.07
   5   3   1   50.76    2.20
   5   3   1   43.74    1.85
  -6  -3  -1   10.53    0.80
  -6  -3  -1   12.74    0.89
  -6  -3  -1    9.78    0.69
   6   3   1   10.21    0.95
   6   3   1   10.06    0.69
   6   3   1   10.46    0.90
  -7  -3  -1    3.47    0.48
  -7  -3  -1    4.07    0.54
  -7  -3  -1    3.71    0.63
   7   3   1    2.67    0.74
   7   3   1    4.04    0.74
   7   3   1    3.50    0.49
   7   3   1    3.58    0.63
  -8  -3  -1    5.06    0.57
  -8  -3  -1    4.19    0.71
  -8  -3  -1    4.08    0.59
   8   3   1    5.11    0.73
   8   3   1    3.59    0.55
   8   3   1    3.70    0.97
  -9  -3  -1    0.13    0.11
  -9  -3  -1    0.30    0.23
   9   3   1   -0.07    0.60
   9   3   1    0.12    0.48
 -10  -3  -1    0.32    0.27
 -10  -3  -1    0.61    0.29
  10   3   1    1.09    0.83
 -11  -3  -1   13.98    1.33
 -11  -3  -1   14.16    1.17
  11   3   1   14.53    1.82
 -12  -3  -1    9.59    1.47
 -13  -3  -1   34.25    2.55
 -14  -3  -1    4.17    0.93
 -13   4   1   -0.06    0.13
 -12   4   1    2.30    0.75
 -11   4   1    5.54    1.06
  10  -4  -1   16.45    1.39
 -10   4   1   12.35    1.77
 -10   4   1   12.52    1.66
   9  -4  -1   33.26    2.06
  -9   4   1   37.10    2.34
  -9   4   1   30.96    2.26
   8  -4  -1    0.15    0.16
  -8   4   1    0.79    0.67
  -8   4   1   -0.03    0.06
   7  -4  -1   -0.31    0.56
   7  -4  -1    0.12    0.12
  -7   4   1    0.27    0.37
  -7   4   1    0.16    0.35
  -7   4   1   -0.37    0.41
  -7   4   1    0.27    0.21
   6  -4  -1   49.39    2.38
   6  -4  -1   47.54    2.40
  -6   4   1   47.17    2.11
  -6   4   1   48.75    2.17
  -6   4   1   45.00    2.35
  -6   4   1   58.92    2.91
   5  -4  -1    1.41    0.43
   5  -4  -1    0.83    0.31
   5  -4  -1    0.80    0.26
  -5   4   1    1.23    0.35
  -5   4   1    0.96    0.37
  -5   4   1    1.10    0.39
  -5   4   1    1.13    0.35
   4  -4  -1   19.17    1.08
   4  -4  -1   19.11    1.12
   4  -4  -1   17.40    1.11
  -4   4   1   17.44    1.15
  -4   4   1   18.77    1.15
  -4   4   1   19.36    1.13
   3  -4  -1   80.17    2.97
   3  -4  -1   73.64    3.04
   3  -4  -1   74.89    3.02
  -3   4   1   74.45    2.97
  -3   4   1   69.74    3.02
  -3   4   1   77.60    3.11
   2  -4  -1    7.79    0.57
   2  -4  -1    7.39    0.65
  -2   4   1    7.56    0.55
  -2   4   1    6.82    0.65
   1  -4  -1   56.15    2.49
   1  -4  -1   59.12    2.27
   1  -4  -1   57.63    2.34
   1  -4  -1   60.46    2.28
  -1   4   1   57.96    2.29
  -1   4   1   57.35    2.28
   0  -4  -1    7.15    0.67
   0  -4  -1    7.25    0.50
   0  -4  -1    6.26    0.48
   0   4   1    6.68    0.49
   0   4   1    7.09    0.46
   0   4   1    8.91    0.74
  -1  -4  -1   94.38    3.49
  -1  -4  -1   92.63    3.76
   1   4   1   96.12    3.51
  -2  -4  -1    9.45    0.66
  -2  -4  -1   11.44    0.88
  -2  -4  -1   11.30    0.56
  -2  -4  -1   10.73    0.64
   2   4   1    9.93    0.84
   2   4   1   10.23    0.67
   2   4   1   11.37    0.57
  -3  -4  -1    1.29    0.39
  -3  -4  -1    1.22    0.32
  -3  -4  -1    0.86    0.23
   3   4   1    1.06    0.37
   3   4   1    1.06    0.26
   3   4   1    0.99    0.19
  -4  -4  -1    7.61    0.50
  -4  -4  -1    8.32    0.75
  -4  -4  -1    7.75    0.76
   4   4   1    9.00    0.91
   4   4   1    8.55    0.72
   4   4   1    6.40    0.83
   4   4   1    7.15    0.48
  -5  -4  -1    1.13    0.38
  -5  -4  -1    1.17    0.24
  -5  -4  -1    1.30    0.32
   5   4   1    1.90    0.56
   5   4   1    1.21    0.27
   5   4   1    1.76    0.48
   5   4   1    2.80    0.62
  -6  -4  -1   18.17    0.99
  -6  -4  -1   18.99    1.16
  -6  -4  -1   16.44    1.15
   6   4   1   15.89    0.94
   6   4   1   17.89    1.30
   6   4   1   14.98    1.41
   6   4   1   16.09    1.27
  -7  -4  -1   10.02    0.87
  -7  -4  -1    8.37    0.86
  -7  -4  -1   10.15    0.75
   7   4   1    9.88    1.13
   7   4   1   10.85    1.11
  -8  -4  -1    9.76    0.79
  -8  -4  -1    8.55    0.87
  -8  -4  -1   10.16    0.93
   8   4   1   10.97    1.20
   8   4   1   10.10    1.15
  -9  -4  -1   93.44    3.65
  -9  -4  -1  100.24    4.28
  -9  -4  -1   92.00    3.90
   9   4   1   88.26    4.00
   9   4   1   98.04    4.42
 -10  -4  -1   15.25    1.36
 -10  -4  -1   16.50    1.21
  10   4   1   18.63    1.38
  10   4   1   17.56    1.86
 -11  -4  -1    1.18    0.40
 -11  -4  -1    1.31    0.49
  11   4   1    0.89    1.07
 -12  -4  -1   28.31    2.06
 -13  -4  -1   39.79    2.60
 -14  -4  -1    1.89    0.59
 -13   5   1    8.64    1.51
 -12   5   1    0.13    0.24
 -11   5   1    0.63    0.38
 -11   5   1    0.67    1.29
  10  -5  -1   10.99    1.48
 -10   5   1    7.54    1.51
 -10   5   1   10.63    1.60
   9  -5  -1    4.87    0.86
  -9   5   1    7.10    1.16
  -9   5   1    3.99    1.10
   8  -5  -1   21.42    1.57
  -8   5   1   21.77    1.29
  -8   5   1   21.97    1.76
  -8   5   1   30.71    2.15
  -8   5   1   20.88    1.24
   7  -5  -1   14.39    1.20
  -7   5   1   16.17    1.16
  -7   5   1   13.57    1.28
  -7   5   1   14.91    1.27
   6  -5  -1   13.93    0.97
   6  -5  -1   12.59    1.12
   6  -5  -1   14.57    1.11
  -6   5   1   13.65    1.14
  -6   5   1   12.31    1.09
  -6   5   1   13.44    1.13
  -6   5   1   15.35    1.13
   5  -5  -1   10.91    0.92
   5  -5  -1   11.39    0.92
   5  -5  -1   10.65    0.86
  -5   5   1   10.23    0.93
  -5   5   1   11.26    1.01
  -5   5   1   11.18    0.95
   4  -5  -1   22.17    1.36
   4  -5  -1   24.41    1.37
   4  -5  -1   21.66    1.30
  -4   5   1   25.56    1.44
  -4   5   1   24.61    1.50
  -4   5   1   25.90    1.41
   3  -5  -1   56.97    2.58
   3  -5  -1   55.32    2.44
   3  -5  -1   60.31    2.57
  -3   5   1   61.50    2.73
  -3   5   1   59.30    2.56
  -3   5   1   57.89    2.48
   2  -5  -1    6.22    0.68
   2  -5  -1    5.66    0.49
   2  -5  -1    6.36    0.56
   2  -5  -1    6.68    0.57
  -2   5   1    5.69    0.54
  -2   5   1    6.29    0.59
  -2   5   1    6.76    0.84
   1  -5  -1   14.17    0.87
   1  -5  -1   14.32    1.03
   1  -5  -1   13.38    0.77
   1  -5  -1   13.03    0.83
  -1   5   1   12.39    1.04
  -1   5   1   13.45    0.81
  -1   5   1   15.52    0.87
   0  -5  -1   53.63    2.13
   0  -5  -1   51.18    2.15
   0  -5  -1   48.74    2.63
   0   5   1   51.71    2.07
   0   5   1   51.16    2.48
   0   5   1   48.99    2.11
  -1  -5  -1    1.93    0.35
  -1  -5  -1    1.20    0.22
  -1  -5  -1    1.33    0.28
  -1  -5  -1    2.08    0.60
   1   5   1    2.47    0.58
   1   5   1    1.74    0.30
   1   5   1    1.79    0.31
  -2  -5  -1   39.69    2.11
  -2  -5  -1   42.59    1.86
  -2  -5  -1   41.96    1.89
  -2  -5  -1   42.70    1.70
   2   5   1   42.13    1.88
   2   5   1   41.65    2.19
   2   5   1   43.61    1.73
  -3  -5  -1    0.48    0.31
  -3  -5  -1    0.50    0.37
   3   5   1    0.16    0.40
   3   5   1    0.19    0.20
   3   5   1    0.68    0.19
  -4  -5  -1    4.81    0.76
  -4  -5  -1    4.73    0.48
  -4  -5  -1    5.14    0.41
   4   5   1    4.25    0.38
   4   5   1    6.47    0.92
   4   5   1    3.91    0.59
   4   5   1    5.34    0.85
  -5  -5  -1  221.51    8.27
   5   5   1  231.47    8.19
   5   5   1  228.94    8.48
   5   5   1  210.45    7.88
   5   5   1  217.57    8.34
  -6  -5  -1   58.73    2.54
  -6  -5  -1   60.22    2.87
  -6  -5  -1   62.21    2.79
   6   5   1   62.14    2.92
   6   5   1   66.01    3.08
  -7  -5  -1    6.01    0.87
  -7  -5  -1    5.30    0.68
  -7  -5  -1    5.78    0.88
   7   5   1    4.21    0.95
   7   5   1    5.31    0.91
  -8  -5  -1   54.96    2.69
  -8  -5  -1   53.84    2.55
  -8  -5  -1   49.95    2.40
   8   5   1   55.64    2.92
   8   5   1   51.83    2.87
  -9  -5  -1  172.31    6.58
  -9  -5  -1  188.42    7.00
  -9  -5  -1  173.37    6.51
   9   5   1  164.21    6.81
   9   5   1  171.53    7.14
 -10  -5  -1   18.90    1.47
 -10  -5  -1   16.19    1.21
  10   5   1   17.43    1.92
 -11  -5  -1    7.33    1.12
 -13  -5  -1    4.24    0.87
 -13   6   1    2.10    0.78
 -12   6   1    6.91    1.35
 -11   6   1    1.59    1.42
  10  -6  -1   10.53    1.49
 -10   6   1    8.26    1.52
 -10   6   1    9.19    1.52
  -9   6   1    8.31    1.19
  -9   6   1    9.47    1.03
  -9   6   1    9.81    1.42
  -9   6   1   10.76    0.96
  -8   6   1   31.18    2.17
  -8   6   1   33.04    1.86
  -8   6   1   34.31    1.89
   7  -6  -1    8.83    1.21
  -7   6   1    6.67    0.95
  -7   6   1    5.16    0.90
  -7   6   1    6.21    0.99
   6  -6  -1    1.33    0.60
   6  -6  -1    2.43    0.71
   6  -6  -1    1.58    0.51
  -6   6   1    1.14    0.39
  -6   6   1    2.06    0.69
  -6   6   1    1.33    0.55
   5  -6  -1   20.87    1.50
   5  -6  -1   17.60    1.22
  -5   6   1   15.21    1.35
  -5   6   1   16.01    1.21
  -5   6   1   17.25    1.40
   4  -6  -1    6.88    0.88
   4  -6  -1    5.88    0.79
   4  -6  -1    5.80    0.76
  -4   6   1    5.83    0.81
  -4   6   1    5.56    0.92
  -4   6   1    7.12    0.73
   3  -6  -1   -0.05    0.28
   3  -6  -1    0.05    0.27
   3  -6  -1    0.07    0.10
  -3   6   1    0.05    0.07
  -3   6   1    1.52    0.59
  -3   6   1   -0.03    0.25
   2  -6  -1   27.83    1.68
   2  -6  -1   27.39    1.50
   2  -6  -1   28.30    1.45
   2  -6  -1   26.19    1.36
  -2   6   1   30.02    1.49
  -2   6   1   27.68    1.78
   1  -6  -1   40.43    1.86
   1  -6  -1   40.95    1.93
   1  -6  -1   43.16    2.20
   1  -6  -1   39.78    1.78
  -1   6   1   39.68    2.23
  -1   6   1   40.55    1.84
  -1   6   1   40.18    1.87
   0  -6  -1    2.67    0.58
   0  -6  -1    2.70    0.44
   0  -6  -1    4.58    0.63
   0   6   1    2.81    0.66
   0   6   1    3.63    0.53
   0   6   1    3.77    0.50
  -1  -6  -1  267.83    9.80
  -1  -6  -1  278.57   10.28
   1   6   1  296.78    9.87
   1   6   1  274.56   10.33
  -2  -6  -1  161.04    5.65
  -2  -6  -1  143.02    5.96
   2   6   1  152.41    6.10
   2   6   1  145.45    5.59
  -3  -6  -1    0.30    0.40
  -3  -6  -1    0.52    0.20
  -3  -6  -1    0.07    0.36
  -3  -6  -1    0.47    0.20
   3   6   1    0.65    0.51
   3   6   1    0.42    0.16
   3   6   1    0.65    0.33
  -4  -6  -1   66.99    3.22
  -4  -6  -1   61.23    2.92
  -4  -6  -1   68.64    2.67
  -4  -6  -1   67.23    2.90
   4   6   1   70.50    3.34
   4   6   1   69.36    3.30
   4   6   1   65.90    2.67
   4   6   1   69.36    2.99
  -5  -6  -1  362.73   13.20
   5   6   1  373.56   13.02
   5   6   1  360.45   13.32
  -6  -6  -1   86.25    3.66
  -6  -6  -1   86.31    3.88
  -6  -6  -1   86.09    3.39
   6   6   1   82.85    4.02
  -7  -6  -1   10.06    1.21
  -7  -6  -1    9.42    0.73
  -7  -6  -1    8.53    0.85
   7   6   1    8.84    1.16
  -8  -6  -1    1.18    0.43
  -8  -6  -1    1.28    0.73
  -8  -6  -1    1.01    0.30
   8   6   1    0.46    0.64
   8   6   1    0.33    1.28
  -9  -6  -1   17.37    1.37
  -9  -6  -1   19.54    1.57
  -9  -6  -1   16.56    1.17
   9   6   1   14.73    2.20
   9   6   1   12.08    1.58
 -10  -6  -1    1.52    0.96
 -10  -6  -1    2.22    0.60
  10   6   1    3.58    1.17
 -11  -6  -1   19.18    1.57
 -12  -6  -1    9.06    1.29
 -13  -6  -1    4.95    1.02
 -13   7   1    2.52    0.94
 -12   7   1   22.73    2.18
 -11   7   1    0.05    0.24
  10  -7  -1    1.14    0.49
 -10   7   1    1.76    0.71
   9  -7  -1    8.45    1.29
  -9   7   1    7.57    1.29
  -9   7   1    9.11    1.54
  -9   7   1    7.85    1.18
  -9   7   1    6.61    1.08
   8  -7  -1    3.27    0.74
  -8   7   1    1.56    0.97
  -8   7   1    2.05    0.84
  -8   7   1    1.15    0.79
  -8   7   1    1.83    0.54
   7  -7  -1    0.87    0.52
   7  -7  -1    0.17    0.18
  -7   7   1   -0.03    0.85
  -7   7   1    0.25    0.22
  -7   7   1    0.18    0.61
   6  -7  -1   16.30    1.52
   6  -7  -1   10.12    1.09
  -6   7   1    8.30    1.08
  -6   7   1   10.52    1.31
   5  -7  -1   47.73    2.45
   5  -7  -1   45.36    2.36
   5  -7  -1   47.07    2.45
  -5   7   1   45.59    2.46
  -5   7   1   48.63    2.45
  -5   7   1   49.18    2.71
   4  -7  -1    3.30    0.61
   4  -7  -1    2.07    0.58
   4  -7  -1    3.26    0.58
  -4   7   1    2.12    0.81
  -4   7   1    3.73    0.68
  -4   7   1    3.31    0.60
   3  -7  -1  136.36    5.29
   3  -7  -1  141.91    5.65
   3  -7  -1  138.33    5.45
  -3   7   1  143.72    5.83
  -3   7   1  136.97    5.41
  -3   7   1  135.05    5.33
   2  -7  -1  125.80    5.07
   2  -7  -1  130.38    5.46
   2  -7  -1  133.31    5.05
  -2   7   1  142.53    5.38
  -2   7   1  134.14    5.64
  -2   7   1  134.75    5.14
   1  -7  -1    6.76    0.57
   1  -7  -1    8.34    0.94
   1  -7  -1    7.84    0.75
   1  -7  -1    6.41    0.65
  -1   7   1    6.63    0.60
  -1   7   1    7.52    1.24
  -1   7   1    6.72    0.66
   0  -7  -1   46.10    2.18
   0  -7  -1   47.35    2.16
   0  -7  -1   48.33    2.57
   0   7   1   47.78    2.19
   0   7   1   41.21    2.55
   0   7   1   45.55    2.06
  -1  -7  -1  553.05   19.94
  -1  -7  -1  585.44   19.44
   1   7   1  577.14   19.46
   1   7   1  549.35   20.08
  -2  -7  -1  230.33    8.61
  -2  -7  -1  229.80    9.06
   2   7   1  257.82    8.67
   2   7   1  231.08    9.62
  -3  -7  -1    2.35    0.47
  -3  -7  -1    1.53    0.30
  -3  -7  -1    1.07    0.44
  -3  -7  -1    3.02    0.80
   3   7   1    2.54    0.84
   3   7   1    2.48    0.59
   3   7   1    2.27    0.39
  -4  -7  -1    4.43    0.87
  -4  -7  -1    4.10    0.56
  -4  -7  -1    6.14    0.86
   4   7   1    3.91    0.68
   4   7   1    4.92    0.66
   4   7   1    4.39    1.06
  -5  -7  -1   40.07    2.06
  -5  -7  -1   37.46    2.37
  -5  -7  -1   38.57    1.80
   5   7   1   41.23    2.65
  -6  -7  -1   14.53    0.95
  -6  -7  -1   13.83    1.11
  -6  -7  -1   16.48    1.52
   6   7   1   15.80    1.88
   6   7   1   15.88    1.36
  -7  -7  -1   15.00    1.50
  -7  -7  -1   10.11    0.80
  -7  -7  -1   10.53    1.30
   7   7   1    7.11    1.09
  -8  -7  -1   27.41    2.11
  -8  -7  -1   30.71    1.89
  -8  -7  -1   27.41    1.59
   8   7   1   32.91    2.27
  -9  -7  -1    2.50    0.61
  -9  -7  -1    1.85    0.98
  -9  -7  -1    1.73    0.51
   9   7   1    2.18    1.06
 -10  -7  -1    0.17    0.17
 -10  -7  -1   -1.15    1.19
 -10  -7  -1    0.25    0.20
 -12  -7  -1    0.51    0.30
 -12   8   1    0.01    0.27
 -11   8   1    0.52    0.40
 -10   8   1    2.00    1.28
 -10   8   1    1.34    0.61
   9  -8  -1   36.37    2.44
  -9   8   1   37.06    2.61
  -9   8   1   33.38    2.46
  -9   8   1   36.21    2.44
   8  -8  -1    6.21    1.08
  -8   8   1    6.17    1.23
  -8   8   1    2.77    0.96
  -8   8   1    5.17    1.03
   7  -8  -1   34.61    2.13
   7  -8  -1   36.25    2.23
  -7   8   1   34.94    2.28
  -7   8   1   27.61    2.44
  -7   8   1   35.59    2.28
   6  -8  -1   85.07    3.90
  -6   8   1   88.92    4.00
  -6   8   1   84.23    4.06
  -6   8   1   86.51    4.20
   5  -8  -1   -0.36    0.54
   5  -8  -1    0.69    0.34
  -5   8   1    0.45    0.28
  -5   8   1    0.69    0.97
  -5   8   1    0.37    0.50
   4  -8  -1   21.54    1.67
   4  -8  -1   24.12    1.56
  -4   8   1   23.82    1.55
  -4   8   1   22.20    1.51
  -4   8   1   19.61    1.89
   3  -8  -1  285.94   10.69
   3  -8  -1  285.87   10.25
  -3   8   1  288.08   10.93
  -3   8   1  280.04   10.31
   2  -8  -1  288.51   10.32
   2  -8  -1  284.10   10.24
   2  -8  -1  291.84   10.83
  -2   8   1  285.76   10.38
  -2   8   1  289.39   11.04
   1  -8  -1    2.71    0.48
   1  -8  -1    2.48    0.81
   1  -8  -1    3.42    0.60
   1  -8  -1    2.25    0.52
  -1   8   1    5.07    1.13
  -1   8   1    3.16    0.58
  -1   8   1    4.37    0.64
   0  -8  -1    0.65    0.46
   0  -8  -1    0.27    0.36
   0  -8  -1    0.25    0.16
   0   8   1    0.26    0.33
   0   8   1   -0.18    0.74
   0   8   1    0.10    0.09
  -1  -8  -1   35.10    1.93
  -1  -8  -1   36.21    1.95
  -1  -8  -1   40.40    2.45
  -1  -8  -1   37.70    1.77
   1   8   1   39.75    2.02
   1   8   1   36.00    2.51
   1   8   1   40.94    1.87
  -2  -8  -1   16.76    1.58
  -2  -8  -1   19.01    1.07
  -2  -8  -1   18.91    1.24
   2   8   1   18.26    1.30
   2   8   1   17.99    1.17
  -3  -8  -1    5.53    1.06
  -3  -8  -1    3.97    0.69
  -3  -8  -1    5.02    0.49
   3   8   1    3.79    0.67
   3   8   1    4.42    0.61
  -4  -8  -1   47.06    2.35
  -4  -8  -1   49.91    2.13
  -4  -8  -1   45.54    2.78
   4   8   1   42.29    2.36
  -5  -8  -1    0.46    0.24
  -5  -8  -1    0.66    0.74
  -5  -8  -1    0.63    0.25
   5   8   1    0.13    0.50
  -6  -8  -1    6.48    0.61
  -6  -8  -1    5.35    0.93
   6   8   1    4.52    0.94
  -7  -8  -1    2.49    0.60
  -7  -8  -1    2.45    0.46
  -7  -8  -1    2.32    0.99
   7   8   1    2.02    0.83
  -8  -8  -1   -0.54    0.97
  -8  -8  -1    0.19    0.21
  -8  -8  -1    0.71    0.28
   8   8   1    1.33    0.90
  -9  -8  -1   10.92    1.67
  -9  -8  -1   13.27    1.05
  -9  -8  -1   13.57    1.23
 -10  -8  -1    2.20    0.61
 -10  -8  -1    1.67    2.17
 -11  -8  -1   15.78    1.40
 -12  -8  -1    0.13    0.18
 -12   9   1    4.48    1.31
 -11   9   1    6.23    1.39
  10  -9  -1   28.51    2.23
 -10   9   1   26.83    2.29
   9  -9  -1    1.01    0.50
  -9   9   1    2.03    1.46
  -9   9   1   -0.61    1.15
  -9   9   1    0.46    0.38
   8  -9  -1    3.96    0.83
   8  -9  -1    3.38    1.03
  -8   9   1    3.87    1.14
  -8   9   1    3.10    0.80
  -8   9   1    4.29    1.36
   7  -9  -1   93.60    4.27
   7  -9  -1   92.43    4.42
  -7   9   1   89.86    4.38
  -7   9   1   91.93    4.52
   6  -9  -1  194.45    7.81
   6  -9  -1  202.26    7.96
  -6   9   1  202.59    8.03
  -6   9   1  194.67    7.81
   5  -9  -1    2.62    0.64
   5  -9  -1    2.66    0.85
  -5   9   1    3.27    0.81
  -5   9   1    3.92    0.82
   4  -9  -1    2.16    0.70
   4  -9  -1    0.65    0.27
  -4   9   1    1.13    0.57
  -4   9   1    1.12    0.35
   3  -9  -1   27.08    1.74
   3  -9  -1   28.71    2.08
  -3   9   1   26.06    1.71
  -3   9   1   24.86    1.64
   2  -9  -1   32.96    2.27
   2  -9  -1   32.34    1.92
  -2   9   1   31.60    1.82
  -2   9   1   32.23    1.91
   1  -9  -1    1.17    0.34
   1  -9  -1    1.39    0.70
   1  -9  -1    2.46    0.57
  -1   9   1    2.34    0.58
  -1   9   1    2.71    0.56
   0  -9  -1   19.30    1.33
   0  -9  -1   16.46    2.16
   0   9   1   18.99    1.36
   0   9   1   17.48    1.18
  -1  -9  -1   -0.28    1.11
  -1  -9  -1    0.68    0.23
  -1  -9  -1    0.40    0.24
   1   9   1    0.76    0.47
   1   9   1    0.53    0.23
  -2  -9  -1   16.75    1.68
  -2  -9  -1   15.52    1.16
  -2  -9  -1   14.38    0.96
   2   9   1   12.65    1.17
  -3  -9  -1    2.14    0.82
  -3  -9  -1    3.58    0.72
  -3  -9  -1    3.65    0.61
   3   9   1    4.01    0.64
   3   9   1    2.95    0.66
  -4  -9  -1    0.03    0.14
  -4  -9  -1    0.19    0.14
  -4  -9  -1    0.36    0.77
   4   9   1    0.46    0.58
  -5  -9  -1   20.62    2.04
  -5  -9  -1   22.89    1.54
  -5  -9  -1   22.01    1.29
   5   9   1   22.17    1.77
  -6  -9  -1    0.75    0.34
  -6  -9  -1    0.98    0.29
  -6  -9  -1    0.60    0.98
   6   9   1    1.40    0.78
  -7  -9  -1   26.82    1.77
  -7  -9  -1   23.77    1.46
  -7  -9  -1   26.47    2.34
   7   9   1   25.53    2.11
  -8  -9  -1    0.18    0.19
  -8  -9  -1   -0.60    1.20
  -8  -9  -1    0.13    0.13
  -9  -9  -1    1.81    1.49
 -10  -9  -1    2.67    0.67
 -11  -9  -1    1.79    0.51
 -11  10   1   12.62    1.87
  10 -10  -1   66.62    3.88
 -10  10   1   67.68    4.09
   9 -10  -1    5.29    1.14
  -9  10   1    3.15    1.03
   8 -10  -1    3.43    0.90
   8 -10  -1    2.57    1.17
  -8  10   1    2.14    1.18
  -8  10   1    2.67    0.80
   7 -10  -1    4.47    1.23
   7 -10  -1    8.59    1.39
  -7  10   1    7.91    1.34
  -7  10   1    8.96    1.44
   6 -10  -1   26.04    2.08
   6 -10  -1   24.63    1.84
  -6  10   1   20.75    1.90
  -6  10   1   23.18    1.83
   5 -10  -1    4.89    0.85
   5 -10  -1    5.17    1.20
  -5  10   1    4.90    0.97
  -5  10   1    3.79    0.77
   4 -10  -1    0.32    0.23
   4 -10  -1    1.76    0.81
  -4  10   1    0.71    0.35
  -4  10   1   -0.12    0.61
   3 -10  -1    2.55    0.89
   3 -10  -1    3.68    0.82
  -3  10   1    3.42    0.76
  -3  10   1    3.23    0.75
   2 -10  -1   16.60    1.21
   2 -10  -1   19.37    1.45
   2 -10  -1   16.39    1.68
  -2  10   1   19.93    1.54
  -2  10   1   19.42    1.38
   1 -10  -1    0.57    0.34
   1 -10  -1    0.23    0.19
   1 -10  -1    0.64    0.65
  -1  10   1    0.24    0.19
  -1  10   1    0.36    0.46
   0 -10  -1    0.02    0.08
   0 -10  -1   -0.51    0.67
   0  10   1    0.20    0.14
   0  10   1   -0.05    0.53
  -1 -10  -1   15.36    1.23
  -1 -10  -1   15.09    1.05
  -1 -10  -1   15.69    1.70
   1  10   1   13.92    1.07
   1  10   1   13.22    1.31
  -2 -10  -1   29.06    1.80
  -2 -10  -1   28.08    2.38
  -2 -10  -1   29.43    1.66
   2  10   1   31.73    1.98
   2  10   1   25.62    1.64
  -3 -10  -1   19.14    1.21
  -3 -10  -1   19.69    1.96
  -3 -10  -1   18.42    1.39
   3  10   1   18.66    1.58
  -4 -10  -1    2.63    0.49
  -4 -10  -1    3.26    0.68
  -4 -10  -1    2.34    1.14
   4  10   1    1.79    0.76
  -5 -10  -1    2.11    0.47
  -5 -10  -1    2.61    0.60
  -5 -10  -1    1.84    1.05
   5  10   1    2.00    0.87
  -6 -10  -1    1.12    0.42
  -6 -10  -1    1.44    0.37
  -6 -10  -1    0.28    1.19
   6  10   1    0.19    0.88
  -7 -10  -1    5.60    0.76
  -7 -10  -1    5.35    1.62
  -7 -10  -1    5.43    0.95
  -8 -10  -1   11.06    0.96
  -8 -10  -1   12.18    1.17
  -9 -10  -1    5.45    0.93
  -9 -10  -1    4.11    2.03
 -10 -10  -1    0.36    0.25
 -11  11   1    2.26    1.09
  10 -11  -1   11.22    1.82
 -10  11   1   14.97    2.31
   9 -11  -1    1.52    0.64
  -9  11   1    0.99    0.50
   8 -11  -1    4.39    0.96
   8 -11  -1    3.59    1.38
  -8  11   1    4.07    0.98
   7 -11  -1    0.12    0.16
   7 -11  -1    1.54    1.22
  -7  11   1   -0.58    1.10
  -7  11   1    0.62    0.42
   6 -11  -1   10.21    1.48
   6 -11  -1   10.25    1.66
  -6  11   1    8.95    1.46
  -6  11   1    7.16    1.69
   5 -11  -1    0.11    0.23
   5 -11  -1   -0.27    1.00
  -5  11   1   -0.40    0.76
  -5  11   1    0.04    0.17
   4 -11  -1    0.28    0.85
  -4  11   1    1.05    0.46
  -4  11   1    0.10    0.72
   3 -11  -1    5.21    1.29
   3 -11  -1    3.52    0.76
  -3  11   1    4.89    1.01
  -3  11   1    2.52    0.57
   2 -11  -1   33.58    2.35
   2 -11  -1   32.19    2.52
  -2  11   1   32.75    2.01
  -2  11   1   27.96    2.06
   1 -11  -1    2.26    0.99
  -1  11   1    1.68    0.65
  -1  11   1    1.78    0.52
   0 -11  -1    1.37    0.47
   0 -11  -1    2.07    1.10
   0  11   1    1.58    0.61
   0  11   1    2.08    0.74
  -1 -11  -1    2.46    0.59
  -1 -11  -1    1.65    0.88
  -1 -11  -1    1.70    0.47
   1  11   1    1.68    0.76
  -2 -11  -1    0.99    1.10
  -2 -11  -1    1.03    0.36
  -2 -11  -1    0.98    0.36
   2  11   1    0.02    0.63
  -3 -11  -1    7.98    1.72
  -3 -11  -1   10.85    1.36
  -3 -11  -1    9.66    0.85
   3  11   1   10.64    1.45
  -4 -11  -1   16.80    1.36
  -4 -11  -1   15.01    1.12
  -4 -11  -1   15.98    2.10
   4  11   1   16.37    1.99
  -5 -11  -1   27.81    1.85
  -5 -11  -1   25.77    1.56
   5  11   1   25.88    2.09
  -6 -11  -1    0.22    1.46
  -6 -11  -1    0.29    0.23
  -6 -11  -1    0.38    0.23
  -7 -11  -1    0.21    0.20
  -7 -11  -1    0.68    1.75
  -8 -11  -1    0.72    0.35
  -9 -11  -1    0.89    0.42
  10 -12  -1    2.91    0.93
   9 -12  -1    0.27    0.25
   8 -12  -1    1.36    0.60
   8 -12  -1   -0.41    1.61
  -8  12   1    0.17    0.34
   7 -12  -1    0.93    1.45
   6 -12  -1   33.25    2.77
   6 -12  -1   28.39    2.14
  -6  12   1   26.91    2.17
  -6  12   1   20.18    2.48
   5 -12  -1    1.92    0.61
  -5  12   1    2.28    1.00
  -5  12   1    2.94    0.95
   4 -12  -1    1.65    0.54
  -4  12   1    1.34    0.96
   3 -12  -1    3.93    0.86
   3 -12  -1    4.46    1.57
  -3  12   1    3.74    1.21
   2 -12  -1    0.21    0.24
   2 -12  -1    0.21    1.09
  -2  12   1    0.12    0.78
   1 -12  -1    7.35    1.24
  -1  12   1    3.39    1.01
   0 -12  -1    1.76    2.27
   0 -12  -1    2.77    0.64
   0  12   1    2.50    0.89
  -1 -12  -1   39.19    2.39
  -1 -12  -1   38.32    3.06
  -2 -12  -1   -0.08    1.30
  -2 -12  -1    0.55    0.31
   2  12   1    0.57    0.87
  -3 -12  -1    1.14    1.26
  -3 -12  -1    0.59    0.33
   3  12   1   -0.37    0.89
  -4 -12  -1    0.90    0.44
  -4 -12  -1   -1.30    1.51
  -5 -12  -1    0.37    0.29
  -6 -12  -1   13.48    1.72
  -7 -12  -1    1.46    0.50
  -8 -12  -1    1.82    0.57
   9 -13  -1    3.60    0.91
   8 -13  -1    0.46    0.41
   7 -13  -1    3.50    1.01
   6 -13  -1   -0.02    0.11
   5 -13  -1    1.17    0.53
   4 -13  -1    0.47    0.37
   3 -13  -1   32.22    2.27
   2 -13  -1    2.68    0.73
  -2  13   1    3.58    1.19
  -1  13   1    1.04    0.99
   0 -13  -1    0.06    0.12
   0  13   1    0.53    1.01
  -1 -13  -1    0.23    0.24
  -2 -13  -1   22.97    1.79
  -3 -13  -1    2.07    0.60
  -4 -13  -1    2.87    0.78
  -5 -13  -1    0.93    0.41
  -6 -13  -1    6.19    1.04
  -7 -13  -1    0.35    0.29
   7 -14  -1    8.85    1.47
   6 -14  -1    1.69    0.81
   5 -14  -1    0.31    0.31
   4 -14  -1    0.38    0.31
   3 -14  -1    0.47    0.39
   2 -14  -1   19.41    1.73
   1 -14  -1   12.91    1.78
   0 -14  -1    2.42    0.74
  -1 -14  -1    0.22    0.24
  -2 -14  -1   11.18    2.02
  -3 -14  -1    3.54    0.81
  -4 -14  -1    3.31    0.78
  -5 -14  -1   15.25    1.42
  -6 -14  -1    0.29    0.26
   5 -15  -1   17.43    1.77
   4 -15  -1    0.15    0.25
   3 -15  -1    2.07    0.72
   2 -15  -1   11.62    1.66
   1 -15  -1   14.61    1.90
   0 -15  -1    1.61    0.62
  -1 -15  -1   12.81    1.75
  -2 -15  -1    0.81    0.44
  -3 -15  -1    1.38    0.53
  -4 -15  -1   -0.05    0.09
   2 -15   2   -0.01    0.17
  -3 -14   2    1.28    0.54
  -2 -14   2    0.00    0.10
  -1 -14   2    9.30    1.59
   0 -14   2   41.46    2.89
   1 -14   2   11.96    1.86
   2 -14   2   -0.03    0.13
   3 -14   2   25.04    3.32
   5 -14   2    0.60    0.41
   6 -14   2    2.46    0.85
   7 -14   2    0.11    0.21
  -5 -13   2    2.68    0.85
  -4 -13   2   41.21    2.86
  -3 -13   2   11.50    1.62
  -2 -13   2    0.35    0.40
  -1 -13   2   21.77    1.93
   0 -13   2   85.90    4.53
   1 -13   2    6.04    1.12
   2 -13   2    0.37    0.33
   3 -13   2    0.36    0.29
   4 -13   2    0.53    0.39
   5 -13   2    2.61    0.78
   6 -13   2    5.13    1.05
   7 -13   2    8.92    1.48
   8 -13   2    0.34    0.35
  -6 -12   2   -0.05    0.10
  -5 -12   2    8.22    1.37
  -3 -12   2   17.85    1.70
  -2 -12   2    0.75    0.45
  -1 -12   2    0.05    0.13
   0 -12   2    1.77    0.63
   1 -12   2    1.51    0.55
   2 -12   2    2.36    1.60
   3 -12   2   15.51    1.53
   3 -12   2   13.57    2.09
   4 -12   2    3.46    1.54
  -5  12  -2    7.15    1.31
   5 -12   2    8.57    1.48
   5 -12   2   10.61    2.09
  -6  12  -2    4.72    0.92
   6 -12   2    4.36    2.12
   6 -12   2    4.14    0.89
  -7  12  -2    2.91    0.94
   7 -12   2    2.47    0.83
  -8  12  -2    3.69    0.92
   8 -12   2    4.65    1.06
  -9  12  -2   14.87    2.03
   9 -12   2   12.74    1.84
 -10  12  -2    3.64    1.03
  -7 -11   2   19.86    1.86
  -6 -11   2    0.55    0.38
  -5 -11   2    0.44    0.31
  -4 -11   2    2.99    0.76
  -3 -11   2    2.05    1.56
  -3 -11   2    1.54    0.57
   2  11  -2    1.65    0.93
  -2 -11   2    1.28    0.49
  -2 -11   2    1.79    1.35
   1  11  -2   25.60    2.12
  -1 -11   2   21.90    1.81
  -1 -11   2   16.70    2.38
   0  11  -2    1.04    0.78
   0 -11   2    0.89    1.29
   0 -11   2    0.65    0.38
  -1  11  -2    1.58    0.50
   1 -11   2    0.76    0.39
  -2  11  -2    5.80    0.94
   2 -11   2    7.42    1.14
   2 -11   2    3.88    1.28
  -3  11  -2    0.96    0.41
   3 -11   2    0.96    1.16
   3 -11   2    0.95    0.55
  -4  11  -2   20.65    1.96
  -4  11  -2   20.64    1.63
   4 -11   2   17.25    2.34
  -5  11  -2    2.04    0.95
  -5  11  -2    2.95    0.79
   5 -11   2    2.75    1.29
  -6  11  -2   18.76    2.06
  -6  11  -2   17.68    1.58
   6 -11   2   15.98    2.17
  -7  11  -2    0.78    0.47
   7 -11   2    0.38    0.33
   7 -11   2    0.29    1.40
  -8  11  -2    3.08    0.89
   8 -11   2    3.48    1.57
   8 -11   2    2.38    0.78
  -9  11  -2   -0.06    0.12
   9 -11   2    0.14    0.19
 -10  11  -2    7.23    1.43
 -11  11  -2   16.46    3.26
  -8 -10   2    2.20    0.69
  -7 -10   2    0.11    0.24
  -6 -10   2    6.44    2.16
  -6 -10   2    5.24    1.10
  -5 -10   2    6.67    1.87
  -5 -10   2    8.73    1.48
   4  10  -2    3.89    1.09
  -4 -10   2    1.91    1.35
  -4 -10   2    1.90    0.58
   3  10  -2    0.17    1.51
  -3 -10   2    0.18    0.22
  -3 -10   2    0.06    1.17
   2  10  -2    3.77    0.97
  -2 -10   2    4.57    1.47
  -2 -10   2    4.89    0.98
   1  10  -2    0.08    0.11
   1  10  -2    0.76    0.62
  -1 -10   2   -0.61    0.90
  -1 -10   2    0.29    0.29
   0  10  -2   22.33    1.54
   0  10  -2   24.12    1.87
   0 -10   2   22.29    1.75
   0 -10   2   22.33    2.20
  -1  10  -2    1.23    0.42
  -1  10  -2    1.05    0.65
   1 -10   2    0.87    0.44
   1 -10   2    1.74    1.02
  -2  10  -2   15.95    1.27
  -2  10  -2   15.24    1.54
   2 -10   2   14.85    1.90
   2 -10   2   13.40    1.30
  -3  10  -2    0.01    0.07
  -3  10  -2   -0.24    0.67
   3 -10   2   -0.98    0.87
   3 -10   2    0.02    0.12
  -4  10  -2    2.13    0.79
  -4  10  -2    1.08    0.43
   4 -10   2    1.15    0.47
   4 -10   2    2.22    1.04
  -5  10  -2    1.28    0.76
  -5  10  -2    0.03    0.09
   5 -10   2    0.14    0.18
   5 -10   2    0.24    0.96
  -6  10  -2    3.48    0.81
  -6  10  -2    3.82    1.12
   6 -10   2    2.83    1.17
   6 -10   2    3.24    0.79
  -7  10  -2   51.94    3.30
  -7  10  -2   50.30    3.09
   7 -10   2   63.90    3.73
   7 -10   2   59.21    3.38
  -8  10  -2    0.52    1.76
  -8  10  -2    0.05    0.13
   8 -10   2    0.40    1.17
   8 -10   2    0.62    0.39
  -9  10  -2    2.10    0.77
   9 -10   2    1.75    0.59
   9 -10   2    2.06    1.44
 -10  10  -2    1.50    0.56
  10 -10   2    1.47    0.57
 -11  10  -2    4.63    1.19
 -12  10  -2    0.98    0.56
  -9  -9   2    2.07    0.74
  -8  -9   2    3.86    0.93
  -8  -9   2    2.72    2.03
  -7  -9   2    0.68    1.69
   6   9  -2    4.77    1.31
  -6  -9   2    2.91    0.80
  -6  -9   2    2.86    1.57
   5   9  -2    1.21    0.92
  -5  -9   2    1.10    1.29
  -5  -9   2    1.00    0.46
   4   9  -2   12.93    1.55
  -4  -9   2   11.56    1.62
  -4  -9   2   11.95    1.93
   3   9  -2   22.02    1.79
   3   9  -2   21.28    1.45
  -3  -9   2   20.87    2.30
  -3  -9   2   19.95    1.66
   2   9  -2   10.70    1.33
   2   9  -2   13.34    1.07
  -2  -9   2   13.14    1.90
  -2  -9   2   12.10    1.21
   1   9  -2    0.54    0.28
   1   9  -2    0.17    0.59
  -1  -9   2    1.15    0.85
  -1  -9   2    0.76    0.39
  -1  -9   2    0.26    0.20
   0   9  -2    0.12    0.56
   0   9  -2    0.46    0.24
   0  -9   2    0.53    0.78
   0  -9   2    1.03    0.43
  -1   9  -2    2.89    0.61
  -1   9  -2    3.28    0.70
   1  -9   2    3.04    0.73
   1  -9   2    1.06    0.82
  -2   9  -2    0.13    0.44
  -2   9  -2    0.01    0.06
   2  -9   2    0.02    0.11
   2  -9   2    0.20    0.81
  -3   9  -2   72.39    3.55
  -3   9  -2   71.02    3.38
   3  -9   2   71.90    3.96
   3  -9   2   76.87    3.65
  -4   9  -2    4.60    0.92
  -4   9  -2    4.86    0.85
   4  -9   2    4.63    0.93
   4  -9   2    4.62    1.17
  -5   9  -2    8.82    1.25
  -5   9  -2   14.33    1.98
   5  -9   2   13.65    2.08
   5  -9   2    8.85    1.44
  -6   9  -2    4.00    0.99
  -6   9  -2    4.72    0.97
   6  -9   2    4.57    1.08
   6  -9   2    4.86    1.17
  -7   9  -2   12.85    1.27
  -7   9  -2   13.44    1.63
   7  -9   2    9.78    1.27
   7  -9   2   15.47    1.77
  -8   9  -2    4.63    1.26
  -8   9  -2    4.49    0.94
   8  -9   2    5.24    1.16
   8  -9   2    4.65    0.91
  -9   9  -2    0.29    0.28
  -9   9  -2    1.36    1.19
   9  -9   2    0.45    0.33
 -10   9  -2    9.18    1.32
  10  -9   2   12.15    1.58
 -11   9  -2    0.12    0.25
 -10  -8   2    0.20    0.29
  -9  -8   2    0.17    0.20
  -8  -8   2    1.90    0.66
  -8  -8   2   -0.20    1.62
   7   8  -2   20.78    2.08
  -7  -8   2   18.20    1.67
  -7  -8   2   16.93    2.24
  -6  -8   2    1.08    1.26
  -6  -8   2    1.28    0.51
   5   8  -2    0.38    0.74
  -5  -8   2    1.20    0.51
  -5  -8   2    0.92    0.92
   4   8  -2    0.18    0.16
   4   8  -2    0.43    0.57
  -4  -8   2    0.05    0.16
  -4  -8   2    0.02    0.93
  -4  -8   2   -0.01    0.06
   3   8  -2    5.80    0.92
   3   8  -2    6.14    0.83
  -3  -8   2    5.23    1.28
  -3  -8   2    5.40    0.96
  -3  -8   2    5.37    0.75
   2   8  -2    1.52    0.43
   2   8  -2    0.97    0.56
  -2  -8   2    2.22    0.65
  -2  -8   2    0.66    0.84
   1   8  -2   56.44    2.79
   1   8  -2   54.64    2.59
  -1  -8   2   56.73    3.31
  -1  -8   2   55.17    2.89
  -1  -8   2   53.08    2.54
   0   8  -2   26.20    1.56
   0  -8   2   26.24    1.76
   0  -8   2   27.44    1.66
  -1   8  -2   22.62    1.42
  -1   8  -2   24.80    1.66
   1  -8   2   22.33    1.58
   1  -8   2   24.51    1.99
  -2   8  -2   10.79    0.91
  -2   8  -2    8.84    1.18
   2  -8   2   11.16    1.04
   2  -8   2   11.71    1.58
  -3   8  -2   17.27    1.82
  -3   8  -2   19.25    1.30
   3  -8   2   17.48    1.37
   3  -8   2   17.43    1.62
  -4   8  -2    7.80    1.20
  -4   8  -2    5.80    0.96
   4  -8   2    6.06    1.13
   4  -8   2    4.32    0.71
  -5   8  -2   24.33    1.61
  -5   8  -2   24.21    1.75
   5  -8   2   23.76    1.90
   5  -8   2   24.50    1.72
  -6   8  -2   15.19    1.29
  -6   8  -2   15.23    1.50
   6  -8   2   16.84    1.65
   6  -8   2   18.31    1.45
  -7   8  -2    1.28    0.49
  -7   8  -2    0.16    0.68
   7  -8   2    1.12    0.48
   7  -8   2    0.49    0.66
  -8   8  -2    2.27    1.44
  -8   8  -2    3.19    0.73
  -8   8  -2    3.02    0.96
   8  -8   2    2.84    0.68
   8  -8   2    1.82    0.89
  -9   8  -2    0.42    1.14
  -9   8  -2    0.62    0.38
  -9   8  -2   -2.47    2.39
   9  -8   2   -0.46    0.80
   9  -8   2    0.46    0.35
 -10   8  -2    3.59    0.88
 -10   8  -2    1.82    1.27
  10  -8   2    3.66    0.88
 -11   8  -2    8.84    1.46
 -12   8  -2    0.15    0.19
 -13   8  -2    0.01    0.18
 -11  -7   2    9.81    1.52
 -10  -7   2    0.15    0.21
  -9  -7   2    2.33    0.74
  -9  -7   2    3.06    1.75
   8   7  -2   -0.71    1.03
  -8  -7   2    0.02    0.13
  -8  -7   2   -0.51    1.23
   7   7  -2    3.27    1.14
  -7  -7   2    4.56    0.95
  -7  -7   2    5.55    1.41
   6   7  -2    0.48    0.73
  -6  -7   2    0.37    0.94
  -6  -7   2    0.41    0.30
   5   7  -2   12.35    1.34
   5   7  -2   11.96    0.99
  -5  -7   2    9.42    1.45
  -5  -7   2   11.97    1.53
   4   7  -2   20.33    1.58
   4   7  -2   19.23    1.29
  -4  -7   2   19.74    1.28
  -4  -7   2   20.35    1.56
   3   7  -2   16.31    1.32
   3   7  -2   16.63    1.13
  -3  -7   2   14.53    1.28
  -3  -7   2   15.21    1.30
  -3  -7   2   19.11    1.81
  -3  -7   2   16.10    1.10
   2   7  -2   10.28    0.99
   2   7  -2    8.90    0.77
  -2  -7   2    7.91    1.02
  -2  -7   2   10.12    1.38
  -2  -7   2    8.42    0.81
   1   7  -2   16.35    1.11
   1   7  -2   17.57    1.24
  -1  -7   2   16.10    1.53
  -1  -7   2   15.44    1.05
  -1  -7   2   18.05    1.33
   0   7  -2    4.10    1.09
   0   7  -2    4.21    0.66
   0   7  -2    4.35    0.70
   0  -7   2    3.82    0.64
   0  -7   2    5.10    0.87
   0  -7   2    5.45    1.08
   0  -7   2    4.74    0.72
  -1   7  -2   87.85    3.76
  -1   7  -2   89.57    3.66
  -1   7  -2   86.60    4.44
   1  -7   2   94.57    3.94
   1  -7   2   87.52    4.22
   1  -7   2   85.69    3.70
  -2   7  -2    7.79    0.73
  -2   7  -2    8.49    0.85
  -2   7  -2    9.86    1.55
   2  -7   2    7.55    0.96
   2  -7   2    7.82    1.26
   2  -7   2    8.36    1.14
  -3   7  -2    4.68    0.76
  -3   7  -2    3.22    0.52
  -3   7  -2    4.18    1.03
   3  -7   2    5.44    1.02
   3  -7   2    4.74    0.87
  -4   7  -2    3.88    1.16
  -4   7  -2    3.28    0.74
  -4   7  -2    3.24    0.61
   4  -7   2    3.00    0.68
   4  -7   2    3.28    0.68
  -5   7  -2    9.26    1.11
  -5   7  -2    8.01    1.35
   5  -7   2    9.19    1.22
   5  -7   2    6.87    1.01
  -6   7  -2    8.06    1.06
  -6   7  -2    6.10    1.25
  -6   7  -2    9.40    1.22
   6  -7   2    8.85    1.17
   6  -7   2    7.02    1.05
  -7   7  -2   21.44    1.74
  -7   7  -2   22.72    1.61
  -7   7  -2   22.08    2.34
   7  -7   2   18.56    1.50
   7  -7   2   22.31    1.65
  -8   7  -2   12.45    1.56
  -8   7  -2   11.35    1.61
  -8   7  -2   12.58    1.20
   8  -7   2   11.95    1.27
   8  -7   2   12.83    1.22
  -9   7  -2    1.30    0.84
  -9   7  -2    0.77    0.37
  -9   7  -2    1.30    1.15
   9  -7   2    0.45    0.67
   9  -7   2    0.65    0.35
 -10   7  -2   11.01    1.70
 -10   7  -2   15.10    1.47
 -10   7  -2   15.21    1.51
 -11   7  -2    1.16    0.44
 -12   7  -2    0.85    0.40
 -13   7  -2    4.42    1.14
 -11  -6   2    4.72    1.12
  -9  -6   2    0.80    1.36
  -9  -6   2    0.27    0.24
  -8  -6   2   17.88    1.94
  -8  -6   2   17.56    1.62
   7   6  -2    9.63    1.36
  -7  -6   2   12.00    1.72
  -7  -6   2    8.43    1.32
   6   6  -2   13.64    1.40
   6   6  -2   11.77    1.01
  -6  -6   2   14.85    1.56
  -6  -6   2   13.04    1.64
   5   6  -2    4.65    0.85
   5   6  -2    3.06    0.56
  -5  -6   2    3.24    0.67
  -5  -6   2    3.52    0.89
  -5  -6   2    4.35    0.81
   4   6  -2    1.43    0.57
   4   6  -2    0.55    0.23
   4   6  -2    0.01    1.05
  -4  -6   2    0.59    0.23
  -4  -6   2    1.18    0.65
  -4  -6   2    0.83    0.36
   3   6  -2  140.11    6.19
   3   6  -2  142.89    5.56
   3   6  -2  145.39    5.41
  -3  -6   2  142.13    5.76
  -3  -6   2  138.27    5.35
  -3  -6   2  136.65    5.97
   2   6  -2    7.52    0.77
   2   6  -2    7.39    0.66
   2   6  -2    7.27    1.28
  -2  -6   2    7.31    0.70
  -2  -6   2    6.88    0.86
  -2  -6   2    8.53    1.25
  -2  -6   2    8.12    1.08
   1   6  -2   15.66    1.13
   1   6  -2   14.95    1.61
  -1  -6   2   14.13    1.42
  -1  -6   2   14.30    0.95
  -1  -6   2   16.40    1.15
  -1  -6   2   15.80    1.18
   0   6  -2    5.04    1.19
   0   6  -2    5.91    0.55
   0   6  -2    4.82    0.72
   0  -6   2    3.58    0.58
   0  -6   2    3.18    0.45
   0  -6   2    4.46    0.85
  -1   6  -2   35.73    1.75
  -1   6  -2   34.44    2.27
  -1   6  -2   36.99    1.87
   1  -6   2   36.06    1.94
   1  -6   2   36.83    2.19
   1  -6   2   33.15    1.76
  -2   6  -2    3.33    0.56
  -2   6  -2    2.74    0.47
  -2   6  -2    1.94    0.76
   2  -6   2    2.56    0.52
   2  -6   2    1.84    0.48
   2  -6   2    2.69    0.73
  -3   6  -2   14.70    1.10
  -3   6  -2   18.61    1.61
  -3   6  -2   14.71    1.01
   3  -6   2   14.11    1.26
   3  -6   2   20.38    1.45
   3  -6   2   13.68    1.25
  -4   6  -2   57.20    2.62
  -4   6  -2   60.93    2.75
  -4   6  -2   53.86    2.97
   4  -6   2   58.73    2.91
  -5   6  -2    1.57    0.38
  -5   6  -2    2.36    0.54
  -5   6  -2    2.08    0.74
   5  -6   2    1.72    0.44
   5  -6   2    1.24    0.53
   5  -6   2    1.93    0.56
  -6   6  -2   27.57    1.77
  -6   6  -2   31.57    1.77
  -6   6  -2   27.87    1.95
   6  -6   2   27.20    1.72
   6  -6   2   27.46    1.74
  -7   6  -2    2.51    0.70
  -7   6  -2    2.14    0.57
  -7   6  -2    0.58    0.72
   7  -6   2    2.02    0.54
   7  -6   2    1.34    0.54
  -8   6  -2    0.77    0.69
  -8   6  -2    0.28    0.21
  -8   6  -2   -1.41    0.75
   8  -6   2    0.13    0.16
   8  -6   2    0.74    0.53
  -9   6  -2    4.50    0.95
  -9   6  -2    2.92    0.71
  -9   6  -2    2.37    0.90
   9  -6   2    3.79    0.82
   9  -6   2    3.45    0.68
 -10   6  -2  145.34    6.60
 -10   6  -2  152.22    6.52
  10  -6   2  153.99    6.43
 -11   6  -2   64.51    3.89
 -11   6  -2   66.59    3.65
 -12   6  -2    3.13    0.90
 -13   6  -2    2.36    1.12
 -14   6  -2   30.81    2.55
 -12  -5   2    2.66    0.81
 -11  -5   2    1.44    0.59
 -10  -5   2    5.60    1.11
   9   5  -2    0.38    1.02
  -9  -5   2    1.61    1.08
  -9  -5   2    0.30    0.26
   8   5  -2    0.98    0.81
   8   5  -2   -1.25    1.86
  -8  -5   2    0.02    0.89
  -8  -5   2    0.35    0.29
   7   5  -2   68.33    4.08
   7   5  -2   71.74    3.35
   7   5  -2   79.41    3.66
  -7  -5   2   64.93    4.83
  -7  -5   2   81.89    3.73
   6   5  -2   27.78    1.65
   6   5  -2   30.26    2.41
   6   5  -2   27.28    1.86
  -6  -5   2   31.23    2.09
  -6  -5   2   29.86    1.98
   5   5  -2    6.82    1.28
   5   5  -2    7.95    1.00
   5   5  -2    8.96    0.78
  -5  -5   2    9.29    1.21
  -5  -5   2    8.91    1.26
  -5  -5   2    9.58    0.80
   4   5  -2    2.53    0.47
   4   5  -2    3.77    0.66
   4   5  -2    3.05    0.87
  -4  -5   2    2.62    0.62
  -4  -5   2    2.11    0.45
  -4  -5   2    2.54    0.58
  -4  -5   2    4.30    0.89
   3   5  -2   46.82    2.19
   3   5  -2   44.35    2.66
   3   5  -2   44.82    2.06
  -3  -5   2   42.27    2.02
  -3  -5   2   45.74    2.35
  -3  -5   2   44.29    2.52
  -3  -5   2   43.83    2.18
   2   5  -2    0.20    0.28
   2   5  -2    0.56    0.63
   2   5  -2    0.08    0.07
  -2  -5   2    0.16    0.11
  -2  -5   2    0.01    0.43
  -2  -5   2    0.04    0.10
  -2  -5   2   -0.01    0.30
   1   5  -2    9.76    1.10
   1   5  -2    9.50    0.75
  -1  -5   2    8.43    0.78
  -1  -5   2    9.74    1.01
  -1  -5   2    8.37    0.64
  -1  -5   2    8.44    0.77
   0   5  -2  155.42    6.54
   0   5  -2  170.02    6.07
   0  -5   2  166.76    5.97
   0  -5   2  163.82    6.01
   0  -5   2  161.42    6.22
   0  -5   2  166.13    6.54
  -1   5  -2    5.58    0.51
  -1   5  -2    5.52    0.97
  -1   5  -2    5.89    0.61
   1  -5   2    4.78    0.85
   1  -5   2    5.10    0.57
   1  -5   2    6.13    0.62
  -2   5  -2   22.12    1.62
  -2   5  -2   23.93    1.27
  -2   5  -2   23.19    1.33
   2  -5   2   24.29    1.33
   2  -5   2   24.74    1.42
   2  -5   2   26.42    1.66
  -3   5  -2    6.19    0.94
  -3   5  -2    7.56    0.69
  -3   5  -2   10.05    0.86
   3  -5   2    6.25    0.66
   3  -5   2    6.90    0.93
   3  -5   2   10.76    1.00
  -4   5  -2   16.94    1.05
  -4   5  -2   13.91    1.07
  -4   5  -2   17.26    1.36
   4  -5   2   15.48    1.09
   4  -5   2   15.80    1.20
  -5   5  -2    3.13    0.69
  -5   5  -2    3.46    0.64
  -5   5  -2    1.85    0.38
   5  -5   2    2.23    0.45
   5  -5   2    2.77    0.60
   5  -5   2    3.70    0.64
  -6   5  -2  284.30   10.39
  -6   5  -2  284.09   10.30
   6  -5   2  275.95   10.28
   6  -5   2  290.98   10.40
  -7   5  -2  225.59    8.88
  -7   5  -2  245.63    8.66
   7  -5   2  233.75    8.46
   7  -5   2  236.09    8.82
  -8   5  -2   24.83    1.66
  -8   5  -2   24.45    1.81
   8  -5   2   24.50    1.35
   8  -5   2   24.09    1.62
  -9   5  -2    1.34    0.48
  -9   5  -2    1.87    0.44
  -9   5  -2    0.57    0.49
  -9   5  -2    1.50    0.75
   9  -5   2    1.26    0.46
 -10   5  -2  108.77    5.12
  10  -5   2  106.88    4.85
 -11   5  -2   27.78    2.58
 -11   5  -2   28.28    2.10
 -12   5  -2    2.39    0.77
 -13   5  -2   11.92    1.76
 -14   5  -2    0.71    0.45
 -12  -4   2   -0.02    0.11
 -11  -4   2   40.69    3.45
  10   4  -2   36.23    2.79
 -10  -4   2   43.94    2.83
   9   4  -2    3.26    1.00
  -9  -4   2    3.57    0.92
  -9  -4   2    3.13    0.97
   8   4  -2    5.37    1.05
   8   4  -2    6.50    1.52
  -8  -4   2    5.65    0.94
  -8  -4   2    5.26    1.05
   7   4  -2   28.04    1.86
   7   4  -2   25.28    1.59
   7   4  -2   27.15    2.26
  -7  -4   2   27.16    1.92
  -7  -4   2   26.81    1.83
  -7  -4   2   25.85    1.70
   6   4  -2    5.47    0.87
   6   4  -2    5.44    0.75
   6   4  -2    5.41    1.15
  -6  -4   2    6.81    0.99
  -6  -4   2    5.14    0.68
  -6  -4   2    4.94    0.93
   5   4  -2   -0.18    0.60
   5   4  -2    0.36    0.39
   5   4  -2   -0.02    0.03
   5   4  -2    1.07    0.75
  -5  -4   2    0.53    0.51
  -5  -4   2    0.17    0.17
  -5  -4   2    0.07    0.10
   4   4  -2   82.70    3.93
   4   4  -2   86.57    3.53
   4   4  -2   79.85    3.41
   4   4  -2   90.75    4.19
  -4  -4   2   83.50    3.42
  -4  -4   2   84.90    3.75
  -4  -4   2   88.07    3.86
   3   4  -2   26.43    1.44
   3   4  -2   26.36    1.37
   3   4  -2   27.95    1.86
  -3  -4   2   25.76    1.35
  -3  -4   2   27.12    1.60
  -3  -4   2   25.97    1.45
  -3  -4   2   29.19    1.75
   2   4  -2   13.61    0.84
   2   4  -2   14.21    0.90
   2   4  -2   11.56    1.18
  -2  -4   2   12.60    1.14
  -2  -4   2   10.96    0.84
  -2  -4   2   13.08    0.81
  -2  -4   2   14.04    1.00
   1   4  -2   25.23    1.30
   1   4  -2   24.16    1.63
   1   4  -2   24.47    1.24
  -1  -4   2   23.30    1.21
  -1  -4   2   26.51    1.31
  -1  -4   2   26.82    1.64
  -1  -4   2   24.85    1.41
   0   4  -2   77.92    3.23
   0   4  -2   77.60    3.45
   0  -4   2   72.22    3.34
   0  -4   2   76.83    3.17
   0  -4   2   75.78    2.98
  -1   4  -2    8.34    1.04
   1  -4   2   13.02    1.09
   1  -4   2    7.71    0.64
   1  -4   2    7.15    0.55
  -2   4  -2  320.44   11.35
  -2   4  -2  314.12   10.97
   2  -4   2  314.99   10.92
   2  -4   2  310.55   11.27
  -3   4  -2  672.37   22.72
  -3   4  -2  669.97   22.99
   3  -4   2  657.26   22.68
   3  -4   2  678.18   22.93
  -4   4  -2   29.80    1.72
  -4   4  -2   30.05    1.52
  -4   4  -2   31.78    1.62
   4  -4   2   30.57    1.62
   4  -4   2   32.05    1.67
   4  -4   2   31.34    1.59
  -5   4  -2    5.17    0.72
  -5   4  -2    8.51    1.06
  -5   4  -2    5.01    0.79
  -5   4  -2    5.38    0.72
   5  -4   2    5.43    0.70
   5  -4   2    3.87    0.59
   5  -4   2    3.55    0.58
  -6   4  -2  175.11    6.63
  -6   4  -2  162.99    6.59
  -6   4  -2  171.95    6.42
   6  -4   2  173.54    6.28
   6  -4   2  177.93    6.55
   6  -4   2  170.97    6.55
  -7   4  -2  151.65    5.56
  -7   4  -2  151.58    5.86
  -7   4  -2  157.74    6.02
  -7   4  -2  144.66    5.95
   7  -4   2  149.99    5.86
   7  -4   2  150.40    5.43
   7  -4   2  138.84    6.13
  -8   4  -2    0.24    0.21
  -8   4  -2    0.00    0.11
  -8   4  -2   -0.54    0.38
   8  -4   2    0.13    0.28
   8  -4   2    1.18    0.40
  -9   4  -2   11.76    1.50
  -9   4  -2   13.72    1.20
  -9   4  -2   14.04    1.26
   9  -4   2   12.47    1.11
 -10   4  -2    0.38    0.31
 -10   4  -2    1.34    0.76
  10  -4   2    0.10    0.17
 -11   4  -2   -0.05    0.08
 -11   4  -2   -0.08    1.09
 -12   4  -2    1.35    1.41
 -12   4  -2    0.56    0.39
 -13   4  -2    5.64    1.11
 -14   4  -2    3.87    0.91
 -12  -3   2    2.81    0.88
 -11  -3   2   10.90    1.66
  10   3  -2    7.88    1.44
 -10  -3   2   12.24    1.71
   9   3  -2    0.47    0.83
   9   3  -2    0.53    1.21
  -9  -3   2    2.40    0.71
  -9  -3   2    2.18    0.76
   8   3  -2   27.74    2.20
   8   3  -2   26.48    1.95
   8   3  -2   28.15    1.76
  -8  -3   2   29.14    1.79
  -8  -3   2   30.28    2.37
  -8  -3   2   31.66    1.80
   7   3  -2   32.12    2.14
   7   3  -2   29.02    1.78
   7   3  -2   37.55    2.91
  -7  -3   2   31.68    1.83
  -7  -3   2   34.69    1.93
  -7  -3   2   34.70    2.19
   6   3  -2    1.04    0.32
   6   3  -2    1.16    0.44
   6   3  -2    0.75    0.67
   6   3  -2    1.58    0.82
  -6  -3   2    1.31    0.38
  -6  -3   2    1.67    0.53
  -6  -3   2    1.25    0.54
   5   3  -2    6.59    1.06
   5   3  -2    5.79    0.78
   5   3  -2    6.67    0.82
  -5  -3   2    6.96    0.92
  -5  -3   2    5.54    0.76
  -5  -3   2    6.75    1.01
   4   3  -2   32.63    1.62
   4   3  -2   33.90    1.69
   4   3  -2   30.30    1.91
   4   3  -2   32.58    1.87
  -4  -3   2   32.58    1.82
  -4  -3   2   31.60    1.58
  -4  -3   2   32.93    1.84
   3   3  -2   13.45    0.90
   3   3  -2   16.35    1.29
   3   3  -2   14.49    0.88
  -3  -3   2   14.02    0.86
  -3  -3   2   15.19    1.05
  -3  -3   2   13.45    0.93
   2   3  -2  167.16    6.43
   2   3  -2  169.97    6.00
  -2  -3   2  162.19    5.98
  -2  -3   2  170.87    6.37
  -2  -3   2  163.69    5.95
   1   3  -2  559.55   18.43
   1   3  -2  524.99   18.87
  -1  -3   2  539.93   18.40
  -1  -3   2  553.95   18.84
   0   3  -2  141.48    5.59
   0   3  -2  148.73    5.22
   0  -3   2  144.54    5.57
  -1   3  -2    2.05    0.33
  -1   3  -2    1.59    0.25
   1  -3   2    2.29    0.45
   1  -3   2    1.66    0.24
   1  -3   2    1.56    0.30
  -2   3  -2  220.70    7.74
  -2   3  -2  217.17    8.01
   2  -3   2  220.34    7.97
   2  -3   2  223.43    7.72
  -3   3  -2  394.71   13.33
  -3   3  -2  387.84   13.49
   3  -3   2  377.57   13.27
   3  -3   2  389.06   13.44
  -4   3  -2    0.07    0.08
  -4   3  -2    0.32    0.20
   4  -3   2    0.39    0.24
   4  -3   2    0.25    0.24
  -5   3  -2    2.25    0.51
  -5   3  -2    2.00    0.46
  -5   3  -2    2.60    0.47
  -5   3  -2    2.14    0.42
   5  -3   2    2.27    0.47
   5  -3   2    2.66    0.51
   5  -3   2    1.83    0.37
  -6   3  -2    0.70    0.34
  -6   3  -2    0.59    0.24
  -6   3  -2    0.31    0.31
   6  -3   2    2.72    0.53
   6  -3   2    0.31    0.22
   6  -3   2    0.39    0.41
  -7   3  -2    2.36    0.55
  -7   3  -2    3.24    0.70
  -7   3  -2    3.48    0.44
   7  -3   2    3.77    0.66
   7  -3   2    2.94    0.35
   7  -3   2    2.68    0.62
  -8   3  -2    8.08    1.12
  -8   3  -2    7.32    0.94
  -8   3  -2    7.72    1.05
   8  -3   2    9.38    0.85
  -9   3  -2    8.69    1.23
  -9   3  -2    6.61    0.97
  -9   3  -2    7.94    1.14
   9  -3   2    8.90    0.88
 -10   3  -2    3.34    0.92
 -10   3  -2    3.29    0.73
 -10   3  -2    2.78    0.61
  10  -3   2    2.52    0.58
 -11   3  -2   12.78    1.75
 -11   3  -2   11.85    1.49
 -12   3  -2    7.47    1.70
 -12   3  -2    7.32    1.23
 -13   3  -2    2.02    0.65
 -14   3  -2   11.31    1.75
 -13  -2   2    0.36    0.38
 -12  -2   2    1.33    0.57
  11   2  -2   10.91    2.80
 -11  -2   2   12.13    1.73
  10   2  -2    0.00    1.05
 -10  -2   2    0.40    0.32
   9   2  -2    6.16    1.13
  -9  -2   2    5.13    0.99
  -9  -2   2    7.61    0.80
   8   2  -2   15.43    1.55
   8   2  -2   19.72    1.59
   8   2  -2   17.86    1.31
  -8  -2   2   17.46    1.53
  -8  -2   2   16.82    1.21
  -8  -2   2   16.22    1.27
   7   2  -2   15.33    1.13
   7   2  -2   12.55    1.44
   7   2  -2   15.61    1.29
  -7  -2   2   15.72    1.36
  -7  -2   2   14.56    1.11
  -7  -2   2   17.13    1.23
   6   2  -2   17.51    1.16
   6   2  -2   15.70    1.22
   6   2  -2   20.25    1.50
   6   2  -2   17.39    1.45
  -6  -2   2   17.24    1.25
  -6  -2   2   17.09    1.39
  -6  -2   2   16.82    1.14
   5   2  -2  306.64   11.13
   5   2  -2  305.96   11.10
   5   2  -2  307.69   10.97
  -5  -2   2  314.49   11.00
   4   2  -2   75.95    3.26
   4   2  -2   80.16    3.13
   4   2  -2   77.94    3.11
   4   2  -2   72.30    3.31
  -4  -2   2   74.06    3.33
  -4  -2   2   73.40    3.05
  -4  -2   2   79.46    3.27
   3   2  -2    2.98    0.39
   3   2  -2    4.43    0.74
   3   2  -2    3.64    0.60
   3   2  -2    4.98    0.48
  -3  -2   2    3.51    0.56
  -3  -2   2    3.74    0.57
  -3  -2   2    3.81    0.39
   2   2  -2  124.60    4.67
   2   2  -2  116.12    4.25
  -2  -2   2  121.98    4.60
  -2  -2   2  106.78    4.37
   1   2  -2  435.95   14.97
   1   2  -2  409.97   14.53
  -1  -2   2  428.33   14.92
  -1  -2   2  448.96   14.56
   0   2  -2    9.89    0.57
   0   2  -2    9.23    0.78
   0   2  -2   10.47    0.74
   0  -2   2    9.09    0.77
   0  -2   2   11.93    0.67
   0  -2   2   10.08    0.57
   0  -2   2    8.92    0.63
  -1   2  -2   13.51    0.74
  -1   2  -2   16.20    0.94
  -1   2  -2   15.21    0.98
  -1   2  -2   15.00    0.74
   1  -2   2   14.25    0.93
   1  -2   2   14.21    0.83
   1  -2   2   18.65    0.85
   1  -2   2   14.10    0.74
  -2   2  -2    0.12    0.22
  -2   2  -2    0.43    0.13
  -2   2  -2    0.12    0.12
  -2   2  -2    0.17    0.10
   2  -2   2    0.16    0.14
   2  -2   2    0.27    0.16
   2  -2   2    0.30    0.18
  -3   2  -2    8.03    0.59
  -3   2  -2    8.22    0.61
  -3   2  -2    8.62    0.55
  -3   2  -2    7.84    0.67
   3  -2   2   11.25    0.75
   3  -2   2    9.35    0.71
   3  -2   2    8.73    0.64
  -4   2  -2   27.69    1.34
  -4   2  -2   26.80    1.36
  -4   2  -2   26.24    1.28
  -4   2  -2   30.39    1.44
   4  -2   2   27.28    1.34
   4  -2   2   28.52    1.30
  -5   2  -2    3.97    0.44
  -5   2  -2    2.20    0.33
  -5   2  -2    3.73    0.53
  -5   2  -2    4.26    0.59
   5  -2   2    3.51    0.57
   5  -2   2    2.97    0.36
   5  -2   2    3.51    0.49
  -6   2  -2    0.62    0.36
  -6   2  -2   -0.09    0.18
  -6   2  -2    0.14    0.15
  -6   2  -2    0.07    0.10
   6  -2   2    0.32    0.17
   6  -2   2    0.14    0.15
   6  -2   2    0.14    0.34
  -7   2  -2   63.41    3.00
  -7   2  -2   63.02    2.85
  -7   2  -2   64.62    2.83
   7  -2   2   61.38    2.92
   7  -2   2   60.57    2.73
  -8   2  -2    2.77    0.57
  -8   2  -2    3.34    0.72
  -8   2  -2    3.54    0.64
   8  -2   2    4.07    0.72
  -9   2  -2    2.50    0.83
  -9   2  -2    2.21    0.54
  -9   2  -2    2.18    0.76
   9  -2   2    2.04    0.48
 -10   2  -2   20.70    1.54
 -10   2  -2   20.99    1.80
  10  -2   2   18.94    1.39
 -11   2  -2   21.59    1.71
 -11   2  -2   22.46    2.12
 -12   2  -2    8.04    1.35
 -12   2  -2    3.47    1.30
 -13   2  -2    1.51    0.52
 -14   2  -2    1.46    0.59
 -15   2  -2    0.67    0.41
 -13  -1   2    0.99    0.52
 -12  -1   2    0.64    0.64
  11   1  -2   13.32    1.90
 -11  -1   2   13.00    1.85
  10   1  -2    1.01    0.99
 -10  -1   2    1.22    0.49
   9   1  -2   54.27    3.03
  -9  -1   2   62.84    3.69
   8   1  -2   41.65    2.11
   8   1  -2   44.03    2.43
  -8  -1   2   43.88    1.93
  -8  -1   2   40.23    2.26
  -8  -1   2   44.60    2.64
   7   1  -2    1.98    0.75
   7   1  -2    1.20    0.53
   7   1  -2    0.81    0.59
  -7  -1   2    1.31    0.50
  -7  -1   2    0.82    0.27
  -7  -1   2    0.61    0.45
   6   1  -2   20.43    1.38
   6   1  -2   20.85    1.34
   6   1  -2   20.46    1.51
  -6  -1   2   22.56    1.54
  -6  -1   2   19.59    1.23
  -6  -1   2   19.06    1.25
   5   1  -2  227.53    7.84
   5   1  -2  216.65    7.86
   5   1  -2  212.01    7.91
   5   1  -2  210.49    7.95
  -5  -1   2  222.80    7.79
  -5  -1   2  211.96    8.11
  -5  -1   2  203.18    7.76
   4   1  -2    6.91    0.58
   4   1  -2    9.01    0.79
   4   1  -2    7.52    0.81
  -4  -1   2    4.85    0.66
  -4  -1   2    6.56    0.56
  -4  -1   2    7.06    0.71
   3   1  -2   75.24    2.92
   3   1  -2   73.60    3.14
  -3  -1   2   74.80    3.08
  -3  -1   2   77.86    3.19
   2   1  -2    2.46    0.32
   2   1  -2    3.14    0.53
   2   1  -2    3.30    0.43
  -2  -1   2    3.86    0.67
  -2  -1   2    2.76    0.49
  -2  -1   2    3.79    0.37
   1   1  -2   21.33    0.90
   1   1  -2   19.94    0.95
   1   1  -2   21.51    1.17
  -1  -1   2   20.68    1.15
  -1  -1   2   20.70    0.91
  -1  -1   2   20.61    1.07
   0   1  -2   47.33    1.98
   0   1  -2   49.61    1.86
   0   1  -2   49.58    2.14
   0  -1   2   48.14    1.84
   0  -1   2   50.02    2.14
   0  -1   2   58.35    2.14
  -1   1  -2    4.61    0.36
  -1   1  -2    4.79    0.32
  -1   1  -2    4.56    0.30
  -1   1  -2    4.79    0.46
   1  -1   2    4.77    0.36
   1  -1   2    4.20    0.43
   1  -1   2    5.08    0.33
   1  -1   2    4.71    0.31
  -2   1  -2    3.22    0.25
  -2   1  -2    3.74    0.32
  -2   1  -2    3.51    0.38
   2  -1   2    3.78    0.32
   2  -1   2    3.29    0.38
   2  -1   2    3.28    0.28
   2  -1   2    3.20    0.29
  -3   1  -2  196.54    6.93
  -3   1  -2  200.70    6.90
   3  -1   2  191.88    6.89
   3  -1   2  199.74    6.89
  -4   1  -2    0.85    0.19
  -4   1  -2    0.76    0.21
  -4   1  -2    0.97    0.29
   4  -1   2    1.08    0.22
   4  -1   2    0.93    0.22
   4  -1   2    0.67    0.24
  -5   1  -2   20.79    1.09
  -5   1  -2   21.08    1.22
  -5   1  -2   21.39    0.91
  -5   1  -2   20.54    1.22
   5  -1   2   21.79    1.10
   5  -1   2   20.69    1.24
   5  -1   2   21.04    0.87
  -6   1  -2   28.26    1.49
  -6   1  -2   30.03    1.67
   6  -1   2   27.07    1.60
   6  -1   2   30.52    1.46
  -7   1  -2   88.52    3.94
  -7   1  -2   88.42    3.71
  -7   1  -2   92.92    3.76
   7  -1   2   93.28    4.17
   7  -1   2   92.66    3.69
  -8   1  -2    1.47    0.40
  -8   1  -2    1.31    0.38
  -8   1  -2    1.39    0.49
   8  -1   2    1.08    0.29
  -9   1  -2    1.62    0.68
  -9   1  -2    1.27    0.37
  -9   1  -2    1.06    0.37
   9  -1   2    1.01    0.32
 -10   1  -2   10.55    1.04
 -10   1  -2   14.36    1.74
 -10   1  -2   14.28    1.23
  10  -1   2   12.99    1.06
 -11   1  -2   -1.15    0.92
 -11   1  -2    0.24    0.18
 -11   1  -2    0.24    0.26
 -12   1  -2    1.61    1.27
 -13   1  -2   22.72    1.89
 -14   1  -2    5.24    1.06
 -15   1  -2    7.50    1.27
 -13   0   2    7.73    1.43
 -12   0   2   12.73    1.74
  11   0  -2    1.07    1.19
 -11   0   2    0.16    0.20
  10   0  -2    0.83    0.96
 -10   0   2    1.19    0.57
   9   0  -2   50.55    2.79
   9   0  -2   61.30    3.04
  -9   0   2   56.84    3.21
   8   0  -2    9.26    0.89
   8   0  -2    9.20    1.17
  -8   0   2   12.37    1.60
  -8   0   2    8.98    0.66
  -8   0   2    8.56    0.65
  -8   0   2    9.48    1.39
  -8   0   2    8.61    0.88
   7   0  -2   60.02    2.76
   7   0  -2   59.73    2.81
   7   0  -2   53.30    2.44
   7   0  -2   56.87    2.86
  -7   0   2   61.15    2.40
  -7   0   2   56.02    2.73
  -7   0   2   56.67    2.99
  -7   0   2   59.36    3.05
   6   0  -2    3.32    0.55
   6   0  -2    4.94    0.66
   6   0  -2    4.61    0.81
  -6   0   2    4.11    0.57
  -6   0   2    5.88    0.90
  -6   0   2    4.87    0.77
  -6   0   2    4.76    0.77
   5   0  -2    3.59    0.62
   5   0  -2    6.19    0.95
   5   0  -2    2.74    0.53
  -5   0   2    3.60    0.54
  -5   0   2    3.09    0.58
  -5   0   2    2.18    0.49
  -5   0   2    2.73    0.61
   4   0  -2   24.86    1.45
   4   0  -2   28.51    1.44
   4   0  -2   30.82    1.51
  -4   0   2   30.25    1.64
  -4   0   2   30.43    1.47
  -4   0   2   29.14    1.55
  -4   0   2   26.68    1.42
   3   0  -2   28.40    1.38
   3   0  -2   30.96    1.50
   3   0  -2   26.49    1.35
  -3   0   2   29.02    1.45
  -3   0   2   27.33    1.42
  -3   0   2   34.78    1.56
   2   0  -2    7.78    0.59
   2   0  -2    8.64    0.50
   2   0  -2    8.05    0.64
   2   0  -2    8.22    0.54
  -2   0   2    8.77    0.55
  -2   0   2    7.99    0.64
  -2   0   2    7.43    0.60
   1   0  -2  125.53    4.36
   1   0  -2  130.62    4.43
   1   0  -2  122.31    4.66
  -1   0   2  130.43    4.68
   0   0  -2   36.49    1.54
   0   0  -2   41.57    1.39
   0   0  -2   37.39    1.67
   0   0   2   36.22    1.46
   0   0   2   38.46    1.68
   0   0   2   37.79    1.55
   0   0   2   42.44    1.38
  -1   0  -2    2.57    0.18
  -1   0  -2    2.97    0.31
  -1   0  -2    1.98    0.18
  -1   0  -2    2.87    0.24
   1   0   2    2.17    0.17
   1   0   2    2.73    0.37
   1   0   2    2.65    0.19
   1   0   2    2.68    0.22
  -2   0  -2    4.15    0.37
  -2   0  -2    4.29    0.33
  -2   0  -2    3.98    0.28
  -2   0  -2    4.46    0.25
   2   0   2    4.08    0.25
   2   0   2    4.29    0.38
   2   0   2    4.88    0.29
  -3   0  -2  425.35   14.29
  -3   0  -2  425.61   14.18
   3   0   2  410.96   14.18
  -4   0  -2    4.25    0.35
  -4   0  -2    4.11    0.35
  -4   0  -2    4.84    0.48
   4   0   2    5.37    0.37
   4   0   2    3.92    0.33
   4   0   2    4.27    0.47
  -5   0  -2    2.66    0.40
  -5   0  -2    2.76    0.41
  -5   0  -2    3.37    0.57
   5   0   2    3.34    0.44
   5   0   2    3.02    0.52
   5   0   2    2.69    0.18
  -6   0  -2   65.58    2.70
  -6   0  -2   67.00    2.97
  -6   0  -2   66.20    2.77
   6   0   2   63.26    2.63
   6   0   2   65.89    2.94
  -7   0  -2    1.95    0.41
  -7   0  -2    3.55    0.69
  -7   0  -2    2.22    0.49
   7   0   2    2.42    0.47
  -8   0  -2    0.45    0.22
  -8   0  -2    0.18    0.14
  -8   0  -2    0.23    0.50
   8   0   2    0.15    0.12
  -9   0  -2   19.23    1.65
  -9   0  -2   17.81    1.25
  -9   0  -2   17.81    1.31
   9   0   2   16.46    1.29
 -10   0  -2   33.76    2.28
 -10   0  -2   29.35    1.90
 -10   0  -2   27.12    2.24
  10   0   2   31.71    1.95
 -11   0  -2   21.00    1.58
 -11   0  -2   18.25    2.22
 -11   0  -2   17.51    1.40
 -12   0  -2    4.07    0.91
 -12   0  -2    4.00    1.45
 -13   0  -2    1.14    0.50
 -14   0  -2    0.43    0.32
 -15   0  -2   13.91    1.87
 -13   1   2   10.73    1.85
 -12   1   2    9.08    1.52
  11  -1  -2   14.02    1.94
 -11   1   2   18.40    1.75
  10  -1  -2    4.65    0.96
  10  -1  -2    4.48    1.09
 -10   1   2    3.79    1.30
 -10   1   2    6.17    1.25
   9  -1  -2    4.55    0.79
  -9   1   2    5.15    0.94
  -9   1   2    4.69    1.18
   8  -1  -2    3.68    0.68
  -8   1   2    3.95    0.96
  -8   1   2    1.93    0.57
   7  -1  -2   53.10    2.64
   7  -1  -2   51.29    2.74
  -7   1   2   55.50    2.17
  -7   1   2   57.96    2.25
  -7   1   2   58.76    2.98
  -7   1   2   57.00    2.89
   6  -1  -2    2.90    0.63
   6  -1  -2    3.83    0.66
  -6   1   2    4.00    0.77
  -6   1   2    3.77    0.52
  -6   1   2    4.43    0.49
  -6   1   2    3.31    0.66
   5  -1  -2   17.66    1.17
   5  -1  -2   19.51    1.13
   5  -1  -2   18.47    1.15
  -5   1   2   18.51    1.25
  -5   1   2   19.12    1.31
  -5   1   2   19.28    1.26
  -5   1   2   19.27    1.09
   4  -1  -2   99.72    3.88
   4  -1  -2  101.33    3.84
   4  -1  -2  103.97    3.83
  -4   1   2  102.93    3.93
  -4   1   2   97.90    4.06
  -4   1   2   96.55    3.80
  -4   1   2   95.39    3.87
   3  -1  -2    5.40    0.48
   3  -1  -2    6.25    0.58
   3  -1  -2    6.23    0.51
  -3   1   2    6.35    0.59
  -3   1   2    6.19    0.52
  -3   1   2    5.41    0.55
  -3   1   2    6.12    0.51
   2  -1  -2    2.99    0.43
   2  -1  -2    1.96    0.37
   2  -1  -2    2.13    0.29
  -2   1   2    2.06    0.48
  -2   1   2    3.51    0.49
  -2   1   2    3.35    0.44
   1  -1  -2  211.79    7.77
   1  -1  -2  216.23    7.47
  -1   1   2  227.90    7.49
  -1   1   2  233.29    7.82
   0  -1  -2   49.38    2.05
   0   1   2   51.32    1.91
  -1  -1  -2   11.17    0.45
  -1  -1  -2   10.66    0.65
  -1  -1  -2   11.52    0.48
  -1  -1  -2   10.91    0.50
   1   1   2   11.36    0.69
   1   1   2   11.29    0.50
   1   1   2   11.15    0.48
   1   1   2   11.27    0.45
  -2  -1  -2   49.16    1.92
   2   1   2   48.14    1.99
   2   1   2   50.44    1.90
   2   1   2   50.60    1.92
  -3  -1  -2    9.49    0.46
  -3  -1  -2   10.74    0.68
   3   1   2    9.88    0.54
   3   1   2    9.03    0.63
   3   1   2    9.49    0.61
   3   1   2    9.99    0.45
  -4  -1  -2    2.40    0.24
  -4  -1  -2    1.82    0.39
   4   1   2    1.72    0.24
   4   1   2    1.68    0.23
   4   1   2    1.22    0.34
   4   1   2    1.64    0.29
  -5  -1  -2   12.24    0.95
  -5  -1  -2   12.98    0.76
   5   1   2   12.46    0.69
   5   1   2   12.40    0.63
   5   1   2   13.13    0.99
   5   1   2   14.08    0.71
  -6  -1  -2  116.35    4.75
  -6  -1  -2  113.37    4.43
   6   1   2  115.39    4.01
   6   1   2  118.19    4.72
   6   1   2  123.95    4.05
   6   1   2  114.92    4.31
  -7  -1  -2   29.69    1.62
  -7  -1  -2   32.10    1.88
  -7  -1  -2   30.63    1.60
   7   1   2   29.40    1.86
   7   1   2   29.82    1.47
  -8  -1  -2   43.60    2.12
  -8  -1  -2   47.37    2.27
  -8  -1  -2   45.08    2.54
   8   1   2   44.60    2.07
  -9  -1  -2    4.18    0.94
  -9  -1  -2    2.87    0.62
  -9  -1  -2    2.18    0.47
   9   1   2    3.62    0.62
 -10  -1  -2   -0.64    0.80
 -10  -1  -2    0.34    0.19
 -11  -1  -2   52.19    3.36
 -11  -1  -2   54.70    2.89
 -11  -1  -2   51.49    2.70
 -12  -1  -2    9.22    1.28
 -12  -1  -2    8.19    1.87
 -13  -1  -2    0.57    0.34
 -14  -1  -2    3.82    0.89
 -15  -1  -2    2.93    0.88
 -13   2   2    0.19    0.24
 -12   2   2    0.07    0.21
 -11   2   2   15.54    2.02
  10  -2  -2    0.43    0.29
 -10   2   2    1.24    1.14
 -10   2   2    0.74    0.45
  -9   2   2    1.53    0.88
   8  -2  -2   26.30    1.68
  -8   2   2   27.10    1.93
  -8   2   2   25.58    1.87
   7  -2  -2    0.99    0.35
   7  -2  -2    0.43    0.58
  -7   2   2    0.90    0.32
  -7   2   2    0.52    0.34
  -7   2   2    1.12    0.57
  -7   2   2    1.61    0.53
   6  -2  -2    9.44    0.98
   6  -2  -2    7.80    0.76
  -6   2   2   10.15    0.97
  -6   2   2    8.18    0.65
  -6   2   2   10.01    0.78
  -6   2   2   10.47    0.95
   5  -2  -2   65.27    2.77
   5  -2  -2   62.35    2.81
  -5   2   2   66.57    2.68
  -5   2   2   65.41    3.04
  -5   2   2   63.69    2.55
  -5   2   2   66.45    2.86
   4  -2  -2  110.66    4.22
   4  -2  -2  113.68    4.34
  -4   2   2  113.19    4.14
  -4   2   2  111.60    4.25
  -4   2   2  109.42    4.28
  -4   2   2  116.20    4.53
   3  -2  -2   18.26    0.97
   3  -2  -2   24.76    1.27
  -3   2   2   20.19    1.01
  -3   2   2   17.74    1.07
  -3   2   2   18.41    1.00
  -3   2   2   19.62    1.16
   2  -2  -2   11.51    0.73
   2  -2  -2   10.73    0.59
  -2   2   2   12.54    0.79
  -2   2   2   10.99    0.69
  -2   2   2   11.84    0.62
   1  -2  -2    4.35    0.35
   1  -2  -2    3.90    0.26
   1  -2  -2    3.97    0.35
  -1   2   2    4.17    0.27
  -1   2   2    4.75    0.39
  -1   2   2    4.84    0.41
  -1   2   2    4.72    0.46
   0  -2  -2    9.69    0.59
   0  -2  -2    8.57    0.38
   0  -2  -2    9.17    0.48
   0  -2  -2    8.91    0.47
   0   2   2    8.05    0.38
   0   2   2    9.47    0.51
   0   2   2    9.24    0.60
   0   2   2    9.02    0.47
  -1  -2  -2    0.45    0.11
  -1  -2  -2    0.70    0.18
  -1  -2  -2    0.64    0.09
   1   2   2    0.67    0.12
   1   2   2    0.64    0.10
   1   2   2    0.88    0.21
  -2  -2  -2  184.21    6.28
   2   2   2  182.10    6.26
   2   2   2  177.71    6.26
   2   2   2  170.59    6.15
  -3  -2  -2   73.28    2.81
  -3  -2  -2   74.73    2.95
   3   2   2   73.13    2.81
   3   2   2   75.82    2.93
  -4  -2  -2  139.18    5.05
  -4  -2  -2  144.59    5.35
   4   2   2  139.66    5.05
   4   2   2  144.82    5.33
  -5  -2  -2    8.70    0.55
  -5  -2  -2    8.28    0.82
  -5  -2  -2    8.31    0.57
  -5  -2  -2    7.56    0.50
   5   2   2    7.33    0.80
   5   2   2    7.50    0.48
   5   2   2    9.31    0.61
  -6  -2  -2    3.83    0.52
  -6  -2  -2    3.04    0.35
  -6  -2  -2    3.87    0.37
  -6  -2  -2    2.41    0.63
   6   2   2    2.50    0.36
   6   2   2    3.53    0.68
   6   2   2    2.92    0.40
  -7  -2  -2  169.92    6.69
  -7  -2  -2  169.42    6.12
   7   2   2  165.64    5.87
   7   2   2  161.12    6.57
   7   2   2  165.15    6.19
   7   2   2  174.36    5.92
  -8  -2  -2   68.13    3.04
  -8  -2  -2   67.59    3.45
  -8  -2  -2   69.31    2.91
  -9  -2  -2    1.17    0.75
  -9  -2  -2    0.80    0.28
  -9  -2  -2    1.15    0.38
 -10  -2  -2   14.96    1.22
 -10  -2  -2   11.92    1.68
 -10  -2  -2   14.21    1.09
  10   2   2   14.46    1.58
 -11  -2  -2    2.34    0.54
 -11  -2  -2    4.41    0.89
 -11  -2  -2    2.34    1.33
  11   2   2    2.57    1.07
 -12  -2  -2    1.74    0.58
  12   2   2    1.43    1.14
 -13  -2  -2    4.66    0.95
 -14  -2  -2   19.97    1.75
 -13   3   2    0.35    0.33
 -12   3   2    9.34    1.58
 -11   3   2    0.76    0.41
 -11   3   2   -2.83    1.54
  10  -3  -2    1.56    0.51
 -10   3   2    2.08    0.69
 -10   3   2    3.28    1.15
   9  -3  -2    4.27    0.87
  -9   3   2    0.61    0.79
  -9   3   2    3.70    0.92
   8  -3  -2   44.79    2.46
  -8   3   2   48.06    2.75
  -8   3   2   45.31    2.61
   7  -3  -2    1.81    0.44
   7  -3  -2    2.08    0.66
  -7   3   2    2.31    0.57
  -7   3   2    1.61    0.42
  -7   3   2    2.10    0.42
  -7   3   2    2.08    0.61
   6  -3  -2    0.01    0.16
   6  -3  -2    0.05    0.43
  -6   3   2    0.41    0.37
  -6   3   2    0.19    0.35
  -6   3   2   -0.26    0.29
   5  -3  -2    7.01    0.67
   5  -3  -2    6.45    0.74
  -5   3   2    4.61    0.66
  -5   3   2    6.31    0.78
  -5   3   2    6.08    0.71
  -5   3   2    5.24    0.58
   4  -3  -2    9.60    0.82
   4  -3  -2    6.88    0.63
  -4   3   2    5.39    0.59
  -4   3   2    6.70    0.68
  -4   3   2    7.15    0.63
  -4   3   2    9.45    1.18
   3  -3  -2   23.46    1.19
   3  -3  -2   25.89    1.35
  -3   3   2   26.19    1.30
  -3   3   2   25.77    1.24
  -3   3   2   24.84    1.34
  -3   3   2   29.68    1.47
   2  -3  -2   52.14    2.19
   2  -3  -2   53.76    2.04
  -2   3   2   52.89    2.21
  -2   3   2   52.29    2.06
   1  -3  -2    0.27    0.11
   1  -3  -2    0.58    0.18
   1  -3  -2    0.51    0.19
  -1   3   2    1.18    0.27
  -1   3   2    0.33    0.13
  -1   3   2    0.17    0.16
   0  -3  -2  404.69   12.30
   0  -3  -2  351.62   12.56
   0   3   2  339.79   12.27
   0   3   2  367.70   12.60
  -1  -3  -2   30.04    1.16
  -1  -3  -2   30.98    1.22
  -1  -3  -2   30.14    1.43
  -1  -3  -2   30.90    1.13
   1   3   2   30.81    1.20
   1   3   2   28.25    1.41
   1   3   2   26.80    1.19
  -2  -3  -2    2.79    0.20
  -2  -3  -2    2.97    0.31
  -2  -3  -2    3.84    0.50
  -2  -3  -2    3.14    0.18
   2   3   2    3.01    0.18
   2   3   2    3.63    0.50
   2   3   2    2.71    0.29
  -3  -3  -2  349.27   12.49
   3   3   2  361.92   12.50
   3   3   2  377.17   12.43
  -4  -3  -2  480.03   16.49
   4   3   2  484.27   16.68
   4   3   2  484.60   16.51
   4   3   2  484.20   16.75
  -5  -3  -2    1.68    0.37
  -5  -3  -2    2.18    0.39
  -5  -3  -2    2.53    0.34
   5   3   2    1.41    0.36
   5   3   2    2.03    0.49
   5   3   2    1.71    0.40
  -6  -3  -2   27.86    1.31
  -6  -3  -2   28.94    1.40
  -6  -3  -2   31.13    1.46
   6   3   2   27.98    1.62
   6   3   2   27.37    1.77
   6   3   2   28.16    1.46
  -7  -3  -2    1.58    0.35
  -7  -3  -2    1.35    0.35
  -7  -3  -2    1.35    0.32
   7   3   2    0.56    0.44
   7   3   2    0.35    0.66
   7   3   2    0.95    0.44
  -8  -3  -2   20.70    1.33
  -8  -3  -2   19.84    1.17
  -8  -3  -2   21.97    1.07
   8   3   2   19.58    1.50
   8   3   2   21.08    1.23
  -9  -3  -2    7.73    1.05
  -9  -3  -2    6.85    0.65
   9   3   2    5.71    0.65
   9   3   2    6.48    0.65
   9   3   2    4.00    0.85
 -10  -3  -2   52.53    2.73
 -10  -3  -2   50.75    2.50
  10   3   2   54.92    3.04
 -11  -3  -2    3.15    0.61
 -11  -3  -2    2.72    0.67
 -12  -3  -2    0.19    0.19
 -14  -3  -2    1.34    0.51
 -13   4   2    0.31    0.31
 -12   4   2   15.41    2.15
 -11   4   2    2.26    1.43
  10  -4  -2    0.39    0.28
 -10   4   2    1.83    1.11
 -10   4   2    0.43    0.34
   9  -4  -2    2.30    0.63
  -9   4   2    1.11    0.55
  -9   4   2    0.21    0.78
   8  -4  -2    2.99    0.67
  -8   4   2    4.27    0.53
  -8   4   2    3.31    0.81
  -8   4   2    3.23    0.51
  -8   4   2    3.78    0.83
   7  -4  -2   13.27    1.11
   7  -4  -2   16.52    1.30
  -7   4   2   12.95    1.02
  -7   4   2   13.67    1.22
  -7   4   2   11.60    0.96
  -7   4   2   11.52    1.15
   6  -4  -2    1.35    0.53
   6  -4  -2    1.04    0.34
  -6   4   2    0.33    0.41
  -6   4   2    0.12    0.38
  -6   4   2    0.36    0.45
  -6   4   2    0.78    0.38
   5  -4  -2    0.36    0.33
   5  -4  -2    0.54    0.21
  -5   4   2    0.39    0.37
  -5   4   2    1.48    0.39
  -5   4   2   -0.07    0.27
   4  -4  -2  156.20    5.73
  -4   4   2  161.46    6.03
  -4   4   2  153.12    5.91
   3  -4  -2   41.88    1.98
   3  -4  -2   43.86    1.98
   3  -4  -2   42.76    1.96
   3  -4  -2   39.69    1.81
  -3   4   2   43.15    2.06
  -3   4   2   47.18    1.91
   2  -4  -2   17.16    1.06
   2  -4  -2   17.84    1.01
   2  -4  -2   16.05    0.89
  -2   4   2   17.18    0.91
  -2   4   2   22.47    1.25
   1  -4  -2  325.34   11.09
   1  -4  -2  311.86   10.75
  -1   4   2  312.22   10.77
   0  -4  -2  653.09   23.19
   0  -4  -2  702.36   22.86
   0   4   2  694.70   22.87
  -1  -4  -2   84.83    3.17
  -1  -4  -2   82.04    3.45
   1   4   2   85.57    3.70
   1   4   2   91.95    3.20
  -2  -4  -2   11.35    0.58
  -2  -4  -2   10.85    0.51
  -2  -4  -2   10.10    0.83
   2   4   2   11.13    0.67
   2   4   2   10.00    0.85
   2   4   2   10.84    0.52
  -3  -4  -2    0.53    0.24
  -3  -4  -2    0.57    0.12
  -3  -4  -2    0.58    0.26
  -3  -4  -2    0.58    0.15
   3   4   2    0.72    0.32
   3   4   2    0.83    0.24
   3   4   2    0.78    0.36
  -4  -4  -2   39.12    1.50
  -4  -4  -2   37.34    1.88
  -4  -4  -2   38.06    1.59
   4   4   2   39.37    2.01
   4   4   2   35.98    1.80
   4   4   2   40.23    1.93
  -5  -4  -2    5.53    0.46
  -5  -4  -2    5.69    0.72
  -5  -4  -2    5.77    0.40
   5   4   2    5.43    0.72
   5   4   2    6.37    0.81
   5   4   2    5.01    0.77
  -6  -4  -2  151.88    5.72
  -6  -4  -2  149.06    5.62
   6   4   2  146.62    5.78
   6   4   2  163.80    6.19
   6   4   2  154.83    5.92
  -7  -4  -2   38.28    1.81
  -7  -4  -2   43.83    2.03
  -7  -4  -2   41.79    1.97
   7   4   2   40.88    2.25
   7   4   2   42.40    2.12
  -8  -4  -2    2.57    0.53
  -8  -4  -2    2.75    0.48
  -8  -4  -2    2.06    0.48
   8   4   2    1.01    0.66
   8   4   2    2.84    0.75
  -9  -4  -2   22.82    1.35
  -9  -4  -2   24.88    1.58
  -9  -4  -2   23.12    1.27
   9   4   2   23.92    1.86
   9   4   2   25.62    1.77
 -10  -4  -2    4.03    0.75
 -10  -4  -2    3.19    0.57
  10   4   2    3.56    0.96
  10   4   2    3.44    0.70
  10   4   2    3.12    0.65
 -11  -4  -2    3.18    0.75
  11   4   2    2.05    1.13
 -12  -4  -2    4.44    0.84
 -12  -4  -2    3.58    0.65
 -13  -4  -2   66.16    3.48
 -14  -4  -2    9.12    1.26
 -13   5   2    1.91    0.78
 -12   5   2    1.19    0.60
 -11   5   2    1.63    1.46
 -11   5   2    3.02    0.84
  10  -5  -2    7.28    1.24
 -10   5   2    8.94    1.54
 -10   5   2    6.59    1.44
   9  -5  -2    0.10    0.17
  -9   5   2   -1.90    0.80
  -9   5   2    0.08    0.19
   8  -5  -2   65.85    3.41
  -8   5   2   58.88    2.53
  -8   5   2   60.65    3.27
  -8   5   2   56.84    2.55
  -8   5   2   55.89    3.51
   7  -5  -2   17.72    1.32
   7  -5  -2   14.08    1.41
  -7   5   2   15.31    1.34
  -7   5   2   13.29    1.35
  -7   5   2   15.05    1.20
  -7   5   2   13.35    1.18
   6  -5  -2    0.93    0.34
  -6   5   2    0.73    0.34
  -6   5   2    1.17    0.52
  -6   5   2    1.63    0.57
  -6   5   2    1.44    0.51
   5  -5  -2   91.46    3.89
   5  -5  -2   91.65    3.69
  -5   5   2   89.32    3.83
  -5   5   2   90.95    3.77
  -5   5   2   88.73    3.95
  -5   5   2   93.11    3.77
   4  -5  -2  582.11   20.80
   4  -5  -2  612.95   20.41
  -4   5   2  612.97   20.47
  -4   5   2  589.65   20.59
   3  -5  -2  124.73    5.07
   3  -5  -2  122.23    4.56
   3  -5  -2  117.80    4.66
  -3   5   2  119.36    4.82
  -3   5   2  126.03    4.64
  -3   5   2  125.78    4.82
   2  -5  -2    0.40    0.19
   2  -5  -2    0.70    0.23
   2  -5  -2    0.71    0.23
   2  -5  -2    0.43    0.27
  -2   5   2    0.23    0.33
  -2   5   2    0.45    0.23
  -2   5   2    0.57    0.21
   1  -5  -2    0.14    0.09
   1  -5  -2    0.07    0.18
   1  -5  -2    0.59    0.18
   1  -5  -2    2.68    0.60
  -1   5   2    1.05    0.41
  -1   5   2    0.28    0.16
  -1   5   2    0.50    0.18
   0  -5  -2  110.72    3.90
   0  -5  -2  108.19    4.56
   0   5   2  102.90    4.28
   0   5   2  107.65    3.91
   0   5   2   99.39    3.88
  -1  -5  -2    8.52    0.59
  -1  -5  -2   11.54    0.58
  -1  -5  -2    9.17    0.65
   1   5   2    9.34    0.57
   1   5   2   10.23    0.91
   1   5   2    9.99    0.66
  -2  -5  -2  118.39    4.27
  -2  -5  -2  110.90    4.58
   2   5   2  112.14    4.39
   2   5   2  112.51    4.59
  -3  -5  -2  122.83    4.64
  -3  -5  -2  120.72    4.91
   3   5   2  127.71    4.65
   3   5   2  123.17    4.94
  -4  -5  -2    0.43    0.37
  -4  -5  -2    0.35    0.12
   4   5   2    0.13    0.40
   4   5   2    0.73    0.31
   4   5   2    1.43    0.81
  -5  -5  -2   21.69    1.12
  -5  -5  -2   19.55    1.37
  -5  -5  -2   21.78    1.00
   5   5   2   19.70    1.45
   5   5   2   20.87    1.33
  -6  -5  -2    9.90    0.92
  -6  -5  -2    9.17    0.61
  -6  -5  -2    8.93    0.71
   6   5   2    8.91    1.24
   6   5   2    9.34    1.11
   6   5   2    8.22    0.98
  -7  -5  -2    1.39    0.48
  -7  -5  -2    0.89    0.26
  -7  -5  -2    2.33    0.47
   7   5   2    0.57    0.52
   7   5   2    1.01    0.69
  -8  -5  -2    0.57    0.51
  -8  -5  -2    0.92    0.28
  -8  -5  -2    0.73    0.28
   8   5   2    0.84    0.87
   8   5   2   -0.11    0.51
  -9  -5  -2  146.94    5.83
  -9  -5  -2  151.46    5.60
  -9  -5  -2  145.57    5.57
   9   5   2  143.75    6.21
   9   5   2  145.93    5.89
 -10  -5  -2   50.40    2.23
 -10  -5  -2   45.37    2.48
  10   5   2   45.83    2.64
  10   5   2   47.82    2.93
 -11  -5  -2    1.06    0.34
 -11  -5  -2    0.65    0.33
  11   5   2    0.30    1.17
 -12  -5  -2    1.32    0.39
 -12  -5  -2    1.62    0.50
 -13  -5  -2   19.29    1.56
 -14  -5  -2    0.13    0.17
 -13   6   2   -0.05    0.16
 -12   6   2   14.66    2.03
 -11   6   2   12.26    1.74
 -11   6   2   12.49    2.03
  10  -6  -2    4.25    0.91
 -10   6   2    6.77    1.36
 -10   6   2    3.91    1.03
   9  -6  -2   24.64    1.82
  -9   6   2   24.40    1.48
  -9   6   2   22.64    1.92
  -9   6   2   23.44    2.10
  -9   6   2   23.89    1.50
   8  -6  -2  181.85    7.20
  -8   6   2  176.01    6.55
  -8   6   2  171.27    6.64
  -8   6   2  176.71    7.39
  -8   6   2  173.95    7.09
   7  -6  -2  119.88    4.93
  -7   6   2   97.36    4.58
  -7   6   2   95.23    4.33
  -7   6   2   91.33    4.16
  -7   6   2   98.11    4.13
   6  -6  -2   -0.03    0.04
   6  -6  -2    0.13    0.54
  -6   6   2    0.68    0.46
  -6   6   2    0.14    0.58
  -6   6   2   -0.24    0.52
  -6   6   2    0.01    0.08
   5  -6  -2    0.59    0.39
   5  -6  -2    0.86    0.43
  -5   6   2    0.13    0.58
  -5   6   2    0.11    0.14
  -5   6   2    1.09    0.43
   4  -6  -2   73.84    3.32
   4  -6  -2   74.18    3.35
   4  -6  -2   76.91    3.19
  -4   6   2   76.22    3.46
  -4   6   2   79.06    3.46
  -4   6   2   80.33    3.28
   3  -6  -2    6.14    0.80
   3  -6  -2    6.37    0.68
   3  -6  -2    5.61    0.77
   3  -6  -2    4.64    0.60
  -3   6   2    5.97    0.65
  -3   6   2    6.24    0.89
  -3   6   2    7.12    0.90
   2  -6  -2   31.94    1.66
   2  -6  -2   29.99    1.79
   2  -6  -2   34.18    1.71
   2  -6  -2   35.79    1.61
  -2   6   2   33.50    1.62
  -2   6   2   31.43    1.92
   1  -6  -2  186.67    7.17
   1  -6  -2  193.66    6.78
  -1   6   2  187.87    7.27
  -1   6   2  189.55    6.79
   0  -6  -2    1.10    0.30
   0  -6  -2    0.27    0.24
   0  -6  -2    0.65    0.19
   0  -6  -2    0.44    0.36
   0   6   2    0.87    0.28
   0   6   2    0.56    0.20
   0   6   2    1.04    0.44
  -1  -6  -2    3.31    0.66
  -1  -6  -2    3.32    0.43
  -1  -6  -2    2.33    0.43
   1   6   2    3.99    0.52
   1   6   2    2.06    0.63
   1   6   2    2.23    0.34
  -2  -6  -2   15.41    0.90
  -2  -6  -2   14.95    1.21
  -2  -6  -2   16.46    0.82
  -2  -6  -2   16.56    1.04
   2   6   2   16.68    1.01
   2   6   2   17.07    1.36
   2   6   2   15.29    0.83
  -3  -6  -2    0.43    0.13
  -3  -6  -2    0.72    0.32
  -3  -6  -2    0.52    0.19
  -3  -6  -2    0.04    0.40
   3   6   2    0.26    0.26
   3   6   2    0.38    0.44
  -4  -6  -2    3.76    0.34
  -4  -6  -2    4.67    0.45
  -4  -6  -2    4.07    0.77
  -4  -6  -2    3.44    0.75
   4   6   2    4.13    0.93
   4   6   2    5.16    0.68
   4   6   2    2.95    0.79
  -5  -6  -2  149.54    5.78
   5   6   2  142.37    5.82
   5   6   2  137.66    5.55
   5   6   2  138.84    5.85
  -6  -6  -2  129.79    4.62
  -6  -6  -2  124.90    4.82
  -6  -6  -2  126.30    5.17
   6   6   2  113.38    5.18
   6   6   2  130.77    5.14
  -7  -6  -2    2.57    0.67
  -7  -6  -2    2.93    0.53
  -7  -6  -2    2.40    0.41
   7   6   2    1.91    0.57
   7   6   2    3.17    0.95
  -8  -6  -2    3.66    0.85
  -8  -6  -2    4.17    0.59
  -8  -6  -2    2.69    0.69
   8   6   2    2.77    0.76
   8   6   2    3.67    1.16
  -9  -6  -2   35.82    2.02
  -9  -6  -2   39.11    2.12
   9   6   2   35.86    2.43
   9   6   2   32.28    2.60
 -10  -6  -2    0.94    0.29
 -10  -6  -2    0.85    0.35
 -10  -6  -2    1.34    0.79
  10   6   2    1.16    1.05
 -11  -6  -2    3.33    0.60
 -11  -6  -2    2.67    0.62
 -12  -6  -2    0.92    0.33
 -13  -6  -2    2.42    0.63
 -12   7   2   53.35    3.63
 -11   7   2   51.57    3.47
  10  -7  -2    0.25    0.24
 -10   7   2   -0.02    0.11
   9  -7  -2    1.88    0.57
  -9   7   2    1.64    0.98
  -9   7   2    1.77    0.60
  -9   7   2    1.14    1.06
  -8   7   2   31.87    2.27
  -8   7   2   32.03    2.31
  -8   7   2   33.97    2.17
  -8   7   2   34.14    2.21
   7  -7  -2   16.21    1.39
  -7   7   2   16.68    1.54
  -7   7   2   18.17    1.58
  -7   7   2   16.34    1.71
  -7   7   2   15.86    1.44
   6  -7  -2    0.68    0.52
   6  -7  -2    0.41    0.24
  -6   7   2    0.90    0.58
  -6   7   2    0.84    0.40
  -6   7   2    1.48    0.80
  -6   7   2    0.37    0.66
   5  -7  -2   54.70    2.74
   5  -7  -2   50.37    2.55
   5  -7  -2   53.66    2.68
  -5   7   2   56.80    2.86
  -5   7   2   52.54    2.63
  -5   7   2   58.74    2.93
   4  -7  -2    4.33    0.84
   4  -7  -2    2.62    0.63
   4  -7  -2    2.47    0.60
  -4   7   2    2.43    0.56
  -4   7   2    4.55    0.92
  -4   7   2    2.92    0.81
   3  -7  -2    1.02    0.34
   3  -7  -2    1.83    0.43
   3  -7  -2    1.59    0.38
   3  -7  -2    1.91    0.58
  -3   7   2    2.05    0.71
  -3   7   2    1.86    0.48
  -3   7   2    1.42    0.42
   2  -7  -2   18.66    1.39
   2  -7  -2   21.42    1.27
   2  -7  -2   17.14    1.18
   2  -7  -2   17.10    1.14
  -2   7   2   19.62    1.21
  -2   7   2   19.44    1.23
  -2   7   2   21.72    1.62
   1  -7  -2    5.11    0.83
   1  -7  -2    5.24    0.66
   1  -7  -2    5.14    0.66
   1  -7  -2    4.88    0.48
  -1   7   2    4.45    0.61
  -1   7   2    5.17    0.93
  -1   7   2    5.52    0.60
   0  -7  -2   18.70    1.11
   0  -7  -2   15.65    1.05
   0  -7  -2   17.00    1.35
   0  -7  -2   17.29    0.96
   0   7   2   17.20    1.02
   0   7   2   17.26    1.09
   0   7   2   16.24    1.45
  -1  -7  -2   68.19    3.27
  -1  -7  -2   66.41    2.79
  -1  -7  -2   61.85    2.78
  -1  -7  -2   65.47    2.63
   1   7   2   68.48    2.70
   1   7   2   70.43    3.36
   1   7   2   65.75    2.82
  -2  -7  -2  184.44    7.23
  -2  -7  -2  180.73    6.71
   2   7   2  194.07    6.75
   2   7   2  177.29    6.49
   2   7   2  174.11    7.24
  -3  -7  -2    1.39    0.26
  -3  -7  -2    1.36    0.32
  -3  -7  -2    2.25    0.65
  -3  -7  -2    1.21    0.49
   3   7   2    0.90    0.41
  -4  -7  -2    2.35    0.59
  -4  -7  -2    3.71    0.77
  -4  -7  -2    4.59    0.62
  -4  -7  -2    4.17    0.38
   4   7   2    3.79    0.63
   4   7   2    4.91    1.07
  -5  -7  -2   57.97    2.54
  -5  -7  -2   58.54    2.34
  -5  -7  -2   56.40    2.97
   5   7   2   57.40    3.13
   5   7   2   53.96    2.69
  -6  -7  -2    6.12    0.51
  -6  -7  -2    6.42    0.83
  -6  -7  -2    6.17    1.08
   6   7   2    5.93    1.18
   6   7   2    5.36    0.87
  -7  -7  -2   41.90    2.47
  -7  -7  -2   42.44    1.89
  -7  -7  -2   44.36    2.14
   7   7   2   36.17    2.74
   7   7   2   38.73    2.37
  -8  -7  -2    0.53    0.25
  -8  -7  -2    0.61    0.76
   8   7   2   -1.17    1.31
   8   7   2    1.09    0.73
  -9  -7  -2    1.10    0.38
  -9  -7  -2    0.69    0.87
  -9  -7  -2    1.83    0.40
 -10  -7  -2    0.64    1.08
 -10  -7  -2    1.30    0.43
 -10  -7  -2    1.31    0.38
  10   7   2    0.11    1.17
 -11  -7  -2    0.76    0.35
 -11  -7  -2    0.48    0.23
 -12  -7  -2    1.20    0.42
 -12  -7  -2    0.77    0.34
 -13  -7  -2   10.79    1.07
 -11   8   2    9.51    1.67
  10  -8  -2    0.39    0.33
 -10   8   2    0.93    1.51
 -10   8   2    0.81    0.49
   9  -8  -2    8.24    1.32
  -9   8   2   10.13    1.56
  -9   8   2   12.93    1.72
  -9   8   2   11.60    1.68
   8  -8  -2    4.19    0.96
  -8   8   2    2.67    0.95
  -8   8   2    5.37    1.50
  -8   8   2    4.48    1.20
  -8   8   2    2.44    0.73
   7  -8  -2    1.05    0.49
  -7   8   2    0.88    0.95
  -7   8   2    1.89    0.81
  -7   8   2    2.08    0.77
  -7   8   2    1.82    1.13
   6  -8  -2   12.59    1.28
   6  -8  -2   11.18    1.10
  -6   8   2   10.37    1.71
  -6   8   2    9.61    1.45
   5  -8  -2    1.83    0.51
   5  -8  -2    1.29    0.70
  -5   8   2    1.52    0.44
  -5   8   2    2.44    1.02
  -5   8   2    2.48    0.64
   4  -8  -2    6.12    0.94
   4  -8  -2    5.23    0.82
   4  -8  -2    4.98    0.93
  -4   8   2    5.64    0.84
  -4   8   2    5.45    0.94
  -4   8   2    5.21    1.13
   3  -8  -2    0.02    0.41
   3  -8  -2    0.37    0.19
   3  -8  -2    0.36    0.22
   3  -8  -2    0.98    0.58
  -3   8   2    0.40    0.37
  -3   8   2    0.61    0.82
  -3   8   2    0.34    0.20
   2  -8  -2   93.64    4.37
   2  -8  -2   99.05    4.00
   2  -8  -2  101.78    4.14
  -2   8   2   98.07    4.62
  -2   8   2   96.89    4.02
  -2   8   2  101.43    4.13
   1  -8  -2    5.84    0.81
   1  -8  -2    4.22    0.53
   1  -8  -2    3.48    0.75
  -1   8   2    3.95    0.62
  -1   8   2    4.20    1.00
  -1   8   2    5.17    0.70
   0  -8  -2    3.27    0.56
   0  -8  -2    6.27    0.85
   0  -8  -2    2.96    0.78
   0  -8  -2    4.59    0.63
   0   8   2    5.34    0.70
   0   8   2    3.18    0.90
   0   8   2    3.95    0.65
  -1  -8  -2   26.57    1.34
  -1  -8  -2   27.16    1.92
  -1  -8  -2   25.80    1.47
  -1  -8  -2   25.14    1.53
   1   8   2   28.55    2.10
   1   8   2   26.68    1.53
   1   8   2   27.18    1.41
  -2  -8  -2   24.20    1.36
  -2  -8  -2   23.39    1.20
  -2  -8  -2   22.31    1.47
  -2  -8  -2   22.92    1.76
   2   8   2   22.64    1.41
   2   8   2   23.38    1.95
   2   8   2   22.44    1.22
  -3  -8  -2   60.50    3.18
  -3  -8  -2   57.38    2.59
  -3  -8  -2   58.07    2.39
   3   8   2   57.52    2.72
  -4  -8  -2   13.31    1.37
  -4  -8  -2   14.36    0.98
  -4  -8  -2   12.30    0.80
   4   8   2   12.55    1.09
  -5  -8  -2    1.85    0.36
  -5  -8  -2    1.61    0.39
  -5  -8  -2    1.62    0.79
   5   8   2    0.62    0.46
  -6  -8  -2    0.80    0.75
  -6  -8  -2    2.18    0.48
  -6  -8  -2    2.02    0.37
   6   8   2    0.84    0.55
  -7  -8  -2    3.98    0.67
  -7  -8  -2    3.37    0.57
   7   8   2    4.29    0.99
  -8  -8  -2    1.71    0.92
  -8  -8  -2    1.62    0.36
  -8  -8  -2    1.31    0.42
   8   8   2    0.50    0.73
  -9  -8  -2   10.00    0.94
  -9  -8  -2    7.18    1.44
  -9  -8  -2    9.87    0.81
   9   8   2    8.43    1.34
 -10  -8  -2   21.92    2.21
 -10  -8  -2   21.80    1.35
 -12  -8  -2    0.24    0.22
 -12   9   2    0.62    0.51
 -11   9   2    0.84    0.53
  10  -9  -2    6.08    1.18
 -10   9   2    3.76    1.09
   9  -9  -2   -0.02    0.09
  -9   9   2    0.24    0.33
  -9   9   2    0.29    1.20
  -9   9   2    0.81    1.77
   8  -9  -2    0.48    0.32
  -8   9   2   -0.69    1.24
  -8   9   2   -0.81    0.95
  -8   9   2    0.40    0.32
   7  -9  -2    2.50    0.88
   7  -9  -2    2.75    0.67
  -7   9   2    3.38    0.82
  -7   9   2    2.26    0.97
  -7   9   2    4.64    1.30
   6  -9  -2   28.14    1.92
   6  -9  -2   25.54    2.00
  -6   9   2   26.30    1.91
  -6   9   2   25.96    2.08
   5  -9  -2    0.81    0.34
   5  -9  -2    0.73    0.71
  -5   9   2    1.86    0.64
  -5   9   2    0.37    0.26
   4  -9  -2    1.81    0.51
   4  -9  -2    2.95    0.85
  -4   9   2    2.01    0.59
  -4   9   2    1.45    0.45
   3  -9  -2    9.80    1.34
   3  -9  -2    7.53    0.96
   3  -9  -2    8.71    0.89
  -3   9   2    7.14    0.98
  -3   9   2    9.61    1.14
   2  -9  -2   24.47    1.58
   2  -9  -2   24.77    1.87
  -2   9   2   25.14    1.58
  -2   9   2   24.15    1.55
   1  -9  -2   60.36    2.66
   1  -9  -2   60.80    2.87
   1  -9  -2   63.14    3.34
  -1   9   2   59.27    2.79
  -1   9   2   59.43    2.81
   0  -9  -2   40.62    1.93
   0  -9  -2   39.40    2.10
   0  -9  -2   39.09    2.57
   0   9   2   41.50    2.16
   0   9   2   40.12    2.02
  -1  -9  -2   -0.02    0.58
  -1  -9  -2    1.65    0.38
  -1  -9  -2    1.20    0.36
   1   9   2    0.89    0.43
   1   9   2    1.00    0.39
  -2  -9  -2    2.50    0.50
  -2  -9  -2    3.58    0.53
   2   9   2    1.86    0.55
   2   9   2    3.34    0.54
  -3  -9  -2   11.57    0.80
  -3  -9  -2   12.12    0.95
  -3  -9  -2   11.31    1.55
   3   9   2   11.48    1.10
  -4  -9  -2    0.38    0.16
  -4  -9  -2    1.32    0.83
  -4  -9  -2    0.39    0.23
   4   9   2   -0.11    0.52
  -5  -9  -2    2.56    0.94
  -5  -9  -2    2.96    0.47
   5   9   2    3.27    0.82
  -6  -9  -2   47.59    2.34
  -6  -9  -2   45.16    2.94
  -6  -9  -2   42.35    2.05
   6   9   2   46.51    2.67
  -7  -9  -2   -0.12    0.99
  -7  -9  -2    1.54    0.35
  -7  -9  -2    2.43    0.54
   7   9   2    2.10    0.81
  -8  -9  -2    0.28    0.22
  -8  -9  -2    1.35    1.13
  -8  -9  -2    0.87    0.29
   8   9   2    0.00    0.85
  -9  -9  -2    2.14    0.55
  -9  -9  -2    2.28    1.36
  -9  -9  -2    1.14    0.33
 -10  -9  -2    1.25    0.37
 -10  -9  -2    0.74    0.34
 -10  -9  -2    1.10    1.97
 -11  -9  -2    4.72    0.66
 -11  -9  -2    6.07    0.90
 -12  -9  -2    1.48    0.44
 -11  10   2    3.85    1.05
  10 -10  -2    3.78    0.98
 -10  10   2    2.29    0.77
   9 -10  -2    0.80    0.39
  -9  10   2    0.54    0.37
   8 -10  -2    1.56    0.51
  -8  10   2    4.09    1.26
  -8  10   2    2.51    1.66
  -8  10   2    2.42    0.69
   7 -10  -2    0.43    0.92
   7 -10  -2    0.19    0.22
  -7  10   2    0.00    0.12
  -7  10   2   -0.51    0.96
   6 -10  -2    8.98    1.42
   6 -10  -2    9.75    1.41
  -6  10   2   12.35    1.54
  -6  10   2    9.99    1.47
   5 -10  -2   13.13    1.71
   5 -10  -2   13.88    1.28
  -5  10   2   13.17    1.73
  -5  10   2   11.10    1.42
   4 -10  -2   43.19    2.51
   4 -10  -2   45.74    2.84
  -4  10   2   42.92    2.48
  -4  10   2   44.75    2.55
   3 -10  -2    1.71    0.51
   3 -10  -2    1.70    0.81
  -3  10   2    2.05    0.71
  -3  10   2    0.86    0.38
   2 -10  -2    9.32    1.24
   2 -10  -2    7.87    1.38
  -2  10   2    9.18    0.92
  -2  10   2    8.01    1.07
   1 -10  -2   10.90    0.89
   1 -10  -2   12.20    1.59
   1 -10  -2   10.41    0.99
  -1  10   2   10.75    1.07
  -1  10   2   11.30    0.98
   0 -10  -2    1.26    0.39
   0 -10  -2    1.40    0.38
   0 -10  -2    1.81    0.91
   0  10   2    1.09    0.46
   0  10   2    1.57    0.41
  -1 -10  -2    1.52    0.33
  -1 -10  -2    0.85    0.86
  -1 -10  -2    2.73    0.62
   1  10   2    0.81    0.51
  -2 -10  -2   52.10    3.23
  -2 -10  -2   58.10    2.72
  -2 -10  -2   57.11    2.45
   2  10   2   50.73    2.58
   2  10   2   52.11    2.75
  -3 -10  -2   11.27    1.78
  -3 -10  -2    7.98    1.43
  -3 -10  -2    8.56    0.71
   3  10   2    8.02    1.13
  -4 -10  -2    0.38    0.20
  -4 -10  -2    0.31    0.22
  -4 -10  -2    0.19    0.76
   4  10   2   -0.73    0.59
  -5 -10  -2    0.40    0.20
  -5 -10  -2    0.88    0.34
  -5 -10  -2   -0.56    0.95
   5  10   2   -0.22    0.67
  -6 -10  -2    5.01    0.82
  -6 -10  -2    6.65    1.56
  -6 -10  -2    5.33    0.72
   6  10   2    7.13    1.34
  -7 -10  -2    9.12    0.77
  -7 -10  -2   11.89    1.80
  -7 -10  -2    9.51    0.92
   7  10   2    7.85    1.41
  -8 -10  -2    0.05    1.44
  -8 -10  -2    0.07    0.14
  -8 -10  -2    0.11    0.14
  -9 -10  -2    6.06    0.78
  -9 -10  -2    6.83    0.96
 -10 -10  -2    0.03    0.11
 -10 -10  -2    0.14    0.15
 -11 -10  -2   -0.02    0.09
 -11 -10  -2    0.08    0.16
  10 -11  -2    1.73    0.57
 -10  11   2    1.63    0.67
   9 -11  -2    0.80    0.44
  -9  11   2    0.94    0.49
   8 -11  -2   29.05    2.26
  -8  11   2   28.63    2.33
  -8  11   2   27.22    3.13
   7 -11  -2    1.23    1.18
   7 -11  -2    2.12    0.72
  -7  11   2    2.14    1.18
  -7  11   2    0.65    0.37
   6 -11  -2    2.24    0.66
   6 -11  -2    0.07    1.04
  -6  11   2    2.70    0.77
  -6  11   2    1.65    1.06
   5 -11  -2    1.42    0.49
   5 -11  -2    0.16    0.97
  -5  11   2    0.65    0.40
  -5  11   2    0.63    0.89
   4 -11  -2    3.24    0.82
   4 -11  -2    2.48    1.09
  -4  11   2    4.03    0.98
  -4  11   2    4.21    0.92
   3 -11  -2    5.40    1.28
  -3  11   2    5.94    1.04
  -3  11   2    4.78    0.91
   2 -11  -2   12.26    1.71
  -2  11   2   13.03    1.18
  -2  11   2   13.19    1.37
   1 -11  -2   16.91    1.84
   1 -11  -2   18.06    1.47
  -1  11   2   16.83    1.32
  -1  11   2   18.73    1.54
   0 -11  -2    2.25    0.54
   0 -11  -2    4.20    1.16
   0 -11  -2    3.30    0.62
   0  11   2    3.47    0.85
  -1 -11  -2    8.67    1.58
  -1 -11  -2    8.76    1.17
   1  11   2    8.42    1.28
  -2 -11  -2    5.88    0.83
  -2 -11  -2    7.70    1.55
  -2 -11  -2    4.57    0.81
   2  11   2    6.71    1.10
  -3 -11  -2    5.54    0.84
  -3 -11  -2    5.48    0.75
  -3 -11  -2    3.93    1.27
   3  11   2    6.66    1.06
  -4 -11  -2    2.79    1.10
  -4 -11  -2    3.24    0.65
  -4 -11  -2    3.24    0.54
   4  11   2    3.71    0.94
  -5 -11  -2    8.34    1.56
  -5 -11  -2    8.56    1.11
   5  11   2    7.31    1.29
  -6 -11  -2    0.12    0.13
  -6 -11  -2    0.32    0.22
   6  11   2   -0.12    0.92
  -7 -11  -2    0.44    0.26
  -7 -11  -2    0.68    0.27
  -7 -11  -2    1.29    1.55
  -8 -11  -2    0.52    0.21
  -8 -11  -2    0.84    0.35
  -8 -11  -2   -2.51    1.78
  -9 -11  -2    0.07    0.15
  -9 -11  -2    0.09    0.12
 -10 -11  -2   33.80    1.77
 -10 -11  -2   32.03    1.88
   9 -12  -2   -0.02    0.12
   8 -12  -2    2.14    0.75
   7 -12  -2    4.39    1.54
   7 -12  -2    4.61    1.00
   6 -12  -2    2.26    0.77
   6 -12  -2    0.57    1.40
  -6  12   2    1.23    1.19
   5 -12  -2   10.96    1.45
  -5  12   2   12.11    1.64
   4 -12  -2    2.57    0.74
   4 -12  -2    1.01    1.39
  -4  12   2    1.75    0.93
   3 -12  -2   11.29    1.82
   3 -12  -2   13.06    1.29
  -3  12   2   15.02    1.64
   2 -12  -2    0.10    0.24
   2 -12  -2    1.07    1.11
  -2  12   2    0.22    0.79
   1 -12  -2   -0.10    1.09
   1 -12  -2    1.83    0.52
  -1  12   2    0.32    0.85
   0 -12  -2   13.52    1.24
   0 -12  -2   11.91    1.99
   0  12   2   13.75    1.48
  -1 -12  -2    5.67    0.99
   1  12   2    5.26    1.17
  -2 -12  -2    2.05    1.23
  -2 -12  -2    2.15    0.61
  -2 -12  -2    1.15    0.35
   2  12   2    0.93    0.83
  -3 -12  -2    0.58    0.29
  -3 -12  -2    0.25    1.07
  -3 -12  -2    1.55    0.41
   3  12   2    2.39    0.95
  -4 -12  -2    1.66    0.44
  -4 -12  -2    0.74    0.33
  -4 -12  -2    1.23    1.30
   4  12   2    1.67    1.00
  -5 -12  -2    0.10    0.11
  -5 -12  -2    0.46    1.42
  -5 -12  -2    0.34    0.24
  -6 -12  -2   42.83    2.15
  -6 -12  -2   40.84    2.34
  -7 -12  -2   33.79    2.50
  -7 -12  -2   35.26    1.88
  -8 -12  -2    2.20    0.55
  -8 -12  -2    2.62    0.58
  -9 -12  -2    2.82    0.59
   8 -13  -2    2.14    0.85
   7 -13  -2   16.26    2.15
   6 -13  -2    2.08    0.71
   5 -13  -2   -0.06    0.08
   4 -13  -2    6.81    1.12
  -4  13   2    5.95    1.53
   3 -13  -2    1.19    0.44
   3 -13  -2   -0.20    1.41
  -3  13   2    0.79    1.03
   2 -13  -2   -0.25    1.26
   2 -13  -2    0.85    0.39
  -2  13   2    0.63    1.03
   1 -13  -2    0.10    0.16
   1 -13  -2   -0.86    1.36
  -1  13   2    1.60    1.02
   0 -13  -2    9.11    1.32
   0 -13  -2    6.17    1.95
   0  13   2    6.35    1.29
  -1 -13  -2    0.35    0.28
   1  13   2    0.36    0.94
  -2 -13  -2   38.98    2.42
   2  13   2   45.76    3.90
  -3 -13  -2   59.07    3.12
  -4 -13  -2    4.72    0.85
  -5 -13  -2    2.59    0.92
  -6 -13  -2   44.30    2.50
  -7 -13  -2   29.27    1.88
  -8 -13  -2    2.34    0.57
   7 -14  -2    0.14    0.31
   6 -14  -2    2.71    0.83
   5 -14  -2   -0.05    0.09
   4 -14  -2    8.44    1.34
   3 -14  -2    1.89    0.65
   2 -14  -2   20.05    1.73
   1 -14  -2   56.59    3.23
   0 -14  -2    5.15    1.01
  -1 -14  -2    1.05    0.44
  -2 -14  -2   48.26    2.97
  -3 -14  -2   60.82    3.29
  -4 -14  -2    2.93    0.69
  -5 -14  -2    4.99    0.91
  -6 -14  -2    0.96    0.39
   5 -15  -2   37.46    2.72
   4 -15  -2    5.64    1.06
   3 -15  -2    1.78    0.59
   2 -15  -2   22.94    1.93
   1 -15  -2   63.85    3.59
   0 -15  -2    4.71    1.02
  -1 -15  -2    0.21    0.23
  -2 -15  -2    0.50    0.35
  -3 -15  -2    7.54    1.23
  -4 -15  -2    0.11    0.18
   2 -16  -2    1.16    0.58
   1 -16  -2    8.31    1.41
   0 -16  -2   -0.04    0.11
  -1 -16  -2    0.33    0.29
  -1 -14   3    1.12    0.53
   0 -14   3    8.61    1.44
   1 -14   3    2.07    0.79
   2 -14   3    0.72    0.50
   3 -14   3    2.62    0.89
   4 -14   3   35.50    2.71
   5 -14   3    8.15    1.49
   6 -14   3   -0.06    0.14
  -4 -13   3    3.79    0.97
  -3 -13   3    0.93    0.47
  -2 -13   3    0.03    0.16
  -1 -13   3    0.16    0.22
   0 -13   3   25.63    2.18
   1 -13   3   15.15    2.03
   2 -13   3    0.19    0.22
   3 -13   3    0.14    0.21
   4 -13   3    5.14    1.15
   5 -13   3    3.47    0.89
   6 -13   3    8.20    1.55
   7 -13   3    1.12    0.54
   8 -13   3    0.10    0.23
  -5 -12   3    0.48    0.36
  -4 -12   3    7.58    1.36
  -2 -12   3   -0.06    0.11
  -1 -12   3    0.05    0.16
   0 -12   3    6.37    1.26
   1 -12   3    3.65    0.85
   2 -12   3   22.65    1.95
   3 -12   3    1.56    0.60
  -4  12  -3    1.55    0.58
   4 -12   3    1.22    0.61
  -5  12  -3    4.20    0.89
   5 -12   3    6.59    1.24
  -6  12  -3    3.17    0.83
   6 -12   3    3.29    0.88
  -7  12  -3    0.05    0.17
   7 -12   3    0.07    0.18
  -8  12  -3   10.62    1.60
   8 -12   3   10.18    1.59
  -9  12  -3    3.03    0.87
   9 -12   3    3.09    0.92
  -7 -11   3   10.14    1.58
  -6 -11   3    0.07    0.18
  -5 -11   3   -0.04    0.12
  -4 -11   3    2.10    0.72
  -3 -11   3    0.02    0.10
  -2 -11   3   25.56    2.07
   1  11  -3    1.27    1.08
  -1 -11   3   -2.02    1.49
  -1 -11   3   -0.02    0.10
   0  11  -3    2.25    1.05
   0 -11   3    2.17    1.47
   0 -11   3    1.57    0.55
  -1  11  -3    2.93    1.09
  -1  11  -3    3.15    0.71
   1 -11   3    5.48    1.14
   1 -11   3    5.67    1.58
  -2  11  -3    9.35    1.48
  -2  11  -3   11.22    1.43
   2 -11   3    8.20    1.77
   2 -11   3    8.59    1.41
  -3  11  -3    3.57    1.03
  -3  11  -3    2.74    0.70
   3 -11   3    4.21    1.60
   3 -11   3    2.54    0.79
  -4  11  -3    8.18    1.40
  -4  11  -3    6.77    1.10
   4 -11   3   10.32    1.91
   4 -11   3    8.93    1.45
  -5  11  -3   16.21    2.03
  -5  11  -3   17.71    1.53
   5 -11   3   18.15    2.59
   5 -11   3   14.44    2.11
  -6  11  -3    0.61    0.34
   6 -11   3    1.67    1.49
   6 -11   3    1.20    0.65
  -7  11  -3    0.24    0.26
   7 -11   3   -0.05    0.10
   7 -11   3    0.40    1.40
  -8  11  -3   10.82    1.69
   8 -11   3   12.38    1.80
   8 -11   3   13.81    2.21
  -9  11  -3    3.33    0.95
   9 -11   3    3.47    0.95
 -10  11  -3    0.02    0.20
 -11  11  -3    4.05    0.97
  -8 -10   3    1.50    0.67
  -7 -10   3    0.89    0.49
  -5 -10   3    3.24    0.94
  -4 -10   3    6.85    1.91
  -4 -10   3    6.14    1.28
   3  10  -3    1.93    1.03
  -3 -10   3    4.04    1.01
  -3 -10   3    2.52    1.55
   2  10  -3    8.12    1.36
  -2 -10   3    7.83    1.35
  -2 -10   3    8.34    1.83
   1  10  -3    3.79    1.04
   1  10  -3    2.20    0.53
  -1 -10   3    3.09    0.78
  -1 -10   3    4.59    1.55
   0  10  -3   -0.01    0.07
   0  10  -3    0.55    0.71
   0 -10   3    0.14    0.23
   0 -10   3    0.87    1.21
  -1  10  -3   24.64    1.98
  -1  10  -3   24.17    1.68
   1 -10   3   26.76    2.49
   1 -10   3   23.82    1.87
  -2  10  -3   -0.01    0.72
  -2  10  -3    0.01    0.08
   2 -10   3    0.14    0.16
   2 -10   3   -1.20    0.95
  -3  10  -3    0.42    0.30
  -3  10  -3    0.75    0.71
   3 -10   3    0.29    0.28
   3 -10   3    0.33    0.93
  -4  10  -3   12.46    1.18
  -4  10  -3   12.70    1.58
   4 -10   3   11.78    1.78
   4 -10   3   13.59    1.34
  -5  10  -3   11.22    1.63
  -5  10  -3   11.67    1.16
   5 -10   3    9.71    1.30
   5 -10   3    9.62    1.79
  -6  10  -3    1.30    0.48
  -6  10  -3    1.31    0.91
   6 -10   3    0.70    1.08
   6 -10   3    2.47    0.73
  -7  10  -3    4.86    1.25
  -7  10  -3    5.52    1.08
   7 -10   3    2.86    1.40
   7 -10   3    5.87    1.18
  -8  10  -3    0.72    0.45
   8 -10   3    0.45    0.33
   8 -10   3    0.53    1.28
  -9  10  -3   10.20    1.50
   9 -10   3   10.86    1.55
   9 -10   3    7.89    1.74
 -10  10  -3    1.47    0.59
 -11  10  -3    4.08    1.01
 -12  10  -3   12.03    1.91
  -9  -9   3    1.71    0.70
  -8  -9   3    1.63    0.69
  -6  -9   3    8.51    1.53
  -6  -9   3    8.07    2.08
   5   9  -3    2.35    1.12
  -5  -9   3    1.36    0.53
  -5  -9   3    3.34    1.36
   4   9  -3    4.32    1.16
  -4  -9   3    5.97    1.73
  -4  -9   3    4.35    0.97
   3   9  -3   25.26    1.97
  -3  -9   3   22.08    2.62
  -3  -9   3   23.14    1.88
   2   9  -3    0.80    0.33
   2   9  -3    1.43    0.75
  -2  -9   3   -0.66    1.08
   1   9  -3    0.19    0.20
   1   9  -3   -0.64    0.52
  -1  -9   3   -0.19    0.90
  -1  -9   3   -0.06    0.09
   0   9  -3    8.53    1.23
   0   9  -3    6.04    0.85
   0  -9   3    5.15    0.93
   0  -9   3    6.40    1.39
  -1   9  -3   21.77    1.52
  -1   9  -3   24.27    1.77
   1  -9   3   24.92    1.80
   1  -9   3   24.85    2.27
  -2   9  -3    7.71    1.03
  -2   9  -3    9.42    1.27
   2  -9   3    6.60    1.01
   2  -9   3    9.51    1.60
  -3   9  -3    0.21    0.17
  -3   9  -3    0.30    0.60
   3  -9   3    1.16    0.81
   3  -9   3    0.08    0.13
  -4   9  -3    0.30    0.61
  -4   9  -3    0.26    0.22
   4  -9   3    0.63    0.94
   4  -9   3    0.53    0.32
  -5   9  -3   15.69    1.33
  -5   9  -3   15.74    1.57
   5  -9   3   17.54    1.50
   5  -9   3   20.14    2.00
  -6   9  -3    1.17    0.43
  -6   9  -3    1.27    0.75
   6  -9   3    1.36    0.51
   6  -9   3    0.16    0.89
  -7   9  -3    5.73    1.24
  -7   9  -3    5.77    1.04
   7  -9   3    5.23    1.02
   7  -9   3    5.16    1.30
  -8   9  -3   20.90    1.76
  -8   9  -3   23.58    2.20
   8  -9   3   26.63    2.16
   8  -9   3   21.48    1.80
  -9   9  -3   91.57    4.61
   9  -9   3   91.80    4.65
   9  -9   3   96.83    4.55
 -10   9  -3   16.11    1.59
  10  -9   3   11.60    1.64
 -11   9  -3    1.06    0.46
 -12   9  -3   13.33    2.09
  -9  -8   3    0.25    0.23
  -8  -8   3   11.16    2.30
  -7  -8   3    5.63    1.18
   6   8  -3    5.21    1.35
  -6  -8   3    5.21    1.08
  -6  -8   3    4.89    1.57
   5   8  -3    0.37    0.86
  -5  -8   3    0.87    0.42
  -5  -8   3   -1.18    1.06
   4   8  -3    0.16    0.20
   4   8  -3    0.74    0.71
  -4  -8   3    0.20    0.26
  -4  -8   3    0.53    1.08
   3   8  -3   22.89    1.52
   3   8  -3   20.27    1.71
  -3  -8   3   27.17    2.28
  -3  -8   3   22.35    1.78
   2   8  -3    4.31    0.74
   2   8  -3    4.21    0.86
  -2  -8   3    5.49    1.31
  -2  -8   3    4.66    1.00
  -2  -8   3    4.66    0.84
   1   8  -3    9.72    1.26
   1   8  -3    9.25    0.86
  -1  -8   3    7.89    1.42
  -1  -8   3    6.67    1.06
   0   8  -3    0.10    0.11
   0   8  -3    0.48    0.45
   0  -8   3    0.01    0.10
   0  -8   3   -0.82    0.68
  -1   8  -3   25.27    1.53
  -1   8  -3   23.19    1.66
   1  -8   3   20.87    1.61
   1  -8   3   26.27    2.10
  -2   8  -3    0.34    0.47
  -2   8  -3    0.36    0.20
   2  -8   3    1.03    0.72
   2  -8   3    0.65    0.33
  -3   8  -3    1.12    0.58
  -3   8  -3    1.15    0.40
   3  -8   3    0.30    0.23
   3  -8   3    0.94    0.83
  -4   8  -3   26.65    1.86
  -4   8  -3   26.89    1.89
   4  -8   3   32.09    3.42
   4  -8   3   28.82    1.91
  -5   8  -3  242.46    9.32
   5  -8   3  245.45    9.43
  -6   8  -3   48.98    2.85
  -6   8  -3   53.22    2.79
   6  -8   3   51.82    2.89
   6  -8   3   57.62    3.14
  -7   8  -3    1.05    0.74
  -7   8  -3    0.48    0.28
   7  -8   3    0.96    0.77
   7  -8   3    0.73    0.37
  -8   8  -3   27.71    1.98
  -8   8  -3   27.89    2.22
   8  -8   3   29.30    2.05
   8  -8   3   27.94    2.12
  -9   8  -3   73.99    4.20
  -9   8  -3   81.96    4.40
   9  -8   3   81.41    3.82
   9  -8   3   78.59    4.04
 -10   8  -3    6.54    1.27
  10  -8   3    5.89    1.24
  10  -8   3    5.52    1.07
 -11   8  -3   10.92    1.66
 -12   8  -3    4.33    0.97
 -13   8  -3    0.01    0.14
 -10  -7   3    5.09    1.13
  -9  -7   3    1.06    0.54
  -8  -7   3    0.98    0.47
  -8  -7   3    0.54    1.56
   7   7  -3   14.66    1.82
  -7  -7   3   10.36    1.81
  -7  -7   3   12.94    1.70
   6   7  -3    2.33    0.98
  -6  -7   3    1.92    1.18
  -6  -7   3    0.67    0.39
   5   7  -3   22.62    1.56
   5   7  -3   25.82    1.93
  -5  -7   3   22.65    2.22
  -5  -7   3   24.33    1.90
   4   7  -3    0.76    0.57
  -4  -7   3    0.30    0.28
  -4  -7   3    0.85    0.35
  -4  -7   3   -0.12    0.86
   3   7  -3   10.48    1.15
   3   7  -3    9.14    0.86
  -3  -7   3    9.94    1.38
  -3  -7   3    8.75    1.43
  -3  -7   3   10.29    0.89
   2   7  -3    0.76    0.28
   2   7  -3    0.35    0.46
  -2  -7   3    0.26    0.22
  -2  -7   3    0.39    0.19
  -2  -7   3    2.62    0.90
   1   7  -3    1.65    0.49
   1   7  -3    2.41    0.52
  -1  -7   3    2.80    0.73
  -1  -7   3    2.78    0.96
   0   7  -3   15.92    1.25
   0   7  -3   13.73    1.04
   0  -7   3   15.61    1.67
   0  -7   3   14.40    1.24
  -1   7  -3  315.16   11.27
   1  -7   3  307.47   11.88
  -2   7  -3  143.79    5.52
  -2   7  -3  135.30    5.33
   2  -7   3  134.53    5.60
   2  -7   3  133.17    5.94
  -3   7  -3    8.28    1.11
  -3   7  -3    5.31    0.86
   3  -7   3    5.83    1.09
   3  -7   3    7.41    1.41
  -4   7  -3   40.50    2.69
  -4   7  -3   40.59    2.20
  -4   7  -3   37.35    2.03
   4  -7   3   35.94    2.38
   4  -7   3   37.04    2.20
  -5   7  -3  241.16    9.14
  -5   7  -3  238.84    9.61
   5  -7   3  247.13    9.26
   5  -7   3  243.63    9.38
  -6   7  -3   23.10    2.17
  -6   7  -3   24.34    1.79
  -6   7  -3   27.06    1.69
   6  -7   3   26.15    1.76
   6  -7   3   24.93    1.85
  -7   7  -3    7.94    1.20
  -7   7  -3   10.18    1.01
  -7   7  -3   11.25    1.66
   7  -7   3   11.12    1.32
   7  -7   3   10.85    1.08
  -8   7  -3   24.29    1.99
  -8   7  -3   22.90    2.33
  -8   7  -3   22.90    1.69
   8  -7   3   23.95    1.74
   8  -7   3   22.06    1.75
  -9   7  -3    4.18    1.12
  -9   7  -3    3.52    0.83
  -9   7  -3    3.86    1.41
   9  -7   3    4.33    0.92
   9  -7   3    2.74    0.82
 -10   7  -3    1.45    0.57
 -10   7  -3   -0.08    1.03
  10  -7   3    0.16    0.78
  10  -7   3    0.66    0.41
 -11   7  -3    3.16    0.90
 -12   7  -3    3.96    0.93
 -13   7  -3    0.67    0.42
 -11  -6   3    1.95    0.72
 -10  -6   3    0.20    0.28
  -9  -6   3    9.74    2.00
  -9  -6   3    8.65    1.42
   8   6  -3    1.85    1.18
  -8  -6   3    2.14    0.74
  -8  -6   3    2.27    1.40
   7   6  -3    7.91    1.42
  -7  -6   3    7.14    1.26
  -7  -6   3    9.03    1.54
   6   6  -3    0.80    0.78
   6   6  -3    0.82    0.36
  -6  -6   3   -0.94    0.90
  -6  -6   3    0.21    0.28
   5   6  -3   11.50    1.01
   5   6  -3   13.53    1.32
  -5  -6   3   11.65    1.80
  -5  -6   3   12.41    1.59
   4   6  -3    4.24    0.81
  -4  -6   3    5.26    0.80
  -4  -6   3    5.90    1.00
  -4  -6   3    6.39    1.22
   3   6  -3  201.09    7.51
   3   6  -3  202.65    7.59
  -3  -6   3  197.44    8.15
  -3  -6   3  199.18    7.47
  -3  -6   3  204.92    7.96
   2   6  -3  214.86    8.12
  -2  -6   3  214.59    8.44
  -2  -6   3  235.38    8.87
  -2  -6   3  215.19    8.03
   1   6  -3    1.73    0.40
   1   6  -3    0.11    0.82
   1   6  -3    1.67    0.49
  -1  -6   3    1.36    0.44
  -1  -6   3    0.49    0.41
  -1  -6   3    0.45    0.61
   0   6  -3   52.99    2.37
   0   6  -3   50.63    2.44
   0   6  -3   54.97    3.22
   0  -6   3   51.55    2.92
   0  -6   3   47.69    2.34
  -1   6  -3  292.96   11.39
  -1   6  -3  308.22   10.70
   1  -6   3  295.02   11.25
   1  -6   3  294.36   10.58
  -2   6  -3  107.73    4.28
  -2   6  -3  111.64    4.39
  -2   6  -3  106.41    4.97
   2  -6   3  110.94    4.87
   2  -6   3  103.95    4.49
   2  -6   3  105.39    4.29
  -3   6  -3    0.88    0.88
  -3   6  -3    0.38    0.30
  -3   6  -3    0.89    0.30
   3  -6   3    0.53    0.28
   3  -6   3    1.13    0.61
   3  -6   3    0.00    0.35
  -4   6  -3   36.66    2.08
  -4   6  -3   39.11    2.00
  -4   6  -3   43.08    2.87
   4  -6   3   39.61    2.34
   4  -6   3   40.84    2.11
   4  -6   3   39.74    2.16
  -5   6  -3    0.63    0.28
  -5   6  -3    0.08    0.36
  -5   6  -3    1.28    0.83
   5  -6   3    1.06    0.52
   5  -6   3    1.07    0.41
  -6   6  -3    0.74    0.81
  -6   6  -3    0.44    0.25
  -6   6  -3    0.01    0.39
   6  -6   3    0.65    0.34
   6  -6   3    1.15    0.53
  -7   6  -3    1.84    0.62
  -7   6  -3    1.32    0.39
  -7   6  -3    1.19    0.92
   7  -6   3    1.50    0.63
   7  -6   3    1.71    0.48
  -8   6  -3   31.01    2.21
  -8   6  -3   34.47    2.26
  -8   6  -3   29.99    1.94
   8  -6   3   30.73    1.98
   8  -6   3   32.21    1.87
  -9   6  -3    2.08    0.85
  -9   6  -3    2.04    0.62
  -9   6  -3    2.86    1.05
   9  -6   3    2.11    0.58
   9  -6   3    2.13    0.66
 -10   6  -3    6.67    1.05
 -10   6  -3    8.03    1.41
 -10   6  -3   11.02    1.15
  10  -6   3    8.24    0.85
  10  -6   3    8.60    1.13
 -11   6  -3   26.58    2.01
 -11   6  -3   21.91    2.40
 -12   6  -3    5.19    1.06
 -13   6  -3    3.44    1.27
 -14   6  -3   14.97    2.07
 -11  -5   3    1.37    0.60
 -10  -5   3    0.71    0.64
   9   5  -3    7.88    1.62
  -9  -5   3    9.08    1.96
  -9  -5   3    8.18    1.39
   8   5  -3    3.16    1.14
  -8  -5   3    3.52    0.88
   7   5  -3   61.32    3.25
  -7  -5   3   61.51    3.35
  -7  -5   3   61.76    3.46
   6   5  -3  100.68    4.57
   6   5  -3  116.74    4.84
  -6  -5   3  111.66    4.99
  -6  -5   3  115.18    5.16
   5   5  -3    6.98    0.99
  -5  -5   3    7.62    1.20
  -5  -5   3    8.74    1.25
  -5  -5   3    8.94    1.11
   4   5  -3   18.84    1.99
   4   5  -3   19.49    1.36
   4   5  -3   18.44    1.22
  -4  -5   3   15.96    1.14
  -4  -5   3   17.52    1.43
  -4  -5   3   17.65    1.57
   3   5  -3  257.83   10.09
   3   5  -3  271.48    9.41
  -3  -5   3  248.24    9.31
  -3  -5   3  254.42    9.26
  -3  -5   3  257.13    9.91
   2   5  -3  173.78    6.35
   2   5  -3  164.37    7.05
   2   5  -3  180.97    6.45
  -2  -5   3  165.05    6.32
  -2  -5   3  176.59    6.46
  -2  -5   3  169.06    6.95
  -2  -5   3  162.95    6.65
   1   5  -3    0.11    0.65
   1   5  -3    0.36    0.16
   1   5  -3    0.39    0.32
  -1  -5   3    0.55    0.31
  -1  -5   3    1.29    0.64
  -1  -5   3    1.42    0.59
   0   5  -3   19.34    1.13
   0   5  -3   19.07    1.19
   0   5  -3   19.25    1.65
   0  -5   3   20.04    1.19
   0  -5   3   19.06    1.54
   0  -5   3   20.00    1.33
  -1   5  -3   -0.05    0.58
  -1   5  -3   -0.05    0.22
  -1   5  -3    0.09    0.10
   1  -5   3    0.51    0.44
   1  -5   3    0.19    0.17
   1  -5   3   -0.33    0.26
  -2   5  -3    0.54    0.56
  -2   5  -3   -0.06    0.21
   2  -5   3    0.15    0.30
   2  -5   3    0.15    0.13
   2  -5   3    0.01    0.36
  -3   5  -3    0.26    0.25
  -3   5  -3    0.96    0.62
  -3   5  -3    0.03    0.06
   3  -5   3    0.02    0.05
   3  -5   3    0.25    0.32
   3  -5   3    0.36    0.44
  -4   5  -3   36.50    1.95
  -4   5  -3   36.68    2.26
  -4   5  -3   38.75    1.86
   4  -5   3   36.45    2.12
   4  -5   3   37.87    1.99
  -5   5  -3    1.52    0.60
  -5   5  -3    0.74    0.41
   5  -5   3    0.84    0.46
   5  -5   3    1.22    0.52
   5  -5   3    0.71    0.28
  -6   5  -3    0.52    0.26
  -6   5  -3    0.48    0.68
  -6   5  -3    0.78    0.46
   6  -5   3    0.41    0.45
   6  -5   3    0.61    0.29
  -7   5  -3   50.88    2.58
  -7   5  -3   52.02    2.67
  -7   5  -3   54.00    2.82
   7  -5   3   51.94    2.64
   7  -5   3   52.99    2.49
  -8   5  -3    9.90    0.98
  -8   5  -3   11.85    1.28
  -8   5  -3   10.99    1.37
   8  -5   3   10.69    1.01
  -9   5  -3   18.92    1.49
  -9   5  -3   19.83    1.43
  -9   5  -3   20.70    1.74
   9  -5   3   21.78    1.24
   9  -5   3   19.78    1.50
 -10   5  -3   10.30    1.36
 -10   5  -3   12.20    1.69
  10  -5   3   10.80    1.11
 -11   5  -3   22.37    1.75
 -11   5  -3   18.59    2.19
 -12   5  -3    2.59    0.66
 -13   5  -3    0.25    0.31
 -14   5  -3    0.11    0.18
 -12  -4   3    3.60    0.98
 -11  -4   3   10.16    1.60
 -10  -4   3   49.57    3.25
   9   4  -3    5.23    1.31
  -9  -4   3    2.22    1.21
  -9  -4   3    2.54    0.80
   8   4  -3    7.32    1.90
   8   4  -3    9.07    1.32
  -8  -4   3   10.21    1.52
  -8  -4   3    6.73    1.29
   7   4  -3   85.40    4.14
   7   4  -3   82.64    4.53
   7   4  -3   86.72    4.03
  -7  -4   3   90.57    4.79
  -7  -4   3   91.66    4.13
   6   4  -3  133.46    5.41
   6   4  -3  125.84    5.86
  -6  -4   3  137.94    5.65
  -6  -4   3  125.16    5.30
  -6  -4   3  141.35    5.88
   5   4  -3    1.96    0.56
   5   4  -3    3.44    1.07
   5   4  -3    2.71    0.58
  -5  -4   3    2.40    0.64
  -5  -4   3    1.91    0.71
  -5  -4   3    2.22    0.50
   4   4  -3    0.16    0.81
   4   4  -3    0.30    0.21
   4   4  -3    0.35    0.38
   4   4  -3    0.86    0.67
  -4  -4   3    0.12    0.55
  -4  -4   3    0.55    0.23
  -4  -4   3    0.45    0.31
   3   4  -3    1.11    0.72
   3   4  -3    0.01    0.28
   3   4  -3    0.27    0.17
  -3  -4   3    0.19    0.36
  -3  -4   3   -0.07    0.43
  -3  -4   3    0.24    0.19
   2   4  -3    0.76    0.22
   2   4  -3    0.07    0.23
   2   4  -3    0.38    0.67
  -2  -4   3    0.03    0.38
  -2  -4   3    0.82    0.31
  -2  -4   3    0.03    0.06
  -2  -4   3    0.34    0.31
   1   4  -3   18.49    1.53
   1   4  -3   16.95    1.06
   1   4  -3   18.74    1.07
  -1  -4   3   24.48    1.57
  -1  -4   3   17.76    1.08
  -1  -4   3   18.04    1.13
  -1  -4   3   18.95    1.45
   0   4  -3   61.09    2.56
   0   4  -3   58.96    2.52
   0   4  -3   59.03    3.06
   0  -4   3   74.89    3.15
   0  -4   3   59.27    2.97
   0  -4   3   58.21    2.52
  -1   4  -3    1.94    0.40
  -1   4  -3    1.97    0.37
  -1   4  -3    2.96    0.71
   1  -4   3    2.68    0.54
   1  -4   3    1.82    0.50
   1  -4   3    1.97    0.39
  -2   4  -3   21.53    1.55
  -2   4  -3   21.26    1.14
  -2   4  -3   21.10    1.19
   2  -4   3   20.93    1.27
   2  -4   3   19.16    1.16
   2  -4   3   23.45    1.50
  -3   4  -3   43.03    1.94
  -3   4  -3   45.40    2.05
  -3   4  -3   42.70    2.35
   3  -4   3   40.40    1.95
   3  -4   3   45.22    2.28
   3  -4   3   43.87    2.10
  -4   4  -3    7.65    0.63
  -4   4  -3    7.10    0.72
  -4   4  -3    6.48    0.92
   4  -4   3    6.59    0.69
   4  -4   3    9.11    0.88
   4  -4   3    7.87    0.71
  -5   4  -3   56.18    2.67
  -5   4  -3   57.78    2.73
  -5   4  -3   58.39    2.78
  -5   4  -3   59.25    2.54
   5  -4   3   55.54    2.61
   5  -4   3   59.57    2.67
  -6   4  -3    0.22    0.16
  -6   4  -3    0.10    0.31
  -6   4  -3    0.51    0.27
  -6   4  -3   -0.28    0.47
   6  -4   3   -0.30    0.33
   6  -4   3    0.05    0.09
   6  -4   3   -0.29    0.37
  -7   4  -3   56.93    2.88
  -7   4  -3   59.55    2.73
  -7   4  -3   59.56    2.79
  -7   4  -3   58.30    2.94
   7  -4   3   63.51    2.61
   7  -4   3   58.80    2.80
  -8   4  -3    8.95    1.14
  -8   4  -3    7.95    0.92
  -8   4  -3    7.79    1.08
  -8   4  -3    8.03    1.08
   8  -4   3    9.14    1.14
   8  -4   3    7.17    0.73
  -9   4  -3    1.49    0.64
  -9   4  -3    1.55    0.50
  -9   4  -3    1.13    0.44
  -9   4  -3    1.67    0.37
   9  -4   3    3.05    0.82
   9  -4   3    1.31    0.31
 -10   4  -3    0.16    0.80
 -10   4  -3   -0.07    0.23
 -11   4  -3    0.40    0.30
 -11   4  -3    1.32    1.11
 -12   4  -3   33.01    4.09
 -12   4  -3   29.00    2.15
 -13   4  -3    0.49    0.35
 -14   4  -3    0.17    0.19
 -12  -3   3    2.41    0.86
 -11  -3   3   13.18    2.84
  10   3  -3   64.45    3.80
 -10  -3   3   63.85    3.81
   9   3  -3    1.29    0.97
  -9  -3   3    0.54    0.37
  -9  -3   3    1.10    0.94
   8   3  -3    5.59    0.92
   8   3  -3    4.41    1.51
   8   3  -3    4.61    1.04
  -8  -3   3    4.52    0.98
  -8  -3   3    4.53    0.99
   7   3  -3    1.17    1.13
   7   3  -3    0.44    0.60
   7   3  -3   -0.03    0.09
  -7  -3   3    0.03    0.15
  -7  -3   3    0.18    0.21
  -7  -3   3    1.09    0.70
   6   3  -3    2.94    0.61
   6   3  -3    3.38    1.13
   6   3  -3    4.06    0.77
  -6  -3   3    1.66    0.37
  -6  -3   3    4.24    0.93
  -6  -3   3    3.46    0.77
   5   3  -3   18.83    1.50
   5   3  -3   15.69    1.71
   5   3  -3   16.59    1.16
   5   3  -3   20.19    1.30
  -5  -3   3   16.13    1.34
  -5  -3   3   16.10    1.36
  -5  -3   3   15.16    1.10
   4   3  -3    3.31    0.57
   4   3  -3    4.01    0.63
   4   3  -3    2.38    0.85
   4   3  -3    4.87    0.85
  -4  -3   3    4.00    0.64
  -4  -3   3    4.39    0.84
  -4  -3   3    2.53    0.67
   3   3  -3   12.23    1.10
   3   3  -3   14.50    1.31
   3   3  -3   13.07    0.92
   3   3  -3   12.45    0.88
  -3  -3   3   12.18    1.03
  -3  -3   3   12.81    0.87
  -3  -3   3   14.83    0.98
  -3  -3   3   13.96    1.23
   2   3  -3   47.58    2.05
   2   3  -3   46.94    2.07
   2   3  -3   44.11    2.46
  -2  -3   3   49.05    2.08
  -2  -3   3   46.76    2.44
  -2  -3   3   45.88    2.29
   1   3  -3    7.52    1.08
   1   3  -3    7.29    0.58
   1   3  -3    9.11    0.65
  -1  -3   3    6.65    0.67
  -1  -3   3    9.54    0.95
  -1  -3   3    8.02    0.63
  -1  -3   3    8.00    0.62
   0   3  -3   24.55    1.67
   0   3  -3   24.79    1.25
   0   3  -3   29.65    1.41
   0  -3   3   24.14    1.58
   0  -3   3   24.08    1.22
   0  -3   3   31.62    1.67
  -1   3  -3   56.76    2.30
  -1   3  -3   55.25    2.75
  -1   3  -3   57.58    2.33
   1  -3   3   57.18    2.49
   1  -3   3   58.02    2.71
   1  -3   3   55.35    2.30
  -2   3  -3   18.54    0.99
  -2   3  -3   17.96    1.30
  -2   3  -3   20.09    1.05
  -2   3  -3   17.58    1.09
   2  -3   3   19.87    1.27
   2  -3   3   19.12    1.03
   2  -3   3   17.65    1.10
  -3   3  -3   83.29    3.40
  -3   3  -3   83.76    3.59
   3  -3   3   86.14    3.28
   3  -3   3   82.29    3.53
   3  -3   3   81.27    3.35
  -4   3  -3    3.35    0.59
  -4   3  -3    1.84    0.32
  -4   3  -3    3.37    0.66
  -4   3  -3    3.40    0.50
   4  -3   3    2.82    0.45
   4  -3   3    2.84    0.49
   4  -3   3    3.76    0.59
  -5   3  -3   14.88    1.05
  -5   3  -3   13.08    1.73
  -5   3  -3   13.34    0.98
  -5   3  -3   14.10    0.91
   5  -3   3   14.99    0.98
   5  -3   3   15.20    1.02
   5  -3   3   12.43    0.97
  -6   3  -3    0.02    0.07
  -6   3  -3    0.05    0.28
  -6   3  -3    0.31    0.39
  -6   3  -3    0.05    0.10
   6  -3   3    0.18    0.14
   6  -3   3    0.32    0.43
   6  -3   3    0.29    0.31
  -7   3  -3    0.24    0.18
  -7   3  -3    0.21    0.41
  -7   3  -3    0.01    0.35
  -7   3  -3    0.00    0.05
   7  -3   3    0.08    0.50
   7  -3   3   -0.04    0.04
   7  -3   3   -0.13    0.28
  -8   3  -3  128.41    5.29
  -8   3  -3  124.71    5.03
  -8   3  -3  121.33    4.43
  -8   3  -3  122.77    5.15
   8  -3   3  127.19    4.39
   8  -3   3  120.17    4.97
  -9   3  -3   12.21    1.12
  -9   3  -3   10.39    1.33
  -9   3  -3   11.64    1.05
   9  -3   3   13.13    1.07
 -10   3  -3    2.85    0.91
 -10   3  -3    5.23    0.90
 -10   3  -3    3.41    0.66
  10  -3   3    5.30    0.89
 -11   3  -3    2.00    0.97
 -11   3  -3    1.97    0.60
 -12   3  -3    2.10    0.65
 -12   3  -3    3.66    1.35
 -13   3  -3    0.58    0.34
 -14   3  -3    0.29    0.28
 -15   3  -3    4.84    1.03
 -12  -2   3    5.06    1.22
 -11  -2   3    0.44    0.41
  10   2  -3    1.50    1.22
 -10  -2   3    0.95    0.53
   9   2  -3    7.19    1.27
  -9  -2   3    6.85    1.32
  -9  -2   3    6.14    0.99
   8   2  -3    0.40    0.68
   8   2  -3    0.49    1.10
   8   2  -3    0.19    0.19
  -8  -2   3    0.40    0.34
  -8  -2   3    0.39    0.70
   7   2  -3    6.13    0.86
   7   2  -3    9.69    1.36
   7   2  -3    6.58    1.00
  -7  -2   3    5.67    0.93
  -7  -2   3    9.10    1.08
  -7  -2   3    7.76    1.18
   6   2  -3   13.62    1.13
   6   2  -3   15.67    1.49
   6   2  -3   12.34    1.01
   6   2  -3   12.34    1.36
  -6  -2   3   12.05    1.19
  -6  -2   3   11.77    0.98
  -6  -2   3   12.11    1.17
   5   2  -3    0.58    0.53
   5   2  -3    0.16    0.33
   5   2  -3   -0.37    0.70
   5   2  -3    0.04    0.10
  -5  -2   3    0.28    0.43
  -5  -2   3    0.22    0.22
  -5  -2   3    0.18    0.15
   4   2  -3    1.43    0.48
   4   2  -3    0.65    0.22
   4   2  -3    0.98    0.33
   4   2  -3    0.55    0.62
  -4  -2   3    0.66    0.36
  -4  -2   3    1.88    0.55
  -4  -2   3    0.65    0.25
   3   2  -3   19.33    1.45
   3   2  -3   19.12    1.23
   3   2  -3   17.01    1.05
   3   2  -3   16.77    1.02
  -3  -2   3   17.39    1.31
  -3  -2   3   16.99    1.04
  -3  -2   3   26.27    1.79
   2   2  -3  139.21    5.02
  -2  -2   3  143.41    5.50
  -2  -2   3  134.40    5.34
  -2  -2   3  141.70    5.03
  -2  -2   3  134.78    5.08
   1   2  -3   40.45    1.72
   1   2  -3   38.45    2.09
   1   2  -3   39.22    1.66
  -1  -2   3   38.96    1.65
  -1  -2   3   38.91    1.70
  -1  -2   3   40.52    2.06
   0   2  -3    2.80    0.31
   0   2  -3    3.19    0.59
   0   2  -3    2.26    0.52
   0   2  -3    2.43    0.34
   0  -2   3    1.84    0.37
   0  -2   3    2.81    0.35
   0  -2   3    2.67    0.52
  -1   2  -3   45.20    2.47
  -1   2  -3   45.89    2.03
  -1   2  -3   48.27    1.90
  -1   2  -3   47.32    1.89
   1  -2   3   47.53    2.16
   1  -2   3   42.62    2.19
   1  -2   3   48.24    1.88
  -2   2  -3    5.54    0.72
  -2   2  -3    4.17    0.42
  -2   2  -3    5.03    0.42
  -2   2  -3    3.85    0.35
   2  -2   3    5.41    0.60
   2  -2   3    4.32    0.41
   2  -2   3    3.74    0.49
  -3   2  -3   -0.36    0.27
  -3   2  -3    0.52    0.20
  -3   2  -3    0.37    0.16
  -3   2  -3    0.30    0.13
   3  -2   3    0.20    0.25
   3  -2   3    0.28    0.15
   3  -2   3    0.08    0.17
  -4   2  -3  156.46    6.06
  -4   2  -3  161.65    6.13
  -4   2  -3  184.83    6.84
   4  -2   3  165.87    6.11
  -5   2  -3   97.15    4.00
  -5   2  -3   99.55    3.75
  -5   2  -3   97.70    3.94
  -5   2  -3   98.16    3.83
   5  -2   3   98.34    3.90
   5  -2   3   95.71    3.76
   5  -2   3  100.24    3.83
  -6   2  -3   24.19    1.31
  -6   2  -3   24.02    1.46
  -6   2  -3   25.06    1.28
   6  -2   3   23.14    1.43
   6  -2   3   24.45    1.21
   6  -2   3   23.73    1.31
  -7   2  -3    2.13    0.40
  -7   2  -3    2.72    0.64
  -7   2  -3    2.82    0.40
   7  -2   3    2.22    0.56
   7  -2   3    2.43    0.34
   7  -2   3    2.25    0.44
  -8   2  -3    1.76    0.43
  -8   2  -3    1.59    0.51
   8  -2   3    1.46    0.36
  -9   2  -3    2.81    0.64
  -9   2  -3    1.79    0.72
  -9   2  -3    2.62    0.58
   9  -2   3    3.02    0.64
 -10   2  -3    5.14    0.86
 -10   2  -3    5.05    0.88
 -10   2  -3    4.79    1.10
  10  -2   3    3.77    0.75
 -11   2  -3   31.27    2.00
 -11   2  -3   30.07    2.51
 -11   2  -3   26.01    2.34
 -12   2  -3    1.43    1.21
 -12   2  -3    0.73    0.40
 -13   2  -3    0.56    0.36
 -14   2  -3    0.29    0.25
 -15   2  -3    1.92    0.68
 -12  -1   3    3.40    1.00
 -11  -1   3    5.10    1.14
  10   1  -3    2.77    1.30
 -10  -1   3    3.37    0.84
   9   1  -3    2.14    0.94
   9   1  -3    1.81    0.54
  -9  -1   3    1.71    0.68
  -9  -1   3    3.22    0.92
   8   1  -3    6.14    0.99
   8   1  -3    5.51    0.97
   8   1  -3    3.40    1.02
  -8  -1   3    4.57    1.03
  -8  -1   3    5.28    0.87
   7   1  -3   -0.07    0.80
   7   1  -3    1.70    0.50
   7   1  -3    0.46    0.52
  -7  -1   3    0.70    0.39
  -7  -1   3    1.01    0.96
   6   1  -3   56.81    2.76
   6   1  -3   58.29    2.89
   6   1  -3   63.74    2.80
   6   1  -3   58.64    2.94
  -6  -1   3   59.86    3.14
   5   1  -3    0.62    0.62
   5   1  -3    0.32    0.32
   5   1  -3    0.30    0.45
  -5  -1   3   -0.07    0.38
  -5  -1   3    0.20    0.17
   4   1  -3    4.88    0.83
   4   1  -3    4.80    0.60
   4   1  -3    5.22    0.71
  -4  -1   3    4.08    0.67
  -4  -1   3    3.68    0.67
   3   1  -3   19.74    1.41
   3   1  -3   20.63    1.08
   3   1  -3   22.14    1.23
   3   1  -3   21.71    1.18
  -3  -1   3   19.23    1.31
  -3  -1   3   22.93    1.42
   2   1  -3   -0.27    0.34
   2   1  -3    0.47    0.26
   2   1  -3    0.31    0.16
   2   1  -3    0.34    0.16
  -2  -1   3    0.85    0.38
  -2  -1   3    0.56    0.18
  -2  -1   3    0.25    0.16
   1   1  -3    7.50    0.92
   1   1  -3    6.37    0.56
   1   1  -3    6.81    0.45
  -1  -1   3    7.52    0.48
  -1  -1   3    7.75    0.63
  -1  -1   3    7.63    0.73
  -1  -1   3    7.28    0.55
   0   1  -3   99.58    4.05
   0   1  -3   97.64    3.58
   0  -1   3  108.09    4.09
   0  -1   3   99.89    3.57
  -1   1  -3  407.17   13.24
  -1   1  -3  391.35   13.66
   1  -1   3  394.99   13.21
   1  -1   3  376.28   13.63
  -2   1  -3   49.37    2.23
  -2   1  -3   49.14    2.27
  -2   1  -3   53.06    2.02
   2  -1   3   51.86    2.09
   2  -1   3   51.30    2.28
   2  -1   3   52.90    2.01
  -3   1  -3   16.14    0.87
  -3   1  -3   14.89    0.76
  -3   1  -3   16.69    1.01
   3  -1   3   15.68    0.98
   3  -1   3   15.55    0.86
   3  -1   3   15.56    0.84
  -4   1  -3    0.65    0.17
  -4   1  -3    0.60    0.26
  -4   1  -3    0.62    0.20
  -4   1  -3    0.56    0.23
   4  -1   3    0.87    0.28
   4  -1   3    0.70    0.25
   4  -1   3    0.66    0.17
  -5   1  -3    6.32    0.49
  -5   1  -3    6.43    0.53
  -5   1  -3    6.24    0.56
  -5   1  -3    7.76    0.68
   5  -1   3    6.16    0.50
   5  -1   3    6.40    0.68
   5  -1   3    5.14    0.51
  -6   1  -3   48.24    1.94
  -6   1  -3   49.19    2.18
  -6   1  -3   48.04    2.10
  -6   1  -3   49.96    2.36
   6  -1   3   47.45    1.90
   6  -1   3   47.97    2.10
   6  -1   3   48.41    2.33
  -7   1  -3   12.84    0.92
  -7   1  -3   14.29    0.98
  -7   1  -3   12.84    1.15
   7  -1   3   14.48    0.93
   7  -1   3   14.14    1.24
  -8   1  -3    4.33    0.71
  -8   1  -3    5.04    0.94
  -8   1  -3    4.40    0.73
   8  -1   3    4.18    0.63
  -9   1  -3    4.88    0.79
  -9   1  -3    3.96    0.84
  -9   1  -3    2.92    0.59
   9  -1   3    3.42    0.57
 -10   1  -3    3.02    0.64
 -10   1  -3    3.42    1.03
 -10   1  -3    2.39    0.55
 -11   1  -3    1.47    0.52
 -11   1  -3    2.08    1.02
 -11   1  -3    1.74    0.53
 -12   1  -3    5.92    1.46
 -12   1  -3    5.90    1.05
 -13   1  -3    2.53    0.72
 -14   1  -3    2.32    0.67
 -15   1  -3    9.26    1.42
 -13   0   3    0.88    0.50
 -12   0   3    1.66    0.70
  11   0  -3    0.05    1.33
 -11   0   3    0.19    0.23
  10   0  -3   18.50    2.00
 -10   0   3   20.04    1.89
   9   0  -3    7.55    1.20
   9   0  -3    6.08    0.91
  -9   0   3    6.81    0.65
  -9   0   3    6.50    1.16
  -9   0   3    6.24    0.64
   8   0  -3    5.85    1.13
   8   0  -3    3.76    0.69
  -8   0   3    5.61    1.14
  -8   0   3    5.23    0.74
   7   0  -3    8.96    1.07
   7   0  -3    8.46    1.04
   7   0  -3    8.72    0.86
   7   0  -3    7.67    1.14
  -7   0   3    9.30    1.39
  -7   0   3    7.74    0.93
   6   0  -3    0.12    0.14
   6   0  -3   -0.22    0.58
   6   0  -3    1.00    0.57
   6   0  -3    0.00    0.37
  -6   0   3    0.26    0.22
  -6   0   3    0.52    0.46
   5   0  -3    0.48    0.30
   5   0  -3    0.38    0.19
   5   0  -3    0.22    0.49
   5   0  -3   -0.03    0.41
  -5   0   3    0.10    0.36
   4   0  -3    3.85    0.71
   4   0  -3    3.70    0.58
   4   0  -3    3.33    0.48
   4   0  -3    5.99    0.84
  -4   0   3    4.25    0.74
  -4   0   3    4.16    0.66
   3   0  -3  154.52    5.83
   3   0  -3  147.41    5.48
   3   0  -3  150.26    5.39
  -3   0   3  152.26    5.74
   2   0  -3   20.04    1.31
   2   0  -3   22.53    1.08
   2   0  -3   23.72    1.02
  -2   0   3   23.23    1.30
  -2   0   3   21.76    1.31
   1   0  -3   19.95    0.84
   1   0  -3   19.02    1.07
   1   0  -3   20.45    0.92
  -1   0   3   22.76    1.26
  -1   0   3   20.00    0.86
   0   0  -3    3.60    0.44
   0   0  -3    2.85    0.50
   0   0  -3    3.42    0.28
   0   0  -3    3.34    0.22
   0   0   3    2.61    0.46
   0   0   3    3.02    0.21
   0   0   3    3.73    0.48
  -1   0  -3    5.15    0.64
  -1   0  -3    5.45    0.33
  -1   0  -3    4.53    0.29
   1   0   3    4.73    0.37
   1   0   3    4.97    0.53
   1   0   3    4.59    0.29
  -2   0  -3  258.62    8.64
  -2   0  -3  248.75    8.91
   2   0   3  253.47    8.94
   2   0   3  252.45    8.62
  -3   0  -3    1.26    0.31
  -3   0  -3    1.53    0.30
  -3   0  -3    1.59    0.26
  -3   0  -3    1.34    0.19
   3   0   3    1.54    0.35
   3   0   3    1.18    0.21
   3   0   3    1.82    0.29
  -4   0  -3   36.90    1.47
  -4   0  -3   36.07    1.53
  -4   0  -3   38.70    1.65
   4   0   3   35.41    1.63
   4   0   3   35.55    1.49
  -5   0  -3   17.63    1.10
  -5   0  -3   17.49    0.91
  -5   0  -3   18.09    0.90
  -5   0  -3   15.20    0.89
   5   0   3   19.97    0.97
   5   0   3   16.69    1.12
  -6   0  -3   11.73    0.76
  -6   0  -3    9.45    0.69
  -6   0  -3   11.83    0.97
   6   0   3   10.70    0.73
   6   0   3   11.67    0.99
   6   0   3   10.85    0.62
   6   0   3   11.44    0.58
  -7   0  -3    5.07    0.51
  -7   0  -3    5.85    0.85
   7   0   3    4.83    0.48
  -8   0  -3   24.53    1.73
  -8   0  -3   24.68    1.43
  -8   0  -3   26.11    1.46
   8   0   3   25.26    1.97
   8   0   3   22.82    1.32
  -9   0  -3   40.45    2.11
  -9   0  -3   39.78    2.08
  -9   0  -3   41.34    2.47
   9   0   3   38.32    1.95
 -10   0  -3    1.82    0.81
 -10   0  -3    4.08    0.77
 -10   0  -3    3.35    0.74
 -11   0  -3   18.60    1.91
 -11   0  -3   14.85    1.25
 -11   0  -3   15.83    1.32
 -12   0  -3   17.47    2.30
 -12   0  -3   20.32    1.59
 -13   0  -3    2.73    0.72
 -14   0  -3   -0.05    0.09
 -15   0  -3   52.43    3.18
 -13   1   3    4.62    1.18
  11  -1  -3    2.71    1.30
 -11   1   3    1.22    0.55
  10  -1  -3    0.41    0.97
 -10   1   3    0.24    0.24
   9  -1  -3    0.32    0.81
   9  -1  -3    0.10    0.14
  -9   1   3    0.17    0.23
   8  -1  -3    1.84    0.68
   8  -1  -3    1.82    0.52
  -8   1   3    1.45    0.51
  -8   1   3    2.18    0.63
  -8   1   3    1.56    0.49
  -8   1   3    1.21    0.83
   7  -1  -3   41.19    2.26
   7  -1  -3   42.44    2.41
  -7   1   3   42.62    2.06
  -7   1   3   42.89    2.52
  -7   1   3   44.62    2.60
   6  -1  -3    1.29    0.58
   6  -1  -3    1.66    0.47
  -6   1   3    1.15    0.53
  -6   1   3    1.96    0.65
   5  -1  -3   46.80    2.95
   5  -1  -3   43.36    2.16
   5  -1  -3   43.26    2.11
  -5   1   3   44.85    2.23
  -5   1   3   42.43    2.37
  -5   1   3   44.76    2.15
   4  -1  -3    0.43    0.20
   4  -1  -3    0.02    0.37
   4  -1  -3    0.63    0.28
  -4   1   3   -0.04    0.33
  -4   1   3    0.03    0.25
  -4   1   3    0.20    0.16
   3  -1  -3    0.09    0.20
   3  -1  -3    0.27    0.15
   3  -1  -3   -0.08    0.31
  -3   1   3    0.51    0.27
  -3   1   3    0.14    0.30
  -3   1   3    0.32    0.19
   2  -1  -3  207.49    6.99
   2  -1  -3  193.78    6.92
   2  -1  -3  204.39    7.39
  -2   1   3  206.49    7.37
  -2   1   3  200.01    7.03
   1  -1  -3  169.26    5.69
   1  -1  -3  163.83    5.65
   1  -1  -3  161.64    6.16
  -1   1   3  175.96    6.21
   0  -1  -3   83.41    3.44
   0   1   3   90.73    3.50
  -1  -1  -3    5.73    0.30
  -1  -1  -3    5.13    0.53
  -1  -1  -3    5.26    0.37
  -1  -1  -3    6.03    0.33
   1   1   3    5.36    0.57
   1   1   3    6.78    0.41
   1   1   3    5.53    0.28
  -2  -1  -3   21.91    1.17
  -2  -1  -3   23.18    0.92
  -2  -1  -3   21.80    0.98
  -2  -1  -3   22.49    0.85
   2   1   3   22.17    0.97
   2   1   3   20.44    1.18
  -3  -1  -3   12.52    0.56
  -3  -1  -3   11.87    0.51
  -3  -1  -3   12.09    0.72
  -3  -1  -3   12.21    0.79
   3   1   3   12.14    0.73
   3   1   3   10.94    0.78
   3   1   3   11.99    0.54
  -4  -1  -3   10.93    0.54
  -4  -1  -3   11.42    0.80
  -4  -1  -3   10.90    0.56
   4   1   3   11.32    0.79
   4   1   3   11.20    0.55
   4   1   3   11.21    0.66
  -5  -1  -3  173.44    6.32
   5   1   3  175.79    5.91
   5   1   3  169.13    6.28
   5   1   3  158.41    6.02
  -6  -1  -3    3.67    0.47
  -6  -1  -3    4.24    0.40
  -6  -1  -3    3.56    0.61
   6   1   3    4.29    0.49
   6   1   3    3.20    0.37
   6   1   3    5.50    0.42
   6   1   3    2.56    0.58
  -7  -1  -3   17.31    1.04
  -7  -1  -3   18.15    1.07
  -7  -1  -3   16.77    1.35
   7   1   3   19.05    0.80
   7   1   3   18.37    0.77
   7   1   3   20.00    2.06
  -8  -1  -3   59.67    2.64
  -8  -1  -3   54.97    2.97
  -8  -1  -3   59.62    2.58
  -9  -1  -3    2.54    0.52
  -9  -1  -3    2.24    0.47
  -9  -1  -3    2.08    0.70
 -10  -1  -3    0.63    0.32
 -10  -1  -3    0.84    0.34
 -10  -1  -3   -0.34    0.76
 -11  -1  -3  126.13    6.03
 -11  -1  -3  131.80    5.39
 -11  -1  -3  135.15    5.55
 -12  -1  -3  122.01    6.18
 -12  -1  -3  134.92    5.59
 -12  -1  -3  127.79    5.40
 -13  -1  -3    7.20    1.16
 -14  -1  -3    0.78    0.42
 -15  -1  -3   12.84    1.72
 -13   2   3    0.87    0.58
 -12   2   3    1.93    0.73
  11  -2  -3    1.92    1.34
 -11   2   3    3.04    0.86
  10  -2  -3    0.17    0.18
  10  -2  -3    0.78    0.99
 -10   2   3   -1.00    1.25
 -10   2   3    0.26    0.33
   9  -2  -3   22.73    1.68
  -9   2   3   23.98    2.13
  -9   2   3   23.51    1.95
   8  -2  -3    0.05    0.12
  -8   2   3   -0.09    0.42
  -8   2   3   -0.07    0.72
  -8   2   3   -0.09    0.44
  -8   2   3    0.05    0.15
   7  -2  -3    0.67    0.68
   7  -2  -3    2.90    0.78
  -7   2   3    1.44    0.67
  -7   2   3    1.95    0.52
  -7   2   3    1.66    0.55
  -7   2   3    1.41    0.48
   6  -2  -3   87.47    3.60
   6  -2  -3   82.97    3.64
  -6   2   3   82.50    3.67
  -6   2   3   83.24    3.48
   5  -2  -3  107.67    4.39
   5  -2  -3  111.93    4.27
  -5   2   3  111.55    4.69
  -5   2   3  104.32    4.29
  -5   2   3  109.25    4.36
   4  -2  -3    3.69    0.51
   4  -2  -3    7.73    1.12
  -4   2   3    3.27    0.61
  -4   2   3    3.87    0.53
  -4   2   3    4.06    0.60
   3  -2  -3    0.73    0.25
   3  -2  -3    0.46    0.31
   3  -2  -3    0.38    0.20
  -3   2   3    0.11    0.25
  -3   2   3    0.36    0.22
  -3   2   3    0.95    0.37
  -3   2   3    0.59    0.26
   2  -2  -3   27.78    1.15
   2  -2  -3   34.38    1.63
   2  -2  -3   23.51    1.44
  -2   2   3   26.30    1.45
  -2   2   3   29.20    1.53
  -2   2   3   27.28    1.20
   1  -2  -3    8.64    0.60
   1  -2  -3    8.06    0.39
   1  -2  -3    8.67    0.76
   1  -2  -3    7.55    0.53
  -1   2   3    8.07    0.73
  -1   2   3    8.38    0.63
  -1   2   3    8.95    0.42
   0  -2  -3    9.94    0.60
   0  -2  -3   12.41    0.85
   0  -2  -3   10.45    0.57
   0   2   3   11.30    0.84
   0   2   3   10.52    0.72
   0   2   3   10.50    0.64
   1   2   3  375.12   12.78
   1   2   3  379.04   12.83
   1   2   3  397.77   13.35
  -2  -2  -3  113.97    4.05
   2   2   3  112.68    4.05
   2   2   3  113.88    4.17
   2   2   3  110.67    4.33
  -3  -2  -3   12.83    0.79
   3   2   3   12.98    0.80
   3   2   3   13.07    0.88
   3   2   3   11.22    0.74
  -4  -2  -3  106.25    4.10
   4   2   3  104.03    4.08
   4   2   3  105.24    4.08
   4   2   3  107.31    3.92
  -5  -2  -3    2.47    0.24
  -5  -2  -3    2.49    0.53
  -5  -2  -3    2.73    0.26
   5   2   3    2.17    0.47
   5   2   3    2.37    0.46
   5   2   3    2.98    0.43
  -6  -2  -3   -0.34    0.35
  -6  -2  -3    0.02    0.03
  -6  -2  -3    0.05    0.07
   6   2   3   -0.14    0.23
   6   2   3    0.25    0.42
   6   2   3   -0.11    0.26
  -7  -2  -3  176.75    6.92
   7   2   3  170.74    6.28
   7   2   3  171.88    6.18
   7   2   3  187.20    6.92
  -8  -2  -3  389.76   13.67
   8   2   3  387.84   12.50
   8   2   3  341.48   12.52
  -9  -2  -3   41.94    2.13
  -9  -2  -3   41.99    2.61
  -9  -2  -3   43.06    2.07
 -10  -2  -3    1.84    0.87
 -10  -2  -3    1.26    0.40
 -11  -2  -3   35.50    1.98
 -11  -2  -3   35.24    2.83
 -11  -2  -3   34.72    2.07
 -12  -2  -3   36.52    3.08
 -12  -2  -3   38.86    2.31
 -12  -2  -3   38.23    2.31
  12   2   3   38.62    2.71
 -13  -2  -3    2.23    0.65
 -14  -2  -3   14.99    1.43
 -15  -2  -3    1.08    0.51
 -13   3   3    7.55    1.53
 -12   3   3    0.36    0.37
  11  -3  -3   -0.04    1.33
 -11   3   3    0.73    0.43
 -11   3   3    3.77    1.73
 -10   3   3   27.58    2.48
 -10   3   3   25.22    2.16
   9  -3  -3   94.59    4.36
  -9   3   3   95.17    4.74
  -9   3   3   92.55    4.57
  -8   3   3    0.56    0.49
  -8   3   3    0.00    0.11
  -8   3   3    0.38    0.73
  -8   3   3    0.56    0.46
   7  -3  -3    1.66    0.67
   7  -3  -3    0.73    0.31
  -7   3   3    1.23    0.64
  -7   3   3    1.32    0.56
  -7   3   3    1.62    0.53
  -7   3   3    0.91    0.81
   6  -3  -3    4.15    0.76
   6  -3  -3    4.48    0.74
  -6   3   3    5.52    0.98
  -6   3   3    4.52    0.76
  -6   3   3    4.47    0.74
  -6   3   3    3.45    0.60
   5  -3  -3   45.73    2.29
   5  -3  -3   46.24    2.14
  -5   3   3   45.59    2.22
  -5   3   3   46.67    2.52
  -5   3   3   45.63    2.11
  -5   3   3   51.64    2.32
   4  -3  -3    0.31    0.16
   4  -3  -3    0.33    0.28
  -4   3   3    0.85    0.42
  -4   3   3    0.39    0.31
  -4   3   3    0.54    0.26
  -4   3   3    1.06    0.34
   3  -3  -3  140.50    5.04
  -3   3   3  143.62    5.12
  -3   3   3  139.15    5.43
  -3   3   3  140.74    5.44
  -3   3   3  141.67    5.48
   2  -3  -3   96.73    3.47
   2  -3  -3   94.72    3.88
  -2   3   3   99.98    3.51
  -2   3   3   95.57    3.85
  -2   3   3   92.30    3.98
  -2   3   3  102.41    3.98
   1  -3  -3   37.37    1.65
   1  -3  -3   35.48    1.41
   1  -3  -3   36.85    1.65
  -1   3   3   36.83    1.44
  -1   3   3   38.88    1.74
  -1   3   3   37.65    1.78
  -1   3   3   43.87    1.98
   0  -3  -3  145.92    5.29
   0  -3  -3  134.74    4.85
   0   3   3  148.68    5.29
   0   3   3  142.33    4.88
   0   3   3  143.90    5.48
  -1  -3  -3    1.25    0.29
  -1  -3  -3    1.09    0.18
  -1  -3  -3    0.87    0.15
  -1  -3  -3    0.74    0.16
   1   3   3    0.86    0.28
   1   3   3    1.05    0.16
   1   3   3    1.14    0.21
  -2  -3  -3   -0.06    0.17
   2   3   3   -0.15    0.18
   2   3   3    0.10    0.11
   2   3   3   -0.03    0.16
  -3  -3  -3  142.72    5.36
   3   3   3  149.70    5.37
   3   3   3  147.71    5.38
   3   3   3  143.60    5.21
  -4  -3  -3  919.60   31.22
  -4  -3  -3  918.88   31.39
   4   3   3  933.99   31.24
   4   3   3  950.77   31.23
   4   3   3  923.50   31.36
  -5  -3  -3  140.74    5.13
  -5  -3  -3  139.58    5.45
   5   3   3  140.40    5.15
   5   3   3  137.47    5.25
   5   3   3  137.22    5.39
  -6  -3  -3    0.68    0.39
  -6  -3  -3    0.84    0.22
  -6  -3  -3    0.82    0.19
  -6  -3  -3    0.80    0.30
   6   3   3    0.75    0.53
   6   3   3    0.97    0.36
  -7  -3  -3   62.10    3.13
  -7  -3  -3   59.96    2.57
  -7  -3  -3   62.93    2.50
   7   3   3   66.93    2.77
   7   3   3   62.27    3.08
   7   3   3   60.77    2.60
  -8  -3  -3  130.24    5.03
  -8  -3  -3  130.52    4.89
  -8  -3  -3  130.31    5.68
   8   3   3  130.82    4.84
   8   3   3  130.32    4.95
   8   3   3  134.88    5.43
  -9  -3  -3    1.76    0.45
  -9  -3  -3    2.24    0.84
  -9  -3  -3    1.73    0.38
   9   3   3    2.01    0.43
   9   3   3    1.86    0.66
   9   3   3    1.95    0.43
 -10  -3  -3    8.22    0.82
 -10  -3  -3    7.40    0.71
  10   3   3    8.91    1.32
 -11  -3  -3    5.62    0.91
  11   3   3    3.67    1.04
 -12  -3  -3    3.68    0.69
 -12  -3  -3    3.59    0.73
  12   3   3    2.93    1.24
 -13  -3  -3    0.08    0.17
 -14  -3  -3    0.73    0.36
 -13   4   3   32.75    2.77
 -12   4   3    3.32    0.96
 -11   4   3    3.06    1.67
 -11   4   3    3.97    0.99
  10  -4  -3    1.21    0.50
 -10   4   3    3.76    1.31
 -10   4   3    1.57    0.65
   9  -4  -3   19.60    1.58
  -9   4   3   21.91    2.06
  -9   4   3   20.62    1.83
  -8   4   3    0.26    0.22
  -8   4   3   -0.13    0.55
  -8   4   3   -0.09    0.54
  -8   4   3   -0.50    0.69
   7  -4  -3   27.20    1.74
   7  -4  -3   26.46    1.74
  -7   4   3   23.38    1.71
  -7   4   3   26.30    1.64
  -7   4   3   25.17    1.89
  -7   4   3   27.52    1.52
   6  -4  -3   95.34    3.86
   6  -4  -3   90.47    3.99
  -6   4   3   93.39    3.93
  -6   4   3   88.55    3.86
  -6   4   3   93.22    3.74
   5  -4  -3    3.38    0.61
   5  -4  -3    2.20    0.50
  -5   4   3    3.60    0.72
  -5   4   3    2.67    0.56
  -5   4   3    3.15    0.65
  -5   4   3    2.24    0.55
   4  -4  -3   38.22    1.73
   4  -4  -3   38.65    1.95
  -4   4   3   35.54    2.02
  -4   4   3   36.50    2.02
  -4   4   3   37.37    1.78
  -4   4   3   37.73    1.89
   3  -4  -3    7.49    0.99
   3  -4  -3    4.26    0.47
   3  -4  -3    3.99    0.63
  -3   4   3    4.55    0.62
  -3   4   3    4.69    0.74
  -3   4   3    3.57    0.62
  -3   4   3    5.77    0.51
   2  -4  -3   22.56    1.31
   2  -4  -3   22.93    1.24
   2  -4  -3   21.96    1.03
  -2   4   3   23.04    1.44
  -2   4   3   21.07    1.27
  -2   4   3   21.99    1.28
  -2   4   3   21.46    1.05
   1  -4  -3   49.04    2.01
   1  -4  -3   42.56    1.78
   1  -4  -3   48.19    2.15
  -1   4   3   48.09    2.17
  -1   4   3   48.00    2.07
  -1   4   3   45.61    1.81
   0  -4  -3  639.18   22.33
   0  -4  -3  637.37   21.90
   0   4   3  698.24   21.93
   0   4   3  650.01   22.35
  -1  -4  -3  247.42    9.00
  -1  -4  -3  248.94    8.59
   1   4   3  247.91    9.00
   1   4   3  261.39    8.60
  -2  -4  -3    4.61    0.29
  -2  -4  -3    4.10    0.59
  -2  -4  -3    5.60    0.44
  -2  -4  -3    4.40    0.26
   2   4   3    5.30    0.69
   2   4   3    4.21    0.38
  -3  -4  -3   80.29    3.28
   3   4   3   77.89    3.22
   3   4   3   76.18    3.26
   3   4   3   81.20    3.06
  -4  -4  -3  299.92   10.47
   4   4   3  283.68   10.31
   4   4   3  299.72   10.47
   4   4   3  297.65   10.52
  -5  -4  -3    8.29    0.45
  -5  -4  -3    8.96    0.55
  -5  -4  -3    9.49    0.79
   5   4   3    8.30    0.82
   5   4   3    7.50    0.74
   5   4   3    9.94    1.01
  -6  -4  -3    0.24    0.11
  -6  -4  -3    1.02    0.37
  -6  -4  -3    0.61    0.15
   6   4   3    0.61    0.44
   6   4   3   -0.12    0.28
  -7  -4  -3   13.08    0.82
  -7  -4  -3   11.85    0.72
  -7  -4  -3   12.16    0.92
   7   4   3   12.33    1.12
   7   4   3   13.00    1.11
   7   4   3   13.09    1.45
  -8  -4  -3    9.22    0.84
  -8  -4  -3   10.61    0.72
  -8  -4  -3   10.19    0.78
   8   4   3   10.44    1.06
   8   4   3   12.58    1.93
  -9  -4  -3    0.72    0.27
  -9  -4  -3    0.35    0.19
   9   4   3    0.01    0.57
   9   4   3    0.58    0.61
   9   4   3    1.06    0.58
 -10  -4  -3    2.06    0.52
  10   4   3    1.47    0.74
  10   4   3    1.12    0.61
  10   4   3    1.39    0.60
 -11  -4  -3    1.98    0.46
 -11  -4  -3    2.00    0.52
  11   4   3    2.47    1.07
 -12  -4  -3   28.17    1.81
 -12  -4  -3   26.74    1.64
 -13  -4  -3    1.30    0.42
 -14  -4  -3    4.20    0.80
 -12   5   3    0.55    0.44
 -11   5   3    2.09    1.71
 -11   5   3    2.12    0.77
  10  -5  -3   24.42    1.85
 -10   5   3   22.60    2.44
 -10   5   3   18.98    1.89
   9  -5  -3    3.00    0.79
  -9   5   3    1.20    0.92
  -9   5   3    1.65    0.60
  -9   5   3    3.45    0.98
   8  -5  -3   11.74    1.13
  -8   5   3    6.89    1.21
  -8   5   3   11.73    1.25
  -8   5   3   10.72    1.17
   7  -5  -3    4.61    1.06
   7  -5  -3    2.47    0.81
  -7   5   3    3.69    0.80
  -7   5   3    3.05    0.87
  -7   5   3    2.69    0.66
  -7   5   3    4.18    0.81
   6  -5  -3    8.42    1.12
   6  -5  -3   12.17    1.15
  -6   5   3   12.01    1.11
  -6   5   3   13.70    1.20
  -6   5   3   12.63    1.17
  -6   5   3   13.91    1.38
   5  -5  -3    6.99    0.82
   5  -5  -3   14.13    1.85
  -5   5   3   13.04    1.85
  -5   5   3    7.89    0.95
  -5   5   3    5.96    0.79
  -5   5   3    8.07    1.06
   4  -5  -3  303.76   10.35
  -4   5   3  296.18   10.43
  -4   5   3  289.26   10.62
  -4   5   3  294.50   10.77
   3  -5  -3  204.61    7.48
   3  -5  -3  205.58    7.16
   3  -5  -3  191.23    7.37
  -3   5   3  210.19    7.73
  -3   5   3  202.67    7.55
  -3   5   3  201.88    7.54
  -3   5   3  200.69    7.21
   2  -5  -3    1.44    0.42
   2  -5  -3    2.00    0.41
   2  -5  -3    1.59    0.37
  -2   5   3    1.74    0.32
  -2   5   3    1.86    0.49
  -2   5   3    2.12    0.46
   1  -5  -3   35.51    1.47
   1  -5  -3   33.07    1.59
   1  -5  -3   35.33    1.83
  -1   5   3   32.72    1.64
  -1   5   3   34.00    1.86
  -1   5   3   32.67    1.47
   0  -5  -3  276.56    9.57
   0  -5  -3  279.29   10.05
   0   5   3  287.57    9.60
   0   5   3  272.76   10.06
  -1  -5  -3   30.38    1.49
  -1  -5  -3   32.11    1.73
  -1  -5  -3   31.59    1.37
   1   5   3   30.91    1.38
   1   5   3   31.38    1.37
   1   5   3   29.82    1.72
  -2  -5  -3   49.26    2.39
  -2  -5  -3   51.82    2.08
  -2  -5  -3   50.45    1.85
  -2  -5  -3   50.39    1.93
   2   5   3   48.55    2.04
   2   5   3   46.49    2.35
  -3  -5  -3   11.11    0.78
  -3  -5  -3   10.24    0.49
  -3  -5  -3   10.19    0.94
  -3  -5  -3   10.52    0.55
   3   5   3    9.65    0.92
   3   5   3   10.70    0.74
   3   5   3   10.52    0.99
  -4  -5  -3   12.39    0.69
  -4  -5  -3   13.02    0.59
  -4  -5  -3   12.80    1.06
   4   5   3   12.31    0.89
   4   5   3   12.96    1.08
   4   5   3   15.34    1.17
  -5  -5  -3    1.61    0.23
  -5  -5  -3    1.55    0.46
  -5  -5  -3    1.55    0.26
   5   5   3    1.24    0.37
   5   5   3    1.05    0.46
   5   5   3    1.51    0.54
  -6  -5  -3    1.26    0.26
  -6  -5  -3    1.32    0.24
  -6  -5  -3    1.86    0.54
   6   5   3    0.54    0.53
   6   5   3    0.85    0.47
   6   5   3    1.16    0.63
  -7  -5  -3    1.16    0.25
  -7  -5  -3    0.31    0.15
  -7  -5  -3    0.25    0.42
   7   5   3   -0.36    0.59
   7   5   3    0.41    0.46
  -8  -5  -3   65.87    2.65
  -8  -5  -3   60.78    2.86
  -8  -5  -3   66.78    2.79
   8   5   3   66.86    3.28
   8   5   3   67.38    3.15
  -9  -5  -3    3.19    0.50
  -9  -5  -3    2.71    0.67
   9   5   3    4.05    0.98
   9   5   3    4.15    1.02
 -10  -5  -3    7.73    0.76
 -10  -5  -3    7.52    0.67
  10   5   3    6.25    1.14
  10   5   3    8.51    1.41
 -11  -5  -3    2.67    0.58
 -11  -5  -3    1.97    0.45
  11   5   3    3.13    1.17
 -12  -5  -3   10.84    1.02
 -12  -5  -3    9.97    0.88
 -13  -5  -3    4.03    0.74
 -14  -5  -3    0.12    0.17
 -12   6   3    0.14    0.35
 -11   6   3    2.21    1.83
 -11   6   3    1.61    0.68
  10  -6  -3    5.63    1.01
 -10   6   3    7.90    1.64
 -10   6   3    6.55    1.27
   9  -6  -3    0.62    0.30
  -9   6   3    1.27    0.51
  -9   6   3    1.31    1.06
  -9   6   3    0.73    0.86
   8  -6  -3   46.78    2.66
  -8   6   3   41.56    2.41
  -8   6   3   55.67    2.80
  -8   6   3   42.03    2.71
   7  -6  -3   90.19    4.21
  -7   6   3   94.16    4.14
  -7   6   3   96.57    4.12
  -7   6   3   91.00    4.43
  -7   6   3   88.04    3.93
   6  -6  -3    0.16    0.56
   6  -6  -3    0.80    0.41
  -6   6   3    1.19    0.71
  -6   6   3    0.37    0.49
  -6   6   3    0.28    0.64
  -6   6   3    0.34    0.26
   5  -6  -3    8.86    0.89
   5  -6  -3    9.86    0.94
  -5   6   3    7.88    0.88
  -5   6   3    9.40    1.15
  -5   6   3    9.46    1.19
  -5   6   3    8.13    1.03
   4  -6  -3   80.34    3.43
   4  -6  -3   84.79    3.68
  -4   6   3   86.56    3.52
  -4   6   3   88.52    3.82
  -4   6   3   91.44    4.00
   3  -6  -3   36.80    1.78
   3  -6  -3   39.65    2.01
   3  -6  -3   36.74    2.03
   3  -6  -3   37.86    1.90
  -3   6   3   41.80    1.87
  -3   6   3   41.69    2.21
  -3   6   3   38.07    2.06
   2  -6  -3   53.52    2.54
   2  -6  -3   50.61    2.26
   2  -6  -3   51.91    2.54
   2  -6  -3   51.76    2.19
  -2   6   3   53.32    2.63
  -2   6   3   52.98    2.44
  -2   6   3   49.07    2.37
   1  -6  -3    1.75    0.50
   1  -6  -3    1.11    0.28
  -1   6   3    1.34    0.36
  -1   6   3    1.20    0.31
  -1   6   3    2.01    0.59
   0  -6  -3   13.01    0.82
   0  -6  -3   13.42    0.77
   0  -6  -3   15.04    1.14
   0   6   3   11.59    1.17
   0   6   3   13.99    0.84
   0   6   3   13.80    0.86
  -1  -6  -3    0.71    0.23
  -1  -6  -3    0.84    0.38
  -1  -6  -3    0.60    0.18
   1   6   3    0.62    0.19
   1   6   3    0.62    0.48
  -2  -6  -3   11.90    1.08
  -2  -6  -3   13.52    0.89
  -2  -6  -3   13.06    0.74
  -2  -6  -3   12.51    0.66
   2   6   3   12.54    1.12
   2   6   3   12.08    0.83
  -3  -6  -3    0.75    0.42
  -3  -6  -3    0.16    0.30
  -3  -6  -3    0.25    0.11
  -3  -6  -3    0.10    0.07
   3   6   3    0.89    0.52
   3   6   3    0.31    0.26
  -4  -6  -3   87.60    3.87
  -4  -6  -3   88.56    3.16
  -4  -6  -3   87.96    3.26
   4   6   3   89.69    3.94
   4   6   3   85.43    3.56
   4   6   3   87.47    3.87
  -5  -6  -3   50.91    2.08
  -5  -6  -3   50.40    2.60
  -5  -6  -3   49.95    1.96
   5   6   3   54.79    2.48
   5   6   3   51.02    2.66
   5   6   3   51.18    2.74
  -6  -6  -3   10.71    0.72
  -6  -6  -3   11.37    0.64
  -6  -6  -3   12.34    1.12
   6   6   3   11.43    1.28
   6   6   3   11.24    1.00
  -7  -6  -3    3.35    0.43
  -7  -6  -3    4.69    0.79
  -7  -6  -3    3.22    0.49
   7   6   3    2.84    0.89
   7   6   3    3.02    0.61
  -8  -6  -3   21.09    1.14
  -8  -6  -3   23.61    1.29
  -8  -6  -3   21.95    1.60
   8   6   3   22.87    1.70
   8   6   3   21.83    1.98
  -9  -6  -3    0.43    0.63
  -9  -6  -3    0.37    0.22
  -9  -6  -3    0.37    0.17
   9   6   3    0.16    0.66
   9   6   3    0.15    1.07
 -10  -6  -3    2.86    0.49
 -10  -6  -3    2.55    0.55
 -10  -6  -3    3.01    0.85
  10   6   3    1.05    1.62
 -11  -6  -3   18.78    1.30
 -11  -6  -3   16.12    1.09
 -12  -6  -3    1.63    0.44
 -12  -6  -3    1.46    0.38
 -13  -6  -3   -0.03    0.10
 -13  -6  -3    0.03    0.11
 -14  -6  -3    2.43    0.56
 -11   7   3   28.98    2.51
  10  -7  -3   -0.05    0.10
 -10   7   3    0.09    0.17
   9  -7  -3    4.26    0.95
  -9   7   3    3.43    0.99
  -9   7   3    2.33    1.19
   8  -7  -3   20.12    1.65
  -8   7   3   21.90    1.86
  -8   7   3   20.54    1.97
  -8   7   3   24.33    1.94
  -8   7   3   21.42    2.02
   7  -7  -3   20.72    1.63
  -7   7   3   23.38    1.84
  -7   7   3   22.21    1.86
  -7   7   3   20.89    1.81
   6  -7  -3   44.09    2.43
   6  -7  -3   39.89    2.41
  -6   7   3   36.82    2.44
  -6   7   3   41.94    2.55
  -6   7   3   41.26    2.47
  -6   7   3   44.55    2.34
   5  -7  -3   13.18    1.28
   5  -7  -3   10.62    1.05
  -5   7   3    9.37    1.05
  -5   7   3   11.18    1.08
  -5   7   3    9.74    1.32
  -5   7   3   11.42    1.42
   4  -7  -3    1.56    0.51
   4  -7  -3    2.48    0.54
   4  -7  -3    1.99    0.53
  -4   7   3    2.82    0.64
  -4   7   3    1.39    0.77
  -4   7   3    2.06    0.50
   3  -7  -3    2.64    0.54
   3  -7  -3    3.35    0.56
   3  -7  -3    2.51    0.67
   3  -7  -3    2.86    0.57
  -3   7   3    3.68    0.58
  -3   7   3    3.38    0.85
  -3   7   3    3.18    0.66
   2  -7  -3   22.02    1.27
   2  -7  -3   21.02    1.51
   2  -7  -3   22.03    1.25
   2  -7  -3   22.74    1.38
  -2   7   3   22.81    1.74
  -2   7   3   24.30    1.44
  -2   7   3   25.02    1.33
   1  -7  -3   -0.04    0.26
   1  -7  -3   -0.56    0.34
   1  -7  -3    0.17    0.13
  -1   7   3    0.17    0.22
  -1   7   3   -0.53    0.50
  -1   7   3    0.35    0.20
   0  -7  -3   49.97    2.15
   0  -7  -3   48.53    2.08
   0  -7  -3   47.36    2.19
   0  -7  -3   51.81    2.64
   0   7   3   49.55    2.68
   0   7   3   49.01    2.19
   0   7   3   49.83    2.22
  -1  -7  -3   72.15    2.81
  -1  -7  -3   71.83    2.95
  -1  -7  -3   70.88    2.95
  -1  -7  -3   73.66    3.46
   1   7   3   72.63    2.91
   1   7   3   72.31    3.53
   1   7   3   74.63    3.00
  -2  -7  -3    1.30    0.26
  -2  -7  -3    1.45    0.31
  -2  -7  -3    0.80    0.38
  -2  -7  -3    0.53    0.42
   2   7   3    0.25    0.59
   2   7   3    1.93    0.42
  -3  -7  -3    0.37    0.16
  -3  -7  -3    0.67    0.37
  -3  -7  -3    0.58    0.16
  -3  -7  -3    0.60    0.53
   3   7   3    0.40    0.24
  -4  -7  -3   43.38    2.25
  -4  -7  -3   47.00    2.58
  -4  -7  -3   51.51    2.03
  -4  -7  -3   49.69    1.89
   4   7   3   45.29    2.68
   4   7   3   46.90    2.61
   4   7   3   43.10    2.23
  -5  -7  -3    6.15    0.52
  -5  -7  -3    6.96    0.46
  -5  -7  -3    4.82    0.88
   5   7   3    6.26    0.83
   5   7   3    5.06    1.06
  -6  -7  -3    9.19    0.68
  -6  -7  -3   10.32    1.27
  -6  -7  -3    8.57    0.57
   6   7   3    7.81    1.24
  -7  -7  -3   34.16    2.20
  -7  -7  -3   37.20    1.76
  -7  -7  -3   36.17    1.61
   7   7   3   39.52    2.28
   7   7   3   33.73    2.48
  -8  -7  -3    7.84    1.18
  -8  -7  -3    7.58    0.68
  -8  -7  -3    7.31    0.58
   8   7   3    6.26    1.47
   8   7   3    8.21    1.25
  -9  -7  -3   -0.01    0.05
  -9  -7  -3    0.99    0.28
  -9  -7  -3    1.00    0.84
   9   7   3   -0.12    0.73
   9   7   3   -0.42    1.40
 -10  -7  -3    0.46    0.88
 -10  -7  -3    1.03    0.27
 -10  -7  -3    1.08    0.34
  10   7   3    1.62    0.98
 -11  -7  -3   11.28    0.95
 -11  -7  -3   11.06    0.84
 -12  -7  -3    3.91    0.59
 -12  -7  -3    5.83    1.07
 -13  -7  -3    6.91    0.86
 -13  -7  -3    6.44    0.65
 -12   8   3    1.40    0.67
 -11   8   3    8.28    1.62
 -10   8   3    9.35    2.03
 -10   8   3    8.13    1.50
   9  -8  -3   11.42    1.53
  -9   8   3   12.93    2.60
  -9   8   3   13.17    1.88
  -9   8   3   12.75    1.85
   8  -8  -3    2.42    0.75
  -8   8   3    1.29    0.54
  -8   8   3    2.35    1.27
  -8   8   3    2.16    1.02
  -8   8   3    2.62    2.34
  -7   8   3    3.38    0.93
  -7   8   3    3.22    1.17
  -7   8   3    5.38    1.41
  -7   8   3    4.36    0.80
   6  -8  -3   14.62    1.32
  -6   8   3   16.62    1.79
  -6   8   3   14.89    1.38
  -6   8   3   14.06    1.72
  -6   8   3   16.20    1.61
   5  -8  -3    1.55    0.62
   5  -8  -3    1.05    0.77
   5  -8  -3    0.97    0.39
  -5   8   3    0.78    0.39
  -5   8   3    0.30    0.91
  -5   8   3    0.93    0.55
   4  -8  -3    7.79    1.04
   4  -8  -3    7.83    1.08
   4  -8  -3    7.74    0.94
  -4   8   3    8.23    0.98
  -4   8   3    7.65    1.36
  -4   8   3    6.94    1.08
   3  -8  -3   95.26    4.05
   3  -8  -3   97.08    4.41
   3  -8  -3  100.79    4.24
  -3   8   3  104.85    4.09
  -3   8   3   96.46    4.61
  -3   8   3   98.69    4.29
   2  -8  -3    0.22    0.18
   2  -8  -3   -0.10    0.43
   2  -8  -3    0.03    0.08
   2  -8  -3    0.44    0.39
  -2   8   3   -0.15    0.78
  -2   8   3    0.28    0.33
  -2   8   3    0.18    0.16
   1  -8  -3    0.91    0.42
   1  -8  -3    0.96    0.58
   1  -8  -3    0.80    0.31
  -1   8   3    1.31    0.37
  -1   8   3    0.85    0.73
  -1   8   3    0.21    0.30
   0  -8  -3    7.95    0.63
   0  -8  -3    7.55    0.69
   0  -8  -3    9.19    1.30
   0  -8  -3    7.01    0.75
   0   8   3    7.07    1.20
   0   8   3    8.66    0.79
   0   8   3    7.93    0.70
  -1  -8  -3   33.28    1.75
  -1  -8  -3   34.80    1.58
  -1  -8  -3   33.20    2.17
  -1  -8  -3   35.83    1.75
   1   8   3   32.73    1.66
   1   8   3   35.01    1.78
   1   8   3   33.92    2.32
  -2  -8  -3   10.85    0.68
  -2  -8  -3    9.74    0.75
  -2  -8  -3    9.78    1.28
  -2  -8  -3    9.17    0.88
   2   8   3   10.76    0.92
   2   8   3   10.05    1.38
  -3  -8  -3   18.20    1.34
  -3  -8  -3   20.73    1.63
  -3  -8  -3   19.03    1.12
  -3  -8  -3   20.40    1.02
   3   8   3   21.30    1.37
   3   8   3   18.74    1.77
  -4  -8  -3   24.72    1.33
  -4  -8  -3   27.86    2.00
  -4  -8  -3   26.50    1.22
   4   8   3   23.92    1.56
  -5  -8  -3    0.21    0.11
  -5  -8  -3    0.33    0.16
  -5  -8  -3    0.28    0.62
   5   8   3    0.27    0.44
  -6  -8  -3    0.58    0.66
  -6  -8  -3    0.25    0.15
   6   8   3    0.29    0.52
  -7  -8  -3   23.69    1.48
  -7  -8  -3   23.71    1.92
  -7  -8  -3   23.19    1.18
   7   8   3   22.62    1.77
  -8  -8  -3    2.41    1.38
  -8  -8  -3    2.92    0.54
  -8  -8  -3    3.01    0.46
   8   8   3    2.26    0.85
  -9  -8  -3   31.10    2.96
  -9  -8  -3   32.37    1.58
  -9  -8  -3   32.16    1.73
   9   8   3   32.55    2.46
 -10  -8  -3    0.27    0.19
 -10  -8  -3    0.50    1.35
 -10  -8  -3    0.44    0.20
 -11  -8  -3    0.09    0.12
 -11  -8  -3    0.00    0.07
 -12  -8  -3   12.03    0.92
 -12  -8  -3    9.05    0.74
 -11   9   3    1.86    0.74
  10  -9  -3    3.67    0.98
 -10   9   3    3.10    0.94
   9  -9  -3    2.37    0.71
  -9   9   3    2.46    0.88
  -9   9   3    0.94    1.42
   8  -9  -3    0.26    0.23
  -8   9   3    0.17    1.06
  -8   9   3    0.28    0.32
  -8   9   3   -0.01    1.41
   7  -9  -3   27.10    1.97
  -7   9   3   23.79    2.42
  -7   9   3   24.31    2.00
  -7   9   3   24.53    2.01
   6  -9  -3    6.61    1.16
  -6   9   3    7.10    1.17
  -6   9   3    6.91    1.55
   5  -9  -3    0.61    0.75
   5  -9  -3    1.54    0.50
  -5   9   3    0.87    0.44
   4  -9  -3    0.80    0.32
   4  -9  -3    1.39    0.71
  -4   9   3    1.40    0.57
  -4   9   3    1.28    0.47
   3  -9  -3   33.18    1.92
   3  -9  -3   29.18    1.76
   3  -9  -3   31.22    2.12
   3  -9  -3   28.34    1.69
  -3   9   3   30.41    1.84
  -3   9   3   31.45    1.93
   2  -9  -3    3.39    0.89
   2  -9  -3    2.32    0.51
   2  -9  -3    2.02    0.43
   2  -9  -3    2.35    0.64
  -2   9   3    3.27    0.64
  -2   9   3    2.58    0.53
   1  -9  -3    5.46    0.75
   1  -9  -3    5.08    0.98
   1  -9  -3    3.98    0.64
  -1   9   3    4.90    0.73
  -1   9   3    5.15    0.73
   0  -9  -3   34.65    1.83
   0  -9  -3   32.65    1.64
   0  -9  -3   32.32    1.81
   0  -9  -3   32.32    2.25
   0   9   3   34.94    1.80
   0   9   3   31.01    1.82
  -1  -9  -3    0.92    0.50
  -1  -9  -3    0.67    0.61
  -1  -9  -3    0.19    0.16
   1   9   3    1.02    0.31
   1   9   3   -0.10    0.39
  -2  -9  -3    1.72    0.90
  -2  -9  -3    1.49    0.39
  -2  -9  -3    1.13    0.29
   2   9   3    1.22    0.49
  -3  -9  -3    6.67    0.63
  -3  -9  -3    7.04    0.55
   3   9   3    5.63    0.83
  -4  -9  -3    1.00    0.28
  -4  -9  -3    1.16    0.79
  -4  -9  -3    0.59    0.24
   4   9   3    0.15    0.48
  -5  -9  -3   78.08    3.07
  -5  -9  -3   81.03    3.28
  -5  -9  -3   75.02    3.99
   5   9   3   77.59    3.65
  -6  -9  -3    4.74    0.67
  -6  -9  -3    4.58    0.57
  -6  -9  -3    7.26    1.32
   6   9   3    5.21    0.99
  -7  -9  -3    0.12    0.13
  -7  -9  -3   -0.04    0.04
  -7  -9  -3   -0.55    0.91
   7   9   3   -0.48    0.72
  -8  -9  -3   23.15    1.24
  -8  -9  -3   23.78    2.25
  -8  -9  -3   22.98    1.37
   8   9   3   23.20    1.99
  -9  -9  -3   35.31    1.84
  -9  -9  -3   33.70    1.66
  -9  -9  -3   37.75    2.80
 -10  -9  -3    1.13    0.30
 -10  -9  -3    1.25    0.34
 -10  -9  -3    0.62    1.51
 -11  -9  -3    9.41    0.78
 -11  -9  -3    8.73    0.68
 -11  10   3    6.62    1.47
  10 -10  -3    4.72    1.10
 -10  10   3    5.22    1.27
   9 -10  -3    0.58    0.41
  -9  10   3    0.80    1.68
  -9  10   3    0.74    0.50
   8 -10  -3    0.83    0.36
  -8  10   3    1.84    0.62
  -8  10   3    2.88    1.87
   7 -10  -3   14.16    1.89
  -7  10   3   15.40    1.99
  -7  10   3   10.41    1.60
  -7  10   3   12.56    2.14
   6 -10  -3    1.68    0.92
   6 -10  -3    0.42    0.44
  -6  10   3    2.09    0.90
  -6  10   3    0.03    0.14
  -6  10   3   -0.90    1.22
   5 -10  -3    0.28    0.24
   5 -10  -3    0.26    0.83
  -5  10   3    0.37    0.31
  -5  10   3    0.73    0.70
   4 -10  -3   18.03    1.74
   4 -10  -3   19.72    1.52
  -4  10   3   19.55    1.57
  -4  10   3   16.34    1.52
   3 -10  -3    0.24    0.81
   3 -10  -3    0.21    0.18
   3 -10  -3    0.28    0.23
  -3  10   3    0.50    0.28
  -3  10   3    0.87    0.58
   2 -10  -3    3.99    1.02
   2 -10  -3    4.19    0.77
   2 -10  -3    5.05    0.79
  -2  10   3    4.53    0.86
  -2  10   3    3.51    0.84
   1 -10  -3    0.35    0.70
   1 -10  -3    0.28    0.22
  -1  10   3   -0.07    0.45
  -1  10   3    2.21    0.58
   0 -10  -3    0.28    0.18
   0 -10  -3   -0.07    0.63
   0 -10  -3    0.86    0.31
   0  10   3    0.70    0.28
   0  10   3    0.65    0.51
  -1 -10  -3   94.80    3.97
  -1 -10  -3   93.22    4.62
  -1 -10  -3   92.98    3.72
   1  10   3   89.00    3.85
   1  10   3   94.46    4.32
  -2 -10  -3   21.46    1.35
  -2 -10  -3   17.84    1.11
  -2 -10  -3   20.70    1.98
   2  10   3   19.21    1.48
  -3 -10  -3    0.15    0.16
  -3 -10  -3    0.28    0.15
  -3 -10  -3    0.82    0.72
   3  10   3    0.37    0.54
  -4 -10  -3   26.90    1.36
  -4 -10  -3   24.91    1.50
  -4 -10  -3   25.31    2.27
   4  10   3   25.83    1.85
  -5 -10  -3  102.83    4.06
  -5 -10  -3  111.09    5.25
  -5 -10  -3  104.97    4.28
   5  10   3  105.56    4.73
  -6 -10  -3   11.44    1.75
  -6 -10  -3   10.71    0.88
  -6 -10  -3   11.82    0.80
   6  10   3   11.20    1.42
  -7 -10  -3    7.23    0.61
  -7 -10  -3    5.79    1.46
  -7 -10  -3    7.19    0.69
   7  10   3    5.84    1.32
  -8 -10  -3    8.00    1.66
  -8 -10  -3    8.85    0.69
  -8 -10  -3    8.73    0.78
  -9 -10  -3    4.88    0.67
  -9 -10  -3    4.36    1.69
  -9 -10  -3    5.68    0.81
 -10 -10  -3    2.07    0.55
 -10 -10  -3    2.12    0.38
  10 -11  -3    0.75    0.52
   9 -11  -3    1.96    0.74
   8 -11  -3    4.13    0.86
  -8  11   3    5.17    1.65
  -8  11   3    7.21    2.45
  -8  11   3    5.16    1.09
   7 -11  -3   -0.05    0.09
  -7  11   3   -0.37    1.32
  -7  11   3   -0.11    0.12
  -7  11   3   -0.80    1.79
   6 -11  -3   -0.42    1.00
   6 -11  -3    0.53    0.34
  -6  11   3    1.04    0.48
  -6  11   3    1.69    1.04
   5 -11  -3    4.45    1.23
   5 -11  -3    5.40    0.96
  -5  11   3    4.82    1.15
  -5  11   3    4.39    0.94
   4 -11  -3   -0.37    0.85
   4 -11  -3    1.69    0.56
  -4  11   3    0.87    0.72
   3 -11  -3   64.79    3.65
   3 -11  -3   64.56    3.26
  -3  11   3   61.42    3.20
  -3  11   3   61.07    3.26
   2 -11  -3   35.53    2.58
   2 -11  -3   35.20    2.17
  -2  11   3   37.55    2.28
  -2  11   3   33.84    2.14
   1 -11  -3    0.71    0.33
   1 -11  -3    0.81    0.30
   1 -11  -3    1.43    0.97
  -1  11   3    1.60    0.71
  -1  11   3    0.73    0.38
   0 -11  -3   27.37    1.74
   0 -11  -3   30.51    2.40
   0 -11  -3   26.07    1.54
   0  11   3   26.54    1.85
  -1 -11  -3  131.23    5.28
  -1 -11  -3  121.35    4.94
  -1 -11  -3  131.70    6.12
   1  11   3  129.27    5.37
  -2 -11  -3   37.43    1.84
  -2 -11  -3   35.49    2.03
  -2 -11  -3   35.25    2.70
   2  11   3   36.72    2.26
  -3 -11  -3    7.03    1.52
  -3 -11  -3    5.52    0.57
  -3 -11  -3    6.45    0.91
   3  11   3    6.57    1.10
  -4 -11  -3    8.40    0.71
  -4 -11  -3    8.46    0.83
  -4 -11  -3   11.06    1.78
   4  11   3   13.85    1.45
  -5 -11  -3    5.49    1.45
  -5 -11  -3    6.18    0.87
  -5 -11  -3    5.31    0.54
   5  11   3    5.49    1.19
  -6 -11  -3    2.37    0.52
  -6 -11  -3    1.44    1.17
  -6 -11  -3    3.72    0.55
   6  11   3    2.70    1.02
  -7 -11  -3   16.66    1.17
  -7 -11  -3   17.92    1.07
  -7 -11  -3   13.31    2.42
  -8 -11  -3   13.78    2.22
  -8 -11  -3   14.91    1.06
  -9 -11  -3    0.67    0.28
  -9 -11  -3    0.71    0.24
  -9 -11  -3    2.20    2.09
   9 -12  -3    5.01    1.24
   8 -12  -3    0.23    0.22
   7 -12  -3   17.57    1.71
  -7  12   3   14.70    2.94
   6 -12  -3   27.42    2.12
   6 -12  -3   25.20    2.67
  -6  12   3   28.83    2.45
   5 -12  -3    0.61    0.39
  -5  12   3    0.59    1.13
   4 -12  -3    8.93    1.96
   4 -12  -3   10.47    1.46
  -4  12   3    9.17    1.41
   3 -12  -3  108.70    4.94
   3 -12  -3  107.22    5.43
  -3  12   3  107.37    4.89
   2 -12  -3   66.01    3.93
   2 -12  -3   65.86    3.39
  -2  12   3   64.92    3.40
   1 -12  -3    2.50    1.11
   1 -12  -3    1.46    0.51
  -1  12   3    2.44    0.91
   0 -12  -3    9.21    1.85
   0 -12  -3   11.67    1.09
   0  12   3    8.72    1.23
  -1 -12  -3    5.37    1.62
  -1 -12  -3    5.49    0.74
  -1 -12  -3    5.41    0.87
   1  12   3    7.11    1.14
  -2 -12  -3    9.49    0.82
  -2 -12  -3    9.56    0.96
   2  12   3    9.76    1.38
  -3 -12  -3    7.67    1.62
  -3 -12  -3    6.69    0.94
  -3 -12  -3    6.87    0.67
   3  12   3    8.72    1.30
  -4 -12  -3   25.83    1.64
  -4 -12  -3   25.87    2.77
  -4 -12  -3   24.99    1.43
   4  12   3   23.87    2.07
  -5 -12  -3   -2.23    1.39
  -5 -12  -3    0.36    0.24
  -5 -12  -3    0.06    0.08
   5  12   3    0.31    0.96
  -6 -12  -3    2.06    0.42
  -6 -12  -3    3.03    1.67
  -6 -12  -3    3.07    0.58
  -7 -12  -3   12.59    1.01
  -8 -12  -3    2.51    0.49
  -8 -12  -3    2.54    0.43
  -9 -12  -3    0.54    0.20
   8 -13  -3    6.27    1.35
   7 -13  -3   44.15    3.01
   6 -13  -3   54.03    3.30
   5 -13  -3    1.57    0.58
  -5  13   3   -1.37    1.95
   4 -13  -3    1.19    0.49
  -4  13   3    2.02    1.17
   3 -13  -3    4.78    1.66
   3 -13  -3    2.40    0.66
  -3  13   3    3.10    1.16
   2 -13  -3    7.59    1.20
   2 -13  -3    5.25    1.68
  -2  13   3    5.51    1.20
   1 -13  -3    1.76    1.24
   1 -13  -3    1.63    0.52
  -1  13   3    1.64    0.91
   0 -13  -3   26.90    2.62
   0 -13  -3   23.17    1.73
   0  13   3   21.92    2.03
  -1 -13  -3    0.39    1.29
  -1 -13  -3    0.64    0.35
   1  13   3    1.60    0.96
  -2 -13  -3    0.16    0.17
   2  13   3   -0.04    1.00
  -3 -13  -3   14.67    1.20
  -3 -13  -3   15.38    1.28
   3  13   3   13.49    2.04
  -4 -13  -3    1.96    0.45
  -4 -13  -3    2.00    0.53
  -5 -13  -3    0.72    0.32
  -5 -13  -3    0.99    0.33
  -6 -13  -3   11.23    1.62
  -6 -13  -3   12.58    1.10
  -7 -13  -3   34.88    1.79
  -7 -13  -3   35.49    1.94
  -8 -13  -3    0.59    0.21
  -8 -13  -3    0.44    0.23
   7 -14  -3    0.26    0.31
   6 -14  -3   10.06    1.63
   4 -14  -3    5.12    1.03
   3 -14  -3    1.16    0.46
   2 -14  -3    0.71    0.37
   1 -14  -3    8.81    1.23
   0 -14  -3    3.49    0.86
  -1 -14  -3    2.49    0.64
  -2 -14  -3    5.20    0.98
  -3 -14  -3   47.00    3.67
  -4 -14  -3    1.35    0.47
  -5 -14  -3    1.88    0.52
  -6 -14  -3    6.12    0.87
  -7 -14  -3    4.61    0.69
  -7 -14  -3    4.88    0.67
   5 -15  -3    3.81    0.96
   4 -15  -3    1.21    0.54
   3 -15  -3    0.79    0.45
   2 -15  -3    0.97    0.47
   1 -15  -3   20.48    1.76
   0 -15  -3    2.15    0.62
  -1 -15  -3    2.92    0.72
  -2 -15  -3    3.20    0.75
  -3 -15  -3    6.97    1.08
  -4 -15  -3    2.76    0.66
  -5 -15  -3    4.75    0.83
   2 -16  -3    1.91    0.64
   1 -16  -3    5.65    1.06
   0 -16  -3    2.31    0.71
  -1 -16  -3   12.07    1.51
  -2 -16  -3    0.78    0.43
   1 -14   4    0.23    0.28
   2 -14   4    0.18    0.29
   3 -14   4    6.44    1.29
   4 -14   4   -0.05    0.14
  -2 -13   4    0.74    0.42
  -1 -13   4    7.09    1.45
   0 -13   4    1.88    0.73
   2 -13   4    2.55    0.87
   3 -13   4   13.54    1.81
   4 -13   4    0.03    0.13
   5 -13   4    0.31    0.32
   6 -13   4    6.72    1.28
   7 -13   4    2.13    0.73
  -4 -12   4    6.25    1.24
  -3 -12   4    0.29    0.23
  -2 -12   4    0.69    0.64
  -1 -12   4   19.64    2.42
   0 -12   4    1.59    0.58
   1 -12   4    1.33    0.61
   2 -12   4    4.87    1.02
   3 -12   4    0.18    0.22
  -4  12  -4    7.46    1.24
   4 -12   4    7.10    1.24
  -5  12  -4    6.14    1.03
   5 -12   4    5.32    1.03
  -6  12  -4    7.01    1.23
   6 -12   4    5.95    1.21
  -7  12  -4   16.24    2.06
   7 -12   4   18.09    2.24
  -8  12  -4    9.56    1.57
   8 -12   4    8.96    1.48
  -9  12  -4   -0.09    0.15
  -6 -11   4    0.54    0.41
  -5 -11   4    8.79    1.66
  -4 -11   4    5.22    1.21
  -3 -11   4    3.14    0.91
  -2 -11   4    0.87    0.46
  -1 -11   4    0.42    0.33
   0 -11   4    7.00    1.36
  -1  11  -4    2.99    0.76
   1 -11   4    4.52    1.13
  -2  11  -4   13.00    2.48
  -2  11  -4   11.41    1.45
   2 -11   4    8.65    2.17
   2 -11   4   10.62    1.50
  -3  11  -4   18.41    1.54
   3 -11   4   15.76    2.41
   3 -11   4   18.72    1.72
  -4  11  -4   38.97    2.48
   4 -11   4   39.46    2.69
   4 -11   4   42.11    3.50
  -5  11  -4    1.26    0.50
   5 -11   4    3.00    1.52
   5 -11   4    1.46    0.58
  -6  11  -4    0.27    0.26
   6 -11   4    0.00    0.10
   6 -11   4    0.28    1.59
  -7  11  -4   22.54    1.89
   7 -11   4   23.53    2.03
   7 -11   4   26.85    2.91
  -8  11  -4    6.29    1.12
   8 -11   4    7.29    2.12
   8 -11   4    6.73    1.23
  -9  11  -4    0.25    0.29
   9 -11   4    0.15    0.27
 -10  11  -4    7.38    1.39
  -7 -10   4    1.40    0.59
  -6 -10   4    0.07    0.19
  -5 -10   4   -0.04    0.10
  -4 -10   4    7.81    1.57
  -3 -10   4    1.24    0.55
   2  10  -4    3.74    1.22
  -2 -10   4    5.14    1.62
  -2 -10   4    4.50    0.96
   1  10  -4   12.41    1.71
  -1 -10   4   12.49    2.30
  -1 -10   4   11.38    1.56
   0  10  -4   82.12    4.12
   0  10  -4   72.81    3.73
   0 -10   4   82.27    4.21
   0 -10   4   84.22    4.87
  -1  10  -4    6.02    0.99
   1 -10   4    5.81    1.95
   1 -10   4    5.74    1.33
  -2  10  -4    3.69    0.83
  -2  10  -4    4.09    1.44
   2 -10   4    2.43    1.53
   2 -10   4    2.80    0.79
  -3  10  -4   40.94    2.39
   3 -10   4   37.23    3.08
   3 -10   4   41.98    2.65
  -4  10  -4   33.96    2.47
  -4  10  -4   32.73    2.13
   4 -10   4   29.43    2.22
   4 -10   4   35.99    3.02
  -5  10  -4    0.12    0.76
  -5  10  -4    0.07    0.14
   5 -10   4    0.29    1.16
   5 -10   4    0.02    0.11
  -6  10  -4    9.98    1.56
  -6  10  -4   11.57    1.53
   6 -10   4   13.19    1.81
   6 -10   4   10.63    1.91
  -7  10  -4    3.03    0.78
   7 -10   4    2.43    0.76
   7 -10   4    2.03    1.34
  -8  10  -4    0.37    0.27
   8 -10   4    0.50    0.40
   8 -10   4    1.51    1.47
  -9  10  -4    0.64    0.43
   9 -10   4    1.17    0.52
   9 -10   4    2.08    1.59
 -10  10  -4   10.81    1.67
 -11  10  -4    0.50    0.52
  -8  -9   4    2.03    0.69
  -7  -9   4   -0.02    0.11
  -6  -9   4    0.69    0.48
  -5  -9   4    4.78    2.20
  -5  -9   4    3.47    0.92
   4   9  -4   60.99    3.57
  -4  -9   4   64.95    3.74
  -4  -9   4   64.29    4.27
   3   9  -4   12.05    1.51
  -3  -9   4   12.86    2.17
  -3  -9   4   11.34    1.58
   2   9  -4    0.33    0.24
   2   9  -4    0.06    0.82
  -2  -9   4    0.71    1.16
  -2  -9   4    0.07    0.14
   1   9  -4   46.52    2.75
   1   9  -4   42.67    2.45
  -1  -9   4   53.27    3.62
  -1  -9   4   42.21    3.38
   0   9  -4   86.71    4.02
   0   9  -4   78.76    3.78
   0  -9   4   83.12    4.20
   0  -9   4   82.33    4.65
  -1   9  -4   -0.11    0.66
  -1   9  -4    0.37    0.28
   1  -9   4    0.24    0.25
   1  -9   4   -1.09    1.04
  -2   9  -4    6.74    1.14
   2  -9   4    6.93    1.46
   2  -9   4    7.53    1.25
  -3   9  -4   12.66    1.14
  -3   9  -4   14.62    1.67
   3  -9   4   13.28    1.31
   3  -9   4   11.92    1.90
  -4   9  -4    0.20    0.68
  -4   9  -4    0.10    0.15
   4  -9   4   -0.34    0.89
   4  -9   4    0.46    0.31
  -5   9  -4    0.88    0.68
  -5   9  -4    1.85    0.55
   5  -9   4    4.03    1.25
   5  -9   4    2.57    0.73
  -6   9  -4   16.00    1.39
  -6   9  -4   16.56    1.68
   6  -9   4   15.14    2.01
   6  -9   4   16.65    1.51
  -7   9  -4    8.93    1.37
  -7   9  -4    7.28    1.33
   7  -9   4    9.24    1.50
   7  -9   4    6.81    1.45
  -8   9  -4    1.55    0.55
  -8   9  -4    4.45    1.09
   8  -9   4    1.36    0.52
   8  -9   4    3.55    1.32
  -9   9  -4   55.11    3.20
   9  -9   4   53.21    3.21
   9  -9   4   53.20    3.41
 -10   9  -4   15.93    1.58
 -11   9  -4    2.30    0.73
 -12   9  -4    5.70    1.12
  -9  -8   4    0.73    0.46
  -8  -8   4   40.83    2.98
  -7  -8   4   13.94    1.91
  -7  -8   4   13.06    2.32
  -6  -8   4    1.44    0.59
  -6  -8   4   -0.54    1.66
   5   8  -4   27.30    2.23
  -5  -8   4   24.25    2.94
  -5  -8   4   23.82    2.06
   4   8  -4   75.55    3.99
  -4  -8   4   81.21    4.67
  -4  -8   4   85.41    4.37
  -4  -8   4   83.73    4.33
   3   8  -4    4.66    0.81
   3   8  -4    4.50    0.99
  -3  -8   4    4.89    0.95
  -3  -8   4    5.26    1.41
   2   8  -4    0.68    0.65
  -2  -8   4    0.16    0.96
   1   8  -4   11.44    1.25
   1   8  -4    9.28    0.92
  -1  -8   4    7.71    1.56
  -1  -8   4   11.43    1.61
   0   8  -4    0.29    0.20
   0   8  -4    0.30    0.53
   0  -8   4   -0.90    0.86
   0  -8   4    0.04    0.09
  -1   8  -4    5.01    0.91
  -1   8  -4    7.63    1.05
   1  -8   4    5.43    1.23
   1  -8   4    5.03    1.00
  -2   8  -4   21.82    1.69
  -2   8  -4   28.36    1.89
   2  -8   4   18.77    1.57
   2  -8   4   20.40    2.07
  -3   8  -4   45.00    2.38
  -3   8  -4   44.88    2.54
   3  -8   4   44.07    2.59
   3  -8   4   45.85    2.95
  -4   8  -4    1.58    0.67
  -4   8  -4    1.18    0.39
   4  -8   4    0.76    0.37
   4  -8   4    1.95    0.94
  -5   8  -4   69.83    3.35
  -5   8  -4   51.64    2.98
   5  -8   4   53.65    3.37
   5  -8   4   54.72    3.04
  -6   8  -4   45.45    2.49
  -6   8  -4   43.64    2.68
   6  -8   4   43.64    2.61
   6  -8   4   43.27    2.86
  -7   8  -4    1.40    0.48
  -7   8  -4    2.62    0.89
   7  -8   4    1.71    0.56
   7  -8   4    1.51    0.96
  -8   8  -4    4.61    0.98
  -8   8  -4    4.06    1.77
   8  -8   4    2.06    1.04
   8  -8   4    2.17    0.72
  -9   8  -4   92.60    4.75
  -9   8  -4   88.78    4.38
   9  -8   4   88.97    4.44
 -10   8  -4   22.60    1.85
  10  -8   4   21.97    2.11
 -11   8  -4    0.00    0.14
 -12   8  -4    0.15    0.27
 -13   8  -4    2.12    0.67
  -9  -7   4    7.85    1.41
  -8  -7   4   51.23    4.09
  -8  -7   4   58.16    4.33
  -7  -7   4   13.82    2.20
  -7  -7   4    9.57    1.58
   6   7  -4    1.78    0.98
  -6  -7   4    0.59    1.34
  -6  -7   4    2.33    0.76
   5   7  -4    3.08    0.93
  -5  -7   4    3.41    0.89
  -5  -7   4    3.55    1.30
   4   7  -4    0.32    0.24
   4   7  -4    0.15    0.66
  -4  -7   4    0.55    1.09
   3   7  -4    2.53    0.61
   3   7  -4    3.62    0.87
  -3  -7   4    1.52    0.56
  -3  -7   4    2.68    1.13
   2   7  -4    5.25    0.83
   2   7  -4    6.06    0.99
  -2  -7   4    5.74    1.05
  -2  -7   4    5.38    1.25
   1   7  -4   51.09    2.52
   1   7  -4   53.05    2.68
  -1  -7   4   50.20    2.85
  -1  -7   4   50.91    3.20
   0   7  -4    3.41    0.74
   0  -7   4    2.95    1.00
   0  -7   4    4.57    0.96
  -1   7  -4   35.25    1.90
  -1   7  -4   32.44    2.01
   1  -7   4   35.68    2.50
   1  -7   4   34.46    2.14
  -2   7  -4   52.26    2.52
  -2   7  -4   51.17    2.66
   2  -7   4   51.49    2.77
  -3   7  -4    5.67    0.78
   3  -7   4    6.67    1.23
   3  -7   4    5.04    0.87
  -4   7  -4    0.07    0.14
  -4   7  -4   -0.59    0.47
   4  -7   4    0.51    0.80
  -5   7  -4  129.86    5.58
  -5   7  -4  136.56    5.49
   5  -7   4  138.68    5.94
  -6   7  -4   58.96    3.16
   6  -7   4   64.36    3.36
   6  -7   4   59.68    3.13
  -7   7  -4    1.31    0.70
  -7   7  -4    1.30    0.44
   7  -7   4    0.78    0.36
   7  -7   4    0.24    0.72
  -8   7  -4    2.02    1.40
  -8   7  -4    0.25    0.76
  -8   7  -4    0.16    0.16
   8  -7   4    1.71    0.84
   8  -7   4    0.32    0.28
  -9   7  -4    4.46    1.35
  -9   7  -4    7.72    1.70
   9  -7   4    9.27    1.34
   9  -7   4    7.25    1.14
 -10   7  -4    2.83    1.18
 -10   7  -4    3.43    0.78
  10  -7   4    2.87    1.00
  10  -7   4    6.00    1.11
 -11   7  -4    9.56    1.50
 -12   7  -4    2.63    0.79
 -13   7  -4    2.93    0.87
 -10  -6   4    1.40    0.64
  -9  -6   4    0.04    0.22
  -8  -6   4    0.35    0.34
  -8  -6   4    0.34    1.67
   7   6  -4   -0.52    1.02
  -7  -6   4    1.02    0.50
  -7  -6   4    3.41    1.44
   6   6  -4    0.69    0.80
  -6  -6   4    0.43    0.33
  -6  -6   4    0.20    1.13
   5   6  -4   40.88    2.29
   5   6  -4   38.63    2.40
  -5  -6   4   44.38    2.92
   4   6  -4    6.49    0.94
   4   6  -4    4.93    0.97
  -4  -6   4    6.67    1.18
  -4  -6   4    6.35    1.35
   3   6  -4    8.71    1.10
   3   6  -4    7.58    1.04
  -3  -6   4    7.90    1.26
  -3  -6   4    4.95    1.12
   2   6  -4   41.84    2.17
   2   6  -4   43.06    2.27
  -2  -6   4   44.57    2.54
  -2  -6   4   39.02    3.71
   1   6  -4    0.34    0.21
   1   6  -4    0.38    0.34
  -1  -6   4    0.19    0.21
  -1  -6   4    0.04    0.14
  -1  -6   4   -0.15    0.68
   0   6  -4    7.77    0.85
   0   6  -4    6.47    0.67
   0  -6   4    9.04    1.27
   0  -6   4    7.94    1.36
   0  -6   4    6.88    0.89
  -1   6  -4   66.00    2.93
  -1   6  -4   61.76    2.80
   1  -6   4   61.25    3.42
   1  -6   4   61.38    2.83
  -2   6  -4  122.43    4.82
  -2   6  -4  121.96    5.61
  -2   6  -4  117.25    4.69
   2  -6   4  120.90    5.02
   2  -6   4  114.22    5.28
   2  -6   4  113.86    4.70
  -3   6  -4    4.47    0.66
  -3   6  -4    4.95    0.82
  -3   6  -4    3.13    1.05
   3  -6   4    5.01    0.83
   3  -6   4    4.27    0.77
   3  -6   4    4.20    0.99
  -4   6  -4    3.45    1.10
  -4   6  -4    3.88    0.69
  -4   6  -4    3.71    0.59
   4  -6   4    2.83    0.82
   4  -6   4    2.47    0.56
  -5   6  -4    9.86    1.01
  -5   6  -4   10.02    0.88
  -5   6  -4    8.90    1.49
   5  -6   4   11.69    1.31
   5  -6   4    6.77    0.95
  -6   6  -4    3.55    0.82
  -6   6  -4    2.70    0.54
  -6   6  -4    2.21    1.10
   6  -6   4    2.44    0.60
   6  -6   4    4.15    0.87
  -7   6  -4   44.71    3.06
  -7   6  -4   45.96    2.40
  -7   6  -4   45.55    2.62
   7  -6   4   44.98    2.51
   7  -6   4   42.30    2.45
  -8   6  -4    1.60    1.16
  -8   6  -4    2.15    0.82
  -8   6  -4    1.93    0.55
   8  -6   4    2.38    0.63
   8  -6   4    2.81    0.75
  -9   6  -4    1.61    0.89
  -9   6  -4    1.00    1.15
  -9   6  -4    1.37    0.44
   9  -6   4    2.44    0.75
   9  -6   4    1.23    0.45
 -10   6  -4    0.07    0.15
 -10   6  -4    1.49    1.79
 -10   6  -4    0.39    1.19
  10  -6   4    1.24    0.70
  10  -6   4    0.41    0.30
 -11   6  -4    2.10    1.41
 -11   6  -4    3.50    0.92
 -12   6  -4    0.52    0.34
 -14   6  -4    5.28    1.21
 -10  -5   4    1.20    0.55
  -9  -5   4    9.19    1.59
   8   5  -4    4.81    1.38
  -8  -5   4    4.22    1.55
  -8  -5   4    5.12    1.18
   7   5  -4    0.24    0.92
  -7  -5   4    0.43    0.31
  -7  -5   4    0.41    1.09
   6   5  -4   16.14    1.31
   6   5  -4   15.49    1.50
  -6  -5   4   16.53    1.59
  -6  -5   4   18.56    1.93
   5   5  -4    1.42    0.65
   5   5  -4    0.93    0.34
  -5  -5   4    1.49    0.56
   4   5  -4    3.19    0.65
   4   5  -4    2.11    0.67
  -4  -5   4    3.31    0.98
  -4  -5   4    2.83    0.75
   3   5  -4    8.71    0.81
   3   5  -4    8.34    0.89
  -3  -5   4   11.71    1.54
  -3  -5   4    8.42    1.31
   2   5  -4   87.57    4.63
   2   5  -4   92.26    3.83
  -2  -5   4   92.83    3.84
  -2  -5   4   93.13    4.40
  -2  -5   4   93.18    4.19
   1   5  -4   -0.76    0.83
   1   5  -4    0.97    0.32
   1   5  -4    1.20    0.43
  -1  -5   4    1.42    0.70
  -1  -5   4    0.79    0.43
  -1  -5   4    0.67    0.30
   0   5  -4   12.83    0.93
   0   5  -4   13.19    1.01
   0   5  -4   14.14    1.75
   0  -5   4   11.58    1.06
   0  -5   4   14.58    1.18
   0  -5   4   13.23    1.12
   0  -5   4   13.59    1.37
  -1   5  -4   16.41    1.68
  -1   5  -4   16.87    1.17
  -1   5  -4   17.82    1.12
   1  -5   4   19.77    1.18
   1  -5   4   21.93    1.66
   1  -5   4   17.92    1.32
  -2   5  -4    0.42    0.19
  -2   5  -4    0.38    0.33
   2  -5   4    0.30    0.44
   2  -5   4    0.32    0.21
  -3   5  -4  148.31    6.49
  -3   5  -4  146.57    5.92
   3  -5   4  147.90    6.33
   3  -5   4  185.14    6.58
  -4   5  -4    0.92    0.31
  -4   5  -4    1.84    0.84
  -4   5  -4    0.61    0.35
   4  -5   4    1.46    0.40
   4  -5   4    0.66    0.40
   4  -5   4    2.52    0.70
  -5   5  -4    0.33    0.35
  -5   5  -4    1.85    0.86
  -5   5  -4    0.88    0.26
   5  -5   4    1.16    0.48
   5  -5   4    2.47    0.77
   5  -5   4    0.86    0.30
  -6   5  -4    2.09    0.90
  -6   5  -4    3.09    0.65
  -6   5  -4    2.42    0.52
   6  -5   4    3.78    0.78
   6  -5   4    2.64    0.60
  -7   5  -4   11.45    1.22
  -7   5  -4   11.87    1.41
  -7   5  -4   11.10    0.97
   7  -5   4   11.37    1.16
   7  -5   4   11.46    1.04
  -8   5  -4    0.12    0.59
  -8   5  -4    0.11    0.13
  -8   5  -4   -0.39    0.81
   8  -5   4    0.13    0.13
   8  -5   4    0.17    0.53
  -9   5  -4   29.62    1.96
  -9   5  -4   34.00    2.10
  -9   5  -4   33.83    2.35
   9  -5   4   34.36    2.09
   9  -5   4   33.05    1.81
 -10   5  -4   37.32    2.25
 -10   5  -4   32.01    2.47
 -10   5  -4   30.83    1.80
  10  -5   4   35.53    1.65
  10  -5   4   33.40    2.14
 -11   5  -4    1.19    0.44
 -11   5  -4    3.01    1.19
 -12   5  -4    0.63    0.39
 -13   5  -4    3.79    0.94
 -14   5  -4    1.02    0.54
 -11  -4   4   -0.06    0.12
 -10  -4   4    1.69    1.13
   9   4  -4   -0.66    1.31
  -9  -4   4   -0.06    0.13
   8   4  -4    0.73    1.03
  -8  -4   4    1.16    0.55
   7   4  -4    0.39    0.24
   7   4  -4   -0.32    0.78
  -7  -4   4    0.37    0.98
  -7  -4   4    0.48    0.36
   6   4  -4   40.44    2.25
   6   4  -4   44.38    2.40
  -6  -4   4   39.47    2.59
  -6  -4   4   36.60    2.54
   5   4  -4    1.23    0.54
   5   4  -4    0.23    0.19
  -5  -4   4    0.21    0.25
  -5  -4   4   -0.78    0.71
   4   4  -4   11.46    1.38
   4   4  -4   11.98    0.97
   4   4  -4   12.07    1.05
   4   4  -4    6.36    1.50
  -4  -4   4   12.34    1.19
  -4  -4   4   11.94    1.49
   3   4  -4    1.86    1.01
   3   4  -4    2.66    0.57
   3   4  -4    2.90    0.57
  -3  -4   4    3.04    0.82
  -3  -4   4    3.36    0.62
  -3  -4   4    2.54    0.66
   2   4  -4    2.44    0.62
   2   4  -4    2.61    0.92
   2   4  -4    2.26    0.49
  -2  -4   4    2.19    0.56
  -2  -4   4    2.84    0.53
  -2  -4   4    2.33    0.68
   1   4  -4  102.64    3.98
   1   4  -4  105.82    4.77
   1   4  -4  103.03    3.98
  -1  -4   4   91.97    3.87
  -1  -4   4   99.85    4.56
   0   4  -4   20.76    1.74
   0   4  -4   19.20    1.19
   0   4  -4   19.81    1.18
   0  -4   4   28.04    1.82
   0  -4   4   20.24    1.60
   0  -4   4   21.54    1.21
  -1   4  -4    3.26    0.81
  -1   4  -4    2.62    0.46
  -1   4  -4    4.34    0.60
   1  -4   4    2.95    0.70
   1  -4   4    6.38    1.05
   1  -4   4    2.96    0.51
  -2   4  -4    3.96    0.52
  -2   4  -4    4.79    0.95
  -2   4  -4    4.64    0.60
   2  -4   4    3.62    0.57
   2  -4   4    3.98    0.54
   2  -4   4    5.44    0.94
  -3   4  -4   19.93    1.65
  -3   4  -4   21.51    1.21
  -3   4  -4   22.62    1.31
   3  -4   4   18.72    1.48
   3  -4   4   23.96    1.41
   3  -4   4   22.41    1.26
  -4   4  -4    3.04    0.92
  -4   4  -4    1.71    0.69
  -4   4  -4    2.31    0.41
  -4   4  -4    3.07    0.56
   4  -4   4    2.60    0.67
   4  -4   4    2.76    0.55
   4  -4   4    3.11    0.73
  -5   4  -4   22.49    1.43
  -5   4  -4   22.45    1.67
  -5   4  -4   23.15    1.46
  -5   4  -4   22.60    1.28
   5  -4   4   19.54    1.43
   5  -4   4   20.90    1.35
   5  -4   4   19.06    1.33
  -6   4  -4  167.34    6.41
  -6   4  -4  167.62    6.15
  -6   4  -4  153.58    6.32
  -6   4  -4  155.13    6.29
   6  -4   4  163.51    6.29
   6  -4   4  158.99    6.25
   6  -4   4  165.69    6.28
  -7   4  -4    0.33    0.21
  -7   4  -4    0.15    0.41
  -7   4  -4    0.84    0.70
  -7   4  -4    0.60    0.33
   7  -4   4   -0.57    0.41
  -8   4  -4    0.87    0.56
  -8   4  -4    1.00    0.38
  -8   4  -4    0.32    0.67
   8  -4   4    0.34    0.46
   8  -4   4    0.90    0.34
  -9   4  -4    1.28    0.69
  -9   4  -4    1.00    0.67
  -9   4  -4    1.22    0.48
  -9   4  -4    0.81    0.35
   9  -4   4    1.95    0.50
   9  -4   4    1.47    0.43
 -10   4  -4    9.19    1.36
 -10   4  -4    8.23    1.50
  10  -4   4    9.41    1.30
 -11   4  -4    3.00    0.67
 -11   4  -4    0.55    1.59
 -12   4  -4   11.81    1.62
 -13   4  -4    2.89    0.77
 -14   4  -4   10.30    1.50
 -15   4  -4    1.65    0.64
 -11  -3   4    1.90    0.74
 -10  -3   4    8.29    1.52
   9   3  -4    2.58    1.69
  -9  -3   4    3.65    1.31
  -9  -3   4    1.39    0.59
   8   3  -4    5.90    1.22
  -8  -3   4    5.35    1.14
  -8  -3   4    6.01    1.29
   7   3  -4    0.29    0.22
   7   3  -4   -1.06    1.53
   7   3  -4    0.67    0.72
  -7  -3   4    0.81    0.93
  -7  -3   4    0.53    0.35
   6   3  -4    5.15    0.95
   6   3  -4    6.67    1.00
   6   3  -4    5.20    1.41
  -6  -3   4    3.93    1.00
  -6  -3   4    5.82    1.09
   5   3  -4   41.67    2.48
   5   3  -4   46.39    2.29
   5   3  -4   38.90    2.85
   5   3  -4   42.44    2.24
  -5  -3   4   45.37    2.61
  -5  -3   4   43.64    2.60
   4   3  -4   56.32    2.56
   4   3  -4   41.46    3.83
   4   3  -4   48.11    3.48
   4   3  -4   57.69    2.50
  -4  -3   4   58.90    2.95
  -4  -3   4   48.78    2.83
   3   3  -4   11.98    1.47
   3   3  -4   12.38    1.15
   3   3  -4   11.38    0.86
   3   3  -4   11.19    0.87
  -3  -3   4    9.87    0.99
  -3  -3   4   12.34    1.28
  -3  -3   4    9.43    0.90
   2   3  -4    1.28    0.34
   2   3  -4    0.14    0.70
   2   3  -4    1.35    0.36
  -2  -3   4    0.91    0.36
  -2  -3   4    1.33    0.51
  -2  -3   4    1.28    0.33
   1   3  -4    8.44    0.70
   1   3  -4    8.07    1.10
   1   3  -4    9.53    0.72
  -1  -3   4    9.82    0.74
  -1  -3   4   10.28    0.89
  -1  -3   4    9.22    1.04
   0   3  -4    0.11    0.36
   0   3  -4    0.01    0.54
   0   3  -4    0.31    0.15
   0  -3   4    0.36    0.19
   0  -3   4    0.76    0.28
   0  -3   4    0.33    0.39
  -1   3  -4    0.18    0.48
  -1   3  -4    0.08    0.12
  -1   3  -4    0.34    0.23
   1  -3   4    0.45    0.37
   1  -3   4    0.49    0.24
  -2   3  -4  141.64    5.23
  -2   3  -4  139.20    5.40
  -2   3  -4  141.77    5.76
   2  -3   4  139.43    5.67
   2  -3   4  140.15    5.40
   2  -3   4  142.75    5.17
  -3   3  -4   22.68    1.20
  -3   3  -4   17.20    1.08
  -3   3  -4   17.76    1.15
  -3   3  -4   18.10    1.41
   3  -3   4   16.85    1.28
   3  -3   4   16.28    1.10
   3  -3   4   17.99    1.07
  -4   3  -4    0.80    0.32
  -4   3  -4    0.23    0.46
  -4   3  -4    0.48    0.18
   4  -3   4    0.35    0.19
   4  -3   4    0.30    0.25
   4  -3   4    0.39    0.34
  -5   3  -4    0.81    0.34
  -5   3  -4    0.23    0.15
  -5   3  -4    2.15    0.63
  -5   3  -4    0.26    0.17
   5  -3   4    0.35    0.42
   5  -3   4    0.36    0.18
   5  -3   4    1.51    0.45
  -6   3  -4   22.66    1.55
  -6   3  -4   22.90    1.47
  -6   3  -4   26.22    1.39
   6  -3   4   25.13    1.54
   6  -3   4   23.99    1.43
   6  -3   4   26.18    1.49
  -7   3  -4   10.20    0.94
  -7   3  -4   10.81    1.08
  -7   3  -4   12.51    0.92
  -7   3  -4   10.57    1.01
   7  -3   4   11.94    0.94
   7  -3   4   11.43    0.92
   7  -3   4   11.61    1.10
  -8   3  -4    6.45    0.95
  -8   3  -4    6.27    0.88
  -8   3  -4    6.33    1.04
  -8   3  -4    6.53    0.83
   8  -3   4    6.54    0.88
   8  -3   4    6.77    0.70
  -9   3  -4    5.94    0.63
  -9   3  -4    6.83    1.01
  -9   3  -4    5.05    0.96
   9  -3   4    6.91    0.56
   9  -3   4    5.84    0.88
 -10   3  -4   29.12    2.17
 -10   3  -4   28.86    2.18
  10  -3   4   25.82    1.72
 -11   3  -4   12.94    1.20
 -11   3  -4    9.10    1.56
 -12   3  -4    7.83    1.71
 -12   3  -4    8.50    1.30
 -13   3  -4   11.24    1.59
 -14   3  -4   57.51    3.42
 -15   3  -4    5.49    1.15
 -12  -2   4    1.58    0.68
 -11  -2   4    0.86    0.56
  10   2  -4    0.96    1.37
 -10  -2   4    0.55    0.46
   9   2  -4    7.21    1.41
  -9  -2   4    4.90    1.09
  -9  -2   4    6.27    1.27
   8   2  -4   23.60    1.72
   8   2  -4   25.93    1.96
  -8  -2   4   25.11    1.99
  -8  -2   4   28.30    2.21
   7   2  -4    4.22    0.86
   7   2  -4    4.08    0.80
  -7  -2   4    2.95    0.93
  -7  -2   4    3.89    0.94
   6   2  -4    0.17    0.48
   6   2  -4    0.57    1.06
  -6  -2   4    0.43    0.64
  -6  -2   4    0.21    0.25
   5   2  -4    2.12    0.74
   5   2  -4    1.66    0.91
   5   2  -4    0.84    0.47
   5   2  -4    1.49    0.40
  -5  -2   4    0.37    0.58
  -5  -2   4    1.54    0.51
   4   2  -4   -0.04    0.71
   4   2  -4    0.09    0.09
   4   2  -4    0.11    0.31
   4   2  -4   -0.36    0.49
  -4  -2   4    0.48    0.53
  -4  -2   4    0.24    0.19
   3   2  -4   18.69    1.57
   3   2  -4   16.47    1.09
   3   2  -4   15.95    1.01
   3   2  -4   16.23    1.17
  -3  -2   4   19.39    1.49
  -3  -2   4   16.04    1.26
   2   2  -4   82.08    3.31
   2   2  -4   88.66    3.46
   2   2  -4   81.98    3.92
  -2  -2   4   89.24    3.33
  -2  -2   4   87.05    3.75
  -2  -2   4   85.63    3.85
   1   2  -4   43.18    2.35
   1   2  -4   40.50    1.74
   1   2  -4   42.24    1.83
  -1  -2   4   37.32    1.99
  -1  -2   4   39.30    2.20
  -1  -2   4   37.29    1.69
   0   2  -4    8.62    0.59
   0   2  -4    7.98    1.13
   0   2  -4    8.25    0.61
   0  -2   4    9.10    0.91
   0  -2   4    8.61    0.74
  -1   2  -4    4.25    0.77
  -1   2  -4    3.40    0.35
  -1   2  -4    3.89    0.62
  -1   2  -4    3.58    0.37
   1  -2   4    4.02    0.52
   1  -2   4    4.05    0.85
   1  -2   4    5.06    0.72
  -2   2  -4   60.17    2.45
  -2   2  -4   61.54    2.93
  -2   2  -4   61.43    2.49
   2  -2   4   64.28    2.93
   2  -2   4   63.48    2.67
   2  -2   4   63.95    2.48
  -3   2  -4   26.38    1.31
  -3   2  -4   27.68    1.41
  -3   2  -4   26.90    1.62
  -3   2  -4   26.77    1.24
   3  -2   4   25.47    1.36
   3  -2   4   26.36    1.58
   3  -2   4   23.32    1.24
  -4   2  -4   12.55    0.91
  -4   2  -4   12.83    0.91
  -4   2  -4   13.79    1.11
  -4   2  -4   13.85    0.81
  -4   2  -4   14.77    0.95
   4  -2   4   14.27    0.92
   4  -2   4   13.39    0.92
   4  -2   4   15.02    1.09
  -5   2  -4   15.23    1.05
  -5   2  -4   17.70    1.23
  -5   2  -4   13.23    0.90
   5  -2   4   12.64    0.99
   5  -2   4   13.32    0.92
   5  -2   4   16.35    1.10
  -6   2  -4   53.23    2.29
  -6   2  -4   49.05    2.38
  -6   2  -4   52.99    2.51
   6  -2   4   54.91    2.52
   6  -2   4   53.62    2.37
   6  -2   4   51.65    2.35
  -7   2  -4   19.78    1.45
  -7   2  -4   20.54    1.30
  -7   2  -4   20.20    1.23
  -7   2  -4   19.86    1.32
   7  -2   4   23.12    1.21
   7  -2   4   22.30    1.29
   7  -2   4   21.33    1.46
  -8   2  -4    8.31    0.75
  -8   2  -4    9.75    0.88
  -8   2  -4    9.54    0.81
  -8   2  -4    8.54    1.15
   8  -2   4    9.35    0.80
   8  -2   4    8.61    0.66
  -9   2  -4    6.45    0.89
  -9   2  -4    7.28    1.10
  -9   2  -4    8.99    0.89
   9  -2   4    8.00    0.77
 -10   2  -4  208.30    7.88
 -10   2  -4  208.59    8.31
 -10   2  -4  204.49    8.00
  10  -2   4  197.51    7.78
 -11   2  -4   39.74    2.86
 -11   2  -4   37.76    2.29
 -11   2  -4   42.48    2.51
 -12   2  -4    5.47    1.02
 -12   2  -4    6.02    1.61
 -13   2  -4    1.02    0.45
 -14   2  -4   24.70    1.97
 -15   2  -4    1.61    0.63
 -12  -1   4   10.64    1.81
 -11  -1   4    0.95    0.58
  10   1  -4   -0.71    1.29
 -10  -1   4    0.43    0.37
   9   1  -4   -0.03    0.97
  -9  -1   4   -0.04    0.09
  -9  -1   4    0.04    0.88
   8   1  -4   -0.20    0.73
   8   1  -4    2.65    1.27
   8   1  -4    0.20    0.19
  -8  -1   4    0.19    0.28
  -8  -1   4    0.18    0.77
   7   1  -4   22.40    1.56
   7   1  -4   20.94    1.54
   7   1  -4   20.20    2.02
  -7  -1   4   20.71    1.79
  -7  -1   4   23.49    1.68
   6   1  -4    6.33    0.85
   6   1  -4    3.55    0.90
   6   1  -4    5.91    0.91
   6   1  -4    3.67    1.11
  -6  -1   4    5.08    0.89
  -6  -1   4    5.67    1.06
   5   1  -4   35.53    2.28
   5   1  -4   35.21    1.99
   5   1  -4   31.52    1.85
   5   1  -4   35.78    1.81
  -5  -1   4   36.02    2.09
  -5  -1   4   35.82    2.23
   4   1  -4    3.16    0.52
   4   1  -4    2.33    0.45
   4   1  -4    3.63    0.64
   4   1  -4    3.33    0.91
  -4  -1   4    3.04    0.74
  -4  -1   4    2.50    0.60
   3   1  -4    4.35    0.66
   3   1  -4    3.60    0.53
   3   1  -4    4.65    0.95
   3   1  -4    4.98    0.50
  -3  -1   4    4.18    0.79
  -3  -1   4    4.87    0.76
   2   1  -4   10.96    1.25
   2   1  -4   10.03    0.66
   2   1  -4   11.63    0.78
   2   1  -4   11.48    0.92
  -2  -1   4   10.74    1.00
  -2  -1   4   10.21    0.90
   1   1  -4    0.25    0.15
   1   1  -4    0.40    0.44
   1   1  -4    0.38    0.15
  -1  -1   4    0.49    0.22
  -1  -1   4    0.55    0.19
   0   1  -4   47.93    2.62
   0   1  -4   55.14    2.23
   0   1  -4   59.37    2.13
   0  -1   4   55.94    2.42
   0  -1   4   56.13    2.67
   0  -1   4   54.16    2.08
  -1   1  -4    0.43    0.15
  -1   1  -4    0.22    0.35
  -1   1  -4    0.34    0.14
  -1   1  -4    0.63    0.21
   1  -1   4    0.28    0.15
   1  -1   4    0.33    0.31
   1  -1   4    0.45    0.18
  -2   1  -4   49.49    1.92
  -2   1  -4   45.64    2.02
  -2   1  -4   47.83    2.33
  -2   1  -4   45.99    1.88
   2  -1   4   46.17    2.28
   2  -1   4   46.78    1.88
   2  -1   4   46.91    2.03
  -3   1  -4   79.58    3.11
   3  -1   4   84.05    3.18
   3  -1   4   77.63    3.40
   3  -1   4   81.50    3.10
  -4   1  -4    0.61    0.35
  -4   1  -4    0.17    0.09
  -4   1  -4    0.39    0.16
  -4   1  -4    0.25    0.13
  -4   1  -4    0.31    0.21
   4  -1   4    0.12    0.09
   4  -1   4    0.41    0.26
   4  -1   4    0.27    0.30
  -5   1  -4    6.31    0.63
  -5   1  -4    6.33    0.76
  -5   1  -4    6.67    0.50
  -5   1  -4    6.43    0.56
   5  -1   4    6.71    0.68
   5  -1   4    7.50    0.69
   5  -1   4    6.69    0.55
  -6   1  -4  535.72   18.52
  -6   1  -4  552.26   18.29
   6  -1   4  516.20   18.44
   6  -1   4  535.94   18.25
  -7   1  -4  258.81    9.17
  -7   1  -4  263.33    9.46
  -7   1  -4  275.10    9.77
   7  -1   4  261.87    9.15
   7  -1   4  268.94    9.37
   7  -1   4  255.34    9.64
  -8   1  -4    4.26    0.63
  -8   1  -4    4.15    0.84
  -8   1  -4    4.68    0.75
   8  -1   4    4.55    0.38
   8  -1   4    5.23    0.39
   8  -1   4    5.17    0.89
  -9   1  -4    2.33    0.47
  -9   1  -4    2.99    0.80
  -9   1  -4    3.38    0.75
   9  -1   4    2.57    0.51
 -10   1  -4   79.37    3.60
 -10   1  -4   82.93    3.69
 -10   1  -4   80.37    4.05
  10  -1   4   76.59    3.85
 -11   1  -4   19.21    1.48
 -11   1  -4   19.80    1.98
 -11   1  -4   19.73    1.47
 -12   1  -4    9.41    1.66
 -12   1  -4    9.09    1.23
 -13   1  -4   27.53    1.98
 -14   1  -4    0.27    0.23
 -15   1  -4    0.13    0.20
 -12   0   4    0.15    0.32
 -11   0   4   10.30    1.65
  10   0  -4    1.76    1.25
 -10   0   4    0.72    0.47
   9   0  -4   16.10    1.39
   9   0  -4   13.83    1.64
  -9   0   4   12.13    1.59
  -9   0   4   16.08    1.37
   8   0  -4   -0.01    1.05
   8   0  -4    0.45    0.72
   8   0  -4    0.03    0.13
  -8   0   4   -0.11    0.09
  -8   0   4   -0.72    0.70
   7   0  -4    1.80    0.62
   7   0  -4    2.77    0.63
   7   0  -4    2.51    1.00
  -7   0   4    1.84    0.65
  -7   0   4    2.42    0.71
   6   0  -4    4.48    0.76
   6   0  -4    3.34    1.00
   6   0  -4    7.21    0.89
  -6   0   4    5.47    1.02
  -6   0   4    4.62    0.87
   5   0  -4   -0.54    0.67
   5   0  -4    0.09    0.11
   5   0  -4   -0.06    0.34
   5   0  -4    0.03    0.47
  -5   0   4    1.12    0.55
  -5   0   4    0.29    0.25
   4   0  -4   81.08    3.29
   4   0  -4   72.33    3.57
  -4   0   4   85.09    3.62
   3   0  -4    1.12    0.61
   3   0  -4    1.58    0.30
   3   0  -4    1.60    0.38
  -3   0   4    2.17    0.55
   2   0  -4   18.52    0.88
   2   0  -4   17.38    0.96
   2   0  -4   18.84    1.34
  -2   0   4   15.99    1.17
  -2   0   4   21.39    1.39
   1   0  -4   53.79    2.09
   1   0  -4   56.28    2.47
   1   0  -4   60.86    2.78
   1   0  -4   56.87    2.19
  -1   0   4   60.13    2.13
  -1   0   4   53.43    2.64
   0   0  -4    0.82    0.15
   0   0  -4    0.15    0.33
   0   0  -4    1.15    0.25
   0   0  -4    1.09    0.28
   0   0   4    0.87    0.27
   0   0   4    1.16    0.40
   0   0   4    0.79    0.14
  -1   0  -4   40.21    1.61
  -1   0  -4   37.78    2.21
  -1   0  -4   39.33    1.51
  -1   0  -4   40.09    1.84
   1   0   4   42.68    2.07
   1   0   4   38.73    1.74
   1   0   4   38.62    1.49
  -2   0  -4  638.30   21.44
  -2   0  -4  657.93   21.96
   2   0   4  647.32   21.41
   2   0   4  619.22   21.94
  -3   0  -4  593.06   19.63
  -3   0  -4  576.52   19.95
   3   0   4  573.82   19.97
   3   0   4  584.16   19.58
  -4   0  -4   71.46    3.00
  -4   0  -4   74.30    2.91
  -4   0  -4   74.60    2.80
   4   0   4   71.66    3.04
   4   0   4   68.80    2.85
  -5   0  -4    2.03    0.44
  -5   0  -4    2.32    0.31
  -5   0  -4    4.17    0.58
   5   0   4    2.80    0.38
   5   0   4    1.93    0.43
   5   0   4    2.88    0.53
  -6   0  -4  243.14    9.01
  -6   0  -4  250.57    8.70
   6   0   4  254.40    8.75
   6   0   4  242.01    8.98
  -7   0  -4   95.59    4.19
  -7   0  -4  100.89    3.89
  -7   0  -4  100.11    3.82
   7   0   4   99.31    3.59
   7   0   4   93.87    3.76
   7   0   4  101.25    3.69
  -8   0  -4    9.82    0.76
  -8   0  -4    8.94    0.76
  -8   0  -4    9.49    1.02
   8   0   4    6.34    1.46
   8   0   4    9.48    0.89
  -9   0  -4   87.36    4.15
  -9   0  -4   87.62    3.70
  -9   0  -4   88.88    3.74
 -10   0  -4    0.46    0.25
 -10   0  -4    0.36    0.21
 -10   0  -4    0.43    0.66
 -11   0  -4   -0.06    0.89
 -11   0  -4    0.59    0.33
 -11   0  -4    1.07    0.43
 -12   0  -4    0.22    0.28
 -12   0  -4   -0.26    1.20
 -12   0  -4    0.40    0.28
 -13   0  -4    5.14    0.99
 -14   0  -4    4.97    0.96
 -15   0  -4    3.52    0.83
 -12   1   4    0.85    0.55
  11  -1  -4   -0.82    1.61
 -11   1   4    1.19    0.58
  10  -1  -4    2.76    1.19
   9  -1  -4    2.02    0.54
   9  -1  -4    2.95    0.99
  -9   1   4    2.31    0.76
  -9   1   4    1.36    0.59
   8  -1  -4   29.72    1.96
  -8   1   4   29.52    1.74
  -8   1   4   32.55    2.56
  -8   1   4   30.27    2.27
   7  -1  -4    9.54    1.19
   7  -1  -4    8.24    1.04
   7  -1  -4    8.45    1.18
  -7   1   4    8.41    1.06
  -7   1   4    9.17    1.03
  -7   1   4    8.32    1.27
   6  -1  -4    5.05    1.00
   6  -1  -4    4.59    0.78
   6  -1  -4    4.95    0.77
   6  -1  -4    5.49    0.76
  -6   1   4    5.22    0.87
  -6   1   4    4.51    0.91
   5  -1  -4   40.09    1.92
   5  -1  -4   39.21    2.00
   5  -1  -4   39.66    2.29
   5  -1  -4   39.85    2.08
  -5   1   4   41.79    2.22
   4  -1  -4   10.50    0.74
   4  -1  -4    8.67    0.77
   4  -1  -4    8.76    1.14
   4  -1  -4    9.65    0.80
  -4   1   4    9.47    0.94
  -4   1   4   10.39    1.16
   3  -1  -4    8.18    1.01
   3  -1  -4    8.99    0.60
   3  -1  -4    9.66    0.70
   3  -1  -4    9.81    0.75
  -3   1   4    9.08    0.94
  -3   1   4    9.08    0.86
   2  -1  -4  397.75   14.08
   2  -1  -4  399.20   13.47
   2  -1  -4  385.24   13.39
  -2   1   4  412.46   14.10
   1  -1  -4  936.32   31.17
   1  -1  -4  937.51   31.22
   1  -1  -4  890.88   31.90
  -1   1   4 1000.00   31.99
   0  -1  -4   38.40    1.33
   0  -1  -4   36.43    2.14
   0  -1  -4   36.23    1.68
   0  -1  -4   38.29    1.59
   0   1   4   38.97    1.75
   0   1   4   38.68    1.98
  -1  -1  -4    6.84    0.51
  -1  -1  -4    8.07    0.47
  -1  -1  -4    7.95    0.79
  -1  -1  -4    7.83    0.39
   1   1   4    7.91    0.55
   1   1   4    8.32    0.37
   1   1   4    6.78    0.86
  -2  -1  -4  301.99   10.39
  -2  -1  -4  287.47    9.89
   2   1   4  285.65   10.41
   2   1   4  291.25    9.85
  -3  -1  -4  304.74   10.13
  -3  -1  -4  307.45   10.43
   3   1   4  283.93   10.07
   3   1   4  279.83   10.43
  -4  -1  -4    6.44    0.69
  -4  -1  -4    8.16    0.66
  -4  -1  -4    8.69    0.44
  -4  -1  -4    7.86    0.48
   4   1   4    8.35    0.76
   4   1   4    8.51    0.47
   4   1   4    7.55    0.73
  -5  -1  -4   74.71    2.83
  -5  -1  -4   77.87    3.18
   5   1   4   77.76    2.96
   5   1   4   72.10    3.10
  -6  -1  -4   10.68    0.67
  -6  -1  -4   10.55    0.65
  -6  -1  -4   13.02    0.99
   6   1   4   10.17    0.72
   6   1   4   11.09    1.00
   6   1   4   10.55    0.83
  -7  -1  -4    3.06    0.70
  -7  -1  -4    2.32    0.39
  -7  -1  -4    1.75    0.34
   7   1   4    2.29    0.36
   7   1   4    2.00    0.40
  -8  -1  -4    0.56    0.55
  -8  -1  -4    1.37    0.34
  -8  -1  -4    1.56    0.37
   8   1   4    0.99    0.79
   8   1   4    0.63    0.25
   8   1   4    1.34    0.24
  -9  -1  -4   22.32    1.35
  -9  -1  -4   22.03    1.74
  -9  -1  -4   21.24    1.31
 -10  -1  -4    2.80    0.60
 -10  -1  -4    1.77    0.87
 -10  -1  -4    2.43    0.52
 -11  -1  -4    0.26    0.20
 -11  -1  -4    0.45    0.26
 -11  -1  -4    0.45    0.91
 -12  -1  -4   41.67    3.14
 -12  -1  -4   48.94    2.61
 -12  -1  -4   47.19    2.50
 -13  -1  -4    7.16    1.13
 -13  -1  -4    7.50    1.09
 -14  -1  -4    3.51    0.86
 -15  -1  -4    2.97    0.74
 -12   2   4    5.47    1.26
  11  -2  -4    8.71    1.81
 -11   2   4   12.28    1.87
  10  -2  -4   -0.15    1.07
 -10   2   4    0.18    0.23
   9  -2  -4    8.46    1.34
   9  -2  -4    9.76    1.75
  -9   2   4    8.87    2.03
  -9   2   4   10.73    1.05
   8  -2  -4    1.76    0.56
   8  -2  -4    1.57    0.77
  -8   2   4    1.08    0.54
  -8   2   4    0.76    0.67
  -8   2   4    1.91    0.73
   7  -2  -4   13.67    1.45
   7  -2  -4   18.26    1.35
   7  -2  -4   17.57    1.34
  -7   2   4   16.27    1.51
  -7   2   4   15.13    1.56
  -7   2   4   15.85    1.28
   6  -2  -4   80.09    3.49
   6  -2  -4   79.48    3.67
  -6   2   4   81.19    3.42
  -6   2   4   92.47    4.51
  -6   2   4   78.70    3.65
  -6   2   4   83.06    4.05
   5  -2  -4  386.19   13.33
  -5   2   4  379.05   13.51
  -5   2   4  384.01   13.38
   4  -2  -4   64.37    3.18
   4  -2  -4   65.64    2.84
   4  -2  -4   86.83    3.52
  -4   2   4   67.09    2.97
  -4   2   4   74.00    3.27
  -4   2   4   80.03    3.72
   3  -2  -4    6.47    0.82
   3  -2  -4    5.88    0.84
   3  -2  -4    4.62    0.46
  -3   2   4    4.72    0.78
  -3   2   4    6.32    0.95
  -3   2   4    5.56    0.63
   2  -2  -4  167.97    6.83
   2  -2  -4  171.08    6.27
   2  -2  -4  215.82    7.04
  -2   2   4  181.56    6.35
  -2   2   4  184.35    6.96
   1  -2  -4  350.46   11.75
   1  -2  -4  340.51   12.48
   1  -2  -4  329.91   11.74
  -1   2   4  397.67   12.69
   0  -2  -4    4.59    0.38
   0  -2  -4    5.43    0.71
   0   2   4    5.03    0.46
   0   2   4    5.55    0.75
  -1  -2  -4   42.76    1.74
   1   2   4   45.39    2.17
   1   2   4   42.35    1.50
   1   2   4   41.32    1.48
   1   2   4   41.25    1.74
  -2  -2  -4   32.82    1.22
  -2  -2  -4   29.46    1.67
  -2  -2  -4   33.78    1.30
  -2  -2  -4   32.64    1.35
   2   2   4   31.41    1.29
   2   2   4   33.82    1.78
   2   2   4   32.37    1.32
  -3  -2  -4   39.33    1.46
  -3  -2  -4   42.24    1.75
   3   2   4   38.57    1.71
   3   2   4   41.33    1.83
   3   2   4   38.52    2.01
  -4  -2  -4    5.41    0.66
   4   2   4    5.62    0.56
   4   2   4    5.58    0.60
   4   2   4    4.86    0.71
  -5  -2  -4   31.15    1.65
  -5  -2  -4   30.09    1.20
  -5  -2  -4   29.76    1.20
   5   2   4   30.68    1.66
   5   2   4   28.34    1.62
   5   2   4   32.41    1.49
  -6  -2  -4    1.16    0.44
  -6  -2  -4    1.59    0.26
  -6  -2  -4    1.40    0.24
   6   2   4    1.28    0.50
   6   2   4    1.11    0.35
   6   2   4    1.43    0.37
  -7  -2  -4    8.06    1.09
  -7  -2  -4    9.33    0.62
  -7  -2  -4    9.46    0.64
   7   2   4    9.04    0.83
   7   2   4   10.43    0.74
   7   2   4   10.93    1.25
  -8  -2  -4   65.81    3.33
  -8  -2  -4   68.27    2.80
  -8  -2  -4   69.10    2.79
   8   2   4   65.93    2.72
   8   2   4   69.07    2.62
  -9  -2  -4   25.09    1.94
  -9  -2  -4   25.66    1.43
  -9  -2  -4   25.41    1.40
 -10  -2  -4   11.16    1.01
 -10  -2  -4   13.01    0.96
 -10  -2  -4   10.02    1.51
 -11  -2  -4    1.11    0.36
 -11  -2  -4    1.05    0.34
 -11  -2  -4    2.00    1.01
 -12  -2  -4   28.05    2.79
 -12  -2  -4   32.68    1.95
 -12  -2  -4   31.32    1.85
 -13  -2  -4    2.18    0.54
 -13  -2  -4    4.60    0.86
 -14  -2  -4    1.30    0.48
 -15  -2  -4    0.27    0.26
 -12   3   4    0.68    0.44
  11  -3  -4    5.09    1.72
 -11   3   4    7.38    1.41
  10  -3  -4   13.00    1.72
  10  -3  -4   12.97    1.31
 -10   3   4    9.60    1.65
   9  -3  -4  123.88    5.55
  -9   3   4  121.68    5.74
  -9   3   4  132.42    4.68
  -9   3   4  125.72    6.44
   8  -3  -4   37.00    2.24
  -8   3   4   34.60    1.88
  -8   3   4   34.53    2.36
  -8   3   4   35.47    2.03
  -8   3   4   34.43    2.47
   7  -3  -4    4.59    0.97
   7  -3  -4    8.64    1.44
  -7   3   4    4.16    0.93
  -7   3   4    5.67    0.85
  -7   3   4    4.53    0.99
   6  -3  -4   60.43    2.78
   6  -3  -4   63.29    2.98
  -6   3   4   61.10    3.26
  -6   3   4   62.34    2.96
  -6   3   4   60.65    2.93
  -6   3   4   59.23    2.73
   5  -3  -4  188.17    7.16
   5  -3  -4  187.30    6.84
  -5   3   4  190.36    6.99
  -5   3   4  187.85    7.49
  -5   3   4  177.98    7.35
  -5   3   4  194.29    6.99
   4  -3  -4    3.05    0.54
   4  -3  -4    2.99    0.47
  -4   3   4    3.55    0.56
  -4   3   4    3.66    0.63
  -4   3   4    3.76    0.70
   3  -3  -4    0.61    0.20
   3  -3  -4    1.54    0.29
  -3   3   4    0.57    0.39
  -3   3   4    0.84    0.44
  -3   3   4    0.30    0.18
  -3   3   4    0.69    0.25
   2  -3  -4   30.01    1.24
   2  -3  -4   30.34    1.58
   2  -3  -4   31.07    1.55
  -2   3   4   34.85    1.87
  -2   3   4   30.10    1.30
  -2   3   4   30.49    1.64
   1  -3  -4   23.56    0.90
   1  -3  -4   23.96    1.25
   1  -3  -4   23.59    1.21
  -1   3   4   23.12    1.32
  -1   3   4   20.66    1.44
  -1   3   4   24.98    0.95
  -1   3   4   24.98    1.38
   0  -3  -4   10.31    0.43
   0  -3  -4   10.67    0.64
   0  -3  -4   11.32    0.69
   0   3   4   10.63    0.72
   0   3   4   10.89    0.45
   0   3   4    9.33    0.91
   0   3   4   11.18    0.87
  -1  -3  -4    8.06    0.47
  -1  -3  -4    7.37    0.48
   1   3   4    8.43    0.75
   1   3   4    8.37    0.63
   1   3   4    7.91    0.47
   1   3   4    8.91    0.84
   1   3   4    8.14    0.40
  -2  -3  -4    6.41    0.35
  -2  -3  -4    5.81    0.32
   2   3   4    6.68    0.42
   2   3   4    6.81    0.67
   2   3   4    6.91    0.91
   2   3   4    7.08    0.52
   3   3   4   44.10    2.02
   3   3   4   41.23    2.18
   3   3   4   44.36    1.81
   3   3   4   45.18    1.94
  -4  -3  -4   43.43    2.07
   4   3   4   45.37    2.27
   4   3   4   45.70    2.09
   4   3   4   44.87    2.06
  -5  -3  -4   52.17    2.47
   5   3   4   50.44    2.43
   5   3   4   54.68    2.55
  -6  -3  -4   11.44    1.06
  -6  -3  -4   10.64    0.54
  -6  -3  -4   11.07    0.57
   6   3   4    9.81    0.97
   6   3   4   12.06    1.13
   6   3   4   11.43    1.01
  -7  -3  -4   12.00    0.69
  -7  -3  -4    9.64    1.06
  -7  -3  -4   11.78    0.66
   7   3   4   12.06    1.37
   7   3   4   12.06    0.90
   7   3   4   10.07    0.99
  -8  -3  -4   59.13    2.42
  -8  -3  -4   60.75    2.48
  -8  -3  -4   57.65    3.13
   8   3   4   60.10    2.68
   8   3   4   59.49    2.53
  -9  -3  -4    3.22    0.53
  -9  -3  -4    3.58    0.52
  -9  -3  -4    2.80    0.82
   9   3   4    3.04    0.58
   9   3   4    3.56    0.56
 -10  -3  -4   23.93    2.13
  10   3   4   23.15    1.82
 -11  -3  -4    0.15    0.15
 -11  -3  -4    0.28    1.04
 -11  -3  -4    0.34    0.21
  11   3   4    1.54    0.94
 -12  -3  -4    1.15    0.40
 -12  -3  -4    0.94    0.32
  12   3   4    1.05    1.16
 -13  -3  -4    9.84    0.93
 -13  -3  -4   10.70    1.03
 -14  -3  -4    1.32    0.46
 -15  -3  -4    1.23    0.42
 -12   4   4   10.66    1.72
  11  -4  -4    1.28    1.59
 -11   4   4    1.72    0.66
 -11   4   4    1.50    2.01
  10  -4  -4    9.99    1.44
 -10   4   4    8.67    1.44
 -10   4   4    9.56    1.87
   9  -4  -4   67.30    3.49
  -9   4   4   67.27    2.80
  -9   4   4   63.69    3.66
  -9   4   4   65.86    3.83
   8  -4  -4   10.14    1.35
  -8   4   4    7.63    1.02
  -8   4   4   10.80    1.62
  -8   4   4   10.63    1.38
  -8   4   4    7.68    1.11
   7  -4  -4    9.98    1.00
   7  -4  -4    8.56    1.13
  -7   4   4   10.33    1.52
  -7   4   4    9.92    1.11
  -7   4   4   10.26    1.22
  -7   4   4    9.14    1.22
   6  -4  -4    4.22    0.73
   6  -4  -4    3.61    0.63
  -6   4   4    3.67    0.83
  -6   4   4    3.48    0.75
  -6   4   4    3.56    0.78
  -6   4   4    3.98    0.81
   5  -4  -4    6.78    0.77
   5  -4  -4    6.12    0.95
  -5   4   4    6.92    1.00
  -5   4   4    6.90    0.90
  -5   4   4    6.75    1.05
  -5   4   4    7.88    0.82
   4  -4  -4    2.38    0.45
   4  -4  -4    2.36    0.58
  -4   4   4    2.07    0.48
  -4   4   4    1.61    0.64
  -4   4   4    2.90    0.62
  -4   4   4    2.97    0.77
   3  -4  -4    0.51    0.22
   3  -4  -4    0.84    0.22
   3  -4  -4    0.67    0.29
  -3   4   4    0.89    0.33
  -3   4   4    0.93    0.29
  -3   4   4    1.03    0.44
  -3   4   4    0.83    0.48
   2  -4  -4    7.31    0.71
   2  -4  -4    6.49    0.60
   2  -4  -4    6.92    0.48
  -2   4   4    7.71    0.82
  -2   4   4    8.09    0.74
  -2   4   4    9.11    1.13
  -2   4   4    7.22    0.51
   1  -4  -4   71.18    2.79
  -1   4   4   83.23    2.85
  -1   4   4   80.00    3.35
  -1   4   4   81.43    3.27
   0  -4  -4    0.63    0.19
   0  -4  -4    0.27    0.12
   0  -4  -4    0.67    0.20
   0   4   4    0.69    0.23
   0   4   4    0.48    0.38
   0   4   4    0.09    0.36
   0   4   4    0.35    0.12
  -1  -4  -4  102.02    4.19
  -1  -4  -4  109.14    3.70
   1   4   4  100.95    4.14
   1   4   4  102.59    3.83
   1   4   4  112.80    4.56
   1   4   4   98.85    3.66
  -2  -4  -4   17.17    0.73
  -2  -4  -4   16.28    1.10
  -2  -4  -4   17.37    0.71
   2   4   4   15.36    0.82
   2   4   4   18.26    1.00
   2   4   4   16.93    1.14
  -3  -4  -4   22.72    1.38
   3   4   4   24.44    1.18
   3   4   4   26.07    1.50
   3   4   4   24.41    1.42
  -4  -4  -4   33.20    1.74
   4   4   4   34.94    1.78
   4   4   4   31.91    1.73
  -5  -4  -4   -0.06    0.27
   5   4   4    0.24    0.35
   5   4   4   -0.13    0.39
   5   4   4    0.80    0.32
  -6  -4  -4   56.33    2.54
   6   4   4   57.17    2.83
   6   4   4   55.55    2.82
   6   4   4   58.61    2.64
   6   4   4   55.94    2.57
  -7  -4  -4    5.86    0.41
  -7  -4  -4    5.53    0.39
   7   4   4    5.58    0.80
   7   4   4    5.76    0.86
   7   4   4    5.87    0.96
   7   4   4    6.75    1.08
  -8  -4  -4    2.87    0.41
   8   4   4    2.46    0.67
   8   4   4    2.93    0.69
   8   4   4    2.79    0.64
  -9  -4  -4   24.98    1.26
  -9  -4  -4   23.39    1.30
   9   4   4   25.73    1.81
   9   4   4   23.17    1.60
 -10  -4  -4   21.93    1.25
 -10  -4  -4   21.63    1.32
  10   4   4   22.91    1.41
  10   4   4   22.33    1.44
  10   4   4   25.21    1.92
 -11  -4  -4    4.33    0.62
 -11  -4  -4    4.70    0.74
  11   4   4    8.35    2.16
 -12  -4  -4    5.23    0.79
 -12  -4  -4    5.07    0.73
 -13  -4  -4    1.09    0.35
 -13  -4  -4    1.35    0.43
 -14  -4  -4   -0.01    0.10
 -14  -4  -4    0.01    0.09
 -12   5   4    6.61    1.37
 -11   5   4    2.75    2.06
 -11   5   4    8.25    1.55
  10  -5  -4   -0.06    0.11
 -10   5   4   -1.29    1.46
 -10   5   4    0.10    0.17
   9  -5  -4    1.38    0.52
  -9   5   4    1.44    0.58
  -9   5   4    0.77    0.89
  -9   5   4    0.17    1.09
   8  -5  -4    0.29    0.19
  -8   5   4    0.41    0.83
  -8   5   4   -0.02    0.10
  -8   5   4   -0.07    0.84
   7  -5  -4    8.20    1.17
   7  -5  -4    6.80    0.93
  -7   5   4    8.04    1.17
  -7   5   4   14.96    2.27
  -7   5   4    9.01    1.18
  -7   5   4    9.26    1.14
   6  -5  -4    4.06    0.76
   6  -5  -4    3.50    0.69
  -6   5   4    1.59    0.77
  -6   5   4    4.53    0.87
  -6   5   4    4.38    0.82
   5  -5  -4   23.05    1.52
   5  -5  -4   21.69    1.33
  -5   5   4   23.06    1.69
  -5   5   4   23.52    1.56
  -5   5   4   25.02    1.47
  -5   5   4   22.97    1.69
   4  -5  -4   11.45    0.84
   4  -5  -4    9.90    0.90
  -4   5   4   11.12    1.04
  -4   5   4   10.86    1.18
  -4   5   4   11.28    1.10
   3  -5  -4   21.29    1.55
   3  -5  -4   15.49    0.92
   3  -5  -4   15.08    1.09
  -3   5   4   16.57    1.27
  -3   5   4   14.82    1.19
  -3   5   4   18.67    1.45
  -3   5   4   16.92    0.99
   2  -5  -4    2.19    0.41
   2  -5  -4    1.56    0.34
   2  -5  -4    2.87    0.36
  -2   5   4    2.93    0.68
  -2   5   4    1.85    0.55
  -2   5   4    2.07    0.34
  -2   5   4    1.63    0.36
   1  -5  -4   68.15    2.82
   1  -5  -4   68.75    3.04
   1  -5  -4   68.81    2.53
  -1   5   4   65.97    2.55
  -1   5   4   67.26    3.29
  -1   5   4   66.50    3.05
  -1   5   4   66.85    2.91
   0  -5  -4    8.51    0.62
   0  -5  -4    8.83    0.84
   0  -5  -4    7.84    0.56
   0  -5  -4    7.88    0.51
   0   5   4    7.55    0.62
   0   5   4    8.61    0.54
   0   5   4    8.49    0.90
  -1  -5  -4    5.18    0.75
  -1  -5  -4    4.36    0.42
  -1  -5  -4    4.33    0.38
  -1  -5  -4    4.00    0.33
   1   5   4    5.49    0.83
   1   5   4    5.30    0.42
   1   5   4    4.15    0.40
  -2  -5  -4  158.84    5.95
   2   5   4  150.62    5.42
   2   5   4  148.87    5.89
  -3  -5  -4    5.87    0.85
   3   5   4    6.08    0.74
   3   5   4    5.48    0.51
   3   5   4    5.27    0.78
  -4  -5  -4    0.95    0.37
   4   5   4    0.23    0.40
   4   5   4    0.45    0.43
   4   5   4   -0.11    0.21
  -5  -5  -4   19.97    1.35
   5   5   4   19.81    1.27
   5   5   4   20.18    1.46
   5   5   4   20.02    1.40
  -6  -5  -4   73.98    3.22
   6   5   4   72.04    3.20
   6   5   4   72.97    3.42
   6   5   4   71.03    3.25
  -7  -5  -4    8.10    0.90
   7   5   4    8.89    1.06
   7   5   4    9.14    0.98
  -8  -5  -4    2.14    0.33
  -8  -5  -4    2.37    0.59
  -8  -5  -4    2.16    0.32
   8   5   4    2.02    0.79
   8   5   4    2.95    0.83
   8   5   4    2.42    0.74
  -9  -5  -4    5.56    0.51
  -9  -5  -4    5.43    0.47
   9   5   4    6.18    1.03
   9   5   4    6.03    1.12
   9   5   4    4.70    0.96
 -10  -5  -4    0.13    0.11
 -10  -5  -4    0.17    0.12
  10   5   4   -1.33    0.89
  10   5   4    0.62    0.83
 -11  -5  -4    5.62    0.72
 -11  -5  -4    5.42    0.55
  11   5   4    5.06    0.91
  11   5   4    4.73    1.25
 -12  -5  -4    6.98    0.66
 -12  -5  -4    7.73    0.75
 -13  -5  -4    0.28    0.17
 -13  -5  -4    0.28    0.21
 -14  -5  -4    4.48    0.63
 -14  -5  -4    4.62    0.71
 -12   6   4    0.55    0.39
 -11   6   4    6.51    1.41
  10  -6  -4    0.18    0.19
 -10   6   4    0.29    0.29
 -10   6   4   -0.80    1.49
   9  -6  -4    2.86    0.75
  -9   6   4    3.12    0.91
  -9   6   4    5.22    1.33
   8  -6  -4   17.82    1.52
  -8   6   4   18.80    1.82
  -8   6   4   17.93    1.77
  -8   6   4   17.96    1.73
  -8   6   4   16.27    1.80
   7  -6  -4    5.94    1.02
  -7   6   4    4.55    1.11
  -7   6   4    4.16    1.04
  -7   6   4    5.58    1.03
  -7   6   4    6.69    1.21
   6  -6  -4    1.10    0.44
   6  -6  -4    1.15    0.63
  -6   6   4    1.05    0.57
  -6   6   4    0.92    0.78
  -6   6   4    1.38    0.83
   5  -6  -4   14.64    1.20
   5  -6  -4   14.31    1.11
  -5   6   4   14.10    1.46
  -5   6   4   16.37    1.19
  -5   6   4   14.29    1.30
  -5   6   4   14.69    1.41
   4  -6  -4    6.85    0.78
  -4   6   4    7.43    1.14
  -4   6   4    7.37    1.07
  -4   6   4   13.70    1.96
  -4   6   4    7.01    0.74
   3  -6  -4   12.67    0.99
   3  -6  -4   11.95    0.82
   3  -6  -4   11.32    0.90
  -3   6   4   13.54    1.31
  -3   6   4   11.10    1.01
  -3   6   4    9.88    1.15
   2  -6  -4   52.37    2.13
   2  -6  -4   48.90    2.55
   2  -6  -4   50.14    2.31
   2  -6  -4   49.35    2.40
  -2   6   4   50.69    2.65
  -2   6   4   52.55    2.18
  -2   6   4   50.70    2.49
  -2   6   4   60.78    2.98
   1  -6  -4   24.59    1.39
   1  -6  -4   24.29    1.21
   1  -6  -4   27.04    1.64
  -1   6   4   26.71    1.49
  -1   6   4   28.28    1.78
  -1   6   4   25.96    1.26
   0  -6  -4    2.27    0.41
   0  -6  -4    1.86    0.31
   0  -6  -4    2.13    0.35
   0  -6  -4    2.21    0.54
   0   6   4    1.62    0.32
   0   6   4    2.15    0.44
   0   6   4    1.85    0.61
  -1  -6  -4    6.01    0.83
  -1  -6  -4    6.05    0.48
  -1  -6  -4    4.21    0.36
  -1  -6  -4    4.39    0.49
   1   6   4    6.36    0.89
   1   6   4    4.84    0.46
   1   6   4    4.87    0.47
  -2  -6  -4  155.64    5.99
  -2  -6  -4  138.20    5.37
   2   6   4  153.05    5.94
  -3  -6  -4    1.47    0.38
  -3  -6  -4    2.23    0.58
  -3  -6  -4    2.03    0.19
  -3  -6  -4    2.64    0.24
   3   6   4    3.47    0.74
   3   6   4    4.05    0.54
   3   6   4    2.84    0.64
  -4  -6  -4    9.51    1.16
   4   6   4   10.51    1.06
   4   6   4    8.79    0.78
   4   6   4    8.94    1.02
  -5  -6  -4   24.03    1.64
   5   6   4   26.30    1.74
   5   6   4   26.98    2.01
   5   6   4   23.19    1.44
  -6  -6  -4    0.50    0.49
   6   6   4    0.22    0.32
   6   6   4   -0.26    0.61
   6   6   4    0.96    0.74
  -7  -6  -4   22.67    1.58
   7   6   4   24.05    1.65
   7   6   4   20.67    1.74
  -8  -6  -4    0.32    0.55
   8   6   4    0.43    0.61
   8   6   4    0.06    0.87
  -9  -6  -4    3.33    0.34
  -9  -6  -4    4.47    0.88
   9   6   4    3.33    1.12
   9   6   4    3.07    0.91
 -10  -6  -4   11.37    0.74
 -10  -6  -4   10.66    0.78
  10   6   4    9.81    1.54
  10   6   4   13.21    1.62
  10   6   4   13.85    1.74
 -11  -6  -4    0.88    0.27
 -11  -6  -4    0.71    0.23
  11   6   4    0.22    1.17
  11   6   4    1.19    1.17
 -12  -6  -4    0.25    0.15
 -12  -6  -4    0.32    0.18
 -13  -6  -4    1.10    0.32
 -13  -6  -4    1.92    0.38
 -11   7   4    0.27    0.35
 -10   7   4    0.10    0.23
 -10   7   4   -2.92    1.83
   9  -7  -4    2.45    0.72
  -9   7   4    2.49    1.27
  -9   7   4    3.37    0.94
   8  -7  -4    8.94    1.23
  -8   7   4    8.52    1.45
  -8   7   4   11.88    1.67
  -8   7   4   10.20    1.43
   7  -7  -4    3.95    0.87
  -7   7   4    4.28    1.00
  -7   7   4    6.27    1.28
  -7   7   4    5.16    1.23
  -7   7   4    4.61    1.02
   6  -7  -4   16.12    1.32
   6  -7  -4   10.42    1.25
  -6   7   4   12.96    1.61
  -6   7   4   11.29    1.29
  -6   7   4   12.94    1.52
  -6   7   4   11.54    1.56
   5  -7  -4   14.54    1.24
   5  -7  -4   17.76    1.46
  -5   7   4   12.89    1.27
  -5   7   4   15.64    1.64
  -5   7   4   14.65    1.59
  -5   7   4   14.93    1.20
   4  -7  -4    0.44    0.41
   4  -7  -4    0.72    0.32
  -4   7   4    0.75    0.41
  -4   7   4   -0.14    0.73
  -4   7   4    1.30    0.47
  -4   7   4    0.70    0.69
   3  -7  -4    0.18    0.17
   3  -7  -4    0.47    0.24
   3  -7  -4    0.01    0.40
   3  -7  -4    0.22    0.34
  -3   7   4    0.26    0.18
  -3   7   4    0.26    0.59
  -3   7   4   -0.21    0.64
  -3   7   4    0.23    0.31
   2  -7  -4   59.08    2.71
   2  -7  -4   61.97    2.95
   2  -7  -4   56.30    2.56
   2  -7  -4   54.96    2.41
  -2   7   4   59.30    2.51
  -2   7   4   60.06    2.82
  -2   7   4   58.01    3.23
   1  -7  -4    1.49    0.39
   1  -7  -4    0.64    0.30
   1  -7  -4    0.07    0.40
   1  -7  -4    0.22    0.12
  -1   7   4    0.27    0.27
  -1   7   4    0.42    0.22
   0  -7  -4   32.09    1.47
   0  -7  -4   29.63    1.55
   0  -7  -4   29.27    1.43
   0  -7  -4   28.32    1.88
   0   7   4   29.31    1.58
   0   7   4   31.73    1.51
  -1  -7  -4   10.74    0.80
  -1  -7  -4   11.40    1.13
  -1  -7  -4   11.90    0.70
  -1  -7  -4   11.02    0.76
   1   7   4   13.93    0.86
   1   7   4   10.04    0.75
  -2  -7  -4    7.64    0.72
  -2  -7  -4    6.03    0.97
  -2  -7  -4    6.69    0.45
  -2  -7  -4    6.69    0.52
   2   7   4    7.51    1.19
   2   7   4    5.57    0.61
  -3  -7  -4   52.16    2.91
  -3  -7  -4   56.30    2.54
  -3  -7  -4   59.73    2.31
  -3  -7  -4   59.31    2.20
   3   7   4   60.41    3.06
   3   7   4   59.54    2.55
  -4  -7  -4   10.48    0.54
  -4  -7  -4   10.52    1.10
  -4  -7  -4   10.27    0.61
   4   7   4   11.56    1.47
   4   7   4    9.93    0.88
   4   7   4   10.38    1.29
  -5  -7  -4    7.78    1.14
  -5  -7  -4    7.30    0.46
   5   7   4    7.22    1.10
   5   7   4    6.90    0.92
   5   7   4    8.80    1.21
  -6  -7  -4   18.31    1.57
   6   7   4   17.97    1.73
   6   7   4   21.95    1.51
  -7  -7  -4   -0.19    0.58
   7   7   4    0.06    0.92
   7   7   4   -0.11    0.52
  -8  -7  -4    3.93    0.91
   8   7   4    1.72    1.19
   8   7   4    3.22    0.89
  -9  -7  -4    1.63    0.31
  -9  -7  -4    1.29    0.25
  -9  -7  -4    1.16    0.74
   9   7   4    0.31    1.40
   9   7   4    2.73    0.89
 -10  -7  -4   24.22    1.24
  10   7   4   23.92    2.41
  10   7   4   23.07    2.14
 -11   8   4    0.27    0.38
  10  -8  -4    1.06    0.53
 -10   8   4    2.87    1.81
 -10   8   4    1.55    0.71
   9  -8  -4    7.53    1.34
  -9   8   4    7.20    1.39
  -9   8   4    6.39    1.57
   8  -8  -4    0.11    0.21
  -8   8   4   -1.33    1.25
  -8   8   4    0.55    1.04
  -8   8   4    0.07    0.16
   7  -8  -4    5.14    1.02
  -7   8   4    3.84    0.97
  -7   8   4    5.53    1.08
  -7   8   4    4.16    1.37
   6  -8  -4   12.72    1.23
  -6   8   4   12.00    1.33
  -6   8   4   12.31    1.80
  -6   8   4   13.14    1.75
   5  -8  -4    4.65    0.87
  -5   8   4    5.70    1.24
  -5   8   4    3.30    0.79
   4  -8  -4   32.94    2.18
   4  -8  -4   34.71    2.05
   4  -8  -4   37.52    2.15
  -4   8   4   34.18    2.15
  -4   8   4   36.32    2.54
  -4   8   4   34.82    1.93
   3  -8  -4    2.53    0.55
   3  -8  -4    3.03    0.61
   3  -8  -4    1.74    0.55
   3  -8  -4    0.42    0.48
  -3   8   4    2.49    0.53
  -3   8   4    2.83    0.64
  -3   8   4    3.22    1.19
   2  -8  -4    2.33    0.67
   2  -8  -4    2.60    0.53
   2  -8  -4    3.45    0.64
   2  -8  -4    3.40    0.60
  -2   8   4    2.65    0.54
  -2   8   4    3.09    0.69
  -2   8   4    3.93    0.91
   1  -8  -4   56.26    2.98
   1  -8  -4   56.26    2.41
   1  -8  -4   56.37    2.44
   1  -8  -4   57.82    2.61
  -1   8   4   54.55    3.05
  -1   8   4   52.23    2.61
  -1   8   4   53.85    2.45
   0  -8  -4   72.40    3.15
   0  -8  -4   84.03    3.86
   0  -8  -4   75.72    3.10
   0  -8  -4   81.46    3.31
   0   8   4   81.50    3.24
   0   8   4   74.19    3.84
  -1  -8  -4    2.16    0.36
  -1  -8  -4    2.19    0.69
  -1  -8  -4    2.31    0.49
  -1  -8  -4    3.14    0.50
   1   8   4    3.63    0.66
   1   8   4    2.37    0.47
   1   8   4    2.44    0.85
  -2  -8  -4   10.85    0.77
  -2  -8  -4    9.81    0.92
  -2  -8  -4   11.86    1.25
  -2  -8  -4   10.62    0.67
   2   8   4   11.32    1.42
   2   8   4   13.71    0.99
  -3  -8  -4    6.12    1.05
  -3  -8  -4    6.30    0.53
  -3  -8  -4    7.28    0.90
  -3  -8  -4    6.29    0.46
   3   8   4    6.11    1.80
   3   8   4    7.24    0.76
  -4  -8  -4   11.77    1.29
  -4  -8  -4   14.63    0.75
  -4  -8  -4   14.33    0.83
  -4  -8  -4   12.32    1.19
   4   8   4   14.66    1.12
   4   8   4   16.06    1.56
  -5  -8  -4    3.47    0.44
  -5  -8  -4    3.19    0.29
  -5  -8  -4    3.16    0.83
   5   8   4    3.05    0.68
  -6  -8  -4   46.48    1.78
  -6  -8  -4   41.40    2.60
  -6  -8  -4   44.42    1.85
   6   8   4   46.45    2.47
  -7  -8  -4    2.98    1.03
  -7  -8  -4    3.56    0.34
   7   8   4    3.81    0.89
  -8  -8  -4    2.40    0.91
   8   8   4    1.13    0.70
  -9  -8  -4   45.34    4.15
 -11   9   4    0.48    0.37
  10  -9  -4    0.37    0.26
 -10   9   4   -0.08    0.17
   9  -9  -4    1.80    0.62
  -9   9   4    1.51    0.87
   8  -9  -4   15.96    1.53
  -8   9   4   14.77    3.21
  -8   9   4   14.97    1.96
  -8   9   4   17.98    2.00
   7  -9  -4    0.44    0.32
  -7   9   4    0.27    0.93
  -7   9   4    0.48    0.38
  -7   9   4    0.01    1.66
   6  -9  -4    6.91    1.20
  -6   9   4    5.48    1.64
  -6   9   4    7.10    1.15
   5  -9  -4   24.48    1.77
  -5   9   4   22.50    1.72
  -5   9   4   22.01    1.78
   4  -9  -4   91.25    4.32
   4  -9  -4   89.96    4.14
   4  -9  -4   94.48    4.21
  -4   9   4   90.31    4.29
  -4   9   4   88.84    3.94
   3  -9  -4    1.33    0.64
   3  -9  -4    1.83    0.46
   3  -9  -4    2.22    0.58
  -3   9   4    1.79    0.55
  -3   9   4    1.95    0.65
   2  -9  -4   -0.09    0.62
   2  -9  -4    0.89    0.29
   2  -9  -4    1.24    0.52
   2  -9  -4    1.08    0.39
  -2   9   4    1.13    0.44
  -2   9   4    0.60    0.42
   1  -9  -4    4.80    0.66
   1  -9  -4    4.26    0.92
   1  -9  -4    3.68    0.70
   1  -9  -4    3.49    0.61
  -1   9   4    4.42    0.72
  -1   9   4    3.66    0.62
   0  -9  -4    9.21    1.31
   0  -9  -4    7.69    0.89
   0  -9  -4    9.89    0.85
   0  -9  -4   10.81    0.82
   0   9   4    9.02    0.91
   0   9   4    9.84    0.87
  -1  -9  -4    0.82    0.30
  -1  -9  -4    0.64    0.20
  -1  -9  -4    0.08    0.60
  -1  -9  -4    0.69    0.45
   1   9   4    0.39    0.41
  -2  -9  -4   66.39    2.72
  -2  -9  -4   70.58    2.92
  -2  -9  -4   64.54    3.03
   2   9   4   71.90    3.10
  -3  -9  -4   30.55    1.43
  -3  -9  -4   29.33    2.53
  -3  -9  -4   32.76    1.60
   3   9   4   33.08    1.86
  -4  -9  -4    0.44    0.16
  -4  -9  -4    0.75    0.24
  -4  -9  -4    0.37    0.71
  -5  -9  -4   57.91    2.27
  -5  -9  -4   60.39    3.34
  -5  -9  -4   57.68    2.40
   5   9   4   54.09    2.83
  -6  -9  -4   24.80    1.15
  -6  -9  -4   25.69    1.26
  -6  -9  -4   24.38    2.05
   6   9   4   24.16    1.82
  -7  -9  -4    0.42    0.88
  -7  -9  -4    0.35    0.16
  -7  -9  -4    0.46    0.15
   7   9   4    1.07    0.78
  -8  -9  -4   22.43    2.22
   8   9   4   22.66    2.14
  -9  -9  -4  133.37    5.94
   9   9   4  135.75    6.05
 -10  -9  -4   25.61    2.47
  10 -10  -4    2.65    0.86
   9 -10  -4    6.63    1.21
  -9  10   4    5.60    1.23
  -9  10   4    4.73    1.94
   8 -10  -4   55.53    3.30
  -8  10   4   51.56    3.45
  -8  10   4   54.67    3.54
  -8  10   4   57.51    4.10
   7 -10  -4    8.87    1.42
  -7  10   4    8.45    1.44
  -7  10   4    8.38    1.96
  -7  10   4   10.76    1.71
   6 -10  -4   -0.03    0.07
  -6  10   4   -0.14    1.40
  -6  10   4   -0.84    0.87
   5 -10  -4    3.66    1.20
  -5  10   4    3.34    0.83
  -5  10   4    3.35    0.89
  -5  10   4    2.73    1.29
   4 -10  -4   11.17    1.14
   4 -10  -4   11.46    1.57
  -4  10   4   12.78    1.34
  -4  10   4   13.22    1.66
   3 -10  -4    2.43    0.88
   3 -10  -4    3.22    0.67
  -3  10   4    3.17    0.73
   2 -10  -4   16.87    1.21
   2 -10  -4   18.04    1.86
   2 -10  -4   18.05    1.37
  -2  10   4   20.49    1.47
  -2  10   4   18.43    1.44
   1 -10  -4   49.89    2.39
   1 -10  -4   52.31    2.62
   1 -10  -4   54.54    3.16
  -1  10   4   48.23    2.60
  -1  10   4   53.16    2.59
   0 -10  -4    2.56    0.57
   0 -10  -4    3.02    0.84
   0  10   4    2.39    0.60
   0  10   4    1.05    0.54
  -1 -10  -4   38.25    2.03
  -1 -10  -4   44.78    2.82
  -1 -10  -4   38.30    1.86
   1  10   4   38.77    2.13
  -2 -10  -4   29.55    1.64
  -2 -10  -4   31.12    1.50
  -2 -10  -4   27.82    2.35
  -3 -10  -4    0.19    0.12
  -3 -10  -4    0.33    0.20
  -3 -10  -4    1.24    0.86
   3  10   4   -0.67    0.44
  -4 -10  -4   10.42    1.60
  -4 -10  -4   10.77    0.87
   4  10   4   12.88    1.28
  -5 -10  -4  212.47    8.63
   5  10   4  200.18    7.98
  -6 -10  -4   85.83    3.24
  -6 -10  -4   83.90    4.41
  -6 -10  -4   85.78    3.37
   6  10   4   81.47    4.03
  -7 -10  -4    0.64    0.19
  -7 -10  -4    2.12    1.16
   7  10   4    0.33    0.89
  -8 -10  -4   -0.20    1.23
   8  10   4   -0.28    0.88
  -9 -10  -4   27.03    2.77
 -10 -10  -4    2.49    1.86
  10 -11  -4    0.20    0.29
   9 -11  -4    0.27    0.31
   8 -11  -4    3.72    0.91
  -8  11   4    3.78    1.74
   7 -11  -4    1.85    0.62
  -7  11   4    4.41    2.09
  -7  11   4    3.41    1.50
   6 -11  -4    3.80    0.98
  -6  11   4    1.78    1.76
  -6  11   4    2.53    1.15
   5 -11  -4   41.07    2.56
   5 -11  -4   38.89    2.80
  -5  11   4   35.93    2.97
  -5  11   4   36.74    2.44
  -5  11   4   42.56    3.55
   4 -11  -4    4.02    0.80
   4 -11  -4    3.44    1.11
  -4  11   4    5.55    1.01
  -4  11   4    4.22    0.98
   3 -11  -4   13.43    1.25
   3 -11  -4   14.61    1.90
  -3  11   4   13.64    1.44
   2 -11  -4   28.91    2.43
   2 -11  -4   28.20    1.84
  -2  11   4   24.59    1.82
   1 -11  -4    0.15    0.14
   1 -11  -4    0.46    0.91
   1 -11  -4    0.15    0.14
  -1  11   4   -0.31    0.54
   0 -11  -4    5.92    0.91
   0 -11  -4    5.65    0.75
   0 -11  -4    4.69    1.23
   0  11   4    5.48    0.89
  -1 -11  -4  117.09    5.66
  -1 -11  -4  117.58    4.60
  -1 -11  -4  122.41    4.89
   1  11   4  112.53    4.92
  -2 -11  -4  127.74    5.02
  -2 -11  -4  126.53    4.78
  -2 -11  -4  122.69    5.90
   2  11   4  117.90    5.15
  -3 -11  -4    1.39    0.39
  -3 -11  -4    0.31    0.89
  -3 -11  -4    1.96    0.38
   3  11   4    1.17    0.67
  -4 -11  -4    4.83    1.36
  -4 -11  -4    3.45    0.58
  -4 -11  -4    3.03    0.48
   4  11   4    1.35    0.69
  -5 -11  -4   31.15    2.55
  -5 -11  -4   32.93    1.54
  -5 -11  -4   32.06    1.67
   5  11   4   28.58    2.19
  -6 -11  -4    8.14    0.61
  -6 -11  -4    7.73    0.67
  -6 -11  -4    9.02    1.70
   6  11   4    4.64    1.33
  -7 -11  -4    1.28    1.40
   7  11   4    0.79    1.11
  -8 -11  -4    7.51    1.82
  -9 -11  -4    2.86    1.91
   9 -12  -4    8.15    1.43
   8 -12  -4    4.84    1.15
   7 -12  -4    2.91    0.77
  -7  12   4    2.01    1.61
  -7  12   4    0.15    2.59
   6 -12  -4   14.90    1.51
  -6  12   4   11.76    1.83
  -6  12   4   12.91    2.69
   5 -12  -4    0.07    0.13
   5 -12  -4    1.16    1.32
  -5  12   4   -0.11    1.08
   4 -12  -4    1.35    0.52
  -4  12   4    1.75    0.99
   3 -12  -4   46.50    3.64
   3 -12  -4   50.90    2.80
  -3  12   4   40.35    2.64
   2 -12  -4  105.69    5.35
   2 -12  -4   99.82    4.62
  -2  12   4  100.24    4.58
   1 -12  -4    1.43    1.07
   1 -12  -4    1.75    0.54
  -1  12   4    0.93    0.76
   0 -12  -4    2.31    1.10
   0 -12  -4    1.43    0.39
   0 -12  -4    2.10    0.53
   0  12   4    1.10    0.77
  -1 -12  -4   32.76    1.97
  -1 -12  -4   31.43    1.75
  -1 -12  -4   36.24    2.93
   1  12   4   34.62    2.27
  -2 -12  -4   14.91    2.39
  -2 -12  -4   13.16    1.12
  -2 -12  -4   15.27    1.04
   2  12   4   15.45    1.57
  -3 -12  -4    6.15    0.77
  -3 -12  -4    7.18    0.98
   3  12   4    7.36    1.27
  -4 -12  -4    0.93    1.19
  -4 -12  -4    0.85    0.31
  -4 -12  -4    0.98    0.28
   4  12   4    0.46    1.26
  -5 -12  -4    1.22    0.31
  -5 -12  -4    0.52    1.43
  -5 -12  -4    1.22    0.35
   5  12   4    1.91    0.92
  -6 -12  -4    7.94    1.93
  -6 -12  -4    6.63    0.64
  -6 -12  -4    5.99    0.54
  -7 -12  -4    0.38    0.18
  -7 -12  -4    0.30    0.14
   8 -13  -4    0.70    0.44
   7 -13  -4    4.57    1.37
   6 -13  -4   43.64    2.92
   5 -13  -4    1.90    0.70
  -5  13   4    3.98    1.48
   4 -13  -4    2.35    0.66
  -4  13   4    1.49    1.23
   3 -13  -4    4.57    1.94
   3 -13  -4    9.18    1.33
   2 -13  -4   15.62    2.16
   2 -13  -4   18.03    1.52
  -2  13   4   15.66    1.86
   1 -13  -4    6.14    1.69
   1 -13  -4    6.83    1.15
  -1  13   4    6.43    1.21
   0 -13  -4    2.06    0.55
   0 -13  -4    2.55    1.46
   0  13   4   -0.11    0.94
  -1 -13  -4   -0.62    1.36
  -1 -13  -4    1.04    0.40
  -2 -13  -4    7.85    0.78
  -2 -13  -4    7.50    1.02
  -2 -13  -4   11.70    2.19
   2  13   4    7.69    1.35
  -3 -13  -4    0.92    0.35
  -3 -13  -4    1.15    0.34
   3  13   4    1.27    1.05
  -4 -13  -4    0.10    0.10
  -4 -13  -4    0.03    0.10
  -5 -13  -4   12.13    0.88
  -5 -13  -4   12.26    0.99
  -6 -13  -4   19.10    1.14
  -6 -13  -4   20.51    1.27
   7 -14  -4    3.84    1.05
   6 -14  -4    8.02    1.40
   5 -14  -4    3.71    0.90
   4 -14  -4    7.69    1.45
   3 -14  -4    1.23    0.55
   2 -14  -4    7.04    1.12
   1 -14  -4    0.77    0.40
  -1  14   4    1.98    1.87
   0 -14  -4    1.47    0.52
  -1 -14  -4    5.41    0.95
  -2 -14  -4   24.07    1.70
  -3 -14  -4    0.82    0.35
  -4 -14  -4    0.03    0.10
  -4 -14  -4    0.11    0.19
  -5 -14  -4   -0.01    0.07
  -5 -14  -4    0.07    0.11
  -6 -14  -4    0.30    0.18
  -6 -14  -4    0.30    0.19
   5 -15  -4    0.00    0.12
   4 -15  -4    3.94    0.95
   3 -15  -4    1.11    0.54
   2 -15  -4   19.75    1.75
   1 -15  -4    4.62    0.97
   0 -15  -4    0.05    0.12
  -1 -15  -4    1.32    0.50
  -2 -15  -4    0.95    0.40
  -3 -15  -4    3.01    0.69
  -4 -15  -4    0.51    0.27
  -5 -15  -4    9.23    0.87
   2 -16  -4    0.00    0.14
   1 -16  -4    1.48    0.58
   0 -16  -4    0.67    0.41
  -1 -16  -4    9.19    1.29
  -2 -16  -4    0.59    0.32
  -3 -16  -4    0.58    0.32
   0 -13   5    0.07    0.17
   1 -13   5    0.35    0.34
   2 -13   5    6.11    1.32
   3 -13   5    2.57    1.20
   4 -13   5    3.19    1.11
   5 -13   5    3.60    0.98
   6 -13   5   -0.08    0.16
  -3 -12   5    1.55    0.72
  -2 -12   5   12.35    2.01
  -1 -12   5   -0.06    0.11
   0 -12   5    2.82    0.82
   1 -12   5    2.53    0.79
   2 -12   5    0.82    0.46
   3 -12   5    3.09    0.85
   4 -12   5    0.75    0.46
  -5  12  -5    5.81    1.08
   5 -12   5    4.77    1.07
  -6  12  -5    0.09    0.18
   6 -12   5    0.19    0.28
  -7  12  -5   14.36    1.92
   7 -12   5   14.43    2.01
  -8  12  -5   30.35    2.39
  -9  12  -5    2.91    1.08
  -4 -11   5    4.22    1.10
  -3 -11   5    0.54    0.42
  -2 -11   5    2.93    0.91
  -1 -11   5    0.44    0.30
   0 -11   5    2.42    0.82
   1 -11   5   14.37    1.97
  -2  11  -5    2.93    0.76
   2 -11   5    2.61    0.80
  -3  11  -5   10.55    1.37
   3 -11   5   10.52    1.56
  -4  11  -5   51.41    3.06
   4 -11   5   56.52    3.40
  -5  11  -5    8.01    1.27
   5 -11   5    8.64    1.53
  -6  11  -5    0.10    0.20
   6 -11   5    0.42    0.38
  -7  11  -5   45.30    2.87
   7 -11   5   44.51    3.01
  -8  11  -5   78.38    4.23
   8 -11   5   80.84    4.43
  -9  11  -5    3.30    0.88
 -10  11  -5    1.74    0.86
  -6 -10   5    1.69    0.61
  -5 -10   5    0.62    0.45
  -4 -10   5    2.97    1.01
  -3 -10   5   10.47    1.79
  -2 -10   5   10.87    1.57
  -1 -10   5    5.78    1.22
   0  10  -5   43.02    2.81
   0  10  -5   38.32    2.43
   0 -10   5   39.81    2.79
   0 -10   5   52.64    5.75
  -1  10  -5   12.78    1.72
  -1  10  -5   11.71    1.16
   1 -10   5   11.49    2.24
   1 -10   5   12.23    1.77
  -2  10  -5    0.51    0.93
  -2  10  -5    0.07    0.13
   2 -10   5   -0.06    0.09
   2 -10   5   -0.33    1.47
  -3  10  -5   31.44    2.07
  -3  10  -5   28.81    2.41
   3 -10   5   32.31    2.33
   3 -10   5   30.87    3.14
  -4  10  -5  120.93    5.39
  -4  10  -5  122.33    5.68
   4 -10   5  124.64    6.40
   4 -10   5  122.02    5.72
  -5  10  -5   14.08    1.92
  -5  10  -5   15.85    1.41
   5 -10   5   14.73    1.85
   5 -10   5   18.05    2.52
  -6  10  -5    0.42    0.31
   6 -10   5   -0.01    0.10
   6 -10   5   -0.81    1.41
  -7  10  -5    1.21    0.46
   7 -10   5    2.12    1.50
   7 -10   5    2.69    0.74
  -8  10  -5    8.07    1.29
   8 -10   5    6.97    1.33
   8 -10   5    6.94    1.92
  -9  10  -5    1.02    0.47
   9 -10   5    0.92    1.83
 -10  10  -5    2.38    0.75
 -11  10  -5    3.12    0.88
  -7  -9   5    2.92    0.99
  -6  -9   5    9.26    1.71
  -5  -9   5    1.60    0.65
  -4  -9   5   23.66    2.13
   3   9  -5   12.14    1.63
  -3  -9   5   11.63    2.46
  -3  -9   5    8.86    1.47
   2   9  -5   -0.04    0.10
   2   9  -5    0.07    0.94
  -2  -9   5    0.43    1.50
  -2  -9   5    0.01    0.12
   1   9  -5   15.56    1.34
  -1  -9   5   14.57    1.84
  -1  -9   5   15.91    2.36
   0   9  -5  151.49    6.57
   0  -9   5  165.90    7.21
  -1   9  -5   21.34    1.63
  -1   9  -5   27.96    2.11
   1  -9   5   26.96    2.69
   1  -9   5   24.85    1.99
  -2   9  -5    2.40    0.91
  -2   9  -5    1.44    0.49
   2  -9   5    1.48    1.17
   2  -9   5    0.86    0.45
  -3   9  -5    6.65    1.07
  -3   9  -5    6.87    1.27
   3  -9   5    6.68    1.18
   3  -9   5    6.31    1.45
  -4   9  -5   17.18    1.40
  -4   9  -5   18.33    1.75
   4  -9   5   15.71    1.50
   4  -9   5   19.73    2.36
  -5   9  -5    3.70    1.13
  -5   9  -5    5.89    0.96
   5  -9   5    3.62    0.84
   5  -9   5    4.56    1.47
  -6   9  -5    0.92    0.39
  -6   9  -5   -0.92    0.77
   6  -9   5    0.05    1.20
   6  -9   5    0.92    0.44
  -7   9  -5    7.72    1.54
  -7   9  -5    9.38    1.39
   7  -9   5   10.86    1.83
   7  -9   5    9.63    1.54
  -8   9  -5    0.76    0.38
   8  -9   5    0.58    0.37
   8  -9   5   -0.27    1.34
  -9   9  -5    3.90    0.98
   9  -9   5    4.08    0.98
   9  -9   5    4.18    1.55
 -10   9  -5    2.13    0.70
 -11   9  -5    3.65    0.94
 -12   9  -5   11.03    1.83
  -8  -8   5    4.26    1.07
  -7  -8   5    5.79    1.30
  -6  -8   5    0.71    0.42
  -5  -8   5    2.24    1.81
  -5  -8   5    2.74    0.82
   4   8  -5   78.62    3.99
  -4  -8   5   66.25    4.35
  -4  -8   5   76.06    4.23
  -4  -8   5   78.59    4.30
   3   8  -5   35.68    2.24
   3   8  -5   39.60    2.62
  -3  -8   5   40.02    2.73
   2   8  -5    3.65    0.93
   2   8  -5    3.38    0.73
  -2  -8   5    3.64    1.37
   1   8  -5    3.24    0.64
   1   8  -5    3.81    0.96
  -1  -8   5    2.88    0.67
  -1  -8   5    3.50    1.34
   0   8  -5   16.89    1.34
   0   8  -5   19.41    1.63
   0  -8   5   16.82    1.57
   0  -8   5   20.36    2.56
  -1   8  -5    1.38    0.46
  -1   8  -5    2.11    0.72
   1  -8   5    0.54    1.00
   1  -8   5    0.84    0.41
  -2   8  -5   11.85    1.41
  -2   8  -5   10.80    1.02
   2  -8   5   12.14    1.55
   2  -8   5   13.02    1.93
  -3   8  -5   11.67    1.07
  -3   8  -5   13.90    1.44
   3  -8   5   13.83    2.02
   3  -8   5   13.74    1.31
  -4   8  -5    2.82    0.84
  -4   8  -5    1.47    0.50
   4  -8   5    1.80    1.05
   4  -8   5    0.58    0.34
  -5   8  -5    2.23    0.62
  -5   8  -5    2.25    0.75
   5  -8   5    2.27    1.05
   5  -8   5    2.34    0.68
  -6   8  -5    3.58    0.90
  -6   8  -5    3.42    0.74
   6  -8   5    3.59    0.86
   6  -8   5    1.40    1.09
  -7   8  -5    2.09    0.56
  -7   8  -5    1.36    0.95
   7  -8   5    2.17    1.16
   7  -8   5    1.39    0.53
  -8   8  -5   44.79    2.95
  -8   8  -5   41.68    2.81
   8  -8   5   38.48    2.56
   8  -8   5   41.92    2.94
  -9   8  -5   -0.08    0.09
  -9   8  -5   -0.87    1.24
   9  -8   5    0.75    1.11
   9  -8   5   -0.06    0.11
 -10   8  -5    8.17    1.30
  10  -8   5    8.63    1.57
 -11   8  -5    0.25    0.24
 -13   8  -5   -0.02    0.14
  -8  -7   5   23.26    2.22
  -7  -7   5   33.18    2.60
  -7  -7   5   24.58    3.00
   6   7  -5   -1.13    1.22
  -6  -7   5    1.69    1.74
  -6  -7   5    1.15    0.56
   5   7  -5    6.25    1.74
  -5  -7   5    8.86    1.87
  -5  -7   5    5.59    1.23
   4   7  -5   11.23    1.46
   4   7  -5   12.22    1.16
  -4  -7   5   14.10    2.04
  -4  -7   5   11.28    1.61
   3   7  -5    0.07    0.15
   3   7  -5    0.64    0.71
  -3  -7   5    0.43    0.34
  -3  -7   5   -0.11    1.12
   2   7  -5   30.04    1.82
   2   7  -5   25.71    1.88
  -2  -7   5   31.12    2.53
  -2  -7   5   23.85    1.96
  -2  -7   5   27.23    2.08
   1   7  -5    2.83    0.59
   1   7  -5    3.70    0.77
  -1  -7   5    4.11    1.38
  -1  -7   5    2.86    0.74
   0   7  -5    0.11    0.53
   0   7  -5    0.24    0.16
   0  -7   5    0.02    0.86
   0  -7   5    0.49    0.26
  -1   7  -5    0.20    0.18
  -1   7  -5    0.00    0.49
   1  -7   5   -1.26    0.73
   1  -7   5    0.26    0.26
  -2   7  -5    6.06    0.93
  -2   7  -5    6.61    0.96
   2  -7   5    5.62    1.21
   2  -7   5    6.40    1.12
  -3   7  -5    1.05    0.51
  -3   7  -5    1.80    0.53
   3  -7   5    0.94    0.43
   3  -7   5    1.64    0.88
  -4   7  -5   51.79    2.72
  -4   7  -5   46.06    2.47
   4  -7   5   49.50    2.99
   4  -7   5   49.23    3.13
  -5   7  -5   10.66    1.34
  -5   7  -5    8.97    0.90
   5  -7   5   10.62    1.32
   5  -7   5    8.52    1.49
  -6   7  -5    8.36    1.09
  -6   7  -5   11.44    1.46
   6  -7   5    9.20    1.42
   6  -7   5    8.01    1.22
  -7   7  -5    0.49    0.68
  -7   7  -5    0.03    0.09
   7  -7   5    0.58    0.92
   7  -7   5    0.14    0.19
  -8   7  -5   19.34    1.48
  -8   7  -5   17.76    1.85
   8  -7   5   14.84    2.02
   8  -7   5   15.34    1.42
  -9   7  -5    0.53    0.37
  -9   7  -5    0.92    0.97
   9  -7   5    0.03    0.12
   9  -7   5    0.41    0.98
 -10   7  -5    2.82    1.44
 -10   7  -5    1.92    0.62
  10  -7   5    2.14    1.10
 -11   7  -5   38.88    2.58
 -12   7  -5    1.10    0.53
 -13   7  -5    3.31    0.88
  -9  -6   5    2.92    0.90
  -8  -6   5    6.13    2.33
  -8  -6   5    4.45    1.24
   7   6  -5   -0.86    1.24
  -7  -6   5    0.24    0.24
  -7  -6   5   -3.19    1.60
   6   6  -5   23.28    3.02
  -6  -6   5   19.22    2.33
  -6  -6   5   19.64    1.90
   5   6  -5    1.03    0.85
   5   6  -5    0.08    0.16
  -5  -6   5   -1.99    1.19
  -5  -6   5   -0.07    0.08
   4   6  -5    0.66    0.66
   4   6  -5    1.27    0.45
  -4  -6   5    0.13    1.12
  -4  -6   5    0.62    0.40
   3   6  -5    0.02    0.61
   3   6  -5    0.32    0.27
  -3  -6   5    0.11    0.97
  -3  -6   5    0.21    0.25
   2   6  -5    7.73    1.04
   2   6  -5    6.84    0.98
  -2  -6   5    6.21    1.08
  -2  -6   5    4.38    1.04
   1   6  -5    0.90    0.51
   1   6  -5    0.51    0.23
  -1  -6   5    1.11    0.44
  -1  -6   5    1.97    1.01
   0   6  -5   39.61    2.11
   0   6  -5   40.65    2.19
   0  -6   5   42.78    2.80
  -1   6  -5   58.35    2.71
  -1   6  -5   58.18    2.78
   1  -6   5   54.83    2.98
  -2   6  -5   10.23    1.00
  -2   6  -5   13.02    1.15
   2  -6   5   14.01    1.26
   2  -6   5   14.39    1.61
  -3   6  -5    2.04    0.44
  -3   6  -5    1.51    0.46
   3  -6   5    2.88    0.89
   3  -6   5    1.20    0.42
  -4   6  -5   20.77    1.33
  -4   6  -5   18.38    1.46
   4  -6   5   18.10    1.43
   4  -6   5   20.77    1.84
  -5   6  -5    8.53    1.15
  -5   6  -5    9.38    0.86
   5  -6   5   10.94    1.53
   5  -6   5    7.72    1.10
  -6   6  -5   -1.07    0.48
  -6   6  -5    0.31    0.20
   6  -6   5    0.41    0.28
   6  -6   5   -0.46    0.65
  -7   6  -5   51.06    2.63
  -7   6  -5   50.55    3.25
  -7   6  -5   49.69    2.85
   7  -6   5   52.86    2.80
   7  -6   5   49.72    2.88
  -8   6  -5    1.97    0.54
  -8   6  -5    1.17    0.79
  -8   6  -5    1.35    1.36
   8  -6   5    2.41    0.83
   8  -6   5    1.35    0.44
  -9   6  -5    7.88    1.67
  -9   6  -5    8.84    1.29
  -9   6  -5    8.03    1.40
   9  -6   5   11.09    1.31
   9  -6   5    9.80    1.32
 -10   6  -5    5.88    1.05
 -10   6  -5    4.06    1.16
  10  -6   5    6.31    1.09
 -11   6  -5   11.50    1.59
 -12   6  -5    8.08    1.21
 -13   6  -5    8.14    1.47
 -14   6  -5    0.63    0.45
 -10  -5   5    6.61    1.37
  -9  -5   5    1.84    0.70
  -8  -5   5    2.89    1.86
  -8  -5   5    1.25    0.58
  -7  -5   5   -0.06    1.32
  -7  -5   5    0.05    0.15
   6   5  -5    3.41    1.03
   6   5  -5    3.33    0.77
  -6  -5   5    2.80    0.83
  -6  -5   5    2.67    1.36
   5   5  -5    0.19    0.16
   5   5  -5    0.03    0.69
  -5  -5   5    0.15    0.21
  -5  -5   5   -0.28    1.05
   4   5  -5    6.79    0.99
   4   5  -5    5.00    0.85
  -4  -5   5    6.08    1.32
  -4  -5   5    6.84    1.24
   3   5  -5   47.03    2.52
   3   5  -5   50.75    2.55
  -3  -5   5   49.77    2.93
  -3  -5   5   56.78    3.23
   2   5  -5    0.90    0.44
   2   5  -5    0.53    0.24
  -2  -5   5    1.61    0.53
  -2  -5   5    0.86    1.29
   1   5  -5    2.60    0.53
   1   5  -5    2.85    0.57
  -1  -5   5    2.53    0.67
  -1  -5   5    3.38    0.99
  -1  -5   5    3.45    0.67
   0   5  -5   11.92    0.95
   0   5  -5   12.36    1.04
   0  -5   5   12.59    1.05
   0  -5   5   13.23    1.65
  -1   5  -5   25.43    1.50
  -1   5  -5   23.45    1.41
   1  -5   5   24.40    1.94
   1  -5   5   23.39    1.64
   1  -5   5   24.76    1.47
  -2   5  -5    3.72    0.65
  -2   5  -5    4.59    0.71
  -2   5  -5    3.73    1.15
   2  -5   5    4.99    1.03
   2  -5   5    3.93    0.86
   2  -5   5    3.23    0.63
  -3   5  -5   55.13    2.60
  -3   5  -5   51.87    2.63
  -3   5  -5   53.23    3.19
   3  -5   5   54.10    3.05
   3  -5   5   54.19    2.52
   3  -5   5   52.39    2.71
  -4   5  -5    9.71    0.83
  -4   5  -5    9.73    0.95
  -4   5  -5   10.18    1.44
   4  -5   5   11.34    1.01
   4  -5   5   10.66    0.99
   4  -5   5   13.06    1.32
  -5   5  -5   28.36    1.77
  -5   5  -5   31.98    2.31
  -5   5  -5   29.05    1.65
   5  -5   5   30.76    2.09
   5  -5   5   29.33    1.81
  -6   5  -5   11.82    1.63
  -6   5  -5   11.97    0.97
  -6   5  -5   12.58    1.22
   6  -5   5   12.23    1.35
   6  -5   5   12.09    1.08
  -7   5  -5   20.81    1.41
  -7   5  -5   21.29    1.58
  -7   5  -5   19.16    2.13
   7  -5   5   22.65    1.73
   7  -5   5   20.06    1.48
  -8   5  -5   24.39    1.60
  -8   5  -5   23.71    1.92
  -8   5  -5   23.94    2.11
  -8   5  -5   21.99    1.74
   8  -5   5   26.92    1.79
   8  -5   5   23.32    1.64
  -9   5  -5   53.57    3.11
  -9   5  -5   49.98    3.01
  -9   5  -5   53.83    2.81
   9  -5   5   54.48    2.69
   9  -5   5   52.03    2.82
 -10   5  -5    0.11    0.18
 -10   5  -5   -0.75    0.74
 -10   5  -5   -0.19    1.15
  10  -5   5   -0.01    0.64
 -11   5  -5    0.46    0.29
 -11   5  -5    0.48    1.15
 -12   5  -5    6.73    1.18
 -13   5  -5    1.75    0.59
 -14   5  -5    0.21    0.26
 -10  -4   5    1.89    0.77
  -9  -4   5    0.10    0.19
   8   4  -5    0.72    1.21
  -8  -4   5    0.13    0.22
  -8  -4   5    0.11    1.53
   7   4  -5   30.94    2.27
  -7  -4   5   29.00    2.58
  -7  -4   5   25.76    2.22
   6   4  -5    1.52    0.75
   6   4  -5    1.43    0.47
  -6  -4   5    1.05    0.66
  -6  -4   5    0.48    1.08
   5   4  -5    3.51    0.71
   5   4  -5    3.70    0.84
  -5  -4   5    2.25    1.00
  -5  -4   5    4.93    1.02
   4   4  -5    4.92    0.77
   4   4  -5    6.20    0.91
  -4  -4   5    5.72    1.08
  -4  -4   5    6.31    1.21
   3   4  -5   26.46    1.61
   3   4  -5   28.47    1.62
   3   4  -5   25.92    1.92
  -3  -4   5   25.38    1.62
  -3  -4   5   28.68    2.16
  -3  -4   5   25.98    1.89
   2   4  -5    7.29    0.74
   2   4  -5    9.19    0.84
  -2  -4   5   10.32    1.50
  -2  -4   5    8.09    0.87
  -2  -4   5    7.46    1.08
   1   4  -5    7.54    1.43
   1   4  -5    6.75    0.72
   1   4  -5    6.93    0.67
  -1  -4   5    7.58    1.14
  -1  -4   5    8.10    0.81
  -1  -4   5    6.86    1.19
   0   4  -5   20.73    1.22
   0   4  -5   20.20    1.86
   0   4  -5   20.57    1.22
   0  -4   5   16.05    1.12
   0  -4   5   19.55    1.62
   0  -4   5   17.34    1.35
  -1   4  -5   32.85    2.35
  -1   4  -5   30.91    1.69
  -1   4  -5   42.32    2.01
   1  -4   5   40.52    2.39
   1  -4   5   31.92    1.67
   1  -4   5   30.63    1.91
  -2   4  -5   10.70    0.85
  -2   4  -5    9.48    0.76
  -2   4  -5    8.23    1.91
   2  -4   5    9.14    0.83
   2  -4   5    9.50    0.90
   2  -4   5   11.60    1.24
  -3   4  -5   14.86    1.08
  -3   4  -5   14.76    0.99
  -3   4  -5   14.47    1.56
   3  -4   5   15.16    1.15
   3  -4   5   16.34    1.42
   3  -4   5   16.10    1.08
  -4   4  -5   18.27    1.61
  -4   4  -5   18.03    1.13
  -4   4  -5   21.78    1.33
   4  -4   5   17.41    1.25
   4  -4   5   17.90    1.50
  -5   4  -5  208.79    8.09
  -5   4  -5  216.10    8.00
  -5   4  -5  212.06    8.38
   5  -4   5  219.11    8.30
   5  -4   5  212.49    8.02
   5  -4   5  213.55    7.90
  -6   4  -5    4.51    0.81
  -6   4  -5    4.96    0.83
  -6   4  -5    6.50    1.17
  -6   4  -5    5.10    0.69
  -6   4  -5    4.83    0.82
   6  -4   5    6.80    0.99
   6  -4   5    5.36    0.85
  -7   4  -5    1.16    0.56
  -7   4  -5    2.12    0.51
  -7   4  -5    0.59    0.77
   7  -4   5    2.28    0.58
   7  -4   5    1.86    0.60
  -8   4  -5   13.86    1.25
  -8   4  -5   15.48    1.15
  -8   4  -5   14.46    1.50
  -8   4  -5   13.44    1.32
   8  -4   5   15.19    1.27
   8  -4   5   13.74    1.15
  -9   4  -5   24.81    1.95
  -9   4  -5   30.83    2.17
  -9   4  -5   27.85    1.79
  -9   4  -5   30.96    2.06
   9  -4   5   32.20    1.75
   9  -4   5   30.33    1.87
 -10   4  -5    0.10    0.14
 -10   4  -5    0.67    0.80
 -10   4  -5    0.04    0.75
  10  -4   5    0.43    0.50
 -11   4  -5   30.89    2.04
 -11   4  -5   29.07    2.48
 -12   4  -5    8.67    1.17
 -13   4  -5    0.76    0.39
 -14   4  -5    3.33    0.88
 -15   4  -5    1.13    0.52
 -11  -3   5    3.50    0.94
 -10  -3   5    3.61    1.10
   9   3  -5   -0.16    1.46
  -9  -3   5    0.28    0.28
   8   3  -5   -1.10    1.07
  -8  -3   5   -0.41    1.27
  -8  -3   5    0.48    0.37
   7   3  -5   16.12    1.70
   7   3  -5   16.39    1.38
  -7  -3   5   14.54    1.96
   6   3  -5    2.34    0.59
   6   3  -5    1.21    0.70
  -6  -3   5    1.41    0.58
  -6  -3   5    1.25    1.02
   5   3  -5    1.86    0.50
   5   3  -5    1.96    0.65
  -5  -3   5    2.30    0.91
  -5  -3   5    2.68    0.75
   4   3  -5    8.92    1.67
   4   3  -5    9.90    0.91
   4   3  -5    9.04    1.22
   4   3  -5    9.76    0.97
  -4  -3   5   14.87    1.99
  -4  -3   5    9.91    1.47
   3   3  -5   19.39    1.50
   3   3  -5   15.35    1.13
   3   3  -5   15.44    1.11
   3   3  -5   18.97    1.96
  -3  -3   5   16.68    1.61
  -3  -3   5   16.60    1.40
   2   3  -5   16.88    1.08
   2   3  -5   13.65    1.72
   2   3  -5   17.05    1.12
  -2  -3   5   17.82    1.61
  -2  -3   5   13.63    1.05
  -2  -3   5   15.88    1.30
   1   3  -5    5.41    0.77
   1   3  -5    4.47    0.58
   1   3  -5    4.85    1.79
  -1  -3   5    4.09    0.90
  -1  -3   5    6.04    0.95
  -1  -3   5    4.01    0.58
   0   3  -5   13.94    0.91
   0   3  -5   12.22    1.55
   0   3  -5   13.22    0.91
   0  -3   5   13.83    1.33
   0  -3   5   13.29    0.89
   0  -3   5   13.65    1.09
  -1   3  -5  375.02   12.86
  -1   3  -5  356.24   13.67
   1  -3   5  375.57   12.83
   1  -3   5  380.64   13.66
  -2   3  -5   68.46    3.53
  -2   3  -5   72.88    2.95
  -2   3  -5   73.26    2.93
   2  -3   5   70.33    2.89
   2  -3   5   70.22    3.17
   2  -3   5   73.41    3.52
  -3   3  -5    3.85    0.51
  -3   3  -5    2.53    0.74
  -3   3  -5    3.15    0.52
  -3   3  -5    4.09    0.64
   3  -3   5    3.37    0.50
   3  -3   5    3.61    0.62
   3  -3   5    5.10    0.94
  -4   3  -5   25.99    1.45
  -4   3  -5   24.40    1.60
  -4   3  -5   25.25    1.44
  -4   3  -5   22.79    1.80
   4  -3   5   23.37    1.44
   4  -3   5   25.24    1.40
   4  -3   5   27.27    1.79
  -5   3  -5   93.39    4.00
  -5   3  -5   98.11    3.79
  -5   3  -5  100.89    4.01
  -5   3  -5   94.36    4.25
   5  -3   5   95.75    4.18
   5  -3   5   94.48    3.94
   5  -3   5   90.99    3.86
  -6   3  -5    7.23    1.00
  -6   3  -5    6.01    0.59
  -6   3  -5    7.90    1.13
  -6   3  -5    6.91    0.92
   6  -3   5    5.41    0.87
   6  -3   5    7.17    0.70
   6  -3   5    5.75    0.80
  -7   3  -5   29.64    1.78
  -7   3  -5   26.69    1.77
  -7   3  -5   28.98    1.89
  -7   3  -5   30.32    1.61
   7  -3   5   27.39    1.64
   7  -3   5   28.90    1.73
  -8   3  -5   51.06    2.59
  -8   3  -5   55.14    2.53
  -8   3  -5   53.63    3.08
   8  -3   5   49.91    2.51
   8  -3   5   46.92    2.93
  -9   3  -5    0.23    0.21
  -9   3  -5    0.04    0.09
  -9   3  -5   -0.12    0.56
   9  -3   5    0.17    0.16
   9  -3   5    0.09    0.45
 -10   3  -5    5.16    1.09
 -10   3  -5    7.59    1.15
 -10   3  -5    6.47    0.90
 -11   3  -5    5.10    0.94
 -11   3  -5    4.35    1.25
 -12   3  -5    2.33    1.35
 -12   3  -5    2.51    0.69
 -13   3  -5    0.75    0.40
 -14   3  -5   60.02    3.44
 -15   3  -5   22.99    1.96
 -11  -2   5    3.20    1.01
 -10  -2   5   -0.04    0.11
  -9  -2   5    9.20    1.57
   8   2  -5    1.43    0.59
   8   2  -5   -0.69    1.00
  -8  -2   5    0.88    0.48
  -8  -2   5    2.14    1.22
   7   2  -5    4.11    0.97
   7   2  -5    7.35    1.18
  -7  -2   5    4.32    1.15
  -7  -2   5    6.44    1.30
   6   2  -5    4.48    0.84
   6   2  -5    5.68    0.92
   6   2  -5    8.23    1.69
  -6  -2   5    5.65    1.22
  -6  -2   5    4.77    0.99
   5   2  -5    0.11    0.14
   5   2  -5   -0.36    0.46
   5   2  -5    0.17    1.15
   5   2  -5    0.21    0.80
  -5  -2   5    0.31    0.26
  -5  -2   5    1.47    0.80
   4   2  -5    3.56    1.14
   4   2  -5    3.12    0.76
   4   2  -5    3.55    0.68
   4   2  -5    4.20    0.68
  -4  -2   5    2.78    0.70
  -4  -2   5    4.62    0.92
   3   2  -5  247.10    8.97
   3   2  -5  249.97    8.76
  -3  -2   5  240.89    9.46
   2   2  -5  112.77    4.39
   2   2  -5  109.74    4.18
   2   2  -5  101.16    4.96
  -2  -2   5  111.40    4.19
  -2  -2   5  113.03    4.75
  -2  -2   5  115.17    4.96
   1   2  -5   -0.28    0.58
   1   2  -5    0.21    0.14
   1   2  -5    0.70    0.27
  -1  -2   5    0.28    0.21
  -1  -2   5    0.29    0.26
  -1  -2   5    0.55    0.49
   0   2  -5   37.14    1.66
   0   2  -5   39.46    1.79
   0   2  -5   39.95    2.36
   0  -2   5   34.77    1.62
   0  -2   5   40.38    2.35
   0  -2   5   36.07    1.97
  -1   2  -5  211.04    8.33
  -1   2  -5  224.05    7.59
  -1   2  -5  215.03    7.93
   1  -2   5  211.23    7.52
   1  -2   5  213.20    8.31
  -2   2  -5   16.85    0.98
  -2   2  -5   23.86    1.54
  -2   2  -5   15.70    1.44
  -2   2  -5   18.99    1.02
   2  -2   5   17.26    0.98
   2  -2   5   17.54    1.24
   2  -2   5   16.36    1.35
  -3   2  -5   33.98    2.14
  -3   2  -5   37.81    1.68
  -3   2  -5   35.12    1.83
   3  -2   5   35.16    2.13
   3  -2   5   39.78    1.74
   3  -2   5   37.45    1.85
  -4   2  -5  154.92    5.94
  -4   2  -5  159.53    5.88
  -4   2  -5  165.89    6.35
   4  -2   5  148.39    5.77
   4  -2   5  159.13    6.26
   4  -2   5  160.25    5.94
  -5   2  -5   -0.04    0.48
  -5   2  -5   -0.01    0.03
  -5   2  -5    0.11    0.28
   5  -2   5    0.02    0.31
   5  -2   5    0.02    0.04
   5  -2   5    0.37    0.36
  -6   2  -5    1.92    0.69
  -6   2  -5    2.51    0.52
  -6   2  -5    2.43    0.43
  -6   2  -5    1.46    0.48
   6  -2   5    1.97    0.54
   6  -2   5    2.90    0.56
  -7   2  -5    3.74    0.54
  -7   2  -5    4.57    0.70
  -7   2  -5    4.12    0.75
  -7   2  -5    4.53    0.81
   7  -2   5    3.73    0.67
   7  -2   5    4.47    0.66
   7  -2   5    4.29    0.81
  -8   2  -5   18.10    1.32
  -8   2  -5   20.12    1.24
  -8   2  -5   19.74    1.51
   8  -2   5   17.22    1.18
   8  -2   5   19.91    1.26
  -9   2  -5    0.50    0.24
  -9   2  -5    0.31    0.64
  -9   2  -5    0.40    0.49
  -9   2  -5    1.04    0.37
   9  -2   5    1.12    0.41
   9  -2   5    0.58    0.38
 -10   2  -5   97.97    4.70
 -11   2  -5   88.45    4.19
 -11   2  -5   87.63    4.02
 -11   2  -5   88.90    4.50
 -12   2  -5    8.27    1.50
 -12   2  -5   10.76    1.44
 -13   2  -5    0.50    0.33
 -14   2  -5   60.34    3.38
 -15   2  -5   11.25    1.51
 -11  -1   5    1.14    0.61
  10   1  -5    4.04    1.66
 -10  -1   5    1.66    0.71
   9   1  -5    1.81    1.28
  -9  -1   5    1.57    0.63
   8   1  -5    0.46    0.28
   8   1  -5    1.47    0.98
  -8  -1   5    0.96    0.49
  -8  -1   5    1.33    1.10
   7   1  -5   89.32    4.13
   7   1  -5   81.77    4.50
   7   1  -5   91.55    5.05
  -7  -1   5   86.27    4.58
  -7  -1   5   91.84    4.19
   6   1  -5  124.34    5.17
   6   1  -5  116.83    5.49
   6   1  -5  118.32    5.15
   6   1  -5  121.56    4.95
  -6  -1   5  126.12    5.36
  -6  -1   5  129.35    5.76
   5   1  -5    1.32    0.41
   5   1  -5    2.07    0.74
   5   1  -5    0.90    0.43
  -5  -1   5    1.14    0.48
  -5  -1   5    0.64    0.69
   4   1  -5   22.81    1.29
   4   1  -5   20.27    1.91
   4   1  -5   28.38    1.71
   4   1  -5   21.17    1.46
  -4  -1   5   20.55    1.71
   3   1  -5  166.43    5.93
   3   1  -5  146.60    6.64
   3   1  -5  167.80    6.10
   3   1  -5  163.57    6.21
  -3  -1   5  170.72    6.69
  -3  -1   5  167.07    6.68
   2   1  -5   72.22    3.49
   2   1  -5   67.32    2.70
   2   1  -5   68.03    2.85
  -2  -1   5   70.70    3.41
   1   1  -5    2.30    0.34
   1   1  -5    2.19    0.69
   1   1  -5    2.19    0.44
  -1  -1   5    2.04    0.60
  -1  -1   5    3.62    0.79
  -1  -1   5    2.21    0.34
   0   1  -5  126.85    5.10
   0   1  -5  134.34    5.50
   0   1  -5  130.48    4.70
   0  -1   5  127.09    4.67
   0  -1   5  138.51    5.18
   0  -1   5  134.35    5.48
  -1   1  -5   10.17    0.66
  -1   1  -5    8.68    1.12
  -1   1  -5    8.90    0.58
   1  -1   5    9.41    0.59
   1  -1   5    9.41    1.02
   1  -1   5    7.91    0.71
  -2   1  -5    5.86    0.57
  -2   1  -5    5.94    0.49
  -2   1  -5    7.47    1.04
  -2   1  -5    6.45    0.50
   2  -1   5    6.84    0.97
   2  -1   5    7.26    0.62
   2  -1   5    6.46    0.50
  -3   1  -5    0.79    0.22
  -3   1  -5    0.85    0.41
  -3   1  -5    0.33    0.21
   3  -1   5    1.05    0.31
   3  -1   5    0.32    0.41
   3  -1   5    0.82    0.25
  -4   1  -5   98.32    4.19
  -4   1  -5   98.82    4.07
  -4   1  -5   98.96    3.89
   4  -1   5   96.79    3.81
   4  -1   5  105.06    4.28
   4  -1   5   98.71    3.86
  -5   1  -5    0.40    0.47
  -5   1  -5    0.05    0.07
  -5   1  -5   -0.02    0.26
  -5   1  -5    0.07    0.09
   5  -1   5    0.06    0.08
   5  -1   5   -0.09    0.27
   5  -1   5    0.06    0.36
  -6   1  -5  112.82    4.36
  -6   1  -5  109.82    4.47
  -6   1  -5  107.14    4.45
   6  -1   5  113.59    4.49
   6  -1   5  110.50    4.26
  -7   1  -5  213.83    8.09
   7  -1   5  215.13    8.02
   7  -1   5  217.45    7.80
   7  -1   5  210.20    7.72
  -8   1  -5   12.84    1.00
  -8   1  -5   11.43    1.20
  -8   1  -5   11.84    0.96
  -8   1  -5   12.13    0.88
   8  -1   5   11.48    0.87
   8  -1   5   12.44    0.93
  -9   1  -5    0.37    0.22
  -9   1  -5    0.47    0.26
  -9   1  -5   -0.25    0.57
   9  -1   5    0.59    0.30
   9  -1   5    0.15    0.13
   9  -1   5    0.51    0.31
 -10   1  -5   95.87    4.15
 -10   1  -5   95.62    4.22
 -10   1  -5   95.87    4.62
 -11   1  -5   55.89    2.90
 -11   1  -5   54.42    2.80
 -11   1  -5   56.21    3.39
 -12   1  -5    0.75    1.18
 -12   1  -5    0.46    0.31
 -12   1  -5    0.61    0.31
 -13   1  -5    1.32    0.47
 -14   1  -5    1.33    0.46
 -15   1  -5   -0.06    0.09
 -11   0   5   18.65    2.48
  10   0  -5   43.80    3.11
 -10   0   5   45.36    3.26
   9   0  -5    0.52    1.08
  -9   0   5   -1.03    1.42
  -9   0   5    0.79    0.47
   8   0  -5    7.92    1.22
  -8   0   5    6.14    1.16
  -8   0   5    7.19    2.10
   7   0  -5   67.47    3.73
   7   0  -5   76.99    3.39
   7   0  -5   74.67    3.58
  -7   0   5   74.02    3.57
  -7   0   5   70.22    3.98
   6   0  -5   63.80    3.11
   6   0  -5   69.36    2.99
   6   0  -5   62.20    3.49
  -6   0   5   64.50    3.31
  -6   0   5   67.98    3.66
   5   0  -5   -0.03    0.05
   5   0  -5    0.26    0.38
   5   0  -5    0.39    0.59
   5   0  -5   -0.33    0.90
  -5   0   5    0.04    0.61
  -5   0   5   -0.02    0.06
   4   0  -5   33.77    2.21
   4   0  -5   31.56    1.71
   4   0  -5   30.40    1.76
   4   0  -5   30.38    1.54
  -4   0   5   33.74    2.12
  -4   0   5   32.47    2.08
   3   0  -5   24.77    1.40
   3   0  -5   23.67    1.15
   3   0  -5   21.86    1.27
   3   0  -5   19.77    1.70
  -3   0   5   22.46    1.65
  -3   0   5   24.03    1.63
   2   0  -5    0.80    0.27
   2   0  -5    0.30    0.27
   2   0  -5    0.64    0.57
   2   0  -5    0.47    0.19
  -2   0   5    0.66    0.44
  -2   0   5    0.75    0.30
   1   0  -5    0.39    0.18
   1   0  -5    0.42    0.55
   1   0  -5    0.45    0.22
   1   0  -5    0.34    0.14
   1   0  -5    0.27    0.22
  -1   0   5    0.33    0.20
  -1   0   5    0.16    0.38
   0   0  -5   78.86    3.11
   0   0  -5   77.49    2.86
   0   0  -5   79.01    3.65
   0   0   5   81.23    3.35
   0   0   5   82.65    3.67
   0   0   5   79.67    2.85
  -1   0  -5    0.70    0.17
  -1   0  -5    0.92    0.18
  -1   0  -5    0.87    0.28
  -1   0  -5    1.33    0.53
   1   0   5    0.58    0.15
   1   0   5    1.50    0.52
   1   0   5    0.91    0.25
  -2   0  -5   37.30    2.07
  -2   0  -5   38.37    1.84
  -2   0  -5   36.47    1.54
  -2   0  -5   37.05    1.56
   2   0   5   34.15    1.68
   2   0   5   41.01    2.39
   2   0   5   37.25    1.50
  -3   0  -5  301.07   10.14
  -3   0  -5  285.16   10.63
   3   0   5  297.92   10.08
   3   0   5  288.18   10.64
  -4   0  -5   42.27    1.74
  -4   0  -5   44.43    1.94
  -4   0  -5   43.40    1.89
  -4   0  -5   43.83    2.20
   4   0   5   40.97    1.88
   4   0   5   44.25    2.24
  -5   0  -5    0.73    0.33
  -5   0  -5    1.03    0.46
  -5   0  -5    0.78    0.20
  -5   0  -5    0.58    0.19
   5   0   5    1.10    0.43
   5   0   5    0.64    0.19
   5   0   5    0.54    0.32
  -6   0  -5  147.18    5.63
  -6   0  -5  135.89    5.13
  -6   0  -5  139.38    5.41
   6   0   5  134.83    5.34
   6   0   5  138.46    5.06
   6   0   5  134.99    5.33
  -7   0  -5  197.47    6.92
  -7   0  -5  189.83    6.89
  -7   0  -5  180.89    7.18
   7   0   5  189.05    6.93
   7   0   5  184.14    7.21
  -8   0  -5    4.92    0.70
  -8   0  -5    3.69    0.76
  -8   0  -5    5.07    0.67
   8   0   5    4.47    0.60
   8   0   5    5.25    0.60
  -9   0  -5    0.94    0.30
  -9   0  -5    0.34    0.19
  -9   0  -5    0.06    0.64
   9   0   5    0.19    0.24
 -10   0  -5    5.33    0.78
 -10   0  -5    6.10    1.13
 -10   0  -5    5.87    0.85
 -11   0  -5    0.27    0.86
 -11   0  -5    0.26    0.21
 -11   0  -5    0.36    0.24
 -12   0  -5   12.26    1.13
 -12   0  -5   13.89    2.08
 -12   0  -5   12.01    1.12
 -13   0  -5    2.17    0.64
 -13   0  -5    1.00    0.36
 -14   0  -5    4.93    1.05
 -15   0  -5    4.97    0.94
 -11   1   5   24.44    3.60
  10  -1  -5   36.15    2.94
 -10   1   5   34.79    2.80
   9  -1  -5   -0.03    0.09
   9  -1  -5   -0.65    1.00
  -9   1   5    0.26    0.33
  -9   1   5   -0.30    1.19
   8  -1  -5    2.33    0.90
   8  -1  -5    1.53    0.52
  -8   1   5    0.70    0.92
  -8   1   5    1.04    0.52
  -8   1   5    1.96    1.01
   7  -1  -5    5.39    1.17
   7  -1  -5    5.22    0.92
   7  -1  -5    4.95    1.21
  -7   1   5    4.12    0.98
  -7   1   5    4.67    1.01
  -7   1   5    4.53    1.02
   6  -1  -5    1.03    0.93
   6  -1  -5    0.40    0.67
   6  -1  -5   -0.03    0.05
   6  -1  -5    0.19    0.44
  -6   1   5   -0.02    0.09
  -6   1   5   -0.01    0.69
   5  -1  -5    8.15    1.05
   5  -1  -5    8.29    0.91
   5  -1  -5    6.69    0.79
   5  -1  -5    6.14    1.19
  -5   1   5    6.82    1.04
  -5   1   5    9.63    1.28
   4  -1  -5   40.52    1.82
   4  -1  -5   41.64    1.92
   4  -1  -5   39.00    2.39
   4  -1  -5   40.55    2.11
  -4   1   5   42.40    2.38
  -4   1   5   37.90    2.34
   3  -1  -5   16.09    1.19
   3  -1  -5   11.03    0.71
   3  -1  -5   11.37    0.81
   3  -1  -5   12.35    1.28
  -3   1   5   11.90    1.19
  -3   1   5   18.14    1.52
   2  -1  -5    1.17    0.40
   2  -1  -5    0.69    0.23
   2  -1  -5    0.53    0.16
  -2   1   5    0.56    0.45
  -2   1   5    1.30    0.52
   1  -1  -5  156.05    5.35
   1  -1  -5  149.38    6.18
   1  -1  -5  159.02    5.30
  -1   1   5  149.05    6.17
  -1   1   5  164.10    6.25
   0  -1  -5   34.80    1.30
   0  -1  -5   35.68    1.61
   0  -1  -5   36.66    1.75
   0  -1  -5   37.72    2.08
   0   1   5   38.52    2.11
   0   1   5   35.40    1.78
  -1  -1  -5    0.31    0.11
  -1  -1  -5    0.28    0.11
  -1  -1  -5   -0.11    0.34
   1   1   5    0.80    0.25
   1   1   5    0.66    0.12
   1   1   5   -0.05    0.36
  -2  -1  -5   49.25    2.07
  -2  -1  -5   50.31    2.49
  -2  -1  -5   48.31    1.88
   2   1   5   51.97    1.86
   2   1   5   48.57    2.47
   2   1   5   46.33    2.03
  -3  -1  -5  357.69   11.91
  -3  -1  -5  333.97   12.36
   3   1   5  350.89   11.83
   3   1   5  347.51   12.46
  -4  -1  -5    9.36    0.69
  -4  -1  -5    8.49    0.56
  -4  -1  -5    9.92    0.51
  -4  -1  -5    8.07    0.83
   4   1   5    9.18    0.70
   4   1   5    8.86    0.90
   4   1   5    9.54    0.57
  -5  -1  -5   27.18    1.50
  -5  -1  -5   28.26    1.57
  -5  -1  -5   27.50    1.24
   5   1   5   26.40    1.47
   5   1   5   27.44    1.64
  -6  -1  -5    0.36    0.30
  -6  -1  -5    0.49    0.15
  -6  -1  -5    0.81    0.22
   6   1   5    0.04    0.34
   6   1   5    0.29    0.40
   6   1   5    0.45    0.39
  -7  -1  -5    2.30    0.40
  -7  -1  -5    1.24    0.47
  -7  -1  -5    1.38    0.30
   7   1   5    2.09    0.46
   7   1   5    1.53    0.49
  -8  -1  -5   39.60    1.89
  -8  -1  -5   42.69    2.36
  -8  -1  -5   40.05    1.84
   8   1   5   39.59    1.77
   8   1   5   40.93    1.91
   8   1   5   42.23    3.27
  -9  -1  -5    1.22    0.32
  -9  -1  -5    1.45    0.63
  -9  -1  -5    1.42    0.34
   9   1   5    1.18    0.33
   9   1   5    1.21    0.34
 -10  -1  -5    1.26    0.36
 -10  -1  -5    0.81    0.28
 -10  -1  -5    0.69    0.86
 -11  -1  -5   30.09    1.73
 -11  -1  -5   28.07    1.69
 -11  -1  -5   26.45    2.37
 -12  -1  -5    1.01    0.37
 -12  -1  -5    0.97    0.38
 -12  -1  -5    0.02    1.24
 -13  -1  -5    0.49    0.29
 -13  -1  -5    0.38    0.27
 -14  -1  -5   11.95    1.62
 -15  -1  -5   14.75    1.35
 -12   2   5    0.42    0.44
 -11   2   5    0.67    0.57
  10  -2  -5   -0.03    1.33
 -10   2   5    1.32    0.71
   9  -2  -5    1.87    1.05
   9  -2  -5    2.56    0.66
  -9   2   5    2.92    0.87
   8  -2  -5    3.19    0.73
  -8   2   5    1.51    1.00
  -8   2   5    2.08    0.69
  -8   2   5    3.48    1.03
   7  -2  -5   11.31    1.11
   7  -2  -5   11.91    1.23
   7  -2  -5   11.30    1.32
  -7   2   5   11.39    1.60
  -7   2   5   10.53    1.33
  -7   2   5   12.07    1.35
   6  -2  -5    1.25    0.49
   6  -2  -5    1.22    0.44
   6  -2  -5    0.38    0.65
  -6   2   5    2.51    0.75
  -6   2   5    2.46    0.67
  -6   2   5    2.74    0.81
   5  -2  -5   34.04    1.76
   5  -2  -5   33.62    1.67
   5  -2  -5   29.05    2.15
  -5   2   5   30.71    2.36
  -5   2   5   36.49    2.16
   4  -2  -5   32.02    1.51
   4  -2  -5   29.29    1.69
   4  -2  -5   26.91    1.38
   4  -2  -5   29.04    1.94
  -4   2   5   28.99    1.91
  -4   2   5   28.49    1.90
   3  -2  -5    1.39    0.29
   3  -2  -5    0.32    0.16
   3  -2  -5    0.60    0.58
   3  -2  -5    0.61    0.21
  -3   2   5    1.68    0.60
  -3   2   5    0.38    0.22
   2  -2  -5    2.22    0.24
   2  -2  -5    2.90    0.60
   2  -2  -5    1.85    0.34
   2  -2  -5    1.48    0.61
   2  -2  -5    1.66    0.25
  -2   2   5    2.07    0.56
  -2   2   5    4.41    0.94
   1  -2  -5  202.21    7.43
   1  -2  -5  194.12    7.74
  -1   2   5  215.90    7.87
   0  -2  -5    6.86    0.96
   0  -2  -5    2.52    0.40
   0   2   5    2.93    0.65
   0   2   5    2.68    0.51
  -1  -2  -5   66.56    2.62
  -1  -2  -5   65.25    3.03
   1   2   5   63.75    3.37
   1   2   5   64.27    2.64
  -2  -2  -5   27.05    1.12
  -2  -2  -5   27.75    1.14
  -2  -2  -5   24.99    1.60
   2   2   5   27.15    1.10
   2   2   5   26.79    1.70
   2   2   5   26.89    1.23
  -3  -2  -5    4.21    0.73
  -3  -2  -5    3.76    0.31
  -3  -2  -5    3.13    0.23
  -3  -2  -5    3.79    0.45
   3   2   5    3.61    0.43
   3   2   5    4.86    0.79
  -4  -2  -5  114.16    4.44
  -4  -2  -5  119.50    4.70
   4   2   5  123.00    4.58
   4   2   5  114.41    4.60
   4   2   5  118.36    4.85
  -5  -2  -5   33.71    1.75
  -5  -2  -5   33.73    1.28
  -5  -2  -5   34.01    1.33
   5   2   5   33.13    1.90
   5   2   5   33.60    1.73
   5   2   5   32.38    1.66
  -6  -2  -5    0.24    0.35
  -6  -2  -5    0.12    0.07
   6   2   5    0.14    0.37
   6   2   5    1.14    0.48
   6   2   5    0.58    0.32
  -7  -2  -5   67.41    2.60
  -7  -2  -5   62.27    3.13
  -7  -2  -5   69.09    2.63
   7   2   5   68.53    2.96
   7   2   5   65.49    3.48
   7   2   5   72.96    3.07
  -8  -2  -5   -0.36    0.46
  -8  -2  -5    0.36    0.17
  -8  -2  -5    0.41    0.16
   8   2   5    0.13    0.38
   8   2   5    0.68    0.45
  -9  -2  -5    1.85    0.37
  -9  -2  -5    0.92    0.68
  -9  -2  -5    1.48    0.34
   9   2   5    1.14    0.41
   9   2   5    1.56    0.50
 -10  -2  -5   16.09    1.75
 -10  -2  -5   14.60    1.02
 -11  -2  -5   38.29    2.86
 -11  -2  -5   40.03    2.06
 -11  -2  -5   39.87    2.04
 -12  -2  -5    1.23    0.40
 -12  -2  -5    0.71    0.30
 -12  -2  -5    0.81    1.29
 -13  -2  -5    0.52    0.27
 -14  -2  -5    1.13    0.40
 -14  -2  -5    1.70    0.51
 -15  -2  -5    0.22    0.19
 -12   3   5   -0.07    0.17
 -11   3   5    3.80    1.09
  10  -3  -5    2.53    1.33
 -10   3   5    0.44    0.40
   9  -3  -5    4.78    0.96
   9  -3  -5    3.65    1.13
  -9   3   5    4.40    1.12
   8  -3  -5    6.46    1.09
   8  -3  -5    8.44    1.18
  -8   3   5    7.68    1.36
  -8   3   5    7.27    1.18
  -8   3   5    8.28    1.24
   7  -3  -5    0.27    0.88
   7  -3  -5    0.12    0.16
   7  -3  -5    0.54    0.58
  -7   3   5    0.27    0.28
  -7   3   5    0.39    0.75
  -7   3   5    0.58    0.77
   6  -3  -5    3.95    0.75
   6  -3  -5    5.29    0.91
  -6   3   5    3.57    0.82
  -6   3   5    3.17    0.80
  -6   3   5    4.47    0.89
  -6   3   5    3.11    0.85
   5  -3  -5   47.00    2.47
   5  -3  -5   44.76    2.15
  -5   3   5   45.43    2.32
  -5   3   5   53.99    2.75
  -5   3   5   48.71    2.78
  -5   3   5   45.21    2.39
   4  -3  -5    7.03    0.74
  -4   3   5    6.75    0.78
  -4   3   5   10.05    1.56
  -4   3   5    5.81    0.97
  -4   3   5    5.46    0.87
   3  -3  -5   71.60    2.65
   3  -3  -5   68.69    3.06
  -3   3   5   73.08    3.16
  -3   3   5   66.73    3.32
  -3   3   5   69.88    2.77
  -3   3   5   69.24    3.32
   2  -3  -5    7.14    0.68
   2  -3  -5    6.67    1.04
   2  -3  -5    6.69    0.63
   2  -3  -5    7.57    0.42
  -2   3   5    7.47    0.51
  -2   3   5    7.92    1.08
  -2   3   5    9.69    1.19
  -2   3   5    7.54    0.80
   1  -3  -5    3.50    0.47
   1  -3  -5    4.33    0.85
   1  -3  -5    3.90    0.53
  -1   3   5    3.74    0.66
  -1   3   5    4.28    0.67
  -1   3   5    4.72    0.84
   0  -3  -5   63.90    2.68
   0  -3  -5   69.37    2.62
   0  -3  -5   60.51    3.01
   0   3   5   63.01    2.89
   0   3   5   66.52    2.78
   0   3   5   68.50    3.19
  -1  -3  -5  105.60    3.85
   1   3   5   98.76    3.51
   1   3   5  105.87    4.19
   1   3   5  103.22    4.01
   1   3   5  105.15    4.48
  -2  -3  -5    3.17    0.25
  -2  -3  -5    3.20    0.29
   2   3   5    3.03    0.29
   2   3   5    3.83    0.88
   2   3   5    3.07    0.57
   2   3   5    2.64    0.26
   2   3   5    3.67    0.36
  -3  -3  -5   69.42    2.76
   3   3   5   69.67    3.01
   3   3   5   68.13    2.76
   3   3   5   72.43    2.67
  -4  -3  -5    5.27    0.58
   4   3   5    4.92    0.69
   4   3   5    5.29    0.66
   4   3   5    4.97    0.85
  -5  -3  -5    0.29    0.33
   5   3   5    0.60    0.36
   5   3   5   -0.40    0.37
   5   3   5    0.51    0.43
  -6  -3  -5    2.88    0.64
   6   3   5    2.05    0.59
   6   3   5    3.28    0.57
   6   3   5    2.42    0.64
  -7  -3  -5  149.86    6.17
   7   3   5  160.02    6.20
   7   3   5  151.71    6.05
   7   3   5  157.02    5.80
  -8  -3  -5    0.75    0.20
  -8  -3  -5    1.26    0.70
   8   3   5    1.41    0.49
   8   3   5    0.38    0.56
  -9  -3  -5    5.69    0.49
  -9  -3  -5    5.54    0.50
  -9  -3  -5    7.01    1.27
   9   3   5    6.04    0.83
   9   3   5    6.19    0.73
 -10  -3  -5    7.30    1.38
 -10  -3  -5    6.84    0.59
 -10  -3  -5    6.54    0.83
  10   3   5    6.57    0.67
  10   3   5    5.50    0.62
 -11  -3  -5    4.15    1.30
 -11  -3  -5    1.76    0.42
 -11  -3  -5    2.65    0.47
 -12  -3  -5    1.90    0.46
 -12  -3  -5    1.20    0.35
 -12  -3  -5    2.35    1.42
  12   3   5    4.24    1.10
 -13  -3  -5    3.14    0.59
 -13  -3  -5    2.63    0.53
 -14  -3  -5    5.55    0.81
 -14  -3  -5    4.90    0.82
 -15  -3  -5    8.40    0.86
 -15  -3  -5   10.22    0.94
 -11   4   5    0.04    0.17
  10  -4  -5    1.26    1.41
  10  -4  -5    1.57    0.58
 -10   4   5    1.62    0.68
   9  -4  -5    4.87    1.00
   9  -4  -5    3.37    1.08
  -9   4   5    3.87    1.02
   8  -4  -5    5.25    0.94
  -8   4   5    5.89    1.30
  -8   4   5    5.79    1.16
  -8   4   5    4.09    1.08
  -8   4   5    4.94    1.03
   7  -4  -5   20.29    1.58
   7  -4  -5   22.01    1.74
  -7   4   5   19.52    1.77
  -7   4   5   25.68    1.89
  -7   4   5   23.66    1.73
  -7   4   5   18.97    1.77
   6  -4  -5    6.97    0.93
   6  -4  -5    5.98    0.91
  -6   4   5    6.57    1.00
  -6   4   5    7.08    1.05
  -6   4   5    5.31    1.03
  -6   4   5    7.10    1.14
   5  -4  -5    7.94    0.85
   5  -4  -5   11.81    1.53
  -5   4   5    6.52    1.06
  -5   4   5   11.26    1.73
  -5   4   5    6.50    1.00
  -5   4   5    5.68    0.83
   4  -4  -5    8.43    0.84
   4  -4  -5   10.63    0.79
  -4   4   5   12.91    1.29
  -4   4   5    8.32    1.14
  -4   4   5   11.44    1.15
  -4   4   5   10.79    0.87
   3  -4  -5  120.77    4.21
   3  -4  -5  117.12    4.70
  -3   4   5  117.33    4.33
  -3   4   5  120.67    4.81
  -3   4   5  117.20    4.98
  -3   4   5  108.82    4.99
   2  -4  -5    0.22    0.15
  -2   4   5   -0.15    0.19
  -2   4   5    0.22    0.15
  -2   4   5   -0.36    0.38
  -2   4   5   -0.52    0.40
   1  -4  -5    6.02    0.82
   1  -4  -5    4.96    0.29
  -1   4   5    4.69    0.67
  -1   4   5    6.80    1.05
  -1   4   5    5.59    0.79
  -1   4   5    5.50    0.35
   0  -4  -5   23.84    0.93
   0  -4  -5   24.87    1.23
   0  -4  -5   24.28    1.26
   0   4   5   23.85    1.70
   0   4   5   25.30    1.54
   0   4   5   24.91    1.36
   0   4   5   25.46    0.96
  -1  -4  -5    2.40    0.38
  -1  -4  -5    2.04    0.32
   1   4   5    2.01    0.28
   1   4   5    1.99    0.36
   1   4   5    1.92    0.64
   1   4   5    1.65    0.53
   1   4   5    2.17    0.22
  -2  -4  -5    1.82    0.19
  -2  -4  -5    2.12    0.27
   2   4   5    2.26    0.51
   2   4   5    2.58    0.40
   2   4   5    2.35    0.28
   2   4   5    2.05    0.59
   3   4   5  106.54    4.53
   3   4   5  100.88    3.91
   3   4   5  100.46    4.16
   3   4   5  100.87    3.75
   4   4   5   37.66    1.97
   4   4   5   37.47    1.87
   4   4   5   37.59    2.22
   4   4   5   37.14    1.71
   5   4   5   17.38    1.29
   5   4   5   18.70    1.28
   5   4   5   18.66    1.15
   5   4   5   17.92    1.48
   6   4   5    6.46    1.04
   6   4   5    8.65    1.11
   6   4   5    7.40    0.80
   6   4   5    8.37    0.93
  -7  -4  -5    0.40    0.53
   7   4   5    0.67    0.43
   7   4   5   -0.19    0.53
   7   4   5    0.94    0.71
   7   4   5    0.56    0.48
  -8  -4  -5    4.36    0.95
   8   4   5    4.27    0.86
   8   4   5    3.79    0.76
   8   4   5    2.98    0.75
  -9  -4  -5    0.26    0.12
   9   4   5    0.52    0.57
   9   4   5   -0.46    0.61
   9   4   5    1.04    0.76
 -10  -4  -5   18.91    1.02
  10   4   5   19.02    1.75
  10   4   5   21.17    1.51
  10   4   5   18.52    1.45
 -11  -4  -5   20.38    1.13
 -11  -4  -5   20.23    1.17
  11   4   5   17.97    1.78
 -12  -4  -5   18.13    1.14
 -12  -4  -5   19.60    1.20
  12   4   5   19.59    2.08
 -13  -4  -5    3.82    0.61
 -13  -4  -5    4.15    0.59
 -14  -4  -5    0.55    0.24
 -14  -4  -5    0.85    0.30
 -11   5   5    4.88    1.18
  10  -5  -5    3.39    0.84
  10  -5  -5    4.92    1.55
 -10   5   5    1.88    0.74
 -10   5   5    2.07    1.85
   9  -5  -5    0.71    0.42
  -9   5   5    0.43    0.42
  -9   5   5   -0.03    1.28
   8  -5  -5    0.57    0.34
  -8   5   5    1.44    1.18
  -8   5   5    0.28    0.30
  -8   5   5   -0.54    1.02
  -8   5   5    0.05    1.22
   7  -5  -5   29.55    2.01
   7  -5  -5   31.46    2.07
  -7   5   5   32.53    2.38
  -7   5   5   31.42    2.18
  -7   5   5   33.27    2.15
  -7   5   5   35.41    2.35
   6  -5  -5    0.87    0.40
   6  -5  -5    0.73    0.63
  -6   5   5    0.31    0.26
  -6   5   5    0.17    0.57
  -6   5   5    1.20    0.82
  -6   5   5    1.01    0.77
   5  -5  -5    0.52    0.23
   5  -5  -5    0.16    0.44
  -5   5   5    0.28    0.72
  -5   5   5    0.81    0.36
  -5   5   5    0.74    0.48
  -5   5   5    0.87    0.75
   4  -5  -5    9.00    0.75
   4  -5  -5    9.26    0.89
  -4   5   5    8.77    1.14
  -4   5   5    9.06    1.21
  -4   5   5    8.91    0.83
  -4   5   5   12.40    1.35
   3  -5  -5    0.03    0.24
   3  -5  -5    0.05    0.09
   3  -5  -5    0.11    0.13
  -3   5   5   -0.03    0.06
  -3   5   5    0.05    0.26
  -3   5   5   -0.35    0.49
  -3   5   5    0.09    0.56
   2  -5  -5   22.64    1.38
   2  -5  -5   23.64    1.39
   2  -5  -5   22.49    1.06
  -2   5   5   24.06    1.56
  -2   5   5   25.01    1.83
  -2   5   5   25.88    1.15
  -2   5   5   23.47    1.62
   1  -5  -5   43.31    2.01
   1  -5  -5   42.05    1.64
  -1   5   5   40.34    2.13
  -1   5   5   44.89    2.54
  -1   5   5   39.75    2.21
  -1   5   5   45.78    1.71
   0  -5  -5   66.53    2.65
   0  -5  -5   62.13    2.37
   0  -5  -5   63.04    2.64
   0   5   5   64.55    2.81
   0   5   5   62.48    2.99
   0   5   5   70.04    2.42
   0   5   5   63.91    3.28
  -1  -5  -5    6.55    0.48
  -1  -5  -5    7.77    0.53
  -1  -5  -5    7.17    0.50
   1   5   5    6.73    1.07
   1   5   5    5.78    0.83
   1   5   5    6.71    0.57
   1   5   5    7.49    0.47
  -2  -5  -5    2.00    0.26
   2   5   5    2.00    0.29
   2   5   5    2.70    0.78
   2   5   5    1.81    0.59
   2   5   5    2.48    0.46
  -3  -5  -5    0.92    0.39
   3   5   5    0.47    0.38
   3   5   5    0.63    0.20
   3   5   5    0.37    0.36
   3   5   5    0.05    0.44
  -4  -5  -5    4.53    0.72
   4   5   5    4.84    0.60
   4   5   5    7.70    0.83
   4   5   5    4.21    0.77
   4   5   5    3.84    0.89
  -5  -5  -5   32.24    1.86
   5   5   5   32.71    1.90
   5   5   5   32.43    1.90
   5   5   5   32.69    1.69
   5   5   5   32.53    2.18
   6   5   5   19.68    1.79
   6   5   5   16.80    1.21
   6   5   5   17.07    1.34
   6   5   5   15.57    1.52
   7   5   5   22.99    1.81
   7   5   5   18.48    1.46
   7   5   5   20.00    1.43
   7   5   5   23.20    2.08
   8   5   5   59.31    2.90
   8   5   5   60.48    3.14
   8   5   5   56.63    2.98
   9   5   5    4.30    0.99
   9   5   5    2.72    0.96
   9   5   5    5.45    0.97
  10   5   5    0.70    0.75
  10   5   5    1.09    0.93
  10   5   5    1.41    0.90
  11   5   5   91.56    3.91
  11   5   5   92.81    4.57
 -11   6   5    8.47    1.67
  10  -6  -5    1.53    0.58
 -10   6   5    0.92    0.51
 -10   6   5   -1.34    1.82
   9  -6  -5    1.37    0.52
  -9   6   5    1.80    1.46
   8  -6  -5    7.92    1.26
  -8   6   5    6.03    1.24
  -8   6   5    5.15    1.25
  -8   6   5    4.47    1.36
   7  -6  -5    0.36    0.26
   7  -6  -5   -0.81    0.89
  -7   6   5   -0.63    0.76
  -7   6   5    1.07    1.06
  -7   6   5    0.40    0.32
  -7   6   5   -0.48    1.04
   6  -6  -5    9.64    1.22
   6  -6  -5   11.76    1.13
  -6   6   5   11.03    1.21
  -6   6   5    8.62    1.35
  -6   6   5   10.72    1.40
  -6   6   5   20.41    2.93
   5  -6  -5    0.92    0.35
   5  -6  -5    0.69    0.53
  -5   6   5    1.40    0.56
  -5   6   5    1.17    0.81
  -5   6   5    2.06    0.63
  -5   6   5    0.05    0.76
   4  -6  -5   38.45    1.81
   4  -6  -5   39.23    2.15
  -4   6   5   38.50    1.89
  -4   6   5   38.73    2.32
  -4   6   5   40.44    2.52
  -4   6   5   35.56    2.29
   3  -6  -5    3.93    0.51
   3  -6  -5    4.19    0.76
   3  -6  -5    3.01    0.53
  -3   6   5    4.19    0.90
  -3   6   5    3.84    0.80
  -3   6   5    3.70    0.53
   2  -6  -5    1.26    0.38
   2  -6  -5    2.80    0.39
   2  -6  -5    2.84    0.56
  -2   6   5    1.67    0.46
  -2   6   5    2.15    0.37
  -2   6   5    2.28    0.75
  -2   6   5    0.64    0.67
   1  -6  -5    6.20    0.49
   1  -6  -5    5.96    0.60
   1  -6  -5    5.78    0.57
  -1   6   5    7.31    1.02
  -1   6   5    5.03    0.98
  -1   6   5    5.14    0.87
  -1   6   5    4.94    0.50
   0  -6  -5   -0.09    0.35
   0  -6  -5    0.15    0.20
   0  -6  -5    0.61    0.23
   0  -6  -5    0.48    0.18
   0   6   5    0.18    0.17
   0   6   5    0.48    0.46
   0   6   5   -0.55    0.46
   0   6   5    0.37    0.22
  -1  -6  -5   74.87    2.79
  -1  -6  -5   73.28    2.94
  -1  -6  -5   74.55    3.41
  -1  -6  -5   72.93    2.90
   1   6   5   71.66    2.77
   1   6   5   70.94    3.40
   1   6   5   70.36    2.97
  -2  -6  -5    0.39    0.39
  -2  -6  -5    0.71    0.18
  -2  -6  -5    0.47    0.13
  -2  -6  -5    0.17    0.25
   2   6   5    0.89    0.24
   2   6   5    0.35    0.47
  -3  -6  -5   14.32    1.22
  -3  -6  -5   15.06    0.69
  -3  -6  -5   14.30    0.64
   3   6   5   14.69    1.28
   3   6   5   15.49    1.17
   3   6   5   14.65    0.90
  -4  -6  -5   92.59    4.14
   4   6   5   97.25    4.20
   4   6   5   96.15    4.01
   4   6   5   92.79    3.73
  -5  -6  -5   14.70    1.24
   5   6   5   14.39    1.33
   5   6   5   14.90    1.33
   5   6   5   13.98    1.04
  -6  -6  -5    0.93    0.53
   6   6   5    1.29    0.65
   6   6   5    0.14    0.40
   6   6   5   -0.02    0.68
  -7  -6  -5  187.11    7.24
   7   6   5  189.68    7.37
   7   6   5  185.94    7.24
   8   6   5  224.37    8.67
   8   6   5  236.46    9.09
   8   6   5  222.85    8.72
   9   6   5   10.46    1.37
   9   6   5    8.42    1.38
   9   6   5    9.57    1.33
  10   6   5    3.01    0.99
  10   6   5    0.95    1.18
  10   6   5    0.42    1.15
  11   6   5   11.09    1.56
  11   6   5    8.69    1.54
 -11   7   5    1.63    0.82
  10  -7  -5    3.43    0.93
 -10   7   5    3.02    0.91
   9  -7  -5    6.09    1.16
  -9   7   5    2.56    1.53
   8  -7  -5    8.07    1.30
  -8   7   5    9.86    1.49
  -8   7   5    5.40    1.19
  -8   7   5    9.37    1.67
   7  -7  -5    0.27    0.21
  -7   7   5    0.07    0.16
  -7   7   5    0.68    0.83
  -7   7   5    2.20    2.17
  -7   7   5    0.33    1.20
   6  -7  -5    0.87    0.73
   6  -7  -5    0.04    0.23
  -6   7   5    0.53    1.00
  -6   7   5   -0.06    1.22
  -6   7   5    0.29    0.66
   5  -7  -5    4.75    0.77
   5  -7  -5    4.19    0.76
  -5   7   5    5.16    1.26
  -5   7   5    5.63    1.16
  -5   7   5    5.64    1.04
  -5   7   5    3.78    0.75
   4  -7  -5    0.77    0.44
   4  -7  -5    1.09    0.43
  -4   7   5    1.11    0.50
  -4   7   5    0.74    0.87
  -4   7   5    0.84    0.45
  -4   7   5    1.69    0.85
   3  -7  -5   52.20    2.59
   3  -7  -5   54.74    2.31
   3  -7  -5   51.15    2.67
  -3   7   5   57.34    2.42
  -3   7   5   59.22    3.26
  -3   7   5   54.00    2.93
  -3   7   5   52.97    2.87
   2  -7  -5   15.81    0.98
   2  -7  -5   16.64    1.12
   2  -7  -5   15.95    1.18
  -2   7   5   17.52    1.75
  -2   7   5   17.78    1.18
  -2   7   5   14.64    1.47
  -2   7   5   17.99    1.33
   1  -7  -5    5.95    0.94
   1  -7  -5    8.00    0.99
   1  -7  -5    5.58    0.55
   1  -7  -5    5.57    0.56
  -1   7   5    5.46    0.58
  -1   7   5    4.33    0.94
  -1   7   5    7.86    1.07
  -1   7   5    5.41    1.09
   0  -7  -5   97.36    3.76
   0  -7  -5   97.20    4.41
   0  -7  -5  100.68    4.03
   0  -7  -5   99.35    3.86
   0   7   5  104.00    4.56
   0   7   5  109.98    3.83
   0   7   5   94.57    4.18
  -1  -7  -5    8.67    0.68
  -1  -7  -5    9.02    0.73
  -1  -7  -5    8.63    1.14
  -1  -7  -5    8.05    0.58
   1   7   5   11.20    0.85
   1   7   5    8.43    1.22
  -2  -7  -5    5.52    0.65
  -2  -7  -5    5.18    0.44
  -2  -7  -5    5.00    0.88
  -2  -7  -5    4.27    0.35
   2   7   5    5.06    0.99
   2   7   5    3.23    0.49
  -3  -7  -5  164.39    6.58
   3   7   5  156.29    5.93
   3   7   5  163.99    6.59
   3   7   5  162.44    6.26
  -4  -7  -5  411.02   14.96
   4   7   5  418.74   14.74
   4   7   5  402.34   14.94
   4   7   5  424.15   14.41
  -5  -7  -5   44.85    2.56
   5   7   5   45.89    2.23
   5   7   5   45.82    2.55
   5   7   5   44.55    2.63
  -6  -7  -5    3.28    0.82
   6   7   5    2.54    0.57
   6   7   5    2.61    0.91
  -7  -7  -5   25.07    1.85
   7   7   5   24.09    2.00
   7   7   5   25.39    1.74
  -8  -7  -5   42.17    2.52
   8   7   5   47.30    2.61
   8   7   5   44.79    2.79
   9   7   5    5.98    1.16
   9   7   5    5.76    1.34
   9   7   5    6.52    1.40
  10   7   5   36.99    2.70
  10   7   5   37.31    2.86
  11   7   5    5.13    1.61
 -11   8   5    0.06    0.30
  10  -8  -5    0.34    0.30
 -10   8   5    0.25    0.29
   9  -8  -5    3.66    0.89
  -9   8   5    3.50    1.08
  -9   8   5    5.33    1.65
   8  -8  -5   -0.05    0.08
  -8   8   5    0.12    1.59
  -8   8   5    0.55    0.46
  -8   8   5   -1.09    1.15
   7  -8  -5   13.30    1.32
  -7   8   5   13.86    1.62
  -7   8   5   12.74    2.01
  -7   8   5   10.86    1.73
   6  -8  -5   18.29    1.55
  -6   8   5   21.08    1.63
  -6   8   5   20.03    2.23
   5  -8  -5    3.09    0.67
   5  -8  -5    2.78    0.77
  -5   8   5    2.40    1.20
  -5   8   5    4.12    0.89
  -5   8   5    1.84    0.65
   4  -8  -5   51.52    2.70
   4  -8  -5   46.61    2.26
  -4   8   5   53.62    3.21
  -4   8   5   46.56    2.79
  -4   8   5   48.53    2.40
   3  -8  -5    5.61    0.80
   3  -8  -5    7.51    0.81
   3  -8  -5    5.87    0.90
  -3   8   5    5.63    1.35
  -3   8   5    9.00    0.97
   2  -8  -5    5.93    0.71
   2  -8  -5    5.51    0.86
   2  -8  -5    4.76    0.92
   2  -8  -5    5.62    0.79
  -2   8   5    4.67    1.14
  -2   8   5    5.39    0.90
  -2   8   5    4.95    0.70
   1  -8  -5   75.75    3.38
   1  -8  -5   75.87    3.19
   1  -8  -5   80.12    3.79
   1  -8  -5   79.61    3.09
  -1   8   5   71.86    3.42
  -1   8   5   77.96    3.16
   0  -8  -5  454.98   16.73
   0  -8  -5  446.35   15.89
   0   8   5  521.13   16.02
   0   8   5  435.57   16.23
  -1  -8  -5   91.57    3.67
  -1  -8  -5   92.38    3.55
  -1  -8  -5   92.34    4.35
  -1  -8  -5   92.28    3.73
   1   8   5   96.74    3.71
  -2  -8  -5   -0.07    0.56
  -2  -8  -5   -0.46    0.36
  -2  -8  -5    0.08    0.06
  -2  -8  -5    0.37    0.17
   2   8   5   -0.24    0.28
  -3  -8  -5   16.42    1.33
  -3  -8  -5   19.41    0.90
  -3  -8  -5   17.85    1.60
  -3  -8  -5   19.66    1.00
   3   8   5   18.55    1.21
  -4  -8  -5  113.29    5.13
   4   8   5  110.82    4.90
   4   8   5  116.68    4.55
  -5  -8  -5   10.37    1.46
   5   8   5   10.80    1.02
  -6  -8  -5   25.39    1.98
   6   8   5   27.43    1.74
  -7  -8  -5   27.95    2.04
   7   8   5   28.05    1.92
  -8  -8  -5    4.42    1.14
   8   8   5    3.82    0.95
   9   8   5    1.52    0.91
  10   8   5    0.76    1.09
  10   8   5    1.66    1.54
  10  -9  -5   13.79    1.84
 -10   9   5   14.67    2.16
   9  -9  -5    0.60    0.41
  -9   9   5    0.85    0.55
   8  -9  -5   14.83    1.49
  -8   9   5   14.80    1.94
  -8   9   5   14.46    2.53
  -8   9   5   13.73    2.10
   7  -9  -5    7.40    1.30
  -7   9   5    4.35    1.07
  -7   9   5    4.88    1.26
  -7   9   5    3.65    1.71
   6  -9  -5    8.32    1.53
  -6   9   5    7.06    1.70
   5  -9  -5   30.73    2.08
  -5   9   5   27.32    2.15
  -5   9   5   31.09    1.99
  -5   9   5   36.53    2.80
   4  -9  -5  206.94    7.29
   4  -9  -5  196.43    7.81
  -4   9   5  183.58    7.94
  -4   9   5  202.55    8.44
  -4   9   5  190.11    7.38
   3  -9  -5   91.65    4.39
   3  -9  -5   85.17    4.04
   3  -9  -5   91.48    4.13
   3  -9  -5   90.26    3.72
  -3   9   5   88.79    4.79
  -3   9   5   93.18    3.84
  -3   9   5   90.72    4.49
   2  -9  -5    0.41    0.55
   2  -9  -5    0.69    0.50
   2  -9  -5    0.09    0.12
  -2   9   5    0.28    0.42
  -2   9   5    0.10    0.14
   1  -9  -5   13.04    1.45
   1  -9  -5   11.05    0.98
   1  -9  -5   12.10    1.00
   1  -9  -5   12.37    0.90
  -1   9   5   10.16    0.94
  -1   9   5   11.73    1.06
   0  -9  -5  110.54    4.93
   0  -9  -5  100.47    4.23
   0  -9  -5  100.31    4.02
   0  -9  -5  105.59    4.09
   0   9   5  103.14    4.11
   0   9   5  100.47    4.33
  -1  -9  -5   14.91    0.92
  -1  -9  -5   15.55    1.56
  -1  -9  -5   14.38    1.03
   1   9   5   16.44    1.13
  -2  -9  -5    7.58    0.56
  -2  -9  -5    6.55    1.17
  -2  -9  -5    7.31    0.91
  -2  -9  -5    7.45    0.65
   2   9   5    8.21    0.83
  -3  -9  -5   31.34    2.34
  -3  -9  -5   30.87    1.37
  -3  -9  -5   30.81    1.50
  -3  -9  -5   29.27    1.79
   3   9   5   30.78    1.75
  -4  -9  -5    2.18    0.94
  -4  -9  -5    3.22    0.30
  -4  -9  -5    3.61    0.36
   4   9   5    2.58    0.63
  -5  -9  -5   -0.71    0.70
   5   9   5   -0.52    0.45
  -6  -9  -5    0.14    0.81
   6   9   5    0.50    0.63
  -7  -9  -5    0.16    0.83
   7   9   5    1.95    0.70
  -8  -9  -5   14.44    1.76
   8   9   5   15.04    1.64
  -9  -9  -5   13.27    1.82
   9   9   5   12.81    1.67
  10   9   5   19.81    2.56
  10 -10  -5    3.17    1.45
   9 -10  -5    6.12    1.26
   8 -10  -5   64.28    3.65
  -8  10   5   63.90    3.95
   7 -10  -5   57.29    3.31
  -7  10   5   55.20    3.60
  -7  10   5   56.52    3.33
  -7  10   5   58.94    4.38
   6 -10  -5    0.31    0.24
  -6  10   5    0.07    1.64
  -6  10   5    0.21    1.00
   5 -10  -5    3.09    0.64
  -5  10   5    3.60    0.81
  -5  10   5    4.78    1.06
  -5  10   5    2.19    1.54
   4 -10  -5   56.91    3.09
  -4  10   5   55.54    2.89
  -4  10   5   61.64    3.94
   3 -10  -5   13.48    1.73
  -3  10   5   16.58    2.26
  -3  10   5   14.45    1.36
  -3  10   5   16.74    1.35
   2 -10  -5    0.94    0.76
   2 -10  -5    0.59    0.66
   2 -10  -5    0.58    0.30
  -2  10   5    0.63    0.34
  -2  10   5    0.58    0.54
   1 -10  -5   13.66    1.11
   1 -10  -5   14.50    1.85
   1 -10  -5    9.83    1.13
   1 -10  -5   11.84    0.92
  -1  10   5    9.76    1.02
  -1  10   5   13.11    1.16
   0 -10  -5    2.08    0.69
   0 -10  -5    1.90    0.43
   0 -10  -5    2.55    0.89
   0 -10  -5    2.04    0.48
   0  10   5    2.24    0.54
   0  10   5    2.10    0.58
  -1 -10  -5    0.11    0.09
  -1 -10  -5    0.04    0.07
  -1 -10  -5    0.00    0.78
   1  10   5   -0.06    0.47
  -2 -10  -5    4.62    0.44
  -2 -10  -5    3.66    0.58
  -2 -10  -5    3.20    0.99
   2  10   5    2.34    0.59
  -3 -10  -5    0.97    0.28
  -3 -10  -5    0.98    0.82
  -3 -10  -5    0.50    0.17
  -4 -10  -5   21.05    2.15
  -4 -10  -5   22.58    1.09
  -4 -10  -5   21.40    1.29
   4  10   5   21.36    1.59
  -5 -10  -5    2.29    1.16
  -5 -10  -5    3.04    0.30
  -5 -10  -5    3.41    0.51
   5  10   5    3.50    0.83
  -6 -10  -5   25.07    2.31
   6  10   5   26.00    1.95
  -7 -10  -5    2.85    1.13
   7  10   5   -0.04    0.76
  -8 -10  -5    0.90    1.26
   8  10   5    0.06    1.01
  -9 -10  -5   11.17    1.84
 -10 -10  -5    0.59    1.72
   9 -11  -5    2.16    1.12
   8 -11  -5   16.12    1.63
   7 -11  -5   13.01    1.80
  -7  11   5    8.64    1.77
  -7  11   5   13.26    2.76
   6 -11  -5    3.58    0.93
  -6  11   5    2.36    1.13
  -6  11   5    2.35    2.25
   5 -11  -5    1.29    0.58
  -5  11   5    0.30    0.97
  -5  11   5   -0.34    1.70
   4 -11  -5    0.58    0.38
  -4  11   5    0.50    0.82
  -4  11   5    1.59    1.56
   3 -11  -5    3.64    0.80
   3 -11  -5    2.32    1.12
  -3  11   5    2.61    0.79
   2 -11  -5    5.32    1.17
   2 -11  -5    6.10    0.94
  -2  11   5    4.76    0.90
   1 -11  -5    0.11    0.13
   1 -11  -5    1.21    0.86
   1 -11  -5    0.32    0.25
  -1  11   5    0.38    0.57
   0 -11  -5   16.76    1.13
   0 -11  -5   15.96    1.26
   0 -11  -5   20.27    2.09
   0  11   5   17.64    1.42
  -1 -11  -5    7.77    1.49
  -1 -11  -5    5.80    0.82
  -1 -11  -5    6.05    0.77
   1  11   5    6.73    0.99
  -2 -11  -5   23.18    1.29
  -2 -11  -5   25.97    1.51
  -2 -11  -5   21.84    2.32
   2  11   5   24.78    1.74
  -3 -11  -5    1.37    1.06
  -3 -11  -5    1.78    0.36
  -3 -11  -5    2.91    0.53
   3  11   5    3.38    0.84
  -4 -11  -5    0.97    0.30
  -4 -11  -5    1.64    0.34
  -4 -11  -5    1.62    1.03
   4  11   5    0.91    0.68
  -5 -11  -5    3.91    0.37
  -5 -11  -5    3.14    0.46
  -5 -11  -5    1.06    1.26
   5  11   5    3.63    0.94
  -6 -11  -5    5.69    1.53
   6  11   5    4.99    1.10
  -7 -11  -5   17.59    2.27
   7  11   5   24.51    2.09
  -8 -11  -5    4.44    1.71
  -9 -11  -5    2.80    1.76
 -10 -11  -5   -2.39    2.11
   8 -12  -5    0.38    0.38
   7 -12  -5    2.13    0.68
  -7  12   5    4.10    3.10
   6 -12  -5    4.13    0.90
  -6  12   5    2.30    2.56
   5 -12  -5    0.17    0.19
  -5  12   5    0.08    1.15
  -5  12   5   -1.96    1.99
   4 -12  -5    5.51    1.05
   4 -12  -5    4.17    1.45
  -4  12   5    6.71    2.25
  -4  12   5    5.91    1.23
   3 -12  -5    8.86    1.59
   3 -12  -5   10.36    1.46
  -3  12   5    9.06    1.30
   2 -12  -5    7.05    1.06
  -2  12   5    8.38    1.24
   1 -12  -5    0.94    0.38
   1 -12  -5    0.39    1.09
  -1  12   5    0.56    0.71
   0 -12  -5    1.25    0.42
   0 -12  -5    1.89    0.99
   0 -12  -5    1.00    0.31
   0  12   5    1.93    0.78
  -1 -12  -5   -0.33    1.20
  -1 -12  -5    0.17    0.15
  -1 -12  -5    0.00    0.09
   1  12   5    0.51    0.75
  -2 -12  -5    5.48    0.70
  -2 -12  -5    6.31    0.86
   2  12   5    5.28    1.03
  -3 -12  -5   27.97    1.59
  -3 -12  -5   24.32    4.23
  -3 -12  -5   26.16    1.39
   3  12   5   24.40    1.92
  -4 -12  -5   15.52    0.94
  -4 -12  -5   17.60    2.42
  -4 -12  -5   15.23    1.05
   4  12   5   13.12    1.59
  -5 -12  -5    0.82    0.21
  -5 -12  -5    0.30    1.46
  -5 -12  -5    1.22    0.31
   5  12   5    1.97    0.97
  -6 -12  -5    2.39    1.57
   6  12   5    1.26    1.02
  -7 -12  -5    6.08    2.07
   7 -13  -5   14.28    1.89
   6 -13  -5    1.37    0.81
   5 -13  -5    0.60    0.41
  -5  13   5    2.38    1.44
   4 -13  -5   -0.04    0.08
   3 -13  -5    2.00    0.64
  -3  13   5    1.45    1.08
   2 -13  -5    2.41    0.62
  -2  13   5    3.49    1.13
   1 -13  -5    9.25    1.20
   1 -13  -5    7.43    1.93
  -1  13   5    7.58    1.31
   0 -13  -5   23.37    2.80
   0 -13  -5   21.27    1.60
   0  13   5   21.08    1.91
  -1 -13  -5    2.34    0.49
  -1 -13  -5    2.79    0.62
  -1 -13  -5    2.10    1.37
   1  13   5    3.02    0.90
  -2 -13  -5    2.80    0.63
  -2 -13  -5    2.46    0.51
  -2 -13  -5    3.02    2.15
   2  13   5    0.17    1.03
  -3 -13  -5    6.41    0.62
  -3 -13  -5    7.92    0.98
   3  13   5    6.62    1.30
  -4 -13  -5    0.20    0.14
  -4 -13  -5    0.08    0.13
   4  13   5   -0.34    0.98
  -5 -13  -5    3.05    0.51
   6 -14  -5    0.63    0.37
   5 -14  -5    2.10    0.76
   4 -14  -5   17.87    1.72
   3 -14  -5    0.84    0.66
  -3  14   5   -0.05    1.46
   2 -14  -5    2.23    0.63
  -2  14   5    0.24    1.28
   1 -14  -5    1.34    0.50
  -1  14   5    0.75    1.22
   0 -14  -5    1.78    0.54
   0  14   5    0.39    1.11
  -1 -14  -5    9.66    1.28
   1  14   5    7.26    1.48
  -2 -14  -5    1.55    0.47
  -3 -14  -5    2.66    0.50
  -3 -14  -5    2.73    0.57
  -4 -14  -5    6.27    1.26
  -5 -14  -5    9.34    0.71
  -5 -14  -5    9.58    0.79
   5 -15  -5    0.40    0.34
   4 -15  -5    1.55    0.63
   3 -15  -5    7.67    1.34
   2 -15  -5    0.32    0.27
   1 -15  -5    2.51    0.71
   0 -15  -5    2.72    0.72
  -1 -15  -5   20.90    1.63
  -2 -15  -5    1.06    0.43
  -3 -15  -5    1.78    0.48
  -4 -15  -5    5.74    0.72
  -4 -15  -5    6.75    0.87
  -5 -15  -5    1.98    0.38
  -5 -15  -5    3.06    0.52
   2 -16  -5    7.50    1.31
   1 -16  -5    1.14    0.50
   0 -16  -5    3.95    0.87
  -1 -16  -5    1.21    0.45
  -2 -16  -5    1.31    0.43
  -3 -16  -5    3.90    0.75
  -1 -12   6   39.19    3.00
   0 -12   6    0.46    0.39
   1 -12   6    1.64    0.98
   2 -12   6    3.85    0.98
   3 -12   6    1.28    0.62
   4 -12   6    0.06    0.18
  -5  12  -6    7.30    1.43
   5 -12   6    7.23    1.37
  -6  12  -6    3.56    0.85
   6 -12   6    2.68    0.85
  -7  12  -6    0.68    0.40
   7 -12   6   -0.12    0.25
  -3 -11   6    1.75    0.73
  -2 -11   6    5.67    1.35
  -1 -11   6    5.44    1.20
   0 -11   6    1.65    0.67
   1 -11   6    2.89    0.86
   2 -11   6    7.33    1.50
  -3  11  -6    0.04    0.13
   3 -11   6    0.02    0.11
   4 -11   6    4.71    1.07
  -5  11  -6    0.13    0.20
   5 -11   6    0.21    0.20
  -6  11  -6    1.58    0.63
   6 -11   6    0.77    0.50
  -7  11  -6   -0.05    0.12
   7 -11   6    0.20    0.29
  -8  11  -6   22.27    1.94
  -9  11  -6    3.37    1.03
 -10  11  -6    0.56    0.39
  -5 -10   6    5.24    1.27
  -4 -10   6    1.14    0.64
  -3 -10   6    0.07    0.17
  -2 -10   6    9.52    1.53
  -1 -10   6    0.30    0.33
   0  10  -6    2.61    0.89
   0 -10   6    3.21    0.96
  -1  10  -6    0.27    0.28
   1 -10   6    0.03    0.16
  -2  10  -6    0.26    0.27
   2 -10   6    0.00    0.13
  -3  10  -6    6.53    1.10
   3 -10   6    7.33    1.36
  -4  10  -6   14.70    1.39
   4 -10   6   18.44    2.61
  -5  10  -6   16.52    2.10
   5 -10   6   17.23    2.21
  -6  10  -6    0.63    0.37
   6 -10   6    1.51    0.62
  -7  10  -6    0.14    0.18
   7 -10   6    0.37    0.29
  -8  10  -6    5.30    1.08
   8 -10   6    3.69    1.07
  -9  10  -6    6.59    1.13
 -10  10  -6    7.00    1.42
 -11  10  -6    0.05    0.20
  -6  -9   6    2.80    0.83
  -5  -9   6    1.73    0.80
  -4  -9   6    1.43    0.69
  -3  -9   6    0.31    0.32
  -2  -9   6    0.20    0.21
   1   9  -6    5.72    0.99
   1   9  -6    6.85    1.42
  -1  -9   6    6.78    1.33
   0   9  -6    2.50    0.62
   0   9  -6    1.31    1.01
   0  -9   6    3.52    1.60
   0  -9   6    3.41    0.94
  -1   9  -6   12.10    1.68
  -1   9  -6   13.11    1.25
   1  -9   6   12.19    2.01
   1  -9   6   15.84    2.40
  -2   9  -6    1.30    0.44
  -2   9  -6    1.00    1.68
   2  -9   6    1.93    0.64
   2  -9   6    0.89    1.20
  -3   9  -6    1.70    0.53
   3  -9   6    2.10    0.72
   3  -9   6    1.09    1.39
  -4   9  -6    4.76    1.14
  -4   9  -6    4.98    0.96
   4  -9   6    7.51    1.34
   4  -9   6    6.15    1.73
  -5   9  -6    6.23    1.31
  -5   9  -6    5.02    0.86
   5  -9   6    5.46    1.04
  -6   9  -6   27.61    2.47
  -6   9  -6   30.40    2.17
   6  -9   6   32.76    2.32
   6  -9   6   26.46    4.12
  -7   9  -6    0.88    0.39
   7  -9   6    1.71    0.66
   7  -9   6   -0.01    1.61
  -8   9  -6    3.16    0.73
   8  -9   6   -2.30    1.66
   8  -9   6    1.29    0.50
  -9   9  -6   14.51    1.91
   9  -9   6   12.80    2.44
 -10   9  -6    4.68    1.00
 -11   9  -6    2.05    0.99
 -12   9  -6    5.70    1.28
  -7  -8   6    0.86    0.57
  -6  -8   6    1.68    0.74
  -5  -8   6    6.43    1.42
  -4  -8   6    0.47    0.42
  -4  -8   6    1.07    0.60
   3   8  -6   13.20    1.69
  -3  -8   6    9.43    2.15
  -3  -8   6   12.33    1.78
   2   8  -6    1.00    0.39
   2   8  -6    0.19    1.54
  -2  -8   6   -0.16    1.38
  -2  -8   6    0.40    0.26
   1   8  -6    4.07    0.81
   1   8  -6    5.60    1.20
  -1  -8   6    2.42    1.55
   0   8  -6    1.42    0.80
   0   8  -6    1.11    0.38
   0  -8   6    2.20    1.29
   0  -8   6    1.27    0.55
  -1   8  -6    0.82    0.75
  -1   8  -6    0.78    0.34
   1  -8   6    0.34    1.27
   1  -8   6    0.49    0.33
  -2   8  -6   37.84    2.20
  -2   8  -6   34.82    2.33
   2  -8   6   31.48    2.83
   2  -8   6   38.92    2.53
  -3   8  -6   -0.93    0.70
  -3   8  -6    0.16    0.17
   3  -8   6    0.96    0.56
   3  -8   6   -1.02    1.11
  -4   8  -6    3.38    0.69
  -4   8  -6    2.40    1.00
   4  -8   6    4.58    1.36
   4  -8   6    3.85    0.94
  -5   8  -6   14.70    1.26
  -5   8  -6   13.10    1.57
   5  -8   6   14.50    1.99
   5  -8   6   14.73    1.41
  -6   8  -6   22.60    1.98
  -6   8  -6   19.79    1.53
   6  -8   6   18.08    2.08
   6  -8   6   17.32    1.59
  -7   8  -6    4.44    1.07
  -7   8  -6    6.27    1.34
   7  -8   6    8.93    1.75
   7  -8   6    8.04    1.28
  -8   8  -6    1.55    1.19
  -8   8  -6    1.81    0.60
   8  -8   6    0.49    1.33
   8  -8   6    2.11    0.69
  -9   8  -6    4.11    0.95
   9  -8   6    3.14    1.30
 -10   8  -6    0.76    0.43
  10  -8   6    1.60    1.42
 -11   8  -6    0.66    0.41
 -12   8  -6    7.64    1.43
 -13   8  -6    0.47    0.39
  -8  -7   6    3.38    1.06
  -7  -7   6    3.12    1.00
  -6  -7   6    1.55    0.69
   5   7  -6    4.48    1.39
  -5  -7   6    3.86    1.98
  -5  -7   6    3.36    1.01
  -4  -7   6   -2.55    1.42
  -4  -7   6    0.30    0.32
   3   7  -6    1.17    0.92
  -3  -7   6    2.94    2.32
  -3  -7   6    2.78    0.81
   2   7  -6   29.24    2.02
   2   7  -6   20.03    1.72
  -2  -7   6   25.92    2.09
  -2  -7   6   22.20    2.51
  -2  -7   6   23.93    2.03
   1   7  -6    1.82    0.74
   1   7  -6    1.97    0.55
  -1  -7   6    1.45    1.24
  -1  -7   6    1.93    0.68
   0   7  -6    9.25    0.93
   0   7  -6    9.08    1.23
   0  -7   6    9.11    1.33
   0  -7   6    6.10    1.59
  -1   7  -6   16.87    1.27
  -1   7  -6   13.83    1.41
   1  -7   6   15.04    1.44
   1  -7   6   12.71    1.88
  -2   7  -6   23.22    1.76
  -2   7  -6   22.00    1.54
   2  -7   6   24.98    1.87
   2  -7   6   26.70    2.40
  -3   7  -6   10.56    1.32
  -3   7  -6   11.95    1.07
   3  -7   6   16.45    1.83
   3  -7   6   16.65    2.07
  -4   7  -6    7.33    1.27
  -4   7  -6    5.08    1.03
   4  -7   6    5.70    1.45
   4  -7   6    4.59    0.92
  -5   7  -6   12.82    1.52
  -5   7  -6   11.39    1.05
   5  -7   6   12.10    1.87
  -6   7  -6    0.67    0.69
   6  -7   6    0.66    0.89
   6  -7   6    0.22    0.23
  -7   7  -6    5.40    0.91
  -7   7  -6    3.64    1.06
   7  -7   6    3.79    0.80
   7  -7   6    3.38    1.09
  -8   7  -6    6.10    1.05
  -8   7  -6    5.64    1.48
   8  -7   6    5.81    1.09
   8  -7   6    4.72    1.31
  -9   7  -6    2.55    0.67
  -9   7  -6    2.57    1.10
   9  -7   6    2.49    0.77
   9  -7   6    2.20    1.18
 -10   7  -6    8.15    1.16
  10  -7   6    9.63    1.55
 -11   7  -6   -0.02    0.11
 -12   7  -6    2.34    0.74
 -13   7  -6    3.01    0.90
  -8  -6   6    0.54    0.41
  -7  -6   6    4.20    2.32
  -7  -6   6    2.01    0.78
   6   6  -6    4.54    1.42
  -6  -6   6    3.80    0.99
  -6  -6   6    5.65    1.95
   5   6  -6    2.23    1.14
  -5  -6   6    3.34    1.78
  -5  -6   6    2.98    0.94
   4   6  -6    2.02    0.63
   4   6  -6    2.28    0.96
  -4  -6   6    2.02    1.27
  -4  -6   6    3.94    1.03
   3   6  -6    3.78    0.94
   3   6  -6    4.67    0.93
  -3  -6   6    5.07    1.37
  -3  -6   6    4.37    1.00
   2   6  -6   25.08    2.01
   2   6  -6   22.01    1.68
  -2  -6   6   21.32    2.34
  -2  -6   6   23.45    1.91
   1   6  -6    7.32    1.04
  -1  -6   6    6.50    1.09
  -1  -6   6    6.46    1.44
   0   6  -6   28.61    1.82
   0   6  -6   31.39    1.82
   0  -6   6   29.41    2.54
   0  -6   6   27.73    2.04
  -1   6  -6    9.11    0.87
   1  -6   6    7.45    1.50
   1  -6   6    9.16    1.22
  -2   6  -6    0.72    0.29
  -2   6  -6    0.39    0.85
   2  -6   6    0.32    0.73
   2  -6   6    0.67    0.35
  -3   6  -6   11.52    1.12
  -3   6  -6   10.79    1.42
   3  -6   6   10.37    1.42
   3  -6   6   12.02    1.69
  -4   6  -6    0.54    0.50
  -4   6  -6    0.11    0.18
   4  -6   6    0.20    0.19
   4  -6   6    0.35    0.73
  -5   6  -6    8.68    1.17
  -5   6  -6    9.41    0.89
   5  -6   6   11.40    1.67
   5  -6   6    7.60    1.08
  -6   6  -6   31.16    1.85
  -6   6  -6   26.82    1.99
   6  -6   6   33.71    2.09
   6  -6   6   35.75    3.78
  -7   6  -6    3.42    0.65
  -7   6  -6    4.55    1.00
   7  -6   6    3.44    0.69
   7  -6   6    3.33    1.30
  -8   6  -6    0.46    0.81
  -8   6  -6    0.16    0.17
   8  -6   6    0.01    0.09
   8  -6   6    0.55    0.81
  -9   6  -6    5.10    1.20
  -9   6  -6    6.69    0.99
   9  -6   6    8.65    1.42
   9  -6   6    8.66    1.28
 -10   6  -6    3.20    0.82
 -10   6  -6    0.94    1.06
  10  -6   6    2.06    1.05
 -11   6  -6    0.96    0.42
 -12   6  -6   21.02    1.80
 -13   6  -6   65.78    3.73
 -14   6  -6    8.13    1.32
  -9  -5   6    1.06    0.65
   7   5  -6    0.12    1.39
  -7  -5   6    1.25    0.65
   6   5  -6    5.46    1.33
  -6  -5   6    4.08    1.72
  -6  -5   6    7.47    1.42
   5   5  -6    1.47    0.98
   5   5  -6    1.47    0.50
  -5  -5   6    2.40    0.80
  -5  -5   6    4.60    1.50
   4   5  -6   44.35    2.56
   4   5  -6   46.05    2.58
  -4  -5   6   47.73    3.22
  -4  -5   6   48.51    3.06
   3   5  -6    0.38    0.59
   3   5  -6    0.02    0.08
  -3  -5   6    0.01    0.11
  -3  -5   6   -0.65    0.88
   2   5  -6    4.30    0.80
   2   5  -6    5.39    0.91
  -2  -5   6    3.95    1.12
  -2  -5   6    4.18    0.96
   1   5  -6   13.91    1.12
   1   5  -6   15.00    1.20
  -1  -5   6   11.51    1.70
  -1  -5   6   13.18    1.30
   0   5  -6    8.12    0.97
   0  -5   6    9.54    1.59
   0  -5   6    7.65    1.18
   0  -5   6    6.37    1.43
  -1   5  -6    8.34    0.93
  -1   5  -6    9.39    0.84
   1  -5   6   10.06    1.02
   1  -5   6   11.44    2.51
   1  -5   6   10.34    1.39
  -2   5  -6   17.25    1.25
   2  -5   6   13.42    1.17
   2  -5   6   15.30    1.70
   2  -5   6   15.40    1.31
  -3   5  -6   41.77    2.20
  -3   5  -6   34.70    1.92
   3  -5   6   30.28    2.34
   3  -5   6   31.07    2.01
   3  -5   6   30.36    1.99
  -4   5  -6    2.19    0.48
  -4   5  -6    2.25    0.61
   4  -5   6    3.16    0.66
   4  -5   6    1.46    0.79
  -5   5  -6    9.52    1.06
  -5   5  -6   10.82    0.90
   5  -5   6    9.18    1.18
   5  -5   6   10.22    1.47
  -6   5  -6   10.60    1.30
  -6   5  -6   10.21    0.91
   6  -5   6   10.16    1.01
   6  -5   6   12.71    1.58
  -7   5  -6    1.02    0.37
  -7   5  -6    0.59    0.64
  -7   5  -6    0.48    1.20
   7  -5   6    0.87    0.41
   7  -5   6    1.10    0.78
  -8   5  -6   18.77    2.17
  -8   5  -6   24.45    1.91
  -8   5  -6   22.14    1.54
   8  -5   6   28.69    1.82
   8  -5   6   24.89    1.94
  -9   5  -6  168.18    6.70
  -9   5  -6  171.03    7.07
  -9   5  -6  165.46    6.93
   9  -5   6  166.88    6.66
   9  -5   6  161.69    7.11
 -10   5  -6   33.84    2.16
 -10   5  -6   32.29    2.80
  10  -5   6   38.29    2.23
 -11   5  -6    1.21    1.14
 -11   5  -6    0.65    0.34
 -12   5  -6   28.06    2.06
 -14   5  -6    5.99    1.16
  -9  -4   6    0.35    0.34
   8   4  -6   26.76    2.75
  -8  -4   6   23.16    2.83
  -8  -4   6   26.53    2.38
   7   4  -6    1.47    1.28
  -7  -4   6    1.27    0.62
  -7  -4   6    4.22    1.74
   6   4  -6    0.80    0.94
   6   4  -6    1.81    0.63
  -6  -4   6    1.30    1.43
  -6  -4   6    1.22    0.56
   5   4  -6    8.61    1.14
   5   4  -6   10.01    1.24
  -5  -4   6    9.04    1.47
  -5  -4   6    7.38    1.62
   4   4  -6   24.90    1.69
   4   4  -6   24.31    1.98
  -4  -4   6   25.81    2.19
  -4  -4   6   25.28    2.03
   3   4  -6    4.85    0.81
   3   4  -6    4.73    0.76
  -3  -4   6    4.55    1.16
  -3  -4   6    4.64    0.96
   2   4  -6    6.49    0.90
   2   4  -6    6.55    0.84
  -2  -4   6    5.12    0.99
  -2  -4   6    7.87    1.42
  -2  -4   6    5.63    0.86
   1   4  -6   50.31    2.35
  -1  -4   6   52.28    3.13
  -1  -4   6   45.82    2.32
  -1  -4   6   47.12    2.72
   0   4  -6    0.41    0.19
   0   4  -6    0.92    0.39
   0  -4   6    1.61    0.72
   0  -4   6    1.09    0.41
  -1   4  -6   10.13    0.90
   1  -4   6    8.47    0.87
   1  -4   6    9.76    0.99
   1  -4   6    9.64    1.45
  -2   4  -6   16.51    1.12
  -2   4  -6   15.51    1.97
  -2   4  -6   18.36    1.21
   2  -4   6   17.58    1.65
   2  -4   6   18.84    1.39
   2  -4   6   17.92    1.19
  -3   4  -6   11.70    0.99
  -3   4  -6   11.45    0.88
  -3   4  -6   12.91    1.76
   3  -4   6   11.26    1.28
   3  -4   6   11.76    1.11
   3  -4   6   12.45    1.08
  -4   4  -6   21.18    1.29
  -4   4  -6   19.38    1.89
  -4   4  -6   21.39    1.42
   4  -4   6   21.06    1.37
   4  -4   6   20.56    1.74
   4  -4   6   21.73    1.48
  -5   4  -6  257.44    9.25
  -5   4  -6  236.39    9.75
  -5   4  -6  250.61    9.42
   5  -4   6  254.83    9.34
   5  -4   6  254.87    9.70
   5  -4   6  241.45    9.09
  -6   4  -6   99.88    4.73
  -6   4  -6  100.67    4.11
  -6   4  -6   98.15    4.41
  -6   4  -6   97.10    4.31
   6  -4   6  106.04    4.64
  -7   4  -6    4.45    0.92
  -7   4  -6    4.49    0.94
  -7   4  -6    3.62    0.62
   7  -4   6    4.05    0.71
   7  -4   6    4.95    0.99
  -8   4  -6   45.80    2.67
  -8   4  -6   48.48    2.71
  -8   4  -6   50.62    2.81
  -8   4  -6   48.05    2.44
  -8   4  -6   44.47    2.90
   8  -4   6   50.14    2.59
   8  -4   6   49.12    2.67
  -9   4  -6  234.47    9.31
  -9   4  -6  239.21    9.32
  -9   4  -6  239.16    9.04
  -9   4  -6  240.25    9.08
   9  -4   6  236.89    9.03
   9  -4   6  231.51    8.81
 -10   4  -6   25.54    1.70
 -10   4  -6   20.63    1.97
 -10   4  -6   22.24    2.09
  10  -4   6   24.06    1.66
 -11   4  -6    2.63    0.66
 -11   4  -6    4.97    1.33
  11  -4   6    2.11    0.65
 -12   4  -6    1.13    0.47
 -13   4  -6    5.08    0.99
 -14   4  -6   -0.04    0.12
 -15   4  -6    0.94    0.46
 -10  -3   6    1.29    0.70
  -9  -3   6    3.66    1.08
  -8  -3   6   22.66    2.13
  -8  -3   6   15.02    2.32
   7   3  -6   -1.95    1.02
   7   3  -6    0.04    0.14
  -7  -3   6    0.76    1.43
  -7  -3   6   -0.03    0.09
   6   3  -6    1.13    0.84
  -6  -3   6   -0.27    1.11
   5   3  -6   19.98    1.52
  -5  -3   6   23.43    2.17
  -5  -3   6   18.55    1.76
   4   3  -6    2.57    0.59
   4   3  -6    2.47    1.12
   4   3  -6    2.01    0.58
  -4  -3   6    0.87    0.99
  -4  -3   6    1.77    0.59
   3   3  -6    8.63    0.87
   3   3  -6    7.64    1.16
   3   3  -6    8.23    0.83
  -3  -3   6    6.42    1.09
  -3  -3   6    7.71    1.31
   2   3  -6    7.88    1.02
   2   3  -6    7.30    0.74
  -2  -3   6    6.40    1.25
  -2  -3   6    8.80    1.31
  -2  -3   6    6.23    0.81
   1   3  -6   64.58    2.92
   1   3  -6   66.36    2.79
  -1  -3   6   64.65    3.56
  -1  -3   6   63.17    2.76
  -1  -3   6   65.44    3.28
   0   3  -6    7.46    1.39
   0   3  -6    7.53    0.70
   0   3  -6    8.88    0.76
   0  -3   6    8.44    0.77
   0  -3   6    8.02    1.32
   0  -3   6    8.49    1.18
  -1   3  -6  215.00    8.65
  -1   3  -6  214.01    7.62
   1  -3   6  206.74    8.06
   1  -3   6  210.77    7.55
   1  -3   6  209.04    8.46
  -2   3  -6  188.16    6.81
  -2   3  -6  182.92    7.68
   2  -3   6  185.38    7.58
   2  -3   6  188.67    7.18
   2  -3   6  183.93    6.72
   2  -3   6  185.43    7.18
  -3   3  -6    0.90    0.28
  -3   3  -6    0.71    0.30
  -3   3  -6    1.02    0.34
  -3   3  -6   -0.27    0.77
   3  -3   6    1.29    0.43
   3  -3   6    1.16    0.39
   3  -3   6    0.77    0.58
  -4   3  -6   43.01    2.02
  -4   3  -6   44.99    2.68
  -4   3  -6   40.17    2.21
  -4   3  -6   46.05    2.15
   4  -3   6   42.73    2.07
   4  -3   6   41.67    2.54
   4  -3   6   42.10    2.36
  -5   3  -6  371.28   13.96
  -5   3  -6  372.04   13.45
  -5   3  -6  381.20   13.60
   5  -3   6  380.98   13.39
   5  -3   6  395.82   13.95
  -6   3  -6   89.58    4.26
  -6   3  -6   94.73    3.75
  -6   3  -6   93.69    4.00
  -6   3  -6   91.59    4.02
   6  -3   6   95.08    3.95
   6  -3   6   85.61    3.84
   6  -3   6   93.84    4.22
  -7   3  -6    0.86    0.82
  -7   3  -6    0.22    0.41
   7  -3   6    0.74    0.61
  -8   3  -6    1.95    0.57
  -8   3  -6    1.89    0.61
  -8   3  -6    2.24    0.49
  -8   3  -6    1.70    0.94
   8  -3   6    1.68    0.69
   8  -3   6    2.20    0.51
  -9   3  -6    9.60    1.29
  -9   3  -6   10.46    1.34
  -9   3  -6   10.05    0.93
  -9   3  -6   12.12    1.14
   9  -3   6   10.40    1.15
   9  -3   6   10.06    0.95
 -10   3  -6    0.05    0.14
 -10   3  -6    0.09    0.19
 -10   3  -6    0.03    0.83
 -10   3  -6    1.01    0.84
  10  -3   6    0.72    0.60
 -11   3  -6    1.60    0.46
 -12   3  -6    5.92    1.65
 -12   3  -6    8.71    1.28
 -13   3  -6    7.81    1.29
 -14   3  -6    0.09    0.18
 -15   3  -6    3.41    0.79
 -10  -2   6    0.50    0.42
   9   2  -6    5.87    1.78
  -9  -2   6    6.72    1.49
   8   2  -6    2.97    1.30
  -8  -2   6    0.46    1.55
  -8  -2   6    1.73    0.73
   7   2  -6    0.43    0.30
   7   2  -6    1.32    0.91
  -7  -2   6   -0.53    1.20
  -7  -2   6    0.65    0.42
   6   2  -6    0.72    0.86
   6   2  -6    0.16    0.18
  -6  -2   6   -0.63    1.09
  -6  -2   6    0.17    0.25
   5   2  -6   33.55    1.94
   5   2  -6   33.97    2.49
   5   2  -6   32.49    2.22
  -5  -2   6   37.39    2.56
  -5  -2   6   32.33    2.38
   4   2  -6   10.84    0.99
   4   2  -6   11.67    1.31
   4   2  -6   11.32    1.02
  -4  -2   6   10.34    1.50
  -4  -2   6   11.44    1.56
   3   2  -6   76.15    3.14
   3   2  -6   75.56    3.36
   3   2  -6   73.16    3.37
  -3  -2   6   76.70    3.94
  -3  -2   6   76.14    3.80
   2   2  -6  126.67    4.69
   2   2  -6  124.94    4.90
   2   2  -6  122.49    4.93
   2   2  -6  122.02    5.66
  -2  -2   6  121.71    4.68
  -2  -2   6  128.50    5.60
  -2  -2   6  120.36    5.31
   1   2  -6    4.60    0.60
   1   2  -6    6.85    1.23
   1   2  -6    5.63    0.61
  -1  -2   6    8.54    1.30
  -1  -2   6    6.20    0.65
  -1  -2   6    4.18    0.74
   0   2  -6   16.31    1.62
   0   2  -6   13.93    0.98
   0  -2   6   16.47    1.53
   0  -2   6   15.08    1.20
   0  -2   6   14.42    0.92
  -1   2  -6  343.25   13.24
  -1   2  -6  361.65   12.25
   1  -2   6  347.24   12.15
   1  -2   6  364.44   13.20
  -2   2  -6  228.36    8.27
  -2   2  -6  226.09    8.38
  -2   2  -6  216.94    8.85
   2  -2   6  227.70    7.97
   2  -2   6  224.01    8.82
   2  -2   6  230.76    8.39
  -3   2  -6    5.26    0.80
  -3   2  -6    6.62    1.14
  -3   2  -6    5.01    0.62
  -3   2  -6    6.11    0.53
   3  -2   6    5.97    0.84
   3  -2   6    5.43    1.04
   3  -2   6    5.37    0.59
  -4   2  -6    0.34    0.17
  -4   2  -6    1.37    0.70
  -4   2  -6    0.65    0.32
  -4   2  -6    0.50    0.24
   4  -2   6    0.14    0.28
   4  -2   6    0.35    0.19
   4  -2   6   -0.43    0.47
  -5   2  -6   28.87    1.43
  -5   2  -6   28.37    1.97
  -5   2  -6   29.05    1.60
   5  -2   6   26.64    1.53
   5  -2   6   25.80    1.52
   5  -2   6   25.91    1.83
  -6   2  -6    0.97    0.72
  -6   2  -6   -0.18    0.36
  -6   2  -6    0.04    0.06
  -6   2  -6    0.05    0.07
   6  -2   6    0.31    0.19
   6  -2   6    0.53    0.46
   6  -2   6    0.20    0.41
  -7   2  -6    5.75    1.03
  -7   2  -6    4.74    0.84
  -7   2  -6    5.69    0.83
  -7   2  -6    5.86    0.58
   7  -2   6    5.56    0.77
   7  -2   6    5.00    0.87
   7  -2   6    6.32    0.98
  -8   2  -6   18.69    1.65
  -8   2  -6   21.89    1.68
  -8   2  -6   18.77    1.23
  -8   2  -6   21.50    1.45
   8  -2   6   21.20    1.49
   8  -2   6   20.92    1.39
  -9   2  -6   11.17    1.26
  -9   2  -6    7.90    1.23
  -9   2  -6    8.75    0.83
   9  -2   6   11.03    1.05
   9  -2   6    9.41    0.86
 -10   2  -6    2.36    0.94
 -10   2  -6    1.16    0.40
 -10   2  -6    0.56    0.31
  10  -2   6    2.18    0.56
  10  -2   6    0.87    0.49
 -11   2  -6   13.99    1.29
 -11   2  -6   11.87    1.09
 -11   2  -6   11.98    1.82
 -12   2  -6    4.54    0.88
 -12   2  -6    3.60    1.42
 -13   2  -6   26.62    1.90
 -14   2  -6    0.44    0.35
 -15   2  -6    6.12    1.13
 -10  -1   6    0.70    0.64
   9   1  -6   17.88    2.31
  -9  -1   6   13.55    2.00
   8   1  -6    6.85    1.34
   8   1  -6    3.47    0.80
  -8  -1   6    5.85    1.30
   7   1  -6   19.65    1.72
   7   1  -6   16.83    1.47
  -7  -1   6   19.17    2.93
  -7  -1   6   15.91    1.98
   6   1  -6   54.54    2.74
   6   1  -6   57.71    3.01
  -6  -1   6   61.95    3.57
  -6  -1   6   54.60    3.24
   5   1  -6   -1.01    0.81
   5   1  -6    1.51    0.58
  -5  -1   6    0.07    0.87
  -5  -1   6    1.21    0.53
   4   1  -6    4.98    0.68
   4   1  -6    7.31    1.12
   4   1  -6    5.91    1.44
   4   1  -6    4.34    0.83
  -4  -1   6    7.81    1.50
  -4  -1   6    7.32    1.28
   3   1  -6  131.62    4.95
   3   1  -6  121.05    5.73
   3   1  -6  132.39    4.78
   3   1  -6  129.02    5.15
  -3  -1   6  120.63    5.57
  -3  -1   6  125.83    5.56
   2   1  -6  175.01    7.79
   2   1  -6  199.32    7.01
   2   1  -6  187.72    6.81
  -2  -1   6  201.69    7.86
  -2  -1   6  195.18    7.61
   1   1  -6    7.87    0.68
   1   1  -6    5.64    1.13
   1   1  -6    5.89    0.53
  -1  -1   6    8.73    1.29
  -1  -1   6    7.50    1.03
  -1  -1   6    6.92    0.58
   0   1  -6    5.94    0.52
   0   1  -6    6.54    0.59
   0   1  -6    6.07    1.15
   0  -1   6    6.13    0.52
   0  -1   6    7.01    0.99
   0  -1   6    6.40    1.05
  -1   1  -6   22.29    1.83
  -1   1  -6   22.85    1.41
  -1   1  -6   24.44    1.15
  -1   1  -6   23.02    1.24
   1  -1   6   23.07    1.10
   1  -1   6   21.46    1.69
  -2   1  -6    4.46    0.46
  -2   1  -6    4.48    0.44
  -2   1  -6    4.16    0.67
  -2   1  -6    2.84    0.84
   2  -1   6    4.55    0.69
   2  -1   6    5.04    0.59
   2  -1   6    4.10    0.90
  -3   1  -6   31.07    2.06
  -3   1  -6   33.30    1.57
  -3   1  -6   33.97    1.65
   3  -1   6   33.63    1.72
   3  -1   6   33.08    1.54
   3  -1   6   31.63    2.04
  -4   1  -6   12.11    0.75
  -4   1  -6   10.46    0.83
  -4   1  -6   12.69    1.48
  -4   1  -6   10.92    0.84
   4  -1   6   12.60    1.23
   4  -1   6   11.59    0.86
   4  -1   6   11.10    0.82
  -5   1  -6    0.45    0.16
  -5   1  -6    0.29    0.56
  -5   1  -6    0.31    0.19
  -5   1  -6    0.57    0.36
   5  -1   6    0.43    0.18
   5  -1   6    1.22    0.42
   5  -1   6    0.14    0.48
  -6   1  -6   22.19    1.33
  -6   1  -6   23.04    1.69
  -6   1  -6   23.70    1.47
  -6   1  -6   21.92    1.18
   6  -1   6   22.19    1.41
   6  -1   6   21.34    1.57
  -7   1  -6   10.69    0.88
  -7   1  -6   12.11    0.81
  -7   1  -6   10.19    1.08
  -7   1  -6   12.59    1.28
   7  -1   6   11.54    0.85
   7  -1   6   11.85    1.11
   7  -1   6   10.22    1.10
  -8   1  -6    4.62    0.88
  -8   1  -6    4.44    0.85
  -8   1  -6    4.19    0.68
  -8   1  -6    4.42    0.62
   8  -1   6    5.34    0.89
   8  -1   6    5.32    0.73
  -9   1  -6   72.97    3.35
  -9   1  -6   74.33    3.69
  -9   1  -6   74.82    3.19
   9  -1   6   72.79    3.11
 -10   1  -6   10.99    1.08
 -10   1  -6   11.20    1.54
 -10   1  -6   10.46    1.01
  10  -1   6   12.01    0.82
  10  -1   6   11.09    0.80
 -11   1  -6   18.06    1.44
 -11   1  -6   19.34    1.37
 -11   1  -6   20.07    2.25
 -12   1  -6    0.99    0.37
 -12   1  -6    0.76    0.34
 -12   1  -6    1.85    1.10
 -13   1  -6    0.11    0.15
 -14   1  -6    0.05    0.16
 -15   1  -6    0.01    0.13
 -11   0   6    0.57    0.45
 -10   0   6   16.13    2.29
   9   0  -6    0.85    1.37
  -9   0   6    0.99    0.54
   8   0  -6    2.40    0.68
   8   0  -6    2.60    1.08
  -8   0   6    2.99    0.92
  -8   0   6    0.24    1.28
   7   0  -6   23.46    1.79
   7   0  -6   26.82    1.85
  -7   0   6   26.75    2.24
  -7   0   6   24.59    2.32
   6   0  -6   95.73    4.90
   6   0  -6   93.78    3.96
   6   0  -6   94.88    4.34
   6   0  -6   90.90    4.12
  -6   0   6   99.36    4.90
  -6   0   6   95.41    4.56
   5   0  -6   -0.20    1.24
   5   0  -6    0.87    0.33
   5   0  -6    0.47    0.47
   5   0  -6    1.13    0.67
  -5   0   6    0.04    0.83
  -5   0   6    0.13    0.18
   4   0  -6   13.96    0.96
   4   0  -6   14.22    1.17
   4   0  -6   12.67    1.71
  -4   0   6   13.58    1.34
  -4   0   6   14.06    1.63
   3   0  -6   18.29    1.02
   3   0  -6   17.64    1.25
   3   0  -6   19.54    1.20
   3   0  -6   16.34    2.21
  -3   0   6   17.42    1.47
  -3   0   6   19.37    1.68
   2   0  -6   11.08    0.82
   2   0  -6   10.55    0.85
   2   0  -6    9.93    0.66
   2   0  -6   10.47    1.47
  -2   0   6   10.60    1.04
  -2   0   6   12.05    1.33
   1   0  -6   54.23    3.10
   1   0  -6   55.84    2.51
   1   0  -6   57.78    2.29
   1   0  -6   58.54    2.18
  -1   0   6   56.33    3.04
   0   0  -6    2.04    0.47
   0   0  -6    2.22    0.42
   0   0  -6    1.45    0.74
   0   0  -6    1.91    0.25
   0   0   6    2.13    0.60
   0   0   6    2.13    0.30
   0   0   6    1.50    0.49
  -1   0  -6    2.49    0.49
  -1   0  -6    2.23    0.72
  -1   0  -6    2.96    0.47
  -1   0  -6    2.84    0.31
   1   0   6    2.44    0.52
   1   0   6    2.69    0.70
   1   0   6    2.27    0.29
  -2   0  -6   41.52    1.79
  -2   0  -6   38.60    2.38
  -2   0  -6   42.89    1.73
   2   0   6   43.32    2.41
   2   0   6   40.04    1.97
   2   0   6   41.01    1.67
  -3   0  -6   11.29    0.82
  -3   0  -6   10.86    0.74
  -3   0  -6   12.88    1.23
   3   0   6   11.72    1.21
   3   0   6   12.79    0.74
   3   0   6   10.84    0.80
  -4   0  -6    9.31    0.72
  -4   0  -6    9.93    0.63
  -4   0  -6    9.73    1.12
  -4   0  -6   11.53    0.81
   4   0   6    9.96    1.04
   4   0   6   10.05    0.88
   4   0   6   10.25    0.75
  -5   0  -6   97.82    3.81
  -5   0  -6   93.28    4.11
  -5   0  -6   92.14    3.69
  -5   0  -6   92.79    3.50
   5   0   6   94.47    4.13
   5   0   6   93.85    3.73
   5   0   6   94.64    3.65
  -6   0  -6   59.56    2.56
  -6   0  -6   60.06    2.78
  -6   0  -6   61.25    2.93
  -6   0  -6   58.32    2.40
   6   0   6   63.17    2.96
   6   0   6   59.46    2.70
  -7   0  -6    9.22    1.06
  -7   0  -6    9.02    0.74
  -7   0  -6    8.54    1.02
  -7   0  -6   10.13    0.68
   7   0   6   10.04    1.15
  -8   0  -6    0.55    0.49
  -8   0  -6    0.78    0.27
  -8   0  -6    0.42    0.18
   8   0   6    0.45    0.52
   8   0   6    0.64    0.45
  -9   0  -6   -0.01    0.63
  -9   0  -6    0.82    0.32
  -9   0  -6    0.12    0.11
   9   0   6    0.43    0.46
   9   0   6    0.45    0.48
 -10   0  -6    0.23    0.77
 -10   0  -6    0.11    0.16
  10   0   6   -0.26    0.34
  10   0   6    0.36    0.33
 -11   0  -6    0.07    0.13
 -11   0  -6    1.31    0.98
 -11   0  -6    0.40    0.22
 -12   0  -6   47.55    3.11
 -12   0  -6   51.07    2.59
 -12   0  -6   45.36    3.21
 -13   0  -6    1.92    0.54
 -13   0  -6    2.03    0.53
 -14   0  -6    4.22    1.09
 -15   0  -6    0.20    0.19
 -11   1   6    2.19    0.83
 -10   1   6   27.64    2.54
   9  -1  -6    0.13    0.21
   9  -1  -6    2.85    1.29
  -9   1   6    0.09    0.21
   8  -1  -6   11.54    1.48
   8  -1  -6   11.94    1.40
  -8   1   6   12.02    1.67
  -8   1   6   11.50    1.76
   7  -1  -6    2.73    0.82
   7  -1  -6    3.42    1.66
   7  -1  -6    4.79    0.91
  -7   1   6    4.22    1.18
  -7   1   6    4.85    1.10
  -7   1   6    1.65    1.25
   6  -1  -6    5.85    1.49
   6  -1  -6    5.69    0.82
   6  -1  -6    8.00    1.30
   6  -1  -6    3.78    0.71
  -6   1   6    4.61    1.12
  -6   1   6    6.27    1.14
   5  -1  -6   22.31    1.48
   5  -1  -6   22.88    1.33
   5  -1  -6   20.31    2.18
   5  -1  -6   21.14    1.52
  -5   1   6   20.48    1.84
  -5   1   6   23.60    1.90
   4  -1  -6   11.30    1.83
   4  -1  -6    9.80    0.95
   4  -1  -6   14.35    0.89
   4  -1  -6   12.33    0.99
  -4   1   6   12.76    1.66
  -4   1   6   12.98    1.45
   3  -1  -6    1.91    0.43
   3  -1  -6    2.04    0.97
   3  -1  -6    2.61    0.38
  -3   1   6    3.01    0.77
  -3   1   6    1.26    0.71
   2  -1  -6   28.28    1.68
   2  -1  -6   29.49    1.31
   2  -1  -6   28.02    1.20
   2  -1  -6   29.83    2.06
  -2   1   6   28.81    1.84
  -2   1   6   27.87    1.99
   1  -1  -6    3.82    0.34
   1  -1  -6    3.28    0.83
   1  -1  -6    3.92    0.54
   1  -1  -6    2.78    0.27
   1  -1  -6    3.17    0.56
  -1   1   6    4.75    0.74
  -1   1   6    4.61    0.86
   0  -1  -6    1.39    0.20
   0  -1  -6    0.90    0.26
   0  -1  -6    1.08    0.28
   0  -1  -6    1.31    0.17
   0  -1  -6    2.30    0.63
   0   1   6    0.53    0.50
   0   1   6    1.98    0.49
  -1  -1  -6   43.09    1.84
  -1  -1  -6   43.06    1.58
  -1  -1  -6   41.00    2.39
   1   1   6   40.16    1.54
   1   1   6   44.52    2.49
   1   1   6   42.50    2.03
  -2  -1  -6  223.73    8.06
  -2  -1  -6  241.42    8.99
   2   1   6  247.28    8.04
   2   1   6  231.58    9.02
  -3  -1  -6    2.48    0.44
  -3  -1  -6    1.87    0.32
  -3  -1  -6    1.80    0.61
  -3  -1  -6    1.85    0.30
   3   1   6    1.56    0.33
   3   1   6    0.58    0.45
   3   1   6    1.77    0.29
  -4  -1  -6    1.84    0.28
  -4  -1  -6    1.62    0.31
  -4  -1  -6    1.68    0.36
  -4  -1  -6    2.50    0.71
   4   1   6    1.90    0.63
   4   1   6    1.69    0.31
   4   1   6    1.49    0.32
  -5  -1  -6    5.23    0.86
  -5  -1  -6    3.86    0.39
  -5  -1  -6    4.09    0.34
  -5  -1  -6    5.06    0.66
   5   1   6    4.06    0.63
   5   1   6    5.61    0.95
  -6  -1  -6   11.38    1.10
  -6  -1  -6   11.26    0.73
  -6  -1  -6   11.79    0.65
  -6  -1  -6   10.57    0.96
   6   1   6    9.77    0.96
   6   1   6   13.15    1.17
  -7  -1  -6    8.67    0.94
  -7  -1  -6    5.45    0.46
  -7  -1  -6    6.20    0.53
   7   1   6    5.31    0.99
   7   1   6    7.29    0.82
   7   1   6    6.24    1.08
  -8  -1  -6   57.68    3.02
  -8  -1  -6   64.52    2.51
  -8  -1  -6   58.12    2.55
   8   1   6   57.83    2.61
   8   1   6   62.32    2.83
  -9  -1  -6   25.56    1.36
  -9  -1  -6   25.23    1.86
  -9  -1  -6   25.58    1.41
   9   1   6   24.76    1.39
   9   1   6   25.17    1.51
 -10  -1  -6   16.87    1.20
 -10  -1  -6   16.75    1.14
 -10  -1  -6   15.87    1.70
  10   1   6   15.43    0.91
  10   1   6   15.80    0.91
 -11  -1  -6    1.42    0.42
 -11  -1  -6    1.89    0.45
 -11  -1  -6   -0.63    0.97
 -12  -1  -6    5.62    0.85
 -12  -1  -6    7.72    0.78
 -12  -1  -6    8.60    1.67
 -13  -1  -6    4.37    0.76
 -13  -1  -6    4.92    0.82
 -14  -1  -6   11.53    1.11
 -15  -1  -6    2.34    0.61
 -11   2   6    1.18    0.62
 -10   2   6    3.99    1.12
   9  -2  -6    6.10    1.15
   9  -2  -6    6.48    1.42
  -9   2   6    5.85    1.34
   8  -2  -6   16.98    1.53
   8  -2  -6   19.48    1.95
  -8   2   6   17.94    2.45
  -8   2   6   18.31    1.95
   7  -2  -6    1.20    0.46
   7  -2  -6    1.28    1.10
   7  -2  -6    1.26    0.73
  -7   2   6    1.76    1.05
  -7   2   6    1.05    0.51
  -7   2   6    2.42    1.14
   6  -2  -6    8.56    1.11
   6  -2  -6    7.07    1.06
   6  -2  -6    8.28    0.97
  -6   2   6    8.31    1.32
  -6   2   6    7.68    1.35
  -6   2   6    8.35    1.24
   5  -2  -6    0.76    0.43
   5  -2  -6    1.08    1.11
   5  -2  -6    0.88    0.39
   5  -2  -6    0.74    0.54
  -5   2   6    0.99    0.80
  -5   2   6    1.15    0.61
   4  -2  -6    6.00    0.59
   4  -2  -6    7.77    1.32
   4  -2  -6    5.43    0.67
   4  -2  -6    5.12    0.77
  -4   2   6    4.78    0.89
  -4   2   6    3.61    1.01
   3  -2  -6    6.50    0.50
   3  -2  -6    6.67    0.89
   3  -2  -6    5.95    1.13
   3  -2  -6    5.95    0.57
  -3   2   6    6.47    1.08
  -3   2   6    6.70    1.04
   2  -2  -6   91.89    3.24
   2  -2  -6   93.52    3.28
   2  -2  -6   89.20    4.25
   2  -2  -6  100.02    3.92
  -2   2   6   95.16    4.35
  -2   2   6   89.27    4.11
   1  -2  -6    8.49    1.25
  -1   2   6    7.21    0.95
  -1   2   6    7.98    1.20
   0  -2  -6    2.12    0.41
   0  -2  -6    2.18    0.66
   0  -2  -6    1.80    0.41
   0   2   6    1.92    0.47
   0   2   6    2.04    0.64
  -1  -2  -6    2.72    0.36
  -1  -2  -6    2.10    0.67
  -1  -2  -6    2.76    0.41
   1   2   6    3.73    0.82
   1   2   6    3.11    0.52
  -2  -2  -6   10.27    0.61
  -2  -2  -6   10.34    1.25
  -2  -2  -6   11.01    0.58
  -2  -2  -6   10.35    0.71
   2   2   6    9.81    1.08
   2   2   6   10.48    0.51
   2   2   6    8.95    0.73
  -3  -2  -6    7.18    1.00
  -3  -2  -6    5.55    0.46
  -3  -2  -6    5.36    0.50
  -3  -2  -6    6.25    0.44
   3   2   6    5.66    0.92
   3   2   6    6.25    0.53
   3   2   6    5.78    0.47
  -4  -2  -6   25.78    1.12
  -4  -2  -6   24.53    1.64
  -4  -2  -6   25.83    1.34
  -4  -2  -6   25.13    1.17
   4   2   6   27.71    1.82
  -5  -2  -6   91.97    3.30
  -5  -2  -6   88.69    3.65
  -5  -2  -6   87.84    3.87
   5   2   6   90.20    3.63
   5   2   6   89.50    4.06
   5   2   6   90.82    3.75
  -6  -2  -6   30.16    1.33
  -6  -2  -6   31.61    1.78
  -6  -2  -6   30.51    1.27
   6   2   6   32.57    1.81
   6   2   6   32.90    1.97
   6   2   6   33.28    1.75
  -7  -2  -6   16.73    0.85
  -7  -2  -6   16.11    0.81
  -7  -2  -6   17.03    1.31
   7   2   6   16.72    1.59
   7   2   6   18.14    1.64
   7   2   6   15.51    1.17
  -8  -2  -6    8.35    0.56
  -8  -2  -6    6.04    1.05
   8   2   6    7.82    0.88
   8   2   6    7.12    1.02
  -9  -2  -6    3.15    0.87
  -9  -2  -6    5.01    0.66
  -9  -2  -6    4.82    0.46
   9   2   6    4.64    0.81
 -10  -2  -6   78.01    4.11
 -10  -2  -6   80.83    3.31
 -10  -2  -6   82.79    3.29
  10   2   6   79.15    3.12
  10   2   6   81.29    3.20
 -11  -2  -6    0.52    0.22
 -11  -2  -6    0.58    0.24
 -11  -2  -6    1.08    1.06
 -12  -2  -6    0.53    0.25
 -12  -2  -6   -2.16    1.21
 -12  -2  -6    0.09    0.11
 -13  -2  -6    0.43    0.22
 -13  -2  -6    0.40    0.22
 -14  -2  -6    4.06    0.69
 -15  -2  -6   -0.03    0.11
 -15  -2  -6   -0.04    0.09
 -11   3   6    0.68    0.51
 -10   3   6    0.68    0.54
   9  -3  -6    0.20    1.23
   9  -3  -6    0.77    0.45
  -9   3   6    0.37    0.32
   8  -3  -6    0.97    0.43
   8  -3  -6    1.54    0.91
  -8   3   6    1.25    1.23
  -8   3   6    1.06    0.58
   7  -3  -6    1.33    0.99
   7  -3  -6    0.94    0.40
   7  -3  -6   -0.11    0.67
  -7   3   6   -0.81    1.01
  -7   3   6    0.29    0.29
  -7   3   6   -0.12    1.00
   6  -3  -6   38.78    2.16
   6  -3  -6   40.29    2.04
  -6   3   6   44.16    2.71
  -6   3   6   37.66    2.43
  -6   3   6   58.51    3.61
   5  -3  -6   13.58    1.07
   5  -3  -6   10.24    1.02
   5  -3  -6   13.69    1.07
  -5   3   6   12.95    1.78
  -5   3   6   11.75    1.54
  -5   3   6   12.23    1.40
   4  -3  -6    4.10    0.73
   4  -3  -6    4.36    0.56
   4  -3  -6    4.14    0.52
  -4   3   6    5.16    1.06
  -4   3   6    3.56    0.76
   3  -3  -6    1.45    0.75
   3  -3  -6    2.88    0.36
   3  -3  -6    3.38    0.65
   3  -3  -6    1.78    0.29
  -3   3   6    1.75    0.71
  -3   3   6    2.13    0.68
  -3   3   6    3.57    0.91
   2  -3  -6   11.12    0.88
   2  -3  -6   12.42    1.51
   2  -3  -6   11.48    0.95
  -2   3   6   11.04    1.40
  -2   3   6   12.19    1.07
   1  -3  -6    3.01    0.59
   1  -3  -6    3.36    0.86
   1  -3  -6    2.77    0.46
  -1   3   6    3.43    0.85
  -1   3   6    2.90    0.55
   0  -3  -6    0.67    0.54
   0  -3  -6    0.16    0.12
   0   3   6    0.18    0.15
   0   3   6    0.47    0.53
  -1  -3  -6   64.20    2.59
  -1  -3  -6   60.10    3.06
   1   3   6   60.37    2.63
   1   3   6   62.22    3.20
  -2  -3  -6   31.42    1.94
  -2  -3  -6   32.37    1.46
   2   3   6   29.83    1.46
   2   3   6   31.94    1.82
   2   3   6   32.80    2.06
   2   3   6   31.34    1.24
   2   3   6   32.78    1.22
  -3  -3  -6   16.83    0.86
  -3  -3  -6   17.27    0.95
   3   3   6   20.07    0.97
   3   3   6   17.55    1.25
   3   3   6   17.31    1.45
  -4  -3  -6    4.53    0.61
  -4  -3  -6    4.24    0.29
   4   3   6    3.16    0.68
   4   3   6    4.40    0.58
   4   3   6    6.77    1.05
  -5  -3  -6    5.96    0.74
   5   3   6    6.69    1.02
   5   3   6    6.53    0.82
   5   3   6    4.46    0.74
  -6  -3  -6  200.03    7.52
   6   3   6  195.73    7.41
   6   3   6  200.63    7.49
   6   3   6  203.66    7.83
  -7  -3  -6   33.28    2.03
   7   3   6   34.44    1.87
   7   3   6   31.54    2.01
   7   3   6   35.36    2.16
  -8  -3  -6   -0.11    0.50
   8   3   6   -0.11    0.46
   8   3   6   -0.28    0.59
  -9  -3  -6    1.15    0.23
  -9  -3  -6    0.85    0.20
  -9  -3  -6    1.99    0.81
   9   3   6    0.97    0.74
   9   3   6    0.45    0.55
 -10  -3  -6   17.68    0.97
 -10  -3  -6   16.06    2.01
 -10  -3  -6   18.05    0.98
  10   3   6   17.92    1.27
  10   3   6   17.32    1.37
 -11  -3  -6   -0.21    1.10
 -11  -3  -6    0.81    0.25
 -11  -3  -6    0.77    0.24
 -12  -3  -6   20.26    1.20
 -12  -3  -6   19.68    1.18
 -12  -3  -6   17.54    2.37
 -13  -3  -6   28.68    1.58
 -14  -3  -6    1.07    0.33
 -11   4   6    0.42    0.51
 -10   4   6    2.69    0.87
   9  -4  -6    8.72    1.35
   9  -4  -6   10.41    1.54
  -9   4   6    8.23    1.55
   8  -4  -6    2.07    0.64
   8  -4  -6    0.63    0.88
  -8   4   6    2.11    1.29
  -8   4   6    1.93    0.74
   7  -4  -6    0.40    0.26
   7  -4  -6    0.41    0.68
   7  -4  -6    1.39    0.96
  -7   4   6   -0.59    1.13
  -7   4   6    1.08    0.49
  -7   4   6    1.14    1.07
   6  -4  -6    1.35    0.50
   6  -4  -6    0.93    0.66
   6  -4  -6    1.59    0.56
  -6   4   6    1.58    0.98
  -6   4   6    0.23    0.99
  -6   4   6    1.23    0.57
   5  -4  -6    2.46    0.74
   5  -4  -6    0.17    0.47
  -5   4   6   -0.39    0.77
  -5   4   6    1.40    0.57
  -5   4   6    0.10    0.80
   4  -4  -6   10.55    0.78
   4  -4  -6    9.34    0.94
  -4   4   6   11.81    1.49
  -4   4   6   12.16    1.32
  -4   4   6   10.01    0.92
  -4   4   6   11.06    1.46
   3  -4  -6   27.52    1.66
   3  -4  -6   29.32    1.22
  -3   4   6   28.17    2.08
  -3   4   6   27.28    1.88
  -3   4   6   29.78    2.09
   2  -4  -6   11.39    0.90
   2  -4  -6   10.65    0.91
  -2   4   6   10.28    1.39
  -2   4   6   10.83    1.11
   1  -4  -6   38.91    1.97
   1  -4  -6   38.36    1.91
  -1   4   6   40.82    2.14
  -1   4   6   43.35    2.50
  -1   4   6   38.22    2.20
   0  -4  -6    0.09    0.09
   0  -4  -6    0.32    0.14
   0   4   6    0.08    0.48
   0   4   6    0.48    0.47
   0   4   6    0.18    0.12
  -1  -4  -6    2.77    0.37
   1   4   6    2.41    0.44
   1   4   6    3.74    0.86
   1   4   6    1.85    0.57
   2   4   6  326.31   10.67
   2   4   6  317.98   10.78
   2   4   6  317.25   11.44
   2   4   6  304.39   11.88
   3   4   6  203.40    7.76
   3   4   6  216.19    7.18
   3   4   6  201.36    8.19
   3   4   6  202.95    7.30
   4   4   6    0.96    0.46
   4   4   6    0.02    0.20
   4   4   6    0.05    0.32
   4   4   6   -0.01    0.44
   5   4   6    0.66    0.60
   5   4   6    0.66    0.47
   5   4   6    1.29    0.48
   5   4   6    0.77    0.32
  -6  -4  -6   50.62    2.61
   6   4   6   55.22    2.46
   6   4   6   49.18    2.58
   6   4   6   52.36    2.91
   6   4   6   52.57    2.55
  -7  -4  -6   15.69    1.37
   7   4   6   14.48    1.24
   7   4   6   16.08    1.26
   7   4   6   16.31    1.50
   7   4   6   16.30    1.47
  -8  -4  -6   19.61    1.72
   8   4   6   18.86    1.50
   8   4   6   20.18    1.69
   8   4   6   21.24    1.54
  -9  -4  -6   66.79    3.59
   9   4   6   70.50    3.38
   9   4   6   67.54    3.39
   9   4   6   67.10    3.11
 -10  -4  -6    2.39    1.06
  10   4   6    1.44    1.29
  10   4   6    1.53    0.80
  10   4   6    2.30    0.88
  11   4   6    1.54    1.01
  11   4   6    2.53    0.79
  11   4   6    1.65    0.77
  12   4   6    0.84    1.17
 -11   5   6   -0.09    0.33
  10  -5  -6    0.28    0.25
 -10   5   6    0.08    0.25
   9  -5  -6    1.08    1.29
   9  -5  -6    0.55    0.43
  -9   5   6    0.50    0.44
   8  -5  -6    8.50    1.26
   8  -5  -6   11.03    1.57
  -8   5   6   10.97    1.85
  -8   5   6   10.28    1.78
   7  -5  -6   -0.78    0.97
   7  -5  -6    0.58    0.34
  -7   5   6   -0.08    0.92
  -7   5   6   -0.06    1.15
  -7   5   6    1.77    1.27
  -7   5   6    0.53    0.41
   6  -5  -6    1.48    0.71
   6  -5  -6    1.35    0.46
  -6   5   6    0.25    0.95
  -6   5   6    0.85    0.78
  -6   5   6    0.63    1.05
  -6   5   6    1.67    0.62
   5  -5  -6   24.36    1.69
   5  -5  -6   25.33    1.42
  -5   5   6   25.39    1.60
  -5   5   6   25.30    2.13
  -5   5   6   24.77    1.96
  -5   5   6   24.10    1.96
   4  -5  -6    1.26    0.44
  -4   5   6    0.63    0.74
  -4   5   6    0.41    0.29
  -4   5   6    0.22    0.42
  -4   5   6    0.15    0.76
   3  -5  -6   11.32    1.08
   3  -5  -6    8.89    0.61
   3  -5  -6   11.01    0.94
  -3   5   6   12.47    1.56
  -3   5   6   10.14    0.76
  -3   5   6    9.66    1.23
  -3   5   6    8.47    1.32
   2  -5  -6  150.39    5.87
   2  -5  -6  147.57    5.20
   2  -5  -6  151.94    5.89
  -2   5   6  151.43    6.18
  -2   5   6  156.15    6.52
  -2   5   6  156.78    5.33
  -2   5   6  151.30    6.43
   1  -5  -6  240.19    8.00
  -1   5   6  235.07    9.00
  -1   5   6  230.78    8.87
  -1   5   6  236.89    9.38
  -1   5   6  247.37    8.07
   0  -5  -6    4.38    0.56
   0  -5  -6    3.88    0.56
   0   5   6    3.56    0.58
   0   5   6    3.50    0.83
   0   5   6    4.49    0.39
   0   5   6    4.57    0.32
   0   5   6    4.37    0.83
  -1  -5  -6    0.94    0.24
  -1  -5  -6    0.62    0.18
   1   5   6    1.36    0.54
   1   5   6    1.49    0.23
   1   5   6    0.40    0.24
   1   5   6    0.31    0.17
   1   5   6    0.53    0.61
  -2  -5  -6   75.19    2.78
   2   5   6   75.14    2.90
   2   5   6   72.64    3.79
   2   5   6   71.14    3.37
   2   5   6   73.53    2.72
  -3  -5  -6   47.15    1.69
  -3  -5  -6   46.30    1.69
   3   5   6   46.33    2.42
   3   5   6   45.08    2.73
   3   5   6   43.19    1.87
   4   5   6   16.44    1.20
   4   5   6   16.30    1.31
   4   5   6   15.90    1.57
   5   5   6  152.66    6.75
   5   5   6  157.29    6.34
   5   5   6  169.06    6.03
   5   5   6  166.13    6.27
   6   5   6   13.31    1.64
   6   5   6   12.49    1.23
   6   5   6   11.46    0.99
   6   5   6   11.58    1.29
   7   5   6    0.03    0.76
   7   5   6    0.46    0.73
   7   5   6    0.49    0.48
   7   5   6   -0.05    0.59
   8   5   6    7.96    1.11
   8   5   6    6.69    1.21
   9   5   6    5.00    1.14
   9   5   6    6.29    1.08
   9   5   6    6.82    1.10
  10   5   6   -0.62    0.76
  10   5   6    1.22    0.96
  10   5   6    1.35    0.95
  11   5   6   42.79    2.62
 -11   6   6   -0.04    0.26
  10  -6  -6    0.02    0.19
 -10   6   6    0.07    0.21
   9  -6  -6    8.93    1.38
  -9   6   6    8.27    1.53
   8  -6  -6    0.12    0.19
  -8   6   6    0.62    0.45
  -8   6   6   -2.17    1.44
   7  -6  -6    2.58    0.66
   7  -6  -6    3.90    1.03
  -7   6   6    2.72    0.87
  -7   6   6    2.69    1.10
  -7   6   6    1.14    1.31
   6  -6  -6   58.36    3.11
   6  -6  -6   56.57    2.68
  -6   6   6   60.73    2.89
  -6   6   6   58.12    3.45
  -6   6   6   58.88    3.48
   5  -6  -6  171.57    6.56
   5  -6  -6  183.09    7.27
  -5   6   6  182.08    7.59
  -5   6   6  187.15    7.74
  -5   6   6  186.61    6.80
   4  -6  -6    4.02    0.67
   4  -6  -6    5.50    0.63
  -4   6   6    5.56    1.16
  -4   6   6    5.59    0.75
  -4   6   6    5.68    0.99
  -4   6   6    6.04    1.16
   3  -6  -6    2.67    0.40
   3  -6  -6    2.62    0.63
   3  -6  -6    2.33    0.49
  -3   6   6    1.14    0.85
  -3   6   6    2.27    0.62
  -3   6   6    3.41    0.52
  -3   6   6    1.77    0.86
   2  -6  -6   33.00    1.86
   2  -6  -6   31.96    1.82
   2  -6  -6   33.51    1.40
  -2   6   6   34.63    1.49
  -2   6   6   34.74    2.40
  -2   6   6   34.76    2.16
  -2   6   6   34.05    2.09
   1  -6  -6   80.49    3.00
   1  -6  -6   82.44    3.50
   1  -6  -6   80.04    3.44
  -1   6   6   82.07    3.74
  -1   6   6   86.04    3.08
  -1   6   6   86.28    3.90
  -1   6   6   86.42    4.25
   0  -6  -6    9.13    0.70
   0  -6  -6    9.15    0.57
   0  -6  -6    8.83    0.72
   0   6   6   10.04    1.31
   0   6   6   12.48    1.62
   0   6   6    9.16    0.58
  -1  -6  -6   75.66    2.99
  -1  -6  -6   79.06    3.08
  -1  -6  -6   76.99    2.89
   1   6   6   76.24    3.97
   1   6   6   75.89    2.87
   1   6   6   80.14    3.70
  -2  -6  -6   37.71    1.56
  -2  -6  -6   36.08    1.50
   2   6   6   36.89    2.18
   2   6   6   35.63    2.48
   2   6   6   35.22    1.56
  -3  -6  -6    0.09    0.05
  -3  -6  -6    0.05    0.05
   3   6   6   -0.26    0.49
   3   6   6   -0.22    0.20
   3   6   6    0.00    0.67
   3   6   6    0.12    0.39
   4   6   6   17.39    1.03
   4   6   6   14.74    1.42
   4   6   6   15.57    1.90
   4   6   6   13.74    1.23
   5   6   6   13.61    1.56
   5   6   6   13.39    0.99
   5   6   6   12.95    1.36
   5   6   6   14.74    1.34
   6   6   6    0.87    0.45
   6   6   6    2.37    0.87
   6   6   6    1.69    0.77
   6   6   6    1.13    0.74
   7   6   6   23.48    1.63
   7   6   6   23.99    1.92
   7   6   6   26.39    2.17
   8   6   6  200.93    8.06
   8   6   6  194.70    7.58
   8   6   6  187.82    7.60
   9   6   6   30.19    2.22
   9   6   6   32.09    2.55
   9   6   6   35.62    2.26
  10   6   6   -1.69    1.09
  10   6   6   -0.78    2.02
  10   6   6    0.37    0.84
  11   6   6   22.11    2.16
  11   6   6   18.09    2.00
  10  -7  -6   11.16    1.61
 -10   7   6   11.11    1.87
   9  -7  -6   66.43    3.70
  -9   7   6   61.23    4.04
   8  -7  -6    8.01    1.28
  -8   7   6    9.54    2.11
  -8   7   6    7.53    1.59
  -8   7   6    7.29    1.40
   7  -7  -6    2.13    0.67
  -7   7   6    1.82    0.67
  -7   7   6    0.42    1.03
  -7   7   6    1.22    1.42
   6  -7  -6   13.49    1.31
  -6   7   6   15.66    2.01
  -6   7   6   14.64    1.89
  -6   7   6   15.63    1.52
   5  -7  -6   52.62    2.47
   5  -7  -6   60.55    3.09
  -5   7   6   57.96    2.70
  -5   7   6   58.47    3.36
  -5   7   6   53.79    3.39
   4  -7  -6    3.52    0.60
   4  -7  -6    4.25    0.86
  -4   7   6    3.74    0.93
  -4   7   6    3.13    1.15
  -4   7   6    3.01    0.64
   3  -7  -6   27.63    1.70
   3  -7  -6   21.93    1.23
  -3   7   6   29.47    2.35
  -3   7   6   23.56    1.81
  -3   7   6   26.87    1.39
   2  -7  -6   39.48    2.13
   2  -7  -6   40.59    2.08
   2  -7  -6   40.41    1.73
  -2   7   6   40.32    2.77
  -2   7   6   39.38    2.34
  -2   7   6   40.65    1.80
   1  -7  -6    0.66    0.25
   1  -7  -6    1.05    0.33
   1  -7  -6    1.19    0.39
  -1   7   6    1.50    0.34
  -1   7   6    2.20    0.87
  -1   7   6    1.63    0.88
  -1   7   6    1.39    0.43
   0  -7  -6    6.22    0.82
   0   7   6    5.41    0.84
   0   7   6    5.34    0.52
   0   7   6    4.93    1.06
   0   7   6    6.68    1.24
  -1  -7  -6    3.63    0.49
  -1  -7  -6    3.50    0.52
  -1  -7  -6    4.06    0.50
   1   7   6    3.58    0.47
   1   7   6    3.55    0.99
   1   7   6    1.76    0.82
  -2  -7  -6    3.87    0.38
  -2  -7  -6    3.09    0.31
  -2  -7  -6    4.26    0.89
   2   7   6    4.68    1.02
   2   7   6    3.99    1.04
   2   7   6    3.72    0.69
  -3  -7  -6    6.18    0.38
  -3  -7  -6    6.41    0.42
  -3  -7  -6    6.32    1.05
   3   7   6    6.63    0.92
   3   7   6    5.55    0.60
   3   7   6    5.74    1.25
   3   7   6    7.18    1.17
  -4  -7  -6  178.28    7.20
   4   7   6  171.74    6.83
   4   7   6  184.99    6.57
   4   7   6  171.22    7.65
   4   7   6  183.11    7.24
  -5  -7  -6   65.14    3.37
   5   7   6   70.56    2.96
   5   7   6   64.96    3.22
   5   7   6   63.04    3.39
   5   7   6   67.14    3.85
  -6  -7  -6    2.45    0.76
   6   7   6    3.46    1.01
   6   7   6    2.47    1.00
   6   7   6    2.24    0.59
   7   7   6   16.44    2.07
   7   7   6   17.50    2.15
   7   7   6   18.76    1.65
   8   7   6   84.25    3.81
   8   7   6   76.26    4.35
   9   7   6    0.48    0.73
   9   7   6   -0.44    1.11
  10   7   6    1.05    1.38
  10   7   6    3.23    1.10
  11   7   6   -1.05    1.18
  11   7   6    0.26    1.59
  10  -8  -6    5.43    1.23
 -10   8   6    5.17    1.61
   9  -8  -6   30.45    2.30
  -9   8   6   28.13    2.58
   8  -8  -6    2.35    0.70
  -8   8   6    2.79    2.44
  -8   8   6    4.37    2.26
  -8   8   6    2.10    0.74
   7  -8  -6    0.99    0.44
  -7   8   6    1.80    0.77
  -7   8   6   -0.89    1.63
  -7   8   6    0.85    1.10
   6  -8  -6   13.46    1.38
  -6   8   6   13.90    2.10
  -6   8   6   15.30    1.57
  -6   8   6   14.02    2.18
   5  -8  -6    0.13    0.70
   5  -8  -6   -0.03    0.09
  -5   8   6   -0.44    1.23
  -5   8   6   -0.08    0.65
  -5   8   6    0.24    0.29
   4  -8  -6    2.87    0.64
   4  -8  -6    3.07    0.69
  -4   8   6    2.26    0.63
  -4   8   6    3.48    0.83
  -4   8   6    4.08    1.31
   3  -8  -6    0.92    0.46
   3  -8  -6    0.05    0.08
   3  -8  -6    0.32    0.20
  -3   8   6   -0.06    0.42
  -3   8   6    0.18    0.26
   2  -8  -6    9.23    0.89
   2  -8  -6    8.10    0.75
  -2   8   6    8.44    1.12
  -2   8   6    8.84    1.62
  -2   8   6    7.60    0.76
   1  -8  -6    0.78    0.27
   1  -8  -6    0.93    0.40
   1  -8  -6    0.44    0.24
  -1   8   6    0.73    0.36
  -1   8   6    0.84    0.40
  -1   8   6   -0.33    0.89
   0  -8  -6  100.96    4.62
   0  -8  -6   96.18    4.05
   0  -8  -6  100.56    3.89
   0  -8  -6   96.29    3.76
   0   8   6   99.92    5.10
   0   8   6   94.59    4.19
   0   8   6  103.15    3.83
  -1  -8  -6   66.70    2.71
  -1  -8  -6   69.19    2.77
  -1  -8  -6   64.85    3.47
  -1  -8  -6   66.87    2.88
   1   8   6   72.55    4.04
   1   8   6   64.14    2.75
  -2  -8  -6    0.17    0.11
  -2  -8  -6    0.38    0.38
  -2  -8  -6    1.04    0.65
  -2  -8  -6    0.14    0.11
   2   8   6   -0.05    0.29
  -3  -8  -6    3.63    0.35
  -3  -8  -6    4.20    0.96
  -3  -8  -6    4.10    0.32
   3   8   6    4.88    0.87
   3   8   6    4.91    0.66
  -4  -8  -6   89.27    4.31
   4   8   6   93.78    4.12
   4   8   6   87.57    3.69
  -5  -8  -6    0.58    0.69
   5   8   6    0.72    0.44
   5   8   6   -0.82    0.81
  -6  -8  -6   25.30    1.99
   6   8   6   25.52    1.69
   7   8   6   -0.02    0.57
   8   8   6    6.91    1.59
   8   8   6    8.47    1.22
   9   8   6    3.14    0.97
   9   8   6    2.01    1.40
  10   8   6    0.84    1.59
  10   8   6    1.49    0.93
  11   8   6   -1.62    1.86
   9  -9  -6    0.04    0.14
   8  -9  -6    0.87    0.47
  -8   9   6    0.54    0.75
   7  -9  -6    1.52    0.58
  -7   9   6    0.54    1.84
  -7   9   6    1.75    0.69
  -7   9   6    1.39    1.32
   6  -9  -6    3.42    0.77
  -6   9   6    4.50    1.81
  -6   9   6    6.12    1.17
   5  -9  -6    1.05    0.39
   5  -9  -6    1.80    0.93
  -5   9   6    1.56    0.81
  -5   9   6   -0.05    1.28
  -5   9   6    1.31    0.61
  -4   9   6   11.95    2.08
  -4   9   6    9.61    1.43
  -4   9   6   12.34    1.25
   3  -9  -6   42.79    2.19
   3  -9  -6   60.50    3.34
   3  -9  -6   48.79    2.65
  -3   9   6   47.36    2.32
  -3   9   6   49.72    3.39
  -3   9   6   45.04    2.77
   2  -9  -6    0.81    0.50
   2  -9  -6    0.64    0.30
  -2   9   6    1.62    1.11
  -2   9   6    0.25    0.23
  -2   9   6    0.16    0.43
   1  -9  -6    1.34    0.68
   1  -9  -6    0.97    0.30
   1  -9  -6    0.83    0.49
   1  -9  -6    0.58    0.28
  -1   9   6    0.42    0.39
  -1   9   6    0.62    0.33
  -1   9   6    0.61    0.95
   0  -9  -6   32.74    1.75
   0  -9  -6   35.05    1.91
   0  -9  -6   38.01    2.48
   0  -9  -6   37.01    1.77
   0   9   6   35.31    1.80
   0   9   6   32.76    2.16
  -1  -9  -6    9.47    0.70
  -1  -9  -6    8.92    1.37
  -1  -9  -6    8.82    0.95
  -1  -9  -6    9.97    0.83
   1   9   6   11.89    0.95
  -2  -9  -6   43.13    2.01
  -2  -9  -6   40.95    2.68
  -2  -9  -6   43.55    1.85
  -2  -9  -6   41.32    2.32
   2   9   6   45.05    2.11
  -3  -9  -6    5.51    0.49
  -3  -9  -6    5.59    1.08
   3   9   6    5.80    0.77
   3   9   6    4.08    1.05
  -4  -9  -6   10.38    0.58
  -4  -9  -6    9.39    1.45
  -4  -9  -6    9.50    0.52
   4   9   6    9.73    1.02
  -5  -9  -6    3.01    0.92
   5   9   6    0.72    0.58
  -6  -9  -6   14.33    1.60
   6   9   6   16.04    1.45
  -7  -9  -6   -0.53    0.80
   7   9   6    0.18    0.68
  -8  -9  -6   27.34    2.36
   8   9   6   29.84    2.12
   9   9   6   13.47    1.74
   9   9   6    8.89    1.99
  10   9   6    2.90    1.86
   9 -10  -6    0.40    0.41
   8 -10  -6    1.38    0.61
   7 -10  -6   15.32    1.53
  -7  10   6   10.57    2.62
   6 -10  -6    0.19    0.19
  -6  10   6    1.79    1.14
  -6  10   6   -0.26    1.91
   5 -10  -6    0.21    0.20
  -5  10   6   -0.04    1.57
  -5  10   6    0.83    0.90
   4 -10  -6   10.30    1.94
   4 -10  -6    9.72    1.29
  -4  10   6    9.77    2.06
  -4  10   6    8.17    1.12
   3 -10  -6    8.16    1.06
   3 -10  -6   12.30    1.56
  -3  10   6    8.92    1.79
  -3  10   6   10.87    1.20
   2 -10  -6   36.72    2.02
   2 -10  -6   40.92    2.33
   2 -10  -6   41.19    2.29
  -2  10   6   40.60    3.23
  -2  10   6   39.87    2.11
   1 -10  -6   11.58    1.15
   1 -10  -6    9.39    0.88
   1 -10  -6   11.67    1.58
  -1  10   6   11.02    1.06
  -1  10   6   10.75    1.89
   0 -10  -6    2.66    0.68
   0 -10  -6    3.34    1.03
   0 -10  -6    3.03    0.54
   0 -10  -6    2.94    0.64
   0  10   6    3.84    0.69
  -1 -10  -6   -0.04    0.81
  -1 -10  -6    0.58    0.24
  -1 -10  -6    0.30    0.15
  -1 -10  -6    0.28    0.62
   1  10   6    0.66    0.50
  -2 -10  -6   27.21    1.46
  -2 -10  -6   23.65    1.23
  -2 -10  -6   24.55    2.14
  -2 -10  -6   20.53    1.80
   2  10   6   24.42    1.55
  -3 -10  -6    0.38    0.18
  -3 -10  -6    1.18    0.25
  -3 -10  -6    0.45    0.79
   3  10   6    1.34    0.55
  -4 -10  -6   18.31    1.97
  -4 -10  -6   16.35    0.92
  -4 -10  -6   17.57    0.85
   4  10   6   17.47    1.44
  -5 -10  -6   22.83    2.23
   5  10   6   25.48    1.74
  -6 -10  -6    0.22    0.98
   6  10   6    1.31    0.68
  -7 -10  -6   -0.53    0.96
   7  10   6   -0.65    0.77
  -8 -10  -6   13.40    1.89
   8  10   6   12.16    1.67
  -9 -10  -6    2.88    1.53
   9  10   6    3.15    1.85
  10  10   6    0.51    2.26
   8 -11  -6    0.21    0.37
   7 -11  -6    5.34    1.07
  -7  11   6    5.15    2.92
   6 -11  -6   11.47    1.63
  -6  11   6    6.36    1.58
   5 -11  -6   13.67    1.38
  -5  11   6   13.65    1.61
  -5  11   6   15.17    2.57
   4 -11  -6    3.06    0.76
  -4  11   6    1.98    1.83
  -4  11   6    2.70    0.97
   3 -11  -6    1.84    0.63
  -3  11   6    1.22    1.57
  -3  11   6    0.91    0.93
   2 -11  -6   26.23    1.83
   2 -11  -6   25.60    2.39
  -2  11   6   28.03    1.85
  -2  11   6   25.40    3.04
   1 -11  -6    2.77    0.56
   1 -11  -6    0.87    0.94
   1 -11  -6    2.85    0.71
  -1  11   6    1.81    0.72
   0 -11  -6    3.26    0.54
   0 -11  -6    5.22    1.19
   0 -11  -6    3.66    0.72
   0  11   6    4.42    0.80
  -1 -11  -6   34.41    2.76
  -1 -11  -6   34.87    1.92
  -1 -11  -6   31.85    1.67
   1  11   6   33.49    2.30
  -2 -11  -6    0.66    0.86
  -2 -11  -6    0.22    0.14
  -2 -11  -6    0.31    0.19
   2  11   6   -0.53    0.56
  -3 -11  -6    0.71    0.26
  -3 -11  -6   -0.17    0.93
  -3 -11  -6    0.49    0.18
   3  11   6    1.67    0.69
  -4 -11  -6    4.21    0.39
  -4 -11  -6    5.07    0.60
  -4 -11  -6    5.18    1.25
   4  11   6    3.83    0.91
  -5 -11  -6    4.73    1.42
   5  11   6    4.39    1.01
  -6 -11  -6    4.35    1.46
   6  11   6    5.34    1.12
  -7 -11  -6    3.47    1.52
   7  11   6    0.81    0.99
  -8 -11  -6    2.54    1.54
  -9 -11  -6   -1.29    1.78
   8 -12  -6    0.68    0.47
   7 -12  -6    1.29    0.71
   6 -12  -6    5.44    1.13
  -6  12   6   13.81    4.48
   5 -12  -6    4.50    0.98
  -5  12   6    6.23    2.52
  -5  12   6    3.38    1.37
   4 -12  -6    0.24    0.25
  -4  12   6   -2.04    1.08
  -4  12   6    1.23    2.08
   3 -12  -6   16.19    1.45
  -3  12   6   13.30    2.61
  -3  12   6   12.42    1.54
   2 -12  -6    4.48    1.42
   2 -12  -6    1.23    0.44
  -2  12   6   -0.68    1.75
  -2  12   6    2.16    0.95
   1 -12  -6    4.13    1.42
   1 -12  -6    5.26    0.93
  -1  12   6    3.75    0.91
   0 -12  -6    0.20    0.19
   0 -12  -6    0.79    1.25
   0 -12  -6    0.10    0.18
   0  12   6    0.84    0.71
  -1 -12  -6   11.34    1.00
  -1 -12  -6    8.99    1.92
  -1 -12  -6   10.22    0.83
   1  12   6    9.57    1.24
  -2 -12  -6    6.81    0.89
  -2 -12  -6    3.99    0.57
  -2 -12  -6    4.81    1.29
   2  12   6    4.95    1.00
  -3 -12  -6    0.18    0.12
  -3 -12  -6   -0.14    1.07
  -3 -12  -6    0.62    0.26
   3  12   6   -0.29    0.78
  -4 -12  -6    5.43    0.66
  -4 -12  -6    5.06    1.56
  -4 -12  -6    5.20    0.46
   4  12   6    6.25    1.17
  -5 -12  -6   -0.18    1.33
   5  12   6    0.55    0.89
  -6 -12  -6    3.01    1.40
   6  12   6    7.29    1.37
  -7 -12  -6    0.90    1.81
   7 -13  -6    3.48    0.87
   6 -13  -6    2.58    0.81
   5 -13  -6    1.34    0.73
   4 -13  -6    7.04    1.26
  -4  13   6    3.14    1.44
   3 -13  -6    4.20    0.97
  -3  13   6    3.05    1.29
   2 -13  -6    1.19    0.46
  -2  13   6    1.49    1.09
   1 -13  -6    0.65    0.32
  -1  13   6    1.39    0.99
   0 -13  -6    8.77    1.26
   0  13   6    5.74    1.20
  -1 -13  -6    1.06    0.40
   1  13   6    1.03    0.90
  -2 -13  -6    9.34    0.78
  -2 -13  -6   10.01    0.93
   2  13   6    8.89    1.34
  -3 -13  -6    3.08    0.57
  -3 -13  -6    1.44    0.34
   3  13   6    0.50    1.14
  -4 -13  -6    0.20    0.12
  -4 -13  -6    0.92    0.27
   4  13   6   -0.08    1.05
   5  13   6   33.51    2.60
   6 -14  -6    0.25    0.27
   5 -14  -6    0.24    0.25
   4 -14  -6    2.92    0.82
   3 -14  -6    0.31    0.27
  -3  14   6    1.26    1.56
  -2  14   6    4.95    1.49
   1 -14  -6    8.93    1.34
  -1  14   6    8.20    1.57
   0 -14  -6    0.81    0.40
   0  14   6    2.69    1.25
  -1 -14  -6   27.21    1.81
   1  14   6   26.54    2.43
  -2 -14  -6   12.27    1.08
  -2 -14  -6   12.46    0.95
   2  14   6   10.68    1.64
  -3 -14  -6    0.35    0.20
  -3 -14  -6    0.27    0.17
  -4 -14  -6   16.72    1.11
  -4 -14  -6   15.99    0.98
   4 -15  -6    0.77    0.41
   3 -15  -6   15.63    1.56
   2 -15  -6   10.74    1.51
   1 -15  -6    0.31    0.26
   0 -15  -6    7.55    1.15
  -1 -15  -6   71.43    3.55
  -2 -15  -6   43.65    2.42
  -3 -15  -6    1.23    0.39
  -3 -15  -6    0.92    0.29
  -4 -15  -6    0.14    0.11
  -4 -15  -6    0.20    0.15
   1 -16  -6    1.83    0.61
   0 -16  -6   -0.02    0.09
  -1 -16  -6    6.33    1.03
  -2 -16  -6    5.70    0.87
  -3 -16  -6    0.63    0.30
   1 -12   7    0.08    0.17
   2 -12   7    4.60    1.16
   4 -12   7    2.74    0.81
   5 -12   7    1.35    0.64
  -6  12  -7    0.14    0.23
  -1 -11   7    9.91    1.76
   0 -11   7    2.78    1.19
   1 -11   7    7.19    1.44
   2 -11   7    0.48    0.42
  -3  11  -7    1.38    0.57
   3 -11   7    1.23    0.55
  -4  11  -7    9.86    1.41
   4 -11   7    8.27    1.46
  -5  11  -7    0.98    0.50
   5 -11   7    0.95    0.53
  -6  11  -7    0.17    0.19
   6 -11   7    0.27    0.28
  -7  11  -7    5.93    1.16
  -8  11  -7    0.21    0.22
  -9  11  -7    0.54    0.39
  -3 -10   7    8.67    1.71
  -1 -10   7    1.00    0.55
   0 -10   7    8.11    1.49
  -1  10  -7    4.67    0.91
   1 -10   7    3.90    1.04
  -2  10  -7    2.76    0.74
   2 -10   7    3.14    0.94
   3 -10   7    8.99    1.55
  -4  10  -7    2.61    0.72
   4 -10   7    0.46    0.43
  -5  10  -7    2.28    0.68
   5 -10   7    3.33    1.13
  -6  10  -7    3.74    0.83
   6 -10   7    2.34    0.95
  -7  10  -7   18.66    1.67
   7 -10   7   20.05    2.04
  -8  10  -7    0.01    0.10
  -9  10  -7    0.34    0.28
 -10  10  -7    1.04    0.48
  -5  -9   7    1.77    0.83
  -4  -9   7    5.24    1.32
  -3  -9   7    6.08    1.40
  -2  -9   7    2.81    0.85
  -1  -9   7    0.74    0.48
   0   9  -7    3.82    0.83
   0  -9   7    3.99    1.07
  -1   9  -7    1.81    1.17
  -2   9  -7    1.05    0.44
  -2   9  -7    1.06    1.06
  -3   9  -7   25.37    1.87
  -3   9  -7   26.95    2.41
   3  -9   7   28.59    2.23
  -4   9  -7    2.89    1.17
  -4   9  -7    4.23    0.90
   4  -9   7    2.54    0.72
   4  -9   7    1.86    1.50
  -5   9  -7    3.92    1.42
  -5   9  -7    3.48    0.80
   5  -9   7    4.67    1.07
   5  -9   7    1.73    1.60
  -6   9  -7    1.00    0.46
   6  -9   7    0.76    0.46
   6  -9   7   -0.27    1.55
  -7   9  -7    4.06    0.88
   7  -9   7    3.68    0.86
   7  -9   7    3.30    1.88
  -8   9  -7    1.78    0.53
   8  -9   7   -0.27    1.74
  -9   9  -7    2.42    0.69
   9  -9   7    3.16    2.00
 -10   9  -7    3.67    0.98
 -11   9  -7   25.25    2.11
  -6  -8   7    1.12    0.58
  -5  -8   7    1.12    0.60
  -5  -8   7    0.50    0.41
  -3  -8   7    0.05    0.18
   2   8  -7    0.10    0.16
   2   8  -7   -0.80    1.15
  -2  -8   7    0.22    0.24
   1   8  -7   13.79    1.32
   1   8  -7   19.13    1.97
  -1  -8   7   13.33    1.94
   0   8  -7   10.08    1.68
   0   8  -7    6.79    1.05
   0  -8   7    9.32    2.02
   0  -8   7    7.65    1.87
  -1   8  -7   10.57    1.49
  -1   8  -7    8.89    1.21
   1  -8   7    8.21    1.37
   1  -8   7    8.67    1.90
  -2   8  -7   -1.11    0.80
  -2   8  -7   -0.03    0.06
   2  -8   7    0.74    0.42
   2  -8   7   -0.10    1.26
  -3   8  -7    1.23    0.93
  -3   8  -7    1.36    0.49
   3  -8   7    1.10    1.45
   3  -8   7    1.39    0.56
  -4   8  -7    2.93    1.04
  -4   8  -7    3.35    0.74
   4  -8   7    3.80    0.90
  -5   8  -7    0.28    0.22
   5  -8   7    0.12    0.21
   5  -8   7   -1.90    1.10
  -6   8  -7    4.90    1.17
  -6   8  -7    4.81    1.12
   6  -8   7    4.10    0.98
   6  -8   7    4.87    1.60
  -7   8  -7   35.39    2.21
  -7   8  -7   34.57    2.65
   7  -8   7   32.26    2.33
   7  -8   7   28.18    2.88
  -8   8  -7   56.44    3.20
   8  -8   7   63.29    3.98
  -9   8  -7    8.81    1.37
   9  -8   7    6.46    1.77
 -10   8  -7    0.02    0.10
  10  -8   7    0.45    1.64
 -11   8  -7   43.70    3.40
 -12   8  -7   20.35    1.86
  -6  -7   7    1.15    0.58
  -5  -7   7    2.81    0.95
   4   7  -7    9.09    1.70
  -4  -7   7   10.90    1.72
   3   7  -7    3.88    0.83
   3   7  -7    3.33    1.49
  -3  -7   7    3.71    1.03
  -3  -7   7    2.75    1.63
   2   7  -7    3.36    0.76
   2   7  -7    3.23    1.15
  -2  -7   7    1.90    1.55
  -2  -7   7    3.30    0.93
  -2  -7   7    2.34    0.76
   1   7  -7    1.41    0.94
   1   7  -7    2.36    0.62
  -1  -7   7    2.37    0.80
  -1  -7   7    6.01    1.74
   0   7  -7    6.23    1.16
   0   7  -7    4.47    0.85
   0  -7   7    8.76    1.89
   0  -7   7    4.86    1.59
  -1   7  -7    3.73    0.93
  -1   7  -7    4.21    0.82
   1  -7   7    5.08    1.56
   1  -7   7    4.14    0.98
  -2   7  -7    0.53    0.27
  -2   7  -7    0.44    0.68
   2  -7   7    0.94    1.14
   2  -7   7    0.48    0.29
  -3   7  -7   32.27    1.99
  -3   7  -7   35.62    2.24
   3  -7   7   27.70    2.14
   3  -7   7   30.19    2.70
  -4   7  -7  112.31    4.83
  -4   7  -7  109.58    5.00
   4  -7   7  113.91    5.24
   4  -7   7  117.13    5.86
  -5   7  -7   16.51    1.32
  -5   7  -7   14.98    1.64
   5  -7   7   15.06    1.44
   5  -7   7   16.45    2.17
  -6   7  -7    1.33    0.45
  -6   7  -7    1.44    0.81
   6  -7   7    2.39    1.13
   6  -7   7    1.93    0.63
  -7   7  -7   79.03    4.05
  -7   7  -7   75.56    3.67
   7  -7   7   76.10    4.42
   7  -7   7   74.49    3.90
  -8   7  -7   68.92    3.50
  -8   7  -7   67.71    3.86
   8  -7   7   67.57    3.67
   8  -7   7   72.37    4.10
  -9   7  -7    3.28    1.39
  -9   7  -7    2.27    0.59
   9  -7   7    1.53    1.34
 -10   7  -7    8.96    1.39
  10  -7   7    6.02    1.56
 -11   7  -7    0.14    0.23
 -12   7  -7    0.19    0.18
 -13   7  -7   -0.07    0.11
  -7  -6   7    0.75    0.57
  -6  -6   7    5.49    1.32
   5   6  -7   -0.37    1.26
  -5  -6   7    0.57    0.39
   4   6  -7    4.11    1.24
   4   6  -7    2.20    0.58
  -4  -6   7    6.64    1.88
  -4  -6   7    3.03    0.91
   3   6  -7    4.56    0.91
   3   6  -7    5.82    1.23
  -3  -6   7    4.57    1.06
   2   6  -7    1.61    0.52
   2   6  -7    1.10    0.83
  -2  -6   7    1.28    1.39
  -2  -6   7    1.56    0.66
   1   6  -7   15.49    1.55
   1   6  -7   13.84    1.23
  -1  -6   7   14.72    1.89
  -1  -6   7   15.06    2.19
   0   6  -7  111.94    4.71
   0   6  -7  105.56    4.61
   0  -6   7  104.72    5.13
   0  -6   7  109.32    5.65
  -1   6  -7   25.00    1.65
  -1   6  -7   25.62    1.77
   1  -6   7   24.32    1.93
   1  -6   7   26.23    2.38
  -2   6  -7    0.04    0.10
  -2   6  -7   -0.09    0.59
   2  -6   7    0.03    0.11
   2  -6   7    0.47    0.93
  -3   6  -7   95.95    4.08
  -3   6  -7   94.16    4.13
   3  -6   7   84.30    4.76
  -4   6  -7  191.26    7.57
  -4   6  -7  200.68    7.50
   4  -6   7  190.98    7.83
   4  -6   7  190.38    8.30
  -5   6  -7    6.00    0.91
  -5   6  -7    3.11    0.80
   5  -6   7    4.13    1.24
   5  -6   7    3.92    0.88
  -6   6  -7    4.56    0.79
  -6   6  -7    2.89    0.87
   6  -6   7    3.55    1.16
   6  -6   7    3.42    0.80
  -7   6  -7    0.08    0.11
  -7   6  -7   -0.55    0.68
   7  -6   7   -0.24    0.95
   7  -6   7    0.00    0.08
  -8   6  -7    6.36    1.26
  -8   6  -7    6.75    0.95
   8  -6   7    6.20    1.30
   8  -6   7    5.37    0.99
  -9   6  -7    0.23    1.03
  -9   6  -7    0.01    0.09
   9  -6   7   -1.07    1.07
 -10   6  -7   20.14    2.15
 -10   6  -7   17.61    1.50
  10  -6   7   16.76    2.00
 -11   6  -7    4.65    0.94
 -12   6  -7    0.13    0.27
 -13   6  -7   16.75    1.63
 -14   6  -7    3.63    0.88
  -8  -5   7    2.71    0.94
  -7  -5   7    1.54    0.69
   6   5  -7    7.51    1.64
  -6  -5   7    6.48    1.41
  -6  -5   7    8.25    2.08
   5   5  -7    3.69    1.27
   5   5  -7    2.91    0.78
  -5  -5   7    3.38    1.04
  -5  -5   7    3.81    2.07
   4   5  -7   59.10    3.18
   4   5  -7   63.86    3.32
  -4  -5   7   63.99    3.86
  -4  -5   7   66.30    4.18
   3   5  -7   25.67    1.77
   3   5  -7   25.16    1.89
  -3  -5   7   26.00    2.14
  -3  -5   7   24.46    2.52
   2   5  -7    2.40    0.59
   2   5  -7    3.94    0.88
  -2  -5   7    2.96    0.81
  -2  -5   7    2.05    1.23
   1   5  -7   49.68    2.68
  -1  -5   7   53.76    3.49
  -1  -5   7   56.59    3.21
   0   5  -7  200.74    7.61
   0   5  -7  204.32    7.75
   0  -5   7  194.60    8.20
   0  -5   7  205.43    8.74
  -1   5  -7   22.94    1.51
  -1   5  -7   23.51    1.57
   1  -5   7   21.73    1.74
   1  -5   7   23.61    2.20
  -2   5  -7   -0.05    0.05
  -2   5  -7    0.04    0.48
   2  -5   7    0.22    0.22
   2  -5   7    0.50    0.86
  -3   5  -7    0.71    0.45
  -3   5  -7    0.14    0.14
   3  -5   7    0.05    0.14
   3  -5   7   -0.33    0.84
  -4   5  -7   11.87    1.00
  -4   5  -7   13.24    1.23
   4  -5   7   10.82    1.11
   4  -5   7   11.63    1.76
  -5   5  -7    0.81    0.32
  -5   5  -7    1.69    0.60
   5  -5   7    1.03    0.86
   5  -5   7    0.83    0.37
  -6   5  -7   21.68    1.45
  -6   5  -7   24.56    1.78
   6  -5   7   20.65    1.58
   6  -5   7   20.93    2.03
  -7   5  -7   30.38    2.10
  -7   5  -7   27.81    1.74
   7  -5   7   26.68    1.87
  -8   5  -7    1.27    0.80
   8  -5   7   -0.05    0.81
   8  -5   7    0.83    0.39
  -9   5  -7   18.17    1.41
  -9   5  -7   16.51    1.95
   9  -5   7   20.04    1.90
 -10   5  -7    6.80    1.05
 -10   5  -7    7.54    1.39
  10  -5   7    7.14    1.41
 -11   5  -7    4.52    0.93
  11  -5   7    6.10    1.47
 -12   5  -7    0.57    0.33
 -13   5  -7   38.06    2.54
 -14   5  -7    8.10    1.33
  -8  -4   7   21.27    3.58
   7   4  -7   12.27    2.00
  -7  -4   7   14.67    2.59
  -7  -4   7   16.81    2.36
   6   4  -7    1.20    1.21
   6   4  -7    0.29    0.27
  -6  -4   7    0.59    0.40
  -6  -4   7    0.05    1.73
   5   4  -7   18.28    1.84
   5   4  -7   23.86    1.76
  -5  -4   7   21.61    2.03
  -5  -4   7   23.27    2.59
   4   4  -7  125.02    5.57
   4   4  -7  131.16    5.43
  -4  -4   7  129.98    6.31
  -4  -4   7  138.79    6.31
   3   4  -7   33.56    2.11
   3   4  -7   35.42    2.43
  -3  -4   7   34.43    2.50
  -3  -4   7   37.40    2.97
   2   4  -7    1.39    0.44
   2   4  -7    1.64    0.61
  -2  -4   7    2.11    1.03
  -2  -4   7    1.91    0.66
   1   4  -7    0.66    0.33
   1   4  -7    0.92    0.54
  -1  -4   7    0.83    0.42
  -1  -4   7    1.70    0.93
  -1  -4   7    1.31    0.65
   0   4  -7   16.02    1.20
   0   4  -7   17.53    1.24
   0  -4   7   18.77    1.84
   0  -4   7   15.25    1.26
  -1   4  -7   -0.06    0.39
  -1   4  -7    0.59    0.28
   1  -4   7    0.39    0.28
   1  -4   7    0.76    0.76
   1  -4   7    0.30    0.48
  -2   4  -7    3.31    0.63
  -2   4  -7    3.27    0.62
   2  -4   7    5.01    1.00
   2  -4   7    3.38    0.63
  -3   4  -7   39.78    2.08
  -3   4  -7   39.14    2.01
   3  -4   7   36.49    1.99
   3  -4   7   41.45    2.33
   3  -4   7   35.25    2.58
  -4   4  -7    0.45    0.47
  -4   4  -7    0.75    0.29
   4  -4   7    1.10    0.71
   4  -4   7    0.51    0.27
   4  -4   7    1.91    0.63
  -5   4  -7   10.63    1.30
  -5   4  -7    9.62    0.84
  -5   4  -7    9.97    1.05
   5  -4   7   11.50    1.05
   5  -4   7    9.08    1.43
  -6   4  -7   16.03    1.37
  -6   4  -7   18.58    1.60
  -6   4  -7   16.40    1.17
   6  -4   7   15.22    1.66
  -7   4  -7    3.23    0.64
  -7   4  -7    3.46    0.85
  -7   4  -7    3.50    0.79
   7  -4   7    4.47    1.02
   7  -4   7    4.18    0.80
  -8   4  -7    8.83    1.25
  -8   4  -7    9.31    0.90
  -8   4  -7    9.64    1.40
  -8   4  -7   11.72    1.81
   8  -4   7   10.45    1.31
   8  -4   7    8.95    1.36
  -9   4  -7   47.46    3.15
  -9   4  -7   47.08    2.91
  -9   4  -7   47.09    2.47
   9  -4   7   44.24    2.73
 -10   4  -7   23.84    2.21
 -10   4  -7   23.71    1.66
  10  -4   7   23.43    1.93
 -11   4  -7   -0.22    1.20
 -11   4  -7    0.52    0.33
  11  -4   7   -0.74    0.86
 -12   4  -7    0.07    0.14
 -13   4  -7    8.23    1.79
 -14   4  -7    5.43    1.04
  -9  -3   7    5.60    1.26
   8   3  -7   55.23    3.73
  -8  -3   7   50.35    3.63
   7   3  -7   29.47    2.54
  -7  -3   7   27.49    3.02
  -7  -3   7   26.88    2.44
   6   3  -7    2.42    0.65
   6   3  -7    4.09    1.14
  -6  -3   7    2.15    1.62
  -6  -3   7    3.64    1.02
   5   3  -7    1.71    0.83
   5   3  -7    0.64    0.37
  -5  -3   7    0.60    0.46
  -5  -3   7    1.27    1.40
   4   3  -7   12.37    1.49
   4   3  -7    9.62    1.16
  -4  -3   7   13.06    1.97
  -4  -3   7   13.48    1.78
   3   3  -7    0.46    0.29
   3   3  -7    0.23    0.94
   3   3  -7    0.81    0.53
  -3  -3   7   -0.14    0.85
  -3  -3   7    0.76    0.42
   2   3  -7    1.23    0.84
   2   3  -7    1.52    0.47
   2   3  -7    1.40    0.49
  -2  -3   7    0.89    0.62
  -2  -3   7    0.47    0.91
  -2  -3   7    1.80    0.60
   1   3  -7   30.67    1.76
   1   3  -7   28.88    1.60
  -1  -3   7   26.64    2.09
  -1  -3   7   29.87    2.41
  -1  -3   7   27.49    1.59
   0   3  -7    0.08    0.14
   0   3  -7    0.29    0.38
   0  -3   7   -0.25    0.66
   0  -3   7   -0.02    0.05
   0  -3   7   -0.21    0.40
  -1   3  -7    0.17    0.19
  -1   3  -7    0.54    0.35
   1  -3   7    0.83    0.46
   1  -3   7    0.51    0.68
   1  -3   7    0.14    0.39
  -2   3  -7   15.55    1.07
  -2   3  -7   17.22    1.12
   2  -3   7   16.49    1.64
   2  -3   7   14.79    1.24
   2  -3   7   13.31    1.04
  -3   3  -7    0.18    0.14
  -3   3  -7    0.46    0.28
  -3   3  -7    0.39    0.35
   3  -3   7    1.01    0.72
   3  -3   7    0.41    0.40
   3  -3   7    0.17    0.13
  -4   3  -7   36.69    1.85
  -4   3  -7   39.62    2.75
  -4   3  -7   36.34    1.92
  -4   3  -7   34.97    2.06
   4  -3   7   33.94    2.21
   4  -3   7   35.46    2.45
  -5   3  -7   14.29    1.91
  -5   3  -7   16.17    1.21
  -5   3  -7   14.32    1.19
  -5   3  -7   14.88    1.02
   5  -3   7   12.76    1.16
   5  -3   7   14.11    1.50
   5  -3   7   15.03    1.17
  -6   3  -7   61.94    2.94
  -6   3  -7   55.74    3.36
  -6   3  -7   56.94    2.95
  -6   3  -7   62.43    2.72
   6  -3   7   60.55    3.30
   6  -3   7   59.80    2.89
  -7   3  -7    0.78    1.09
  -7   3  -7   -0.12    0.49
  -7   3  -7    0.68    0.24
   7  -3   7    1.39    0.45
   7  -3   7    1.78    0.79
  -8   3  -7   -0.04    0.08
  -8   3  -7   -0.31    0.60
  -8   3  -7    0.07    0.11
  -8   3  -7    0.00    1.05
   8  -3   7   -0.46    0.72
   8  -3   7    0.01    0.09
  -9   3  -7    3.34    0.73
  -9   3  -7    2.64    1.20
  -9   3  -7    3.01    0.95
  -9   3  -7    5.43    1.12
   9  -3   7    4.91    0.97
 -10   3  -7    3.28    0.64
 -10   3  -7    3.70    0.90
 -10   3  -7    3.93    1.24
 -10   3  -7    4.01    1.09
  10  -3   7    3.65    0.89
 -11   3  -7   37.89    2.90
 -11   3  -7   41.08    2.32
 -12   3  -7    0.14    0.16
 -13   3  -7    0.88    0.39
 -14   3  -7    0.68    0.38
 -15   3  -7    2.85    0.73
  -9  -2   7    1.79    1.14
   8   2  -7    5.36    1.72
  -8  -2   7    4.60    1.19
   7   2  -7    1.29    0.52
   7   2  -7    2.48    1.20
  -7  -2   7    1.20    0.57
  -7  -2   7    1.40    1.65
   6   2  -7    6.63    1.09
   6   2  -7    6.32    1.13
  -6  -2   7    7.49    1.70
   5   2  -7    5.62    0.88
   5   2  -7    6.77    0.96
  -5  -2   7    6.83    1.32
  -5  -2   7    9.08    1.65
   4   2  -7    3.05    0.99
   4   2  -7    1.77    0.62
   4   2  -7    1.33    0.38
  -4  -2   7    0.93    1.04
  -4  -2   7    0.52    0.39
   3   2  -7    1.57    0.53
   3   2  -7    2.96    0.85
   3   2  -7    2.44    0.57
  -3  -2   7    2.77    0.77
  -3  -2   7    2.21    1.04
   2   2  -7   13.32    1.08
   2   2  -7   15.15    1.03
   2   2  -7   12.45    1.26
  -2  -2   7   11.38    1.61
   1   2  -7    0.36    0.37
   1   2  -7    1.00    0.43
  -1  -2   7   -0.56    0.71
  -1  -2   7    0.58    0.43
  -1  -2   7    0.86    0.42
   0   2  -7   23.72    1.42
   0   2  -7   23.96    1.28
   0  -2   7   21.68    2.01
   0  -2   7   22.87    1.26
   0  -2   7   23.73    1.67
  -1   2  -7    0.51    0.88
  -1   2  -7    0.67    0.26
  -1   2  -7    0.57    0.29
   1  -2   7    0.50    0.28
   1  -2   7    0.46    0.32
   1  -2   7    0.31    0.63
  -2   2  -7   50.92    2.23
  -2   2  -7   48.77    2.29
  -2   2  -7   51.10    2.59
  -2   2  -7   47.97    3.06
   2  -2   7   50.38    3.01
   2  -2   7   52.77    2.21
   2  -2   7   49.70    2.57
  -3   2  -7   -0.10    0.27
  -3   2  -7    0.67    0.89
  -3   2  -7    0.06    0.09
   3  -2   7    0.58    0.34
   3  -2   7    0.42    0.24
   3  -2   7    0.30    0.57
  -4   2  -7    0.06    0.77
  -4   2  -7    0.06    0.09
  -4   2  -7    0.07    0.10
  -4   2  -7    0.05    0.34
   4  -2   7    0.11    0.36
   4  -2   7    0.09    0.11
   4  -2   7    2.90    0.81
  -5   2  -7    5.30    0.54
  -5   2  -7    5.08    0.76
  -5   2  -7    7.07    1.33
   5  -2   7    6.82    1.23
   5  -2   7    6.68    0.91
   5  -2   7    4.86    0.73
  -6   2  -7    1.71    0.39
  -6   2  -7    2.53    0.58
  -6   2  -7    1.50    0.44
   6  -2   7    2.54    0.82
   6  -2   7    1.86    0.62
   6  -2   7    1.86    0.48
  -7   2  -7  126.36    5.28
  -7   2  -7  127.53    4.95
  -7   2  -7  131.26    5.64
  -7   2  -7  125.19    5.21
   7  -2   7  129.98    5.51
   7  -2   7  129.72    5.15
  -8   2  -7    1.78    0.39
  -8   2  -7    1.46    0.47
  -8   2  -7    2.26    0.74
  -8   2  -7    1.18    0.97
   8  -2   7    1.75    0.75
   8  -2   7    2.10    0.52
  -9   2  -7   -0.05    0.99
  -9   2  -7    0.15    0.16
  -9   2  -7    0.71    0.70
  -9   2  -7    0.42    0.27
   9  -2   7    0.41    0.69
 -10   2  -7    0.87    0.38
 -10   2  -7    0.77    0.89
 -10   2  -7    1.87    0.96
 -10   2  -7    0.62    0.33
 -10   2  -7    0.54    0.23
  10  -2   7    0.63    0.69
 -11   2  -7    9.17    1.13
 -11   2  -7    8.26    1.51
 -11   2  -7    9.16    1.27
  11  -2   7   11.47    1.06
 -12   2  -7    1.64    0.54
 -12   2  -7    1.21    1.20
 -13   2  -7    6.61    1.06
 -14   2  -7    7.65    1.16
 -15   2  -7    1.55    0.54
 -10  -1   7    2.92    1.07
  -9  -1   7    0.00    0.19
   8   1  -7    1.82    1.42
  -8  -1   7    1.79    1.87
  -8  -1   7    1.24    0.64
   7   1  -7    0.78    0.99
   7   1  -7    1.01    0.46
  -7  -1   7    1.82    1.51
  -7  -1   7    0.69    0.49
   6   1  -7    3.59    0.79
   6   1  -7    5.01    1.00
  -6  -1   7    4.44    1.05
  -6  -1   7    4.25    1.43
   5   1  -7    0.15    0.14
   5   1  -7   -0.73    1.00
   5   1  -7    0.02    0.60
  -5  -1   7   -0.23    1.03
  -5  -1   7    0.26    0.26
   4   1  -7   11.18    1.01
   4   1  -7   11.39    1.28
   4   1  -7   11.14    1.07
  -4  -1   7   12.94    1.74
   3   1  -7   16.81    1.34
   3   1  -7   16.58    1.09
   3   1  -7   19.55    1.36
  -3  -1   7   17.50    1.56
  -3  -1   7   14.37    1.87
   2   1  -7   33.36    1.89
   2   1  -7   35.60    1.83
   2   1  -7   33.47    1.62
  -2  -1   7   34.24    2.22
  -2  -1   7   34.99    2.51
   1   1  -7    1.04    0.29
   1   1  -7    1.08    1.03
   1   1  -7    1.30    0.36
  -1  -1   7    1.52    0.39
  -1  -1   7    1.28    0.74
  -1  -1   7    0.86    0.35
   0   1  -7    2.05    1.04
   0   1  -7    1.63    0.35
   0   1  -7    1.59    0.40
   0  -1   7    1.78    0.39
   0  -1   7    1.65    0.72
   0  -1   7    1.94    0.56
  -1   1  -7    0.95    0.35
  -1   1  -7    0.53    0.19
  -1   1  -7    1.08    0.90
  -1   1  -7    1.21    0.28
   1  -1   7    1.36    0.59
   1  -1   7    1.10    0.38
   1  -1   7    0.89    0.28
  -2   1  -7    0.08    0.23
  -2   1  -7    0.85    0.33
  -2   1  -7    0.57    0.21
  -2   1  -7    0.14    0.84
   2  -1   7    0.43    0.59
   2  -1   7    0.74    0.30
   2  -1   7    0.82    0.30
  -3   1  -7  127.31    4.87
  -3   1  -7  120.11    4.94
   3  -1   7  126.64    5.54
   3  -1   7  116.03    4.90
   3  -1   7  126.92    4.58
  -4   1  -7   21.29    1.29
  -4   1  -7   24.88    1.91
  -4   1  -7   22.84    1.41
  -4   1  -7   22.56    1.21
   4  -1   7   23.62    1.29
   4  -1   7   21.88    1.82
   4  -1   7   22.99    1.40
  -5   1  -7    1.18    0.83
  -5   1  -7    1.31    0.30
  -5   1  -7    1.09    0.39
  -5   1  -7    1.80    0.47
   5  -1   7    1.74    0.41
   5  -1   7    1.97    0.78
   5  -1   7    1.10    0.44
  -6   1  -7    0.03    0.06
  -6   1  -7   -0.64    0.67
  -6   1  -7   -0.40    0.35
  -6   1  -7    0.22    0.16
   6  -1   7   -0.23    0.58
   6  -1   7    0.37    0.45
   6  -1   7    0.02    0.06
  -7   1  -7   27.92    1.76
  -7   1  -7   27.49    1.59
  -7   1  -7   26.27    2.00
  -7   1  -7   26.00    1.39
   7  -1   7   26.23    1.50
   7  -1   7   25.80    1.70
   7  -1   7   28.34    1.95
  -8   1  -7    3.16    0.61
  -8   1  -7    3.60    0.55
  -8   1  -7    4.09    0.85
  -8   1  -7    3.42    1.00
   8  -1   7    3.58    0.80
  -9   1  -7    0.56    0.25
  -9   1  -7    0.36    0.22
  -9   1  -7    1.04    0.68
  -9   1  -7    0.50    0.78
   9  -1   7    0.87    0.63
 -10   1  -7   37.55    1.97
 -10   1  -7   38.89    2.60
 -10   1  -7   37.40    2.12
  10  -1   7   38.00    1.97
  10  -1   7   28.41    2.45
 -11   1  -7    4.11    0.84
 -11   1  -7    4.46    0.79
 -11   1  -7    4.43    1.28
  11  -1   7    3.17    0.53
  11  -1   7    3.37    0.58
 -12   1  -7    0.38    0.27
 -12   1  -7    0.40    0.29
 -12   1  -7    1.16    1.22
 -13   1  -7    2.70    0.63
 -14   1  -7    1.46    0.51
 -15   1  -7    7.18    1.08
 -10   0   7    1.15    0.61
  -9   0   7    0.06    0.17
   8   0  -7    0.57    0.35
   8   0  -7   -0.06    1.26
  -8   0   7    0.52    0.37
  -8   0   7   -1.89    1.71
   7   0  -7   13.32    1.65
   7   0  -7    8.85    1.30
  -7   0   7   10.88    2.42
  -7   0   7   14.72    1.98
   6   0  -7    6.07    0.98
   6   0  -7    5.50    1.31
   6   0  -7    5.82    1.06
  -6   0   7    4.48    1.43
  -6   0   7    5.29    1.23
   5   0  -7    2.89    0.69
   5   0  -7    1.14    0.85
   5   0  -7    2.73    0.64
  -5   0   7    2.62    0.81
  -5   0   7    2.95    1.33
   4   0  -7    0.07    0.39
   4   0  -7    1.42    0.49
   4   0  -7    0.51    0.67
  -4   0   7    1.17    0.86
  -4   0   7    0.99    0.50
   3   0  -7    1.26    0.52
   3   0  -7    0.91    0.32
   3   0  -7    0.59    0.35
  -3   0   7    0.93    0.44
  -3   0   7    0.13    0.69
   2   0  -7    1.70    0.97
   2   0  -7    4.19    0.92
   2   0  -7    3.40    0.45
  -2   0   7    5.79    1.22
  -2   0   7    4.09    0.94
   1   0  -7   67.69    2.57
   1   0  -7   68.46    2.68
   1   0  -7   66.42    2.98
   1   0  -7   71.78    3.83
  -1   0   7   62.47    3.53
  -1   0   7   67.76    3.32
   0   0  -7   51.76    2.66
   0   0  -7   58.06    3.30
   0   0  -7   55.64    2.14
   0   0  -7   54.38    2.47
   0   0   7   55.83    2.78
   0   0   7   59.53    2.16
   0   0   7   51.57    3.07
  -1   0  -7    8.53    0.68
  -1   0  -7    8.33    0.79
  -1   0  -7    8.42    1.58
  -1   0  -7    9.13    0.59
   1   0   7    8.68    0.56
   1   0   7    8.82    1.37
   1   0   7    8.33    0.81
  -2   0  -7    2.53    0.42
  -2   0  -7    2.34    0.35
  -2   0  -7    2.70    0.95
   2   0   7    2.34    0.53
   2   0   7    3.29    0.41
   2   0   7    1.96    0.68
  -3   0  -7   17.04    1.12
  -3   0  -7   17.17    1.58
  -3   0  -7   16.05    0.94
  -3   0  -7   16.19    0.96
   3   0   7   17.53    1.13
   3   0   7   16.79    1.00
   3   0   7   14.77    1.42
  -4   0  -7    3.15    0.83
  -4   0  -7    3.39    0.46
  -4   0  -7    4.18    0.57
  -4   0  -7    4.11    0.64
   4   0   7    4.22    0.56
   4   0   7    4.04    0.91
   4   0   7    2.51    0.47
  -5   0  -7   17.33    1.12
  -5   0  -7   17.99    0.99
  -5   0  -7   20.08    1.70
  -5   0  -7   20.65    1.25
   5   0   7   19.16    1.14
   5   0   7   17.71    1.15
   5   0   7   18.34    1.58
  -6   0  -7   31.25    1.65
  -6   0  -7   31.41    1.48
  -6   0  -7   32.46    1.80
  -6   0  -7   32.54    2.10
   6   0   7   31.09    1.73
   6   0   7   32.74    2.10
  -7   0  -7    0.23    0.15
  -7   0  -7    0.56    0.20
  -7   0  -7   -0.10    0.71
  -7   0  -7   -0.08    0.42
   7   0   7    0.46    0.57
   7   0   7   -0.08    0.53
  -8   0  -7    0.13    0.12
  -8   0  -7    0.43    0.20
  -8   0  -7    0.37    0.69
  -8   0  -7    0.15    0.52
   8   0   7    0.84    0.61
  -9   0  -7    0.13    0.13
  -9   0  -7    0.79    0.76
  -9   0  -7    0.11    0.10
   9   0   7    0.06    0.60
   9   0   7    0.55    0.61
 -10   0  -7    3.34    1.08
 -10   0  -7    5.78    0.79
 -10   0  -7    6.05    0.87
  10   0   7    5.83    0.85
  10   0   7    6.35    0.86
 -11   0  -7   16.82    1.99
 -11   0  -7   16.91    1.20
 -12   0  -7    1.34    1.16
 -12   0  -7    0.39    0.24
 -12   0  -7    0.77    0.31
 -13   0  -7    0.27    0.18
 -13   0  -7    0.18    0.21
 -14   0  -7    8.85    1.19
 -15   0  -7    0.17    0.20
 -10   1   7   -0.04    0.18
  -9   1   7    1.37    0.64
   8  -1  -7    0.13    0.21
   8  -1  -7   -0.52    1.16
  -8   1   7    0.10    0.31
  -8   1   7    0.30    1.70
   7  -1  -7    0.65    0.87
   7  -1  -7    1.35    0.47
  -7   1   7    1.57    1.31
  -7   1   7    1.87    0.73
   6  -1  -7    1.87    0.54
   6  -1  -7    3.32    0.76
  -6   1   7    4.14    1.07
  -6   1   7   -0.38    1.19
   5  -1  -7    6.88    0.81
   5  -1  -7    7.71    0.98
   5  -1  -7    7.40    1.06
  -5   1   7    8.95    1.48
  -5   1   7    6.63    1.23
   4  -1  -7   32.87    1.65
   4  -1  -7   37.52    1.78
   4  -1  -7   33.66    2.04
  -4   1   7   35.86    2.52
  -4   1   7   31.76    2.60
   3  -1  -7    7.23    1.02
   3  -1  -7    6.68    0.70
   3  -1  -7    6.00    0.55
   3  -1  -7    5.72    1.34
  -3   1   7    7.30    1.29
  -3   1   7    7.28    1.23
   2  -1  -7   -0.03    0.29
   2  -1  -7    0.18    0.98
   2  -1  -7    0.61    0.22
   2  -1  -7    0.52    0.22
  -2   1   7    0.53    0.28
  -2   1   7    0.54    0.72
   1  -1  -7   14.30    1.77
   1  -1  -7   13.24    0.96
   1  -1  -7   10.94    1.10
   1  -1  -7   13.38    0.62
   1  -1  -7   12.86    0.68
  -1   1   7   12.35    1.14
  -1   1   7   14.00    1.45
   0  -1  -7    3.52    0.98
   0  -1  -7    2.44    0.24
   0  -1  -7    2.72    0.30
   0  -1  -7    1.61    0.32
   0   1   7    2.56    0.78
   0   1   7    2.31    0.53
  -1  -1  -7   70.06    2.82
  -1  -1  -7   65.01    3.01
  -1  -1  -7   67.56    2.46
  -1  -1  -7   68.35    3.56
   1   1   7   67.30    2.42
   1   1   7   73.59    3.67
   1   1   7   69.42    3.08
  -2  -1  -7   21.08    1.12
  -2  -1  -7   21.75    1.29
  -2  -1  -7   19.46    1.72
  -2  -1  -7   23.13    1.01
   2   1   7   20.23    1.74
   2   1   7   20.40    1.28
   2   1   7   22.17    0.95
  -3  -1  -7    1.68    0.37
  -3  -1  -7    1.60    0.32
  -3  -1  -7    1.83    0.30
  -3  -1  -7    1.10    0.66
   3   1   7    2.37    0.68
   3   1   7    1.56    0.30
  -4  -1  -7    0.34    0.14
  -4  -1  -7   -0.24    0.24
  -4  -1  -7    0.02    0.56
  -4  -1  -7    0.61    0.22
   4   1   7    0.25    0.25
   4   1   7    0.24    0.15
   4   1   7    0.31    0.47
  -5  -1  -7    7.27    0.76
  -5  -1  -7    6.52    0.48
  -5  -1  -7    5.80    0.96
  -5  -1  -7    6.98    0.59
   5   1   7    7.18    0.70
   5   1   7    8.28    1.18
  -6  -1  -7   11.53    1.00
  -6  -1  -7    9.42    0.61
  -6  -1  -7    9.18    0.70
  -6  -1  -7   11.20    1.23
   6   1   7   12.10    1.30
   6   1   7   11.35    0.96
  -7  -1  -7   42.88    2.30
  -7  -1  -7   42.71    1.81
  -7  -1  -7   42.84    1.94
  -7  -1  -7   41.98    2.39
   7   1   7   40.56    2.23
   7   1   7   44.35    2.49
  -8  -1  -7   27.41    1.30
  -8  -1  -7   26.38    1.38
  -8  -1  -7   26.90    1.85
   8   1   7   24.20    1.61
   8   1   7   23.31    1.77
  -9  -1  -7    1.61    0.35
  -9  -1  -7    1.40    0.68
  -9  -1  -7    1.31    0.34
   9   1   7    0.20    0.64
   9   1   7    1.17    0.66
 -10  -1  -7   12.79    1.02
 -10  -1  -7   10.65    1.56
 -10  -1  -7   12.98    0.96
  10   1   7   13.97    1.22
  10   1   7   11.35    1.22
 -11  -1  -7    1.35    0.35
 -11  -1  -7    1.72    0.46
 -11  -1  -7    2.33    1.10
  11   1   7    0.75    0.43
 -12  -1  -7    0.39    0.25
 -12  -1  -7   -1.02    1.23
 -12  -1  -7    0.55    0.25
 -13  -1  -7    6.79    0.90
 -13  -1  -7    6.02    0.87
 -15  -1  -7   25.97    1.65
 -15  -1  -7   24.84    1.66
 -10   2   7    0.35    0.43
   9  -2  -7    0.20    0.29
  -9   2   7    0.03    0.18
   8  -2  -7   11.07    1.57
   8  -2  -7   11.07    1.54
  -8   2   7   13.39    1.98
   7  -2  -7    1.58    0.86
   7  -2  -7    1.00    0.44
  -7   2   7    0.57    0.39
  -7   2   7    0.32    1.33
   6  -2  -7    3.31    0.77
   6  -2  -7    3.04    0.74
   6  -2  -7    2.12    0.94
  -6   2   7    1.34    1.13
  -6   2   7    3.70    1.00
   5  -2  -7    0.94    0.45
   5  -2  -7    1.06    0.40
   5  -2  -7    1.39    0.67
  -5   2   7    1.17    0.54
  -5   2   7    0.31    0.94
   4  -2  -7    0.30    0.32
   4  -2  -7    0.10    0.12
   4  -2  -7    1.52    1.37
  -4   2   7    0.09    0.15
  -4   2   7    0.53    0.88
   3  -2  -7   77.65    4.16
   3  -2  -7   84.97    3.68
   3  -2  -7   81.10    3.02
   3  -2  -7   80.74    2.96
  -3   2   7   84.69    4.20
  -3   2   7   81.36    4.07
   2  -2  -7    1.67    0.37
   2  -2  -7    3.17    1.09
  -2   2   7    3.71    1.00
  -2   2   7    1.98    0.80
   1  -2  -7   20.77    1.27
   1  -2  -7   20.37    1.80
   1  -2  -7   19.56    1.36
  -1   2   7   20.27    1.74
  -1   2   7   21.63    1.68
   0  -2  -7    0.79    0.28
   0  -2  -7    0.74    0.31
   0   2   7    0.55    0.59
   0   2   7    1.43    0.46
  -1  -2  -7   32.19    1.58
  -1  -2  -7   33.24    1.74
  -1  -2  -7   33.85    2.23
   1   2   7   37.08    2.34
   1   2   7   32.54    1.78
  -2  -2  -7    0.78    0.66
  -2  -2  -7    0.42    0.14
  -2  -2  -7    1.02    0.19
  -2  -2  -7    0.89    0.30
   2   2   7    0.63    0.25
   2   2   7    1.08    0.57
   2   2   7    0.65    0.15
  -3  -2  -7   23.51    1.13
  -3  -2  -7   25.24    1.86
  -3  -2  -7   22.92    1.24
  -3  -2  -7   23.57    1.11
   3   2   7   23.86    1.07
   3   2   7   21.80    1.23
   3   2   7   23.65    1.81
  -4  -2  -7   82.16    3.77
  -4  -2  -7   80.39    3.12
  -4  -2  -7   79.86    3.17
   4   2   7   76.29    3.88
  -5  -2  -7    0.98    0.19
  -5  -2  -7    0.43    0.61
  -5  -2  -7    1.03    0.24
  -5  -2  -7    0.68    0.37
   5   2   7    0.58    0.61
   5   2   7    0.75    0.38
  -6  -2  -7   22.49    1.09
  -6  -2  -7   21.16    0.96
  -6  -2  -7   24.22    1.49
  -6  -2  -7   20.54    1.60
   6   2   7   20.10    1.39
   6   2   7   22.56    1.75
   6   2   7   22.56    1.52
  -7  -2  -7    1.80    0.31
  -7  -2  -7    1.63    0.27
  -7  -2  -7    2.45    0.57
   7   2   7    1.56    0.60
   7   2   7    1.25    0.70
   7   2   7    1.80    0.76
  -8  -2  -7    2.17    0.67
  -8  -2  -7    2.05    0.34
  -8  -2  -7    2.27    0.32
   8   2   7    1.71    0.63
   8   2   7    1.73    0.74
  -9  -2  -7    6.51    1.07
  -9  -2  -7    7.76    0.57
  -9  -2  -7    7.78    0.59
   9   2   7    8.97    1.17
   9   2   7    8.52    1.03
 -10  -2  -7  206.00    8.76
 -10  -2  -7  220.72    7.87
  10   2   7  226.21    8.01
  10   2   7  226.69    8.33
 -11  -2  -7   94.90    4.88
 -11  -2  -7   96.53    3.78
  11   2   7   95.35    3.64
  11   2   7   95.86    3.61
 -12  -2  -7    4.03    0.61
 -12  -2  -7    4.48    1.37
 -12  -2  -7    4.53    0.67
 -13  -2  -7    4.84    0.83
 -13  -2  -7    5.42    0.72
 -15  -2  -7   12.43    0.95
 -10   3   7    1.02    0.61
   9  -3  -7    0.36    0.33
  -9   3   7    0.28    0.43
   8  -3  -7    0.17    0.19
   8  -3  -7   -0.07    1.10
  -8   3   7   -0.86    1.69
  -8   3   7    0.18    0.24
   7  -3  -7   29.24    2.07
   7  -3  -7   28.51    1.84
  -7   3   7   27.17    2.68
  -7   3   7   30.68    2.50
   6  -3  -7   13.98    1.38
   6  -3  -7   12.14    1.13
   6  -3  -7   16.05    1.61
  -6   3   7   10.16    1.75
  -6   3   7   21.34    2.87
   5  -3  -7    6.18    0.67
   5  -3  -7    4.72    0.87
   5  -3  -7    6.61    0.76
  -5   3   7    4.50    1.18
  -5   3   7    6.40    1.26
   4  -3  -7    1.05    0.34
   4  -3  -7    0.52    1.16
   4  -3  -7    0.57    0.39
   4  -3  -7    1.80    0.63
  -4   3   7    0.48    0.84
  -4   3   7    1.23    0.51
   3  -3  -7   24.15    2.28
   3  -3  -7   28.46    1.12
   3  -3  -7   30.20    1.78
   3  -3  -7   28.75    1.13
  -3   3   7   28.15    2.00
  -3   3   7   29.47    2.27
   2  -3  -7   -0.02    0.88
   2  -3  -7    0.54    0.23
   2  -3  -7    1.05    0.33
  -2   3   7    0.13    0.73
  -2   3   7    1.57    0.47
   1  -3  -7    8.00    0.72
   1  -3  -7    7.33    0.75
   1  -3  -7    8.94    1.44
  -1   3   7    6.29    1.17
  -1   3   7    9.39    1.19
   0   3   7  150.17    6.25
   0   3   7  136.84    5.65
  -1  -3  -7    9.08    0.73
  -1  -3  -7    8.49    0.63
  -1  -3  -7    9.46    1.35
   1   3   7    8.66    1.32
   1   3   7    8.00    0.73
  -2  -3  -7    3.77    0.85
  -2  -3  -7    3.61    0.35
  -2  -3  -7    5.39    0.68
   2   3   7    3.70    0.56
   2   3   7    3.66    0.22
   2   3   7    2.85    0.80
  -3  -3  -7    8.68    0.53
  -3  -3  -7   11.06    1.38
  -3  -3  -7    8.24    0.61
   3   3   7    8.98    0.58
   3   3   7    7.90    1.26
  -4  -3  -7   17.15    0.87
  -4  -3  -7   15.79    0.75
  -4  -3  -7   16.34    1.04
   4   3   7   18.45    1.65
   4   3   7   16.81    1.30
  -5  -3  -7    8.74    0.43
  -5  -3  -7    8.55    0.83
  -5  -3  -7    8.57    0.48
   5   3   7    7.73    0.84
   5   3   7    9.88    1.42
   5   3   7    8.76    1.07
  -6  -3  -7  293.31   10.56
   6   3   7  293.48   10.62
   6   3   7  293.96   10.54
   6   3   7  287.57   11.06
  -7  -3  -7  239.34    9.03
   7   3   7  240.53    8.90
   7   3   7  242.03    9.03
   7   3   7  241.44    9.34
  -8  -3  -7   14.57    1.36
   8   3   7   13.89    1.47
   8   3   7   13.44    1.27
  -9  -3  -7    4.40    1.12
   9   3   7    4.40    0.96
   9   3   7    4.32    0.86
 -10  -3  -7  142.81    6.42
  10   3   7  152.91    5.90
  10   3   7  143.92    5.64
 -11  -3  -7   51.10    3.36
  11   3   7   45.67    2.34
  11   3   7   52.84    2.41
 -12  -3  -7    2.66    1.50
 -10   4   7   14.90    2.41
   9  -4  -7    2.75    0.77
  -9   4   7    2.56    0.96
   8  -4  -7    1.37    0.51
   8  -4  -7   -0.95    1.08
  -8   4   7    0.05    1.73
  -8   4   7    0.94    0.73
   7  -4  -7   15.25    1.49
   7  -4  -7   16.98    1.53
  -7   4   7   16.59    2.10
  -7   4   7   18.72    1.89
   6  -4  -7    8.10    1.19
   6  -4  -7    7.80    0.99
   6  -4  -7    9.31    1.02
  -6   4   7    8.13    1.52
  -6   4   7    6.88    1.28
   5  -4  -7   -0.46    0.41
   5  -4  -7    0.09    0.49
   5  -4  -7    0.24    0.24
  -5   4   7   -0.23    0.96
  -5   4   7    0.11    0.24
   4  -4  -7   43.31    1.81
   4  -4  -7   46.54    1.82
   4  -4  -7   49.46    2.54
  -4   4   7   44.11    2.79
  -4   4   7   44.50    2.94
   3  -4  -7   14.03    1.15
  -3   4   7   15.31    1.61
  -3   4   7   18.30    1.52
  -3   4   7   13.48    1.54
   2  -4  -7    5.42    0.80
   2  -4  -7    2.99    0.60
  -2   4   7    4.47    0.94
  -2   4   7    3.80    0.87
  -2   4   7    4.38    1.01
   1  -4  -7    7.12    0.68
   1  -4  -7    7.04    0.72
  -1   4   7    6.41    0.94
  -1   4   7    7.76    1.09
  -1   4   7    8.90    1.39
   0  -4  -7   31.26    1.66
   0  -4  -7   31.83    1.59
   0   4   7   30.31    1.77
   0   4   7   33.07    2.05
   0   4   7   29.64    2.20
  -1  -4  -7    7.72    0.60
  -1  -4  -7    8.30    0.75
   1   4   7    8.08    1.23
   1   4   7    9.04    0.77
   1   4   7   11.04    1.54
  -2  -4  -7  199.21    7.23
   2   4   7  201.50    6.86
   2   4   7  207.16    8.32
   2   4   7  203.19    6.83
   2   4   7  207.67    8.05
   3   4   7  400.45   14.95
   3   4   7  412.35   13.63
   3   4   7  412.35   14.46
   3   4   7  391.01   13.71
  -4  -4  -7   18.41    0.77
  -4  -4  -7   18.17    0.81
   4   4   7   15.44    1.56
   4   4   7   19.98    1.17
   4   4   7   16.60    1.41
   4   4   7   22.08    1.07
   5   4   7   17.16    1.70
   5   4   7   17.98    1.09
   5   4   7   17.95    1.45
   5   4   7   16.85    1.22
  -6  -4  -7  188.73    7.03
   6   4   7  173.28    6.92
   6   4   7  177.09    7.03
   6   4   7  186.60    7.55
   6   4   7  187.76    6.80
  -7  -4  -7  150.37    6.20
   7   4   7  155.45    6.11
   7   4   7  156.47    6.21
   7   4   7  154.24    6.54
  -8  -4  -7    0.08    0.67
   8   4   7    1.11    0.88
   8   4   7    0.98    0.71
  -9  -4  -7    9.82    1.43
   9   4   7   11.12    1.46
   9   4   7    8.87    1.19
 -10  -4  -7    0.17    0.87
  10   4   7    1.54    0.87
  10   4   7    0.79    0.73
  10   4   7   -0.32    0.90
 -11  -4  -7    3.28    1.31
  11   4   7    5.31    1.30
  11   4   7    2.99    1.32
  11   4   7    1.18    0.95
  12   4   7    0.56    1.11
 -10   5   7    8.00    1.74
   9  -5  -7    0.42    0.32
  -9   5   7    0.04    0.19
   8  -5  -7   10.72    1.45
  -8   5   7    8.98    1.61
   7  -5  -7   10.45    1.16
   7  -5  -7   10.87    1.53
  -7   5   7   13.28    2.06
   6  -5  -7    0.04    0.74
   6  -5  -7    0.01    0.10
   6  -5  -7   -0.20    0.58
  -6   5   7    1.20    1.25
  -6   5   7    0.20    0.30
   5  -5  -7    3.35    0.62
   5  -5  -7    4.70    0.90
   5  -5  -7    4.06    0.58
  -5   5   7    3.50    1.14
  -5   5   7    5.48    1.20
   4  -5  -7   14.15    0.83
   4  -5  -7   13.22    1.21
   4  -5  -7   14.89    0.84
  -4   5   7   17.04    1.83
  -4   5   7   13.94    1.77
   3  -5  -7   13.31    1.14
  -3   5   7   16.98    1.79
  -3   5   7   13.19    1.32
   2  -5  -7   61.89    2.82
   2  -5  -7   55.99    3.01
  -2   5   7   57.81    3.13
  -2   5   7   51.69    2.97
  -2   5   7   62.75    3.47
  -1   5   7  272.97   10.19
  -1   5   7  250.67    9.64
  -1   5   7  239.14    9.51
   0  -5  -7   38.09    1.89
   0  -5  -7   37.43    1.83
   0   5   7   38.09    2.60
   0   5   7   37.36    2.04
   0   5   7   37.71    2.35
  -1  -5  -7    4.18    0.55
  -1  -5  -7    4.27    0.59
   1   5   7    3.56    0.82
   1   5   7    2.67    0.87
   1   5   7    2.81    0.52
   2   5   7  169.97    6.31
   2   5   7  170.65    7.60
   2   5   7  176.91    7.17
   2   5   7  205.65    6.24
   3   5   7  244.52    8.90
   3   5   7  250.01    9.54
   3   5   7  271.51   10.26
   3   5   7  253.77    8.71
   4   5   7    0.85    0.44
   4   5   7    0.49    0.65
   4   5   7    1.10    0.77
   4   5   7    0.46    0.27
   5   5   7    2.82    0.52
   5   5   7    2.72    0.68
   5   5   7    2.85    0.97
   5   5   7    3.10    0.82
   6   5   7    1.64    0.72
   6   5   7    0.03    0.76
   6   5   7    0.70    0.43
   6   5   7    1.08    0.70
   7   5   7    7.52    1.21
   7   5   7    8.91    1.06
   7   5   7   11.68    1.67
   8   5   7    5.14    0.86
   8   5   7    3.49    1.13
   9   5   7    4.33    0.90
   9   5   7    4.82    1.21
   9   5   7    4.84    1.08
  10   5   7    5.24    1.30
  10   5   7    4.72    0.96
  10   5   7    5.53    1.29
  11   5   7   20.26    3.01
  11   5   7   12.91    1.65
  10  -6  -7    0.02    0.16
 -10   6   7    0.00    0.22
   9  -6  -7    4.58    1.06
  -9   6   7    3.89    1.20
   8  -6  -7    3.61    0.88
  -8   6   7    1.77    0.73
   7  -6  -7   11.29    1.24
   7  -6  -7   12.56    1.61
  -7   6   7   10.52    1.72
  -7   6   7    9.79    1.90
   6  -6  -7   10.17    1.09
   6  -6  -7   10.41    1.36
   6  -6  -7   11.60    1.16
  -6   6   7   10.77    1.65
  -6   6   7    8.45    1.25
  -6   6   7    8.97    1.77
   5  -6  -7   99.29    4.38
   5  -6  -7   84.16    3.47
  -5   6   7   92.79    4.74
  -5   6   7   93.54    3.78
   4  -6  -7   19.01    1.04
   4  -6  -7   22.39    1.58
  -4   6   7   19.19    1.24
  -4   6   7   24.00    2.18
  -4   6   7   19.24    1.72
   3  -6  -7    3.33    0.63
   3  -6  -7    2.20    0.56
   3  -6  -7    3.30    0.35
  -3   6   7    2.48    1.15
  -3   6   7    2.50    0.65
  -3   6   7    3.27    0.48
   2  -6  -7   52.20    2.55
   2  -6  -7   50.09    2.53
  -2   6   7   48.67    2.79
  -2   6   7   52.64    3.23
   1  -6  -7  200.48    7.28
  -1   6   7  182.11    7.52
  -1   6   7  197.44    8.22
   0  -6  -7    1.14    0.31
   0  -6  -7    0.42    0.21
   0   6   7    1.07    0.19
   0   6   7    0.74    0.65
   0   6   7    0.89    0.84
   0   6   7    0.39    0.22
  -1  -6  -7    9.96    0.73
  -1  -6  -7   10.13    0.73
   1   6   7   12.90    1.80
   1   6   7   10.75    0.74
   1   6   7    9.69    0.56
   1   6   7   11.62    1.47
  -2  -6  -7    0.41    0.16
  -2  -6  -7    0.23    0.13
   2   6   7    0.73    0.39
   2   6   7    0.24    0.19
   2   6   7    0.90    0.70
   2   6   7    0.16    0.67
  -3  -6  -7   14.45    0.71
  -3  -6  -7   14.43    0.70
   3   6   7   14.52    1.11
   3   6   7   15.85    0.86
   3   6   7   15.28    1.43
   3   6   7   13.62    1.86
   4   6   7   12.35    1.41
   4   6   7   11.51    1.63
   4   6   7   12.75    0.85
   4   6   7   12.15    1.14
   5   6   7    0.54    0.61
   5   6   7    0.14    0.73
   5   6   7    0.43    0.32
   5   6   7    0.24    0.72
   6   6   7    0.84    0.75
   6   6   7    1.62    0.83
   6   6   7    2.20    1.05
   6   6   7    1.19    0.48
   7   6   7   48.03    2.83
   7   6   7   49.65    3.23
   7   6   7   54.54    2.61
   8   6   7    2.66    1.10
   8   6   7    4.62    1.24
   8   6   7    2.18    0.67
   9   6   7    5.59    1.14
   9   6   7    6.83    1.43
   9   6   7    7.82    1.54
  10   6   7   16.02    1.69
  10   6   7   14.33    1.95
  10   6   7   13.85    1.80
  11   6   7   10.33    1.63
  11   6   7   13.25    1.91
  10  -7  -7    0.93    0.51
   9  -7  -7   26.54    2.13
  -9   7   7   18.90    2.52
   8  -7  -7   13.85    1.81
  -8   7   7   12.59    2.08
   7  -7  -7    0.53    0.33
  -7   7   7    1.20    0.55
  -7   7   7    0.32    1.69
   6  -7  -7   11.16    1.50
  -6   7   7    9.68    1.29
  -6   7   7    6.94    1.72
  -6   7   7    9.44    1.62
   5  -7  -7   68.10    3.49
   5  -7  -7   68.76    2.85
  -5   7   7   70.56    3.19
  -5   7   7   63.02    3.80
  -5   7   7   70.98    4.18
   4  -7  -7    6.17    0.99
   4  -7  -7    7.27    0.75
  -4   7   7    6.33    1.53
  -4   7   7    8.50    1.39
  -4   7   7    7.64    0.82
   3  -7  -7   15.80    1.27
   3  -7  -7   17.42    0.92
   3  -7  -7   17.16    1.34
  -3   7   7   16.76    1.54
  -3   7   7   17.41    1.07
   2  -7  -7    2.63    0.37
   2  -7  -7    2.56    0.60
   2  -7  -7    2.63    0.54
  -2   7   7    2.84    0.70
  -2   7   7    3.99    1.22
  -2   7   7    3.04    0.41
   1  -7  -7   14.30    1.07
   1  -7  -7   13.26    0.99
   1  -7  -7   13.71    0.73
  -1   7   7   11.66    1.13
  -1   7   7   13.67    0.78
  -1   7   7   10.80    1.63
   0  -7  -7   11.98    0.70
   0  -7  -7   11.97    0.90
   0  -7  -7   11.36    0.84
   0   7   7    9.79    0.95
   0   7   7   10.58    0.68
   0   7   7   12.38    1.79
  -1  -7  -7   11.53    0.81
  -1  -7  -7   12.83    0.81
   1   7   7   11.44    0.72
   1   7   7   10.59    0.94
   1   7   7   12.26    1.78
  -2  -7  -7    0.20    0.10
  -2  -7  -7    0.32    0.14
   2   7   7   -0.13    0.45
   2   7   7    0.29    0.25
   2   7   7    0.20    0.82
  -3  -7  -7   61.91    2.32
  -3  -7  -7   61.71    2.29
   3   7   7   65.14    3.77
   3   7   7   59.00    2.80
   3   7   7   61.97    2.53
   4   7   7    5.68    1.29
   4   7   7    6.48    0.92
   4   7   7    5.37    0.65
   5   7   7   20.43    2.05
   5   7   7   19.87    1.27
   5   7   7   18.59    1.64
   6   7   7   14.51    1.59
   6   7   7   13.36    1.97
   6   7   7   13.57    1.15
   7   7   7   33.92    2.05
   7   7   7   37.86    2.83
   8   7   7    2.94    1.24
   8   7   7    5.01    0.93
   9   7   7    0.38    0.75
   9   7   7   -1.59    1.22
  10   7   7    8.35    1.39
  10   7   7   10.86    1.94
  11   7   7   -0.03    1.13
  11   7   7   -1.72    1.57
   9  -8  -7   17.38    1.75
   8  -8  -7    5.37    1.09
   7  -8  -7   14.40    1.43
  -7   8   7   13.10    2.00
  -7   8   7   10.59    2.26
   6  -8  -7    1.69    0.58
  -6   8   7    1.69    0.67
  -6   8   7    3.00    1.09
  -6   8   7    3.48    1.69
   5  -8  -7    5.53    0.87
   5  -8  -7    6.35    1.05
  -5   8   7    6.18    1.67
  -5   8   7    6.85    1.31
  -5   8   7    6.87    1.02
   4  -8  -7    2.09    0.63
  -4   8   7    2.09    0.68
  -4   8   7    2.15    1.35
  -4   8   7    2.54    0.82
   3  -8  -7   18.77    1.47
   3  -8  -7   16.27    1.65
   3  -8  -7   19.97    1.13
  -3   8   7   20.28    2.26
  -3   8   7   21.10    1.27
  -3   8   7   19.40    1.85
   2  -8  -7    0.23    0.17
   2  -8  -7    0.03    0.38
  -2   8   7    0.14    0.20
  -2   8   7   -0.26    0.98
  -2   8   7   -0.63    0.37
   1  -8  -7   30.08    1.72
   1  -8  -7   27.99    1.69
   1  -8  -7   25.81    1.56
  -1   8   7   28.69    1.39
  -1   8   7   25.72    1.84
  -1   8   7   28.39    2.50
   0  -8  -7    7.17    0.66
   0  -8  -7    9.29    0.81
   0  -8  -7    7.22    0.68
   0   8   7    9.32    1.22
   0   8   7   11.53    1.81
   0   8   7    8.42    0.69
  -1  -8  -7    3.41    0.53
  -1  -8  -7    4.22    0.56
  -1  -8  -7    4.52    0.66
   1   8   7    5.47    1.35
   1   8   7    3.68    0.51
  -2  -8  -7    4.30    0.40
  -2  -8  -7    4.96    0.47
   2   8   7    4.70    0.60
   2   8   7    5.90    1.38
   2   8   7    6.12    0.89
  -3  -8  -7   78.46    2.85
  -3  -8  -7   75.65    2.82
   3   8   7   77.56    4.51
   3   8   7   73.61    3.08
   3   8   7   73.41    3.41
   4   8   7   -0.08    0.88
   4   8   7    0.26    0.37
   4   8   7   -1.24    0.67
   5   8   7    2.68    0.90
   5   8   7    3.48    1.11
   5   8   7    3.22    0.64
   6   8   7   21.07    1.44
   6   8   7   16.38    2.32
   7   8   7    2.44    1.36
   7   8   7    0.52    0.60
   8   8   7    1.52    0.74
   8   8   7    1.55    1.32
   9   8   7    5.77    1.65
   9   8   7    3.08    0.95
  10   8   7   10.76    2.20
  10   8   7   18.05    1.92
  11   8   7    3.41    2.02
   9  -9  -7    1.65    0.89
   8  -9  -7    0.23    0.24
   7  -9  -7   18.89    1.71
  -7   9   7   17.04    2.80
   6  -9  -7    0.81    0.41
  -6   9   7    0.36    1.94
  -6   9   7    0.84    1.78
   5  -9  -7    5.93    1.09
  -5   9   7    8.94    1.89
  -5   9   7    6.14    1.12
   4  -9  -7   15.04    1.35
   4  -9  -7   12.86    1.23
  -4   9   7   12.24    1.87
  -4   9   7   14.77    1.36
  -4   9   7   11.21    2.15
   3  -9  -7    4.52    0.71
   3  -9  -7    5.55    0.96
  -3   9   7    4.13    0.73
  -3   9   7    4.42    1.02
  -3   9   7    5.38    1.48
   2  -9  -7    0.30    0.23
   2  -9  -7    0.53    0.49
  -2   9   7    0.67    0.52
  -2   9   7    0.92    1.30
  -2   9   7    0.63    0.37
   1  -9  -7   29.82    1.52
   1  -9  -7   27.94    1.64
   1  -9  -7   28.73    1.76
  -1   9   7   29.32    1.54
  -1   9   7   27.92    2.62
   0  -9  -7   11.89    0.97
   0  -9  -7   10.87    0.84
   0  -9  -7   11.19    0.98
   0   9   7   11.61    0.94
   0   9   7   11.93    2.08
  -1  -9  -7    4.16    0.55
  -1  -9  -7    3.58    0.60
  -1  -9  -7    3.61    0.65
   1   9   7    0.62    1.06
   1   9   7    3.45    0.57
  -2  -9  -7   13.10    0.87
  -2  -9  -7   12.22    0.78
   2   9   7   13.95    1.01
   2   9   7   11.11    2.01
   2   9   7   13.26    1.43
  -3  -9  -7    3.74    0.33
  -3  -9  -7    3.83    0.37
  -3  -9  -7    3.27    1.00
   3   9   7    4.15    0.68
   3   9   7    3.09    1.21
  -4  -9  -7    1.35    0.90
   4   9   7    2.44    0.58
   4   9   7    3.03    1.40
   4   9   7    2.31    1.02
  -5  -9  -7    0.77    0.86
   5   9   7    0.38    1.10
   5   9   7    0.45    0.52
  -6  -9  -7   35.03    2.51
   6   9   7   37.41    2.13
   6   9   7   29.16    3.04
   7   9   7    3.97    0.91
   7   9   7    2.46    1.52
   8   9   7    7.98    1.23
   8   9   7    9.52    2.11
   9   9   7   -0.80    1.65
   9   9   7   -0.90    1.54
  10   9   7    2.98    1.99
  11   9   7   27.48    4.07
   8 -10  -7    4.98    1.14
   7 -10  -7    0.46    0.34
  -6  10   7    1.18    2.22
   5 -10  -7    3.40    0.80
  -5  10   7    3.79    1.17
  -5  10   7    3.76    1.99
   4 -10  -7   15.47    1.42
  -4  10   7   13.92    2.49
  -4  10   7   16.32    1.54
   3 -10  -7    1.04    0.41
   3 -10  -7    0.71    0.77
  -3  10   7    1.40    1.53
  -3  10   7    0.87    0.71
   2 -10  -7    3.90    0.73
   2 -10  -7    4.78    0.83
  -2  10   7    5.02    0.82
  -2  10   7    5.01    1.52
   1 -10  -7    3.36    0.69
   1 -10  -7    3.26    0.61
   1 -10  -7    2.83    0.70
  -1  10   7    3.10    0.67
  -1  10   7    3.60    1.45
   0 -10  -7    0.87    0.35
   0 -10  -7    0.88    0.62
   0 -10  -7    0.77    0.30
   0  10   7    0.66    0.50
   0  10   7    0.41    1.14
  -1 -10  -7    5.58    0.69
  -1 -10  -7    4.86    1.15
  -1 -10  -7    5.94    0.81
   1  10   7    4.71    0.75
   1  10   7    3.99    1.49
  -2 -10  -7   16.61    1.11
  -2 -10  -7   15.09    1.90
  -2 -10  -7   16.48    1.06
  -2 -10  -7   15.93    1.42
   2  10   7   13.38    2.26
   2  10   7   17.07    1.23
   2  10   7   15.08    1.64
  -3 -10  -7    1.79    0.31
  -3 -10  -7    2.20    1.10
   3  10   7    1.98    0.60
   3  10   7    2.50    1.27
  -4 -10  -7   18.68    2.22
   4  10   7   21.00    1.51
  -5 -10  -7    1.01    0.92
   5  10   7   -0.37    0.55
  -6 -10  -7    1.06    1.10
   6  10   7   -0.05    1.54
   6  10   7    1.56    0.77
  -7 -10  -7   47.66    3.21
   7  10   7   44.64    2.63
   7  10   7   40.79    3.51
   8  10   7   26.45    3.16
   8  10   7   30.91    2.85
   9  10   7    1.04    1.96
   9  10   7   -0.51    1.10
   8 -11  -7    5.56    1.15
   7 -11  -7   -0.03    0.11
   6 -11  -7    1.05    0.55
  -6  11   7   -0.56    2.72
   5 -11  -7    2.98    0.75
  -5  11   7    1.79    2.35
   4 -11  -7    0.48    0.32
  -4  11   7   -1.26    2.18
  -4  11   7   -0.41    0.94
   3 -11  -7    8.40    1.21
  -3  11   7    7.06    1.91
  -3  11   7    5.62    1.09
   2 -11  -7    1.97    0.56
   2 -11  -7    1.82    0.96
  -2  11   7    1.24    0.76
  -2  11   7    2.24    1.70
   1 -11  -7    0.12    0.18
   1 -11  -7    0.20    0.16
   1 -11  -7    0.24    0.89
  -1  11   7   -1.14    1.65
  -1  11   7    2.10    0.69
   0 -11  -7   25.55    1.64
   0 -11  -7   23.49    1.42
   0 -11  -7   23.63    1.79
   0  11   7   22.90    1.63
   0  11   7   26.18    3.20
  -1 -11  -7    0.09    0.11
  -1 -11  -7   -0.67    0.89
  -1 -11  -7    0.18    0.16
   1  11   7   -1.54    1.36
   1  11   7    0.46    0.58
  -2 -11  -7    0.78    0.23
  -2 -11  -7   -0.55    1.00
  -2 -11  -7    1.15    0.34
   2  11   7    0.91    0.64
  -3 -11  -7   44.06    3.20
  -3 -11  -7   47.31    1.98
  -3 -11  -7   49.93    2.15
   3  11   7   46.39    2.48
  -4 -11  -7   83.31    4.65
   4  11   7   83.39    3.77
  -5 -11  -7    2.39    1.32
   5  11   7    1.50    0.77
  -6 -11  -7    4.62    1.32
   6  11   7    3.21    1.00
   7  11   7    0.37    1.94
   8  11   7   11.05    2.47
   8  11   7   13.56    1.83
   9  11   7    3.95    2.54
   7 -12  -7    4.28    1.05
   6 -12  -7    1.68    0.88
   5 -12  -7    0.33    0.24
   4 -12  -7   19.22    1.67
  -4  12   7   20.33    4.84
   3 -12  -7    0.33    0.31
  -3  12   7   -2.54    1.04
  -3  12   7   -1.28    2.10
   2 -12  -7    3.12    0.72
  -2  12   7    3.77    1.05
  -2  12   7    5.24    2.24
   1 -12  -7   28.21    1.92
  -1  12   7   26.89    1.96
  -1  12   7   34.66    3.56
   0 -12  -7   85.87    3.70
   0 -12  -7   86.01    3.98
   0 -12  -7   86.68    4.95
   0  12   7   88.81    3.95
   0  12   7   88.30    5.68
  -1 -12  -7    9.72    1.87
  -1 -12  -7   11.67    1.03
   1  12   7   11.81    1.38
   1  12   7    7.34    1.97
  -2 -12  -7    1.08    0.33
  -2 -12  -7    1.54    0.34
  -2 -12  -7   -0.83    1.03
   2  12   7    0.64    0.75
  -3 -12  -7   -0.05    1.36
  -3 -12  -7    1.31    0.29
  -3 -12  -7    1.36    0.34
   3  12   7    0.84    0.81
  -4 -12  -7   18.36    0.92
  -4 -12  -7   21.23    2.36
   4  12   7   15.52    1.66
  -5 -12  -7    3.35    1.55
   5  12   7    5.02    1.14
  -6 -12  -7   33.55    3.14
   6  12   7   32.09    2.39
   7  12   7   12.00    1.84
   6 -13  -7    1.74    0.63
   5 -13  -7   11.42    1.70
   3 -13  -7   18.21    1.62
   2 -13  -7    0.00    0.10
  -2  13   7   -0.74    1.13
   1 -13  -7    0.96    0.45
  -1  13   7    0.25    1.04
   0 -13  -7   22.37    1.65
   0  13   7   23.08    2.10
  -1 -13  -7    5.31    0.84
  -1 -13  -7    4.84    0.70
   1  13   7    5.57    1.19
  -2 -13  -7   14.38    1.11
  -2 -13  -7   13.62    0.94
   2  13   7   11.18    1.48
  -3 -13  -7   18.81    1.08
  -3 -13  -7   19.09    1.20
   3  13   7   18.65    1.91
  -4 -13  -7    0.09    0.10
  -4 -13  -7    0.00    0.05
   4  13   7    0.20    1.76
   5  13   7    5.29    1.35
   5 -14  -7    0.35    0.30
   4 -14  -7   13.13    1.82
   3 -14  -7    3.60    0.87
   2 -14  -7    2.73    0.71
   1 -14  -7   13.55    2.11
  -1  14   7   15.13    2.70
   0 -14  -7    0.04    0.20
  -1 -14  -7    1.04    0.41
   1  14   7    1.83    1.23
  -2 -14  -7    3.96    0.60
  -2 -14  -7    4.25    0.75
   2  14   7    4.17    1.35
  -3 -14  -7    0.36    0.20
  -3 -14  -7    0.14    0.14
   3  14   7   -0.59    1.26
  -4 -14  -7    0.10    0.09
   3 -15  -7    0.32    0.27
   2 -15  -7    3.80    0.85
   1 -15  -7    0.01    0.09
   0 -15  -7    0.27    0.24
  -1 -15  -7   10.31    1.05
  -2 -15  -7   28.20    1.76
  -3 -15  -7    0.55    0.23
  -3 -15  -7    0.50    0.19
   0 -16  -7    0.59    0.33
  -1 -16  -7    2.96    0.69
  -2 -16  -7    4.76    0.77
  -3 -16  -7    4.39    0.62
  -3 -16  -7    4.43    0.61
   1 -11   8    0.00    0.19
   2 -11   8    1.70    0.71
   3 -11   8    0.43    0.39
  -4  11  -8    6.39    1.21
   4 -11   8    5.22    1.22
  -5  11  -8    1.92    0.66
   5 -11   8    2.07    0.85
  -6  11  -8   15.39    1.90
  -7  11  -8    4.70    1.09
  -2 -10   8    1.44    0.66
  -1 -10   8    0.13    0.23
   0 -10   8    1.46    0.62
   1 -10   8    3.77    1.05
  -2  10  -8   14.84    1.47
   2 -10   8   16.28    2.15
  -3  10  -8   14.15    1.86
   3 -10   8    9.97    1.65
  -4  10  -8    1.19    0.52
   4 -10   8    2.40    0.75
  -5  10  -8    1.15    0.48
   5 -10   8    1.20    0.60
  -6  10  -8   23.21    1.92
  -7  10  -8    1.43    0.60
  -8  10  -8    0.13    0.19
  -9  10  -8    3.42    0.92
  -3  -9   8    1.82    0.81
  -2  -9   8    6.00    1.23
  -1  -9   8   21.53    2.17
   0   9  -8    0.87    0.46
   0  -9   8    1.24    0.62
   1  -9   8    1.37    0.62
  -2   9  -8   33.85    2.38
   2  -9   8   30.88    2.53
  -3   9  -8    9.51    1.34
   3  -9   8    7.99    1.63
  -4   9  -8    0.79    0.39
   4  -9   8    0.25    0.25
  -5   9  -8    2.98    0.74
   5  -9   8    3.57    0.93
  -6   9  -8    0.34    0.27
   6  -9   8   -0.01    0.14
  -7   9  -8    2.09    0.64
  -8   9  -8    0.96    0.44
  -9   9  -8   13.70    1.75
 -10   9  -8    0.26    0.20
 -11   9  -8    7.32    1.32
  -4  -8   8    0.59    0.44
  -3  -8   8    0.68    0.38
  -2  -8   8   30.86    2.63
   1   8  -8   26.31    1.99
  -1  -8   8   27.63    2.41
   0   8  -8   -0.71    1.23
   0   8  -8    0.87    0.41
   0  -8   8    1.45    0.59
  -1   8  -8   -0.09    1.11
  -1   8  -8    2.23    0.60
   1  -8   8    1.07    0.69
  -2   8  -8   -0.03    0.07
  -2   8  -8   -0.02    1.03
   2  -8   8    0.15    0.20
  -3   8  -8    0.40    0.28
  -3   8  -8    0.05    1.03
   3  -8   8    1.96    2.54
   3  -8   8   -0.03    0.11
  -4   8  -8    0.74    0.99
  -4   8  -8    0.08    0.17
   4  -8   8    0.55    1.46
  -5   8  -8   22.46    1.72
  -5   8  -8   23.15    2.20
   5  -8   8   24.22    2.00
   5  -8   8   20.18    2.77
  -6   8  -8    2.05    1.27
  -6   8  -8    2.64    0.71
   6  -8   8    3.99    1.83
   6  -8   8    3.61    0.91
  -7   8  -8    7.34    1.20
   7  -8   8    9.78    2.08
  -8   8  -8   25.96    1.89
   8  -8   8   21.52    2.71
  -9   8  -8    1.08    0.44
   9  -8   8    2.95    1.92
  10  -8   8    2.93    2.90
 -11   8  -8   35.03    2.50
 -12   8  -8   54.49    3.33
  -5  -7   8   27.85    2.61
  -4  -7   8   -0.04    0.17
   3   7  -8   -0.40    1.50
  -3  -7   8   -0.02    0.18
   2   7  -8    0.25    0.26
   2   7  -8    0.55    1.18
  -2  -7   8    0.44    0.35
   1   7  -8    0.17    1.04
   1   7  -8    0.17    0.22
  -1  -7   8    0.66    0.47
   0   7  -8    2.45    1.02
   0   7  -8    0.54    0.30
   0  -7   8    1.98    1.44
   0  -7   8    0.99    0.46
  -1   7  -8   26.53    2.14
  -1   7  -8   22.17    1.69
   1  -7   8   22.81    2.02
   1  -7   8   24.27    2.93
  -2   7  -8   16.22    1.38
  -2   7  -8   16.01    1.74
   2  -7   8   18.41    1.73
   2  -7   8   17.48    2.47
  -3   7  -8    2.88    0.71
  -3   7  -8    1.02    0.88
   3  -7   8    2.37    0.73
   3  -7   8    1.44    1.52
  -4   7  -8   24.87    2.00
  -4   7  -8   26.68    1.78
   4  -7   8   22.60    1.91
   4  -7   8   23.78    3.85
  -5   7  -8    1.73    0.93
   5  -7   8    1.30    1.20
   5  -7   8    0.95    0.45
  -6   7  -8    0.29    0.26
  -6   7  -8   -1.35    0.95
   6  -7   8   -1.05    1.40
  -7   7  -8   24.11    2.21
  -7   7  -8   22.87    1.70
   7  -7   8   20.27    1.79
   7  -7   8   21.07    2.54
  -8   7  -8  104.79    5.21
  -8   7  -8  105.51    4.78
   8  -7   8  104.07    5.50
  -9   7  -8    9.83    1.42
   9  -7   8    8.78    2.04
  10  -7   8    1.06    1.76
 -11   7  -8    3.89    1.14
 -12   7  -8    6.97    1.21
 -13   7  -8    3.06    0.83
  -6  -6   8    0.47    0.41
  -5  -6   8    1.04    0.61
   4   6  -8    1.67    1.43
  -4  -6   8    0.99    0.57
   3   6  -8    8.64    1.51
   3   6  -8    6.75    1.15
  -3  -6   8   10.82    1.83
   2   6  -8   14.80    1.71
   2   6  -8   18.04    1.50
  -2  -6   8    9.74    2.16
  -2  -6   8   15.49    2.32
   1   6  -8    1.48    0.50
   1   6  -8    1.77    0.90
  -1  -6   8    2.04    0.75
  -1  -6   8    3.41    1.44
   0   6  -8   17.18    1.60
   0   6  -8   14.91    1.29
   0  -6   8   12.24    1.67
  -1   6  -8    2.05    0.83
  -1   6  -8    1.53    0.46
   1  -6   8    1.43    0.49
   1  -6   8    2.91    1.22
  -2   6  -8    0.02    0.13
  -2   6  -8   -0.48    0.69
   2  -6   8    1.34    1.13
   2  -6   8    0.00    0.09
  -3   6  -8    9.92    1.26
  -3   6  -8   10.60    1.29
   3  -6   8   13.56    2.10
   3  -6   8   11.51    2.03
  -4   6  -8  130.89    5.35
  -4   6  -8  130.27    5.43
   4  -6   8  120.65    6.15
   4  -6   8  120.65    5.67
  -5   6  -8   22.20    1.56
  -5   6  -8   21.23    1.80
   5  -6   8   22.51    1.78
   5  -6   8   21.01    2.55
  -6   6  -8    1.45    0.77
  -6   6  -8    2.78    1.03
   6  -6   8    1.33    0.50
   6  -6   8    1.51    1.25
  -7   6  -8    7.45    1.01
  -7   6  -8    7.36    1.26
   7  -6   8    8.17    1.68
   7  -6   8    9.99    1.44
  -8   6  -8   20.21    1.55
   8  -6   8   23.50    2.51
  -9   6  -8    7.01    1.11
  -9   6  -8    7.75    1.52
   9  -6   8    6.82    1.70
 -10   6  -8    2.61    0.64
  10  -6   8    5.26    1.64
 -11   6  -8    1.27    0.52
 -12   6  -8    2.03    0.63
 -13   6  -8    3.57    0.88
  -7  -5   8    1.37    0.72
  -6  -5   8   15.69    2.30
   5   5  -8    0.69    1.44
  -5  -5   8    0.38    0.42
   4   5  -8    5.70    1.47
   4   5  -8    3.26    0.85
  -4  -5   8    3.20    1.00
  -4  -5   8    4.72    1.94
   3   5  -8    2.28    1.01
   3   5  -8    1.79    0.61
  -3  -5   8   -1.15    1.47
   2   5  -8    0.19    0.85
   2   5  -8    0.39    0.29
  -2  -5   8    1.01    0.54
  -2  -5   8   -0.43    1.39
   1   5  -8   -0.14    0.73
   1   5  -8    0.02    0.11
  -1  -5   8    0.06    0.19
  -1  -5   8    0.71    1.37
   0   5  -8   75.43    3.43
   0   5  -8   67.82    3.43
   0  -5   8   73.11    4.40
   0  -5   8   73.36    3.95
  -1   5  -8   35.73    2.13
  -1   5  -8   39.48    2.22
   1  -5   8   38.58    3.01
  -2   5  -8    3.47    0.66
  -2   5  -8    2.04    0.83
   2  -5   8    2.09    1.22
  -3   5  -8    6.65    0.95
  -3   5  -8    6.54    1.04
   3  -5   8    7.10    1.16
   3  -5   8    7.57    1.67
  -4   5  -8   28.68    1.86
  -4   5  -8   24.72    1.62
   4  -5   8   27.11    1.94
   4  -5   8   22.50    2.29
  -5   5  -8    4.07    0.67
  -5   5  -8    3.50    0.81
   5  -5   8    2.70    0.71
   5  -5   8    5.12    1.36
  -6   5  -8   19.79    1.43
  -6   5  -8   19.74    1.72
   6  -5   8   22.80    1.69
   6  -5   8   20.72    2.39
  -7   5  -8    0.91    0.82
   7  -5   8    2.54    1.12
   7  -5   8    0.73    0.34
  -8   5  -8    1.24    0.40
  -8   5  -8    1.77    0.94
   8  -5   8    2.57    1.16
  -9   5  -8    4.61    0.83
  -9   5  -8    3.38    1.54
   9  -5   8    5.30    1.46
 -10   5  -8   -0.22    1.25
 -10   5  -8    2.67    0.63
  10  -5   8    2.40    1.32
 -11   5  -8    2.76    0.77
 -12   5  -8   32.29    2.22
 -13   5  -8    0.01    0.16
 -14   5  -8    2.73    0.76
  -7  -4   8    0.96    0.61
  -6  -4   8    0.71    0.50
   5   4  -8   -0.03    1.10
   5   4  -8    0.35    0.29
  -5  -4   8    0.29    0.34
  -5  -4   8   -0.42    1.72
   4   4  -8   21.42    1.86
   4   4  -8   16.46    1.51
  -4  -4   8   18.96    2.76
   3   4  -8   32.11    2.07
  -3  -4   8   31.12    2.47
  -3  -4   8   30.70    2.98
   2   4  -8    0.26    0.72
   2   4  -8    0.65    0.33
  -2  -4   8    0.61    0.38
  -2  -4   8    2.01    1.30
   1   4  -8    6.27    0.94
   1   4  -8    5.32    0.91
  -1  -4   8    5.58    1.15
  -1  -4   8    3.48    1.38
   0   4  -8   26.30    1.71
   0   4  -8   28.71    1.73
   0  -4   8   27.46    2.06
   0  -4   8   22.93    2.33
  -1   4  -8    1.05    0.38
  -1   4  -8    1.54    0.55
   1  -4   8    1.82    0.97
   1  -4   8    1.12    0.48
   1  -4   8    1.77    0.71
  -2   4  -8   66.88    3.00
  -2   4  -8   60.84    2.91
   2  -4   8   59.59    3.74
   2  -4   8   63.27    2.91
   2  -4   8   60.48    3.30
  -3   4  -8    0.23    0.18
  -3   4  -8    0.04    0.47
   3  -4   8   -0.70    0.74
   3  -4   8    0.04    0.10
  -4   4  -8    0.46    0.26
  -4   4  -8   -0.61    0.49
   4  -4   8    0.12    0.20
   4  -4   8    0.09    0.81
  -5   4  -8    4.00    0.82
  -5   4  -8    3.15    0.60
  -5   4  -8    4.34    0.93
   5  -4   8    4.66    0.88
   5  -4   8    3.37    1.03
  -6   4  -8   10.22    1.37
  -6   4  -8   11.70    0.99
  -6   4  -8   12.40    1.30
   6  -4   8   12.60    1.81
   6  -4   8   12.33    1.59
  -7   4  -8    0.46    0.31
  -7   4  -8    0.77    0.33
  -7   4  -8    0.71    0.74
   7  -4   8    1.92    0.99
   7  -4   8    0.33    0.23
  -8   4  -8   46.82    2.80
  -8   4  -8   42.24    2.33
   8  -4   8   46.72    3.35
   8  -4   8   45.83    3.31
  -9   4  -8    6.64    1.23
  -9   4  -8    8.35    1.01
   9  -4   8    8.65    1.45
 -10   4  -8    4.39    0.85
 -10   4  -8    4.14    1.37
  10  -4   8    3.13    1.19
 -11   4  -8    1.44    1.40
 -11   4  -8    0.87    0.39
  11  -4   8    1.19    1.15
 -12   4  -8   18.22    1.53
 -13   4  -8    0.06    0.17
 -14   4  -8    0.20    0.21
  -8  -3   8    1.02    0.53
  -7  -3   8   12.35    3.02
  -7  -3   8   14.22    2.10
   6   3  -8   -1.48    1.33
   6   3  -8   -0.04    0.10
  -6  -3   8   -1.31    1.98
  -6  -3   8    0.16    0.22
   5   3  -8    2.38    1.03
   5   3  -8    0.60    0.34
  -5  -3   8   -1.32    1.63
  -5  -3   8    1.30    0.56
   4   3  -8    8.07    1.13
   4   3  -8    6.83    1.10
  -4  -3   8    9.59    1.55
  -4  -3   8    7.45    1.79
   3   3  -8    0.57    0.69
   3   3  -8    2.25    0.60
  -3  -3   8    3.41    1.49
  -3  -3   8    1.52    0.63
   2   3  -8   46.43    2.67
   2   3  -8   40.87    2.42
   2   3  -8   44.89    2.29
  -2  -3   8   57.39    3.67
  -2  -3   8   40.86    3.23
   1   3  -8    1.47    0.42
   1   3  -8    3.01    0.65
  -1  -3   8    3.20    0.74
  -1  -3   8    1.84    0.60
  -1  -3   8    2.30    1.03
   0   3  -8   -0.10    0.43
   0  -3   8    0.64    0.83
   0  -3   8    0.31    0.25
  -1   3  -8    2.05    0.43
  -1   3  -8    2.46    0.56
   1  -3   8    2.09    1.02
   1  -3   8    3.43    0.64
   1  -3   8    3.82    1.02
  -2   3  -8   21.70    1.39
  -2   3  -8   23.06    1.40
   2  -3   8   20.49    1.60
   2  -3   8   19.54    1.47
   2  -3   8   22.57    2.17
  -3   3  -8    0.01    0.40
  -3   3  -8    0.60    0.27
   3  -3   8   -0.13    0.50
   3  -3   8    0.36    0.26
   3  -3   8    0.48    0.85
  -4   3  -8   38.25    2.01
  -4   3  -8   33.90    2.15
  -4   3  -8   37.19    1.92
   4  -3   8   36.13    2.18
   4  -3   8   36.01    1.97
  -5   3  -8   54.92    2.66
  -5   3  -8   54.58    2.52
  -5   3  -8   47.35    2.70
   5  -3   8   53.56    2.77
   5  -3   8   51.91    2.54
   5  -3   8   51.22    3.21
  -6   3  -8    7.63    1.11
  -6   3  -8    8.86    0.79
  -6   3  -8    8.58    1.11
   6  -3   8    8.82    1.37
   6  -3   8    8.89    1.15
  -7   3  -8    1.40    0.69
  -7   3  -8    1.71    0.42
   7  -3   8    1.39    0.91
   7  -3   8    1.94    0.54
  -8   3  -8   23.58    1.84
  -8   3  -8   20.85    2.01
  -8   3  -8   24.68    1.74
   8  -3   8   22.88    1.59
   8  -3   8   20.95    1.96
  -9   3  -8    2.49    0.69
  -9   3  -8    1.99    1.73
  -9   3  -8    3.36    0.67
  -9   3  -8    1.72    0.91
   9  -3   8    3.83    1.10
 -10   3  -8    5.67    1.74
 -10   3  -8    5.14    0.90
 -10   3  -8    4.50    1.26
  10  -3   8    4.52    1.12
 -11   3  -8   11.28    1.08
 -11   3  -8   11.40    1.89
  11  -3   8   12.11    1.44
 -12   3  -8    0.23    0.17
 -14   3  -8    2.51    0.67
 -15   3  -8    6.62    1.08
  -8  -2   8    1.38    0.71
  -7  -2   8    7.52    2.73
   6   2  -8   17.63    1.58
   6   2  -8   16.07    1.72
  -6  -2   8   18.66    2.67
  -6  -2   8   15.66    2.13
   5   2  -8    6.03    0.96
  -5  -2   8    7.01    1.72
  -5  -2   8    6.82    1.37
   4   2  -8    0.64    0.65
   4   2  -8    1.74    0.57
   4   2  -8   -0.05    1.24
  -4  -2   8    3.01    1.34
  -4  -2   8    1.58    0.64
   3   2  -8    2.46    0.67
   3   2  -8    1.18    0.59
   3   2  -8    0.57    0.99
  -3  -2   8    2.94    1.28
  -3  -2   8    1.34    0.60
   2   2  -8   17.72    1.21
   2   2  -8   15.68    1.27
   2   2  -8   16.51    1.53
  -2  -2   8   17.72    1.93
  -2  -2   8   13.96    1.81
   1   2  -8    0.42    0.22
   1   2  -8    0.09    0.39
  -1  -2   8    0.35    0.51
  -1  -2   8    0.89    0.92
   0   2  -8    3.85    0.60
   0   2  -8    5.25    0.82
   0  -2   8    3.99    1.13
   0  -2   8    3.72    0.86
   0  -2   8    4.01    0.61
  -1   2  -8   51.44    2.30
  -1   2  -8   53.22    2.48
   1  -2   8   50.07    2.78
   1  -2   8   56.05    3.73
   1  -2   8   48.64    2.22
  -2   2  -8    0.21    0.14
  -2   2  -8    0.12    0.15
  -2   2  -8    0.20    0.35
   2  -2   8    0.25    0.36
   2  -2   8    0.29    0.22
   2  -2   8    0.37    0.71
  -3   2  -8    0.27    0.36
  -3   2  -8    0.35    0.25
  -3   2  -8    0.46    0.23
   3  -2   8    0.69    0.41
   3  -2   8    1.06    0.69
  -4   2  -8   22.73    1.38
  -4   2  -8   25.16    1.66
  -4   2  -8   26.65    1.53
   4  -2   8   24.37    1.45
   4  -2   8   25.32    1.65
   4  -2   8   24.47    2.15
  -5   2  -8   12.75    1.11
  -5   2  -8   12.43    0.91
   5  -2   8   12.95    1.08
   5  -2   8   13.44    1.12
   5  -2   8    9.20    1.43
  -6   2  -8   13.99    0.97
  -6   2  -8   12.89    1.11
  -6   2  -8   14.47    3.00
  -6   2  -8   11.66    1.20
   6  -2   8   14.01    1.11
   6  -2   8   12.23    1.69
   6  -2   8   14.70    1.24
  -7   2  -8    5.43    1.36
  -7   2  -8    5.74    0.90
  -7   2  -8    4.98    0.71
  -7   2  -8    4.75    0.88
   7  -2   8    5.28    0.84
   7  -2   8    8.48    1.35
  -8   2  -8    0.37    0.62
  -8   2  -8    0.14    0.15
  -8   2  -8   -1.45    1.10
  -8   2  -8    0.29    0.18
   8  -2   8    0.32    0.77
   8  -2   8    0.08    0.15
  -9   2  -8   17.60    1.38
  -9   2  -8   16.24    1.65
  -9   2  -8   17.52    1.21
  -9   2  -8   15.26    1.98
   9  -2   8   16.50    1.73
 -10   2  -8    3.30    0.71
 -10   2  -8    3.12    1.11
 -10   2  -8    3.16    0.63
 -10   2  -8    5.11    1.52
  10  -2   8    2.18    0.92
 -11   2  -8    6.99    1.12
 -11   2  -8    7.53    1.05
 -11   2  -8   10.25    2.40
  11  -2   8    8.26    1.20
 -12   2  -8   26.23    1.76
 -13   2  -8   50.17    2.75
 -14   2  -8    3.42    0.81
 -15   2  -8    0.30    0.25
  -9  -1   8    5.87    1.51
  -8  -1   8    0.46    0.44
  -7  -1   8    2.82    2.04
   6   1  -8    7.24    1.07
  -6  -1   8    8.04    1.94
  -6  -1   8    5.22    1.29
   5   1  -8   -1.94    2.01
   5   1  -8    0.03    0.09
   5   1  -8    0.07    0.72
  -5  -1   8   -0.44    1.29
  -5  -1   8    0.11    0.19
   4   1  -8    2.40    0.62
   4   1  -8    1.29    0.63
   4   1  -8    2.39    1.03
  -4  -1   8    1.56    0.63
  -4  -1   8    2.68    1.26
   3   1  -8   28.77    1.52
   3   1  -8   27.54    1.78
   3   1  -8   26.27    1.77
  -3  -1   8   27.00    2.13
  -3  -1   8   24.30    2.45
   2   1  -8    1.15    0.44
   2   1  -8    0.71    0.61
   2   1  -8    0.39    0.38
  -2  -1   8    0.92    0.45
  -2  -1   8    0.80    0.93
   1   1  -8   -0.01    0.09
   1   1  -8    0.13    0.47
   1   1  -8    0.09    0.52
  -1  -1   8    0.12    0.21
  -1  -1   8   -0.27    0.85
   0   1  -8    7.41    0.74
   0   1  -8    7.91    0.69
   0  -1   8    8.58    1.24
   0  -1   8    8.39    1.38
   0  -1   8    7.62    0.71
  -1   1  -8   29.86    1.64
  -1   1  -8   29.07    1.43
  -1   1  -8   26.40    1.78
   1  -1   8   29.52    2.33
   1  -1   8   27.94    1.86
   1  -1   8   30.84    1.41
  -2   1  -8   37.80    1.73
  -2   1  -8   38.60    1.89
   2  -1   8   37.59    1.67
   2  -1   8   33.35    2.04
   2  -1   8   35.40    2.55
  -3   1  -8    0.66    0.35
  -3   1  -8    0.76    0.33
  -3   1  -8    0.66    0.22
   3  -1   8    0.51    0.28
   3  -1   8    0.50    0.73
   3  -1   8    0.71    0.35
  -4   1  -8    2.68    0.77
  -4   1  -8    2.25    0.47
  -4   1  -8    2.13    0.40
  -4   1  -8    1.99    1.08
   4  -1   8    1.31    0.44
   4  -1   8    1.57    0.43
   4  -1   8    1.70    0.81
  -5   1  -8   22.79    2.05
  -5   1  -8   23.38    1.49
  -5   1  -8   24.28    1.33
  -5   1  -8   26.15    1.58
   5  -1   8   25.74    1.54
   5  -1   8   24.40    2.06
   5  -1   8   24.65    1.46
  -6   1  -8    0.80    0.26
  -6   1  -8   -0.39    0.83
  -6   1  -8    1.20    0.51
  -6   1  -8    1.39    0.53
   6  -1   8    0.33    0.20
   6  -1   8    1.18    0.55
   6  -1   8    0.14    0.73
  -7   1  -8    7.10    0.92
  -7   1  -8    7.50    1.41
  -7   1  -8    5.14    0.87
  -7   1  -8    6.96    0.62
   7  -1   8    6.04    1.50
   7  -1   8    6.56    0.88
   7  -1   8    8.07    1.25
  -8   1  -8   35.25    2.49
  -8   1  -8   31.70    1.88
  -8   1  -8   32.00    1.69
   8  -1   8   32.45    2.29
  -9   1  -8  155.90    6.19
  -9   1  -8  152.05    6.48
  -9   1  -8  151.13    6.80
  -9   1  -8  159.17    6.14
   9  -1   8  157.48    6.38
 -10   1  -8   19.42    1.95
 -10   1  -8   17.90    1.91
 -10   1  -8   19.55    1.42
 -10   1  -8   20.11    1.30
  10  -1   8   17.15    1.61
 -11   1  -8    1.44    1.07
 -11   1  -8    0.90    0.37
 -11   1  -8    1.39    0.44
  11  -1   8   -0.39    0.78
 -12   1  -8   23.86    1.58
 -12   1  -8   24.76    1.75
 -12   1  -8   25.94    2.60
 -13   1  -8   37.06    2.56
 -13   1  -8   41.08    2.30
 -14   1  -8    2.92    0.66
 -15   1  -8   14.16    1.28
  -9   0   8    0.00    0.28
  -8   0   8    3.74    1.05
   7   0  -8    4.13    1.64
   7   0  -8    3.62    0.91
  -7   0   8    4.14    2.06
  -7   0   8    4.33    1.18
   6   0  -8    3.79    0.98
   6   0  -8    3.01    0.80
  -6   0   8    2.95    0.95
  -6   0   8    5.26    1.68
   5   0  -8   -0.43    0.61
   5   0  -8    0.17    1.01
   5   0  -8    0.10    0.14
  -5   0   8   -0.27    1.23
  -5   0   8    0.17    0.21
   4   0  -8   -0.35    0.46
   4   0  -8    0.03    0.10
   4   0  -8   -0.04    0.74
  -4   0   8   -0.07    0.10
  -4   0   8   -0.30    1.09
   3   0  -8   19.20    1.36
   3   0  -8   17.63    1.39
   3   0  -8   18.55    1.42
  -3   0   8   20.99    2.94
  -3   0   8   18.85    2.10
   2   0  -8    4.51    0.68
   2   0  -8    5.90    0.61
  -2   0   8    6.52    1.11
  -2   0   8    5.76    1.47
   1   0  -8   17.10    0.92
   1   0  -8   17.09    1.22
   1   0  -8   18.55    1.06
  -1   0   8   19.65    1.96
  -1   0   8   14.38    1.36
   0   0  -8    0.43    0.25
   0   0  -8    0.41    0.20
   0   0   8    0.60    0.27
   0   0   8    1.43    0.49
   0   0   8    0.15    0.69
  -1   0  -8   20.26    1.22
  -1   0  -8   19.79    1.00
   1   0   8   19.49    0.96
   1   0   8   16.46    1.79
   1   0   8   20.00    1.44
  -2   0  -8    0.29    0.25
  -2   0  -8    0.30    0.16
  -2   0  -8   -0.33    0.96
  -2   0  -8    0.13    0.13
   2   0   8    0.40    0.25
   2   0   8    0.17    0.18
   2   0   8    1.19    0.64
  -3   0  -8    0.06    0.10
  -3   0  -8   -0.31    0.78
  -3   0  -8    0.03    0.28
  -3   0  -8    0.03    0.05
   3   0   8    0.61    0.29
   3   0   8    0.23    0.18
   3   0   8   -0.29    0.59
  -4   0  -8   20.11    2.00
  -4   0  -8   22.04    1.17
  -4   0  -8   20.47    1.33
  -4   0  -8   22.49    1.26
   4   0   8   19.52    1.78
   4   0   8   20.15    1.18
   4   0   8   19.76    1.31
  -5   0  -8  355.46   13.32
  -5   0  -8  351.78   12.49
   5   0   8  361.02   13.39
   5   0   8  354.72   12.38
   5   0   8  354.78   12.57
  -6   0  -8   70.96    3.11
  -6   0  -8   70.18    2.86
  -6   0  -8   72.82    3.74
  -6   0  -8   70.80    3.19
   6   0   8   74.39    3.75
   6   0   8   67.53    3.06
  -7   0  -8    0.47    0.51
  -7   0  -8    0.18    0.15
  -7   0  -8   -0.02    0.04
  -7   0  -8    0.37    0.94
   7   0   8   -0.19    0.59
   7   0   8   -1.02    0.66
  -8   0  -8   43.02    2.72
  -8   0  -8   49.44    2.37
  -8   0  -8   49.61    2.17
  -8   0  -8   48.65    2.66
   8   0   8   51.16    2.87
  -9   0  -8  123.44    4.84
  -9   0  -8  123.88    4.88
  -9   0  -8  116.40    5.27
  -9   0  -8  116.81    5.14
   9   0   8  118.99    5.17
 -10   0  -8   12.71    1.04
 -10   0  -8   12.10    0.94
 -10   0  -8   13.45    1.74
  10   0   8   14.64    1.47
  10   0   8   14.78    1.50
 -11   0  -8   20.34    1.39
 -11   0  -8   19.43    1.26
 -11   0  -8   14.90    1.95
  11   0   8   18.21    1.84
 -12   0  -8    9.12    0.87
 -12   0  -8    9.92    0.96
 -12   0  -8    9.09    1.70
 -13   0  -8    0.88    0.37
 -13   0  -8    1.38    0.40
 -14   0  -8    0.79    0.33
 -15   0  -8    9.64    0.96
  -9   1   8    0.07    0.23
   8  -1  -8    1.35    0.54
  -8   1   8    2.33    0.94
   7  -1  -8    8.00    2.04
   7  -1  -8    4.65    0.93
  -7   1   8    4.96    1.89
  -7   1   8    6.33    1.41
   6  -1  -8    1.14    0.78
   6  -1  -8    1.04    0.42
  -6   1   8    1.19    1.35
  -6   1   8    0.83    0.52
   5  -1  -8   15.11    1.57
   5  -1  -8   18.24    1.23
   5  -1  -8   16.33    1.42
  -5   1   8   16.70    2.44
  -5   1   8   17.37    2.22
   4  -1  -8    0.40    0.40
   4  -1  -8    0.05    0.13
   4  -1  -8   -0.15    0.61
  -4   1   8   -0.01    0.10
  -4   1   8    0.00    1.08
   3  -1  -8    6.20    0.69
   3  -1  -8    5.77    0.57
  -3   1   8    9.51    1.81
  -3   1   8    4.23    1.15
   2  -1  -8   -0.41    0.30
   2  -1  -8    0.11    0.23
   2  -1  -8    0.07    0.10
  -2   1   8   -0.01    0.08
  -2   1   8    0.37    0.89
   1  -1  -8    9.58    0.55
   1  -1  -8    8.13    0.80
  -1   1   8   13.57    1.81
  -1   1   8    9.18    1.27
   0  -1  -8   12.91    0.97
   0  -1  -8   12.93    1.10
   0   1   8   17.03    1.78
  -1  -1  -8  249.28    8.84
  -1  -1  -8  250.09   10.32
  -1  -1  -8  260.19    9.65
   1   1   8  280.83    8.85
   1   1   8  264.64    9.75
   1   1   8  267.88   10.43
  -2  -1  -8  142.73    5.06
  -2  -1  -8  139.10    6.30
  -2  -1  -8  142.87    5.63
   2   1   8  143.43    4.99
   2   1   8  148.03    6.43
   2   1   8  149.12    5.71
  -3  -1  -8    2.94    0.94
  -3  -1  -8    2.51    0.49
  -3  -1  -8    3.18    0.44
  -3  -1  -8    2.35    0.42
   3   1   8    2.43    0.51
   3   1   8    1.77    0.79
   3   1   8    3.05    0.39
  -4  -1  -8   62.09    2.55
  -4  -1  -8   64.40    2.82
  -4  -1  -8   67.13    3.50
  -4  -1  -8   62.64    2.65
   4   1   8   59.32    2.75
   4   1   8   65.61    2.55
   4   1   8   60.50    3.43
  -5  -1  -8  290.33   11.19
  -5  -1  -8  306.52   10.49
  -5  -1  -8  292.98   10.45
   5   1   8  285.83   10.32
   5   1   8  296.76   11.34
  -6  -1  -8   44.33    2.91
  -6  -1  -8   45.04    2.09
  -6  -1  -8   43.77    2.24
  -6  -1  -8   45.34    1.89
   6   1   8   42.95    2.15
   6   1   8   44.61    2.71
  -7  -1  -8   13.09    0.90
  -7  -1  -8   12.75    1.70
  -7  -1  -8   12.47    0.76
  -7  -1  -8   11.89    1.19
   7   1   8   14.55    1.59
   7   1   8   12.17    1.19
  -8  -1  -8   37.55    1.70
  -8  -1  -8   38.20    2.41
  -8  -1  -8   39.36    2.31
  -8  -1  -8   38.36    1.85
   8   1   8   35.78    2.21
   8   1   8   37.22    2.45
  -9  -1  -8    6.62    1.17
  -9  -1  -8    8.80    1.09
  -9  -1  -8    6.54    0.57
   9   1   8    6.73    1.07
   9   1   8    8.45    1.22
 -10  -1  -8    0.19    0.84
 -10  -1  -8    0.13    0.15
 -10  -1  -8    0.10    0.12
  10   1   8    0.60    0.78
  10   1   8    0.99    0.81
 -11  -1  -8    8.99    0.75
 -11  -1  -8    8.60    0.77
 -11  -1  -8    7.88    1.55
  11   1   8    8.11    1.11
 -12  -1  -8   10.58    0.86
 -12  -1  -8    7.62    1.62
 -12  -1  -8    9.13    0.84
 -13  -1  -8    0.83    0.33
 -13  -1  -8    1.62    0.42
 -14  -1  -8   16.15    1.32
 -14  -1  -8   18.01    1.26
 -15  -1  -8   17.02    1.18
 -15  -1  -8   15.69    1.17
  -9   2   8    7.20    1.62
   8  -2  -8    0.28    0.27
  -8   2   8    0.05    0.25
   7  -2  -8    1.83    0.63
  -7   2   8    3.18    1.07
  -7   2   8    5.03    1.85
   6  -2  -8   -0.04    0.70
   6  -2  -8   -0.08    0.10
  -6   2   8    0.69    1.35
  -6   2   8   -0.05    0.13
   5  -2  -8   18.65    1.55
   5  -2  -8   15.55    1.41
   5  -2  -8   14.86    1.34
  -5   2   8   29.20    2.69
  -5   2   8   19.90    2.25
   4  -2  -8    5.52    0.66
   4  -2  -8    5.83    0.62
   4  -2  -8    8.29    1.33
  -4   2   8    3.26    1.24
   3  -2  -8  143.61    4.76
   3  -2  -8  139.82    5.72
  -3   2   8  137.32    6.90
  -3   2   8  128.80    6.13
   2  -2  -8  138.68    5.64
  -2   2   8  139.99    6.12
  -2   2   8  144.41    6.40
   1  -2  -8    0.47    0.28
   1  -2  -8    0.28    0.17
  -1   2   8    0.14    0.18
  -1   2   8    0.02    0.73
   0  -2  -8   42.41    2.05
   0  -2  -8   41.50    2.23
   0  -2  -8   44.67    3.26
   0   2   8   40.80    2.75
   0   2   8   38.04    2.26
  -1  -2  -8  239.23    9.77
   1   2   8  254.38    9.22
   1   2   8  249.41    9.93
  -2  -2  -8  117.90    4.52
  -2  -2  -8  104.43    5.13
   2   2   8  114.74    5.32
   2   2   8  109.36    4.50
  -3  -2  -8    0.98    0.31
  -3  -2  -8    2.04    0.43
  -3  -2  -8    1.18    0.26
  -3  -2  -8    1.41    0.87
   3   2   8    1.50    0.37
   3   2   8    0.61    0.64
   3   2   8    1.33    0.28
  -4  -2  -8   23.43    1.29
  -4  -2  -8   22.64    1.26
  -4  -2  -8   24.55    1.93
  -4  -2  -8   23.47    1.14
  -5  -2  -8    3.99    0.62
  -5  -2  -8    2.12    0.79
  -5  -2  -8    3.36    0.32
  -5  -2  -8    3.40    0.49
   5   2   8    2.66    0.52
   5   2   8    3.20    0.99
  -6  -2  -8    0.38    0.16
  -6  -2  -8    0.34    0.43
  -6  -2  -8    0.80    0.87
  -6  -2  -8    0.39    0.13
   6   2   8    0.31    0.72
   6   2   8    0.73    0.48
  -7  -2  -8    7.36    0.49
  -7  -2  -8    7.72    0.58
  -7  -2  -8    6.87    1.02
   7   2   8    8.51    1.12
   7   2   8    5.23    0.90
   7   2   8    8.04    1.29
  -8  -2  -8   37.05    1.60
  -8  -2  -8   37.23    2.29
  -8  -2  -8   37.88    1.70
   8   2   8   43.71    2.63
   8   2   8   38.43    2.24
  -9  -2  -8    1.34    0.81
  -9  -2  -8    2.21    0.34
  -9  -2  -8    1.98    0.34
   9   2   8    2.06    0.84
   9   2   8    2.57    0.99
 -10  -2  -8    8.86    0.63
 -10  -2  -8    8.45    0.64
 -10  -2  -8    7.10    1.40
  10   2   8    9.37    1.18
  10   2   8   10.25    1.34
 -11  -2  -8   35.32    2.81
 -11  -2  -8   38.67    1.75
 -11  -2  -8   43.03    1.85
  11   2   8   38.52    2.23
  11   2   8   35.33    2.24
 -12  -2  -8    5.94    1.63
 -12  -2  -8    5.34    0.53
 -12  -2  -8    5.58    0.52
   9  -3  -8    7.59    1.52
  -9   3   8    7.27    1.60
   8  -3  -8    5.92    1.17
  -8   3   8    3.78    1.08
  -7   3   8   31.49    2.71
  -7   3   8   32.98    3.13
   6  -3  -8   67.75    2.76
   6  -3  -8   65.76    3.49
  -6   3   8   61.60    3.96
  -6   3   8   58.69    3.91
   5  -3  -8    0.58    0.90
   5  -3  -8    0.62    0.37
   5  -3  -8    0.30    0.42
  -5   3   8    0.41    0.36
  -5   3   8    1.20    1.34
   4  -3  -8   11.42    1.11
   4  -3  -8   10.25    0.62
   4  -3  -8   10.19    0.60
  -4   3   8   12.77    1.81
  -4   3   8   11.87    1.64
   3  -3  -8  138.94    5.71
  -3   3   8  143.66    6.46
  -3   3   8  133.05    6.19
   2  -3  -8  120.16    4.99
  -2   3   8  116.69    5.68
  -2   3   8  128.85    5.54
   1  -3  -8    0.13    0.12
  -1   3   8   -0.76    0.77
  -1   3   8    0.12    0.14
   0  -3  -8    3.27    1.22
   0  -3  -8    5.31    0.74
   0   3   8    5.53    0.88
   0   3   8    5.56    1.24
  -1  -3  -8    6.22    1.26
  -1  -3  -8    5.83    0.75
  -1  -3  -8    5.50    0.54
   1   3   8    9.43    1.49
   1   3   8    5.72    0.85
  -2  -3  -8    1.96    0.41
  -2  -3  -8    1.96    1.00
  -2  -3  -8    2.98    0.47
   2   3   8    2.14    0.75
   2   3   8    2.61    0.52
  -3  -3  -8    0.02    0.05
  -3  -3  -8    0.33    0.15
  -3  -3  -8    0.33    0.80
   3   3   8   -0.15    0.18
   3   3   8    0.01    0.16
   3   3   8    0.33    0.60
  -4  -3  -8   50.11    2.06
  -4  -3  -8   38.92    2.63
  -4  -3  -8   49.70    1.90
  -4  -3  -8   46.76    2.06
   4   3   8   47.30    2.92
   4   3   8   46.11    1.96
  -5  -3  -8    1.50    0.23
  -5  -3  -8    1.06    0.23
   5   3   8    0.64    0.66
   5   3   8    1.98    0.89
   5   3   8    1.22    0.45
  -6  -3  -8    0.65    0.49
  -6  -3  -8    0.50    0.12
   6   3   8   -0.18    0.69
   6   3   8    0.26    0.60
   6   3   8    0.31    0.47
  -7  -3  -8   56.78    2.89
   7   3   8   59.80    2.92
   7   3   8   63.34    3.46
  -8  -3  -8   13.27    1.39
   8   3   8   14.03    1.71
   8   3   8   10.58    1.29
  -9  -3  -8   12.00    1.52
   9   3   8   11.70    1.36
   9   3   8   12.70    1.57
 -10  -3  -8   23.37    2.14
  10   3   8   25.56    2.10
  10   3   8   23.05    1.86
 -11  -3  -8   39.53    2.90
  11   3   8   35.26    2.90
  11   3   8   36.78    2.37
 -12  -3  -8   -0.75    1.31
   9  -4  -8    0.32    0.30
  -9   4   8    0.60    0.47
   8  -4  -8    7.12    1.21
  -8   4   8    5.62    1.39
   7  -4  -8   37.68    2.52
  -7   4   8   37.34    2.98
  -7   4   8   37.42    3.36
   6  -4  -8   68.69    2.81
   6  -4  -8   67.35    3.56
  -6   4   8   66.56    4.08
  -6   4   8   63.53    3.99
   5  -4  -8    0.56    0.45
   5  -4  -8    0.05    0.13
   5  -4  -8   -0.26    0.36
  -5   4   8   -0.09    1.25
  -5   4   8    0.03    0.17
   4  -4  -8    0.19    0.18
  -4   4   8    0.36    0.30
  -4   4   8    0.79    1.10
   3  -4  -8    1.81    0.52
  -3   4   8    1.75    1.11
  -3   4   8    1.99    0.68
   2  -4  -8    6.20    0.87
  -2   4   8    7.01    1.32
  -2   4   8    6.87    1.19
   1  -4  -8    6.19    0.91
   1  -4  -8    7.45    0.73
  -1   4   8    7.96    1.19
  -1   4   8    5.84    1.22
   0  -4  -8   17.81    1.25
   0  -4  -8   19.96    1.21
   0   4   8   19.92    1.90
   0   4   8   18.04    1.37
  -1  -4  -8    1.26    0.36
  -1  -4  -8    2.24    0.44
   1   4   8    2.88    0.88
   1   4   8    1.59    0.54
   1   4   8    1.79    0.72
  -2  -4  -8    5.01    0.46
  -2  -4  -8    5.76    0.73
   2   4   8    4.52    0.95
   2   4   8    5.32    1.19
  -3  -4  -8   41.62    1.73
  -3  -4  -8   42.48    1.86
   3   4   8   39.72    1.61
   3   4   8   43.10    2.42
   3   4   8   37.62    2.75
   3   4   8   42.55    1.58
  -4  -4  -8    8.06    0.55
  -4  -4  -8    8.90    0.50
   4   4   8    8.85    1.53
   4   4   8    9.35    0.75
   4   4   8    9.54    1.26
   4   4   8    8.82    0.66
   5   4   8   25.49    2.24
   5   4   8   24.94    1.87
   5   4   8   25.29    1.49
   5   4   8   25.80    1.36
  -6  -4  -8    0.61    0.50
   6   4   8    3.15    0.86
   6   4   8    0.12    0.76
   6   4   8    1.65    0.65
  -7  -4  -8   74.20    3.57
   7   4   8   85.09    4.20
   7   4   8   72.84    3.56
   7   4   8   75.77    3.64
  -8  -4  -8    2.72    0.83
   8   4   8    3.45    0.93
   8   4   8    5.15    1.21
  -9  -4  -8    6.66    1.22
   9   4   8    7.57    1.39
   9   4   8    8.02    1.44
 -10  -4  -8    1.87    1.02
  10   4   8    2.09    1.10
  10   4   8    2.25    1.10
 -11  -4  -8    2.28    1.27
  11   4   8    0.63    1.20
  11   4   8    0.39    0.93
 -12  -4  -8   20.23    2.58
  12   4   8   20.90    2.23
   9  -5  -8   -0.07    0.14
  -9   5   8    0.15    0.30
   8  -5  -8    2.27    0.73
  -8   5   8    0.75    0.53
   7  -5  -8    0.94    0.45
  -7   5   8    1.09    1.86
  -7   5   8    0.38    0.41
   6  -5  -8    5.41    1.04
   6  -5  -8    6.14    0.77
  -6   5   8    4.19    1.61
  -6   5   8    4.68    1.13
   5  -5  -8    4.02    0.85
  -5   5   8    6.48    1.56
   4  -5  -8    0.34    0.24
  -4   5   8   -0.02    1.09
  -4   5   8    0.00    0.11
   3  -5  -8    1.80    0.54
  -3   5   8    2.36    1.15
  -3   5   8    1.84    0.63
   2  -5  -8    8.39    0.85
  -2   5   8    8.25    1.22
  -2   5   8   10.32    1.61
   1  -5  -8   12.74    1.02
  -1   5   8   16.43    2.01
  -1   5   8   13.13    1.21
   0  -5  -8   16.29    1.15
   0  -5  -8   16.69    1.09
   0   5   8   15.70    1.25
   0   5   8   15.81    2.02
  -1  -5  -8   13.05    0.94
  -1  -5  -8   12.28    0.85
   1   5   8   12.58    1.83
   1   5   8   13.29    1.04
  -2  -5  -8   10.03    0.73
  -2  -5  -8    9.45    0.66
   2   5   8   11.20    1.71
  -3  -5  -8   39.31    1.65
  -3  -5  -8   39.63    1.72
   3   5   8   40.40    2.80
   3   5   8   41.88    1.58
   3   5   8   37.68    1.66
   3   5   8   41.30    2.49
  -4  -5  -8    0.16    0.07
   4   5   8   -0.27    0.36
   4   5   8    0.33    0.86
   4   5   8    0.06    0.24
   4   5   8    0.21    0.63
   5   5   8   16.48    1.06
   5   5   8   15.52    1.47
   5   5   8   14.45    1.96
   5   5   8   14.44    1.21
   6   5   8    8.13    1.23
   6   5   8    5.10    0.94
   6   5   8    7.97    1.42
   6   5   8    5.84    0.78
   7   5   8    2.77    0.95
   7   5   8    2.28    0.93
   7   5   8    2.04    0.98
   7   5   8    3.33    0.68
   8   5   8   62.17    3.58
   8   5   8   53.31    2.79
   8   5   8   58.75    3.16
   9   5   8   15.67    1.99
   9   5   8   18.33    1.60
   9   5   8   22.85    2.01
  10   5   8    1.12    0.79
  10   5   8    0.19    1.20
  10   5   8    0.37    1.22
  11   5   8    9.86    1.63
  11   5   8    6.21    1.40
  12   5   8   -1.78    1.83
   9  -6  -8    2.07    0.80
   8  -6  -8    0.89    0.49
  -8   6   8    0.50    0.51
   7  -6  -8    1.51    0.55
  -7   6   8    1.25    0.62
  -7   6   8    1.28    1.96
   6  -6  -8    5.54    1.05
  -6   6   8    6.13    1.70
  -6   6   8    5.26    1.28
   5  -6  -8    2.02    0.68
  -5   6   8    3.01    0.86
  -5   6   8    3.74    1.44
   4  -6  -8    4.84    0.87
  -4   6   8    4.98    1.08
  -4   6   8    7.40    1.55
   3  -6  -8    1.45    0.43
  -3   6   8    3.15    1.11
  -3   6   8    2.43    0.71
   2  -6  -8   32.15    1.88
   2  -6  -8   28.91    1.81
  -2   6   8   27.99    2.07
  -2   6   8   32.75    2.66
   1  -6  -8   14.42    1.08
   1  -6  -8   12.76    1.03
  -1   6   8   11.38    1.15
   0  -6  -8    0.61    0.23
   0  -6  -8    0.52    0.23
   0   6   8   -0.46    0.90
  -1  -6  -8   20.49    1.22
  -1  -6  -8   21.24    1.20
   1   6   8   21.09    2.24
  -2  -6  -8    1.05    0.27
  -2  -6  -8    0.76    0.22
   2   6   8    0.50    0.26
   2   6   8    0.64    0.86
   2   6   8    0.59    0.18
  -3  -6  -8    4.19    0.34
  -3  -6  -8    3.41    0.33
   3   6   8    4.01    0.44
   3   6   8    4.65    0.62
   3   6   8    4.05    1.17
   4   6   8   38.33    1.99
   4   6   8   39.54    3.02
   4   6   8   37.96    1.71
   5   6   8   56.73    2.39
   5   6   8   51.77    2.64
   5   6   8   54.11    3.57
   6   6   8   -0.30    0.83
   6   6   8    0.94    0.98
   6   6   8    0.84    0.43
   7   6   8    7.98    1.02
   7   6   8    5.50    1.45
   7   6   8    6.83    1.39
   8   6   8    0.74    0.64
   8   6   8   -0.75    1.07
   9   6   8   -1.57    1.12
   9   6   8   -0.22    0.70
  10   6   8    1.42    1.39
  10   6   8    1.05    0.97
  11   6   8   18.02    2.28
  11   6   8   20.92    2.21
   9  -7  -8    0.10    0.20
   8  -7  -8    3.76    0.89
   7  -7  -8    0.28    0.30
  -7   7   8    0.17    0.35
  -7   7   8   -2.11    2.10
   6  -7  -8    8.31    1.34
  -6   7   8   11.11    2.22
  -6   7   8    8.57    1.61
   5  -7  -8    0.04    0.12
  -5   7   8    0.00    0.17
  -5   7   8    0.04    1.50
   4  -7  -8    1.91    0.57
  -4   7   8    4.18    1.44
  -4   7   8    2.24    0.72
   3  -7  -8   13.64    1.22
  -3   7   8   12.05    1.87
  -3   7   8   16.86    2.07
   2  -7  -8    1.06    0.41
   2  -7  -8    0.92    0.35
  -2   7   8    0.56    0.38
  -2   7   8    1.27    1.02
   1  -7  -8    1.64    0.44
   1  -7  -8    1.82    0.47
  -1   7   8    3.03    1.15
  -1   7   8    2.38    0.63
   0  -7  -8    8.28    0.77
   0  -7  -8    8.57    0.75
   0   7   8    7.07    1.08
   0   7   8    8.72    1.72
  -1  -7  -8   82.36    3.26
  -1  -7  -8   80.14    3.28
   1   7   8   74.35    2.94
   1   7   8   82.79    2.87
   1   7   8   77.75    4.53
  -2  -7  -8    0.50    0.18
  -2  -7  -8    1.00    0.25
   2   7   8    0.57    0.98
   2   7   8    0.21    0.25
   2   7   8    1.05    0.47
  -3  -7  -8    1.66    0.26
   3   7   8    1.65    0.35
   3   7   8    1.61    0.58
   3   7   8    0.37    1.01
   4   7   8    1.20    1.75
   4   7   8   -0.01    0.64
   4   7   8    0.26    0.29
   5   7   8    0.41    0.75
   5   7   8   -0.17    0.33
   5   7   8    0.99    1.18
   6   7   8   14.08    1.10
   6   7   8   14.93    1.60
   6   7   8   13.36    2.09
   7   7   8    8.08    1.78
   7   7   8    9.22    1.11
   8   7   8    2.99    0.82
   8   7   8    2.87    1.40
   9   7   8    5.88    1.70
   9   7   8    3.22    0.92
  10   7   8    1.37    0.96
  10   7   8    0.78    1.51
  11   7   8    1.39    1.17
  11   7   8    2.27    1.79
   9  -8  -8    1.77    0.70
   8  -8  -8    2.22    0.78
   7  -8  -8    3.59    0.89
  -7   8   8    8.89    2.66
   6  -8  -8    1.70    0.63
  -6   8   8   -1.86    1.86
   5  -8  -8    0.45    0.28
  -5   8   8    0.07    1.73
   4  -8  -8   -0.08    0.43
   4  -8  -8    0.09    0.15
  -4   8   8   -0.84    1.41
  -4   8   8   -0.38    0.62
  -4   8   8    0.00    0.27
   3  -8  -8   28.58    1.90
  -3   8   8   25.89    2.25
  -3   8   8   29.75    2.83
  -2   8   8    1.49    1.24
  -2   8   8    0.25    0.24
  -1   8   8    0.33    0.45
  -1   8   8    0.63    1.15
  -1   8   8    0.55    0.30
   0  -8  -8    2.95    0.59
   0  -8  -8    2.10    0.42
   0   8   8    2.48    0.40
   0   8   8    1.60    1.14
   0   8   8    2.47    0.57
  -1  -8  -8    0.13    0.11
  -1  -8  -8   -0.03    0.04
   1   8   8    0.69    0.54
   1   8   8   -0.04    0.29
   1   8   8    0.18    1.11
  -2  -8  -8   29.35    1.42
  -2  -8  -8   33.33    1.52
   2   8   8   29.23    1.43
   2   8   8   27.45    1.73
   2   8   8   34.32    2.86
  -3  -8  -8    0.15    0.10
  -3  -8  -8    0.24    0.11
   3   8   8    0.38    0.68
   3   8   8    0.53    0.33
   3   8   8   -0.70    1.10
   4   8   8    9.07    1.18
   4   8   8    5.69    0.72
   4   8   8    5.32    1.44
   5   8   8    8.14    1.69
   5   8   8    4.65    1.13
   5   8   8    7.57    0.89
   6   8   8    6.07    0.87
   6   8   8    6.67    1.65
   7   8   8    1.12    1.30
   7   8   8    0.68    0.62
   8   8   8    8.89    1.26
   8   8   8    6.79    1.84
   9   8   8   21.72    2.69
   9   8   8   28.14    2.09
  10   8   8   -0.84    0.99
  10   8   8    2.46    1.86
  11   8   8    5.35    2.06
   7  -9  -8    8.55    1.42
   6  -9  -8    1.07    0.52
  -6   9   8   -1.35    2.21
   5  -9  -8    1.56    0.54
  -5   9   8    1.41    2.04
   4  -9  -8    3.19    0.80
  -4   9   8    4.58    1.85
  -4   9   8    2.31    0.80
   3  -9  -8    0.23    0.22
  -3   9   8    0.28    0.62
  -3   9   8    1.51    1.38
   2  -9  -8   27.15    1.48
   2  -9  -8   28.87    1.88
  -2   9   8   29.68    1.49
  -2   9   8   28.15    3.05
   1  -9  -8   13.58    1.15
  -1   9   8   12.82    0.97
  -1   9   8   14.58    2.21
   0  -9  -8    4.27    0.65
   0  -9  -8    4.50    0.69
   0   9   8    2.79    1.57
   0   9   8    4.48    0.59
   0   9   8    4.08    0.86
  -1  -9  -8    2.84    0.49
   1   9   8    2.41    0.54
   1   9   8    3.47    1.42
   1   9   8    1.30    0.80
  -2  -9  -8    4.60    0.59
  -2  -9  -8    4.64    0.60
   2   9   8    4.65    0.65
   2   9   8    7.77    1.68
   2   9   8    5.09    0.97
  -3  -9  -8    7.53    0.53
  -3  -9  -8    6.92    0.48
   3   9   8    6.89    1.92
   3   9   8    7.20    0.81
   3   9   8    6.53    1.14
   4   9   8    2.85    1.27
   4   9   8    4.38    1.13
   4   9   8    3.09    0.65
   5   9   8   43.34    2.22
   5   9   8   40.97    3.45
   6   9   8    2.08    1.32
   6   9   8    1.48    0.63
   7   9   8    4.70    0.95
   7   9   8    5.36    1.68
   8   9   8   15.44    2.48
   8   9   8   13.62    1.49
   9   9   8    3.05    1.95
   9   9   8    1.00    0.99
  10   9   8   -2.97    2.04
  10   9   8   -1.01    1.10
  11   9   8   46.89    4.65
   8 -10  -8    2.15    0.72
   7 -10  -8    0.57    0.67
   6 -10  -8   15.30    1.51
  -6  10   8    6.49    2.86
   5 -10  -8   19.79    1.72
  -5  10   8   18.83    3.14
   4 -10  -8    0.55    0.34
  -4  10   8   -2.69    1.98
   3 -10  -8    0.50    0.35
  -3  10   8   -2.24    1.55
  -3  10   8    0.74    0.75
   2 -10  -8    3.38    0.78
   2 -10  -8    3.86    0.85
  -2  10   8    2.80    1.77
  -2  10   8    3.74    0.75
   1 -10  -8    8.43    0.94
   1 -10  -8    8.51    0.82
   1 -10  -8    6.21    0.93
  -1  10   8    8.24    2.17
  -1  10   8    9.82    0.99
   0 -10  -8    2.21    0.51
   0 -10  -8    1.33    0.36
   0 -10  -8    0.86    0.64
   0  10   8    0.70    1.55
   0  10   8    1.78    0.58
  -1 -10  -8   49.05    2.26
  -1 -10  -8   52.07    2.45
   1  10   8   56.68    4.16
   1  10   8   51.43    2.34
   1  10   8   45.33    2.71
  -2 -10  -8   10.31    0.78
  -2 -10  -8    8.91    0.66
   2  10   8   10.03    1.42
   2  10   8    8.79    0.93
   2  10   8    8.22    1.86
  -3 -10  -8    2.06    0.34
  -3 -10  -8    1.96    0.31
   3  10   8    2.35    0.60
   3  10   8    2.08    1.42
   3  10   8    0.53    1.16
   4  10   8   15.15    1.28
   4  10   8   15.24    2.42
   5  10   8    0.79    1.51
   5  10   8    0.08    0.53
   6  10   8    2.04    1.72
   6  10   8    2.09    0.80
   7  10   8   47.81    2.77
   7  10   8   54.07    4.27
   8  10   8  120.94    6.75
   8  10   8  123.99    5.41
   9  10   8   15.88    1.90
  10  10   8   -2.70    2.38
   7 -11  -8    0.68    0.47
   5 -11  -8   14.59    1.88
  -5  11   8   14.67    4.60
  -4  11   8    2.76    2.42
   3 -11  -8   21.52    1.71
  -3  11   8   14.69    2.84
   2 -11  -8   15.32    1.36
  -2  11   8   17.59    2.85
  -2  11   8   13.97    1.46
   1 -11  -8    0.70    0.32
  -1  11   8    0.84    0.75
  -1  11   8    0.70    2.57
   0 -11  -8   13.48    1.01
   0 -11  -8   17.52    1.28
   0 -11  -8   11.63    1.95
   0  11   8   12.88    1.33
  -1 -11  -8   -0.01    0.08
  -1 -11  -8   -0.91    0.88
  -1 -11  -8    0.66    0.35
   1  11   8   -0.53    1.26
   1  11   8    0.88    0.62
   1  11   8   -0.50    1.86
  -2 -11  -8    4.73    0.67
  -2 -11  -8    4.37    0.57
   2  11   8    1.12    1.60
   2  11   8    5.91    0.89
  -3 -11  -8   33.83    1.58
  -3 -11  -8   36.44    1.54
   3  11   8   34.17    3.52
   3  11   8   31.61    1.97
   4  11   8  197.46   12.30
   4  11   8  173.59    6.89
   5  11   8   28.62    5.11
   5  11   8   33.92    2.14
   6  11   8   -0.51    0.78
   6  11   8   -0.23    1.91
   7  11   8   16.11    2.91
   7  11   8   13.96    1.65
   8  11   8   45.50    3.04
   6 -12  -8   10.26    1.51
   5 -12  -8    0.57    0.38
   4 -12  -8    4.35    0.98
   3 -12  -8    0.62    0.35
   2 -12  -8    5.13    0.97
   1 -12  -8   12.86    1.20
  -1  12   8   11.62    1.39
  -1  12   8   14.12    2.94
   0 -12  -8   94.18    4.18
   0 -12  -8   95.47    3.96
   0  12   8   89.74    4.09
   0  12   8   96.93    6.05
  -1 -12  -8   39.09    2.12
  -1 -12  -8   39.82    1.96
  -2 -12  -8    0.23    0.14
  -2 -12  -8   -0.01    0.04
   2  12   8   -0.88    0.78
   2  12   8   -0.08    2.07
  -3 -12  -8   11.33    0.70
  -3 -12  -8   10.93    0.76
   3  12   8    8.24    1.23
   3  12   8    7.60    2.60
   4  12   8   49.73    2.77
   4  12   8   48.22    4.58
   5  12   8    5.23    1.19
   5  12   8   11.60    3.13
   6  12   8    0.98    1.13
   7  12   8    0.23    1.08
   5 -13  -8    1.62    0.61
   4 -13  -8   40.53    2.70
   3 -13  -8   33.69    2.43
   2 -13  -8   -0.02    0.07
   1 -13  -8    4.50    0.85
   0 -13  -8   34.91    2.13
   0  13   8   36.87    2.54
  -1 -13  -8    5.42    0.84
  -1 -13  -8    5.82    0.75
   1  13   8    5.66    1.23
  -2 -13  -8    3.17    0.50
  -2 -13  -8    3.48    0.60
   2  13   8    3.91    1.10
   3  13   8    2.18    1.04
   4  13   8    3.84    1.28
   5  13   8   -0.53    1.04
   4 -14  -8   11.76    1.58
   3 -14  -8    6.18    1.08
   2 -14  -8    4.70    0.92
   1 -14  -8    0.73    0.33
   0 -14  -8    4.93    0.87
  -1 -14  -8    0.48    0.28
   1  14   8    0.65    1.87
  -2 -14  -8    5.59    0.81
  -3 -14  -8    0.82    0.23
   3  14   8    0.64    1.24
   4  14   8   12.72    2.21
   2 -15  -8    6.38    1.16
   1 -15  -8    1.61    0.56
   0 -15  -8    7.84    1.12
  -1 -15  -8    6.93    0.95
  -2 -15  -8    0.60    0.26
  -2 -15  -8    0.94    0.32
  -3 -15  -8    0.08    0.09
  -3 -15  -8    0.17    0.12
   1 -10   9    0.33    0.42
   2 -10   9    6.96    1.48
  -3  10  -9   13.54    1.83
   3 -10   9   12.37    1.96
  -4  10  -9    0.63    0.44
  -5  10  -9    1.11    0.48
  -6  10  -9   52.87    3.26
  -7  10  -9   41.38    2.87
  -8  10  -9    0.28    0.23
  -1  -9   9    4.83    1.74
   0  -9   9   -0.07    0.16
  -1   9  -9    0.64    0.40
   1  -9   9    1.22    0.63
  -2   9  -9   36.99    2.50
   2  -9   9   35.09    2.82
  -3   9  -9   58.74    3.30
   3  -9   9   57.21    3.71
  -4   9  -9    1.84    0.64
   4  -9   9    1.08    0.55
  -5   9  -9    2.73    0.80
  -6   9  -9   19.07    1.67
  -7   9  -9    7.17    1.21
  -8   9  -9    1.67    0.72
  -9   9  -9    3.60    0.88
 -10   9  -9    0.00    0.11
  -3  -8   9    0.25    0.31
  -2  -8   9   12.07    1.96
   1   8  -9   57.79    3.76
  -1  -8   9   55.99    3.83
   0   8  -9    3.04    0.80
   0  -8   9    1.85    0.73
  -1   8  -9    4.48    0.97
   1  -8   9    3.83    1.09
  -2   8  -9   22.26    1.79
  -3   8  -9   17.56    3.04
  -3   8  -9   13.52    1.35
   3  -8   9   14.63    2.02
  -4   8  -9    4.25    0.85
   4  -8   9    5.85    1.23
  -5   8  -9    1.02    0.47
   5  -8   9    0.77    0.42
  -6   8  -9    2.37    0.68
  -7   8  -9    0.22    0.20
  -8   8  -9    4.83    0.96
  -9   8  -9    0.36    0.28
 -10   8  -9    4.24    1.01
 -11   8  -9    2.73    0.77
  -4  -7   9    7.21    1.60
  -3  -7   9    2.18    0.82
  -3  -7   9    2.90    1.02
   2   7  -9    9.40    1.39
  -2  -7   9    8.03    1.64
   1   7  -9   17.63    2.21
   1   7  -9   20.11    1.93
  -1  -7   9   14.55    1.90
   0   7  -9    1.70    0.68
   0   7  -9    2.23    1.30
   0  -7   9    1.66    0.61
  -1   7  -9    1.10    0.57
   1  -7   9    2.19    0.74
  -2   7  -9    2.53    0.70
  -2   7  -9    0.85    1.20
   2  -7   9    2.11    0.71
  -3   7  -9    0.29    0.23
  -3   7  -9    1.32    1.14
   3  -7   9    0.26    0.28
  -4   7  -9    5.63    0.96
   4  -7   9    4.62    1.02
   4  -7   9    4.11    1.95
  -5   7  -9    1.00    1.06
   5  -7   9   -0.20    1.64
  -6   7  -9    1.44    1.11
  -6   7  -9    1.92    0.59
   6  -7   9    1.45    1.75
   6  -7   9    1.58    0.77
  -7   7  -9   17.50    1.48
  -7   7  -9   14.01    1.95
   7  -7   9   18.06    2.61
  -8   7  -9    4.62    0.92
   8  -7   9    4.07    2.03
  -9   7  -9    8.75    1.24
   9  -7   9   12.03    2.39
 -10   7  -9    4.80    1.00
  10  -7   9    2.18    1.97
 -11   7  -9    4.47    0.92
 -12   7  -9    2.57    0.79
  -5  -6   9    9.80    1.77
  -4  -6   9    0.25    0.33
   3   6  -9    8.48    1.84
  -3  -6   9    8.42    1.68
   2   6  -9    0.45    1.71
   2   6  -9    0.83    0.41
  -2  -6   9    1.09    0.56
   1   6  -9    0.50    1.15
   1   6  -9    0.02    0.12
   0   6  -9    3.28    0.74
   0   6  -9    5.08    1.22
   0  -6   9    2.50    0.70
  -1   6  -9    0.16    0.15
  -1   6  -9    1.21    0.97
   1  -6   9   -0.87    1.51
   1  -6   9    1.13    0.68
  -2   6  -9    0.00    0.07
  -2   6  -9   -1.14    0.85
   2  -6   9    2.71    1.50
   2  -6   9    0.21    0.24
  -3   6  -9   20.64    1.88
  -3   6  -9   21.60    1.72
   3  -6   9   23.19    2.93
   3  -6   9   18.51    1.77
  -4   6  -9   -0.43    0.85
  -4   6  -9    0.22    0.21
   4  -6   9    0.10    0.16
   4  -6   9    1.95    1.77
  -5   6  -9    8.10    1.13
  -5   6  -9    5.69    1.21
   5  -6   9    6.59    1.14
   5  -6   9    7.47    2.83
  -6   6  -9    6.74    1.03
  -6   6  -9    5.81    1.25
   6  -6   9    5.83    1.79
   6  -6   9    6.53    1.20
  -7   6  -9   16.93    1.38
   7  -6   9   15.04    2.33
  -8   6  -9    2.28    1.34
  -8   6  -9    2.80    0.68
   8  -6   9    1.77    1.52
  -9   6  -9    2.38    0.67
   9  -6   9    1.86    1.64
 -10   6  -9   13.28    1.30
  10  -6   9   13.99    2.18
 -11   6  -9    2.24    0.94
 -12   6  -9    1.65    0.58
 -13   6  -9   15.33    1.54
  -6  -5   9   -0.09    0.20
  -5  -5   9    0.24    0.31
   4   5  -9    1.89    0.92
   4   5  -9   -0.18    2.43
  -4  -5   9    1.59    0.71
   3   5  -9    1.57    0.49
   3   5  -9    4.73    1.32
  -3  -5   9    1.43    0.73
   2   5  -9    1.63    0.64
   2   5  -9    0.03    1.07
  -2  -5   9    0.92    0.49
   1   5  -9   13.51    1.47
   1   5  -9   11.64    1.19
  -1  -5   9   14.82    1.96
  -1  -5   9   10.54    2.10
   0   5  -9    3.84    0.95
   0   5  -9    3.85    0.80
   0  -5   9    5.35    1.25
   0  -5   9    0.65    1.60
  -1   5  -9   11.59    1.37
  -1   5  -9   10.39    1.06
   1  -5   9   13.00    1.85
  -2   5  -9    4.96    1.00
  -2   5  -9    5.44    0.92
   2  -5   9    7.93    1.44
   2  -5   9    2.66    1.37
  -3   5  -9   20.70    1.67
  -3   5  -9   22.11    1.56
   3  -5   9   23.49    1.90
   3  -5   9   21.67    2.45
  -4   5  -9    0.01    0.06
  -4   5  -9    0.42    0.73
   4  -5   9   -1.50    1.00
   4  -5   9    0.03    0.13
  -5   5  -9    0.36    0.75
   5  -5   9    0.02    0.16
   5  -5   9   -0.07    1.06
  -6   5  -9   18.92    1.40
  -6   5  -9   16.61    1.72
   6  -5   9   22.50    2.45
   6  -5   9   17.43    1.56
  -7   5  -9    0.27    0.22
  -7   5  -9    0.50    0.89
   7  -5   9    0.31    1.26
  -8   5  -9    2.26    0.54
  -8   5  -9    1.58    1.03
   8  -5   9    4.52    1.44
  -9   5  -9   13.18    1.20
  -9   5  -9   11.79    1.70
   9  -5   9   13.13    2.02
 -10   5  -9   13.37    1.26
  10  -5   9   18.25    2.24
 -11   5  -9   15.17    1.40
 -12   5  -9    1.92    0.62
 -13   5  -9   -0.05    0.12
  -6  -4   9   -0.06    0.19
  -5  -4   9    0.19    0.31
   4   4  -9    3.52    1.45
   4   4  -9    5.41    1.11
  -4  -4   9    4.63    1.18
   3   4  -9    2.76    0.65
   3   4  -9    4.75    1.17
  -3  -4   9    2.22    0.83
  -3  -4   9    2.04    1.91
   2   4  -9    2.74    0.70
   2   4  -9    2.00    0.89
  -2  -4   9    1.43    0.64
  -2  -4   9    0.15    1.42
   1   4  -9   16.89    1.44
   1   4  -9   23.75    2.00
  -1  -4   9   17.60    1.76
  -1  -4   9   20.67    2.90
   0   4  -9    1.99    0.61
   0   4  -9    1.29    0.70
   0  -4   9    2.16    1.45
   0  -4   9    2.78    0.76
  -1   4  -9    4.11    0.78
  -1   4  -9    3.34    0.81
   1  -4   9    3.82    1.54
   1  -4   9    4.38    1.03
  -2   4  -9   10.21    0.98
  -2   4  -9    9.98    1.16
   2  -4   9   12.18    1.66
   2  -4   9   12.43    1.80
  -3   4  -9   -0.12    0.59
  -3   4  -9    0.09    0.12
   3  -4   9   -1.79    0.92
   3  -4   9    0.25    0.22
  -4   4  -9    4.24    0.72
   4  -4   9    3.80    1.32
   4  -4   9    5.25    0.97
  -5   4  -9   11.01    1.35
  -5   4  -9   10.82    0.98
   5  -4   9    8.87    1.27
   5  -4   9   14.03    2.08
  -6   4  -9   18.24    1.63
   6  -4   9   17.03    2.23
   6  -4   9   18.07    1.50
  -7   4  -9   29.95    2.23
  -7   4  -9   34.35    1.94
   7  -4   9   31.63    2.73
  -8   4  -9   20.27    1.45
  -8   4  -9   19.96    1.90
   8  -4   9   21.11    2.38
  -9   4  -9   -0.04    0.05
  -9   4  -9    1.42    1.03
   9  -4   9   -0.35    1.25
 -10   4  -9    1.89    1.22
  10  -4   9    1.29    1.27
 -11   4  -9   10.01    1.29
  11  -4   9   12.10    1.84
 -12   4  -9    0.11    0.21
 -13   4  -9    0.01    0.12
 -14   4  -9    9.40    1.32
  -7  -3   9    0.40    0.40
  -6  -3   9    0.68    0.51
   5   3  -9    5.60    2.36
   5   3  -9    6.71    1.27
  -5  -3   9    6.75    1.48
   4   3  -9    4.69    0.97
   4   3  -9    6.37    1.23
  -4  -3   9    7.07    1.95
  -4  -3   9    2.14    1.87
   3   3  -9    7.54    1.20
   3   3  -9    5.58    0.97
  -3  -3   9    7.06    1.48
   2   3  -9    1.91    0.75
   2   3  -9    1.62    0.52
  -2  -3   9    4.19    1.62
  -2  -3   9    0.89    0.47
   1   3  -9   -0.13    0.60
   1   3  -9    0.01    0.09
  -1  -3   9    1.09    0.85
  -1  -3   9   -0.34    1.09
  -1  -3   9    0.05    0.15
   0   3  -9    4.48    0.76
   0   3  -9    3.76    0.75
   0  -3   9    4.54    0.89
   0  -3   9    4.99    1.47
  -1   3  -9    0.20    0.52
  -1   3  -9    0.91    0.38
   1  -3   9    0.34    0.62
   1  -3   9   -0.47    0.97
   1  -3   9    0.68    0.38
  -2   3  -9   20.38    1.43
  -2   3  -9   19.62    1.38
   2  -3   9   20.51    2.30
   2  -3   9   18.52    1.39
   2  -3   9   19.14    1.62
  -3   3  -9   23.97    1.53
  -3   3  -9   26.58    1.62
   3  -3   9   23.02    1.53
   3  -3   9   26.37    2.40
   3  -3   9   22.64    1.77
  -4   3  -9   60.74    3.43
  -4   3  -9   73.74    3.24
  -4   3  -9   73.83    3.20
   4  -3   9   71.08    3.13
   4  -3   9   64.64    3.45
   4  -3   9   67.95    4.12
  -5   3  -9    0.79    0.29
  -5   3  -9    1.01    0.61
   5  -3   9    1.69    0.54
   5  -3   9   -0.18    1.02
  -6   3  -9    0.18    0.15
  -6   3  -9    0.15    0.21
   6  -3   9    0.16    0.16
   6  -3   9   -1.00    0.95
  -7   3  -9   38.03    2.39
  -7   3  -9   41.15    2.18
   7  -3   9   33.23    2.74
   7  -3   9   38.92    2.59
  -8   3  -9    9.97    1.31
  -8   3  -9   10.99    1.49
  -8   3  -9    9.32    0.89
   8  -3   9    9.41    1.66
  -9   3  -9    0.03    0.85
  -9   3  -9    0.19    0.17
   9  -3   9    1.30    1.20
 -10   3  -9   17.93    2.35
 -10   3  -9   22.85    1.56
  10  -3   9   30.19    2.83
 -11   3  -9    1.52    1.35
 -11   3  -9    1.95    0.53
  11  -3   9    1.49    1.24
 -12   3  -9   -0.04    0.06
 -13   3  -9   -0.07    0.07
 -14   3  -9    5.56    1.01
  -7  -2   9    1.93    0.83
   6   2  -9    0.34    0.27
  -6  -2   9    0.06    0.17
  -6  -2   9   -0.04    2.60
   5   2  -9   -0.06    1.10
   5   2  -9    0.07    0.19
  -5  -2   9    0.25    0.28
  -5  -2   9   -1.32    1.80
   4   2  -9    3.53    0.83
   4   2  -9    4.94    1.04
  -4  -2   9    4.28    1.06
  -4  -2   9    5.32    1.94
   3   2  -9    1.93    1.40
   3   2  -9    0.09    0.12
   3   2  -9    0.44    0.72
  -3  -2   9   -0.03    0.12
  -3  -2   9   -0.59    1.23
   2   2  -9    2.79    0.71
   2   2  -9    3.70    0.77
   2   2  -9    4.23    1.13
  -2  -2   9    1.23    1.34
  -2  -2   9    3.64    0.96
   1   2  -9    9.44    0.97
   1   2  -9   10.60    1.36
   1   2  -9   10.87    1.26
  -1  -2   9   13.95    2.46
  -1  -2   9   10.26    1.87
   0   2  -9   99.03    4.29
   0   2  -9  103.25    3.93
   0  -2   9   90.65    4.66
   0  -2   9   98.08    5.23
   0  -2   9   97.33    3.89
  -1   2  -9    4.93    0.68
  -1   2  -9    3.38    0.55
   1  -2   9    4.65    0.67
   1  -2   9    3.95    1.23
   1  -2   9    4.75    0.97
  -2   2  -9    2.01    0.53
  -2   2  -9    1.30    0.39
   2  -2   9    1.74    0.58
   2  -2   9    1.65    0.97
   2  -2   9    1.43    0.52
  -3   2  -9   39.95    2.08
  -3   2  -9   43.43    2.08
  -3   2  -9   39.49    2.38
   3  -2   9   38.05    2.97
   3  -2   9   39.51    2.37
   3  -2   9   40.61    2.41
   3  -2   9   38.30    1.95
  -4   2  -9   52.76    2.85
  -4   2  -9   53.18    2.52
  -4   2  -9   55.49    2.57
   4  -2   9   54.02    2.85
   4  -2   9   48.94    3.33
  -5   2  -9    0.27    0.54
   5  -2   9    0.93    0.94
   5  -2   9    0.10    0.55
   5  -2   9   -0.01    0.07
  -6   2  -9   15.75    1.43
  -6   2  -9   18.23    1.18
  -6   2  -9   16.55    1.36
   6  -2   9   19.33    2.25
   6  -2   9   17.40    1.33
  -7   2  -9   10.98    0.90
  -7   2  -9   10.89    1.39
   7  -2   9   10.46    1.33
   7  -2   9   11.96    2.02
  -8   2  -9   -0.06    0.04
  -8   2  -9    0.01    0.10
  -8   2  -9    0.11    0.66
  -9   2  -9    0.53    0.77
  -9   2  -9    0.31    0.25
  -9   2  -9    0.20    0.16
   9  -2   9   -0.34    0.98
 -10   2  -9   28.29    2.35
 -10   2  -9   30.03    2.01
 -10   2  -9   28.63    1.74
  10  -2   9   30.62    2.40
 -11   2  -9    1.45    0.51
 -11   2  -9    3.34    1.37
 -11   2  -9    2.07    0.53
  11  -2   9   -0.33    1.15
 -12   2  -9   10.21    1.32
 -14   2  -9    8.55    1.22
 -15   2  -9    1.16    0.49
  -8  -1   9    0.48    0.52
  -7  -1   9    0.15    0.28
   6   1  -9   -0.04    0.11
  -6  -1   9    1.01    2.02
  -6  -1   9    0.09    0.20
   5   1  -9    1.62    0.50
   5   1  -9    3.74    1.04
  -5  -1   9    2.93    0.92
  -5  -1   9    0.18    1.88
   4   1  -9   53.43    2.99
   4   1  -9   51.78    2.53
  -4  -1   9   51.66    3.46
  -4  -1   9   56.28    3.95
   3   1  -9    7.37    1.17
   3   1  -9    7.68    0.91
   3   1  -9   10.39    1.42
  -3  -1   9    8.04    1.46
  -3  -1   9    7.42    1.68
   2   1  -9   -0.43    0.73
   2   1  -9    0.49    0.28
   2   1  -9    0.42    0.47
  -2  -1   9   -0.06    0.11
  -2  -1   9    0.35    1.07
   1   1  -9   36.45    2.05
   1   1  -9   34.37    1.88
   1   1  -9   33.49    1.79
  -1  -1   9   32.18    2.32
  -1  -1   9   32.96    2.73
   0   1  -9  103.39    3.94
   0   1  -9   93.63    4.08
   0  -1   9   93.10    5.08
   0  -1   9   94.93    4.55
   0  -1   9   89.66    3.62
  -1   1  -9    1.09    0.50
  -1   1  -9    1.51    0.37
   1  -1   9    1.45    1.04
   1  -1   9    1.23    0.47
   1  -1   9    1.66    0.46
  -2   1  -9    6.21    0.87
  -2   1  -9    7.10    1.07
  -2   1  -9    9.58    0.81
   2  -1   9    8.18    0.77
   2  -1   9    6.46    1.35
   2  -1   9    6.83    1.16
  -3   1  -9   18.78    1.22
  -3   1  -9   19.10    1.46
  -3   1  -9   19.48    1.24
   3  -1   9   16.93    1.87
   3  -1   9   19.51    1.46
   3  -1   9   19.83    1.18
  -4   1  -9    2.11    0.55
  -4   1  -9    1.63    0.36
   4  -1   9    2.24    1.10
   4  -1   9    1.61    0.44
   4  -1   9    1.35    0.48
  -5   1  -9    0.09    0.14
  -5   1  -9    0.29    0.44
  -5   1  -9    0.22    0.15
   5  -1   9    0.15    0.99
   5  -1   9    0.23    0.20
   5  -1   9    0.27    0.48
  -6   1  -9   35.41    2.00
  -6   1  -9   33.23    1.71
   6  -1   9   31.65    1.88
   6  -1   9   34.29    2.62
   6  -1   9   32.71    1.90
  -7   1  -9   17.15    1.13
  -7   1  -9   18.04    1.34
  -7   1  -9   20.26    1.58
   7  -1   9   20.01    1.98
  -8   1  -9    5.82    0.84
  -8   1  -9    5.29    0.97
  -8   1  -9    5.96    0.93
   8  -1   9    9.31    1.47
  -9   1  -9   85.68    4.19
  -9   1  -9   85.88    3.92
  -9   1  -9   89.90    3.67
   9  -1   9   84.99    4.28
 -10   1  -9   25.51    2.19
 -10   1  -9   25.00    1.72
 -10   1  -9   27.99    2.76
 -10   1  -9   28.61    1.62
  10  -1   9   24.20    2.14
 -11   1  -9    2.23    0.73
 -11   1  -9    1.63    0.44
  11  -1   9    2.47    1.16
 -12   1  -9   17.14    1.44
 -12   1  -9   16.52    2.78
 -12   1  -9   19.42    1.37
 -13   1  -9  116.53    4.90
 -13   1  -9  110.58    5.33
 -14   1  -9    9.24    1.16
 -15   1  -9    0.45    0.26
  -8   0   9   17.91    2.48
   7   0  -9    8.09    1.26
  -7   0   9    8.12    1.70
  -7   0   9    3.98    2.65
   6   0  -9    2.72    0.76
  -6   0   9    0.73    0.48
  -6   0   9   -0.53    2.13
   5   0  -9   14.98    1.44
   5   0  -9   13.83    1.39
  -5   0   9   15.15    2.34
  -5   0   9   14.82    2.09
   4   0  -9   68.86    3.55
   4   0  -9   65.52    2.86
  -4   0   9   74.60    4.43
  -4   0   9   70.88    4.14
   3   0  -9    6.84    0.71
   3   0  -9    6.52    1.00
   3   0  -9    7.44    0.93
  -3   0   9    6.46    1.62
  -3   0   9    6.54    1.23
   2   0  -9    0.21    0.23
   2   0  -9    0.08    0.39
  -2   0   9    0.67    0.46
  -2   0   9    0.52    0.97
   1   0  -9   12.39    0.79
   1   0  -9   11.39    1.03
   1   0  -9   11.92    0.94
  -1   0   9   12.78    1.64
  -1   0   9   11.39    1.85
   0   0  -9    1.18    0.34
   0   0  -9    2.53    0.49
   0   0  -9    1.19    0.35
   0   0   9    1.69    1.01
   0   0   9    1.19    0.46
  -1   0  -9    2.42    0.49
  -1   0  -9    1.91    0.54
  -1   0  -9    1.71    0.37
   1   0   9    1.62    0.35
   1   0   9    2.20    0.64
   1   0   9   -0.22    0.88
  -2   0  -9   23.17    1.18
  -2   0  -9   22.33    1.55
  -2   0  -9   21.21    1.33
   2   0   9   22.93    1.61
   2   0   9   21.16    2.08
  -3   0  -9   55.83    2.53
  -3   0  -9   56.43    2.41
   3   0   9   54.59    2.81
   3   0   9   59.05    2.33
   3   0   9   54.92    3.79
  -4   0  -9    4.48    0.60
  -4   0  -9    4.76    0.65
  -4   0  -9    4.79    0.78
   4   0   9    4.39    0.60
   4   0   9    4.84    0.76
   4   0   9    3.78    1.14
  -5   0  -9   74.77    3.29
  -5   0  -9   69.86    2.95
  -5   0  -9   73.00    3.11
   5   0   9   68.43    2.96
   5   0   9   69.66    3.21
   5   0   9   71.16    4.02
  -6   0  -9   47.46    2.41
  -6   0  -9   51.50    2.49
  -6   0  -9   46.87    2.14
   6   0   9   42.52    2.46
   6   0   9   51.70    3.11
  -7   0  -9    0.61    0.22
  -7   0  -9   -0.25    0.55
  -7   0  -9    0.96    0.33
   7   0   9    0.93    0.63
   7   0   9    0.93    0.92
  -8   0  -9   11.31    0.82
  -8   0  -9   11.01    0.95
  -8   0  -9    9.73    1.32
   8   0   9   12.31    1.65
  -9   0  -9  166.68    7.04
  -9   0  -9  165.03    6.44
  -9   0  -9  169.86    6.21
  -9   0  -9  167.21    6.89
   9   0   9  163.17    6.99
 -10   0  -9   36.21    2.58
 -10   0  -9   41.34    1.96
 -10   0  -9   40.22    2.12
  10   0   9   37.35    2.52
  10   0   9   34.30    2.55
 -11   0  -9    0.18    0.18
 -11   0  -9   -1.04    1.13
 -11   0  -9    0.26    0.16
  11   0   9    0.79    1.02
 -12   0  -9    1.00    1.37
 -12   0  -9    0.92    0.34
 -12   0  -9    0.95    0.36
 -13   0  -9    9.78    0.91
 -13   0  -9   11.87    1.06
 -14   0  -9    0.07    0.14
 -14   0  -9    0.32    0.26
 -15   0  -9    0.02    0.15
 -15   0  -9    0.28    0.22
  -8   1   9   30.23    2.85
   7  -1  -9    9.36    1.37
  -7   1   9   11.00    2.01
   6  -1  -9    0.25    0.23
  -6   1   9   -1.08    1.82
  -6   1   9    0.80    0.59
   5  -1  -9    2.02    0.90
   5  -1  -9    4.15    0.96
  -5   1   9    4.83    1.73
  -5   1   9    1.64    0.71
   4  -1  -9    0.68    0.36
   4  -1  -9    0.71    0.50
  -4   1   9    1.98    1.34
  -4   1   9    0.86    0.54
   3  -1  -9    0.38    0.44
   3  -1  -9    0.10    0.32
   3  -1  -9    0.05    0.14
  -3   1   9   -0.04    1.18
   2  -1  -9    2.43    0.53
  -2   1   9    2.37    0.73
  -2   1   9    1.58    1.22
   1  -1  -9   39.70    2.13
  -1   1   9   37.72    2.45
  -1   1   9   35.61    2.80
   0  -1  -9    2.50    0.53
   0   1   9    2.22    0.62
   0   1   9    2.77    1.08
  -1  -1  -9   36.78    1.89
  -1  -1  -9   33.70    2.06
   1   1   9   36.13    2.17
   1   1   9   41.23    3.21
  -2  -1  -9   48.65    2.27
  -2  -1  -9   49.05    1.92
   2   1   9   51.91    3.27
   2   1   9   48.13    1.85
   2   1   9   48.20    2.55
  -3  -1  -9    0.14    0.10
  -3  -1  -9    0.12    0.32
  -3  -1  -9    0.18    0.15
   3   1   9    0.04    0.26
   3   1   9    0.13    0.13
   3   1   9   -1.00    0.77
  -4  -1  -9    2.34    0.49
  -4  -1  -9    1.77    0.37
  -4  -1  -9    2.49    0.51
   4   1   9    1.32    0.83
   4   1   9    1.24    0.39
   4   1   9    2.09    0.44
  -5  -1  -9  187.34    6.92
  -5  -1  -9  193.35    7.09
   5   1   9  182.43    7.95
   5   1   9  185.49    6.78
  -6  -1  -9   96.00    3.96
  -6  -1  -9   93.95    3.59
  -6  -1  -9   93.47    3.86
   6   1   9   89.44    4.64
   6   1   9   91.14    3.79
  -7  -1  -9    1.95    0.45
  -7  -1  -9    2.62    0.68
  -7  -1  -9    1.70    0.33
   7   1   9    2.11    0.70
   7   1   9    2.09    1.05
  -8  -1  -9    3.14    0.46
  -8  -1  -9    4.35    0.91
  -8  -1  -9    2.84    0.52
  -8  -1  -9    2.85    1.29
   8   1   9    3.03    1.02
  -9  -1  -9   26.76    1.50
  -9  -1  -9   26.87    2.09
  -9  -1  -9   27.07    1.38
   9   1   9   23.52    2.17
   9   1   9   29.00    2.11
 -10  -1  -9    3.01    1.05
 -10  -1  -9    1.31    0.35
 -10  -1  -9    1.16    0.33
  10   1   9    1.07    1.05
  10   1   9    0.87    1.08
 -11  -1  -9   12.82    0.89
 -11  -1  -9   11.43    1.68
 -11  -1  -9   10.49    0.88
  11   1   9   11.48    1.55
 -12  -1  -9    2.53    0.46
 -12  -1  -9    2.02    1.39
 -12  -1  -9    1.89    0.45
 -13  -1  -9    6.44    0.81
 -13  -1  -9    8.62    0.74
 -14  -1  -9    0.33    0.19
 -14  -1  -9    0.24    0.17
   8  -2  -9    0.21    0.25
  -8   2   9    0.76    0.54
  -7   2   9    1.32    2.41
   6  -2  -9    0.35    0.30
  -6   2   9    0.34    1.86
  -6   2   9    0.28    0.30
   5  -2  -9   21.76    1.89
  -5   2   9   17.89    2.45
  -5   2   9   21.40    2.11
   4  -2  -9    4.30    0.92
  -4   2   9    2.78    0.86
  -4   2   9    5.01    1.54
   3  -2  -9    5.15    0.92
  -3   2   9    4.78    1.55
  -3   2   9    4.46    1.05
   2  -2  -9   32.30    1.94
  -2   2   9   33.92    2.77
  -2   2   9   28.85    2.22
   1  -2  -9    0.01    0.06
   1  -2  -9    0.23    0.22
  -1   2   9    1.76    0.97
  -1   2   9    0.03    0.13
   0  -2  -9    0.01    0.08
   0  -2  -9    0.05    0.09
   0   2   9   -1.15    0.75
   0   2   9    0.13    0.17
  -1  -2  -9   69.63    3.02
   1   2   9   71.85    4.63
   1   2   9   68.54    3.34
  -2  -2  -9  119.61    4.83
  -2  -2  -9  114.24    4.52
   2   2   9  114.49    4.84
   2   2   9  123.19    5.79
  -3  -2  -9    4.62    0.51
  -3  -2  -9    5.08    0.50
  -3  -2  -9    5.34    0.78
   3   2   9    4.60    0.41
   3   2   9    5.54    1.27
   3   2   9    4.79    0.76
  -4  -2  -9    5.13    0.48
  -4  -2  -9    6.22    0.70
  -4  -2  -9    5.76    0.76
   4   2   9    5.02    1.29
   4   2   9    5.79    0.63
  -5  -2  -9   15.88    1.17
  -5  -2  -9   16.53    1.07
  -5  -2  -9   16.51    0.92
   5   2   9   16.03    1.76
   5   2   9   17.11    1.09
  -6  -2  -9    0.33    0.48
  -6  -2  -9    1.32    0.32
  -6  -2  -9    1.12    0.24
   6   2   9    1.63    0.83
   6   2   9    1.22    0.54
  -7  -2  -9   46.18    3.12
  -7  -2  -9   45.38    1.83
  -7  -2  -9   43.94    2.38
   7   2   9   41.28    2.60
   7   2   9   39.90    2.93
   7   2   9   44.65    2.33
  -8  -2  -9    0.37    0.15
  -8  -2  -9    0.22    0.14
  -8  -2  -9   -0.40    0.64
   8   2   9   -0.21    0.94
   8   2   9   -0.72    0.85
  -9  -2  -9    6.10    0.53
  -9  -2  -9    5.22    1.07
  -9  -2  -9    6.38    0.55
   9   2   9    6.56    1.24
   9   2   9    6.13    1.34
 -10  -2  -9    3.72    0.37
 -10  -2  -9    2.99    1.08
 -10  -2  -9    4.26    0.42
  10   2   9    3.01    1.16
  10   2   9    3.42    1.18
 -11  -2  -9    3.77    1.36
  11   2   9    6.35    1.35
 -12  -2  -9    3.29    1.48
   8  -3  -9    1.47    0.56
  -8   3   9    1.85    0.87
   7  -3  -9    0.96    0.48
  -7   3   9    0.25    0.34
  -7   3   9    2.26    2.45
   6  -3  -9   11.83    1.60
  -6   3   9   10.39    1.76
  -6   3   9   10.32    2.40
   5  -3  -9    0.56    0.47
  -5   3   9    2.91    1.52
  -5   3   9    0.13    0.22
  -4   3   9    0.78    1.22
   3  -3  -9   14.15    1.25
  -3   3   9   12.87    2.00
  -3   3   9   14.25    1.93
   2  -3  -9   63.84    3.15
  -2   3   9   61.74    3.54
  -2   3   9   69.92    4.02
   1  -3  -9    1.05    0.35
   1  -3  -9    0.63    0.26
  -1   3   9    1.34    1.06
   0  -3  -9    9.03    0.90
   0  -3  -9    8.15    0.77
   0   3   9    8.41    1.22
   0   3   9    9.48    1.61
  -1  -3  -9   17.56    1.13
  -1  -3  -9   15.29    1.19
   1   3   9   17.57    1.33
   1   3   9   21.54    2.66
  -2  -3  -9    1.92    0.37
  -2  -3  -9    3.23    0.71
   2   3   9    2.11    0.51
   2   3   9    1.61    0.85
  -3  -3  -9   78.35    3.24
  -3  -3  -9   83.97    3.51
   3   3   9   83.44    4.48
   3   3   9   88.13    2.89
   3   3   9   81.44    2.89
  -4  -3  -9   13.61    0.90
  -4  -3  -9   13.29    0.91
  -4  -3  -9   14.07    0.80
   4   3   9   11.85    0.78
   4   3   9   13.18    1.92
  -5  -3  -9    2.04    0.38
  -5  -3  -9    2.30    0.34
  -5  -3  -9    2.35    0.60
   5   3   9    2.37    0.51
   5   3   9    2.91    0.99
  -6  -3  -9   12.47    0.76
  -6  -3  -9   10.73    1.11
  -6  -3  -9   13.12    0.67
   6   3   9   14.61    1.92
   6   3   9   12.07    1.05
  -7  -3  -9    9.85    1.22
   7   3   9    8.25    1.59
   7   3   9    9.52    1.48
   7   3   9    7.25    1.02
  -8  -3  -9    3.23    0.86
   8   3   9    4.04    1.05
   8   3   9    2.57    1.14
  -9  -3  -9   36.09    2.43
   9   3   9   37.73    2.71
   9   3   9   34.85    2.46
 -10  -3  -9   28.90    2.47
  10   3   9   31.15    2.58
  10   3   9   33.35    2.32
 -11  -3  -9    4.12    1.31
  11   3   9    3.32    1.30
 -12  -3  -9    2.22    1.50
   8  -4  -9   -0.05    0.11
  -8   4   9   -0.05    0.23
  -7   4   9    3.81    2.37
   6  -4  -9   28.31    2.08
  -6   4   9   23.33    2.34
  -6   4   9   23.85    3.01
   5  -4  -9    0.00    0.12
  -5   4   9    0.60    0.45
  -5   4   9    2.25    1.49
   4  -4  -9   10.96    1.55
  -4   4   9    8.78    1.59
  -4   4   9    9.82    1.91
   3  -4  -9    1.64    0.45
  -3   4   9    3.06    1.22
  -3   4   9    3.33    0.96
   2  -4  -9    5.60    0.90
   2  -4  -9    4.23    0.93
  -2   4   9    6.85    1.51
  -2   4   9    4.37    0.99
   1  -4  -9   39.75    2.28
   1  -4  -9   42.08    2.20
  -1   4   9   41.46    3.11
  -1   4   9   40.88    2.53
   0  -4  -9   27.31    1.57
   0   4   9   25.35    1.78
   0   4   9   26.97    2.49
  -1  -4  -9    0.30    0.16
  -1  -4  -9    0.63    0.29
  -2  -4  -9   18.30    1.08
  -2  -4  -9   18.83    1.21
   2   4   9   16.87    2.16
  -3  -4  -9    9.77    0.67
  -3  -4  -9   10.51    0.79
   3   4   9    8.75    1.62
  -4  -4  -9    1.16    0.28
  -4  -4  -9    0.71    0.19
   4   4   9    0.83    0.32
   4   4   9    0.77    0.28
   4   4   9    0.92    0.96
  -5  -4  -9   24.66    1.03
  -5  -4  -9   22.61    1.12
   5   4   9   20.29    2.18
   5   4   9   25.58    1.41
   5   4   9   21.45    1.33
  -6  -4  -9   86.06    3.66
   6   4   9   82.96    3.43
   6   4   9   82.19    3.56
   6   4   9   82.71    4.57
  -7  -4  -9    1.41    0.66
   7   4   9    2.08    0.76
   7   4   9    1.54    1.04
  -8  -4  -9    1.94    0.82
   8   4   9    1.67    1.12
  -9  -4  -9    1.69    0.89
   9   4   9    0.34    1.00
 -10  -4  -9    4.72    1.32
  10   4   9    4.90    1.42
  10   4   9    3.44    1.37
 -11  -4  -9    5.00    1.52
  11   4   9    4.62    1.47
 -12  -4  -9    3.85    1.60
  12   4   9    5.01    1.33
   8  -5  -9    3.18    0.87
   7  -5  -9    0.66    0.36
  -7   5   9   -0.81    2.45
  -7   5   9    0.43    0.50
   6  -5  -9    3.35    0.82
  -6   5   9    3.62    2.08
  -6   5   9    3.97    1.13
   5  -5  -9   11.37    1.50
  -5   5   9   10.44    1.83
  -5   5   9    6.82    1.93
   4  -5  -9   30.16    2.05
  -4   5   9   31.75    2.50
  -4   5   9   29.93    2.91
   3  -5  -9    0.17    0.19
  -3   5   9    0.15    0.22
  -3   5   9   -0.84    1.23
   2  -5  -9    3.62    0.78
   2  -5  -9    4.93    0.84
  -2   5   9    3.56    1.28
   1  -5  -9    0.64    0.31
   1  -5  -9    1.01    0.43
  -1   5   9    0.06    0.92
  -1   5   9    0.43    0.31
   0  -5  -9    4.13    0.69
   0  -5  -9    4.85    0.76
   0   5   9    4.34    1.17
   0   5   9    3.78    0.79
  -1  -5  -9    1.10    0.31
  -1  -5  -9    2.31    0.46
   1   5   9    1.24    0.42
   1   5   9    2.71    1.09
  -2  -5  -9   58.36    2.44
  -2  -5  -9   57.80    2.57
   2   5   9   55.52    4.11
  -3  -5  -9    1.99    0.34
  -3  -5  -9    3.01    0.46
  -4  -5  -9    2.52    0.26
  -4  -5  -9    3.30    0.49
   4   5   9    0.23    0.99
   4   5   9    3.04    0.49
   4   5   9    3.35    0.40
   5   5   9    0.51    1.00
   5   5   9   -0.59    0.46
   5   5   9    0.55    0.36
   6   5   9   11.35    1.88
   6   5   9   10.26    1.20
   6   5   9   10.23    0.94
   7   5   9   11.68    1.88
   7   5   9    8.74    1.30
   7   5   9   13.25    1.14
   8   5   9    1.47    0.67
   8   5   9    2.22    1.23
   9   5   9   11.58    1.83
  10   5   9   12.06    1.52
  10   5   9   10.45    1.89
  11   5   9    3.68    1.60
  11   5   9    2.80    1.21
   8  -6  -9    9.11    1.43
   7  -6  -9   -0.02    0.11
  -7   6   9   -1.97    3.71
   6  -6  -9    0.76    0.40
  -6   6   9    1.95    2.07
   5  -6  -9    0.32    0.31
  -5   6   9   -0.26    1.66
   4  -6  -9    1.50    0.53
  -4   6   9    0.66    0.40
  -4   6   9   -0.87    1.42
   3  -6  -9    0.85    0.34
  -3   6   9    0.39    1.30
  -3   6   9    0.72    0.48
   2  -6  -9   21.58    1.93
   2  -6  -9   25.83    1.76
  -2   6   9   21.65    1.84
  -2   6   9   22.28    2.54
   1  -6  -9    7.98    1.21
   1  -6  -9    9.60    1.18
  -1   6   9    9.52    1.40
  -1   6   9    8.19    1.73
   0  -6  -9    2.28    0.50
   0  -6  -9    2.96    0.57
   0   6   9    3.65    1.07
   0   6   9    2.20    1.21
  -1  -6  -9    0.51    0.22
  -1  -6  -9    0.92    0.31
   1   6   9    1.02    1.02
  -2  -6  -9    6.48    0.57
  -2  -6  -9    7.12    0.62
   2   6   9    7.50    1.45
  -3  -6  -9   11.28    0.68
  -3  -6  -9   10.67    0.70
   3   6   9    9.30    1.82
   3   6   9    9.77    0.66
   3   6   9   10.78    0.58
  -4  -6  -9    8.14    0.46
  -4  -6  -9    7.43    0.46
   4   6   9    5.30    1.34
   4   6   9    8.13    0.88
   4   6   9    8.15    0.62
   5   6   9    8.82    1.04
   5   6   9    4.74    1.49
   5   6   9    8.63    0.75
   6   6   9   16.45    1.54
   6   6   9   15.85    1.16
   6   6   9   19.21    2.44
   7   6   9    4.21    0.81
   7   6   9    6.05    1.52
   7   6   9    5.52    1.21
   8   6   9    1.82    1.27
   9   6   9    3.00    1.53
   9   6   9    4.63    0.97
  10   6   9  102.29    5.51
  10   6   9  110.90    4.95
  11   6   9   23.89    2.70
  11   6   9   26.68    2.31
   8  -7  -9    2.79    1.39
   7  -7  -9    3.93    0.95
   6  -7  -9    2.33    0.69
  -6   7   9    1.78    2.15
   5  -7  -9    7.97    1.29
  -5   7   9    5.91    2.13
   4  -7  -9    0.36    0.25
  -4   7   9    1.65    1.68
   3  -7  -9    2.17    0.57
  -3   7   9    1.75    1.54
   2  -7  -9    0.78    0.32
  -2   7   9    0.77    0.56
  -2   7   9    1.92    1.25
   1  -7  -9    2.66    0.64
  -1   7   9    1.91    1.31
  -1   7   9    2.19    0.71
   0  -7  -9   20.24    1.34
   0  -7  -9   18.61    1.28
   0   7   9   22.10    2.73
  -1  -7  -9    2.34    0.49
  -1  -7  -9    1.10    0.32
   1   7   9    0.72    1.13
  -2  -7  -9   11.74    0.79
  -2  -7  -9   10.81    0.77
   2   7   9   12.19    2.04
  -3  -7  -9   10.10    0.68
  -3  -7  -9   11.21    0.66
   3   7   9    9.78    1.95
   3   7   9    9.17    0.87
   4   7   9    0.79    0.44
   4   7   9    0.18    1.05
   4   7   9    1.02    0.65
   5   7   9    5.92    1.61
   5   7   9    6.11    1.04
   5   7   9    8.01    0.79
   6   7   9  165.77    6.57
   6   7   9  160.67    6.17
   6   7   9  166.67    7.84
   7   7   9   89.72    3.98
   7   7   9  102.42    5.54
   8   7   9    2.13    0.75
   8   7   9    1.36    1.49
   9   7   9   -0.51    1.41
   9   7   9    2.50    0.86
  10   7   9   41.81    2.71
  10   7   9   40.18    3.57
  11   7   9   14.16    2.52
  11   7   9   14.73    1.96
   8  -8  -9    0.09    0.21
   7  -8  -9    1.25    0.54
  -6   8   9    3.09    2.50
  -5   8   9    1.18    1.93
   4  -8  -9   20.32    1.69
  -4   8   9   21.79    2.81
   3  -8  -9   -0.03    0.18
  -3   8   9   -0.51    1.54
   2  -8  -9    2.71    0.63
  -2   8   9    1.30    1.51
   1  -8  -9    8.32    1.05
   1  -8  -9    7.75    0.96
  -1   8   9   10.50    2.08
   0  -8  -9    3.89    0.69
   0  -8  -9    3.25    0.59
   0   8   9    3.04    1.51
  -1  -8  -9    9.86    1.31
  -1  -8  -9    7.07    0.66
   1   8   9    8.34    1.79
  -2  -8  -9  128.02    4.76
  -2  -8  -9  126.82    4.84
   2   8   9  135.17    6.84
   2   8   9  120.53    4.64
   2   8   9  128.34    4.51
  -3  -8  -9  146.26    5.09
   3   8   9  139.88    7.19
   3   8   9  140.10    5.13
   3   8   9  140.83    5.41
   4   8   9    6.21    1.05
   4   8   9    6.39    1.86
   4   8   9    4.90    0.65
   5   8   9    1.00    0.95
   5   8   9    1.69    0.53
   5   8   9    1.14    1.38
   6   8   9   76.30    3.82
   6   8   9   77.27    3.31
   6   8   9   69.78    4.78
   7   8   9   44.95    3.80
   8   8   9   10.11    2.27
   8   8   9   12.84    1.37
   9   8   9   36.50    2.39
   9   8   9   32.51    3.38
  10   8   9   -0.90    1.04
  10   8   9    1.15    1.83
  11   8   9   -1.03    2.15
   7  -9  -9    1.80    0.64
   6  -9  -9    0.18    0.26
  -6   9   9   -3.21    2.62
   5  -9  -9    5.41    1.13
  -5   9   9    4.94    2.47
   4  -9  -9    4.61    0.96
   3  -9  -9    5.17    0.94
  -3   9   9    4.25    2.03
   2  -9  -9   49.07    2.78
  -2   9   9   57.69    4.13
   1  -9  -9  137.11    5.82
   1  -9  -9  150.76    6.03
  -1   9   9  157.70    7.65
   0  -9  -9    5.67    0.78
   0  -9  -9    7.28    0.96
   0   9   9    6.65    1.80
  -1  -9  -9    5.01    0.74
  -1  -9  -9    4.50    0.63
   1   9   9    4.11    0.74
   1   9   9    4.66    0.53
   1   9   9    1.63    1.61
  -2  -9  -9   57.96    2.44
  -2  -9  -9   61.09    2.51
   2   9   9   55.73    2.70
   2   9   9   63.93    4.34
   2   9   9   54.38    2.37
  -3  -9  -9   84.20    3.09
  -3  -9  -9   82.99    3.12
   3   9   9   78.66    3.25
   3   9   9   84.96    5.33
   3   9   9   79.52    3.64
   4   9   9    4.01    1.16
   4   9   9    7.29    1.91
   4   9   9    7.17    0.83
   5   9   9   23.32    3.18
   5   9   9   25.45    1.56
   5   9   9   22.91    2.24
   6   9   9    1.59    1.76
   6   9   9    3.37    0.75
   7   9   9    3.76    0.82
   7   9   9    2.78    1.80
   8   9   9    1.52    1.88
   8   9   9    1.05    0.79
   9   9   9    4.56    2.16
   9   9   9    5.29    1.20
  10   9   9    1.81    1.23
  10   9   9   -1.49    2.24
  11   9   9   -0.02    2.96
   7 -10  -9    4.10    1.04
   6 -10  -9   15.41    2.29
   5 -10  -9   64.51    3.64
   4 -10  -9   10.79    1.55
  -4  10   9   11.03    2.78
   3 -10  -9    1.19    0.50
  -3  10   9    2.44    2.14
   2 -10  -9   31.47    2.05
  -2  10   9   28.11    3.44
   1 -10  -9   68.75    3.40
  -1  10   9   81.23    7.25
  -1  10   9   70.49    2.74
   0 -10  -9    4.44    0.75
   0 -10  -9    4.40    0.67
   0  10   9    7.48    2.25
   0  10   9    7.07    0.75
  -1 -10  -9    7.15    0.92
  -1 -10  -9    5.31    0.72
   1  10   9    5.70    2.09
   1  10   9    5.72    1.08
  -2 -10  -9    3.44    0.49
  -2 -10  -9    3.48    0.55
   2  10   9    5.21    1.78
   2  10   9    2.63    1.08
   2  10   9    2.34    0.63
  -3 -10  -9    4.17    0.39
  -3 -10  -9    3.93    0.37
   3  10   9    5.92    2.06
   3  10   9    5.86    1.26
   3  10   9    3.92    0.75
   4  10   9    1.13    1.28
   4  10   9    1.96    0.63
   4  10   9    0.13    1.80
   5  10   9    2.12    1.79
   5  10   9    2.27    0.73
   6  10   9    2.35    2.00
   6  10   9    0.24    0.74
   7  10   9    6.46    3.45
   8  10   9   27.57    2.19
   8  10   9   18.10    3.27
   9  10   9    6.33    2.56
   9  10   9   15.24    1.84
  10  10   9    3.22    2.85
   6 -11  -9    8.34    1.43
   5 -11  -9   39.80    2.73
   4 -11  -9    3.70    0.84
   3 -11  -9    0.04    0.10
   2 -11  -9    1.61    0.55
  -2  11   9    1.39    2.16
   1 -11  -9    3.93    0.80
  -1  11   9    1.95    2.09
   0 -11  -9    2.26    0.59
   0 -11  -9    2.24    0.48
   0  11   9    2.46    0.73
   0  11   9    2.63    2.16
  -1 -11  -9    0.10    0.11
  -1 -11  -9    0.47    0.25
   1  11   9    0.45    0.66
   1  11   9    0.11    1.75
   2  11   9    1.71    1.78
   2  11   9    1.73    0.71
  -3 -11  -9    6.27    0.48
  -3 -11  -9    5.85    0.49
   3  11   9    8.61    2.24
   3  11   9    5.93    0.97
   4  11   9   12.58    1.51
   4  11   9   14.96    2.86
   5  11   9   14.77    1.52
   5  11   9   19.90    3.11
   6  11   9    3.48    1.02
   6  11   9    1.74    1.99
   7  11   9    1.46    2.31
   7  11   9    0.70    0.95
   8  11   9   16.16    1.96
   5 -12  -9    2.18    0.73
   4 -12  -9    0.63    0.37
   3 -12  -9    5.79    1.72
   2 -12  -9    0.50    0.31
   1 -12  -9    6.95    1.09
   0 -12  -9    0.96    0.37
  -1 -12  -9   13.30    1.07
  -1 -12  -9   13.04    0.97
   1  12   9   16.41    1.57
  -2 -12  -9    1.95    0.43
  -2 -12  -9    1.85    0.38
   2  12   9    2.98    0.91
  -3 -12  -9    3.34    0.42
  -3 -12  -9    3.74    0.48
   3  12   9    1.74    0.92
   4  12   9    7.58    1.19
   5  12   9    0.70    0.93
   6  12   9   11.01    1.53
   7  12   9    4.00    1.32
   4 -13  -9    0.09    0.17
   3 -13  -9    5.96    1.10
   2 -13  -9    0.37    0.27
   1 -13  -9    3.44    0.99
   0 -13  -9    0.27    0.25
  -1 -13  -9    1.78    0.40
  -1 -13  -9    2.83    0.58
  -2 -13  -9   14.65    1.02
  -2 -13  -9   14.13    0.94
   2  13   9   12.32    2.00
  -3 -13  -9    4.70    0.42
  -3 -13  -9    3.77    0.49
   3  13   9    1.59    1.11
   4  13   9    3.76    1.24
   6  13   9    8.79    1.65
   3 -14  -9    0.59    0.36
   2 -14  -9    7.22    1.20
   1 -14  -9    6.36    1.10
   0 -14  -9    2.70    0.64
  -1 -14  -9    0.34    0.22
  -2 -14  -9   11.46    0.83
  -2 -14  -9   11.17    0.89
   1 -15  -9    0.89    0.38
   0 -15  -9    0.13    0.15
  -1 -15  -9    3.83    0.67
  -2 -15  -9    0.52    0.19
  -2 -15  -9    0.40    0.20
   1  -9  10    0.09    0.24
  -2   9 -10    0.53    0.38
  -3   9 -10    9.50    1.35
  -4   9 -10    3.97    0.95
  -5   9 -10    0.49    0.33
  -7   9 -10    5.25    1.04
  -8   9 -10    5.26    1.06
  -1  -8  10    2.10    0.80
   0   8 -10    3.24    0.77
   0  -8  10    2.42    0.94
  -1   8 -10    1.22    0.47
   1  -8  10    1.64    0.80
  -2   8 -10    0.19    0.24
   2  -8  10    0.02    0.20
  -3   8 -10   10.67    1.61
   3  -8  10   12.84    2.53
  -4   8 -10    3.02    0.76
  -5   8 -10    8.02    1.27
  -6   8 -10    0.98    0.47
  -7   8 -10    1.23    0.49
  -8   8 -10   13.48    2.26
  -9   8 -10    1.53    0.57
 -10   8 -10    0.85    0.43
  -2  -7  10    1.91    0.89
   1   7 -10    4.68    0.96
  -1  -7  10    4.03    1.12
   0   7 -10   -0.04    0.10
   0  -7  10    0.00    0.18
  -1   7 -10    3.86    1.56
  -1   7 -10    6.33    1.11
   1  -7  10    5.85    1.27
  -2   7 -10   -1.42    1.37
  -2   7 -10   -0.02    0.09
   2  -7  10    0.54    0.34
  -3   7 -10    1.48    1.36
  -3   7 -10    0.58    0.32
   3  -7  10    1.43    0.65
  -4   7 -10   19.91    2.21
  -4   7 -10   16.90    1.51
  -5   7 -10    8.08    1.25
  -5   7 -10    8.21    1.69
  -6   7 -10    4.29    0.87
  -7   7 -10    0.79    0.39
  -8   7 -10    0.00    0.10
  -9   7 -10    0.13    0.25
 -10   7 -10    0.31    0.25
 -11   7 -10    9.59    1.37
  -4  -6  10    1.64    0.79
  -3  -6  10    4.47    1.23
   2   6 -10   -0.06    0.11
  -2  -6  10   -0.02    0.18
   1   6 -10    1.18    0.48
   1   6 -10    0.16    1.51
  -1  -6  10    0.18    0.22
   0   6 -10    6.52    1.10
   0   6 -10    9.63    1.63
  -1   6 -10    9.55    1.62
  -1   6 -10   12.56    1.61
   1  -6  10    8.49    1.56
  -2   6 -10    7.03    1.09
  -2   6 -10    5.79    1.36
   2  -6  10    6.89    1.33
  -3   6 -10   -0.66    1.06
  -3   6 -10    0.18    0.20
   3  -6  10    0.23    0.29
  -4   6 -10   -0.28    1.08
  -4   6 -10    0.09    0.12
   4  -6  10   -0.01    0.11
  -5   6 -10   -0.03    1.16
  -5   6 -10    0.01    0.12
   5  -6  10    0.92    1.86
  -6   6 -10   -0.01    0.16
  -6   6 -10   -0.67    1.09
   6  -6  10   -1.03    1.73
  -7   6 -10   12.16    1.82
  -7   6 -10   13.92    1.27
   7  -6  10   10.96    2.25
  -8   6 -10    0.11    0.12
   8  -6  10   -1.14    1.77
  -9   6 -10    8.32    1.27
   9  -6  10    6.53    2.33
  10  -6  10   -4.18    2.10
 -11   6 -10    4.78    0.97
 -12   6 -10    0.46    0.31
  -4  -5  10    0.79    0.55
   3   5 -10    7.71    1.30
  -3  -5  10   10.74    1.93
   2   5 -10    1.54    1.58
   2   5 -10    3.48    0.80
  -2  -5  10    2.27    0.89
   1   5 -10    3.81    1.37
   1   5 -10    2.90    0.69
  -1  -5  10    3.73    1.10
   0   5 -10    0.94    1.01
   0   5 -10   -0.01    0.07
   0  -5  10    0.30    0.36
   0  -5  10   -0.03    0.11
  -1   5 -10    0.01    0.09
  -1   5 -10    0.12    0.93
   1  -5  10   -0.03    0.11
  -2   5 -10    4.13    0.84
  -2   5 -10    4.68    1.10
   2  -5  10    6.56    1.90
   2  -5  10    5.56    1.20
  -3   5 -10    4.21    0.84
  -3   5 -10    3.48    1.05
   3  -5  10    5.10    1.16
   3  -5  10    4.04    1.68
  -4   5 -10    1.97    0.99
  -4   5 -10    2.95    0.68
   4  -5  10    1.71    1.49
   4  -5  10    4.26    0.98
  -5   5 -10   21.20    1.54
  -5   5 -10   15.38    1.78
   5  -5  10   31.11    4.46
   5  -5  10   16.65    2.54
  -6   5 -10    0.66    0.36
  -6   5 -10    0.70    0.98
   6  -5  10    2.33    1.68
  -7   5 -10    3.38    1.27
  -7   5 -10    3.74    0.80
  -8   5 -10    1.29    1.24
  -9   5 -10    4.75    0.90
  -9   5 -10    4.80    1.55
   9  -5  10    5.37    2.66
  10  -5  10    0.30    1.85
 -11   5 -10   28.88    2.12
 -12   5 -10   32.30    2.22
 -13   5 -10    4.25    0.90
  -5  -4  10    7.32    1.66
   4   4 -10   -0.09    0.10
  -4  -4  10   -0.05    0.18
   3   4 -10    0.39    0.32
  -3  -4  10    0.22    0.31
   2   4 -10    6.24    1.41
   2   4 -10    7.95    1.30
  -2  -4  10    6.69    1.39
   1   4 -10   -0.15    0.99
   1   4 -10   -0.01    0.07
  -1  -4  10   -1.15    2.65
  -1  -4  10    0.15    0.25
   0   4 -10    4.14    0.99
   0   4 -10    4.10    1.04
   0  -4  10    2.73    1.80
   0  -4  10    4.59    1.07
  -1   4 -10    7.23    1.12
  -1   4 -10    7.61    1.53
   1  -4  10    7.54    1.86
   1  -4  10    6.19    1.22
  -2   4 -10    3.90    0.90
   2  -4  10    5.48    1.99
   2  -4  10    3.46    0.92
  -3   4 -10    4.17    0.94
  -3   4 -10    3.47    0.70
   3  -4  10    5.51    1.53
   3  -4  10    4.43    0.94
  -4   4 -10    1.08    0.40
  -4   4 -10    1.31    0.81
   4  -4  10    0.48    0.32
   4  -4  10    1.17    1.23
  -5   4 -10   20.74    1.50
  -5   4 -10   20.94    1.79
   5  -4  10   19.19    2.61
   5  -4  10   20.75    1.74
  -6   4 -10    0.85    0.89
  -6   4 -10    1.11    0.40
   6  -4  10    1.06    1.34
  -7   4 -10   25.36    1.67
  -7   4 -10   22.60    2.07
   7  -4  10   22.52    2.47
  -8   4 -10   64.63    3.18
  -8   4 -10   65.58    3.66
   8  -4  10   63.40    4.14
  -9   4 -10    5.01    0.81
  -9   4 -10    3.07    1.29
   9  -4  10    4.28    1.67
 -10   4 -10    1.35    1.38
 -10   4 -10    1.28    0.47
  10  -4  10    1.65    1.63
 -11   4 -10   71.36    3.58
  11  -4  10   73.01    4.54
 -12   4 -10   62.50    3.32
 -13   4 -10    3.40    0.77
  -6  -3  10    2.70    1.32
   5   3 -10    2.45    0.76
  -5  -3  10    2.46    0.89
   4   3 -10    4.34    1.04
  -4  -3  10    2.18    0.79
   3   3 -10    2.44    1.39
   3   3 -10    2.60    0.75
  -3  -3  10    3.53    1.10
   2   3 -10    3.34    0.73
   2   3 -10    3.08    1.10
  -2  -3  10    4.28    1.10
  -2  -3  10    0.46    1.81
   1   3 -10    1.07    0.52
   1   3 -10   -0.22    0.77
  -1  -3  10    0.44    0.35
  -1  -3  10    0.31    1.68
   0   3 -10    1.19    0.76
   0   3 -10    0.37    0.21
   0  -3  10    1.03    0.52
   0  -3  10    1.67    1.26
  -1   3 -10   18.60    1.51
  -1   3 -10   20.97    1.53
   1  -3  10   18.09    2.44
   1  -3  10   20.80    1.83
   1  -3  10   21.28    1.69
  -2   3 -10    6.02    0.85
  -2   3 -10    6.88    1.00
   2  -3  10    3.74    0.94
   2  -3  10    7.07    1.73
   2  -3  10    8.73    1.57
  -3   3 -10   19.44    1.42
  -3   3 -10   19.94    1.54
   3  -3  10   19.78    1.70
   3  -3  10   20.85    2.60
  -4   3 -10   76.73    3.52
   4  -3  10   75.76    3.89
   4  -3  10   75.39    4.52
  -5   3 -10   11.37    1.88
  -5   3 -10    9.31    0.90
   5  -3  10    9.36    1.43
   5  -3  10    7.43    1.65
  -6   3 -10    0.80    0.31
  -6   3 -10    1.49    0.86
   6  -3  10    0.81    1.24
  -7   3 -10   94.33    4.42
  -7   3 -10   98.02    4.17
   7  -3  10   94.39    5.16
  -8   3 -10  159.62    6.94
  -8   3 -10  172.87    6.62
   8  -3  10  170.29    7.57
  -9   3 -10    6.93    0.91
  -9   3 -10    5.83    1.32
   9  -3  10    8.64    1.74
 -10   3 -10   -0.78    1.19
 -10   3 -10    0.45    0.27
  10  -3  10    1.10    1.44
 -11   3 -10    6.59    1.04
  11  -3  10    4.78    1.74
 -13   3 -10    0.41    0.30
 -14   3 -10    7.63    1.15
  -6  -2  10    1.69    0.76
   5   2 -10    0.13    0.19
  -5  -2  10    0.01    0.20
   4   2 -10    2.09    0.62
  -4  -2  10    1.28    0.70
   3   2 -10   14.10    1.45
   3   2 -10   14.11    1.37
  -3  -2  10   15.33    2.08
  -3  -2  10   14.24    2.35
   2   2 -10   18.88    1.51
  -2  -2  10   15.95    2.51
  -2  -2  10   15.24    2.03
   1   2 -10    4.88    1.26
   1   2 -10    4.91    0.84
   1   2 -10    4.17    0.78
  -1  -2  10    5.24    1.21
  -1  -2  10    8.98    1.90
   0   2 -10   51.41    2.70
   0   2 -10   51.60    2.38
   0  -2  10   51.85    3.17
   0  -2  10   46.68    2.38
   0  -2  10   47.84    3.63
  -1   2 -10   13.37    1.13
  -1   2 -10   12.23    1.13
   1  -2  10   14.02    2.19
   1  -2  10   11.73    1.14
   1  -2  10   13.18    1.73
  -2   2 -10    4.92    0.86
  -2   2 -10    3.83    0.68
   2  -2  10    3.80    0.90
   2  -2  10    3.27    1.21
   2  -2  10    3.38    0.75
  -3   2 -10   67.63    3.14
  -3   2 -10   70.11    3.05
   3  -2  10   61.41    3.44
   3  -2  10   69.10    3.58
   3  -2  10   64.17    4.12
  -4   2 -10  195.20    8.30
  -4   2 -10  214.61    7.79
   4  -2  10  203.67    9.08
   4  -2  10  208.46    8.33
   4  -2  10  214.98    7.67
  -5   2 -10   25.92    2.16
  -5   2 -10   23.17    1.70
   5  -2  10   21.17    1.65
   5  -2  10   21.63    1.67
   5  -2  10   23.68    2.42
  -6   2 -10    0.07    0.12
  -6   2 -10   -0.08    0.63
  -6   2 -10    0.13    0.20
   6  -2  10    0.80    1.15
  -7   2 -10    9.62    1.33
  -7   2 -10    6.90    1.18
  -7   2 -10    8.40    0.81
   7  -2  10   12.02    1.83
  -8   2 -10   22.66    1.96
  -8   2 -10   24.14    1.49
  -8   2 -10   22.53    1.71
   8  -2  10   22.82    2.45
  -9   2 -10    0.52    0.25
  -9   2 -10    0.89    0.40
  -9   2 -10    0.27    0.97
   9  -2  10    0.41    1.18
 -10   2 -10    6.10    1.17
 -10   2 -10    4.64    0.74
 -10   2 -10    3.97    1.39
  10  -2  10    7.08    1.61
 -11   2 -10    3.33    0.65
 -11   2 -10    3.50    1.43
  11  -2  10    0.96    1.46
 -12   2 -10    3.18    0.70
 -13   2 -10    4.74    0.91
 -14   2 -10    1.32    0.45
  -7  -1  10    2.72    1.65
   6   1 -10   11.27    1.61
  -6  -1  10    6.19    1.36
   5   1 -10    4.07    0.98
  -5  -1  10    1.97    0.77
   4   1 -10   16.72    1.53
  -4  -1  10   17.21    2.78
  -4  -1  10   14.40    2.07
   3   1 -10    8.48    1.49
   3   1 -10    9.25    1.04
  -3  -1  10    9.48    2.12
  -3  -1  10    8.27    1.57
   2   1 -10    1.47    0.50
   2   1 -10    1.24    0.63
  -2  -1  10    2.01    1.68
  -2  -1  10    1.00    0.53
   1   1 -10   21.04    1.58
   1   1 -10   23.37    1.70
  -1  -1  10   23.63    2.00
  -1  -1  10   19.91    2.72
   0   1 -10  167.92    6.86
   0   1 -10  168.33    6.36
   0  -1  10  170.69    7.44
   0  -1  10  189.70    8.22
  -1   1 -10   36.26    2.02
   1  -1  10   33.41    1.69
   1  -1  10   34.09    2.33
   1  -1  10   34.00    3.08
  -2   1 -10    2.74    0.80
  -2   1 -10    2.13    0.57
  -2   1 -10    2.89    0.57
   2  -1  10    4.12    0.62
   2  -1  10    3.02    1.30
   2  -1  10    3.99    0.90
  -3   1 -10   13.52    1.06
  -3   1 -10   12.97    1.24
  -3   1 -10   13.97    1.08
   3  -1  10   13.49    1.05
   3  -1  10   12.76    2.00
   3  -1  10   15.26    1.34
  -4   1 -10   42.03    2.10
  -4   1 -10   41.52    2.11
   4  -1  10   38.41    2.35
   4  -1  10   38.66    1.97
   4  -1  10   40.46    3.20
  -5   1 -10    1.42    0.62
  -5   1 -10    1.30    0.38
  -5   1 -10    1.26    0.46
   5  -1  10    0.79    1.12
   5  -1  10    2.02    0.59
   5  -1  10    1.01    0.62
  -6   1 -10    0.21    0.60
   6  -1  10   -0.14    0.98
   6  -1  10   -1.64    0.65
  -7   1 -10    9.50    1.21
  -7   1 -10   10.36    0.85
  -7   1 -10   11.73    1.35
   7  -1  10    8.60    1.70
  -8   1 -10    6.69    0.97
  -8   1 -10    7.76    0.73
  -8   1 -10    5.99    1.13
   8  -1  10    8.50    1.63
  -9   1 -10    2.78    0.64
  -9   1 -10    3.81    1.14
  -9   1 -10    2.47    0.50
   9  -1  10    2.94    1.39
 -10   1 -10    3.97    0.78
 -10   1 -10    3.65    0.63
 -10   1 -10    4.42    1.29
  10  -1  10    3.59    1.40
 -11   1 -10    4.79    0.87
 -11   1 -10    2.46    1.38
 -11   1 -10    6.41    0.90
 -12   1 -10   16.36    1.39
 -12   1 -10   17.09    1.29
 -13   1 -10    7.03    0.94
 -14   1 -10    5.00    0.79
  -7   0  10    3.74    1.17
   6   0 -10    1.93    0.69
  -6   0  10    1.13    0.63
   5   0 -10    5.33    1.08
  -5   0  10    4.49    2.29
  -5   0  10    3.38    1.23
   4   0 -10   62.05    3.38
  -4   0  10   65.13    4.51
  -4   0  10   54.99    3.80
   3   0 -10   34.59    1.62
   3   0 -10   29.09    2.52
  -3   0  10   33.05    2.62
  -3   0  10   33.70    3.28
   2   0 -10    4.81    0.85
   2   0 -10    3.91    0.66
  -2   0  10    5.59    1.77
  -2   0  10    4.50    1.36
   1   0 -10    9.00    0.87
   1   0 -10   10.72    1.40
   1   0 -10   10.17    0.71
  -1   0  10    9.76    1.91
  -1   0  10    9.97    1.53
   0   0 -10   31.87    1.38
   0   0 -10   30.25    1.46
   0   0 -10   31.47    1.89
   0   0  10   32.54    2.27
   0   0  10   28.96    2.75
  -1   0 -10    0.46    0.37
  -1   0 -10   -0.01    0.09
  -1   0 -10    0.21    0.23
   1   0  10    0.25    0.38
   1   0  10    0.01    0.10
   1   0  10   -0.13    1.17
  -2   0 -10    9.37    0.84
  -2   0 -10    7.15    0.76
  -2   0 -10    9.71    1.26
   2   0  10   10.53    1.40
   2   0  10    8.72    1.64
  -3   0 -10    7.48    0.78
  -3   0 -10    7.09    0.70
   3   0  10    6.61    0.67
   3   0  10    5.79    1.49
   3   0  10    7.50    1.15
  -4   0 -10    3.65    0.73
  -4   0 -10    4.03    0.61
  -4   0 -10    5.93    0.77
   4   0  10    5.11    1.30
   4   0  10    4.83    0.67
   4   0  10    3.41    0.68
  -5   0 -10    0.49    0.50
  -5   0 -10    0.03    0.12
  -5   0 -10    0.13    0.12
   5   0  10    0.16    1.08
   5   0  10   -0.60    0.49
   5   0  10    0.06    0.11
  -6   0 -10    9.60    1.16
  -6   0 -10    8.12    0.71
  -6   0 -10    8.26    1.11
   6   0  10    9.75    1.77
   6   0  10    7.65    1.00
  -7   0 -10    3.45    0.54
  -7   0 -10    3.97    0.73
  -7   0 -10    3.25    0.85
   7   0  10    3.07    1.27
  -8   0 -10   48.47    2.26
  -8   0 -10   48.62    2.53
  -8   0 -10   49.40    2.80
   8   0  10   50.69    3.37
  -9   0 -10    0.33    0.21
  -9   0 -10    0.28    0.24
  -9   0 -10   -0.68    0.86
   9   0  10    1.68    1.21
 -10   0 -10   22.04    1.47
 -10   0 -10   17.61    2.06
 -10   0 -10   20.76    1.29
 -11   0 -10    0.16    0.15
 -11   0 -10    0.26    0.21
  11   0  10   -0.65    1.22
 -12   0 -10    2.76    0.53
 -12   0 -10    2.85    0.60
 -13   0 -10    1.67    0.64
 -13   0 -10    2.14    0.67
 -14   0 -10    1.13    0.34
 -14   0 -10    1.35    0.40
 -15   0 -10   11.87    0.95
 -15   0 -10   11.66    1.03
   7  -1 -10   20.37    1.88
  -7   1  10   14.84    2.32
   6  -1 -10    1.10    0.54
  -6   1  10    3.46    2.69
  -6   1  10    1.34    0.72
   5  -1 -10    6.59    1.21
  -5   1  10    4.58    1.23
  -5   1  10    5.61    2.29
   4  -1 -10   20.29    1.68
  -4   1  10   18.49    2.89
  -4   1  10   15.77    2.22
   3  -1 -10    1.48    0.62
  -3   1  10    2.03    0.77
  -3   1  10    3.28    1.62
   2  -1 -10   19.62    1.51
  -2   1  10   17.43    1.75
  -2   1  10   21.35    2.72
   1  -1 -10    0.46    0.28
  -1   1  10    0.21    0.22
  -1   1  10    0.36    1.08
   0  -1 -10    0.62    0.33
   0   1  10   -0.93    1.04
   0   1  10    1.07    0.49
  -1  -1 -10    0.39    0.32
  -1  -1 -10    0.85    0.34
   1   1  10    0.07    0.15
   1   1  10    2.70    1.19
  -2  -1 -10   12.27    0.96
   2   1  10   13.40    2.03
   2   1  10   11.89    1.49
   2   1  10   11.64    0.63
  -3  -1 -10    3.23    0.50
  -3  -1 -10    2.99    0.62
  -3  -1 -10    4.23    0.67
   3   1  10    3.56    0.44
   3   1  10    4.27    1.26
   3   1  10    3.13    0.70
  -4  -1 -10   54.94    2.38
  -4  -1 -10   50.43    2.59
  -4  -1 -10   53.41    2.30
   4   1  10   47.94    3.33
   4   1  10   49.16    2.59
   4   1  10   49.30    2.15
  -5  -1 -10    6.12    0.85
  -5  -1 -10    6.44    0.88
  -5  -1 -10    7.53    0.64
   5   1  10    5.84    1.46
   5   1  10    8.82    0.90
  -6  -1 -10   12.75    1.22
  -6  -1 -10   11.54    0.83
  -6  -1 -10   13.97    1.08
   6   1  10   12.59    1.89
   6   1  10   12.78    1.16
  -7  -1 -10    0.59    0.25
  -7  -1 -10    0.73    0.29
  -7  -1 -10    1.28    0.74
   7   1  10    0.67    0.72
   7   1  10    0.11    1.09
  -8  -1 -10    6.53    0.57
  -8  -1 -10    7.74    1.16
   8   1  10    4.39    1.36
  -9  -1 -10    1.15    0.36
  -9  -1 -10    0.81    0.89
  -9  -1 -10    0.73    0.22
 -10  -1 -10    0.52    0.25
 -10  -1 -10    0.21    0.98
 -10  -1 -10    0.62    0.23
  10   1  10   -0.39    1.23
 -11  -1 -10   39.25    1.95
 -11  -1 -10   38.24    1.82
 -11  -1 -10   34.20    2.86
  11   1  10   33.69    2.80
 -12  -1 -10   -0.75    1.48
 -12  -1 -10    0.16    0.13
 -13  -1 -10    1.78    0.38
   7  -2 -10    3.44    0.90
  -7   2  10    1.32    0.69
   6  -2 -10    8.81    1.31
  -6   2  10    6.65    1.76
  -6   2  10    6.23    2.45
   5  -2 -10    1.31    0.56
  -5   2  10    1.43    0.69
   4  -2 -10   -0.05    0.07
  -4   2  10   -0.42    1.58
  -4   2  10   -0.08    0.15
   3  -2 -10    1.23    0.45
  -3   2  10    0.55    0.44
  -3   2  10    0.64    1.43
   2  -2 -10   11.12    1.11
  -2   2  10    9.33    1.88
  -2   2  10    9.75    1.59
   1  -2 -10    0.12    0.15
  -1   2  10    1.46    1.24
  -1   2  10    0.39    0.30
   0  -2 -10   27.85    1.69
   0  -2 -10   31.74    2.45
   0   2  10   28.86    2.68
   0   2  10   23.48    2.03
  -1  -2 -10   39.33    2.03
   1   2  10   35.86    2.27
   1   2  10   40.54    3.14
  -2  -2 -10   13.94    0.99
  -2  -2 -10   13.08    1.12
   2   2  10   14.00    1.95
   2   2  10   10.64    1.06
  -3  -2 -10    1.90    0.39
  -3  -2 -10    2.20    0.55
   3   2  10    2.99    1.11
   3   2  10    2.71    0.27
   3   2  10    2.25    0.57
  -4  -2 -10    4.87    0.77
  -4  -2 -10    5.26    0.65
  -4  -2 -10    4.26    0.61
   4   2  10    4.42    1.25
   4   2  10    4.09    0.48
  -5  -2 -10    1.20    0.29
  -5  -2 -10    1.11    0.71
  -5  -2 -10    1.67    0.42
   5   2  10    1.59    0.47
   5   2  10    0.16    0.99
  -6  -2 -10    3.55    0.58
  -6  -2 -10    2.62    0.70
  -6  -2 -10    2.63    0.41
   6   2  10    2.55    0.66
   6   2  10    3.23    1.28
  -7  -2 -10   43.05    2.41
  -7  -2 -10   45.59    1.90
  -7  -2 -10   43.90    2.09
   7   2  10   44.62    2.33
   7   2  10   41.53    3.11
  -8  -2 -10    2.66    0.44
  -8  -2 -10    2.90    0.48
  -8  -2 -10    4.87    1.05
   8   2  10    3.45    1.57
  -9  -2 -10    4.01    0.55
  -9  -2 -10    3.02    0.41
  -9  -2 -10    3.07    1.01
 -10  -2 -10    1.48    1.09
  10   2  10    3.68    1.35
 -11  -2 -10   10.23    1.84
  11   2  10   12.66    1.86
 -12  -2 -10    6.21    1.64
   7  -3 -10   -0.02    0.13
   6  -3 -10    3.73    0.95
  -6   3  10    3.52    1.14
  -6   3  10    3.46    2.34
   5  -3 -10    0.97    0.41
  -5   3  10   -2.96    2.80
  -5   3  10    0.99    0.62
   4  -3 -10    2.81    0.69
  -4   3  10    3.20    1.11
  -4   3  10    2.25    1.71
   3  -3 -10   20.56    1.61
  -3   3  10   19.24    1.93
  -3   3  10   26.17    2.92
  -2   3  10    2.66    1.40
   1  -3 -10    2.74    0.59
  -1   3  10    2.78    1.19
  -1   3  10    1.54    0.61
   0  -3 -10    1.90    0.60
   0  -3 -10    2.39    0.60
   0   3  10    2.09    0.61
   0   3  10    2.74    1.37
  -1  -3 -10    7.00    0.93
  -1  -3 -10    5.26    0.85
   1   3  10    6.24    1.04
   1   3  10    6.53    1.63
  -2  -3 -10    6.06    0.79
   2   3  10    8.14    1.08
   2   3  10    4.91    1.23
  -3  -3 -10   20.52    1.39
  -3  -3 -10   22.59    1.25
   3   3  10   21.16    2.26
  -4  -3 -10   12.61    0.83
  -4  -3 -10   13.44    0.99
   4   3  10   12.08    0.74
   4   3  10   14.35    2.14
   4   3  10   13.30    0.74
  -5  -3 -10    9.66    0.77
  -5  -3 -10   10.85    0.97
  -5  -3 -10    9.22    0.64
   5   3  10    8.56    0.83
   5   3  10   11.03    1.92
  -6  -3 -10    3.06    0.40
  -6  -3 -10    2.55    0.65
  -6  -3 -10    2.91    0.47
   6   3  10    3.27    0.68
   6   3  10    3.27    1.33
  -7  -3 -10   14.13    0.82
  -7  -3 -10   12.01    1.32
  -7  -3 -10   13.76    0.72
   7   3  10   11.45    1.89
   7   3  10   13.85    1.33
  -8  -3 -10    8.25    1.22
   8   3  10    9.55    1.77
  -9  -3 -10   35.27    2.53
   9   3  10   36.52    3.35
 -10  -3 -10    2.54    1.18
  10   3  10    2.28    1.62
 -11  -3 -10   -1.17    1.33
  11   3  10    2.24    1.51
 -12  -3 -10    1.59    1.63
   8  -4 -10    0.00    0.13
   7  -4 -10   10.21    1.72
   6  -4 -10    0.12    0.20
  -6   4  10   -2.40    2.15
   5  -4 -10    0.39    0.32
  -5   4  10   -0.12    2.06
  -5   4  10    1.14    0.67
   4  -4 -10    0.66    0.37
  -4   4  10    2.40    1.55
   3  -4 -10    5.45    0.91
  -3   4  10    5.57    1.22
  -3   4  10    7.21    1.87
   2  -4 -10    3.17    0.68
  -2   4  10    3.19    0.88
  -2   4  10    3.33    1.50
   1  -4 -10    0.69    0.33
  -1   4  10    1.29    1.17
  -1   4  10    0.60    0.35
   0  -4 -10    9.74    0.89
   0   4  10    8.83    1.29
   0   4  10   12.95    2.14
  -1  -4 -10    4.19    0.66
  -1  -4 -10    2.50    0.59
   1   4  10    4.05    0.89
   1   4  10    3.38    1.25
  -2  -4 -10    1.38    0.36
  -2  -4 -10    0.88    0.34
   2   4  10    1.84    1.11
  -3  -4 -10    5.25    0.74
  -3  -4 -10    5.37    0.51
   3   4  10    8.50    1.65
  -4  -4 -10    5.46    0.56
  -4  -4 -10    5.40    0.47
   4   4  10    5.46    0.44
   4   4  10    5.85    0.50
   4   4  10    8.84    1.82
  -5  -4 -10   87.91    3.43
  -5  -4 -10   89.40    3.28
   5   4  10   84.93    4.85
   5   4  10   90.11    3.41
   5   4  10   85.16    3.36
  -6  -4 -10    0.89    0.17
   6   4  10    0.12    1.06
   6   4  10    1.23    0.58
   6   4  10    1.01    0.46
  -7  -4 -10   -0.77    0.65
   7   4  10   -0.65    1.17
   7   4  10    0.51    0.77
  -8  -4 -10    5.34    1.09
   8   4  10    2.81    1.31
  -9  -4 -10   19.69    2.06
   9   4  10   21.45    2.54
 -10  -4 -10   -0.98    1.13
  10   4  10    0.00    1.40
 -11  -4 -10   28.41    2.74
 -12  -4 -10   11.29    2.29
  12   4  10    9.47    1.74
   7  -5 -10    2.54    0.75
   6  -5 -10    0.20    0.22
  -6   5  10   -4.26    2.20
   5  -5 -10    1.47    0.58
   4  -5 -10    3.74    0.82
  -4   5  10    3.61    1.94
   3  -5 -10    2.60    0.67
  -3   5  10    1.13    0.72
  -3   5  10    5.75    1.79
   2  -5 -10    0.34    0.23
  -2   5  10   -0.94    1.22
  -2   5  10   -0.03    0.13
   1  -5 -10    0.12    0.16
   1  -5 -10    0.19    0.20
  -1   5  10    0.30    0.31
  -1   5  10   -0.82    1.21
   0  -5 -10    1.93    0.47
   0  -5 -10    3.27    0.71
   0   5  10    3.12    1.23
   0   5  10    2.24    0.67
  -1  -5 -10  111.03    4.43
  -1  -5 -10  113.02    4.63
   1   5  10  103.96    4.83
   1   5  10  113.96    5.83
  -2  -5 -10   17.84    1.20
  -2  -5 -10   17.71    1.09
   2   5  10   13.57    2.27
  -3  -5 -10    1.38    0.36
  -3  -5 -10    1.44    0.31
   3   5  10    0.69    1.04
  -4  -5 -10    7.74    0.56
   4   5  10    8.31    0.51
   4   5  10    8.38    0.58
   4   5  10   10.00    1.80
  -5  -5 -10   48.84    1.87
  -5  -5 -10   50.09    1.95
   5   5  10   47.03    3.43
   5   5  10   46.20    2.14
   5   5  10   49.41    2.04
   6   5  10    6.56    0.76
   6   5  10    6.69    1.67
   6   5  10    5.47    0.87
   7   5  10   25.29    2.71
   7   5  10   18.33    1.39
   7   5  10   19.64    1.76
   8   5  10   34.20    3.01
   8   5  10   30.49    1.93
   9   5  10    0.51    1.39
   9   5  10   -0.40    0.65
  10   5  10    1.31    1.59
  10   5  10   -0.58    0.85
  11   5  10    3.15    1.77
   7  -6 -10    0.22    0.31
   6  -6 -10    0.18    0.23
  -6   6  10    1.06    2.66
   5  -6 -10    1.46    0.55
  -5   6  10    2.61    2.60
   4  -6 -10    1.44    0.53
  -4   6  10   -0.11    1.80
   3  -6 -10   49.86    2.85
  -3   6  10   51.26    4.01
   2  -6 -10   28.49    1.91
  -2   6  10   30.96    3.02
   1  -6 -10    0.06    0.22
   1  -6 -10    0.25    0.20
  -1   6  10   -0.55    1.32
   0  -6 -10    3.80    0.65
   0  -6 -10    6.16    1.13
   0   6  10    4.09    1.48
  -1  -6 -10   76.46    3.40
   1   6  10   77.07    4.78
  -2  -6 -10   15.65    1.05
  -2  -6 -10   14.00    0.94
   2   6  10   10.76    2.12
  -3  -6 -10    9.24    0.70
  -3  -6 -10    8.70    0.64
   3   6  10    8.87    1.79
  -4  -6 -10   52.09    2.21
  -4  -6 -10   57.92    2.20
   4   6  10   54.16    4.03
   4   6  10   60.23    2.10
   4   6  10   51.08    2.15
   5   6  10    0.49    0.53
   5   6  10   -0.37    0.55
   5   6  10   -0.05    1.09
   6   6  10    0.34    0.75
   6   6  10    0.60    0.42
   6   6  10    1.50    1.40
   7   6  10    2.08    1.10
   7   6  10    2.33    0.70
   7   6  10    4.32    1.65
   8   6  10   15.70    2.49
   8   6  10   14.05    1.38
   9   6  10    1.76    0.85
   9   6  10    0.99    1.55
  10   6  10   62.28    4.26
  10   6  10   66.33    3.45
  11   6  10   51.41    4.13
  11   6  10   52.38    3.16
   7  -7 -10   19.36    1.85
   6  -7 -10   23.27    1.98
  -6   7  10   19.93    3.56
   5  -7 -10    1.28    0.55
  -5   7  10    1.65    2.27
   4  -7 -10    2.68    0.70
   3  -7 -10   40.26    2.52
  -3   7  10   45.21    3.87
   2  -7 -10   28.55    1.89
  -2   7  10   23.64    2.93
  -1   7  10    2.36    1.54
   0  -7 -10   21.29    1.41
   0  -7 -10   19.60    1.39
   0   7  10   19.17    2.56
  -1  -7 -10    1.88    0.46
  -1  -7 -10    1.40    0.40
   1   7  10    1.31    1.47
  -2  -7 -10    0.07    0.09
  -2  -7 -10    0.35    0.17
   2   7  10   -1.49    1.14
   3   7  10    2.75    1.38
  -4  -7 -10   34.44    1.37
  -4  -7 -10   34.71    1.38
   4   7  10   29.09    1.40
   4   7  10   35.15    3.35
   4   7  10   31.25    1.59
   5   7  10    2.73    0.82
   5   7  10   -0.17    1.26
   5   7  10    2.99    0.56
   6   7  10   42.58    2.06
   6   7  10   43.28    2.54
   6   7  10   44.51    3.72
   7   7  10   91.46    3.84
   7   7  10   88.83    5.38
   8   7  10    6.47    1.02
   8   7  10    7.84    1.96
   9   7  10    1.26    0.90
   9   7  10    1.67    1.69
  10   7  10   51.67    4.17
  10   7  10   59.86    3.30
  11   7  10   39.90    2.99
  11   7  10   41.61    4.18
   7  -8 -10   16.76    1.72
   6  -8 -10   21.43    2.79
   5  -8 -10    0.18    0.19
  -5   8  10   -2.75    2.54
   4  -8 -10    6.71    1.24
  -4   8  10    3.72    2.18
   3  -8 -10    1.11    0.50
  -3   8  10    3.26    2.29
   2  -8 -10    0.45    0.26
  -2   8  10   -0.10    1.69
   1  -8 -10    0.53    0.29
  -1   8  10   -1.49    1.34
   0  -8 -10   15.76    1.19
   0  -8 -10   13.83    1.11
   0   8  10   15.43    2.52
  -1  -8 -10    5.28    0.77
  -1  -8 -10    5.21    0.72
   1   8  10    5.55    1.77
  -2  -8 -10   16.03    1.02
   2   8  10   17.24    2.52
  -3  -8 -10   73.44    2.76
  -3  -8 -10   73.59    2.76
   3   8  10   64.66    2.62
   3   8  10   66.06    2.54
   3   8  10   72.91    5.02
   4   8  10   17.67    2.67
   4   8  10   10.34    1.13
   4   8  10   12.45    0.89
   5   8  10    0.34    0.88
   5   8  10    1.23    1.68
   5   8  10    0.05    0.46
   6   8  10   36.36    3.75
   6   8  10   47.00    2.79
   6   8  10   43.46    2.19
   7   8  10   78.13    3.45
   7   8  10   75.09    5.21
   8   8  10   -0.74    1.68
   8   8  10    0.28    0.78
   9   8  10    1.26    1.82
   9   8  10    0.50    0.91
  10   8  10    5.03    2.30
  11   8  10   -1.02    2.37
   6  -9 -10    0.67    0.42
   5  -9 -10    1.58    0.63
   4  -9 -10    3.54    0.87
  -4   9  10    3.67    2.70
   3  -9 -10    4.03    0.93
  -3   9  10    5.73    2.39
   2  -9 -10    3.66    0.80
  -2   9  10    3.50    2.00
   1  -9 -10   37.73    2.17
  -1   9  10   28.79    3.93
   0  -9 -10    4.69    0.70
   0  -9 -10    6.20    0.86
   0   9  10    7.59    2.15
  -1  -9 -10    0.17    0.13
  -1  -9 -10    0.16    0.15
   1   9  10   -2.44    1.43
  -2  -9 -10   11.15    0.80
  -2  -9 -10   11.25    0.82
   2   9  10   12.98    2.50
  -3  -9 -10   74.35    2.79
  -3  -9 -10   69.81    2.74
   3   9  10   64.11    2.72
   3   9  10   80.93    5.19
   4   9  10   -0.15    1.77
   4   9  10   -0.04    0.96
   4   9  10   -0.66    0.47
   5   9  10    7.20    0.91
   5   9  10    7.37    2.00
   6   9  10    5.34    2.25
   6   9  10    4.38    0.85
   7   9  10    6.23    2.19
   7   9  10    5.87    1.04
   8   9  10    8.60    1.28
   8   9  10    7.47    2.75
   9   9  10    3.47    1.10
   9   9  10    2.90    3.40
  10   9  10    2.46    1.32
  10   9  10    3.56    2.50
  11   9  10   11.37    3.17
   6 -10 -10    0.00    0.14
   5 -10 -10   10.13    1.58
   4 -10 -10    8.84    1.42
   3 -10 -10    0.00    0.08
   2 -10 -10    1.59    0.53
  -2  10  10    1.02    2.34
   1 -10 -10   31.37    1.99
  -1  10  10   27.89    3.54
   0 -10 -10    1.41    0.40
   0 -10 -10    1.64    0.45
   0  10  10    4.43    2.03
  -1 -10 -10   10.71    0.88
  -1 -10 -10    9.93    0.87
   1  10  10    9.55    2.52
  -2 -10 -10    4.77    0.62
  -2 -10 -10    5.73    0.71
   2  10  10    4.73    0.64
   2  10  10    3.16    2.23
  -3 -10 -10    9.30    0.60
  -3 -10 -10    8.94    0.60
   3  10  10    7.84    0.85
   3  10  10    4.18    2.03
   4  10  10   13.16    2.94
   4  10  10   15.78    1.27
   5  10  10   11.69    2.71
   5  10  10   17.22    1.44
   6  10  10    1.69    0.79
   6  10  10    1.02    2.17
   7  10  10   19.66    1.82
   7  10  10   17.99    3.15
   8  10  10   -0.39    1.02
   8  10  10    1.54    2.35
   9  10  10    0.61    2.50
   9  10  10    1.00    1.24
   5 -11 -10    8.29    1.37
   4 -11 -10    1.77    0.63
   3 -11 -10    5.89    1.54
   2 -11 -10    2.46    0.72
   1 -11 -10    4.49    0.83
   0 -11 -10    3.85    0.76
  -1 -11 -10   21.98    1.33
  -1 -11 -10   22.17    1.42
  -2 -11 -10    2.25    0.42
  -2 -11 -10    2.38    0.43
   2  11  10    5.80    2.33
  -3 -11 -10   13.41    0.80
  -3 -11 -10   13.13    0.77
   3  11  10   13.80    2.95
   3  11  10   16.48    1.36
   4  11  10   -0.40    2.40
   4  11  10    0.85    0.79
   5  11  10    2.58    0.89
   5  11  10    2.58    2.51
   6  11  10    1.37    0.97
   7  11  10   28.92    2.15
   8  11  10   -1.42    1.20
   4 -12 -10    0.05    0.17
   3 -12 -10   20.06    1.74
   2 -12 -10    2.02    0.64
   1 -12 -10    6.34    1.18
   0 -12 -10    3.35    0.68
  -1 -12 -10    1.69    0.40
  -1 -12 -10    2.38    0.53
  -2 -12 -10    0.17    0.12
  -2 -12 -10    0.10    0.08
  -3 -12 -10    8.83    0.58
  -3 -12 -10    8.65    0.59
   4  12  10    3.24    1.07
   5  12  10    1.69    1.10
   6  12  10   -0.35    1.11
   7  12  10    1.09    1.27
   3 -13 -10    0.48    0.36
   2 -13 -10    0.97    0.50
   1 -13 -10    1.48    0.54
   0 -13 -10    3.96    0.76
  -1 -13 -10    0.45    0.23
  -1 -13 -10    0.58    0.30
  -2 -13 -10    1.91    0.46
  -2 -13 -10    1.86    0.39
   2 -14 -10    0.56    0.37
   1 -14 -10    1.85    0.57
   0 -14 -10    0.49    0.29
  -1 -14 -10    7.98    0.82
  -2 -14 -10    0.35    0.18
  -2 -14 -10    0.31    0.19
  -1 -15 -10    0.06    0.12
  -2 -15 -10    1.88    0.37
  -2 -15 -10    2.76    0.44
  -2   8 -11   10.35    1.69
  -3   8 -11    0.28    0.21
  -4   8 -11    2.36    0.95
  -5   8 -11    0.79    0.52
  -6   8 -11    4.92    1.04
  -7   8 -11    0.17    0.27
  -8   8 -11    2.57    0.78
   0   7 -11    5.47    1.09
  -1   7 -11    1.14    0.56
  -2   7 -11    4.25    0.94
  -3   7 -11    0.09    0.20
  -4   7 -11    0.44    0.32
  -5   7 -11    1.17    0.49
  -6   7 -11   27.28    2.04
  -8   7 -11    2.99    0.81
  -9   7 -11    2.30    0.66
 -10   7 -11   45.08    2.83
   2   6 -11    5.32    1.48
  -2  -6  11    1.94    0.87
   1   6 -11    0.12    0.18
  -1  -6  11   -0.01    0.18
   0   6 -11    2.32    0.73
   0  -6  11    4.50    1.42
  -1   6 -11    0.88    1.68
  -2   6 -11   14.28    1.42
  -2   6 -11   19.66    2.17
  -3   6 -11   26.07    2.60
  -3   6 -11   23.83    1.86
  -4   6 -11    3.95    1.48
  -4   6 -11    2.06    0.64
  -5   6 -11    3.62    0.76
  -5   6 -11    4.76    1.50
  -6   6 -11   59.33    3.17
  -6   6 -11   55.18    3.79
  -7   6 -11   24.53    1.84
  -8   6 -11    0.44    0.34
  -9   6 -11    0.24    0.24
 -10   6 -11    4.62    0.94
 -11   6 -11    0.14    0.15
  -3  -5  11   -0.11    0.24
   2   5 -11    5.27    1.06
  -2  -5  11    7.12    1.61
   1   5 -11   17.00    1.61
   0   5 -11    1.13    0.43
   0   5 -11    1.66    1.85
   0  -5  11    0.50    0.39
  -1   5 -11    1.13    1.39
  -1   5 -11    1.19    0.46
   1  -5  11    0.89    0.57
  -2   5 -11   63.88    3.45
  -2   5 -11   69.52    3.58
  -3   5 -11   55.15    3.26
  -3   5 -11   58.21    3.11
  -4   5 -11    0.01    0.10
  -4   5 -11    0.20    1.20
  -5   5 -11    0.24    1.18
  -5   5 -11    0.46    0.29
  -6   5 -11    8.73    1.68
  -6   5 -11    8.63    1.21
  -7   5 -11    2.61    1.43
  -7   5 -11    2.85    0.68
  -8   5 -11    1.19    0.43
  -8   5 -11    0.70    1.48
  -9   5 -11   19.41    1.56
 -10   5 -11    1.17    0.48
 -11   5 -11    1.69    0.61
 -12   5 -11    5.83    1.10
  -4  -4  11    0.25    0.45
   3   4 -11    0.78    0.38
  -3  -4  11    0.71    0.61
   2   4 -11   31.81    2.30
  -2  -4  11   30.05    2.72
   1   4 -11   57.18    3.23
  -1  -4  11   53.83    3.72
   0   4 -11    0.55    0.37
   0   4 -11    1.65    1.26
   0  -4  11    0.35    0.37
  -1   4 -11    1.40    0.48
  -1   4 -11    1.25    1.05
   1  -4  11    1.95    0.76
   1  -4  11    1.08    0.52
  -2   4 -11    9.44    1.26
  -2   4 -11    8.35    1.32
  -3   4 -11    8.37    1.31
  -3   4 -11    7.45    1.03
   3  -4  11    5.86    2.03
  -4   4 -11    0.21    0.20
  -4   4 -11   -0.12    0.93
   4  -4  11   -0.77    1.63
  -5   4 -11   14.16    1.71
  -5   4 -11   18.13    1.42
   5  -4  11   18.77    2.72
  -6   4 -11    4.09    1.32
  -6   4 -11    5.56    0.92
   6  -4  11    7.81    2.04
  -7   4 -11    1.85    1.15
  -7   4 -11    0.22    0.23
   7  -4  11   -1.68    1.63
  -8   4 -11    4.87    2.48
  -8   4 -11    7.88    1.07
   8  -4  11    5.99    1.99
  -9   4 -11   -0.74    1.40
  -9   4 -11    0.01    0.11
   9  -4  11   -1.14    1.85
 -10   4 -11    2.48    0.64
  10  -4  11    3.01    2.03
 -11   4 -11    4.60    0.84
 -12   4 -11   37.57    2.37
 -13   4 -11    3.51    0.77
   4   3 -11    1.25    0.51
  -4  -3  11    3.18    1.10
   3   3 -11    1.47    0.47
  -3  -3  11    1.84    0.76
   2   3 -11    7.33    1.18
  -2  -3  11   11.27    1.92
   1   3 -11   11.56    1.55
  -1  -3  11    9.11    1.64
   0   3 -11    0.57    0.34
   0   3 -11   -0.04    0.95
   0  -3  11    0.23    0.31
  -1   3 -11    3.16    0.75
  -1   3 -11    2.11    0.93
   1  -3  11    3.60    0.99
   1  -3  11    4.27    1.77
  -2   3 -11    8.43    1.09
  -2   3 -11    8.73    1.25
   2  -3  11    9.07    1.35
   2  -3  11    9.83    1.91
   2  -3  11   10.37    1.66
  -3   3 -11    0.16    0.18
  -3   3 -11   -0.38    0.81
   3  -3  11    0.99    1.38
  -4   3 -11    8.26    1.16
   4  -3  11    4.47    1.64
  -5   3 -11    0.13    0.15
  -5   3 -11    0.14    0.89
  -6   3 -11   -0.42    0.90
  -6   3 -11    1.43    0.45
   6  -3  11   -0.46    1.56
  -7   3 -11    0.02    0.99
  -7   3 -11    0.23    0.22
   7  -3  11    0.68    1.56
  -8   3 -11   49.02    2.56
  -8   3 -11   41.99    3.04
   8  -3  11   55.48    3.86
  -9   3 -11    8.63    1.11
   9  -3  11    8.98    2.07
 -10   3 -11    0.28    1.43
 -10   3 -11    0.19    0.17
  10  -3  11    0.42    1.81
 -11   3 -11    2.86    0.92
  11  -3  11    1.92    1.95
 -12   3 -11   11.53    1.15
 -13   3 -11    8.12    1.16
   5   2 -11    6.91    1.28
  -5  -2  11   10.01    2.00
   4   2 -11    0.55    0.37
  -4  -2  11    0.13    0.26
   3   2 -11    0.39    0.35
  -3  -2  11   -0.12    0.25
   2   2 -11    6.33    1.17
  -2  -2  11    8.17    1.64
   1   2 -11   -0.22    1.28
   1   2 -11    0.56    0.33
  -1  -2  11    0.15    0.19
   0   2 -11    2.46    0.60
   0   2 -11    2.50    0.81
   0  -2  11    2.52    1.79
   0  -2  11    2.56    0.86
  -1   2 -11   -0.02    0.73
  -1   2 -11    0.06    0.13
   1  -2  11    0.05    0.19
   1  -2  11   -1.42    1.50
  -2   2 -11    0.24    0.18
  -2   2 -11    0.61    0.70
   2  -2  11    0.17    0.19
   2  -2  11   -1.55    2.70
  -3   2 -11    6.80    0.92
  -3   2 -11    5.24    0.94
   3  -2  11    6.34    1.02
   3  -2  11    5.58    1.49
   3  -2  11    6.13    1.65
  -4   2 -11   27.94    1.85
  -4   2 -11   26.31    1.69
   4  -2  11   24.92    1.79
   4  -2  11   28.19    2.78
  -5   2 -11   22.76    1.54
  -5   2 -11   23.60    1.81
   5  -2  11   26.87    2.99
  -6   2 -11   -0.23    0.81
  -6   2 -11    0.31    0.21
   6  -2  11    0.35    1.43
  -7   2 -11   -0.16    0.91
  -7   2 -11    0.93    0.35
   7  -2  11    0.67    1.46
  -8   2 -11   13.29    1.08
  -8   2 -11   10.43    1.52
   8  -2  11   16.76    2.40
  -9   2 -11    4.31    1.31
  -9   2 -11    5.08    0.81
   9  -2  11    5.69    1.79
 -10   2 -11   16.09    1.24
 -10   2 -11   14.95    2.06
  10  -2  11   18.27    2.36
 -11   2 -11    0.02    0.08
  11  -2  11   -1.04    1.74
 -12   2 -11    0.85    0.40
 -13   2 -11    9.23    1.17
 -14   2 -11    2.43    0.61
   5   1 -11    0.42    0.32
  -5  -1  11   -0.04    0.25
   4   1 -11    0.37    0.27
  -4  -1  11    1.24    0.71
   3   1 -11    0.85    0.42
  -3  -1  11    0.34    0.40
   2   1 -11    0.55    0.34
  -2  -1  11    0.22    1.89
  -2  -1  11    0.89    0.49
   1   1 -11    4.69    0.93
   1   1 -11    4.21    1.20
  -1  -1  11    3.97    1.79
  -1  -1  11    3.36    0.90
   0   1 -11    6.39    0.81
   0   1 -11    4.59    0.77
   0  -1  11    6.14    1.78
   0  -1  11    5.95    1.24
  -1   1 -11   16.16    1.29
   1  -1  11   15.14    1.41
   1  -1  11   14.19    1.87
   1  -1  11   20.48    2.85
  -2   1 -11    0.58    0.59
  -2   1 -11    0.22    0.18
   2  -1  11    1.20    0.65
   2  -1  11   -0.85    1.33
   2  -1  11    0.43    0.35
  -3   1 -11    0.21    0.61
  -3   1 -11    0.87    0.35
   3  -1  11    0.94    1.20
   3  -1  11   -0.11    0.63
   3  -1  11    0.10    0.26
  -4   1 -11   16.29    1.33
  -4   1 -11   13.99    1.11
   4  -1  11   13.21    1.18
   4  -1  11   14.54    2.32
  -5   1 -11    1.40    0.74
  -5   1 -11    2.04    0.49
  -5   1 -11    3.62    0.80
   5  -1  11    3.36    0.84
   5  -1  11    1.18    1.24
  -6   1 -11   48.48    2.39
  -6   1 -11   49.04    2.82
  -6   1 -11   45.67    2.57
   6  -1  11   45.15    3.56
  -7   1 -11    0.30    0.19
  -7   1 -11    0.16    0.17
  -7   1 -11    0.40    0.90
   7  -1  11   -1.24    1.37
  -8   1 -11   -0.25    0.92
  -8   1 -11   -0.02    0.09
  -8   1 -11    0.42    0.21
   8  -1  11    0.27    1.41
  -9   1 -11   10.00    1.60
  -9   1 -11    9.62    1.28
  -9   1 -11    9.94    0.87
   9  -1  11    9.89    2.00
 -10   1 -11    6.67    1.69
 -10   1 -11    8.12    0.80
 -10   1 -11    8.01    1.13
  10  -1  11    9.07    1.77
 -11   1 -11    0.21    0.19
 -11   1 -11   -0.81    1.52
 -11   1 -11    0.15    0.26
  11  -1  11   -0.60    1.60
 -12   1 -11   15.17    1.50
 -13   1 -11    1.39    0.40
 -14   1 -11    2.96    0.62
   6   0 -11    1.37    0.64
   5   0 -11    1.66    0.65
   4   0 -11    0.01    0.13
  -4   0  11    0.17    0.29
   3   0 -11    9.62    1.32
  -3   0  11   12.30    2.05
   2   0 -11    0.20    0.18
  -2   0  11    1.22    1.83
  -2   0  11    1.02    0.57
   1   0 -11    1.12    0.44
  -1   0  11    0.38    0.35
  -1   0  11    2.00    1.68
   0   0 -11    1.18    0.38
   0   0  11    2.10    1.42
   0   0  11    0.90    0.50
  -1   0 -11    0.94    0.37
   1   0  11    1.52    0.59
   1   0  11   -1.21    1.41
  -2   0 -11   40.38    1.80
  -2   0 -11   39.51    2.18
   2   0  11   38.63    2.52
   2   0  11   43.89    1.77
   2   0  11   37.92    3.21
  -3   0 -11    3.48    0.62
  -3   0 -11    3.36    0.61
   3   0  11    3.45    1.38
   3   0  11    3.11    0.58
  -4   0 -11    0.52    0.54
   4   0  11   -0.11    0.54
   4   0  11    1.65    1.29
  -5   0 -11    6.61    0.99
  -5   0 -11    6.01    0.95
  -5   0 -11    7.06    0.70
   5   0  11    6.63    1.61
   5   0  11    6.43    0.87
  -6   0 -11   25.22    1.79
  -6   0 -11   26.88    1.79
  -6   0 -11   24.61    1.46
   6   0  11   23.33    2.85
   6   0  11   24.70    1.71
  -7   0 -11    2.57    0.94
  -7   0 -11    2.19    0.47
  -7   0 -11    2.39    0.59
   7   0  11    2.16    1.44
  -8   0 -11    5.18    1.22
  -8   0 -11    5.35    0.86
  -8   0 -11    5.63    0.74
   8   0  11    3.60    1.63
  -9   0 -11    7.31    1.03
  -9   0 -11    6.49    0.66
  -9   0 -11    5.93    1.29
   9   0  11    8.00    1.78
 -10   0 -11    4.39    0.66
 -10   0 -11    4.17    0.75
 -10   0 -11    3.33    1.36
  10   0  11    3.66    1.75
 -11   0 -11   -0.60    1.40
 -11   0 -11    0.26    0.20
 -11   0 -11    0.44    0.27
  11   0  11    0.41    1.65
 -12   0 -11   11.36    1.05
 -12   0 -11   11.46    0.94
 -13   0 -11   -0.01    0.10
 -13   0 -11    0.25    0.19
 -14   0 -11    6.05    0.82
 -14   0 -11    7.22    0.70
   6  -1 -11    0.14    0.23
   5  -1 -11    0.61    0.37
   4  -1 -11    0.12    0.23
  -4   1  11    0.20    0.30
   3  -1 -11    1.71    0.50
  -3   1  11    2.09    0.87
  -3   1  11    1.85    2.01
   2  -1 -11   14.88    1.36
  -2   1  11   14.84    2.46
  -2   1  11   15.00    2.26
   1  -1 -11    7.46    1.19
  -1   1  11    6.98    1.29
  -1   1  11    8.92    2.01
   0  -1 -11    0.85    0.38
   0   1  11    2.18    1.50
   0   1  11    1.21    0.56
  -1  -1 -11    2.58    0.57
   1   1  11    3.77    1.59
   1   1  11    4.30    1.03
  -2  -1 -11   17.65    1.27
   2   1  11   19.62    2.61
   2   1  11   16.67    1.54
  -3  -1 -11    1.70    0.50
  -3  -1 -11    0.52    0.41
  -3  -1 -11    1.33    0.39
   3   1  11    0.69    1.10
   3   1  11    2.07    0.36
  -4  -1 -11    1.34    0.44
  -4  -1 -11    1.46    0.58
  -4  -1 -11    1.11    0.32
   4   1  11    1.70    0.47
   4   1  11    1.34    1.16
  -5  -1 -11    9.75    1.03
  -5  -1 -11   12.40    0.90
  -5  -1 -11    9.90    0.98
   5   1  11    9.08    1.87
   5   1  11    9.51    1.01
  -6  -1 -11    1.79    0.49
  -6  -1 -11    0.81    0.71
  -6  -1 -11    1.14    0.34
   6   1  11   -0.29    1.27
   6   1  11    0.50    0.69
  -7  -1 -11    0.33    0.22
  -7  -1 -11    0.64    0.75
  -7  -1 -11    0.73    0.26
   7   1  11   -0.86    1.29
   7   1  11    0.61    0.76
  -8  -1 -11    7.59    1.95
  -8  -1 -11    8.68    0.70
  -8  -1 -11    7.73    0.97
   8   1  11    7.96    1.80
  -9  -1 -11    3.61    1.11
  -9  -1 -11    2.67    0.46
  -9  -1 -11    1.85    0.46
   9   1  11    2.60    1.49
 -10  -1 -11   19.00    1.11
 -10  -1 -11   17.17    1.20
 -10  -1 -11   13.57    1.90
  10   1  11   17.37    2.38
 -11  -1 -11   -1.11    2.48
 -11  -1 -11    0.13    0.11
 -11  -1 -11    0.02    0.08
  11   1  11   -0.38    1.65
 -12  -1 -11    0.60    0.26
 -12  -1 -11    1.50    0.34
   6  -2 -11    2.03    0.65
   5  -2 -11    3.20    0.91
   4  -2 -11    0.28    0.24
  -4   2  11    0.23    2.14
   3  -2 -11   -0.05    0.09
  -3   2  11    0.11    1.99
   2  -2 -11   11.01    1.45
  -2   2  11    7.23    1.45
   1  -2 -11    0.31    0.21
  -1   2  11    0.36    0.33
  -1   2  11    1.03    1.56
   0  -2 -11    9.11    0.92
   0   2  11    7.17    1.36
   0   2  11    8.47    1.98
  -1  -2 -11    3.55    0.61
   1   2  11    6.11    1.71
   1   2  11    3.40    0.96
  -2  -2 -11    0.01    0.10
  -2  -2 -11    0.34    0.21
   2   2  11    0.06    1.23
  -3  -2 -11    3.02    0.61
  -3  -2 -11    2.88    0.67
   3   2  11    1.37    1.35
  -4  -2 -11    0.00    0.40
  -4  -2 -11    0.15    0.15
  -4  -2 -11    0.36    0.22
   4   2  11    0.01    1.14
   4   2  11    0.08    0.32
  -5  -2 -11    5.90    0.84
  -5  -2 -11    5.57    0.91
  -5  -2 -11    6.07    0.57
   5   2  11    3.08    1.28
   5   2  11    6.33    0.73
  -6  -2 -11   28.89    1.78
  -6  -2 -11   29.47    1.45
  -6  -2 -11   26.61    1.62
   6   2  11   26.23    2.67
   6   2  11   25.79    1.62
  -7  -2 -11    8.88    1.17
  -7  -2 -11    6.74    0.85
  -7  -2 -11    5.91    0.53
   7   2  11    5.60    0.98
   7   2  11    5.52    1.71
  -8  -2 -11    0.87    0.86
   8   2  11    0.74    1.31
  -9  -2 -11    3.98    0.56
  -9  -2 -11    2.09    1.12
  -9  -2 -11    3.56    0.48
   9   2  11    3.99    1.57
 -10  -2 -11    5.33    1.43
 -10  -2 -11    4.10    0.40
  10   2  11    5.95    1.65
 -11  -2 -11   -0.81    1.51
  11   2  11   -0.89    1.64
 -12  -2 -11   18.76    3.04
   6  -3 -11    1.49    0.58
   5  -3 -11    0.34    0.34
   4  -3 -11   13.03    1.78
  -4   3  11    9.58    2.52
   3  -3 -11    1.06    0.46
  -3   3  11   -0.21    1.86
   2  -3 -11    0.96    0.41
  -2   3  11    1.10    1.64
   1  -3 -11    3.60    0.82
  -1   3  11    4.17    1.52
   0  -3 -11    6.02    0.95
   0   3  11    5.70    1.63
  -1  -3 -11    2.35    0.49
  -1  -3 -11    3.95    0.87
   1   3  11    6.11    1.79
  -2  -3 -11   12.33    0.96
   2   3  11   10.09    1.97
  -3  -3 -11   12.19    1.10
  -3  -3 -11   15.73    1.08
   3   3  11   13.38    2.11
  -4  -3 -11    0.98    0.33
  -4  -3 -11    0.78    0.30
   4   3  11    0.16    1.24
  -5  -3 -11    5.75    0.53
  -5  -3 -11    5.92    0.75
  -5  -3 -11    5.62    0.76
   5   3  11    3.36    1.56
  -6  -3 -11   13.05    0.82
  -6  -3 -11   14.25    0.98
  -6  -3 -11   14.15    1.26
   6   3  11   13.67    2.32
   6   3  11   13.86    1.18
  -7  -3 -11    5.98    1.09
  -7  -3 -11    4.34    0.39
  -7  -3 -11    4.96    0.63
   7   3  11    4.17    1.46
   7   3  11    2.85    1.57
  -8  -3 -11   19.76    0.94
  -8  -3 -11   16.60    1.82
   8   3  11   23.51    2.83
  -9  -3 -11  118.07    5.44
   9   3  11  128.31    6.22
 -10  -3 -11   30.77    2.53
  10   3  11   20.24    2.66
 -11  -3 -11    0.56    1.45
  11   3  11    1.87    1.73
 -12  -3 -11   31.54    3.62
   6  -4 -11    0.83    0.49
   5  -4 -11    1.71    0.68
   4  -4 -11   11.59    1.64
  -4   4  11   10.03    2.74
   3  -4 -11    0.35    0.28
  -3   4  11    1.21    1.84
   2  -4 -11    3.49    0.78
  -2   4  11    4.78    1.81
   1  -4 -11   16.89    1.35
  -1   4  11   11.17    2.22
   0  -4 -11    0.51    0.30
   0   4  11   -1.85    1.36
  -1  -4 -11    2.60    0.51
  -1  -4 -11    3.29    0.76
   1   4  11    2.92    1.39
  -2  -4 -11    6.85    0.67
  -2  -4 -11    5.31    0.79
   2   4  11    6.35    1.79
  -3  -4 -11   18.29    1.30
  -3  -4 -11   19.86    1.18
   3   4  11   17.97    2.54
  -4  -4 -11   15.02    1.05
  -4  -4 -11   11.38    0.82
   4   4  11   14.37    2.29
  -5  -4 -11  134.55    4.85
  -5  -4 -11  129.32    4.98
   5   4  11  124.62    4.65
   5   4  11  139.74    6.78
   5   4  11  126.90    4.66
  -6  -4 -11   48.96    2.00
  -6  -4 -11   47.80    2.08
   6   4  11   47.59    2.25
   6   4  11   50.40    2.22
   6   4  11   46.86    3.72
   7   4  11    0.18    0.56
   7   4  11    0.35    1.45
  -8  -4 -11   39.33    2.51
   8   4  11   34.63    2.09
   8   4  11   37.48    3.34
  -9  -4 -11  166.74    7.06
   9   4  11  171.41    7.85
 -10  -4 -11   24.51    2.55
  10   4  11   23.64    2.79
 -11  -4 -11    1.98    1.59
  11   4  11    1.46    1.25
  11   4  11    3.35    1.96
   5  -5 -11    4.74    1.00
   4  -5 -11    0.02    0.14
  -4   5  11   -3.01    2.20
   3  -5 -11    1.49    0.56
  -3   5  11    2.36    1.99
   2  -5 -11    0.89    0.38
  -2   5  11   -1.37    2.29
   1  -5 -11   27.37    1.76
  -1   5  11   20.16    2.81
   0  -5 -11    6.22    0.90
   0   5  11    8.29    2.17
  -1  -5 -11   76.38    3.38
  -1  -5 -11   70.76    3.49
   1   5  11   82.95    4.90
  -2  -5 -11   55.93    2.58
  -2  -5 -11   55.14    2.75
   2   5  11   63.21    4.31
  -3  -5 -11    0.48    0.21
  -3  -5 -11    1.32    0.36
   3   5  11    2.44    1.28
  -4  -5 -11   25.71    1.48
  -4  -5 -11   26.20    1.32
   4   5  11   31.37    3.10
  -5  -5 -11  169.07    6.09
   5   5  11  160.27    5.91
   5   5  11  161.34    8.06
   5   5  11  180.43    5.90
   6   5  11   71.16    3.06
   6   5  11   73.14    2.95
   6   5  11   69.79    4.57
   7   5  11   -0.11    0.57
   7   5  11   -1.78    1.41
   8   5  11    0.37    1.61
   8   5  11    0.14    0.68
   9   5  11   11.77    1.40
   9   5  11   16.08    2.54
  10   5  11    0.82    0.92
  10   5  11   -0.75    1.78
  11   5  11    0.05    1.82
  11   5  11   -0.04    2.05
   6  -6 -11    0.03    0.19
   5  -6 -11   10.76    1.51
   4  -6 -11    4.38    0.96
  -4   6  11    5.74    2.45
   3  -6 -11   23.65    1.83
  -3   6  11   20.38    3.01
   2  -6 -11   34.57    2.22
  -2   6  11   33.95    4.18
   1  -6 -11   -0.05    0.05
  -1   6  11   -1.54    1.55
   0  -6 -11   13.37    1.12
   0   6  11   12.11    2.29
  -1  -6 -11  108.17    4.68
  -1  -6 -11  112.07    4.55
   1   6  11  112.70    6.17
  -2  -6 -11   81.09    3.49
  -2  -6 -11   84.63    3.65
   2   6  11   89.99    5.30
  -3  -6 -11    0.12    0.11
  -3  -6 -11    0.15    0.15
   3   6  11    0.28    1.51
  -4  -6 -11    0.12    0.11
  -4  -6 -11    0.48    0.19
   4   6  11    1.27    1.35
   5   6  11   20.50    1.02
   5   6  11   17.94    2.63
   5   6  11   19.57    1.17
   6   6  11    2.27    0.52
   6   6  11    3.42    1.68
   6   6  11    1.65    0.77
   7   6  11    1.08    1.07
   7   6  11    1.91    0.64
   7   6  11   -0.22    1.43
   8   6  11    3.98    1.90
   8   6  11    3.04    0.89
   9   6  11    6.22    1.95
   9   6  11    4.91    1.02
  10   6  11   -0.67    1.02
  10   6  11    4.89    2.01
  11   6  11    9.52    1.62
  11   6  11   12.23    2.68
   6  -7 -11   12.64    1.69
   5  -7 -11   -0.06    0.11
   4  -7 -11    4.61    1.04
   3  -7 -11   36.79    2.37
  -3   7  11   27.68    3.54
   2  -7 -11   60.09    3.21
  -2   7  11   60.17    4.62
  -1   7  11    2.12    2.13
   0  -7 -11    1.60    0.51
   0  -7 -11    1.73    0.45
   0   7  11    1.00    1.55
  -1  -7 -11    8.67    0.86
  -1  -7 -11    8.98    0.84
   1   7  11    8.63    2.11
  -2  -7 -11    5.58    0.72
  -2  -7 -11    5.75    0.80
   2   7  11    5.27    1.80
  -3  -7 -11    8.80    0.71
  -3  -7 -11    9.94    0.71
   3   7  11    5.60    1.79
  -4  -7 -11    0.34    0.15
  -4  -7 -11    0.17    0.11
   4   7  11   -0.73    1.55
   5   7  11    5.78    2.05
   5   7  11    4.96    0.55
   5   7  11    3.86    0.84
   6   7  11    5.59    1.06
   6   7  11    6.72    0.79
   6   7  11    7.60    2.14
   7   7  11    7.81    1.45
   7   7  11   11.82    1.20
   7   7  11    7.76    2.12
   8   7  11    2.38    1.99
   8   7  11    2.52    0.93
   9   7  11   20.06    3.01
   9   7  11   20.35    1.81
  10   7  11   -2.21    2.18
  10   7  11    2.11    1.14
  11   7  11   10.80    2.85
  11   7  11   10.15    1.69
   6  -8 -11   22.53    2.02
   5  -8 -11    0.36    0.27
   4  -8 -11    2.93    0.78
   3  -8 -11    4.48    0.94
   2  -8 -11    6.22    1.08
  -2   8  11    7.21    2.29
   1  -8 -11   10.98    1.08
  -1   8  11    9.87    2.45
   0  -8 -11    2.21    0.56
   0   8  11    3.64    2.08
  -1  -8 -11    1.28    0.38
  -1  -8 -11    1.02    0.34
  -2  -8 -11   12.41    0.92
  -2  -8 -11   12.10    0.88
   2   8  11   10.33    2.40
  -3  -8 -11    6.57    0.55
  -3  -8 -11    6.51    0.56
   3   8  11    8.48    2.27
  -4  -8 -11    6.66    0.45
   4   8  11    5.02    2.00
   5   8  11   14.76    2.54
   5   8  11   13.51    1.39
   6   8  11   13.27    1.20
   6   8  11   12.32    2.67
   7   8  11    8.15    1.00
   7   8  11    8.09    2.56
   8   8  11    1.88    2.27
   8   8  11   -0.13    0.79
   9   8  11    0.29    0.95
  10   8  11   -1.13    2.38
  11   8  11    1.40    2.89
   5  -9 -11    3.14    0.84
   4  -9 -11    3.83    0.89
   3  -9 -11    0.93    0.46
   2  -9 -11    6.80    1.13
   1  -9 -11    1.71    0.50
  -1   9  11    0.88    2.03
   0  -9 -11    3.01    0.66
   0   9  11    1.17    2.28
  -1  -9 -11    6.84    0.90
   1   9  11    6.76    2.38
  -2  -9 -11   28.72    1.52
  -2  -9 -11   27.73    1.49
   2   9  11   20.70    3.22
  -3  -9 -11    1.40    0.29
  -3  -9 -11    0.98    0.25
   3   9  11    1.58    1.81
   4   9  11   -1.69    2.02
   4   9  11    0.98    0.45
   5   9  11   -1.30    2.09
   5   9  11    1.64    0.60
   6   9  11   -0.37    0.64
   6   9  11    0.15    2.04
   7   9  11    4.24    2.10
   8   9  11    5.38    2.52
   8   9  11    6.99    1.27
   9   9  11   11.98    2.86
   9   9  11   11.54    1.53
  10   9  11    2.03    1.30
  10   9  11    2.83    2.76
   5 -10 -11    0.04    0.17
   4 -10 -11    4.90    1.08
   3 -10 -11    1.38    0.55
   2 -10 -11   13.75    1.33
   1 -10 -11    0.41    0.25
   0 -10 -11    1.19    0.42
  -1 -10 -11    1.56    0.41
  -1 -10 -11    1.46    0.40
  -2 -10 -11    0.07    0.09
  -2 -10 -11    0.29    0.17
   2  10  11   -0.90    2.51
  -3 -10 -11    2.12    0.34
  -3 -10 -11    2.55    0.39
   3  10  11   -2.26    2.22
   4  10  11    1.12    2.05
   5  10  11   18.90    3.36
   5  10  11   12.87    1.30
   6  10  11   -1.82    2.78
   6  10  11    1.50    0.84
   7  10  11   -0.10    0.95
   8  10  11    0.58    1.09
   9  10  11    0.69    1.34
   4 -11 -11    0.31    0.27
   3 -11 -11    1.21    0.49
   2 -11 -11    0.26    0.21
   1 -11 -11    1.14    0.53
   0 -11 -11    1.14    0.39
  -1 -11 -11    9.29    0.85
  -1 -11 -11    8.57    0.79
  -2 -11 -11    0.79    0.27
  -2 -11 -11    0.76    0.25
  -3 -11 -11    0.08    0.08
  -3 -11 -11    0.03    0.08
   7  11  11    2.85    1.24
   8  11  11   -0.48    1.46
   3 -12 -11    1.56    0.58
   2 -12 -11    0.18    0.20
   1 -12 -11    0.66    0.33
   0 -12 -11    1.57    0.48
  -1 -12 -11    0.51    0.23
  -2 -12 -11   29.02    1.54
   2 -13 -11   14.16    1.38
   1 -13 -11   23.14    1.72
   0 -13 -11    0.18    0.17
  -1 -13 -11   -0.03    0.07
  -2 -13 -11   11.07    0.79
  -2 -13 -11   10.85    0.82
   0 -14 -11    1.99    0.53
  -1 -14 -11   10.19    0.90
  -2 -14 -11    4.61    0.58
  -2 -14 -11    3.80    0.51
  -2   7 -12    0.24    0.26
  -3   7 -12    1.04    0.51
  -4   7 -12   11.72    1.53
  -5   7 -12    1.43    0.55
  -6   7 -12    5.57    1.15
  -7   7 -12    1.50    0.56
  -8   7 -12    0.53    0.35
   0   6 -12   11.05    1.60
  -1   6 -12    3.36    1.18
  -2   6 -12    0.88    0.44
  -3   6 -12    1.42    0.54
  -4   6 -12    0.72    0.38
  -5   6 -12    0.16    0.27
  -6   6 -12   23.28    2.35
  -7   6 -12   45.14    2.75
  -8   6 -12    2.27    0.64
  -9   6 -12    1.02    0.44
 -10   6 -12   21.68    1.79
   1   5 -12    1.09    0.77
   0   5 -12    1.99    0.67
  -1   5 -12    0.47    0.30
  -2   5 -12    8.78    1.27
  -3   5 -12   38.96    2.49
  -3   5 -12   37.50    3.36
  -4   5 -12    2.31    0.67
  -5   5 -12    1.39    0.50
  -5   5 -12    2.88    1.62
  -6   5 -12   17.09    2.28
  -6   5 -12   21.09    1.65
  -7   5 -12   17.53    1.52
  -8   5 -12    7.34    1.25
  -9   5 -12    0.38    0.27
 -10   5 -12   -0.01    0.08
 -11   5 -12    0.05    0.12
   2   4 -12    2.71    0.88
   1   4 -12   23.18    1.94
   0   4 -12    3.60    0.84
  -1   4 -12    1.57    0.56
  -2   4 -12    8.98    1.29
  -3   4 -12   19.34    1.61
  -3   4 -12   23.35    2.39
  -4   4 -12    4.41    0.91
  -4   4 -12    2.42    1.33
  -5   4 -12    7.16    1.55
  -5   4 -12    5.83    1.01
  -6   4 -12    1.35    1.36
  -7   4 -12    0.36    2.51
  -7   4 -12    0.65    0.34
  -8   4 -12    6.92    1.85
  -8   4 -12    9.63    1.26
  -9   4 -12    1.11    0.59
 -10   4 -12    2.71    0.71
 -11   4 -12   12.71    1.24
 -12   4 -12    1.79    0.53
   3   3 -12    0.23    0.40
   2   3 -12    3.40    0.89
   1   3 -12   19.16    1.70
   0   3 -12    2.06    0.65
  -1   3 -12   11.37    1.44
  -2   3 -12   -0.35    1.17
  -2   3 -12   -0.07    0.08
  -3   3 -12    0.28    0.26
  -4   3 -12    9.82    1.50
  -4   3 -12    9.37    1.24
  -5   3 -12    4.28    0.84
  -5   3 -12    4.21    1.36
  -6   3 -12    0.54    0.32
  -6   3 -12   -0.19    1.15
  -7   3 -12   16.37    1.35
  -7   3 -12   20.90    2.28
   7  -3  12   18.19    3.05
  -8   3 -12    0.15    0.18
  -8   3 -12   -0.07    1.36
   8  -3  12   -0.92    1.92
  -9   3 -12    1.32    1.52
  -9   3 -12    3.05    0.67
   9  -3  12    4.48    2.13
 -10   3 -12    8.96    1.21
  10  -3  12    5.45    2.34
 -11   3 -12   16.67    1.38
 -12   3 -12    1.46    0.47
 -13   3 -12    0.43    0.30
   4   2 -12    0.00    0.14
   3   2 -12    8.58    1.47
   2   2 -12    0.39    0.27
   1   2 -12    0.25    0.21
   0   2 -12    5.64    1.06
  -1   2 -12    9.87    1.24
  -2   2 -12   -0.02    0.06
  -2   2 -12   -0.21    0.94
  -3   2 -12   10.36    1.37
  -3   2 -12    9.54    1.23
   3  -2  12    9.69    2.49
  -4   2 -12    2.68    0.62
  -4   2 -12    2.01    1.02
   4  -2  12   -1.21    1.53
  -5   2 -12    6.77    1.22
  -5   2 -12    6.99    1.01
   5  -2  12    6.01    1.97
  -6   2 -12    5.64    1.18
  -6   2 -12    5.57    0.85
   6  -2  12    1.76    1.78
  -7   2 -12   24.67    1.62
  -7   2 -12   24.94    2.21
   7  -2  12   20.57    2.89
  -8   2 -12   -0.85    1.17
   8  -2  12    2.38    1.84
  -9   2 -12    2.17    0.53
  -9   2 -12    2.42    1.50
   9  -2  12   -0.81    1.90
 -10   2 -12    1.29    0.39
 -10   2 -12    1.52    1.58
  10  -2  12    2.98    2.13
 -11   2 -12    3.52    0.74
  11  -2  12    1.75    2.25
 -12   2 -12    0.61    0.32
 -13   2 -12    5.80    0.93
   4   1 -12    1.72    0.82
   3   1 -12    7.19    1.24
   2   1 -12   -0.05    0.09
   1   1 -12    1.40    0.53
   0   1 -12    2.10    0.54
  -1   1 -12    1.62    0.46
  -2   1 -12    1.05    0.41
   2  -1  12    2.48    1.74
  -3   1 -12   19.88    1.56
  -3   1 -12   20.56    1.49
   3  -1  12   17.31    2.55
  -4   1 -12    2.84    0.89
  -4   1 -12    1.75    0.49
   4  -1  12    0.48    1.65
  -5   1 -12    5.80    1.14
  -5   1 -12    8.14    1.06
   5  -1  12   10.23    2.30
  -6   1 -12    0.30    0.90
  -6   1 -12    0.02    0.08
   6  -1  12   -1.56    1.54
  -7   1 -12    3.64    0.68
  -7   1 -12    2.61    1.11
  -8   1 -12    0.83    1.19
  -8   1 -12    1.17    0.36
  -9   1 -12    1.25    0.39
  -9   1 -12    0.80    1.35
   9  -1  12   -0.23    1.88
 -10   1 -12    4.35    0.71
 -10   1 -12    2.77    1.65
  10  -1  12    3.91    2.02
 -11   1 -12   28.27    2.43
  11  -1  12   32.09    3.58
 -12   1 -12   19.40    1.37
 -13   1 -12    0.71    0.31
   4   0 -12    2.42    0.73
   3   0 -12    1.36    0.54
   2   0 -12   -0.01    0.08
   1   0 -12    8.35    1.29
   0   0 -12    2.82    0.74
   0   0  12    3.06    2.74
  -1   0 -12   10.95    1.08
   1   0  12   11.51    2.37
  -2   0 -12    0.33    0.23
   2   0  12    0.66    1.65
  -3   0 -12    2.52    0.65
  -3   0 -12    1.38    0.39
   3   0  12    2.06    1.71
  -4   0 -12    3.21    0.78
  -4   0 -12    2.17    0.51
  -5   0 -12    0.64    0.28
  -5   0 -12    0.35    0.75
   5   0  12    1.16    1.20
   5   0  12   -1.06    1.56
  -6   0 -12    2.74    0.67
  -6   0 -12    2.45    0.93
  -6   0 -12    3.49    0.61
   6   0  12    3.27    1.37
   6   0  12    3.37    1.76
  -7   0 -12   24.96    1.82
  -7   0 -12   27.91    2.23
  -7   0 -12   30.88    1.66
   7   0  12   23.01    2.97
  -8   0 -12   48.61    2.33
  -8   0 -12   46.20    2.94
  -8   0 -12   48.29    2.85
   8   0  12   45.45    3.86
  -9   0 -12    4.61    0.69
  -9   0 -12    5.57    1.41
  -9   0 -12    3.61    0.74
   9   0  12    5.24    2.03
 -10   0 -12    0.44    0.26
 -10   0 -12    0.39    0.20
 -10   0 -12    1.87    1.46
  10   0  12   -0.76    1.79
 -11   0 -12   47.89    2.53
 -11   0 -12   46.60    3.57
 -11   0 -12   44.90    2.26
  11   0  12   44.55    3.83
 -12   0 -12   26.61    1.55
 -12   0 -12   25.76    1.68
 -13   0 -12    1.14    0.34
 -13   0 -12    1.19    0.39
   5  -1 -12    0.05    0.15
   4  -1 -12    3.41    0.85
   3  -1 -12    3.52    0.84
   2  -1 -12    2.30    0.69
   1  -1 -12    1.06    0.44
   0  -1 -12    3.01    0.67
   0   1  12    0.06    1.87
  -1  -1 -12    5.17    0.96
   1   1  12    2.89    1.91
  -2  -1 -12    0.68    0.35
   2   1  12    1.86    1.92
  -3  -1 -12   19.94    1.40
   3   1  12   22.26    3.24
  -4  -1 -12   77.86    3.40
  -4  -1 -12   74.13    2.99
  -4  -1 -12   72.71    3.69
   4   1  12   76.50    2.91
   4   1  12   75.13    5.01
  -5  -1 -12    5.22    0.75
  -5  -1 -12    5.15    0.88
  -5  -1 -12    6.05    0.99
   5   1  12    4.06    1.78
   5   1  12    4.04    0.75
  -6  -1 -12    2.20    0.85
  -6  -1 -12    2.30    0.57
  -6  -1 -12    1.72    0.41
   6   1  12   -1.73    1.47
   6   1  12    0.85    0.77
  -7  -1 -12   60.10    3.10
  -7  -1 -12   59.59    2.65
  -7  -1 -12   58.57    3.12
   7   1  12   62.15    4.38
   7   1  12   55.49    2.93
  -8  -1 -12   69.96    3.69
  -8  -1 -12   73.49    3.07
  -8  -1 -12   76.58    3.42
   8   1  12   65.69    4.59
  -9  -1 -12    5.10    1.35
  -9  -1 -12    5.08    0.67
  -9  -1 -12    5.27    0.80
   9   1  12    4.24    1.90
 -10  -1 -12    9.06    0.74
 -10  -1 -12    8.99    1.80
 -10  -1 -12    9.40    0.87
  10   1  12    6.70    2.02
 -11  -1 -12    3.08    1.80
 -11  -1 -12    0.27    0.19
 -11  -1 -12    0.28    0.17
  11   1  12   -1.21    1.91
 -12  -1 -12    1.40    0.32
   5  -2 -12    0.22    0.33
   4  -2 -12    1.32    0.55
   3  -2 -12    2.45    0.66
   2  -2 -12    1.74    0.60
   1  -2 -12    6.75    1.07
  -1   2  12    9.33    2.35
   0  -2 -12   55.69    2.91
   0   2  12   53.85    4.45
  -1  -2 -12    6.74    0.98
   1   2  12    5.71    2.02
  -2  -2 -12    0.79    0.34
   2   2  12    0.83    1.88
  -3  -2 -12   54.01    2.94
  -3  -2 -12   54.14    2.61
   3   2  12   53.67    4.02
  -4  -2 -12  130.18    5.51
  -4  -2 -12  130.34    5.15
   4   2  12  129.39    6.77
  -5  -2 -12    8.71    1.10
  -5  -2 -12    7.99    0.72
  -5  -2 -12    7.72    0.86
   5   2  12    8.34    2.04
  -6  -2 -12    3.45    0.66
  -6  -2 -12    3.74    0.88
  -6  -2 -12    4.00    0.60
   6   2  12    5.39    0.80
   6   2  12    0.73    1.49
  -7  -2 -12    0.13    0.13
  -7  -2 -12   -0.52    0.85
  -7  -2 -12    0.15    0.16
   7   2  12   -0.20    1.50
   7   2  12    1.13    0.85
  -8  -2 -12    7.79    1.39
  -8  -2 -12   11.71    0.94
  -8  -2 -12   11.02    0.77
   8   2  12   11.69    2.28
  -9  -2 -12    0.25    0.17
  -9  -2 -12    0.43    0.18
  -9  -2 -12    0.46    1.19
   9   2  12    0.07    1.67
 -10  -2 -12   17.47    2.21
  10   2  12   17.57    2.62
 -11  -2 -12    7.77    1.94
  11   2  12    5.87    2.12
   5  -3 -12    1.40    0.54
   4  -3 -12   26.21    2.11
   3  -3 -12    4.91    0.90
   2  -3 -12    2.77    0.68
   1  -3 -12   28.90    1.94
  -1   3  12   23.93    3.22
   0  -3 -12   94.94    4.46
   0   3  12  114.33    6.27
  -1  -3 -12   17.13    1.31
   1   3  12   20.94    4.68
   2   3  12    0.22    1.36
  -3  -3 -12    0.05    0.11
  -3  -3 -12    0.33    0.27
   3   3  12    0.96    1.43
  -4  -3 -12   14.18    1.01
  -4  -3 -12   13.42    1.16
   4   3  12   11.88    2.38
  -5  -3 -12    0.40    0.17
  -5  -3 -12    0.43    0.22
   5   3  12    1.95    1.40
   5   3  12    0.79    0.36
   5   3  12    0.57    0.37
  -6  -3 -12   12.33    1.33
  -6  -3 -12   12.85    1.02
  -6  -3 -12   13.26    0.88
   6   3  12   13.48    2.35
   6   3  12   15.56    1.19
  -7  -3 -12   17.35    0.98
  -7  -3 -12   17.97    1.63
  -7  -3 -12   16.98    1.12
   7   3  12   18.60    2.57
   7   3  12   18.10    1.61
  -8  -3 -12    0.55    1.06
   8   3  12    1.50    1.62
  -9  -3 -12   12.68    1.75
   9   3  12   10.92    2.30
 -10  -3 -12    6.03    1.64
  10   3  12    8.63    2.20
  11   3  12    0.65    1.99
   5  -4 -12    8.36    1.53
   4  -4 -12   53.21    3.25
   3  -4 -12   19.05    1.69
   2  -4 -12    1.36    0.51
   1  -4 -12    1.29    0.55
  -1   4  12   -0.63    1.68
   0  -4 -12   12.75    1.14
   0   4  12    7.73    2.18
   1   4  12    2.71    3.23
  -2  -4 -12    2.14    0.53
  -2  -4 -12    2.15    0.49
   2   4  12    3.88    1.68
  -3  -4 -12   14.77    1.20
  -3  -4 -12   13.67    1.02
   3   4  12    9.84    2.18
  -4  -4 -12    0.68    0.30
  -4  -4 -12    0.37    0.19
   4   4  12    2.09    1.54
  -5  -4 -12    7.74    0.63
  -5  -4 -12    7.05    0.71
   5   4  12    7.42    1.89
  -6  -4 -12   10.85    0.71
  -6  -4 -12   11.52    0.83
   6   4  12   11.85    2.05
   6   4  12    9.91    1.05
   6   4  12   12.09    1.42
  -7  -4 -12    1.65    0.26
  -7  -4 -12    1.56    0.29
   7   4  12    0.50    0.65
   7   4  12   -0.16    0.86
   7   4  12    1.71    1.76
   8   4  12    1.87    1.78
   8   4  12    1.98    0.81
  -9  -4 -12   39.62    2.77
   9   4  12   35.50    2.34
   9   4  12   33.65    3.61
 -10  -4 -12   16.46    2.18
  10   4  12   17.17    1.80
  10   4  12   18.86    2.85
  11   4  12    3.12    2.12
  11   4  12    0.40    2.07
   5  -5 -12    0.87    0.51
   4  -5 -12    6.77    1.20
   3  -5 -12    1.07    0.41
   2  -5 -12    0.70    0.43
   1  -5 -12    9.96    1.40
  -1   5  12    8.06    2.23
   0  -5 -12    0.43    0.27
   0   5  12   -0.23    1.83
  -1  -5 -12    0.71    0.29
   1   5  12   -0.79    1.78
  -2  -5 -12   11.75    0.95
  -2  -5 -12   11.08    1.05
   2   5  12   11.16    2.73
  -3  -5 -12   -0.01    0.11
  -3  -5 -12    0.24    0.16
   3   5  12   -2.22    1.43
  -4  -5 -12   10.16    0.86
  -4  -5 -12    9.35    0.72
   4   5  12    9.23    2.29
  -5  -5 -12   12.26    0.86
  -5  -5 -12   11.84    0.76
   5   5  12   10.49    2.32
  -6  -5 -12   33.12    1.45
   6   5  12   34.41    1.54
   6   5  12   28.61    1.61
   6   5  12   28.49    3.11
   7   5  12    1.63    1.91
   7   5  12    0.35    0.63
   8   5  12    1.01    0.79
   8   5  12    1.21    1.85
   9   5  12    5.42    1.11
   9   5  12    3.90    2.11
  10   5  12    0.34    1.07
  10   5  12   -0.19    2.12
  11   5  12   15.63    1.89
  11   5  12   14.10    2.93
   5  -6 -12    0.09    0.17
   3  -6 -12   -0.05    0.07
   2  -6 -12    4.98    0.93
   1  -6 -12    0.45    0.28
  -1   6  12    1.90    2.15
   0  -6 -12    5.12    0.92
   0   6  12    3.23    1.90
  -1  -6 -12   -0.05    0.25
  -1  -6 -12    0.82    0.32
   1   6  12    3.66    1.97
  -2  -6 -12   21.68    1.33
  -2  -6 -12   18.77    1.38
   2   6  12   16.25    3.22
  -3  -6 -12    0.11    0.11
  -3  -6 -12    0.23    0.19
  -4  -6 -12    0.93    0.29
  -4  -6 -12    1.84    0.36
   4   6  12    0.69    1.79
  -5  -6 -12    4.80    0.40
  -5  -6 -12    4.62    0.43
   5   6  12    7.66    2.30
   6   6  12    0.77    1.78
   6   6  12   -0.50    0.47
   7   6  12   40.68    2.00
   7   6  12   33.61    3.64
   8   6  12    3.67    2.17
   8   6  12    5.47    0.99
   9   6  12   -0.43    0.95
   9   6  12    1.17    2.10
  10   6  12    2.18    1.14
  11   6  12    6.32    1.62
   5  -7 -12    0.23    0.32
   4  -7 -12    1.63    0.59
   3  -7 -12    2.06    0.62
   2  -7 -12    8.45    1.27
   1  -7 -12   -0.01    0.09
   0  -7 -12    0.71    0.34
   0   7  12    0.60    1.80
  -1  -7 -12    1.11    0.40
  -1  -7 -12    0.72    0.29
   1   7  12   -0.72    1.97
  -2  -7 -12    4.04    1.03
  -2  -7 -12    2.28    0.49
   2   7  12    2.19    1.75
  -3  -7 -12   22.63    1.36
  -3  -7 -12   23.25    1.29
   3   7  12   21.61    3.02
  -4  -7 -12   14.67    0.90
  -4  -7 -12   14.79    0.87
   4   7  12   15.63    2.89
   5   7  12   -0.07    2.17
   6   7  12    0.64    2.38
   7   7  12    1.89    2.48
   8   7  12    1.25    0.85
   8   7  12    0.75    2.21
   9   7  12    3.49    2.36
   9   7  12    0.17    0.98
  10   7  12   16.85    3.14
  10   7  12    9.71    1.49
  11   7  12    0.65    2.79
  11   7  12    0.45    1.44
   5  -8 -12    0.50    0.43
   4  -8 -12    0.69    0.39
   3  -8 -12   -0.04    0.09
   2  -8 -12    3.07    0.76
   1  -8 -12    7.65    1.13
   0  -8 -12   19.92    1.47
   1   8  12    2.99    2.29
  -2  -8 -12    0.58    0.26
  -2  -8 -12    1.06    0.31
   2   8  12    0.34    2.18
  -3  -8 -12    3.65    0.55
  -3  -8 -12    4.14    0.57
   3   8  12    4.01    2.04
  -4  -8 -12    0.25    0.12
  -4  -8 -12    0.01    0.04
   4   8  12   -0.38    1.86
   5   8  12    0.91    1.90
   6   8  12    6.84    2.50
   6   8  12    7.90    0.98
   7   8  12   -1.95    0.71
   7   8  12   -0.82    2.17
   8   8  12   -0.45    0.89
   8   8  12   -0.96    2.31
   9   8  12   -0.21    1.04
   9   8  12   -0.66    2.46
   4  -9 -12    8.35    1.38
   3  -9 -12   -0.04    0.09
   1  -9 -12    0.41    0.27
   0  -9 -12    0.36    0.23
  -1  -9 -12    6.61    0.91
  -1  -9 -12    6.37    0.85
  -2  -9 -12    2.97    0.53
  -2  -9 -12    2.91    0.52
  -3  -9 -12    0.91    0.26
  -3  -9 -12    1.07    0.26
   8   9  12    8.81    1.48
   9   9  12    1.62    1.29
  10   9  12    4.02    1.86
   4 -10 -12    0.82    0.44
   3 -10 -12    4.50    0.94
   2 -10 -12    0.15    0.18
   1 -10 -12    1.59    0.51
   0 -10 -12   -0.05    0.06
  -1 -10 -12    5.76    0.82
  -2 -10 -12    0.31    0.18
  -2 -10 -12    0.44    0.20
  -3 -10 -12    4.17    0.75
  -3 -10 -12    4.69    0.45
   3 -11 -12    6.02    1.13
   2 -11 -12    0.89    0.44
   1 -11 -12    1.19    0.46
   0 -11 -12   14.17    1.22
  -2 -11 -12    0.42    0.19
  -2 -11 -12    0.57    0.25
  -3 -11 -12    0.23    0.12
   2 -12 -12    0.17    0.22
   1 -12 -12    0.40    0.29
   0 -12 -12    8.67    1.12
  -1 -12 -12    5.21    0.76
  -2 -12 -12   26.58    1.41
  -2 -12 -12   26.25    1.44
   1 -13 -12   26.88    1.88
   0 -13 -12    3.90    0.73
  -1 -13 -12    1.21    0.37
  -2 -13 -12   17.37    1.04
  -2 -13 -12   15.59    0.98
  -2 -14 -12    0.55    0.19
  -4   6 -13    0.73    0.44
  -5   6 -13    1.05    0.47
  -6   6 -13    1.96    0.65
  -7   6 -13    7.85    1.28
  -1   5 -13    0.03    0.15
  -2   5 -13    1.70    0.56
  -3   5 -13    1.97    0.67
  -4   5 -13    1.63    0.56
  -5   5 -13    5.87    1.01
  -6   5 -13    2.24    0.64
  -7   5 -13    6.23    1.15
  -8   5 -13    1.39    0.50
  -9   5 -13    1.69    0.59
   0   4 -13    2.83    0.77
  -1   4 -13    2.90    0.80
  -3   4 -13    2.37    1.01
  -4   4 -13    0.08    0.18
  -5   4 -13    2.30    0.88
  -6   4 -13    1.36    0.60
  -7   4 -13    0.25    0.22
  -7   4 -13    0.62    1.93
  -8   4 -13   13.61    1.29
  -9   4 -13    4.40    0.91
 -10   4 -13    7.14    1.07
 -11   4 -13    1.13    0.45
   1   3 -13    0.15    0.20
  -1   3 -13    0.32    0.27
  -2   3 -13    0.45    0.31
  -3   3 -13    0.30    0.24
  -4   3 -13    5.23    0.91
  -5   3 -13    6.03    1.02
  -6   3 -13   12.94    1.22
  -6   3 -13    9.73    2.07
  -7   3 -13    4.26    0.90
  -7   3 -13    1.71    1.74
  -8   3 -13    1.71    0.59
  -8   3 -13    3.29    1.80
  -9   3 -13    0.08    0.13
 -10   3 -13    7.23    1.13
 -11   3 -13    2.16    0.60
   2   2 -13    0.32    0.28
   0   2 -13    0.26    0.22
  -1   2 -13    4.61    0.93
  -2   2 -13   11.32    1.52
  -3   2 -13   10.34    1.33
  -4   2 -13    1.92    0.57
  -5   2 -13    0.49    0.30
  -6   2 -13   24.85    1.69
  -6   2 -13   18.62    2.11
  -7   2 -13    0.47    0.27
  -7   2 -13    0.66    1.50
  -8   2 -13    1.36    1.60
  -9   2 -13    7.02    1.97
  -9   2 -13    9.51    1.31
 -10   2 -13    0.12    0.15
 -11   2 -13    0.15    0.14
 -12   2 -13    2.35    0.58
   2   1 -13    4.01    1.13
   0   1 -13    0.57    0.33
  -1   1 -13    0.48    0.28
  -2   1 -13   22.99    1.72
  -3   1 -13    7.59    1.11
  -4   1 -13    0.59    0.31
  -5   1 -13    7.32    1.03
  -5   1 -13    5.05    1.40
  -6   1 -13    0.17    0.18
  -6   1 -13   -0.28    1.25
  -7   1 -13    0.11    0.15
  -7   1 -13    0.25    1.33
  -8   1 -13    2.63    0.60
  -8   1 -13    2.17    1.49
  -9   1 -13   22.65    2.59
  -9   1 -13   26.31    1.65
 -10   1 -13    1.44    0.43
 -10   1 -13    0.83    1.90
 -11   1 -13    9.91    0.94
 -12   1 -13   16.45    1.25
 -13   1 -13    0.56    0.26
   3   0 -13    0.21    0.21
   2   0 -13   15.35    2.32
   1   0 -13   17.23    1.58
   0   0 -13    0.38    0.31
  -1   0 -13    1.07    0.38
  -2   0 -13    0.03    0.11
  -3   0 -13    1.54    0.51
  -4   0 -13    0.24    0.24
  -5   0 -13   25.70    2.06
  -5   0 -13   29.58    1.79
   5   0  13   26.64    3.82
  -6   0 -13    7.38    0.97
  -6   0 -13    7.09    1.36
   6   0  13    5.76    2.19
  -7   0 -13    9.34    1.76
  -7   0 -13    7.27    0.92
   7   0  13    6.90    2.14
  -8   0 -13   26.61    1.58
  -8   0 -13   22.36    2.49
   8   0  13   23.59    3.37
  -9   0 -13    0.74    1.56
  -9   0 -13    0.59    0.25
  -9   0 -13    0.26    0.27
   9   0  13   -2.53    2.18
 -10   0 -13    0.87    2.43
 -10   0 -13    0.45    0.26
 -10   0 -13    0.41    0.29
  10   0  13   -2.56    2.28
 -11   0 -13   36.96    2.63
 -11   0 -13   43.88    2.16
  11   0  13   40.93    4.48
 -12   0 -13   78.94    3.30
 -12   0 -13   70.15    3.43
 -13   0 -13    2.46    0.55
 -13   0 -13    2.23    0.44
   3  -1 -13   -0.03    0.16
   2  -1 -13    0.01    0.11
   1  -1 -13    1.46    0.51
   0  -1 -13    0.39    0.31
  -1  -1 -13   15.43    1.34
  -2  -1 -13   15.93    1.31
  -3  -1 -13    2.60    0.62
  -4  -1 -13   17.01    1.27
   4   1  13   11.22    2.59
  -5  -1 -13    1.02    0.34
  -5  -1 -13    2.01    1.06
   5   1  13    1.81    1.73
  -6  -1 -13    1.16    0.51
  -6  -1 -13    1.30    0.40
  -6  -1 -13    0.54    1.00
   6   1  13   -0.17    1.97
  -7  -1 -13   29.89    1.92
  -7  -1 -13   27.36    2.27
  -7  -1 -13   25.76    1.54
   7   1  13   21.80    3.21
  -8  -1 -13   92.89    3.91
  -8  -1 -13   92.07    4.52
  -8  -1 -13  100.23    4.32
   8   1  13   96.41    5.95
  -9  -1 -13   10.52    0.99
  -9  -1 -13   10.69    0.84
  -9  -1 -13    8.39    1.77
   9   1  13    6.53    2.51
 -10  -1 -13    0.08    1.75
 -10  -1 -13    0.72    0.26
 -10  -1 -13    0.84    0.40
  10   1  13    1.96    2.37
 -11  -1 -13    6.92    2.20
 -11  -1 -13   10.74    0.89
  11   1  13    5.57    2.68
   4  -2 -13    0.21    0.29
   3  -2 -13    2.96    0.82
   2  -2 -13    6.89    1.11
   1  -2 -13    0.66    0.35
   0  -2 -13    7.96    1.22
  -1  -2 -13    0.80    0.36
  -2  -2 -13    1.44    0.46
  -3  -2 -13   11.11    1.00
   3   2  13    7.13    2.13
  -4  -2 -13   93.13    3.84
   4   2  13   72.83    5.55
  -5  -2 -13   16.63    1.17
  -5  -2 -13   15.36    1.34
   5   2  13   16.47    2.75
  -6  -2 -13    1.64    0.40
  -6  -2 -13    0.44    0.96
  -6  -2 -13    1.38    0.46
   6   2  13   -2.11    1.93
  -7  -2 -13   13.11    0.94
  -7  -2 -13   12.39    1.51
  -7  -2 -13   13.84    1.15
   7   2  13    9.52    2.56
  -8  -2 -13   26.76    1.44
  -8  -2 -13   30.76    2.53
  -8  -2 -13   26.45    1.64
   8   2  13   25.70    3.40
  -9  -2 -13    5.18    1.54
  -9  -2 -13    3.08    0.56
  -9  -2 -13    2.21    0.40
   9   2  13    2.96    2.15
 -10  -2 -13    2.42    1.75
  10   2  13    3.22    2.33
 -11  -2 -13    3.85    2.04
  11   2  13   -0.50    2.49
   4  -3 -13    3.05    0.86
   3  -3 -13    0.93    0.50
   2  -3 -13    2.37    0.69
   1  -3 -13    1.46    0.56
   0  -3 -13   34.17    2.17
  -1  -3 -13   22.63    1.62
   2   3  13    2.77    2.24
  -3  -3 -13    5.65    0.83
   3   3  13    5.22    2.09
  -4  -3 -13   23.70    1.47
  -4  -3 -13   24.27    1.71
   4   3  13   20.57    3.03
   5   3  13    1.45    1.72
  -6  -3 -13   16.41    1.06
  -6  -3 -13   15.73    1.22
   6   3  13   13.24    2.73
   7   3  13    1.33    0.75
   7   3  13    2.04    2.18
  -8  -3 -13    6.54    0.53
  -8  -3 -13    5.95    1.44
  -8  -3 -13    7.02    0.64
   8   3  13    6.39    2.17
  -9  -3 -13    3.33    1.51
   9   3  13    1.37    2.18
 -10  -3 -13    5.18    1.80
  10   3  13    2.88    2.45
 -11  -3 -13    2.81    2.07
  11   3  13    5.23    2.64
   4  -4 -13    6.90    1.23
   3  -4 -13    7.79    1.20
   2  -4 -13    0.05    0.15
   1  -4 -13    2.84    0.66
   0  -4 -13   14.67    1.30
  -1  -4 -13    0.32    0.23
  -2  -4 -13   23.85    1.57
   2   4  13   23.68    3.43
  -3  -4 -13    2.09    0.49
  -3  -4 -13    2.25    0.56
   3   4  13    1.44    1.74
  -4  -4 -13    2.61    0.51
   4   4  13    4.15    1.91
  -5  -4 -13    0.23    0.19
  -5  -4 -13    0.09    0.12
   5   4  13   -0.31    1.94
  -6  -4 -13   10.87    0.88
  -6  -4 -13   10.71    0.76
   6   4  13   11.00    2.52
  -7  -4 -13    2.54    0.43
  -7  -4 -13    2.59    0.37
   7   4  13   -1.48    2.00
   7   4  13    1.72    0.71
   8   4  13   17.68    2.88
   8   4  13   20.59    1.73
   9   4  13    3.81    1.17
   9   4  13    6.73    2.55
  10   4  13    2.83    1.24
  10   4  13    4.77    2.52
  11   4  13    2.56    2.57
  11   4  13   -0.56    1.40
   4  -5 -13    3.33    0.89
   3  -5 -13    1.52    0.57
   2  -5 -13   11.12    1.54
   1  -5 -13    2.76    0.68
   0  -5 -13    1.86    0.53
  -1  -5 -13    0.31    0.21
  -2  -5 -13   13.78    1.10
   2   5  13   12.02    3.29
  -3  -5 -13    0.65    0.32
  -3  -5 -13    0.64    0.29
   3   5  13    0.96    1.83
  -4  -5 -13   14.01    0.97
  -4  -5 -13   11.95    1.03
   4   5  13   10.87    2.45
  -5  -5 -13   13.75    0.91
  -5  -5 -13   15.41    1.06
   5   5  13   16.16    2.86
  -6  -5 -13    4.71    0.48
  -6  -5 -13    5.73    0.46
   6   5  13    6.90    2.26
   7   5  13    3.02    2.26
   8   5  13    6.30    1.09
   8   5  13   11.91    2.71
   9   5  13    0.40    2.34
   9   5  13    0.98    1.05
  10   5  13    4.22    1.34
  10   5  13    3.81    2.58
  11   5  13    6.14    3.07
  11   5  13    4.98    1.62
   4  -6 -13    0.26    0.24
   3  -6 -13    0.69    0.43
   2  -6 -13    8.18    2.00
   1  -6 -13    1.82    0.56
   0  -6 -13    1.35    0.46
  -1  -6 -13   11.93    1.06
  -2  -6 -13    0.99    0.34
  -3  -6 -13    0.73    0.32
  -3  -6 -13    0.45    0.22
   3   6  13   -4.31    2.36
  -4  -6 -13    6.10    0.78
  -4  -6 -13    4.46    0.61
   4   6  13    1.29    2.36
  -5  -6 -13    4.04    0.55
  -5  -6 -13    4.13    0.41
   5   6  13    4.22    2.27
   6   6  13    5.20    2.44
   7   6  13    0.56    2.39
   8   6  13    1.19    2.45
   9   6  13    2.87    2.55
  10   6  13    2.68    3.06
  10   6  13    1.97    2.18
   4  -7 -13    0.03    0.12
   3  -7 -13    3.72    0.87
   2  -7 -13    0.01    0.10
   1  -7 -13    0.29    0.35
   0  -7 -13   -0.01    0.07
  -1  -7 -13    5.55    0.86
  -2  -7 -13    4.61    0.71
  -2  -7 -13    7.52    0.97
  -3  -7 -13    0.47    0.20
  -3  -7 -13    0.59    0.26
  -4  -7 -13    0.95    0.25
  -4  -7 -13    0.44    0.18
   6   7  13    2.25    3.66
   3  -8 -13    1.87    0.65
   2  -8 -13    0.93    0.45
   1  -8 -13    3.09    0.71
   0  -8 -13    0.07    0.15
  -1  -8 -13    2.51    0.58
  -2  -8 -13    0.86    0.29
  -2  -8 -13    1.07    0.36
  -3  -8 -13    1.93    0.42
  -3  -8 -13    2.62    0.48
  -4  -8 -13    5.59    0.55
  -4  -8 -13    5.25    0.46
   3  -9 -13    0.41    0.28
   2  -9 -13    0.08    0.19
   1  -9 -13    4.30    0.89
   0  -9 -13    3.36    0.69
  -1  -9 -13   41.87    2.66
  -2  -9 -13   17.28    1.17
  -2  -9 -13   15.84    1.15
  -3  -9 -13    0.15    0.12
  -3  -9 -13    0.03    0.10
   2 -10 -13   15.52    1.49
   1 -10 -13    0.86    0.37
   0 -10 -13    6.56    0.98
  -1 -10 -13   42.54    2.27
  -2 -10 -13   27.45    1.56
  -3 -10 -13    1.52    0.31
  -3 -10 -13    1.81    0.36
   1 -11 -13    0.57    0.33
   0 -11 -13    0.21    0.20
  -1 -11 -13    1.08    0.37
  -2 -11 -13    1.46    0.35
  -2 -11 -13    2.18    0.45
  -3 -11 -13    0.39    0.15
   0 -12 -13    0.40    0.24
  -1 -12 -13   -0.01    0.09
  -2 -12 -13    0.06    0.10
  -2 -12 -13    0.04    0.11
  -2 -13 -13    0.66    0.22
  -2 -13 -13    0.29    0.16
  -3   4 -14    0.04    0.12
  -4   4 -14    3.66    0.84
  -5   4 -14    1.31    0.52
  -6   4 -14    3.41    0.81
  -7   4 -14    1.92    0.59
  -8   4 -14    1.91    0.63
  -1   3 -14    0.65    0.39
  -2   3 -14    4.29    0.94
  -3   3 -14    0.74    0.41
  -4   3 -14    8.68    1.29
  -5   3 -14    0.38    0.27
  -6   3 -14   13.86    1.32
  -7   3 -14    8.28    1.22
  -8   3 -14    0.00    0.10
  -9   3 -14    4.96    0.91
 -10   3 -14   61.28    3.20
   0   2 -14    6.61    1.20
  -1   2 -14    2.56    0.70
  -2   2 -14    7.18    1.23
  -3   2 -14    8.75    1.36
  -4   2 -14    0.39    0.28
  -5   2 -14    4.60    0.92
  -6   2 -14   62.12    3.25
  -7   2 -14   57.11    3.01
  -8   2 -14    0.22    0.22
  -9   2 -14    1.56    0.48
 -10   2 -14   21.57    1.58
 -11   2 -14    4.98    0.79
   1   1 -14    4.91    0.99
   0   1 -14    0.91    0.48
  -1   1 -14    3.00    0.80
  -2   1 -14   32.20    2.43
  -4   1 -14    2.60    0.86
  -5   1 -14    3.09    0.90
  -7   1 -14   13.14    1.16
  -8   1 -14    0.16    0.19
  -9   1 -14    3.06    0.66
 -10   1 -14    0.06    0.09
 -11   1 -14    0.35    0.22
   1   0 -14   36.74    2.51
   0   0 -14    1.30    0.50
  -1   0 -14    3.09    1.05
  -2   0 -14   17.99    1.63
  -3   0 -14   20.30    1.58
  -4   0 -14    2.20    0.60
  -5   0 -14    0.17    0.17
  -6   0 -14    0.19    0.15
  -7   0 -14    0.73    0.33
  -8   0 -14    4.04    0.86
  -9   0 -14    0.19    0.18
 -10   0 -14    3.91    0.65
 -11   0 -14    2.24    0.51
 -12   0 -14   10.80    1.03
 -12   0 -14   10.30    0.86
   2  -1 -14    7.05    1.26
   1  -1 -14   12.83    1.66
   0  -1 -14    0.32    0.28
  -1  -1 -14    1.03    0.48
  -2  -1 -14    0.14    0.15
  -3  -1 -14    1.17    0.42
  -4  -1 -14    3.89    0.73
  -5  -1 -14    0.74    0.35
  -6  -1 -14    1.46    0.41
  -7  -1 -14   12.32    1.01
  -8  -1 -14    5.67    0.85
  -9  -1 -14    8.74    1.12
  -9  -1 -14    8.81    0.90
 -10  -1 -14    2.38    0.55
 -10  -1 -14    2.32    0.47
 -11  -1 -14    1.47    0.35
 -11  -1 -14    0.91    0.33
   2  -2 -14   -0.07    0.11
   1  -2 -14    0.59    0.36
   0  -2 -14    2.16    0.78
  -1  -2 -14    2.56    0.65
  -2  -2 -14    0.58    0.28
  -3  -2 -14   10.47    1.03
  -4  -2 -14    0.53    0.27
  -5  -2 -14    5.49    0.81
  -6  -2 -14    1.50    0.42
  -7  -2 -14    6.99    0.99
  -7  -2 -14    6.78    0.86
  -8  -2 -14    3.95    0.73
  -8  -2 -14    3.39    0.55
  -9  -2 -14    0.46    0.20
  -9  -2 -14    0.32    0.22
   2  -3 -14   -0.05    0.09
   1  -3 -14    4.66    1.01
   0  -3 -14    0.03    0.17
  -1  -3 -14    6.63    1.05
  -2  -3 -14    0.97    0.42
  -3  -3 -14    7.29    1.04
  -4  -3 -14    0.56    0.25
  -5  -3 -14    0.52    0.24
  -6  -3 -14    8.96    1.11
  -6  -3 -14   10.07    0.84
  -7  -3 -14    0.12    0.12
  -7  -3 -14    0.04    0.12
  -8  -3 -14    0.10    0.14
  -8  -3 -14    0.08    0.08
   2  -4 -14    0.48    0.33
   1  -4 -14    3.21    0.84
   0  -4 -14    0.23    0.23
  -1  -4 -14    3.03    0.71
  -2  -4 -14    3.85    0.73
  -3  -4 -14    0.17    0.17
  -4  -4 -14    0.81    0.31
  -5  -4 -14    1.26    0.35
  -5  -4 -14    0.37    0.25
  -6  -4 -14    9.24    0.74
  -6  -4 -14    8.90    0.85
  -7  -4 -14    4.92    0.47
   2  -5 -14    0.07    0.16
   1  -5 -14    0.46    0.35
   0  -5 -14    0.46    0.29
  -1  -5 -14   -0.03    0.06
  -2  -5 -14    3.45    0.65
  -3  -5 -14    1.85    0.47
  -4  -5 -14   12.61    0.98
  -4  -5 -14   12.62    1.12
  -5  -5 -14   -0.01    0.07
  -5  -5 -14    0.14    0.18
  -6  -5 -14    0.58    0.27
  -6  -5 -14    0.46    0.17
   2  -6 -14    0.31    0.33
   1  -6 -14    0.96    0.44
   0  -6 -14   16.38    1.41
  -2  -6 -14    0.11    0.16
  -3  -6 -14    8.77    0.83
  -4  -6 -14   18.54    1.29
  -4  -6 -14   17.73    1.15
  -5  -6 -14    1.17    0.29
  -5  -6 -14    1.37    0.35
   2  -7 -14    0.53    0.38
   1  -7 -14    5.63    1.09
   0  -7 -14   25.78    1.82
  -1  -7 -14    0.78    0.31
  -3  -7 -14    3.14    0.57
  -3  -7 -14    4.23    0.69
  -4  -7 -14    1.74    0.37
  -4  -7 -14    2.76    0.52
  -5  -7 -14    0.08    0.09
  -5  -7 -14    0.12    0.09
   2  -8 -14    0.48    0.36
   1  -8 -14    1.90    0.59
   0  -8 -14    2.26    0.58
  -1  -8 -14    0.03    0.11
  -2  -8 -14    3.79    0.69
  -3  -8 -14   15.87    1.13
  -4  -8 -14    2.04    0.37
  -4  -8 -14    2.59    0.42
   1  -9 -14    9.29    1.31
   0  -9 -14    1.28    0.45
  -1  -9 -14    8.53    1.10
  -2  -9 -14   11.09    0.93
  -3  -9 -14   -0.03    0.07
  -3  -9 -14    0.04    0.09
   0 -10 -14    0.31    0.24
  -1 -10 -14   13.09    1.10
  -2 -10 -14   22.50    1.38
  -3 -10 -14    0.18    0.13
  -3 -10 -14    0.49    0.20
  -1 -11 -14    4.38    0.72
  -2 -11 -14    2.46    0.47
  -3   2 -15    0.95    0.47
  -4   2 -15    1.47    0.55
  -5   2 -15   -0.03    0.08
  -6   2 -15    2.36    0.64
  -7   2 -15   16.45    1.42
  -8   2 -15    1.50    0.53
  -2   1 -15    0.24    0.27
  -3   1 -15    9.35    1.32
  -4   1 -15    2.59    0.65
  -5   1 -15    0.15    0.21
  -6   1 -15    3.40    0.77
  -7   1 -15    9.51    1.25
  -8   1 -15    3.87    0.80
  -9   1 -15    3.93    0.75
 -10   1 -15    0.64    0.30
  -1   0 -15    0.21    0.24
  -2   0 -15    0.12    0.19
  -3   0 -15    8.21    1.20
  -4   0 -15    1.71    0.57
  -5   0 -15    5.79    0.94
  -6   0 -15    0.14    0.15
  -7   0 -15    0.13    0.17
  -8   0 -15    9.93    0.97
  -9   0 -15    4.61    0.73
 -10   0 -15    0.03    0.07
   0  -1 -15   -0.03    0.10
  -1  -1 -15    5.84    1.10
  -2  -1 -15    0.03    0.13
  -3  -1 -15    0.68    0.36
  -4  -1 -15    8.28    1.12
  -5  -1 -15    9.48    1.21
  -6  -1 -15    0.36    0.23
  -7  -1 -15    3.06    0.63
  -8  -1 -15    0.20    0.16
  -9  -1 -15    2.59    0.53
 -10  -1 -15    1.46    0.38
 -10  -1 -15    1.37    0.67
 -11  -1 -15    9.28    0.73
 -11  -1 -15    7.14    0.92
   0  -2 -15    1.98    0.62
  -1  -2 -15    6.77    1.13
  -2  -2 -15    0.22    0.20
  -3  -2 -15    0.04    0.11
  -4  -2 -15    0.40    0.26
  -5  -2 -15    2.16    0.63
  -6  -2 -15    0.02    0.12
  -7  -2 -15    7.70    0.76
  -8  -2 -15    0.14    0.25
  -8  -2 -15    0.03    0.09
  -9  -2 -15    6.67    0.92
  -9  -2 -15    6.24    0.60
   0  -3 -15    0.35    0.24
  -1  -3 -15    0.49    0.33
  -2  -3 -15    0.52    0.30
  -3  -3 -15    1.26    0.46
  -4  -3 -15    0.26    0.21
  -5  -3 -15   10.15    0.93
  -6  -3 -15    0.49    0.25
  -7  -3 -15    0.41    0.21
  -8  -3 -15    0.04    0.08
  -8  -3 -15   -0.02    0.09
   0  -4 -15    0.72    0.40
  -1  -4 -15    2.09    0.56
  -2  -4 -15    0.90    0.34
  -3  -4 -15    0.81    0.33
  -4  -4 -15    0.13    0.16
  -5  -4 -15   13.09    1.02
  -6  -4 -15    1.80    0.40
  -6  -4 -15    2.00    0.52
  -7  -4 -15   12.58    0.96
  -7  -4 -15   13.60    0.90
   0  -5 -15    0.26    0.22
  -1  -5 -15   10.01    1.27
  -2  -5 -15    4.27    0.83
  -3  -5 -15    7.74    1.00
  -4  -5 -15   24.41    1.53
  -5  -5 -15    1.47    0.38
  -5  -5 -15    1.55    0.49
  -6  -5 -15    1.65    0.41
  -6  -5 -15    1.56    0.38
   0  -6 -15   13.15    1.29
  -1  -6 -15    1.23    0.42
  -2  -6 -15    2.92    0.65
  -3  -6 -15   18.09    1.28
  -4  -6 -15   70.07    3.10
  -5  -6 -15   10.64    0.80
  -5  -6 -15   10.74    0.88
   0  -7 -15   42.04    2.53
  -1  -7 -15   12.86    1.18
  -2  -7 -15    0.30    0.22
  -3  -7 -15    4.80    0.74
  -4  -7 -15   16.39    1.07
  -4  -7 -15   14.52    1.10
  -5  -7 -15    0.50    0.21
  -5  -7 -15    0.17    0.12
   0  -8 -15   11.32    1.16
  -1  -8 -15    0.88    0.37
  -2  -8 -15    1.97    0.45
  -3  -8 -15   -0.04    0.06
  -4  -8 -15    2.20    0.42
  -4  -8 -15    1.80    0.39
  -1  -9 -15    0.07    0.11
  -2  -9 -15    4.62    0.71
  -3  -9 -15    1.00    0.30
  -3  -9 -15    1.10    0.45
  -2 -10 -15    3.35    0.59
  -3 -10 -15    0.22    0.16
  -3 -10 -15    0.28    0.17
  -6   0 -16    2.24    0.62
  -4  -1 -16    0.37    0.26
  -5  -1 -16   -0.03    0.07
  -6  -1 -16   10.30    1.03
  -7  -1 -16    6.24    0.96
  -8  -1 -16    1.15    0.37
  -3  -2 -16    6.16    1.02
  -4  -2 -16    0.08    0.12
  -5  -2 -16    1.70    0.50
  -6  -2 -16   35.41    2.05
  -7  -2 -16   17.95    1.28
  -8  -2 -16    0.84    0.30
  -9  -2 -16    0.41    0.18
  -2  -3 -16   22.97    1.75
  -3  -3 -16   24.54    1.76
  -4  -3 -16    0.08    0.13
  -5  -3 -16    0.07    0.13
  -6  -3 -16    4.56    0.69
  -7  -3 -16    4.69    0.70
  -8  -3 -16    0.62    0.23
  -8  -3 -16    0.76    0.31
  -2  -4 -16    5.06    0.95
  -3  -4 -16    7.32    1.03
  -4  -4 -16    0.44    0.25
  -5  -4 -16    5.32    0.79
  -6  -4 -16    2.94    0.54
  -7  -4 -16    0.05    0.08
  -7  -4 -16   -0.02    0.13
  -2  -5 -16    1.12    0.40
  -3  -5 -16   -0.01    0.08
  -4  -5 -16    3.44    0.65
  -5  -5 -16    0.30    0.19
  -6  -5 -16    0.19    0.15
  -6  -5 -16   -0.01    0.11
  -2  -6 -16    0.26    0.20
  -3  -6 -16    0.22    0.20
  -4  -6 -16    9.65    0.87
  -5  -6 -16    6.26    0.62
  -3  -7 -16    0.08    0.12
  -4  -7 -16    4.56    0.66
  -5  -7 -16    0.04    0.10
  -5  -7 -16    0.02    0.07
  -4  -8 -16    0.95    0.28
  -4  -8 -16    0.88    0.28
   0   0   0    0.00    0.00
;
_shelx_hkl_checksum              49205
loop_
_space_group_symop_operation_xyz
'x, y, z'
'-x, -y, -z'
loop_
_atom_site_label
_atom_site_type_symbol
_atom_site_fract_x
_atom_site_fract_y
_atom_site_fract_z
_atom_site_U_iso_or_equiv
_atom_site_adp_type
_atom_site_occupancy
_atom_site_site_symmetry_order
_atom_site_calc_flag
_atom_site_refinement_flags_posn
_atom_site_refinement_flags_adp
_atom_site_refinement_flags_occupancy
_atom_site_disorder_assembly
_atom_site_disorder_group
I1 I 0.38253(3) 0.44352(3) 0.38697(3) 0.01554(5) Uani 1 1 d . . . . .
I2 I 0.10111(3) 0.43360(3) 0.80460(3) 0.01636(5) Uani 1 1 d . . . . .
I3 I 0.21661(3) 0.79647(3) 0.22680(3) 0.01893(6) Uani 1 1 d . . . . .
I4 I 0.06304(3) 0.21316(3) 0.36052(3) 0.01803(6) Uani 1 1 d . . . . .
Mo2 Mo 0.15164(3) 0.60923(3) 0.51484(3) 0.01159(6) Uani 1 1 d . . . . .
Mo1 Mo 0.07881(3) 0.33167(3) 0.57805(3) 0.01169(6) Uani 1 1 d . . . . .
Mo3 Mo 0.13289(3) 0.50485(3) 0.30273(3) 0.01233(6) Uani 1 1 d . . . . .
O1 O 0.1705(3) 0.1475(3) 0.6632(3) 0.0208(6) Uani 1 1 d . . . . .
O2 O 0.3160(3) 0.7305(3) 0.5380(3) 0.0211(6) Uani 1 1 d . . . . .
O1W O 0.3643(4) 0.0156(3) 0.4745(4) 0.0279(7) Uani 1 1 d . . . . .
O3 O 0.2884(4) 0.5143(4) 0.0716(4) 0.0325(8) Uani 1 1 d . . . . .
O3W O 0.4986(4) 0.9005(4) -0.1719(4) 0.0323(7) Uani 1 1 d . . . . .
O4W O 0.2518(4) 0.7430(4) -0.1612(4) 0.0320(7) Uani 1 1 d . . . . .
O2W O -0.0029(5) -0.0863(4) 0.9105(4) 0.0415(9) Uani 1 1 d . . . . .
O5WA O 0.4097(5) 0.1776(5) 0.7422(5) 0.0276(9) Uani 0.724(5) 1 d . . P A 1
O6WA O 0.6823(7) 0.7677(7) -0.0110(6) 0.0404(19) Uani 0.694(10) 1 d . . P B 1
O6WB O 0.5712(14) 0.6876(13) 0.0109(12) 0.033(4) Uani 0.306(10) 1 d . . P B 2
O5WB O 0.3041(13) 0.1360(13) 0.8864(13) 0.0276(9) Uani 0.276(5) 1 d . . P A 2
loop_
_atom_site_aniso_label
_atom_site_aniso_U_11
_atom_site_aniso_U_22
_atom_site_aniso_U_33
_atom_site_aniso_U_23
_atom_site_aniso_U_13
_atom_site_aniso_U_12
I1 0.01262(10) 0.01635(11) 0.01920(11) -0.00511(9) -0.00799(9) 0.00317(8)
I2 0.01852(11) 0.01870(11) 0.01557(11) -0.00458(9) -0.01092(9) 0.00261(9)
I3 0.01667(11) 0.01563(11) 0.02108(12) 0.00266(9) -0.00904(10) -0.00247(9)
I4 0.01949(12) 0.01519(11) 0.02647(13) -0.01214(10) -0.01248(10) 0.00550(9)
Mo2 0.01263(13) 0.00975(13) 0.01477(13) -0.00367(11) -0.00782(11) 0.00119(10)
Mo1 0.01289(13) 0.00933(13) 0.01481(13) -0.00290(11) -0.00794(11) 0.00169(10)
Mo3 0.01239(13) 0.01350(13) 0.01249(13) -0.00395(11) -0.00625(11) 0.00180(11)
O1 0.0220(14) 0.0153(13) 0.0289(15) -0.0039(11) -0.0159(13) 0.0054(11)
O2 0.0214(14) 0.0160(13) 0.0314(16) -0.0069(12) -0.0160(13) 0.0018(11)
O1W 0.0271(16) 0.0269(16) 0.0304(17) -0.0075(14) -0.0126(14) 0.0024(13)
O3 0.0283(17) 0.042(2) 0.0238(16) -0.0040(15) -0.0097(14) 0.0020(15)
O3W 0.0381(19) 0.0281(17) 0.0334(18) -0.0078(15) -0.0174(16) -0.0017(14)
O4W 0.0361(19) 0.0285(17) 0.0295(17) -0.0104(14) -0.0088(15) -0.0065(14)
O2W 0.059(3) 0.0333(19) 0.0239(17) -0.0048(15) -0.0105(17) 0.0161(18)
O5WA 0.026(2) 0.034(2) 0.030(2) -0.0153(19) -0.0135(17) 0.0068(17)
O6WA 0.050(4) 0.053(4) 0.025(3) -0.018(3) -0.019(3) 0.025(3)
O6WB 0.035(7) 0.038(7) 0.020(5) -0.010(5) -0.003(5) 0.020(6)
O5WB 0.026(2) 0.034(2) 0.030(2) -0.0153(19) -0.0135(17) 0.0068(17)
loop_
_atom_type_symbol
_atom_type_description
_atom_type_scat_dispersion_real
_atom_type_scat_dispersion_imag
_atom_type_scat_source
O O 0.0106 0.0060 'International Tables Vol C Tables 4.2.6.8 and 6.1.1.4'
H H 0.0000 0.0000 'International Tables Vol C Tables 4.2.6.8 and 6.1.1.4'
Mo Mo -1.6832 0.6857 'International Tables Vol C Tables 4.2.6.8 and 6.1.1.4'
I I -0.4742 1.8119 'International Tables Vol C Tables 4.2.6.8 and 6.1.1.4'
loop_
_geom_angle_atom_site_label_1
_geom_angle_atom_site_label_2
_geom_angle_atom_site_label_3
_geom_angle
_geom_angle_site_symmetry_1
_geom_angle_site_symmetry_3
_geom_angle_publ_flag
Mo3 I1 Mo2 56.818(11) . . ?
Mo3 I1 Mo1 56.944(12) . . ?
Mo2 I1 Mo1 56.610(12) . . ?
Mo3 I2 Mo1 56.837(11) 2_566 . ?
Mo3 I2 Mo2 56.820(11) 2_566 . ?
Mo1 I2 Mo2 56.819(12) . . ?
Mo1 I3 Mo3 56.745(11) 2_566 . ?
Mo1 I3 Mo2 56.914(11) 2_566 . ?
Mo3 I3 Mo2 56.806(11) . . ?
Mo1 I4 Mo2 57.097(11) . 2_566 ?
Mo1 I4 Mo3 57.061(11) . . ?
Mo2 I4 Mo3 56.784(11) 2_566 . ?
O2 Mo2 Mo3 133.26(8) . 2_566 ?
O2 Mo2 Mo1 134.82(8) . . ?
Mo3 Mo2 Mo1 59.954(12) 2_566 . ?
O2 Mo2 Mo3 136.78(8) . . ?
Mo3 Mo2 Mo3 89.965(15) 2_566 . ?
Mo1 Mo2 Mo3 60.161(12) . . ?
O2 Mo2 Mo1 135.00(8) . 2_566 ?
Mo3 Mo2 Mo1 60.152(13) 2_566 2_566 ?
Mo1 Mo2 Mo1 90.128(13) . 2_566 ?
Mo3 Mo2 Mo1 59.841(12) . 2_566 ?
O2 Mo2 I4 86.97(8) . 2_566 ?
Mo3 Mo2 I4 61.745(12) 2_566 2_566 ?
Mo1 Mo2 I4 121.691(15) . 2_566 ?
Mo3 Mo2 I4 121.210(14) . 2_566 ?
Mo1 Mo2 I4 61.386(12) 2_566 2_566 ?
O2 Mo2 I2 86.81(8) . . ?
Mo3 Mo2 I2 61.419(11) 2_566 . ?
Mo1 Mo2 I2 61.556(11) . . ?
Mo3 Mo2 I2 121.709(16) . . ?
Mo1 Mo2 I2 121.555(15) 2_566 . ?
I4 Mo2 I2 90.095(13) 2_566 . ?
O2 Mo2 I3 89.34(8) . . ?
Mo3 Mo2 I3 121.613(14) 2_566 . ?
Mo1 Mo2 I3 121.693(14) . . ?
Mo3 Mo2 I3 61.548(13) . . ?
Mo1 Mo2 I3 61.474(12) 2_566 . ?
I4 Mo2 I3 89.589(14) 2_566 . ?
I2 Mo2 I3 176.148(14) . . ?
O2 Mo2 I1 89.42(8) . . ?
Mo3 Mo2 I1 121.670(15) 2_566 . ?
Mo1 Mo2 I1 61.719(12) . . ?
Mo3 Mo2 I1 61.292(11) . . ?
Mo1 Mo2 I1 121.111(15) 2_566 . ?
I4 Mo2 I1 176.291(14) 2_566 . ?
I2 Mo2 I1 90.573(13) . . ?
I3 Mo2 I1 89.500(13) . . ?
O1 Mo1 Mo3 135.38(8) . 2_566 ?
O1 Mo1 Mo2 133.89(8) . . ?
Mo3 Mo1 Mo2 59.960(13) 2_566 . ?
O1 Mo1 Mo2 136.23(8) . 2_566 ?
Mo3 Mo1 Mo2 60.003(13) 2_566 2_566 ?
Mo2 Mo1 Mo2 89.873(13) . 2_566 ?
O1 Mo1 Mo3 134.76(8) . . ?
Mo3 Mo1 Mo3 89.839(14) 2_566 . ?
Mo2 Mo1 Mo3 59.936(12) . . ?
Mo2 Mo1 Mo3 59.769(12) 2_566 . ?
O1 Mo1 I4 88.63(8) . . ?
Mo3 Mo1 I4 121.503(14) 2_566 . ?
Mo2 Mo1 I4 121.592(15) . . ?
Mo2 Mo1 I4 61.517(11) 2_566 . ?
Mo3 Mo1 I4 61.670(13) . . ?
O1 Mo1 I2 87.60(8) . . ?
Mo3 Mo1 I2 61.445(11) 2_566 . ?
Mo2 Mo1 I2 61.625(11) . . ?
Mo2 Mo1 I2 121.436(14) 2_566 . ?
Mo3 Mo1 I2 121.553(15) . . ?
I4 Mo1 I2 176.217(14) . . ?
O1 Mo1 I3 89.17(8) . 2_566 ?
Mo3 Mo1 I3 61.648(13) 2_566 2_566 ?
Mo2 Mo1 I3 121.597(14) . 2_566 ?
Mo2 Mo1 I3 61.612(13) 2_566 2_566 ?
Mo3 Mo1 I3 121.369(14) . 2_566 ?
I4 Mo1 I3 89.734(13) . 2_566 ?
I2 Mo1 I3 89.908(13) . 2_566 ?
O1 Mo1 I1 87.26(8) . . ?
Mo3 Mo1 I1 121.627(15) 2_566 . ?
Mo2 Mo1 I1 61.671(11) . . ?
Mo2 Mo1 I1 120.955(15) 2_566 . ?
Mo3 Mo1 I1 61.206(12) . . ?
I4 Mo1 I1 89.538(13) . . ?
I2 Mo1 I1 90.585(13) . . ?
I3 Mo1 I1 176.373(14) 2_566 . ?
O3 Mo3 Mo1 134.06(9) . 2_566 ?
O3 Mo3 Mo2 135.49(9) . 2_566 ?
Mo1 Mo3 Mo2 60.086(13) 2_566 2_566 ?
O3 Mo3 Mo2 134.46(9) . . ?
Mo1 Mo3 Mo2 60.157(12) 2_566 . ?
Mo2 Mo3 Mo2 90.034(14) 2_566 . ?
O3 Mo3 Mo1 135.78(9) . . ?
Mo1 Mo3 Mo1 90.162(15) 2_566 . ?
Mo2 Mo3 Mo1 60.080(12) 2_566 . ?
Mo2 Mo3 Mo1 59.904(13) . . ?
O3 Mo3 I2 87.62(9) . 2_566 ?
Mo1 Mo3 I2 61.718(12) 2_566 2_566 ?
Mo2 Mo3 I2 61.761(13) 2_566 2_566 ?
Mo2 Mo3 I2 121.863(14) . 2_566 ?
Mo1 Mo3 I2 121.825(15) . 2_566 ?
O3 Mo3 I1 87.84(9) . . ?
Mo1 Mo3 I1 122.025(15) 2_566 . ?
Mo2 Mo3 I1 121.909(16) 2_566 . ?
Mo2 Mo3 I1 61.890(11) . . ?
Mo1 Mo3 I1 61.850(11) . . ?
I2 Mo3 I1 175.453(14) 2_566 . ?
O3 Mo3 I3 87.07(10) . . ?
Mo1 Mo3 I3 61.608(12) 2_566 . ?
Mo2 Mo3 I3 121.684(14) 2_566 . ?
Mo2 Mo3 I3 61.646(12) . . ?
Mo1 Mo3 I3 121.535(14) . . ?
I2 Mo3 I3 90.034(12) 2_566 . ?
I1 Mo3 I3 89.875(12) . . ?
O3 Mo3 I4 89.28(9) . . ?
Mo1 Mo3 I4 121.551(15) 2_566 . ?
Mo2 Mo3 I4 61.472(11) 2_566 . ?
Mo2 Mo3 I4 121.160(15) . . ?
Mo1 Mo3 I4 61.269(12) . . ?
I2 Mo3 I4 90.131(12) 2_566 . ?
I1 Mo3 I4 89.670(12) . . ?
I3 Mo3 I4 176.332(14) . . ?
loop_
_geom_bond_atom_site_label_1
_geom_bond_atom_site_label_2
_geom_bond_distance
_geom_bond_site_symmetry_2
_geom_bond_publ_flag
I1 Mo3 2.7886(4) . ?
I1 Mo2 2.8044(4) . ?
I1 Mo1 2.8057(5) . ?
I2 Mo3 2.7875(4) 2_566 ?
I2 Mo1 2.7947(4) . ?
I2 Mo2 2.7965(5) . ?
I3 Mo1 2.7947(5) 2_566 ?
I3 Mo3 2.7958(5) . ?
I3 Mo2 2.7984(5) . ?
I4 Mo1 2.7866(4) . ?
I4 Mo2 2.7901(4) 2_566 ?
I4 Mo3 2.7972(5) . ?
Mo2 O2 2.094(3) . ?
Mo2 Mo3 2.6567(5) 2_566 ?
Mo2 Mo1 2.6601(5) . ?
Mo2 Mo3 2.6610(5) . ?
Mo2 Mo1 2.6651(5) 2_566 ?
Mo2 I4 2.7900(4) 2_566 ?
Mo1 O1 2.089(3) . ?
Mo1 Mo3 2.6566(5) 2_566 ?
Mo1 Mo2 2.6651(5) 2_566 ?
Mo1 Mo3 2.6670(5) . ?
Mo1 I3 2.7947(5) 2_566 ?
Mo3 O3 2.192(3) . ?
Mo3 Mo1 2.6566(5) 2_566 ?
Mo3 Mo2 2.6567(5) 2_566 ?
Mo3 I2 2.7875(4) 2_566 ?
