#------------------------------------------------------------------------------
#$Date: 2021-09-06 14:11:10 +0300 (Mon, 06 Sep 2021) $
#$Revision: 268761 $
#$URL: file:///home/coder/svn-repositories/cod/cif/7/70/76/7707644.cif $
#------------------------------------------------------------------------------
#
# This file is available in the Crystallography Open Database (COD),
# http://www.crystallography.net/
#
# All data on this site have been placed in the public domain by the
# contributors.
#
data_7707644
loop_
_publ_author_name
'Ogunbunmi, Michael O.'
'Baranets, Sviatoslav'
'Childs, Amanda B.'
'Bobev, Svilen'
_publ_section_title
;
 The Zintl phases <i>A</i>In<sub>2</sub>As<sub>2</sub> (A = Ca, Sr, Ba):
 new topological insulators and thermoelectric material candidates.
;
_journal_issue                   26
_journal_name_full
'Dalton transactions (Cambridge, England : 2003)'
_journal_page_first              9173
_journal_page_last               9184
_journal_paper_doi               10.1039/d1dt01521d
_journal_volume                  50
_journal_year                    2021
_chemical_formula_moiety         'As2 Ca1 In2'
_chemical_formula_sum            'As2 Ca In2'
_chemical_formula_weight         419.56
_space_group_crystal_system      hexagonal
_space_group_IT_number           194
_space_group_name_Hall           '-P 6c 2c'
_space_group_name_H-M_alt        'P 63/m m c'
_atom_sites_solution_primary     dual
_audit_creation_date             2021-03-03
_audit_creation_method
;
Olex2 1.3
(compiled 2020.11.12 svn.r5f609507 for OlexSys, GUI svn.r6272)
;
_audit_update_record
;
2021-05-07 deposited with the CCDC.	2021-06-07 downloaded from the CCDC.
;
_cell_angle_alpha                90
_cell_angle_beta                 90
_cell_angle_gamma                120
_cell_formula_units_Z            2
_cell_length_a                   4.1482(6)
_cell_length_b                   4.1482
_cell_length_c                   17.726(4)
_cell_measurement_reflns_used    829
_cell_measurement_temperature    296.15
_cell_measurement_theta_max      27.85
_cell_measurement_theta_min      2.30
_cell_volume                     264.16(7)
_computing_molecular_graphics    'Olex2 1.3 (Dolomanov et al., 2009)'
_computing_publication_material  'Olex2 1.3 (Dolomanov et al., 2009)'
_computing_structure_refinement  'SHELXL 2018/3 (Sheldrick, 2015)'
_computing_structure_solution    'SHELXT 2018/2 (Sheldrick, 2018)'
_diffrn_ambient_temperature      296.15
_diffrn_measured_fraction_theta_full 1.000
_diffrn_measured_fraction_theta_max 1.000
_diffrn_measurement_device_type  'Bruker APEX-II CCD'
_diffrn_measurement_method       '\f and \w scans'
_diffrn_radiation_type           MoK\a
_diffrn_radiation_wavelength     0.71073
_diffrn_reflns_av_R_equivalents  0.0461
_diffrn_reflns_av_unetI/netI     0.0153
_diffrn_reflns_Laue_measured_fraction_full 1.000
_diffrn_reflns_Laue_measured_fraction_max 1.000
_diffrn_reflns_limit_h_max       5
_diffrn_reflns_limit_h_min       -5
_diffrn_reflns_limit_k_max       5
_diffrn_reflns_limit_k_min       -5
_diffrn_reflns_limit_l_max       24
_diffrn_reflns_limit_l_min       -24
_diffrn_reflns_number            3188
_diffrn_reflns_point_group_measured_fraction_full 1.000
_diffrn_reflns_point_group_measured_fraction_max 1.000
_diffrn_reflns_theta_full        25.242
_diffrn_reflns_theta_max         29.587
_diffrn_reflns_theta_min         2.298
_diffrn_source_current           30.0
_diffrn_source_power             1.38
_diffrn_source_voltage           46.0
_diffrn_standards_number         0
_exptl_absorpt_coefficient_mu    21.949
_exptl_absorpt_correction_T_max  0.2644
_exptl_absorpt_correction_T_min  0.1865
_exptl_absorpt_correction_type   multi-scan
_exptl_absorpt_process_details
;
SADABS-2016/2 (Bruker,2016/2) was used for absorption correction.
wR2(int) was 0.0892 before and 0.0523 after correction.
The Ratio of minimum to maximum transmission is 0.7054.
The \l/2 correction factor is Not present.
;
_exptl_crystal_colour            black
_exptl_crystal_colour_primary    black
_exptl_crystal_density_diffrn    5.275
_exptl_crystal_description       plate
_exptl_crystal_F_000             368
_exptl_crystal_size_max          0.08
_exptl_crystal_size_mid          0.065
_exptl_crystal_size_min          0.047
_refine_diff_density_max         0.568
_refine_diff_density_min         -0.451
_refine_diff_density_rms         0.121
_refine_ls_extinction_coef       0.0021(5)
_refine_ls_extinction_expression Fc^*^=kFc[1+0.001xFc^2^\l^3^/sin(2\q)]^-1/4^
_refine_ls_extinction_method     'SHELXL-2018/3 (Sheldrick 2018)'
_refine_ls_goodness_of_fit_ref   1.007
_refine_ls_hydrogen_treatment    undef
_refine_ls_matrix_type           full
_refine_ls_number_parameters     10
_refine_ls_number_reflns         178
_refine_ls_number_restraints     0
_refine_ls_restrained_S_all      1.007
_refine_ls_R_factor_all          0.0211
_refine_ls_R_factor_gt           0.0132
_refine_ls_shift/su_max          0.001
_refine_ls_shift/su_mean         0.000
_refine_ls_structure_factor_coef Fsqd
_refine_ls_weighting_details
'w=1/[\s^2^(Fo^2^)+(0.0163P)^2^] where P=(Fo^2^+2Fc^2^)/3'
_refine_ls_weighting_scheme      calc
_refine_ls_wR_factor_gt          0.0280
_refine_ls_wR_factor_ref         0.0299
_reflns_Friedel_coverage         0.000
_reflns_number_gt                147
_reflns_number_total             178
_reflns_threshold_expression     'I > 2\s(I)'
_cod_data_source_file            d1dt01521d2.cif
_cod_data_source_block           mo_svib1616_0m
_cod_depositor_comments
'Adding full bibliography for 7707644--7707646.cif.'
_cod_original_cell_volume        264.16(9)
_cod_database_code               7707644
_shelx_shelxl_version_number     2018/3
_shelx_space_group_comment
;
The symmetry employed for this shelxl refinement is uniquely defined
by the following loop, which should always be used as a source of
symmetry information in preference to the above space-group names.
They are only intended as comments.
;
_shelx_estimated_absorpt_t_max   0.425
_shelx_estimated_absorpt_t_min   0.273
_olex2_refinement_description
;
;
_shelx_res_file
;
TITL mo_svib1616_0m_a.res in P6(3)/mmc
    mo_svib1616_0m.res
    created by SHELXL-2018/3 at 16:37:19 on 03-Mar-2021
REM Old TITL mo_svib1616_0m in P6(3)/mmc
REM SHELXT solution in P6(3)/mmc: R1 0.019, Rweak 0.001, Alpha 0.045
REM <I/s> 0.371 for 27 systematic absences, Orientation as input
REM Formula found by SHELXT: Ca As2 In2
CELL 0.71073 4.1482 4.1482 17.7264 90 90 120
ZERR 2 0.0006 0.0006 0.0037 0 0 0
LATT 1
SYMM -Y,+X-Y,+Z
SYMM +Y-X,-X,+Z
SYMM -X,-Y,0.5+Z
SYMM +Y,-X+Y,0.5+Z
SYMM -Y+X,+X,0.5+Z
SYMM +Y,+X,-Z
SYMM -Y+X,-Y,-Z
SYMM -X,-X+Y,-Z
SYMM -Y,-X,0.5-Z
SYMM +Y-X,+Y,0.5-Z
SYMM +X,+X-Y,0.5-Z
SFAC As Ca In
UNIT 4 2 4

L.S. 10
PLAN  10
SIZE 0.047 0.065 0.08
TEMP 23
CONF
list 4
MORE -1
fmap 2
acta
REM <olex2.extras>
REM <HklSrc "%.\\mo_svib1616_0m.hkl">
REM </olex2.extras>

WGHT    0.016300
EXTI    0.002107
FVAR       0.39255
IN  3    0.333333    0.666667    0.171983    10.16667    0.01020    0.01020 =
         0.01048    0.00000    0.00000    0.00510
AS  1    0.333333    0.666667    0.603619    10.16667    0.00853    0.00853 =
         0.01059    0.00000    0.00000    0.00427
CA  2    0.000000    0.000000    0.000000    10.08333    0.00976    0.00976 =
         0.01291    0.00000    0.00000    0.00488
HKLF 4




REM  mo_svib1616_0m_a.res in P6(3)/mmc
REM wR2 = 0.0299, GooF = S = 1.007, Restrained GooF = 1.007 for all data
REM R1 = 0.0132 for 147 Fo > 4sig(Fo) and 0.0211 for all 178 data
REM 10 parameters refined using 0 restraints

END

WGHT      0.0162      0.0000

REM Highest difference peak  0.568,  deepest hole -0.451,  1-sigma level  0.121
Q1    1   0.3333  0.6667  0.5567  10.16667  0.05    0.57
Q2    1   0.3333  0.6667  0.2500  10.08333  0.05    0.52
Q3    1   0.4395  0.8790  0.6026  10.50000  0.05    0.41
Q4    1   0.0000  0.0000  0.1147  10.16667  0.05    0.39
Q5    1   0.0000  1.0000  0.2500  10.08333  0.05    0.38
Q6    1   0.0073  0.5036  0.1693  10.50000  0.05    0.38
Q7    1   0.2515  0.5031  0.2500  10.25000  0.05    0.38
Q8    1  -0.0449 -0.0898 -0.0564  10.50000  0.05    0.35
Q9    1   0.2143  0.4285  0.6429  10.50000  0.05    0.34
Q10   1  -0.0006  0.4997  0.6186  10.50000  0.05    0.33
;
_shelx_res_checksum              13379
_shelx_hkl_file
;
  -1   1   0 1739.48   43.25
  -1   1   0 1741.04   41.66
   0  -1   0 1764.51   35.83
   0  -1   0 1781.01   44.90
   0   1   0 1757.41   40.14
   1  -1   0 1793.64   41.52
  -1   0   0 1742.74   41.59
  -1   0   0 1761.28   42.38
  -1   1   0 1762.72   36.95
  -1  -1   0 9903.11  173.96
  -1   2   0 9818.14  193.68
  -2   1   0 9840.71  187.71
  -1  -1   0 9810.32  195.86
   2  -1   0 9903.18  186.24
  -2   1   0 9878.57  185.78
  -2   1   0 9803.86  190.14
  -1  -1   0 9999.00  186.11
   1  -2   0 9499.84  193.34
   1   1   0 9926.80  173.69
   2  -2   0 1091.31   38.00
  -2   2   0 1076.68   30.29
   0   2   0 1096.65   35.90
  -2   0   0 1071.76   37.89
  -2   2   0 1139.09   40.90
  -2   2   0 1105.56   38.23
   0  -2   0 1076.26   28.65
   0  -2   0 1127.58   43.60
  -2   0   0 1102.31   40.24
  -1  -2   0  832.71   42.18
   2  -3   0  810.45   40.44
   2  -3   0  845.51   38.50
  -1  -2   0  805.12   31.06
  -1  -2   0  814.38   27.92
  -3   2   0  795.71   35.55
   1   2   0  783.41   27.15
   3  -2   0  782.87   36.27
   1  -3   0  738.43   39.07
  -2   3   0  696.62   37.59
  -3   1   0  777.08   35.93
  -3   1   0  819.35   30.28
  -3   2   0  801.10   32.90
  -3   2   0  743.15   34.83
   1  -3   0  762.94   37.97
  -2  -1   0  783.50   34.42
  -2  -1   0  778.11   39.89
  -1   3   0  802.75   38.30
   3  -1   0  807.11   30.06
  -3   1   0  754.56   35.91
   0   3   0 4942.91  115.91
   0  -3   0 4836.42  116.95
   0  -3   0 5067.01  131.46
   3  -3   0 4937.21  103.55
  -3   3   0 4870.33  103.96
   3  -3   0 4988.80  127.45
  -3   0   0 4883.36  122.26
   3  -3   0 4874.77  118.40
  -3   0   0 4994.20  127.12
  -3   3   0 4901.32  126.27
   4  -2   0 3867.17  100.84
  -4   2   0 3950.70  104.78
  -2   4   0 3882.96  114.05
   2  -4   0 3819.23  114.60
   2  -4   0 3560.05  110.84
  -4   2   0 3772.30   99.41
  -2  -2   0 3902.87  101.17
  -2  -2   0 3865.86  116.32
  -4   2   0 3840.39  103.84
   3  -4   0  419.20   44.13
   1  -4   0  461.28   34.93
   4  -3   0  471.96   34.81
  -3  -1   0  411.39   42.27
  -4   3   0  478.14   33.24
   4  -3   0  513.42   32.53
   3  -4   0  364.17   36.83
  -4   1   0  466.58   40.22
  -4   1   0  539.95   37.71
   1  -4   0  550.25   40.62
  -1  -3   0  473.41   47.52
  -3  -1   0  427.12   37.20
  -4   3   0  463.56   28.56
  -1   4   0  461.37   34.23
  -3   4   0  515.15   38.88
  -4   3   0  534.64   36.19
  -4   0   0  360.23   38.07
   4  -4   0  347.21   36.41
   0  -4   0  362.24   42.11
  -4   0   0  377.69   43.66
   4  -4   0  332.27   39.71
  -4   4   0  351.58   39.79
  -5   3   0  362.23   36.57
  -3  -2   0  228.79   34.04
  -2   5   0  352.83   42.90
   2  -5   0  348.21   43.46
  -3  -2   0  235.08   30.14
  -3   5   0  312.48   43.55
   3  -5   0  315.59   40.35
   3  -5   0  339.65   44.13
   2  -5   0  349.66   42.78
  -2  -3   0  226.47   36.23
  -5   2   0  321.55   37.85
   4  -5   0 1851.84   88.14
  -5   4   0 1961.24   82.65
  -4  -1   0 1917.00   79.94
  -4  -1   0 1907.40   87.33
   1  -5   0 2008.43   82.15
   1  -5   0 1916.69   89.56
   4  -5   0 1984.04   80.96
  -1   5   0 1922.49   80.81
   5  -4   0 1979.47   83.08
  -5   1   0 1965.41   80.92
  -4   5   0 1952.33   88.92
  -1  -4   0 1931.88   90.86
  -1   1  -1  683.03   23.28
  -1   1  -1  708.92   23.71
  -1   0  -1  709.80   24.31
   1  -1   1  703.02   23.34
   0  -1   1  718.76   25.13
  -1   0   1  688.47   22.39
   0  -1  -1  711.63   22.08
   0  -1  -1  681.99   25.06
   0   1  -1  690.38   21.50
  -1   0  -1  680.24   22.31
   0   1   1  692.50   21.55
   1  -1  -1  683.45   23.87
  -1   0   1  673.26   21.78
  -1   1   1  661.27   23.32
  -1   1   1  709.22   21.10
   1  -1  -1  700.14   20.90
  -1   1   1  681.12   17.99
   0  -1  -1  703.45   17.15
  -1   1  -1  711.70   18.98
   0  -1   1  706.60   18.57
  -1  -1  -1   -7.68    3.00
  -1  -1   1   -0.02    4.13
  -2   1   1   -4.29    4.32
  -1  -1  -1   -5.43    5.77
   1   1  -1    2.97    3.03
  -2   1  -1    3.17    4.61
  -1  -1   1   -4.36    4.85
  -1   2  -1    3.77    5.16
   1  -2   1    1.08    2.68
   1  -2   1   -8.25    4.97
  -2   1  -1   -0.40    5.17
  -2   1  -1    3.55    4.21
   2  -1  -1   -2.50    4.48
  -1   2   1    2.46    6.00
  -2   1   1    4.84    4.60
  -2   1   1   -4.77    4.07
   1  -2  -1   -4.03    4.61
  -1  -1  -1   -2.74    4.53
   1  -2  -1    1.53    6.08
  -2   2  -1  432.62   24.91
   2  -2   1  395.22   16.77
   0  -2  -1  407.38   26.22
  -2   2  -1  405.07   23.12
   0  -2  -1  391.04   20.97
  -2   2   1  407.52   16.64
  -2   2   1  428.34   24.33
  -2   0  -1  406.83   22.58
   2  -2   1  436.19   23.73
   2  -2  -1  460.94   21.94
   0  -2   1  421.35   16.45
  -2   0   1  409.54   23.40
  -2   2  -1  388.21   16.94
   2  -2  -1  427.59   25.00
   0   2  -1  404.59   20.78
   2   0  -1  399.31   14.28
  -2   2   1  445.79   22.23
  -2   0  -1  363.06   23.36
  -2   0   1  435.86   22.94
   0  -2  -1  404.18   15.12
   0   2   1  415.61   21.16
   0  -2   1  389.86   24.96
  -2   3   1  329.78   31.93
  -1  -2   1  247.24   17.76
  -1   3  -1  334.32   24.85
  -3   1   1  303.82   26.97
   1  -3  -1  357.02   33.19
  -3   2  -1  285.53   23.38
  -1  -2   1  298.64   16.34
  -1  -2   1  282.23   30.06
  -3   2  -1  272.87   25.36
   3  -2  -1  311.82   20.84
  -2  -1  -1  199.58   24.81
  -2  -1  -1  274.98   24.58
   1   2   1  249.85   15.76
   3  -1   1  258.82   17.31
   2  -3   1  314.49   29.72
  -3   1   1  257.92   24.19
   1  -3  -1  264.40   26.47
  -3   2  -1  261.21   24.43
   3  -2  -1  307.48   23.04
  -1  -2  -1  277.51   16.21
  -3   1  -1  263.57   17.05
  -1  -2  -1  311.05   31.08
   3  -1  -1  280.61   18.13
  -2   3  -1  298.21   30.17
   2  -3  -1  321.06   29.13
   3  -2   1  277.37   25.88
   1  -3   1  263.47   28.59
  -3   2   1  276.58   20.48
  -3   1  -1  302.94   28.03
  -3   2   1  293.15   22.31
  -2  -1   1  293.87   29.30
  -1   3   1  280.62   28.14
   2  -3  -1  334.12   31.94
  -3   2   1  308.78   20.35
  -3   1  -1  259.52   25.07
   1   2  -1  275.84   16.19
  -1  -2  -1  285.06   18.43
  -2  -1   1  263.73   23.78
   0   3  -1    9.20    7.97
   3  -3  -1   -3.67    9.12
   3  -3   1   11.63    9.09
  -3   3  -1   12.35   10.03
   0  -3  -1    6.48    7.99
   0  -3  -1    3.41    8.40
   0   3   1    9.18    8.26
   3  -3   1   -1.39    5.53
  -3   0   1    7.43    8.52
  -3   0   1  -15.03    9.31
  -3   3  -1    1.48    6.41
   0  -3   1    7.03   10.57
  -3   0  -1    5.35    8.30
  -3   3   1    3.16    8.94
  -3   3  -1   -3.20    7.56
  -3   0  -1    2.97   10.23
   3  -3  -1    3.38    8.09
   0  -3   1   10.96    8.04
  -3   3   1   -0.57    5.41
   3  -3   1   -0.59    9.70
  -2  -2  -1    5.50    8.92
  -2   4  -1   -4.69   10.13
  -2  -2  -1   22.66   15.63
   2  -4  -1   11.78   12.30
   2  -4   1    7.80   11.23
  -4   2   1   -6.46    8.03
   4  -2  -1    0.36    9.60
  -4   2  -1   20.12   10.93
  -4   2  -1   -9.39    8.18
   2  -4  -1   -8.00    8.46
  -4   2  -1   17.44   11.79
   4  -2   1    4.25    9.55
  -2   4   1   -5.91    8.40
   2  -4   1   -7.53   10.50
  -2  -2   1   10.08    9.43
  -2  -2   1    9.59   12.60
  -3  -1  -1  147.40   27.47
  -3  -1  -1  169.90   24.94
  -4   3  -1  129.95   22.47
   4  -3  -1  135.35   23.71
   3  -4   1  135.34   26.36
  -4   3  -1  174.32   25.57
  -1   4  -1  197.41   28.06
  -4   3  -1  151.02   20.00
  -4   1   1  146.86   23.09
  -3   4   1  170.84   27.67
  -4   1   1  161.12   27.81
   3  -4   1  114.03   21.91
   1  -4  -1  170.52   25.38
   1  -4  -1  128.82   24.53
  -1  -3   1  171.27   27.67
   1  -4   1   95.83   21.44
  -4   3   1  201.31   28.57
   3  -4  -1  128.67   21.94
  -3  -1   1  175.05   24.73
   3  -4  -1  126.95   25.33
   4  -3   1  165.38   25.37
   1  -4   1  141.44   23.58
  -3  -1   1  117.95   23.94
  -1   4   1  152.27   23.97
  -4   1  -1  170.22   27.70
  -3   4  -1  174.94   29.10
  -4   3   1  173.72   20.83
   4  -3   1  160.98   23.11
  -1  -3  -1   84.69   22.57
  -4   1  -1  105.51   20.35
  -4   0  -1  101.21   26.38
   4  -4   1  137.57   27.47
  -4   0   1  126.44   23.20
   0  -4  -1   83.74   23.16
  -4   4   1   74.64   19.87
  -4   4  -1  145.13   27.18
  -4   0  -1  114.77   23.01
  -4   0   1  102.84   25.14
   4  -4   1  117.84   24.09
   4  -4  -1   52.23   18.53
   0  -4   1  110.18   25.49
  -3   5   1   69.78   21.80
  -2  -3   1   79.10   22.84
   2  -5  -1   94.55   25.10
   2  -5  -1   80.46   22.19
  -3  -2  -1  124.48   23.23
  -3  -2  -1  134.12   29.23
  -5   2   1  139.04   25.62
   3  -5   1   98.41   26.39
  -5   3  -1   86.60   19.42
  -2   5  -1  128.37   28.38
   3  -5   1   94.28   24.57
  -2   5   1   68.07   21.05
  -3  -2   1  113.85   27.30
   2  -5   1   89.87   25.63
  -2  -3  -1  121.23   27.92
   2  -5   1   88.35   22.17
   3  -5  -1  103.68   25.85
  -3   5  -1  106.93   27.39
  -3  -2   1   98.75   22.53
  -5   2  -1  101.50   22.48
  -5   3   1  115.65   22.39
   3  -5  -1  127.71   26.50
  -4   5   1   12.05   15.86
  -5   4  -1    1.29   13.75
  -1   5  -1   -9.53   14.66
   5  -4  -1   17.55   15.16
   1  -5  -1   15.91   17.82
  -5   1   1  -17.59   11.26
  -1  -4   1   -7.68   17.99
  -4  -1  -1    4.07   13.47
   4  -5   1   -2.99   13.86
   4  -5   1    5.90   14.78
  -4  -1  -1   44.02   23.36
   1  -5  -1    5.85   12.61
   1  -5   1    6.20   14.81
   5  -4   1  -13.68   11.14
  -1   5   1   12.42   16.20
   1  -5   1   -7.28   11.68
   4  -5  -1    3.28   12.89
  -4   5  -1   -8.82   12.83
  -4  -1   1  -15.66   10.21
  -4  -1   1   -0.23   22.41
  -5   1  -1   15.03   12.92
  -1  -4  -1    1.69   15.36
  -5   4   1   13.95   15.85
   0   0   2  163.54    7.04
   0   0  -2  174.22    9.43
  -1   1   2  590.94   22.71
   0  -1  -2  589.80   15.98
  -1   0  -2  597.85   16.16
  -1   0  -2  563.29   20.26
   1   0  -2  628.40   19.69
   1  -1  -2  609.09   22.63
  -1   0  -2  624.64   23.64
  -1   1   2  616.75   17.44
   0  -1  -2  593.60   22.96
  -1   1  -2  589.94   18.56
   0   1   2  615.08   20.93
   0  -1   2  607.33   18.95
   0   1  -2  619.95   21.18
  -1   0   2  627.23   19.44
   1  -1  -2  623.51   18.22
  -1   1  -2  607.45   22.30
   0  -1   2  598.19   22.98
   1  -1   2  593.05   18.42
  -1   0   2  612.28   21.56
   0  -1  -2  610.47   20.95
   0   1   2  592.79   15.84
  -1   1  -2  624.23   23.09
   1  -2   2   80.73   13.04
   1  -2  -2  107.97   14.69
  -1  -1   2  110.49   12.93
  -2   1  -2  103.86   12.46
  -2   1   2  108.71   13.02
  -2   1  -2  105.22   12.01
  -1  -1   2  101.46   14.22
   1   1  -2  126.13    8.70
   2  -1  -2  107.01   12.31
   1  -2   2  113.50    8.89
  -2   1   2  100.46   11.63
   1  -2  -2  104.43   14.54
  -1  -1  -2  104.46   12.39
  -1  -1  -2   96.01   14.47
  -1   2  -2  102.26   13.82
  -1   2   2   80.25   12.55
  -1  -1  -2  104.31    8.15
  -2   1  -2  139.49   16.48
  -2   1   2  108.15   11.52
  -2   0  -2  324.11   22.29
   0  -2  -2  316.13   19.14
   0  -2  -2  330.53   13.36
   2  -2   2  314.68   21.51
   2  -2   2  363.86   16.67
  -2   2   2  343.68   15.15
  -2   2  -2  386.88   17.21
   2  -2  -2  324.47   18.31
  -2   0  -2  337.71   21.22
   0   2   2  309.38   18.92
  -2   0   2  339.50   20.81
   2   0  -2  349.03   15.05
   0  -2   2  347.88   23.58
   0   2  -2  313.53   18.76
  -2   2   2  343.76   22.68
  -2   2  -2  323.28   21.24
  -2   2  -2  342.88   22.76
   0  -2  -2  305.80   22.55
   0  -2   2  339.46   15.77
  -2   0   2  314.11   19.77
   2  -2  -2  352.96   23.36
   1  -3  -2  185.79   22.80
   2  -3   2  211.58   25.08
  -3   2  -2  253.58   22.05
  -3   1   2  189.25   22.16
  -2  -1  -2  246.76   23.34
  -2   3   2  233.35   25.17
   1  -3  -2  209.52   23.48
   3  -2  -2  239.39   17.04
  -1  -2   2  226.04   20.60
  -3   1   2  264.45   19.85
  -1   3  -2  193.96   23.04
   3  -2  -2  233.20   24.79
  -3   2  -2  254.06   25.09
  -2  -1  -2  203.76   25.04
  -1  -2   2  185.55   23.83
  -3   2  -2  233.26   24.72
   3  -1   2  234.38   16.25
  -2  -1   2  284.21   28.49
  -2   3  -2  230.45   26.70
  -3   2   2  237.15   20.93
   2  -3  -2  196.70   21.45
  -3   1  -2  282.57   28.53
  -1  -2  -2  244.56   17.23
  -3   1  -2  256.24   25.39
  -1  -2  -2  245.30   15.91
  -1   3   2  179.45   21.95
   1  -3   2  286.93   30.56
   1   2  -2  232.90   15.55
  -3   2   2  246.05   22.07
  -3   2   2  266.80   25.89
  -3   1  -2  208.05   15.43
  -2  -1   2  282.82   25.72
   2  -3  -2  200.21   24.21
  -1  -2  -2  235.76   28.66
   3  -1  -2  242.44   21.12
  -3   0   2   75.08   17.20
  -3   3  -2   38.97    9.33
  -3   0  -2   67.73   17.98
  -3   0   2   64.89   14.32
   0  -3  -2   65.87   17.53
   3  -3   2   77.41   17.42
  -3   3  -2   84.62   18.56
   0   3   2   61.38   13.94
   0  -3  -2   55.46   12.83
  -3   3  -2   53.64   15.76
   0  -3   2   79.46   18.91
  -3   0  -2   33.05   12.22
  -3   3   2   66.93   16.51
   3  -3   2   49.28    9.61
   0   3  -2   64.69   13.86
   3  -3  -2   54.40   13.67
   3  -3  -2   60.30   16.83
   2  -4  -2   53.46   17.64
  -4   2   2   61.51   15.90
   4  -2   2   29.37   11.61
  -4   2  -2   27.23   14.10
  -2  -2  -2   71.54   15.37
   4  -2  -2   40.87   14.21
  -2  -2   2   40.64   15.64
   2  -4  -2   26.31   13.62
  -2  -2   2   47.49   14.19
   2  -4   2   41.51   16.75
  -2   4  -2   32.51   13.79
  -4   2  -2   60.48   14.39
  -2   4   2   41.97   16.47
  -4   2  -2   40.75   13.80
  -2  -2  -2   46.07   17.18
   3  -4   2  142.04   26.22
  -4   3  -2  135.56   19.18
   1  -4  -2   91.93   19.43
  -4   3  -2  127.20   23.40
   1  -4  -2  153.29   28.30
   4  -3  -2  111.77   21.14
  -4   3  -2  116.05   21.43
  -3  -1  -2  129.77   25.62
  -1   4  -2  169.04   25.65
  -4   1   2  134.01   22.90
  -1  -3   2  153.21   26.90
  -3  -1  -2  171.31   25.90
  -3   4   2  136.73   25.31
   3  -4   2  173.09   28.09
  -4   1  -2  136.55   25.34
   3  -4  -2   92.97   21.71
   3  -4  -2  118.94   21.73
  -3   4  -2  150.35   26.87
  -1   4   2  137.32   22.50
  -3  -1   2  142.06   24.08
  -4   3   2  150.33   19.87
  -3  -1   2  138.53   22.56
  -4   1  -2   85.74   17.55
   4  -3   2  103.75   19.65
   1  -4   2   78.40   21.13
   4  -3   2  130.23   23.20
  -1  -3  -2  136.41   25.51
  -4   3   2  106.74   21.29
   1  -4   2  172.85   27.33
   4  -3   2  152.07   20.49
  -4   0  -2   73.24   18.24
  -4   4  -2   97.28   22.06
   4  -4   2   87.21   22.49
   0  -4  -2   98.85   24.12
  -4   0  -2   74.32   23.10
  -4   0   2  123.21   24.04
   4  -4  -2  109.29   24.74
   0  -4   2   52.36   19.93
  -4   4   2  104.90   24.54
   4  -4   2  125.04   25.64
  -5   2   2  101.99   23.17
   2  -5  -2   93.44   24.06
  -5   3  -2  114.25   22.62
  -2  -3   2   43.86   19.72
   3  -5   2   72.41   24.22
   3  -5   2   89.47   24.65
   2  -5  -2   48.99   20.24
  -3  -2  -2   87.67   20.74
  -3   5   2   82.08   24.97
  -2   5  -2   94.15   25.10
  -3  -2  -2   71.53   25.18
   3  -5  -2   51.73   19.96
  -5   2  -2   71.23   20.87
   3  -5  -2   64.64   22.45
  -5   3   2  117.84   21.60
  -3  -2   2   80.00   20.00
  -2  -3  -2   44.67   23.26
   2  -5   2  116.11   27.12
   5  -3   2   61.90   17.34
  -2   5   2  104.87   27.02
  -3   5  -2   36.62   18.08
   2  -5   2   97.42   25.91
  -3  -2   2  102.90   26.89
  -1  -4   2   44.41   21.00
  -5   4  -2   16.15   15.81
  -1   5  -2   21.25   17.79
   5  -4  -2   19.11   18.35
   4  -5   2   40.34   19.29
  -4   5   2   19.17   14.72
  -4  -1  -2   24.18   21.57
  -4  -1  -2    1.23   11.99
   1  -5  -2   10.76   13.62
   1  -5  -2    4.22   18.44
  -5   1   2    5.39   15.53
   4  -5   2   29.43   18.14
  -1  -4  -2   29.43   20.16
  -4   5  -2   12.94   16.75
  -4  -1   2   -2.64   13.65
   4  -5  -2   42.01   18.88
   1  -5   2   17.86   15.61
  -5   4   2   15.42   16.29
   5  -4   2    9.14   15.12
  -1   5   2   22.26   17.63
   1  -5   2   23.31   20.63
  -5   1  -2   18.28   14.60
   0   0  -3    1.81    4.91
   0   0  -3    0.71    2.53
   0   0   3    2.22    2.96
  -1   0  -3 1605.28   37.39
   1  -1  -3 1605.65   35.23
   1  -1   3 1649.29   38.45
  -1   1  -3 1663.27   43.90
   0  -1   3 1618.79   38.83
  -1   1   3 1591.84   36.78
  -1   0  -3 1542.75   43.97
  -1   1  -3 1617.53   38.51
   0  -1   3 1634.18   43.08
   0  -1  -3 1615.00   34.99
  -1   0   3 1623.75   36.55
   0  -1  -3 1629.83   43.52
  -1   1  -3 1597.08   44.04
   1  -1  -3 1618.85   44.18
   0   1   3 1611.10   35.19
   0  -1  -3 1629.93   41.90
  -1   0   3 1562.56   41.64
   0   1  -3 1609.89   41.42
   1   0  -3 1612.05   40.76
  -1   0  -3 1555.43   40.13
  -2   1  -3    1.46    4.48
   1  -2  -3   -1.00    5.83
  -1  -1   3    1.62    4.92
  -2   1  -3    1.62    6.05
  -1  -1  -3    5.51    5.83
  -2   1   3    0.12    3.77
  -1  -1  -3   -3.67    4.17
   2  -1  -3   -3.45    4.15
   1  -2   3   -0.61    3.37
  -1  -1  -3    2.74    4.12
   1  -2   3    5.57    6.62
   1  -2  -3    3.96    5.65
  -1   2   3    4.78    5.78
  -2   1  -3   -4.21    3.94
  -2   1   3   -4.34    4.08
  -1   2  -3   -0.63    6.22
   1   1  -3   -1.37    3.26
  -1  -1   3   -1.52    5.06
  -2   0  -3 1074.99   42.42
   2  -2  -3 1049.99   40.82
   0  -2  -3 1019.72   41.50
   0   2   3  978.86   26.88
  -2   0  -3 1025.34   24.64
  -2   2  -3 1009.47   39.81
  -2   2  -3  987.00   40.54
   0  -2   3 1077.87   42.68
  -2   2   3  945.96   28.74
   2  -2   3 1006.59   31.27
   0  -2   3 1048.50   31.51
   0  -2  -3 1025.37   36.63
  -2   0   3  977.56   37.44
  -2   0   3 1015.02   34.89
   2  -2  -3 1031.51   32.86
  -2   0  -3 1050.96   37.85
  -2   2   3 1000.83   40.16
   2  -2   3  988.41   39.35
   2   0  -3 1025.72   31.71
   0   2  -3 1038.74   36.77
   0   2   3  979.61   35.89
  -2   2  -3  996.14   31.47
   0  -2  -3 1038.29   27.51
  -3   1   3  701.18   34.53
  -1  -2   3  726.53   39.44
  -3   1   3  728.42   30.76
  -1   3  -3  709.49   36.96
   3  -2  -3  723.12   36.02
   3  -2  -3  685.77   28.17
  -2  -1  -3  804.18   41.45
  -2  -1  -3  712.75   33.21
  -1  -2   3  723.79   31.68
   1  -3  -3  745.41   37.45
  -3   2  -3  664.93   36.47
  -2   3   3  775.76   39.72
   2  -3   3  678.78   38.13
  -3   2  -3  726.84   31.68
   1  -3  -3  750.93   37.96
   2  -3   3  709.90   24.45
  -3   2  -3  727.37   34.91
  -2   3  -3  725.15   38.88
   1  -3   3  754.43   39.32
  -3   2   3  815.72   37.54
  -1  -2  -3  735.24   29.45
  -3   1  -3  702.71   38.06
   1   2  -3  708.93   27.34
   2  -3  -3  718.67   39.53
  -3   1  -3  717.63   34.10
  -3   1  -3  714.73   28.08
   3  -1  -3  732.36   31.46
   2  -3  -3  721.20   34.77
  -2  -1   3  768.29   38.32
  -3   2   3  759.08   32.19
  -3   2   3  719.35   28.80
  -2  -1   3  734.10   34.40
  -1  -2  -3  688.27   28.17
  -1  -2  -3  737.65   42.08
  -1   3   3  754.73   37.46
   3  -3  -3   -0.33    9.18
   3  -3  -3   -4.72    6.80
  -3   3  -3    3.39    8.35
   0  -3  -3   -1.57    9.14
  -3   0   3   -0.27    7.75
  -3   0   3   -1.84    8.63
   3  -3   3   11.16    6.66
  -3   0  -3    0.75   10.46
   3  -3   3  -13.47    8.51
  -3   3  -3    3.49    6.48
   0  -3   3   -1.22    9.80
  -3   3  -3   -3.70    7.90
   0   3   3   -6.18    7.52
   0  -3   3   -5.79    6.22
  -3   3   3    5.09   10.70
   0   3  -3    1.23    6.98
  -3   0  -3   -1.84    6.57
   0  -3  -3    3.82    7.68
  -4   2  -3   -4.10   10.51
  -2   4  -3   11.46   10.95
   2  -4  -3    6.40   11.53
  -2  -2   3  -13.22   10.90
  -2  -2   3   -5.73    7.27
  -4   2  -3    0.91    8.95
   2  -4   3   -5.38    8.79
  -2  -2  -3    4.05    8.60
  -2  -2  -3  -15.48   11.96
   4  -2  -3   -1.62    8.52
  -2   4   3    1.08    9.52
   2  -4  -3   19.57   11.62
  -4   2   3   -5.31    8.49
  -4   2  -3   -2.34    8.54
   4  -2   3    8.94    9.58
   1  -4  -3  458.28   33.98
  -4   3  -3  445.70   42.14
  -3   4   3  371.16   39.64
  -1  -3   3  453.10   28.60
  -3  -1  -3  379.64   34.75
   1  -4  -3  333.03   38.32
  -3  -1  -3  411.21   43.44
  -4   3  -3  407.42   28.04
   3  -4   3  443.29   42.18
  -4   1   3  442.98   39.95
   4  -3  -3  458.11   42.69
  -1  -3   3  429.03   43.18
  -1   4  -3  436.33   40.03
  -4   3  -3  460.98   42.69
  -3  -1   3  485.18   42.87
  -4   1  -3  429.14   43.37
   4  -3   3  417.05   28.14
  -4   3   3  448.99   42.06
  -3  -1   3  430.47   37.90
  -3   4  -3  363.63   39.02
  -1  -3  -3  339.47   39.65
  -4   1  -3  394.71   36.11
  -1   4   3  472.70   42.32
   1  -4   3  457.75   45.66
   3  -4  -3  328.70   37.08
  -4   3   3  403.25   27.98
   3  -4  -3  481.66   33.64
   4  -3   3  448.61   33.89
   4  -3   3  419.28   37.69
  -4   0  -3  333.85   41.50
  -4   4   3  443.21   46.76
   4  -4   3  355.17   42.23
  -4   0  -3  311.03   34.46
   4  -4   3  312.10   36.76
   4  -4  -3  305.10   38.87
   0  -4  -3  347.11   41.67
  -4   4  -3  366.82   42.70
   0  -4   3  346.36   43.03
  -4   0   3  382.00   39.00
   2  -5  -3  304.89   38.66
  -5   3  -3  349.50   35.82
  -5   2   3  244.19   33.39
  -3  -2  -3  303.03   33.97
  -2   5  -3  199.92   31.89
   3  -5   3  277.78   40.66
   3  -5   3  211.85   34.95
  -2  -3   3  255.92   38.37
  -3  -2  -3  348.33   46.09
   2  -5  -3  353.79   43.63
  -3  -2   3  263.22   37.07
   2  -5   3  282.54   42.55
   5  -3   3  306.75   33.76
  -5   2  -3  236.19   31.18
   2  -5   3  267.63   37.09
   3  -5  -3  235.46   36.19
  -3   5  -3  260.94   37.54
   3  -5  -3  256.51   34.34
  -5   3   3  301.59   33.86
  -2  -3  -3  299.15   43.38
  -3  -2   3  281.37   34.31
  -2   5   3  293.65   40.33
   4  -5   3   20.78   16.92
  -5   1   3   -8.73   10.68
   5  -4  -3   -0.90   14.55
  -4  -1  -3   -4.79   12.22
  -4   5   3   -1.17   13.30
   1  -5  -3    7.10   14.66
  -4  -1  -3  -19.65   15.23
  -1  -4   3   13.75   18.31
   4  -5   3   -9.29   13.10
  -5   4  -3   -9.01   13.42
   1  -5  -3   -8.93   12.76
  -1   5  -3    5.14   15.55
   4  -5  -3    7.76   14.30
  -1  -4  -3   18.36   16.88
  -4   5  -3    9.74   16.57
  -4  -1   3   -8.55   13.63
   1  -5   3   -1.26   15.68
  -5   1  -3  -18.37   10.47
   1  -5   3   -2.42   13.14
   5  -4   3   25.25   17.17
   0   0  -4 2753.65   65.77
   0   0  -4 2774.62   56.32
   0   0   4 2757.32   58.43
  -1   1   4 1713.28   40.83
  -1   1  -4 1703.70   46.60
  -1   1  -4 1727.16   47.60
  -1   0   4 1689.93   37.44
  -1   0  -4 1673.76   47.45
   0   1  -4 1757.45   46.16
   0   1   4 1700.46   38.72
   1  -1   4 1725.04   41.94
   1   0  -4 1703.76   46.16
   1  -1  -4 1704.60   36.21
   1  -1  -4 1666.43   47.62
   0  -1   4 1698.05   45.20
   0  -1   4 1694.00   42.63
   1   0   4 1720.94   43.36
  -1   0   4 1663.59   44.75
  -1   0  -4 1718.53   43.88
   0  -1  -4 1635.86   45.73
   0  -1  -4 1716.67   46.32
  -1   0  -4 1677.42   42.48
  -2   1  -4 1611.04   52.86
   1  -2  -4 1625.21   47.80
   1  -2  -4 1660.69   52.99
   1  -2   4 1619.51   41.36
  -1   2  -4 1602.32   51.64
   1  -2   4 1613.74   52.10
  -1   2   4 1602.39   34.01
  -1  -1  -4 1620.78   43.08
  -1  -1  -4 1663.51   45.19
   1   1  -4 1609.92   42.87
  -1  -1   4 1578.28   46.94
   2  -1  -4 1579.81   47.83
  -2   1  -4 1656.49   47.46
  -1  -1  -4 1663.23   54.16
  -2   1   4 1631.55   47.12
  -1  -1   4 1628.95   49.83
  -1   2   4 1618.44   52.60
  -2   1  -4 1619.04   45.92
   2  -1   4 1688.67   46.92
  -2   1   4 1627.84   36.52
  -2   2  -4  936.53   40.38
   0  -2   4 1045.24   42.30
   0  -2   4 1077.84   33.43
   0   2  -4 1040.94   37.54
  -2   2   4 1037.86   30.54
  -2   0   4  995.16   34.06
   0  -2  -4 1032.20   38.25
  -2   0  -4 1054.54   38.36
  -2   0  -4 1038.89   27.54
   2  -2   4 1019.73   32.76
  -2   0   4 1093.09   39.36
  -2   2  -4 1034.98   33.52
  -2   2   4  899.27   39.46
  -2   0  -4 1086.41   43.70
   0  -2  -4 1031.63   28.10
   0   2   4 1025.19   27.99
   2  -2  -4  997.33   31.23
   2  -2  -4 1009.09   41.46
   2   0  -4 1036.20   34.39
  -2   2  -4 1015.87   42.37
   0  -2  -4  957.49   40.61
   2  -2   4 1021.93   41.53
  -3   1   4  774.74   29.90
   3  -2  -4  739.54   27.25
   2  -3   4  739.85   26.58
  -1  -2   4  723.22   39.18
  -1   3  -4  698.56   37.42
  -3   2  -4  773.79   35.86
  -1  -2   4  742.62   32.09
   2  -3   4  788.90   41.81
  -3   2  -4  708.35   38.77
  -2  -1  -4  710.88   41.42
   3  -2  -4  716.74   36.76
   1  -3  -4  728.00   37.47
  -2   3   4  750.26   39.36
  -3   1   4  813.66   36.94
  -3   2  -4  734.15   33.01
   1  -3  -4  679.54   37.29
  -2  -1  -4  734.78   33.59
  -1  -2  -4  735.03   30.42
  -2  -1   4  683.91   36.49
  -3   2   4  776.85   33.31
  -3   1  -4  739.22   29.05
   1  -3   4  751.11   25.65
  -1   3   4  747.70   37.86
   3  -1  -4  720.20   32.89
  -3   1  -4  709.25   39.23
   2  -3  -4  713.95   39.27
  -3   1  -4  727.18   35.38
  -1  -2  -4  751.59   42.32
  -3   2   4  727.55   27.27
  -2   3  -4  772.20   40.54
   2  -3  -4  727.59   34.26
   3  -2   4  689.21   31.99
   1   2  -4  725.28   29.65
   1  -3   4  770.04   40.52
  -1  -2  -4  764.96   30.69
  -2  -1   4  698.33   35.04
   3  -3   4  919.28   34.50
   0  -3  -4  883.76   40.85
   0  -3   4  954.84   48.40
   0  -3   4  892.37   32.91
   3  -3  -4  913.99   36.44
  -3   0   4  775.12   40.57
  -3   3   4  936.75   47.32
  -3   0  -4  911.21   49.40
   3  -3   4  880.23   45.41
  -3   3  -4  880.27   34.35
  -3   3  -4  977.51   47.38
  -3   3  -4  904.52   46.96
   3  -3  -4  830.72   45.64
   0  -3  -4  909.03   48.02
   0   3  -4  905.45   40.67
  -3   0   4  908.63   41.60
  -3   0  -4  960.72   43.01
   2  -4  -4  659.17   43.58
   4  -2   4  686.49   37.26
   2  -4   4  666.44   44.52
  -4   2  -4  679.70   43.54
   4  -2   4  655.53   35.77
  -2  -2   4  683.46   37.20
  -2  -2   4  751.89   45.71
  -4   2  -4  713.98   36.93
  -2   4   4  752.22   45.33
  -2  -2  -4  720.79   48.53
  -4   2  -4  606.61   35.83
   4  -2  -4  696.87   38.76
  -2   4  -4  688.82   44.72
   2  -4  -4  700.04   42.01
  -4   2   4  681.84   38.01
  -2  -2  -4  696.95   36.50
   1  -4  -4  448.75   34.57
  -3  -1  -4  452.62   47.32
  -3  -1  -4  409.77   36.46
   4  -3  -4  470.79   35.78
  -4   3  -4  330.03   37.47
  -1  -3   4  424.13   27.44
  -4   1   4  429.99   38.90
  -1   4  -4  422.94   41.01
  -4   3  -4  456.70   33.73
  -4   3  -4  454.10   28.95
   3  -4   4  406.75   42.87
  -1  -3   4  483.77   47.76
   1  -4  -4  445.13   44.51
  -3   4   4  371.95   39.69
  -3  -1   4  371.54   36.01
  -4   1  -4  414.76   43.18
   1  -4   4  314.05   37.07
   3  -4  -4  438.72   32.15
   4  -3   4  438.91   28.84
  -4   1  -4  435.03   38.94
  -3  -1   4  437.15   39.39
   3  -4  -4  344.47   38.54
  -3   4  -4  544.49   50.89
  -1   4   4  511.48   44.88
  -4   3   4  383.26   27.20
   4  -3   4  461.65   34.24
  -1  -3  -4  361.04   40.77
  -4   0  -4  358.17   38.31
   4  -4   4  322.70   39.36
   0  -4  -4  335.59   40.61
   4  -4  -4  310.80   40.38
   0  -4   4  335.45   42.72
  -4   0  -4  289.76   41.40
  -4   0   4  295.54   34.35
  -4   4  -4  333.03   42.55
   4  -4   4  303.27   37.12
  -4   4  -4  293.22   36.09
  -4   4   4  424.77   46.31
   2  -5  -4  273.45   37.12
  -2  -3   4  358.65   45.90
   3  -5   4  366.80   44.90
  -3  -2  -4  270.09   31.54
  -3  -2  -4  355.34   48.44
  -5   3  -4  307.01   33.31
  -5   3  -4  373.23   42.79
   3  -5   4  292.72   40.52
   2  -5  -4  322.26   40.83
  -5   2   4  315.18   37.79
  -3   5   4  349.99   45.62
   5  -2   4  435.40   42.97
  -2   5  -4  240.76   36.65
   3  -5  -4  334.68   39.84
  -5   3   4  344.34   36.13
  -5   2  -4  265.05   39.28
  -2  -3  -4  236.18   38.67
   5  -3   4  215.84   29.93
  -3  -2   4  325.60   42.36
   5  -3   4  256.44   30.33
  -5   2  -4  288.17   35.75
  -2   5   4  264.21   36.51
  -3   5  -4  242.62   36.40
   2  -5   4  235.39   36.78
   3  -5  -4  282.38   41.87
  -3  -2   4  250.68   31.85
   2  -5   4  383.69   48.57
  -1   5  -4  292.93   39.72
  -1  -4   4  415.44   50.92
   1  -5  -4  353.03   42.56
  -4   5   4  417.43   50.52
  -5   1   4  401.35   44.15
  -5   4  -4  328.59   56.93
   4  -5   4  275.50   40.10
  -4  -1  -4  386.66   42.21
  -4  -1  -4  395.93   49.71
   5  -4  -4  470.95   50.32
  -5   4  -4  291.32   38.91
   1  -5  -4  334.46   43.98
   4  -5   4  391.33   50.98
  -5   1  -4  364.84   42.81
   4  -5  -4  410.43   50.80
   1  -5   4  404.93   52.51
  -1  -4  -4  376.36   48.37
  -4  -1   4  452.94   48.49
   5  -4   4  382.35   43.68
  -4   5  -4  457.34   51.88
   1  -5   4  344.96   41.05
   5  -4   4  292.72   37.51
  -5   1  -4  373.85   50.78
   0   0   5   -3.56    3.69
   0   0  -5    2.66    3.75
   0   0  -5    3.83    6.72
  -1   0  -5 1238.12   40.34
   1   0  -5 1277.13   41.11
  -1   0  -5 1266.78   37.77
   1  -1  -5 1283.33   28.43
  -1   0   5 1223.87   37.98
  -1   0   5 1250.85   29.61
   1   0   5 1206.93   36.17
  -1   1   5 1262.53   34.38
   0   1  -5 1098.26   37.77
  -1   0  -5 1278.41   36.88
   0  -1  -5 1260.63   40.27
   0  -1  -5 1235.21   37.66
   0  -1   5 1205.60   36.30
   0  -1   5 1228.20   37.52
  -1   1  -5 1330.29   40.09
   0   1   5 1229.44   32.73
   1  -1   5 1237.46   35.42
   1  -1  -5 1276.26   41.80
  -1   1  -5 1275.04   40.40
   2  -1  -5    1.54    6.01
   1  -2   5    3.88    6.24
  -2   1  -5    8.09    5.54
  -1  -1   5   -5.01    5.21
  -2   1  -5   -4.67    6.73
  -1   2   5    5.90    3.52
   1  -2  -5    8.06    5.84
   1   1   5    4.42    4.53
   1   1  -5   -4.82    4.44
  -1  -1   5   -2.94    5.11
  -1  -1  -5    7.09    4.88
   2  -1   5   -1.96    4.55
  -1   2  -5    3.24    6.12
  -1  -1  -5    9.81    7.01
  -2   1   5    0.52    5.11
  -1   2  -5    2.95    6.82
   1  -2   5    5.86    5.13
  -1  -1  -5    5.29    6.21
   1  -2  -5   -6.53    4.96
  -2   1  -5    4.73    5.60
   0  -2  -5  824.45   37.55
  -2   2  -5  832.21   38.78
  -2   0   5  815.94   35.39
  -2   0  -5  875.70   40.22
   0  -2   5  797.19   36.39
  -2   0  -5  827.26   33.73
   2  -2   5  794.06   29.70
  -2   0   5  821.32   29.79
   0   2   5  827.88   25.60
   2  -2  -5  843.43   27.25
   0   2  -5  843.39   35.22
   2  -2   5  843.02   38.77
   0  -2  -5  807.90   25.63
   0  -2   5  812.01   30.30
   2   0  -5  804.13   32.55
   2  -2  -5  861.28   39.00
   0  -2  -5  844.52   35.28
  -2   2  -5  819.92   37.26
  -2   0  -5  804.94   25.51
  -2   2   5  809.44   27.63
   1  -3  -5  501.99   32.77
  -1   3  -5  555.48   35.26
   2  -3   5  591.27   24.93
  -2  -1  -5  613.21   30.95
  -3   1   5  571.48   31.49
  -3   2  -5  578.66   31.71
  -3   2  -5  557.75   29.07
  -2   3   5  619.07   37.31
  -2  -1  -5  601.38   38.88
  -3   2  -5  510.35   34.32
  -1  -2   5  484.62   32.79
   3  -2  -5  582.03   33.79
   1  -3  -5  582.43   33.74
   1   2   5  556.83   25.93
  -1  -2   5  663.10   31.39
   2  -3   5  635.72   37.88
  -1  -2  -5  606.47   27.22
  -1   3   5  546.84   33.23
  -3   1  -5  515.51   34.23
  -3   1  -5  609.57   31.96
  -1  -2  -5  581.91   28.78
  -2  -1   5  556.89   31.80
  -3   2   5  580.88   28.85
   3  -2   5  562.58   29.03
   3  -1  -5  550.99   30.56
  -2   3  -5  620.88   37.06
   2  -3  -5  616.34   30.61
   1  -3   5  608.72   37.36
   1   2  -5  592.98   26.91
   2  -3  -5  598.82   37.15
  -3   1  -5  631.27   27.19
   1  -3   5  553.66   23.79
  -2  -1   5  562.27   31.43
  -1  -2  -5  581.94   36.82
  -3   3  -5    3.06   11.64
   0  -3  -5   -1.67    9.56
   0  -3   5   -1.35   10.07
   0   3  -5    6.32    9.29
  -3   0   5   -8.56    6.63
  -3   0   5   11.38   10.20
  -3   0  -5  -11.07    7.17
   3  -3   5    1.37    6.61
  -3   0  -5   12.89   11.77
   3  -3  -5   -7.79    9.16
   0  -3  -5   -1.77    7.75
   3  -3   5   -4.41    9.86
   0  -3   5    2.89    6.84
  -3   3  -5    2.65    9.60
   2  -4  -5   -1.05    8.85
  -4   2  -5   -3.59    7.91
  -4   2  -5   15.83   10.65
  -4   2  -5    4.55   13.39
   4  -2  -5   -2.71   10.39
  -4   2   5    3.02    8.55
   2  -4  -5   14.70   11.31
  -2   4   5   -6.65    8.39
  -2  -2  -5   -3.88   10.81
  -2  -2  -5   -1.53    7.72
  -2   4  -5    2.13   10.18
  -2  -2   5    2.62   12.05
  -2  -2   5    2.97    9.43
   4  -2   5   -1.73    8.87
   2  -4   5   22.56   13.11
   1  -4  -5  335.96   36.97
  -4   3  -5  410.57   43.59
  -1  -3   5  309.11   28.34
  -3  -1  -5  281.19   31.27
  -3  -1  -5  320.40   40.56
  -4   3  -5  361.66   37.50
  -4   1   5  311.59   34.72
   1  -4  -5  443.07   42.27
   4  -3  -5  372.47   40.10
  -3   4   5  304.78   36.79
  -1   4  -5  330.87   36.61
  -1  -3   5  359.68   41.00
   3  -4   5  346.55   38.53
  -4   3  -5  349.63   30.64
  -3   4  -5  334.36   38.13
  -1  -3  -5  255.50   34.20
  -4   1  -5  348.25   41.39
   4  -3   5  338.29   37.03
  -4   3   5  350.02   31.96
  -3  -1   5  314.12   34.27
  -4   1  -5  301.05   32.48
   3  -4  -5  321.77   38.42
  -3  -1   5  273.25   31.16
   1  -4   5  303.88   37.32
   4  -3   5  396.11   32.79
   3  -4  -5  289.55   33.65
   0  -4  -5  271.04   37.86
  -4   0  -5  278.45   34.33
  -4   4  -5  300.44   39.94
   4  -4  -5  283.03   38.50
   4  -4   5  256.45   36.02
  -4   0   5  212.84   29.85
   0  -4   5  318.66   41.54
  -4   4  -5  290.35   39.71
  -4   0  -5  261.08   41.52
  -5   2   5  266.79   36.08
   3  -5   5  220.98   37.66
  -2   5  -5  244.38   38.05
   5  -2   5  260.76   33.35
   2  -5  -5  167.06   29.49
   2  -5  -5  199.05   32.35
  -2  -3   5  215.62   36.08
  -5   3  -5  183.59   27.75
  -2  -3   5  227.38   42.91
  -3  -2  -5  260.41   41.58
  -3  -2  -5  245.37   30.04
  -5   3  -5  195.46   33.80
  -3  -2   5  234.42   35.37
  -3  -2   5  192.77   30.16
   5  -3   5  265.17   33.34
  -5   3   5  218.89   30.61
   5  -3   5  123.52   24.58
  -5   2  -5  256.48   38.55
  -5   2  -5  191.86   28.92
   2  -5   5  154.57   32.06
   3  -5  -5  183.48   32.48
  -2  -3  -5  228.29   36.37
  -5   4  -5   16.22   15.79
  -5   1   5   14.97   15.63
   1  -5  -5    1.78   24.08
  -1  -4   5   -9.62   13.35
   4  -5   5   -0.78   14.70
   5  -4  -5    9.80   15.58
  -5   4  -5   14.33   18.12
  -4  -1  -5   -5.80   12.93
  -1   5  -5    3.78   16.26
   1  -5  -5    9.31   15.93
  -4  -1  -5    3.57   18.65
   4  -5   5   -1.15   15.30
   5  -1   5   13.29   13.27
  -5   1  -5    8.16   21.46
   1  -5   5    3.66   16.74
   5  -4   5   -6.55   12.84
  -1  -4  -5   -6.48   12.68
  -5   1  -5   -1.10   11.90
  -4  -1   5    9.55   15.16
  -4   5  -5    2.07   13.47
   4  -5  -5  -11.13   11.35
   1  -5   5   -0.42   13.80
   5  -4   5    0.55   15.03
   0   0   6 1848.62   47.00
   0   0  -6 1770.39   55.35
   0   0  -6 1821.77   43.99
   0  -1  -6    6.66    5.13
  -1   0   6    9.79    4.29
   1  -1  -6   12.46    7.83
  -1   1  -6    7.52    6.43
  -1   1  -6    9.95    6.37
   0   1  -6    7.37    6.25
  -1   1   6   17.96    6.70
   0   1   6   10.02    4.91
   0  -1   6   10.75    5.83
   0   1  -6   15.96    6.55
  -1   0  -6   -1.01    4.00
   1  -1  -6   10.45    3.46
   1   0   6   18.83    6.25
   0  -1  -6   19.62    8.28
  -1   0  -6   15.27    7.86
   1  -1   6   12.66    5.52
   1   0  -6   12.31    8.80
  -1   0  -6   18.57    8.37
   0  -1   6   22.20    7.65
  -1   0   6   -0.73    5.37
  -1  -1  -6  989.29   34.41
   2  -1  -6 1033.38   40.66
  -1  -1   6  998.48   36.87
  -1   2  -6 1064.17   41.98
  -2   1  -6  965.45   36.63
   1  -2   6 1077.53   42.36
   1   1  -6 1071.75   37.82
   2  -1   6 1072.80   37.64
  -1   2  -6  985.38   41.21
  -1   2   6 1019.27   29.07
  -1  -1  -6  989.35   37.81
   1  -2   6  996.89   34.15
  -1  -1   6 1076.93   38.88
  -2   1  -6 1030.61   43.68
  -2   1   6 1062.77   37.74
   1  -2  -6 1018.70   42.71
   1  -2  -6 1029.40   35.75
   1   1   6  995.66   34.34
  -1  -1  -6 1151.78   43.86
  -2   1  -6 1043.38   37.56
  -2   0   6   10.32    6.48
  -2   2  -6    6.12    7.80
  -2   2  -6    4.25    8.03
   0  -2  -6   -0.59    6.70
   0   2   6    8.30    5.28
   0  -2   6   15.76    7.68
  -2   0  -6   24.96    8.45
  -2   0   6   23.46    8.77
  -2   0  -6    8.30    5.41
   2   0   6   11.75    7.29
  -2   2   6    0.43    4.15
   0  -2  -6   -2.29    5.90
   0  -2   6    1.17    6.45
   2   0  -6   10.97    7.93
  -2   0  -6    0.38    7.35
   2  -2   6    3.26    5.75
   2  -2   6   16.58    9.55
   2  -2  -6   12.51    5.14
   2  -2  -6   11.13    8.82
   0   2  -6    0.54    7.06
   1  -3  -6    6.22    9.59
  -2  -1  -6    2.65    5.91
   3  -2  -6   10.90    9.18
   1  -3  -6   -8.30    6.35
  -3   2  -6    9.91   10.42
  -3   2  -6   19.03   10.85
  -1  -2   6    2.26    9.22
   1   2   6    6.00    6.30
  -3   2  -6    9.26    7.02
   3  -1   6   -0.95    6.50
  -1  -2   6    9.49    8.26
   2  -3   6    3.84    6.47
  -2  -1  -6   24.87   14.18
  -3   1   6   10.00   10.15
   2  -3   6    4.34    8.80
  -1   3  -6   -3.48    7.93
   2  -3  -6    9.27    9.78
   1  -3   6    8.35   10.70
   1   2  -6    3.80    7.46
  -3   1  -6    0.64    8.39
  -2   3  -6    7.56   10.05
  -2  -1   6    0.57    9.17
  -1  -2  -6   -1.82    9.34
  -3   1  -6    6.18    6.91
  -2   3  -6   -2.46    9.31
  -1  -2  -6    8.11    6.89
  -1  -2  -6   11.27    9.02
   3  -2   6    5.42    7.15
   3  -1  -6   -0.99    7.64
  -2  -1   6   13.62    9.18
  -3   2   6   11.94    7.83
   2   1   6    0.17    6.07
  -3   1  -6   13.94    7.93
   1  -3   6    0.65    6.44
   2  -3  -6    5.89    7.84
  -3   0  -6  528.10   32.51
   0  -3   6  502.69   36.10
   0  -3   6  564.96   27.71
  -3   0  -6  378.15   38.92
   0  -3  -6  487.67   36.09
   3  -3   6  436.66   25.98
   0  -3  -6  532.30   33.15
   3  -3  -6  470.16   35.34
   3  -3   6  470.52   35.41
   0   3  -6  527.94   33.18
  -3   0   6  503.48   32.92
  -3   3  -6  497.49   36.98
  -3   3  -6  497.98   35.32
  -4   2   6  459.08   38.76
  -2   4  -6  409.12   43.20
   2  -4   6  332.46   39.09
  -2  -2  -6  402.58   28.60
  -2  -2  -6  393.59   43.25
  -4   2  -6  437.62   33.87
   2  -4  -6  423.63   44.67
  -4   2  -6  427.54   37.15
   2   2   6  374.36   31.49
  -2  -2   6  348.48   32.86
  -4   2  -6  429.04   44.81
  -2  -2   6  449.09   41.93
   4  -2   6  441.96   38.12
   4  -2  -6  464.85   33.96
   2  -4  -6  395.36   38.25
   1  -4  -6    4.84   11.01
  -1  -3   6    5.12   10.91
  -4   3  -6    5.21   12.40
  -3  -1  -6    0.82    9.77
   4  -3  -6   12.97   13.11
  -4   3  -6  -16.39   11.98
  -3  -1  -6   19.13   15.09
   4  -1   6   -4.09    9.63
  -4   3  -6    4.21    8.75
   1  -4  -6   11.36   12.56
   3  -4   6    5.07   14.10
  -1  -3   6   -2.15   12.95
  -4   1   6    7.54   10.58
  -1   4  -6   13.72   11.09
  -3   4  -6    2.86   10.14
   3  -4  -6   -1.01   11.32
  -1  -3  -6   24.44   14.04
   4  -3   6   -0.07    7.81
  -4   1  -6   17.99   11.92
  -3  -1   6  -11.21    8.96
   1  -4   6    9.43   14.19
   4  -3   6  -15.59    9.81
  -4   1  -6   18.97   15.95
  -4   4  -6   -1.04   15.67
  -4   0   6   -5.17   10.08
  -4   4  -6   -2.85   13.03
   4  -4  -6   -9.82   12.93
   0  -4  -6   -3.88   13.50
   4  -4   6   11.86   14.02
  -4   0  -6   -0.09    9.70
   0  -4   6   -6.56   14.05
  -4   0  -6    2.22   17.36
  -2   5  -6   16.24   15.45
   2  -5  -6    5.50   12.71
  -5   3  -6    9.64   18.90
  -5   3  -6   -6.82   10.24
  -5   2   6   19.80   14.58
  -2  -3   6    8.42   17.67
  -3  -2  -6   -9.24   10.74
   3  -5   6    3.36   14.01
   5  -2   6    4.42   14.05
   2  -5  -6   20.17   16.02
  -3  -2  -6  -21.36   14.39
  -2  -3   6   17.48   14.39
  -5   2  -6   -5.74   18.06
  -5   2  -6    1.29   12.91
   5  -3   6   13.28   14.45
  -5   3   6   32.72   21.27
  -3  -2   6    6.30   14.04
   2  -5   6   16.25   19.09
  -3   5  -6   14.78   16.49
   3  -5  -6   -1.84   13.08
   3   2   6   -4.35   10.81
   5  -3   6   -5.88   10.44
  -2  -3  -6  -10.23   14.35
   1  -5  -6  186.91   34.59
   5  -4  -6  293.99   40.95
  -4  -1  -6  171.54   36.52
  -1  -4   6  292.02   42.72
  -1   5  -6  212.96   32.71
   4  -5   6  168.60   33.23
  -4  -1  -6  271.27   36.31
   5  -1   6  261.95   35.38
  -5   4  -6  291.39   39.81
  -5   4  -6  215.89   37.02
  -5   1   6  216.02   33.79
   5  -4   6  189.47   32.26
   4  -5  -6  227.45   38.52
   5  -4   6  177.92   31.26
  -4  -1   6  227.68   34.26
  -4   5  -6  160.04   31.62
  -1  -4  -6  269.03   42.63
  -5   1  -6  199.78   40.22
   4   1   6  143.66   25.32
   1  -5   6  244.66   39.62
  -5   1  -6  215.00   31.96
   0   0   7    7.71    5.57
   0   0  -7    3.60    4.53
   0   0  -7   -2.22    7.21
   0  -1  -7 5573.97  126.92
  -1   0  -7 5714.31  117.92
  -1   1  -7 5778.82  123.80
  -1   0   7 5695.74  121.47
  -1   0   7 5696.04  106.35
  -1   0  -7 5645.27  124.75
   0  -1   7 5739.59  119.59
   1   0  -7 5544.72  128.57
   0   1   7 5613.02  114.43
  -1   1  -7 5898.93  125.54
   0  -1   7 5597.66  118.27
   0   1  -7 5596.62  127.23
   0   1  -7 5653.07  118.46
   0  -1  -7 5600.05  119.03
  -1   0  -7 5585.72  125.45
   1  -1   7 5672.71  117.90
   1  -1  -7 5683.30  105.21
   1   0   7 5649.21  117.98
  -1   1   7 5732.69  116.88
   1  -1  -7 5581.67  128.68
  -2   1   7    1.28    5.39
  -1  -1  -7   -2.85    4.39
  -1  -1  -7   11.06    8.18
  -1  -1  -7   -2.34    6.17
  -2   1  -7   -1.14    5.34
  -2   1  -7   -6.97    5.40
  -1   2  -7    2.52    7.40
   2  -1  -7   -2.16    7.34
  -2   1  -7   16.84    7.98
   1   1  -7    4.12    6.44
   1  -2  -7   -5.26    5.62
  -1   2   7   13.49    6.05
   2  -1   7    2.70    5.42
  -1   2  -7    3.38    6.80
   1  -2   7    0.16    5.12
   1  -2   7   -7.03    5.67
   1   1   7    4.36    4.95
  -1  -1   7    2.46    6.38
   1  -2  -7    5.14    5.46
  -1  -1   7    1.05    5.75
   2  -2   7 3828.98  103.18
   0  -2   7 3893.56   91.70
  -2   0   7 3909.99   98.12
   0   2   7 3830.35   84.17
  -2   2  -7 3669.06  101.28
   2  -2   7 3988.19   91.60
   2   0  -7 3902.45   97.43
  -2   2  -7 3908.51  103.93
   0  -2  -7 3911.42  100.01
   2  -2  -7 3877.31   78.73
   0  -2   7 4041.83  101.54
  -2   0   7 3894.91   83.18
   2  -2  -7 3929.70  103.36
  -2   0  -7 3890.42   95.08
  -2   0  -7 3840.06   86.57
  -2   0  -7 3909.06  105.65
  -2   2   7 3891.17   87.48
   0   2  -7 3759.92   97.37
   0  -2  -7 3755.35   98.95
   2   0   7 3856.33   94.28
   3  -2  -7 2817.96   86.88
  -1  -2   7 2873.65   79.69
   1  -3  -7 2808.68   83.56
   2  -3   7 2797.66   90.40
  -3   2  -7 2821.59   78.77
   1  -3  -7 2848.77   89.50
  -2  -1  -7 2915.02   93.40
  -3   2  -7 2832.09   90.23
  -2  -1  -7 2856.27   80.85
   2  -3   7 2898.55   73.00
  -1   3  -7 3030.70   89.82
   1   2   7 2896.05   74.09
   3  -1   7 2927.79   82.08
  -1  -2   7 2810.11   85.82
  -3   1   7 2887.21   84.44
  -3   2  -7 2892.11   84.80
   2   1  -7 2929.08   74.46
  -3   1  -7 2816.22   74.13
   1   2  -7 2852.81   77.20
  -1  -2  -7 2815.17   79.37
  -2  -1   7 2933.04   80.67
   1  -3   7 2832.38   90.46
  -3   1  -7 2821.63   91.13
  -2  -1   7 2790.45   83.52
  -2   3  -7 2924.23   92.12
  -2   3  -7 2789.21   91.21
  -3   1  -7 2909.31   82.84
   2  -3  -7 2889.76   92.17
  -3   2   7 2896.35   79.49
   1  -3   7 2900.36   73.00
  -1  -2  -7 2891.90   74.46
  -1  -2  -7 2893.43   92.20
   3  -1  -7 2937.79   84.62
   3  -2   7 2852.18   79.46
   2  -3  -7 2930.26   76.38
   2   1   7 2925.46   80.08
   3  -3   7   -6.16   10.99
   0  -3   7   -0.18    8.24
   3   0   7   -0.52    7.45
  -3   0   7   28.59   12.41
   3  -3   7   -5.82    6.40
  -3   0  -7   -7.06    9.92
   3  -3  -7    1.77    9.99
   0  -3   7   -4.86   10.37
   0  -3  -7   -3.07    9.45
  -3   3  -7   10.37   14.15
  -3   0  -7    4.48    8.68
   0  -3  -7   27.39   14.12
  -3   3  -7   -1.02    9.44
   0   3  -7    0.16    9.26
  -2  -2   7   25.36   14.34
  -4   2  -7  -11.83   12.01
  -4   2  -7   -6.84   15.12
   2  -4   7   -9.82    9.68
   4  -2   7    5.78   10.56
   2   2   7   -9.66    8.07
  -4   2   7   17.15   12.02
  -2  -2   7    7.75   12.07
   2  -4  -7   -9.87   10.55
  -2  -2  -7   -8.72    8.10
  -2  -2  -7   12.01   14.65
  -2   4  -7    1.82   13.39
  -4   2  -7   -7.23    8.24
   2  -4  -7   -7.71   10.10
   4  -2  -7   -5.94   11.17
  -4   3  -7 1826.28   77.55
  -1  -3   7 1746.52   61.95
  -4   1   7 1861.77   71.57
   4  -1   7 1813.30   69.67
   1  -4  -7 1794.57   73.77
  -4   3  -7 1733.47   62.22
   3  -4   7 1688.49   77.73
   4  -3  -7 1806.87   74.37
  -3  -1  -7 1781.50   67.29
  -1   4  -7 1706.30   70.95
  -4   3  -7 1759.25   70.17
  -3  -1  -7 1681.64   78.03
  -1  -3   7 1745.74   74.01
   1  -4  -7 1655.85   70.53
   3  -4  -7 1644.08   76.12
  -3   4  -7 1693.33   75.33
  -4   1  -7 1581.07   67.25
   4  -3   7 1685.62   73.45
  -3  -1   7 1748.71   69.62
   3   1   7 1750.63   65.38
   1  -4   7 1647.64   75.53
  -4   1  -7 1782.86   78.85
  -1  -3  -7 1743.97   77.31
   4  -3   7 1738.44   62.43
   4  -4  -7 1390.64   71.25
  -4   4  -7 1449.16   71.66
  -4   0  -7 1454.37   64.74
  -4   0  -7 1443.33   77.08
   0  -4  -7 1438.22   73.10
   4   0   7 1527.90   64.32
   0  -4   7 1238.19   67.95
  -4   0   7 1515.39   69.09
  -4   4  -7 1344.46   72.82
   4  -4   7 1473.36   72.31
  -5   3  -7 1185.35   55.63
   5  -2   7 1137.61   59.11
   2  -5  -7 1058.42   63.42
  -2  -3   7 1089.74   65.07
  -5   2   7 1063.23   57.80
  -3  -2  -7 1174.43   57.22
  -2  -3   7 1098.66   54.71
  -5   3  -7 1054.48   65.75
  -3  -2  -7 1058.33   68.89
   2  -5  -7 1168.34   62.02
  -3   5  -7  919.78   62.60
   5  -3   7 1068.55   60.51
  -5   2  -7 1116.89   58.63
   2  -5   7 1073.47   67.49
   5  -3   7 1137.90   55.86
  -5   2  -7 1128.80   69.27
  -3  -2   7 1159.19   59.07
  -2  -3  -7 1014.54   65.77
   3   2   7 1059.54   53.53
   3  -5  -7 1131.45   67.30
  -1  -4   7    0.33   15.64
   5  -4  -7  -14.33   14.27
   1  -5  -7    1.93   15.80
  -5   4  -7  -17.29   12.81
  -5   4  -7  -11.69   17.67
   4  -5   7   -1.72   16.60
  -1   5  -7    3.08   15.38
  -4  -1  -7   -8.95   19.60
   5  -1   7  -21.68   13.37
  -5   1   7   35.82   17.70
  -4  -1  -7    9.10   13.10
   1  -5   7    6.91   18.91
  -5   1  -7  -17.34   19.14
   5  -4   7   -2.24   15.17
  -5   1  -7   11.32   14.82
  -1  -4  -7   -0.48   15.70
  -4   5  -7   29.65   17.69
   4  -5  -7   -2.79   14.33
  -4  -1   7    5.35   14.40
   4   1   7   -1.27   11.47
   5  -4   7   16.09   17.63
   0   0   8  140.31   15.60
   0   0  -8  128.24   13.50
   0   0  -8  130.49   20.18
  -1   1  -8  410.48   26.31
   1   0  -8  405.77   26.93
   1  -1  -8  421.50   27.71
   0  -1   8  350.62   21.50
   0  -1  -8  436.85   27.56
   0  -1  -8  346.82   20.36
   0  -1   8  363.26   20.97
  -1   1   8  354.57   20.30
   1  -1  -8  377.92   14.75
  -1   0  -8  393.01   24.06
  -1   1  -8  374.18   23.29
  -1   0  -8  359.89   25.16
  -1   0   8  361.99   21.75
   1   0   8  368.33   21.27
   1  -1   8  393.87   21.29
   0   1   8  384.27   20.03
  -1   0   8  374.47   15.08
   0   1  -8  430.76   27.18
   0   1  -8  389.76   21.36
  -1   2  -8   72.12   15.05
  -1  -1  -8  104.54   17.61
   1  -2  -8   96.26   13.54
   2  -1   8   84.80   13.71
   2  -1  -8  122.01   19.53
  -1   2   8   90.79   11.85
  -1  -1  -8   74.51   15.25
   1  -2   8   73.12   13.14
  -2   1   8   88.36   14.95
  -1  -1  -8   77.16   11.81
  -1  -1   8  116.35   15.42
  -2   1  -8   90.83   14.04
  -1   2  -8   94.89   17.05
  -2   1  -8   77.43   15.69
   1   1   8   93.60   12.98
   1  -2   8  123.17   19.22
   1  -2  -8   66.82   15.17
  -2   1  -8   88.77   14.58
  -1  -1   8   91.27   14.94
   1   1  -8   94.26   16.31
  -2   0  -8  208.55   25.44
   2  -2   8  300.33   30.26
   2   0  -8  315.03   29.35
  -2   0   8  253.12   15.24
   2  -2  -8  208.85   25.23
   0   2  -8  217.30   23.59
  -2   2  -8  242.86   26.99
   0  -2   8  254.65   25.40
   0   2   8  274.17   17.01
   2  -2   8  255.29   22.67
  -2   0  -8  237.01   22.94
  -2   0  -8  233.26   20.88
  -2   2   8  265.56   18.39
   0  -2  -8  219.80   25.09
   0  -2  -8  250.28   25.81
   0  -2   8  289.87   20.66
  -2   2  -8  221.47   25.28
   2  -2  -8  240.86   12.68
   2   0   8  249.50   23.26
  -2   0   8  196.93   23.26
  -3   2  -8  205.10   27.32
   3  -1   8  155.44   21.22
   2   1  -8  181.93   21.09
  -1  -2   8  182.12   22.21
  -1  -2   8  163.63   23.54
  -2  -1  -8  162.10   21.67
  -2  -1  -8  166.35   26.18
  -1   3  -8  179.23   25.79
  -3   1   8  177.04   23.11
  -3   2  -8  168.11   22.50
  -3   2  -8  164.28   20.17
   1   2   8  173.10   19.00
   3  -2  -8  163.86   24.12
   1  -3  -8  193.47   26.77
   2  -3   8  154.88   18.43
   2  -3   8  136.11   23.18
   1  -3  -8  122.42   19.57
  -2   3  -8  174.99   26.02
  -1  -2  -8  233.97   30.95
  -3   1  -8  158.58   24.67
  -1  -2  -8  159.06   22.39
  -3   2   8  228.28   23.58
  -3   1  -8  163.58   21.76
   2  -3  -8  172.65   19.33
   3  -2   8  146.02   18.80
  -1  -2  -8  181.44   19.84
  -3   1  -8  188.10   20.39
   2  -3  -8  157.59   26.18
   1  -3   8  187.03   29.04
   3  -1  -8  164.10   24.04
   1   2  -8  169.95   21.49
   1  -3   8  182.45   20.16
  -2   3  -8  159.25   25.60
  -2  -1   8  177.42   24.25
  -2  -1   8  183.79   21.67
   2   1   8  157.29   20.40
   3   0   8   38.13   12.75
   3  -3  -8   40.77   16.85
  -3   0  -8   53.03   15.69
  -3   0  -8   43.05   17.63
  -3   3  -8   57.61   18.15
   3  -3   8   47.49   17.57
  -3   3  -8   25.96   16.98
   0  -3  -8   65.19   17.75
   3  -3   8   41.75   11.68
   0  -3   8   78.23   20.51
  -3   0   8   22.25   11.57
   0  -3   8   49.04   13.57
   0   3  -8   62.07   15.73
   0  -3  -8   94.52   19.55
   2  -4  -8   37.98   16.16
  -4   2  -8   31.89   18.70
  -2  -2   8   12.78   12.73
   2   2   8   52.14   14.17
   4  -2  -8   40.16   17.32
   2  -4  -8   53.83   15.68
  -2  -2  -8   34.40   12.50
  -4   2   8   -4.19   10.14
   4  -2   8   16.00   10.33
  -2  -2   8   71.96   17.59
  -2   4  -8   45.52   18.24
   2  -4   8   22.35   16.48
  -2  -2  -8   37.10   18.52
  -4   2  -8   35.12   13.82
  -1   4  -8  121.63   24.83
   4  -1   8  131.94   23.71
   4  -3  -8  105.91   23.93
  -4   3  -8  151.63   26.72
  -4   3  -8   73.69   21.89
  -4   1   8  101.52   21.40
   1  -4  -8   78.29   20.16
  -1  -3   8  115.38   19.97
  -4   3  -8  113.56   20.11
   3  -4   8  130.27   27.29
  -3  -1  -8   87.72   24.59
  -3  -1  -8   94.36   19.49
  -1  -3   8  148.93   28.39
   1  -4  -8  102.60   23.42
   4  -3   8   93.03   19.25
   1  -4   8  136.93   28.58
  -4   1  -8  100.79   25.32
  -1  -3  -8  105.55   25.38
  -3  -1   8   92.00   20.64
   3  -4  -8   88.97   24.47
   4  -3   8  101.08   23.97
   3   1   8   86.34   18.68
  -4   1  -8  153.75   25.17
  -3   4  -8  128.71   25.24
  -4   4  -8   56.29   19.56
   0  -4  -8  114.46   25.43
   4  -4   8  107.66   26.86
  -4   0  -8   78.60   22.33
  -4   0   8   97.29   22.03
   4  -4  -8   80.07   25.08
  -4   0  -8   36.21   20.63
   4   0   8   87.00   21.16
  -4   4  -8   97.38   27.16
   0  -4   8  110.34   28.41
   2  -5  -8  108.81   26.24
  -2  -3   8   82.20   20.87
  -2   5  -8   73.12   24.76
   3  -5   8   59.83   25.13
  -3  -2  -8   82.93   26.87
   2  -5  -8   42.02   20.05
  -2  -3   8   85.83   25.98
  -5   3  -8   57.87   18.49
  -5   2   8   59.72   21.23
   5  -2   8   81.85   21.84
  -3  -2  -8   44.06   18.00
  -5   3  -8   62.67   23.71
  -2  -3  -8   65.14   26.22
   3   2   8   93.62   20.33
   2  -5   8  117.25   33.42
  -5   2  -8   53.86   18.46
  -3  -2   8   75.67   21.39
   3  -5  -8   80.97   23.36
  -3   5  -8  156.27   33.33
  -5   2  -8   71.26   26.58
   5  -3   8   27.17   16.94
   5  -3   8   46.14   18.07
  -5   4  -8   23.42   17.15
  -1   5  -8   24.45   21.56
  -4  -1  -8   43.02   26.29
   4  -5   8    3.94   18.68
   5  -4  -8   18.59   19.66
   5  -1   8   18.18   14.80
  -1  -4   8   15.88   20.98
  -5   1   8   22.50   16.54
   1  -5  -8   15.95   19.82
  -5   4  -8   -1.48   20.05
  -4  -1  -8   26.18   15.86
   4   1   8   15.53   13.98
   5  -4   8   30.76   20.57
  -5   1  -8   10.89   14.11
  -5   1  -8   62.17   30.42
   4  -5  -8   10.53   16.83
   1  -5   8   16.41   20.23
  -4  -1   8   20.92   17.75
  -4   5  -8   31.98   20.05
  -1  -4  -8   11.30   19.99
   0   0  -9    0.04    4.35
   0   0   9    0.52    5.25
   0   0  -9    5.38    9.63
   0  -1   9    1.02    5.84
  -1   0  -9    4.49    8.73
   1  -1  -9    0.11    8.58
  -1   0   9   -7.28    5.00
  -1   1  -9   -0.64    6.06
   0  -1   9    5.27    6.57
   1   0   9   -4.23    5.59
   1  -1   9    2.92    6.36
   1  -1  -9    7.59    4.06
  -1   0  -9   -3.19    4.76
   0  -1  -9    4.89    5.65
  -1   0   9    1.60    4.18
   0   1  -9    0.44    8.45
   0   1   9    1.82    5.43
   0   1  -9    0.49    4.86
  -1   1  -9    3.38    7.79
   1   0  -9   10.37    9.64
  -1   1   9    2.23    6.26
   0  -1  -9   -2.87    5.86
  -2   1  -9   -2.51    8.32
  -1   2   9    2.97    5.85
  -1   2  -9    0.13    6.42
  -1  -1   9    2.72    6.34
   1   1   9    3.41    6.27
  -1  -1  -9    7.32    5.93
  -2   1   9    3.59    6.37
   1  -2   9   -4.19    6.42
  -2   1  -9    8.23    6.98
   1   1  -9   -4.28    6.88
   1  -2   9    8.98    7.64
   2  -1  -9    1.20    8.59
   2  -1   9   -2.90    6.33
  -1  -1  -9    9.75    9.36
   1  -2  -9    2.45    7.45
   1  -2  -9    1.87    5.57
  -1  -1   9   -5.77    5.13
  -1   2  -9    6.78    8.00
  -1  -1  -9   -2.73    7.86
  -2   1  -9   -1.82    6.99
   0   2  -9    2.99    7.02
  -2   0  -9   -5.00    8.35
   2   0  -9  -11.09    7.77
   2  -2   9    7.90    8.36
   0  -2   9   -1.43    7.84
   2   0   9   14.30    7.93
   2  -2   9   -2.04    6.03
   0  -2  -9   -1.99    7.43
  -2   0  -9   -1.95    6.72
   0   2   9   -1.37    5.13
  -2   2   9   13.86    7.83
   2  -2  -9   10.90    9.78
   0  -2  -9   13.81    9.78
  -2   2  -9   17.13    9.77
   0  -2   9   -5.67    6.86
  -2   0  -9   -7.36    4.98
  -2   0   9   -2.99    6.24
  -2   2  -9   -4.60    6.65
  -3   2  -9    0.33    9.27
   1  -3  -9   14.73   10.24
   2   1  -9    2.30    9.73
  -2  -1  -9    6.35    8.93
  -1  -2   9   -4.51    7.97
   1  -3  -9    5.22   10.90
  -3   2  -9    3.52    8.22
  -2  -1  -9    0.02   11.06
  -1   3  -9    7.98   11.33
   2  -3   9    6.35   10.95
  -3   2  -9    1.99    9.53
   3  -1   9   10.56    8.79
  -1  -2   9   -7.51    5.94
   1   2   9    4.61    7.31
   2  -3   9   11.07    8.28
   3  -2  -9   -3.87    9.27
  -3   1   9   -6.06    6.38
  -3   2   9   -5.50    7.49
   2  -3  -9   11.90   12.47
  -2  -1   9   -3.81    9.21
  -1  -2  -9   -3.43    9.93
  -1  -2  -9   16.78   12.19
  -2  -1   9   16.64    9.23
  -3   1  -9   13.26    8.80
  -3   1  -9   -0.99   10.38
   1  -3   9  -14.90    7.70
   2  -3  -9  -10.41    7.16
   2   1   9   11.26    8.26
  -2   3  -9   -4.00   10.98
   3  -2   9   -4.06    7.61
  -1  -2  -9    3.80    7.48
  -2   3  -9    0.48    9.03
   1  -3   9   -6.14    9.33
  -3   1  -9    8.75    8.38
   1   2  -9   -1.96    7.70
   3  -1  -9    2.60   10.88
   0   3  -9   -5.68    8.37
   0  -3   9   -1.82   10.50
  -3   0  -9    8.13   13.79
  -3   3  -9    6.95   12.08
   0  -3  -9    9.82   11.48
   0  -3   9    1.74    8.83
   3  -3   9  -10.05    8.87
   0  -3  -9   -6.46   10.01
   3  -3  -9   10.98   14.62
   3   0   9   14.49    9.05
   3  -3   9   -6.69    6.86
  -3   0   9    2.83    9.83
  -3   3  -9    6.62   13.17
  -3   0  -9   -0.30    8.47
  -2  -2   9   -0.18   10.83
   2  -4   9   -1.13   13.46
  -2   4  -9  -15.86    9.95
  -4   2   9   15.67   12.37
  -2  -2  -9    2.41   10.05
   4  -2   9   -2.06   10.05
   4  -2  -9   -8.33   12.01
  -4   2  -9  -10.77   12.50
  -4   2  -9   -1.08    9.47
  -2  -2   9   -9.89   10.73
   2   2   9   -3.33    7.79
   2  -4  -9   -1.27   10.70
   2  -4  -9   -5.06    9.49
  -2  -2  -9   -0.43   14.81
  -4   3  -9   -2.09   15.54
   1  -4  -9   -9.89   11.18
  -3  -1  -9   -2.86    8.88
   1  -4  -9    3.60   13.67
   4  -3  -9    4.45   13.10
  -4   1   9    4.65   11.63
   3  -4   9  -10.08   10.65
  -3  -1  -9    6.79   15.99
  -4   3  -9   15.02   14.27
  -1  -3   9   -4.76   10.42
  -1  -3   9   23.56   15.87
   4  -1   9   19.00   11.87
  -1   4  -9  -17.17   11.88
   4  -3   9   -2.21    9.59
   4  -3   9    7.70   14.36
  -4   1  -9   -0.41    9.64
  -4   1  -9    4.57   12.87
   1  -4   9    0.77   13.61
  -3  -1   9  -15.68    9.13
  -1  -3  -9    5.33   15.26
   3   1   9    7.34    9.24
   3  -4  -9  -22.22   10.64
  -3   4  -9   -3.70   12.18
  -4   0  -9   13.67   14.74
   4   0   9    9.55   11.83
  -4   0   9   -4.43   11.75
  -4   4  -9   -5.71   12.00
  -4   0  -9  -10.91   16.12
   0  -4   9   24.99   15.75
   4  -4   9   -0.06   14.95
   4  -4  -9    3.18   14.68
   0  -4  -9   -1.71   12.89
  -4   4  -9   26.26   19.36
   2  -5  -9    2.55   14.43
  -2   5  -9   -2.53   13.65
  -2  -3   9    6.44   16.43
  -5   2   9   -3.55   11.62
  -5   3  -9    9.49   17.57
  -5   3  -9    5.41   12.69
   5  -2   9    3.54   12.95
   3  -5   9   13.97   19.98
  -3  -2  -9   13.20   17.88
  -2  -3   9   -1.06   15.11
  -3  -2  -9   -0.59   12.40
  -3   5  -9   -2.73   12.34
  -2  -3  -9   -4.50   14.94
   5  -3   9   -8.21   11.61
   2  -5   9  -14.49   17.35
  -5   2  -9   -6.33   11.23
   5  -3   9  -10.56   13.82
   3  -5  -9   -9.75   13.23
  -3  -2   9   -1.93   11.51
  -5   2  -9  -16.86   18.55
   3   2   9   -8.29   10.22
  -5   1   9   15.91   16.46
   1  -5  -9    1.18   16.75
  -5   4  -9    1.58   14.51
   4  -5   9    2.18   16.94
  -4  -1  -9    1.19   14.11
   5  -1   9   14.66   13.53
  -1  -4   9   -5.71   19.08
   5  -4  -9   10.77   19.67
  -4  -1  -9    8.82   19.79
  -1   5  -9    5.16   18.43
  -5   4  -9   -5.55   19.77
  -4   5  -9   -3.64   14.14
  -5   1  -9  -11.42   11.51
  -1  -4  -9    0.81   19.30
  -4  -1   9    1.28   14.63
   5  -4   9    7.21   16.45
   1  -5   9   12.72   16.52
   4   1   9   -7.45   11.13
   4  -5  -9  -28.26   13.93
  -5   1  -9   17.13   24.63
   0   0  10 1093.23   40.56
   0   0 -10 1037.39   36.44
   0   0 -10 1127.48   50.59
   1  -1 -10   16.74   11.08
   0  -1 -10   -8.66    7.07
  -1   1  10    9.56    6.83
  -1   0 -10    8.59    7.28
  -1   0  10   10.30    5.31
   0   1  10   -1.55    5.65
   1  -1 -10   11.52    4.82
  -1   1 -10   10.20   10.30
   0   1 -10   16.22   11.56
   0   1 -10   12.47    7.21
  -1   1 -10    9.18    7.21
  -1   0  10    7.90    7.07
   0  -1  10    9.78    7.11
   1   0  10   14.11    7.31
   1  -1  10    7.09    7.02
   0  -1  10    5.71    6.85
   1   0 -10   21.20   11.65
  -1   0 -10   17.58   10.66
   0  -1 -10    7.91    6.54
  -1  -1 -10  758.14   41.41
   1   1  10  750.26   33.53
  -2   1 -10  763.32   41.66
   1   1 -10  776.56   39.75
  -1   2  10  766.52   31.14
  -2   1  10  706.67   34.96
   1  -2  10  729.18   34.37
   1  -2  10  745.66   38.64
   1  -2 -10  783.29   31.01
   2  -1  10  733.51   35.52
   1  -2 -10  796.84   43.73
  -1   2 -10  731.52   40.08
  -2   1 -10  694.85   36.57
  -1   2 -10  732.04   37.53
   2  -1 -10  738.78   41.05
  -1  -1 -10  783.45   40.02
  -1  -1  10  742.56   32.79
  -1  -1  10  717.79   36.40
   2  -2  10   16.71    8.70
   0   2 -10   21.50   11.62
   2  -2 -10    8.57   10.27
  -2   0 -10    4.66    8.33
   2   0 -10    3.65   11.05
  -2   2 -10   19.59   10.58
  -2   2 -10   27.85   13.19
  -2   0 -10    2.63    9.35
   0   2  10    8.98    7.19
   0  -2  10   16.51    9.50
   0  -2  10    7.58    8.74
   0  -2 -10   10.58    8.68
   2   0  10   -0.01    6.68
  -2   0 -10   13.89    8.05
  -2   2  10   23.76    9.47
  -2   0  10    6.25    9.01
   2  -2  10   15.52   11.86
   0  -2 -10   16.06   11.68
   2  -3  10    7.08   12.25
   2   1 -10   10.93   11.71
  -3   2 -10    7.14   11.73
  -2  -1 -10    5.01    8.16
  -2  -1 -10    8.25   11.71
  -3   2 -10   17.45   11.85
   3  -2 -10    8.95   12.17
   1  -3 -10   13.13   10.32
   2  -3  10    9.28    8.37
   1  -3 -10   -5.95    9.32
  -1  -2  10   -5.60    9.54
  -1  -2  10    3.22   10.11
  -1   3 -10   17.95   12.65
  -3   1  10    4.99    9.12
   1   2  10   23.32    9.98
   3  -1  10    6.93    8.22
  -3   1 -10   12.39    9.35
  -3   1 -10   34.45   12.93
   2   1  10   22.82   10.67
   1  -3  10   18.42   13.99
   3  -1 -10    4.23   12.30
  -2   3 -10   25.88   13.57
  -1  -2 -10    3.52   10.29
  -1  -2 -10   -9.01   10.98
  -3   1 -10   -2.84   11.49
  -3   2  10    6.29   10.48
   2  -3 -10    9.69   11.29
  -2   3 -10    7.40   13.36
   1  -3  10   15.70    9.92
   1   2 -10   -0.49    8.49
   3  -2  10    6.30    9.13
  -2  -1  10   21.60   11.52
  -3   0 -10  426.99   37.39
   3   0  10  454.15   38.19
   0  -3  10  443.07   30.14
   0  -3 -10  358.10   38.37
  -3   0 -10  440.17   45.90
  -3   3 -10  501.10   47.44
  -3   3 -10  556.80   51.10
   3  -3  10  400.79   43.72
   0   3 -10  423.83   40.33
   0  -3  10  536.29   47.84
  -3   0  10  414.77   39.29
   3  -3  10  455.05   29.57
   3  -3 -10  480.34   46.51
   0  -3 -10  381.94   38.42
  -2  -2 -10  345.75   33.18
   2  -4 -10  242.54   34.68
   4  -2  10  362.92   35.49
   2  -4  10  342.84   41.32
  -2  -2  10  294.15   33.00
  -2  -2  10  396.39   47.07
  -4   2  10  402.34   38.63
  -2   4 -10  330.76   41.30
   2   2  10  360.74   33.93
  -2  -2 -10  355.07   42.48
   4  -2 -10  343.61   39.48
  -4   2 -10  320.48   33.25
  -4   2 -10  330.29   41.25
  -4   3 -10  -11.25   15.40
  -4   3 -10   25.67   14.27
  -1   4 -10   -7.15   12.74
  -3  -1 -10  -15.15    9.84
  -4   1  10   -9.19   10.97
   4  -1  10   12.92   10.70
   1  -4 -10  -16.32   10.29
  -1  -3  10   -4.51   10.81
  -1  -3  10   -5.51   13.46
   1  -4 -10   12.44   12.15
  -3  -1 -10    9.49   15.48
   4  -3 -10  -15.10   13.07
   3  -4  10  -20.81   11.46
  -3   4 -10   -4.82    9.95
   3   1  10   11.79   10.52
  -4   1 -10    3.53   10.15
   1  -4  10   40.85   20.40
   3  -4 -10   -5.39   12.47
   4  -3  10   -8.17   10.32
   4  -3  10    6.39   14.61
  -4   1 -10    5.09   15.49
  -1  -3 -10    9.36   13.15
  -3  -1  10    0.79   11.25
  -4   4 -10   28.00   16.37
   0  -4 -10   -3.84   14.90
   4  -4  10    7.22   15.28
  -4   4 -10   12.17   16.35
   4  -4 -10   20.78   16.05
   4   0  10   23.18   12.60
  -4   0 -10    8.24   20.40
  -4   0 -10  -21.83    9.04
   0  -4  10  -12.33   12.90
  -4   0  10   10.78   13.36
  -5   2  10   11.32   15.91
   5  -2  10    5.73   12.35
  -5   3 -10  -12.72   11.02
  -3  -2 -10    3.17   16.51
   2  -5 -10  -18.68   13.37
  -3  -2 -10   23.81   14.98
  -2  -3  10  -16.45   12.48
  -5   3 -10   15.67   19.68
   3  -5  10   18.90   20.68
  -2   5 -10   11.20   15.09
  -3   5 -10   10.68   15.30
   5  -3  10   -2.19   13.90
   2  -5  10   -3.01   20.45
  -5   2 -10    2.16   20.24
  -3  -2  10   -4.98   13.34
   3  -5 -10   -6.87   13.42
  -2  -3 -10   42.43   24.41
  -5   2 -10   -1.40   11.29
   3   2  10   18.15   13.53
   5  -3  10   25.35   17.69
   0   0  11  -10.26    4.83
   0   0 -11   14.88   10.66
   0   0 -11    4.99    5.93
   1   0  11 1976.46   60.87
   0   1 -11 1997.59   58.31
  -1   1  11 2033.42   61.89
   1   0 -11 1928.97   71.83
  -1   1 -11 1953.43   71.98
  -1   1 -11 1941.68   62.97
   0  -1  11 2039.62   62.59
   0  -1 -11 2005.35   59.59
   1  -1 -11 1976.38   48.22
   0   1 -11 1895.50   70.12
   0  -1  11 1945.10   58.30
  -1   0  11 1872.39   61.92
  -1   0  11 2002.44   48.23
  -1   0 -11 1982.59   71.78
   0   1  11 1993.13   59.37
   1  -1  11 1954.45   61.66
   0  -1 -11 1882.76   71.71
   1  -1 -11 1982.59   72.02
  -1   0 -11 1937.89   63.71
   1  -2  11   -2.11    7.15
  -1  -1 -11   -6.42    7.44
  -2   1  11    6.80    7.31
   1   1 -11  -12.45    8.76
  -1   2 -11    3.61    8.13
  -1   2  11   12.72    7.64
   2  -1 -11    3.22   10.37
   1  -2 -11   -2.59    5.48
   1  -2 -11   20.75   12.64
  -2   1 -11   11.22   10.78
   1   1  11   -2.37    6.38
  -2   1 -11    4.85    9.31
  -1  -1 -11  -10.67    9.75
  -1  -1  11   -7.76    6.73
   2  -1  11    1.18    7.68
  -1   2 -11   -7.50    7.16
   1  -2  11    3.75    8.24
  -1  -1  11    6.30    7.17
  -2   0 -11 1468.05   53.70
  -2   2 -11 1580.10   63.09
   0  -2 -11 1355.68   60.90
   2   0 -11 1434.38   60.78
   0  -2  11 1352.51   53.03
  -2   2  11 1454.20   50.79
  -2   2 -11 1389.62   59.61
   2  -2 -11 1413.05   63.17
  -2   0  11 1454.04   56.26
   0   2  11 1467.03   48.76
  -2   0 -11 1444.83   62.36
   2  -2  11 1443.64   60.45
  -2   0 -11 1465.27   55.64
   0  -2 -11 1470.91   55.81
   2   0  11 1441.07   53.61
   0  -2  11 1385.25   55.76
   0   2 -11 1470.49   60.12
   2  -2  11 1446.64   52.63
   3  -2 -11 1164.53   57.78
  -3   2 -11 1177.29   54.85
   2  -3  11 1124.06   45.95
  -1  -2  11 1087.21   49.85
  -1  -2  11 1072.31   48.67
  -3   2 -11 1145.84   58.51
  -2  -1 -11 1066.50   57.05
   1  -3 -11 1123.04   48.82
   3  -1  11 1061.78   49.30
   1  -3 -11 1132.82   58.63
  -2  -1 -11 1014.45   46.12
   1   2  11 1079.63   45.16
  -1   3 -11 1116.89   57.64
   2   1 -11 1151.92   50.97
   2  -3  11 1082.56   56.24
  -3   1  11 1050.66   51.72
  -1  -2 -11 1104.09   56.56
   3  -1 -11 1289.00   58.92
   1  -3  11 1060.88   56.31
   2  -3 -11 1132.23   59.47
  -3   2  11 1175.55   50.19
  -3   1 -11 1215.53   61.05
  -2  -1  11 1121.13   51.98
  -1  -2 -11 1111.85   54.48
  -2   3 -11 1084.79   56.59
  -3   1 -11 1141.42   50.40
   2   1  11 1015.34   46.36
   3  -2  11 1202.04   51.31
  -3   1 -11 1141.82   48.18
   1   2 -11 1148.51   50.55
  -2   3 -11 1091.01   57.46
   1  -3  11 1170.63   48.72
   3   0  11   -7.39    8.04
   0  -3  11    0.14    9.52
   0   3 -11   -9.18   10.63
  -3   3 -11   -3.22   12.34
  -3   0  11  -13.24    9.26
   3  -3 -11  -10.47    9.85
  -3   0 -11    8.72    8.93
   0  -3 -11    9.31   14.13
   0  -3 -11  -11.33    8.50
   3  -3  11   -0.61    8.56
   3  -3  11   13.27   11.91
  -3   0 -11   -5.12   13.22
   0  -3  11   -7.87   10.48
  -3   3 -11    3.38   12.37
  -4   2 -11    2.43   14.12
  -4   2  11  -13.19    9.71
  -2  -2  11    0.97   12.71
  -2  -2 -11    3.88   10.29
  -4   2 -11   -2.05   10.63
   4  -2 -11    6.07   15.15
   2   2  11   12.49   11.08
  -2  -2 -11   -4.27   11.92
  -2   4 -11    2.74   12.82
   4  -2  11    9.10   11.31
   2  -4 -11   -5.48   12.57
   2  -4  11   -9.65   12.12
  -3  -1 -11  710.32   43.07
  -1  -3  11  741.50   49.42
  -1  -3  11  689.50   43.07
   4  -3 -11  741.91   52.88
   1  -4 -11  700.18   50.01
  -3  -1 -11  591.19   57.08
  -1   4 -11  679.13   49.45
   4  -1  11  679.46   44.38
   1  -4 -11  682.43   45.73
  -4   1  11  756.73   48.11
  -4   3 -11  671.14   46.49
   3  -4  11  731.87   65.02
  -4   3 -11  697.74   52.73
  -4   1 -11  736.27   45.70
   1  -4  11  695.75   61.67
  -1  -3 -11  690.04   50.13
  -4   1 -11  628.61   59.28
  -3   4 -11  659.97   50.75
   4  -3  11  686.87   51.95
   4  -3  11  643.51   41.87
   3   1  11  727.68   43.14
  -3  -1  11  620.14   43.62
   3  -4 -11  675.29   50.94
  -4   4 -11  513.81   56.83
  -4   0 -11  608.55   43.55
  -4   0 -11  544.08   59.83
   0  -4 -11  602.75   55.83
   4  -4  11  573.51   60.40
   0   4 -11  586.43   77.61
   4   0  11  567.96   40.45
   0  -4  11  569.04   56.65
   4  -4 -11  555.48   59.30
  -4   0  11  626.94   53.81
  -4   4 -11  461.16   49.26
   2  -5 -11  360.32   46.24
  -5   3 -11  543.12   58.78
  -3  -2 -11  459.21   56.89
  -5   2  11  611.65   55.44
   5  -2  11  400.48   43.07
   3  -5  11  539.66   63.94
  -3  -2 -11  458.06   44.72
  -2   5 -11  554.65   59.04
  -2  -3  11  489.78   47.46
  -5   2 -11  479.40   46.73
  -5   2 -11  461.85   54.99
  -2  -3 -11  373.78   46.94
  -3   5 -11  388.03   49.45
  -3  -2  11  503.75   49.37
   5  -3  11  486.26   48.41
   5  -3  11  411.94   50.92
   2  -5  11  518.29   60.30
   3  -5 -11  454.32   54.20
   3   2  11  410.37   40.85
   0   0  12 2645.29   75.09
   0   0 -12 2554.17   88.37
   0   0 -12 2569.58   68.63
   1   0  12  169.52   20.84
   0  -1  12  207.75   21.49
   0   1 -12  145.08   18.86
  -1   1  12  132.53   18.97
  -1   0  12  126.54   18.99
  -1   0 -12   84.85   20.47
   1   0 -12  195.63   14.58
   0  -1 -12  162.22   27.33
   1  -1 -12  165.33   25.73
   0  -1 -12  162.29   19.50
   0  -1  12  196.96   24.11
   0   1  12  138.78   18.38
   1  -1  12  168.31   21.47
  -1   1 -12  136.69   20.45
   1  -1 -12  167.18   15.23
  -1   1 -12  150.97   24.93
  -1   0  12  192.25   15.79
  -1   0 -12  181.95   23.19
   0   1 -12  141.07   25.17
   1   0 -12  189.43   28.03
   2  -1  12 1851.08   62.88
  -1   2 -12 1705.30   69.56
  -1  -1  12 1843.06   64.60
  -1  -1  12 1760.01   54.38
   1  -2  12 1787.29   64.74
   1   1  12 1750.84   58.89
   2  -1 -12 1633.26   68.64
   1   1 -12 1810.81   68.69
  -2   1  12 1698.39   61.42
  -1  -1 -12 1704.57   64.83
  -2   1 -12 1798.96   68.79
   1  -2 -12 1763.84   52.77
  -1   2 -12 1796.55   64.63
  -1  -1 -12 1810.62   71.00
  -2   1 -12 1795.61   67.24
   1  -2 -12 1719.22   71.53
  -1   2  12 1705.32   54.97
   1  -2  12 1663.71   59.83
   0  -2 -12   93.21   20.99
  -2   0 -12   92.37   20.04
   0  -2 -12  122.08   19.33
   0  -2  12  132.15   20.83
   0   2 -12  136.01   25.07
   2  -2  12   90.31   19.54
   0  -2  12  100.11   18.99
  -2   0 -12  126.40   22.11
   2   0  12  124.27   19.30
   2   0 -12  155.14   25.85
  -2   2 -12  168.43   27.17
   2  -2 -12   96.66   22.88
  -2   2  12  108.13   17.45
  -2   0  12  149.74   22.26
   0   2  12  154.07   19.39
  -2   2 -12  158.84   24.95
   2  -2  12  143.74   20.92
  -2  -1 -12   99.82   19.23
   2   1 -12   77.02   18.95
  -2  -1 -12   94.37   21.86
  -1   3 -12   54.51   18.32
   2  -3  12  107.73   24.42
   3  -1  12  103.97   19.32
   1   2  12  101.37   17.67
  -3   1  12   91.24   19.90
  -1  -2  12  112.08   20.81
   3  -2 -12  112.08   24.92
   2  -3  12   98.80   18.70
   1  -3 -12   77.11   22.95
   1  -3 -12  106.60   19.79
  -3   2 -12  101.40   21.59
  -1  -2  12   79.17   18.01
  -3   2 -12   95.84   21.90
  -1  -2 -12  124.63   25.73
   2  -3 -12  107.39   25.51
  -2  -1  12   46.10   15.45
  -3   1 -12  138.68   26.98
   2   1  12  117.75   20.58
  -3   2  12   92.36   18.75
   1   2 -12   72.78   18.27
   3  -1 -12  104.81   25.01
  -1  -2 -12  128.21   25.16
  -2   3 -12  102.75   22.94
   1  -3  12   87.60   18.58
  -2   3 -12   92.35   22.42
   3  -2  12   96.21   19.35
   1  -3  12   83.39   22.20
  -3   1 -12   92.66   19.66
  -3   1 -12   69.20   15.97
   3   0  12 1124.01   52.57
   0  -3  12  906.02   53.79
  -3   3 -12 1086.15   57.73
  -3   0 -12  974.44   60.93
   0  -3 -12  941.77   52.00
  -3   3 -12 1063.57   59.96
   3  -3  12 1120.24   60.90
   0   3 -12 1105.54   56.46
   3  -3  12 1034.16   48.58
   0  -3  12 1168.83   51.85
  -3   0 -12 1129.54   53.38
   3  -3 -12 1061.86   60.68
   0  -3 -12 1076.81   59.58
  -3   0  12  992.90   54.32
  -2  -2  12  762.40   48.23
  -2  -2 -12  836.77   44.94
  -2   4 -12  806.47   54.23
  -4   2 -12  833.68   57.36
  -4   2  12  766.48   47.39
   2  -4 -12  738.46   53.38
   4  -2  12  850.70   48.73
   4  -2 -12  855.76   54.74
   2  -4  12  889.80   58.47
   2   2  12  901.91   45.92
  -2  -2 -12  794.10   56.54
  -4   3 -12   82.08   25.39
  -3  -1 -12   70.26   18.45
   1  -4 -12   60.16   19.76
  -3  -1 -12   50.58   21.94
   4  -1  12   59.37   18.56
  -1   4 -12   60.59   23.05
  -4   1  12   63.47   19.81
   1  -4 -12   67.11   23.80
   4  -3 -12   60.25   22.48
  -1  -3  12   38.83   20.28
   3  -4  12   78.60   24.80
  -1  -3  12   45.07   18.23
  -4   3 -12   71.70   21.67
  -1  -3 -12   44.75   20.78
   1  -4  12   51.62   21.97
  -4   1 -12   71.89   19.25
  -3  -1  12   48.85   18.38
   4  -3  12   77.09   19.09
   4  -3  12   53.56   23.34
   3   1  12   28.64   14.04
   3  -4 -12   76.09   25.19
  -4   1 -12   85.68   29.09
  -3   4 -12   76.85   23.52
  -3   4 -12   17.47   18.40
   4  -4  12   21.75   18.71
  -4   0 -12   16.82   15.30
   0  -4 -12   46.16   22.40
   0  -4  12   16.71   19.16
  -4   0  12   87.27   25.26
  -4   4 -12   28.96   17.90
   4  -4 -12   46.93   21.68
   4   0  12   73.15   20.41
  -4   0 -12   39.88   20.43
  -4   4 -12   35.12   17.00
  -5   2  12   43.79   21.16
  -5   3 -12   71.88   26.75
  -2  -3  12   24.72   17.90
   3  -5  12   53.98   24.99
  -3  -2 -12   10.95   21.11
  -2   5 -12   50.71   22.81
  -3  -2 -12   52.90   21.47
   2  -5 -12   78.15   28.55
   5  -2  12   25.04   16.44
   5  -3  12   45.66   20.70
  -5   2 -12   50.42   20.01
  -3  -2  12    4.13   17.47
  -5   2 -12   54.19   24.79
  -3   5 -12   26.68   19.82
  -2  -3 -12   32.42   22.62
   2  -5  12   26.49   22.32
   3   2  12   64.09   19.91
   5  -3  12   27.16   18.46
   3  -5 -12   25.65   20.45
   0   0 -13   -1.95   12.47
   0   0  13   -4.66    6.54
   0   0 -13    4.92    7.20
  -1   0  13  206.01   25.55
  -1   1  13  212.93   23.89
   0  -1  13  172.90   22.05
   1   0 -13  223.19   16.73
   1   0  13  205.92   24.17
   0  -1 -13  281.33   37.48
  -1   1 -13  260.61   27.93
   0   1 -13  205.68   29.70
   0  -1 -13  227.79   23.89
  -1   0 -13  300.55   36.06
   1  -1  13  261.22   27.08
   1   0 -13  237.04   33.22
  -1   1 -13  292.37   37.47
  -1   0 -13  236.16   26.43
   0  -1  13  242.09   23.88
   0   1 -13  210.14   22.27
   0   1  13  203.35   23.35
   1  -1 -13  244.97   16.60
   1  -1 -13  169.00   27.83
  -1   0  13  234.49   15.83
   1   1  13    4.77    8.27
  -2   1 -13  -11.22    8.90
   2  -1  13    8.25   10.14
   1  -2  13   -7.53    8.21
  -2   1  13   -3.77    8.97
  -1   2 -13   12.39   12.38
  -1   2 -13   -4.76    8.71
  -1  -1 -13   -0.62    8.86
   2  -1 -13   14.76   14.62
  -1   2  13   -0.73    8.02
  -1  -1 -13    3.31   12.11
   1  -2  13    1.66    8.59
   1   1 -13   -1.92   11.60
  -2   1 -13   12.76   12.37
  -1  -1  13   -1.18   10.00
  -1  -1  13    5.49    8.23
   1  -2 -13   15.69   14.26
   1  -2 -13    2.33    7.52
   0  -2 -13  143.89   22.49
  -2   2  13  141.33   20.67
  -2   0  13  173.86   25.32
  -2   2 -13  152.04   26.39
  -2   2 -13  133.56   22.92
   2  -2 -13  151.44   27.33
   2  -2  13  150.68   23.06
  -2   0 -13  144.74   25.88
   2   0 -13  168.89   27.73
   2   0  13  129.26   20.64
   0  -2  13  177.39   25.51
   0  -2  13  203.74   26.58
   0   2  13  182.29   22.00
   2  -2  13  189.73   27.02
  -2   0 -13  152.92   25.05
   0   2 -13  155.07   27.15
   0  -2 -13  152.83   27.76
  -3   1  13  117.21   23.02
   3  -1  13  101.83   19.46
  -1  -2  13  105.56   21.18
  -3   2 -13   76.13   20.69
   1  -3 -13  129.58   21.28
   2  -3  13  111.00   23.95
  -1   3 -13  129.47   27.07
   1  -3 -13  131.03   28.33
   3  -2 -13  157.70   30.06
   1   2  13  168.27   23.35
   2   1 -13  136.93   24.75
   2  -3  13  105.21   19.45
  -1  -2  13  123.07   22.61
  -3   2 -13  144.59   25.77
  -2  -1 -13   87.69   22.58
  -3   1 -13  109.31   26.34
   1  -3  13  137.38   24.11
   1  -3  13  123.94   24.44
   2   1  13  119.68   20.76
   1   2 -13  133.41   25.25
  -2  -1  13  100.12   20.12
  -1  -2 -13  112.01   24.75
  -3   1 -13  143.29   23.55
   2  -3 -13  134.76   29.53
  -2   3 -13  120.84   25.31
  -2   3 -13   96.19   21.92
   3  -1 -13  133.89   28.61
   3  -2  13  139.64   22.52
  -3   2  13  140.95   22.68
  -1  -2 -13   62.89   19.11
   0   3 -13   15.16   15.57
   3  -3  13   -8.68   11.45
   0  -3  13   -2.56   11.38
   0  -3 -13   -6.42   13.02
   3  -3 -13   -9.32   12.87
  -3   0 -13  -13.26    9.57
  -3   3 -13  -18.00    9.69
  -3   3 -13   -8.55   12.93
   0  -3  13    2.58   12.53
   3   0  13   -3.14    9.66
  -3   0 -13   -2.02   13.46
  -3   0  13   -0.85    9.74
   3  -3  13   -2.85    8.94
   0  -3 -13    9.96   14.34
  -4   2  13  -13.52    9.68
  -2  -2 -13    6.15   18.04
   2   2  13   -1.21   10.86
   2  -4  13  -15.08   13.65
  -2  -2  13   -4.77   10.71
  -2   4 -13    3.05   14.38
  -4   2 -13    5.11   17.38
   4  -2  13    1.66   12.25
   2  -4 -13    2.35   18.63
   4  -2 -13  -22.55   14.71
   1  -4 -13   99.29   25.65
  -3  -1 -13  101.30   21.88
  -4   3 -13  101.48   25.81
  -1  -3  13   48.94   18.83
   4  -1  13   49.75   17.67
  -3  -1 -13  118.52   31.18
  -4   1  13   77.41   21.26
  -4   3 -13   71.78   25.22
   4  -3 -13   -0.21   16.61
   1  -4 -13  102.71   24.19
  -1  -3  13   80.59   24.55
  -1   4 -13   81.02   25.09
   3  -4  13   88.54   28.40
   3   1  13   75.26   18.19
   1  -4  13   69.15   23.35
   3  -4 -13   73.69   24.87
  -3   4 -13   67.44   23.02
  -4   1 -13   93.12   28.00
  -4   1 -13   91.18   22.11
  -3   4 -13  104.49   29.15
  -3  -1  13   73.80   21.27
  -1  -3 -13   70.41   26.52
   4  -3  13   75.22   18.58
   4  -3  13  102.43   28.62
   4  -4  13   89.43   28.89
  -4   4 -13   75.11   24.48
  -4   0 -13   97.16   24.05
   0  -4  13   46.92   22.17
   4  -4 -13  105.54   30.99
  -4   4 -13   59.09   22.24
  -4   0  13   57.78   19.75
   4   0  13   56.55   18.41
   0  -4 -13   17.70   16.02
  -4   0 -13  101.90   29.71
   0   0 -14 2809.59   76.62
   0   0  14 2798.79   83.67
   0   0 -14 2832.40   98.61
   0  -1 -14 1196.47   47.62
   0  -1 -14 1234.35   62.58
  -1   0  14 1061.12   49.78
  -1   1 -14 1142.25   61.59
  -1   1 -14 1167.52   50.41
  -1   1  14 1223.31   51.50
   0  -1  14 1162.15   50.92
   0   1  14 1145.45   47.85
   0  -1  14 1152.39   45.51
  -1   0 -14 1309.09   62.61
   1   0 -14 1184.13   61.33
   0   1 -14 1188.53   46.50
   1  -1 -14 1235.55   62.87
   0   1 -14 1377.28   64.00
   1   0  14 1205.27   49.83
   1  -1  14 1085.55   49.07
  -1   0 -14 1127.15   50.59
   1  -2  14 2135.56   74.13
   1  -2  14 2128.45   72.27
  -1  -1  14 2030.60   73.62
   1   1 -14 2044.00   79.63
   2  -1 -14 2008.25   84.88
  -1  -1 -14 1978.02   81.38
  -1  -1 -14 2121.01   76.56
  -1   2 -14 2087.03   84.50
   1   1  14 2195.04   70.43
  -1   2  14 2088.30   66.90
   1  -2 -14 2163.88   86.26
  -2   1  14 2118.64   73.01
  -1   2 -14 2069.09   73.70
  -2   1 -14 2147.89   79.28
   2  -1  14 2029.94   71.54
  -2   1 -14 2044.89   77.61
  -1  -1  14 2325.46   87.55
   2   0  14  878.96   45.06
   2  -2 -14  859.85   54.03
  -2   2  14  964.90   45.29
   2  -2  14  879.00   44.98
  -2   0 -14  906.98   49.43
   0  -2 -14  846.41   53.05
   0  -2 -14  882.07   44.45
  -2   0  14  907.91   47.20
   0  -2  14  984.27   48.40
   0  -2  14  874.57   46.34
  -2   2 -14  929.68   53.65
  -2   2 -14  839.79   49.23
   2  -2  14  874.79   49.33
   0   2 -14  819.69   51.08
   2   0 -14  921.64   53.80
   0   2  14  892.80   41.45
  -2   0 -14  951.91   52.29
  -2  -1 -14  802.90   52.84
  -3   2 -14  620.99   43.96
   3  -1  14  701.55   43.89
   2   1 -14  709.82   45.13
   1  -3 -14  795.86   54.24
   2  -3  14  695.13   47.30
  -3   2 -14  668.91   48.09
  -1  -2  14  775.19   44.23
  -1  -2  14  782.20   45.17
   1   2  14  777.71   40.25
   3  -2 -14  645.96   48.95
  -1   3 -14  736.65   51.00
  -3   1  14  661.65   43.89
   2  -3  14  747.03   41.48
   2   1  14  699.06   41.84
   3  -2  14  650.89   41.89
  -1  -2 -14  726.21   48.27
   3  -1 -14  707.04   51.55
  -2   3 -14  624.38   48.47
   1   2 -14  619.60   44.39
  -2   3 -14  628.47   45.35
  -1  -2 -14  769.94   51.53
  -3   1 -14  685.63   50.95
   1  -3  14  695.19   46.80
  -3   1 -14  748.39   43.02
   2  -3 -14  512.70   51.28
   1  -3  14  686.82   42.60
  -3   2  14  694.70   42.10
  -2  -1  14  684.88   44.04
   0  -3  14 1288.01   63.58
   3   0  14 1208.27   57.28
   3  -3  14 1090.83   63.12
  -3   3 -14 1294.42   68.30
   0   3 -14 1254.45   64.36
   3  -3 -14 1362.87   72.20
  -3   0  14 1143.22   59.67
  -3   0 -14 1211.41   67.61
  -3   3 -14 1260.59   67.61
   3  -3  14 1191.85   56.41
   0  -3 -14 1250.60   67.06
   0  -3 -14 1224.50   61.06
   0  -3  14 1284.00   58.36
  -2   4 -14  985.82   63.77
  -2  -2 -14 1091.32   67.54
   2  -4  14  984.13   64.19
   2   2  14 1028.38   53.09
   4  -2  14 1100.76   58.06
  -4   2 -14  934.58   61.98
  -2  -2  14 1122.88   59.07
   2  -4 -14 1118.60   69.88
   4  -2 -14 1126.11   65.20
  -4   2  14 1005.94   54.08
  -4   3 -14  361.98   45.47
  -3  -1 -14  393.03   50.62
  -1   4 -14  459.20   50.84
  -1  -3  14  512.10   45.98
   4  -3 -14  470.09   52.09
  -1  -3  14  493.86   53.29
  -4   1  14  498.55   49.15
  -3  -1 -14  489.80   45.39
   3  -4  14  490.95   54.59
   4  -1  14  458.77   43.93
   1  -4 -14  422.52   47.78
  -4   3 -14  362.76   42.58
  -3   4 -14  480.26   54.36
   3   1  14  466.62   44.51
  -4   1 -14  457.76   53.77
   1  -4  14  473.31   52.02
   4  -3  14  416.48   41.14
  -3   4 -14  539.50   58.14
   4  -3  14  418.90   50.25
  -4   1 -14  400.86   41.14
  -3  -1  14  461.80   46.12
   3  -4 -14  516.45   59.55
  -1  -3 -14  483.52   50.94
   4  -4  14  333.41   50.20
  -4   0 -14  298.75   46.67
   0  -4 -14  350.68   44.67
   0  -4  14  404.58   49.42
  -4   4 -14  407.95   51.53
   4  -4 -14  552.59   62.91
  -4   0  14  398.96   45.64
  -4   0 -14  376.32   41.46
   4   0  14  303.10   36.80
  -4   4 -14  392.55   49.84
   0   0  15  -13.08    6.35
   0   0 -15    9.53    8.69
   0   0 -15   -2.85   13.32
   1   0 -15   74.05   21.55
   0  -1  15   58.15   15.70
   1  -1 -15   70.40   21.56
  -1   1 -15   26.85   11.12
  -1   0 -15   41.05   18.40
   0   1  15   56.63   14.83
   0  -1 -15   51.32   13.14
  -1   1 -15   46.65   19.47
  -1   0 -15   76.01   18.51
  -1   1  15   60.53   16.96
   0  -1 -15   87.80   24.06
   1   0  15   31.83   13.01
  -1   0  15   37.76   13.87
   0   1 -15   45.95   19.83
   0  -1  15   80.00   15.49
   0   1 -15   59.41   15.22
   1  -1  15   66.80   16.78
   1  -2 -15   -3.61   11.90
   2  -1 -15    2.07   12.62
   1   1  15    7.96    9.54
  -1  -1  15   -3.29    9.36
  -1   2 -15  -17.12    9.92
  -1   2  15    2.08    9.79
   1  -2  15   -3.99    9.41
  -2   1 -15   -0.40   10.92
   2  -1  15    3.59    9.53
  -1  -1 -15   -1.18   11.96
  -2   1  15    6.51   10.70
  -2   1 -15   -6.72   12.22
   1  -2  15   12.24   10.61
   1   1 -15   -4.03   11.70
  -1   2 -15   -3.15   10.51
  -1  -1 -15   -3.75   13.57
   2  -2  15   40.41   16.03
  -2   0  15   21.67   12.76
  -2   2 -15   70.31   20.60
   0  -2  15   82.57   19.37
   0  -2 -15   27.05   19.96
   2  -2  15   35.09   15.14
   2   0 -15   67.96   20.83
   0   2 -15   51.35   20.28
   2  -2 -15   72.12   22.33
  -2   0 -15   54.35   20.31
  -2   2 -15   35.78   17.75
  -2   0 -15   43.21   17.02
   2   0  15   26.52   11.89
   0  -2  15   30.39   14.34
   0  -2 -15   49.65   16.37
   0   2  15   61.68   16.44
  -2   2  15   73.24   16.75
   3  -1  15   12.27   12.43
  -3   2 -15   45.31   19.82
  -1  -2  15   37.18   16.68
  -3   1  15   16.31   14.53
   3  -2 -15   21.81   15.77
   2   1 -15   46.46   19.34
  -2  -1 -15   22.32   19.04
  -1   3 -15   12.83   14.42
  -3   2 -15   26.74   15.06
   1  -3 -15   35.07   18.05
   2  -3  15    7.81   13.12
   1   2  15   56.62   15.49
   2  -3  15   32.30   15.07
   1  -3  15   56.01   18.39
  -2   3 -15   42.95   18.15
   3  -1 -15   51.81   22.11
   2   1  15    8.20   10.91
  -3   1 -15   37.36   15.73
  -3   1 -15   37.00   19.59
  -1  -2 -15   44.94   18.27
  -3   2  15   35.24   15.36
  -2  -1  15   19.59   14.62
  -2   3 -15   40.69   20.12
   1   2 -15   32.02   18.16
   2  -3 -15   47.85   21.57
   3  -2  15   66.86   18.76
  -1  -2 -15   23.23   19.85
   1  -3  15   32.40   15.88
  -3   0 -15    1.26   13.09
  -3   3 -15   -3.41   12.39
   0  -3  15    6.88   13.46
   0  -3  15  -11.52   12.96
   0   3 -15    0.11   15.27
   0  -3 -15   13.92   17.45
  -3   0  15    0.12   11.40
  -3   3 -15   12.94   16.46
   3  -3  15   -5.26   11.90
   3  -3  15    6.11   16.11
   3   0  15  -15.59    7.63
   0  -3 -15   23.60   16.13
   3  -3 -15   -8.15   15.40
  -2   4 -15    3.36   16.62
   2  -4 -15   -8.61   13.67
   4  -2 -15   -4.58   18.16
  -2  -2  15    5.52   10.79
   4  -2  15   -1.11   12.45
  -4   2  15  -10.33   12.88
  -2  -2 -15   25.29   20.57
  -4   2 -15   11.64   16.34
   2   2  15   18.07   13.00
   2  -4  15  -22.98   11.08
  -1   4 -15    2.39   17.99
  -4   3 -15   22.81   19.00
  -4   3 -15   28.42   20.16
   4  -3 -15   22.38   20.68
   4  -1  15   21.15   15.59
   3  -4  15   27.32   20.07
  -3  -1 -15   27.10   19.63
   1  -4 -15   23.69   19.75
  -1  -3  15   25.95   18.39
  -4   1  15   35.68   16.11
   3   1  15   11.78   14.73
   4  -3  15   25.45   20.04
   1  -4  15    8.91   16.64
  -3   4 -15   20.85   20.27
  -3  -1  15   36.32   17.66
   4  -3  15   23.86   15.06
   3  -4 -15    5.26   17.48
  -1  -3 -15   -2.78   14.94
  -3   4 -15   10.32   15.57
  -4   1 -15   18.68   19.97
   0   0 -16   61.63   14.91
   0   0  16   49.81   15.63
   0   0 -16   29.53   15.98
  -1   1 -16  151.95   23.92
   0  -1 -16  140.09   20.94
   0  -1  16  113.42   21.01
   1  -1 -16  182.72   33.09
   1  -1  16  130.04   23.02
   1   0 -16  104.77   25.84
  -1   0  16  124.69   22.30
   0  -1 -16  125.61   29.06
  -1   0 -16  151.63   29.60
  -1   0 -16  176.76   25.89
  -1   1 -16  164.96   32.63
   0   1  16  136.53   22.12
   1   0  16  152.16   23.74
   0   1 -16  136.52   26.92
   0  -1  16  146.88   21.13
   0   1 -16  125.60   20.20
  -1   1  16  132.81   22.37
  -2   1  16   18.25   13.44
   1  -2  16   45.18   15.04
   1  -2 -16   63.99   21.28
  -1   2  16   49.09   15.73
  -1  -1 -16   32.01   19.01
  -2   1 -16   35.43   16.77
  -1   2 -16   17.80   15.65
  -2   1 -16   -0.15   12.42
   1   1  16   25.74   12.44
   1  -2  16   48.28   15.91
   1   1 -16   66.68   20.30
   2  -1 -16   82.63   23.87
  -1   2 -16   14.29   18.43
   2  -1  16   40.15   15.50
  -1  -1  16   10.32   11.32
  -1  -1 -16   48.93   16.58
   0  -2 -16  113.59   21.18
   2   0  16   99.94   21.13
  -2   0 -16  103.86   24.64
  -2   2 -16  103.22   25.84
   2  -2 -16  104.47   27.10
   2   0 -16  111.22   24.53
  -2   2 -16   90.66   22.76
  -2   0  16  108.70   23.21
   0  -2  16  100.83   21.42
   0  -2 -16  124.84   29.72
   2  -2  16  124.16   25.48
  -2   2  16  109.44   21.33
   0  -2  16  111.40   22.96
   0   2 -16  118.95   26.60
   2  -2  16   91.77   20.33
  -2   0 -16  148.42   26.95
   0   2  16  117.26   21.11
  -2  -1 -16   91.03   24.04
   3  -1  16   97.18   22.79
   1  -3 -16   99.06   27.74
   1   2  16   79.88   19.81
  -1  -2  16  118.00   24.38
   2   1 -16  111.01   26.05
  -1   3 -16   74.29   23.96
   2  -3  16   90.68   22.87
   3  -2 -16   99.72   25.13
  -3   1  16   74.51   19.82
  -3   2 -16  109.48   24.97
  -3   2 -16   84.52   23.94
   2  -3  16   78.15   19.81
  -1  -2 -16  109.47   25.87
  -3   1 -16   76.14   20.91
  -1  -2 -16   69.00   27.98
   1   2 -16   92.71   24.48
   2   1  16   50.54   16.38
  -2   3 -16   55.71   20.19
   3  -2  16  111.54   23.31
  -3   1 -16  105.41   27.23
   2  -3 -16  110.06   28.82
  -3   2  16   69.60   19.35
   1  -3  16   89.16   22.56
   1  -3  16   76.97   22.50
  -2   3 -16   77.14   24.88
   3  -1 -16   72.57   23.88
  -2  -1  16   93.54   24.33
  -3   3 -16   27.57   18.57
   3  -3  16   48.00   18.75
  -3   3 -16   30.95   19.22
   0  -3 -16   -1.98   17.74
   0  -3 -16   16.76   15.14
  -3   0 -16   14.97   16.78
   3  -3  16   34.87   19.22
   0   3 -16   28.72   18.83
   3  -3 -16    2.05   16.41
   3   0  16   24.27   16.11
  -3   0  16   38.40   16.74
   0  -3  16    8.45   16.20
   0  -3  16   24.19   16.95
   4  -2 -16    5.80   20.99
  -4   2  16   14.09   14.81
  -4   2 -16   58.66   23.62
  -2  -2  16   12.63   13.80
   2  -4 -16   49.47   23.89
   4  -2  16   30.10   17.53
   2   2  16   14.98   13.60
  -2  -2 -16    7.79   18.01
  -2   4 -16   14.26   16.94
   2  -4  16   18.12   20.28
   3  -4  16   73.30   27.51
  -4   3 -16   20.38   18.78
   1  -4 -16   51.27   23.50
  -1  -3  16   55.53   22.13
  -1   4 -16   45.81   24.14
   4  -1  16   46.10   19.28
  -4   1  16   35.44   18.14
  -4   3 -16   39.88   21.14
  -3  -1 -16   63.12   24.83
   4  -3 -16   36.82   24.12
  -1  -3 -16   38.80   22.70
   3   1  16   68.08   19.78
   4  -3  16   52.73   22.53
   1  -4  16   26.98   21.29
   3  -4 -16   53.37   24.74
   4  -3  16   26.54   17.07
  -3   4 -16   46.38   21.33
  -4   1 -16   61.62   24.20
  -3  -1  16   65.07   21.48
  -3   4 -16   57.54   27.73
   0   0 -17   -1.77    9.44
   0   0  17   -0.73    9.22
   0   0 -17    2.51   14.14
   1  -1 -17   79.94   25.17
  -1   0 -17   54.18   21.29
   0  -1  17   70.08   15.96
  -1   0  17   42.44   16.90
  -1   1  17   46.79   15.72
   0  -1 -17   66.11   23.33
   0  -1  17   72.03   18.66
   1  -1  17   56.40   16.76
   1   0 -17   -3.32   14.58
   0   1 -17   23.31   12.85
  -1   1 -17   22.34   20.35
   0  -1 -17   39.25   13.99
  -1   0 -17   46.59   17.03
  -1   1 -17   19.08   12.51
   0   1  17   50.20   15.23
   1   0  17   42.63   15.56
   0   1 -17   42.53   20.47
   1  -2  17    7.28   13.07
  -2   1 -17   -3.63   14.78
  -1   2  17    2.52   10.96
   1  -2 -17   -3.70   16.57
  -1  -1 -17   -9.46   11.83
   1   1 -17   12.46   14.37
  -2   1 -17   -0.32   14.67
  -2   1  17   -1.69   11.71
   2  -1  17    7.16   11.27
   1   1  17   12.92   12.41
  -1  -1 -17   16.46   17.17
  -1   2 -17   -3.92   12.79
  -1   2 -17   -3.32   11.92
   1  -2  17   -6.01    9.45
   2  -1 -17   -8.03   16.74
  -1  -1  17   -0.34   12.50
   2  -2 -17   35.76   21.35
   0   2  17   31.93   14.10
   0  -2  17   29.43   15.51
   2  -2  17   22.62   15.91
   2   0 -17   22.08   19.31
   0  -2 -17   28.93   19.60
  -2   0 -17   31.12   17.08
  -2   0 -17   19.70   17.44
   0  -2 -17   24.42   14.69
  -2   2  17   23.62   14.65
   0  -2  17   46.11   18.19
   2  -2  17   15.79   13.40
   0   2 -17   57.60   20.90
  -2   2 -17   31.50   18.48
  -2   2 -17   19.40   14.73
  -2   0  17   28.26   15.42
   2   0  17   26.47   12.99
   1  -3 -17   76.16   24.68
  -1  -2  17   17.23   14.16
  -3   2 -17   39.50   19.10
  -2  -1 -17   55.25   19.88
   2  -3  17   76.40   23.43
  -3   1  17    4.01   13.81
   2  -3  17   11.33   13.37
   3  -2 -17   -5.55   14.89
  -3   2 -17    6.03   14.77
  -1   3 -17   13.76   17.62
   1   2  17   36.97   15.62
   2   1 -17    5.07   16.71
   3  -1  17   17.97   15.37
  -2  -1  17   35.87   17.15
  -2   3 -17    6.17   17.15
   1   2 -17   50.34   21.67
   2  -3 -17   30.81   19.51
  -1  -2 -17   21.30   16.38
  -3   2  17   28.68   15.62
  -3   1 -17   18.52   17.30
   3  -2  17   11.62   15.36
   1  -3  17   34.64   17.37
   1  -3  17   28.77   16.60
   2   1  17   27.34   16.42
  -2   3 -17   35.37   20.12
  -3   1 -17   39.62   17.57
   3  -1 -17   45.61   24.09
   3  -3  17   22.04   19.03
   0  -3 -17   22.94   22.00
  -3   0 -17    7.38   15.45
   0  -3  17    6.13   15.74
   0  -3  17  -24.04   13.72
   0   3 -17   20.80   19.22
   3  -3  17    1.44   13.08
   3  -3 -17   -1.48   16.61
  -3   0  17   12.29   14.57
   3   0  17    4.51   11.61
  -3   3 -17  -12.04   14.40
   0  -3 -17   26.08   18.29
  -3   3 -17    3.20   14.87
  -2  -2 -17   13.50   18.15
  -4   2 -17   23.95   19.99
   2  -4  17    7.51   19.46
  -2   4 -17   -8.97   13.32
   2   2  17   13.28   13.33
   4  -2 -17   -0.41   20.51
   2  -4 -17  -19.02   17.24
   4  -2  17   27.34   19.78
  -2  -2  17  -11.91   11.84
  -4   2  17    0.56   13.54
  -3  -1 -17   17.04   20.61
   3  -4  17    0.99   19.44
  -4   3 -17   -3.47   17.13
   4  -1  17   14.01   14.73
  -1   4 -17   -2.67   17.34
  -4   1  17   44.57   18.86
  -1  -3  17   -4.68   17.08
   4  -3 -17   29.46   22.46
  -4   3 -17   -1.93   15.27
   1  -4 -17   41.94   23.68
  -4   1 -17    6.45   19.21
  -3   4 -17   21.83   22.65
  -1  -3 -17    2.68   18.86
   4  -3  17    3.99   20.29
   3   1  17   28.06   17.25
  -3   4 -17   25.15   19.58
  -3  -1  17   12.53   16.69
   4  -3  17    9.48   16.58
   3  -4 -17    1.84   17.42
   1  -4  17   -0.54   19.13
   0   0 -18 2138.07   69.85
   0   0  18 2029.77   77.26
   0   0 -18 2022.51   90.81
   1  -1  18  185.24   28.10
   1  -1 -18  180.79   35.22
   0   1  18  204.20   28.99
  -1   1  18  158.10   27.06
   0  -1 -18  270.15   30.53
  -1   0 -18  238.24   31.69
   0   1 -18  166.45   32.16
   0  -1 -18  171.14   33.19
   1   0  18  178.33   27.02
   1   0 -18  211.56   34.28
  -1   0  18  194.61   28.78
  -1   1 -18  213.19   37.25
  -1   1 -18  240.48   30.40
   0   1 -18  233.36   28.65
   0  -1  18  181.49   24.21
  -1   0 -18  176.45   33.34
   0  -1  18  183.52   27.79
  -1   2 -18 1514.77   80.16
   1  -2  18 1594.07   67.06
  -2   1 -18 1657.93   78.34
   2  -1 -18 1556.02   81.91
  -2   1 -18 1601.91   72.78
   1  -2 -18 1642.87   85.78
   1  -2  18 1589.13   68.78
   2  -1  18 1565.51   69.58
  -1   2 -18 1644.38   69.74
   1   1  18 1709.67   68.16
  -1  -1 -18 1659.64   80.23
  -1  -1 -18 1723.68   71.51
  -2   1  18 1445.86   66.88
  -1   2  18 1632.02   66.14
  -1  -1  18 1525.29   70.23
   1   1 -18 1600.81   77.52
  -2   2  18  157.15   26.58
  -2   0 -18  115.39   27.91
   0   2 -18  155.50   31.50
  -2   2 -18  182.73   30.41
   0  -2 -18  150.74   31.86
   2   0 -18  153.21   31.75
  -2   0 -18  143.99   30.53
   0  -2  18  140.40   25.64
   2  -2 -18  116.10   32.49
   2  -2  18  120.35   25.01
   0  -2 -18  152.98   30.00
  -2   0  18  138.88   27.16
   2   0  18  108.34   21.92
   2  -2  18  164.90   28.71
  -2   2 -18  154.76   31.70
   0  -2  18  146.76   25.62
   0   2  18   70.78   18.80
  -1   3 -18   81.84   27.80
  -3   1  18  169.85   30.07
  -3   2 -18  182.86   32.14
   3  -2 -18   83.60   26.34
   2   1 -18  112.19   27.99
   1   2  18  144.12   25.68
   2  -3  18  143.95   27.19
   1  -3 -18  118.76   29.20
  -3   2 -18  169.51   32.25
  -1  -2  18  145.91   29.41
   3  -1  18  132.32   26.06
   2  -3  18  114.30   25.78
  -2  -1 -18  164.62   32.50
   2   1  18  107.38   22.12
   3  -1 -18   73.14   26.52
  -1  -2 -18  158.83   31.06
   1  -3  18  126.65   25.54
   1  -3  18  149.92   27.94
   2  -3 -18  110.84   29.22
   3  -2  18  136.13   26.97
  -2   3 -18  122.64   31.60
  -3   2  18  131.08   25.31
  -2   3 -18   99.58   26.48
  -3   1 -18   52.65   21.58
  -2  -1  18  104.27   24.36
   1   2 -18  121.14   28.53
  -3   1 -18  122.80   25.92
  -3   3 -18 1088.74   66.63
   0  -3  18 1014.66   58.16
  -3   0 -18 1104.04   70.74
   0  -3 -18 1151.87   74.80
   3  -3  18 1149.98   68.48
  -3   0  18  974.73   59.03
   0   3 -18 1064.76   66.93
   3   0  18  974.29   56.78
  -3   3 -18  933.49   66.91
   0  -3  18 1142.72   64.57
   3  -3  18 1111.36   59.43
   3  -3 -18 1139.27   73.61
   0   0 -19   20.72   17.57
   0   0  19   25.59   13.99
   0  -1  19  699.53   46.96
   1   0 -19  868.02   58.78
   0  -1 -19  844.94   60.48
  -1   0 -19  766.49   56.85
  -1   0 -19  798.52   48.73
  -1   1  19  727.82   47.73
   0   1 -19  709.34   54.55
   1   0  19  746.05   46.75
  -1   1 -19  814.03   60.96
  -1   1 -19  789.65   47.94
   1  -1  19  812.53   45.11
  -1   0  19  865.88   51.67
   1  -1 -19  707.93   66.73
   0   1  19  801.87   47.18
   2  -1 -19   -7.02   18.55
   2  -1  19    0.76   11.52
  -2   1 -19   -1.25   14.45
  -1  -1 -19    6.31   13.76
  -1   2 -19   -3.35   12.78
  -1   2  19   -1.74   10.97
   1  -2 -19  -16.25   16.01
  -2   1  19   -4.73    9.80
  -1  -1 -19   -1.61   16.23
   1   1 -19   -2.50   15.06
  -1  -1  19   -8.94   10.54
   1   1  19    7.69   11.56
   1  -2  19   11.57   12.79
   1  -2  19  -13.11    9.31
  -2   1 -19  -18.18   11.81
  -1   2 -19   13.68   16.28
  -2   0  19  683.48   48.45
  -2   2  19  633.56   43.12
   0  -2 -19  614.52   62.41
  -2   2 -19  546.04   50.56
   2  -2 -19  608.03   65.75
   2   0 -19  584.57   58.76
   0   2  19  695.92   43.38
   0   2 -19  580.52   58.74
   2   0  19  597.75   42.45
   2  -2  19  679.12   46.61
   0  -2  19  615.51   52.31
   2  -2  19  582.38   51.88
  -2   0 -19  483.94   51.33
  -2   0 -19  517.67   52.39
  -2   2 -19  443.65   53.98
  -3   2 -19  627.47   61.92
   1   2  19  476.84   43.74
  -1   3 -19  409.61   51.16
   2  -3  19  477.60   45.85
   2  -3  19  538.29   53.19
  -3   1  19  351.75   40.97
  -2  -1 -19  493.38   51.95
   3  -1  19  514.53   50.07
   3  -2 -19  480.29   57.45
  -1  -2  19  487.72   50.86
   1  -3 -19  361.68   50.06
   2   1 -19  591.22   57.90
  -3   2 -19  522.67   53.88
   1   2 -19  603.55   58.99
   2  -3 -19  337.53   46.76
  -3   2  19  475.33   46.56
   2   1  19  487.95   44.76
  -2  -1  19  451.82   47.73
  -3   1 -19  441.61   47.39
  -2   3 -19  678.37   61.83
   3  -2  19  476.77   49.10
  -2   3 -19  472.26   54.87
  -3   1 -19  549.11   56.70
  -1  -2 -19  422.89   47.23
   3  -1 -19  542.78   59.96
   1  -3  19  560.61   53.36
   1  -3  19  507.66   47.27
   3  -3 -19  -15.80   15.63
   0   3 -19    6.52   18.84
  -3   3 -19   10.90   20.39
   0  -3  19   23.65   17.09
   0  -3 -19   -9.95   18.23
   3  -3  19   11.95   17.34
   3  -3  19   -8.68   15.81
  -3   0 -19  -13.81   17.09
  -3   0  19  -11.32   12.87
   3   0  19   41.57   16.88
  -3   3 -19   -1.01   15.57
   0   0 -20    7.24   18.08
   0   0  20    1.82   11.72
   0   1 -20   32.39   20.22
  -1   1 -20   48.56   18.55
   1   0  20   59.02   19.04
   1  -1  20   74.84   20.23
   0   1  20  110.40   23.72
   1  -1  20   60.43   19.13
  -1   0 -20   33.87   20.03
  -1   0 -20  100.61   23.83
  -1   1  20   94.29   23.08
   0  -1  20   74.87   21.32
  -1   1 -20   79.30   27.66
  -1   0  20   51.52   18.13
   1   0 -20   57.90   25.76
   0  -1 -20   71.93   28.03
   1  -1 -20  111.51   29.90
  -1   2 -20    6.35   15.98
   1  -2 -20   11.15   17.69
   2  -1  20   13.00   14.87
  -2   1  20   31.95   17.16
  -1  -1 -20    8.02   17.89
   2  -1 -20   28.29   21.69
  -1  -1  20   10.34   13.67
  -1   2  20   -7.43   13.54
   1  -2  20   13.01   16.14
   1  -2  20   21.59   16.23
   1   1  20   48.64   17.25
  -2   1 -20   17.41   16.15
  -1   2 -20   31.52   20.64
   1   1 -20   18.94   17.23
  -1  -1 -20    9.16   15.36
  -2   1 -20   21.17   20.35
   2   0  20   36.54   16.66
   0   2  20   76.68   21.23
   2  -2 -20    0.96   19.61
  -2   2 -20  111.00   27.14
   0  -2  20   74.18   21.36
   2  -2  20   27.19   17.25
  -2   0 -20   87.30   26.47
  -2   0 -20   72.14   24.51
  -2   2  20   47.78   18.88
   2   0 -20   70.44   28.23
   0   2 -20   35.75   20.05
  -2   2 -20   51.66   24.54
   2  -2  20   63.54   20.33
   0  -2 -20   40.27   24.50
  -2   0  20   49.12   18.47
   1  -3 -20   40.66   24.76
   3  -2 -20   54.16   27.92
  -3   2 -20   62.03   24.45
   2  -3  20   66.66   24.18
  -1   3 -20   37.12   22.21
  -3   1  20   73.20   23.49
   1   2  20   18.89   16.95
  -2  -1 -20  102.60   27.88
  -3   2 -20   73.35   27.98
   3  -1  20   35.76   18.25
   2  -3  20   93.73   26.55
  -1  -2  20   42.84   21.01
   2   1 -20   80.53   28.66
  -2   3 -20   31.76   22.88
   1  -3  20   58.74   21.08
  -3   1 -20   87.02   37.63
   2  -3 -20   36.15   22.80
  -2   3 -20   66.05   24.31
  -2  -1  20   73.85   24.86
  -1  -2 -20   71.42   25.08
   3  -1 -20   65.99   27.84
   3  -2  20   92.42   23.96
   2   1  20   45.38   19.60
  -3   2  20   39.15   19.27
   1   2 -20   57.98   25.67
   1  -3  20   82.21   23.48
  -3   1 -20   46.40   24.06
   0   0 -21   -5.17   15.81
   0   0  21   -0.06   13.25
   1   0  21  742.73   49.70
  -1   0  21  819.31   51.87
  -1   1 -21  788.20   50.67
  -1   0 -21  679.49   66.10
   0   1  21  745.61   49.30
   1  -1  21  760.56   49.67
   1  -1  21  700.88   45.03
   1   0 -21  817.78   61.62
   1  -1 -21  702.34   69.58
  -1   0 -21  745.59   50.45
  -1   1  21  817.39   51.87
   0  -1  21  717.56   50.01
   0   1 -21  697.98   66.75
  -1   1 -21  618.67   62.36
   0  -1 -21  722.32   69.60
   1  -2  21   -3.82   14.60
  -1  -1  21    5.73   16.37
  -2   1  21    1.29   14.53
  -1   2 -21    3.72   18.72
   2  -1  21    2.27   12.67
  -1   2  21  -16.40   13.01
   1  -2 -21   26.41   20.70
   1   1 -21   -5.08   14.95
  -1  -1 -21  -20.30   14.02
   1   1  21   -4.69   13.17
   2  -1 -21   -8.74   16.55
  -1  -1 -21    3.65   15.71
  -2   1 -21   -0.07   15.07
  -1   2 -21    3.42   18.42
   1  -2  21   -5.54   13.02
  -2   1 -21  -23.39   14.52
   0   2 -21  522.68   57.73
  -2   0 -21  494.59   53.19
   2   0  21  783.66   50.40
   0  -2  21  732.17   61.28
   2   0 -21  417.61   51.72
   2  -2 -21  581.70   63.58
   2  -2  21  588.45   52.81
  -2   0  21  633.95   57.48
  -2   2 -21  534.21   60.35
  -2   2 -21  803.31   56.94
   0  -2 -21  537.52   60.34
   0   2  21  570.20   50.45
   2  -2  21  516.61   49.32
  -2   0 -21  596.21   58.07
  -2   2  21  517.60   49.45
   0   0  22   39.73   17.96
   0   0 -22   41.05   22.54
  -1   0 -22   24.54   20.99
  -1   0 -22   -6.49   15.21
  -1   1  22   32.71   17.87
   0  -1  22   -1.14   16.05
   1  -1  22  -13.25   12.44
   1  -1  22   -4.97   12.48
  -1   1 -22   11.18   17.58
   0   1  22    4.19   13.12
  -1   1 -22    4.19   16.15
   1   0  22   -2.61   12.88
   0   1 -22   20.07   19.11
   0  -1 -22    4.96   17.21
   1  -1 -22   11.81   16.63
   1   0 -22    5.74   16.68
  -1   0  22   22.28   16.31
  -1  -1 -22   12.46   20.85
  -1   2 -22   41.35   23.43
   1  -2  22   45.56   22.12
  -2   1 -22   11.66   17.57
  -1  -1  22   -3.29   14.78
  -1   2 -22   26.69   22.71
   2  -1 -22   26.87   24.59
   1  -2 -22   25.35   25.13
   2  -1  22   32.35   18.96
  -1  -1 -22   27.72   31.06
  -2   1  22   12.91   14.94
  -1   2  22    6.50   16.52
  -2   1 -22   36.84   22.17
   1   1  22   51.82   18.92
   1   1 -22   15.77   18.84
   1  -2  22   12.32   16.80
   2   0  22    1.31   12.58
   0   2 -22   -4.26   17.03
   2   0 -22    5.18   20.11
  -2   2  22    7.31   14.45
   2  -2 -22    9.93   19.10
   0   2  22   35.97   18.31
  -2   2 -22    0.86   16.17
   0  -2  22   13.66   18.55
   0  -2 -22   31.24   24.10
  -2   0 -22   -5.50   16.74
  -2   0 -22    5.56   17.38
  -2   2 -22   29.63   21.11
   2  -2  22   19.44   16.21
   2  -2  22  -17.24   14.74
  -2   0  22  -16.93   12.39
   0   0 -23   -6.44   13.04
   0   0  23   -9.57   14.01
  -1   0  23  168.27   32.05
   0   1 -23  245.49   42.71
  -1   1  23  210.25   33.13
   0  -1  23  162.31   31.58
   1  -1  23  217.30   37.43
   1   0 -23  188.24   40.80
   0   1  23  212.78   32.77
   0  -1 -23  181.15   38.05
  -1   0 -23  181.07   35.57
  -1   1 -23  148.64   34.73
   1   0  23  176.50   29.98
   1  -1 -23  183.04   39.69
  -2   1 -23   17.07   18.61
  -2   1 -23  -15.52   17.42
  -1   2  23    5.38   15.68
  -2   1  23  -18.07   13.57
   1   1 -23    5.17   19.44
   1  -2 -23   18.35   20.09
   1   1  23   -2.65   15.77
   2  -1 -23   -1.63   19.73
  -1   2 -23  -21.00   15.87
   2  -1  23    0.81   14.60
  -1  -1  23  -14.59   13.65
  -1  -1 -23   22.06   21.14
   1  -2  23   -2.41   15.64
   0   0 -24   14.45   21.05
   0   0  24   18.96   16.23
   1  -1  24    6.03   17.12
   1   0 -24    1.54   20.15
  -1   1 -24   21.48   20.16
   0  -1 -24   10.02   21.42
   0   1  24   49.07   20.26
  -1   0 -24   18.11   20.85
  -1   1  24    0.20   14.24
   0  -1  24    5.36   15.35
   0   1 -24  -11.76   16.44
   1  -1 -24   46.81   25.21
   1   0  24   21.07   17.83
  -1   0  24    1.18   15.24
   0   0   0    0.00    0.00


 _exptl_absorpt_process_details
)
 SADABS 2016/2: Krause, L., Herbst-Irmer, R., Sheldrick G.M. & Stalke D.,
 J. Appl. Cryst. 48 (2015) 3-10
)
 _exptl_absorpt_correction_type   multi-scan
 _exptl_absorpt_correction_T_max  0.2644
 _exptl_absorpt_correction_T_min  0.1865
 _exptl_special_details
)
 The following wavelength and cell were deduced by SADABS from the
 direction cosines etc. They are given here for emergency use only:
 CELL 0.71073    4.154    4.154   17.755   89.986   90.014  120.009
)

_computing_structure_solution     'SHELXT 2018/2 (Sheldrick, 2018)'
;
_shelx_hkl_checksum              48091
_olex2_submission_special_instructions 'No special instructions were received'
loop_
_space_group_symop_operation_xyz
'x, y, z'
'-y, x-y, z'
'-x+y, -x, z'
'-x, -y, z+1/2'
'y, -x+y, z+1/2'
'x-y, x, z+1/2'
'y, x, -z'
'x-y, -y, -z'
'-x, -x+y, -z'
'-y, -x, -z+1/2'
'-x+y, y, -z+1/2'
'x, x-y, -z+1/2'
'-x, -y, -z'
'y, -x+y, -z'
'x-y, x, -z'
'x, y, -z-1/2'
'-y, x-y, -z-1/2'
'-x+y, -x, -z-1/2'
'-y, -x, z'
'-x+y, y, z'
'x, x-y, z'
'y, x, z-1/2'
'x-y, -y, z-1/2'
'-x, -x+y, z-1/2'
loop_
_atom_site_label
_atom_site_type_symbol
_atom_site_fract_x
_atom_site_fract_y
_atom_site_fract_z
_atom_site_U_iso_or_equiv
_atom_site_adp_type
_atom_site_occupancy
_atom_site_site_symmetry_order
_atom_site_calc_flag
_atom_site_refinement_flags_posn
_atom_site_refinement_flags_adp
_atom_site_refinement_flags_occupancy
_atom_site_disorder_assembly
_atom_site_disorder_group
In In 0.333333 0.666667 0.17198(2) 0.01029(15) Uani 1 6 d S T P . .
As As 0.333333 0.666667 0.60362(3) 0.00922(16) Uani 1 6 d S T P . .
Ca Ca 0.000000 0.000000 0.000000 0.0108(3) Uani 1 12 d S T P . .
loop_
_atom_site_aniso_label
_atom_site_aniso_U_11
_atom_site_aniso_U_22
_atom_site_aniso_U_33
_atom_site_aniso_U_23
_atom_site_aniso_U_13
_atom_site_aniso_U_12
In 0.01020(17) 0.01020(17) 0.0105(2) 0.000 0.000 0.00510(9)
As 0.0085(2) 0.0085(2) 0.0106(3) 0.000 0.000 0.00427(10)
Ca 0.0098(5) 0.0098(5) 0.0129(8) 0.000 0.000 0.0049(2)
loop_
_atom_type_symbol
_atom_type_description
_atom_type_scat_dispersion_real
_atom_type_scat_dispersion_imag
_atom_type_scat_source
As As 0.0499 2.0058 'International Tables Vol C Tables 4.2.6.8 and 6.1.1.4'
Ca Ca 0.2262 0.3064 'International Tables Vol C Tables 4.2.6.8 and 6.1.1.4'
In In -0.7276 1.3100 'International Tables Vol C Tables 4.2.6.8 and 6.1.1.4'
loop_
_exptl_crystal_face_index_h
_exptl_crystal_face_index_k
_exptl_crystal_face_index_l
_exptl_crystal_face_perp_dist
1.00 -2.00 -5.00 0.0200
5.00 -3.00 1.00 0.0180
-1.00 1.00 -4.00 0.0270
0.00 1.00 -6.00 0.0360
0.00 -1.00 6.00 0.0270
-1.00 0.00 4.00 0.0330
1.00 -1.00 4.00 0.0130
1.00 0.00 -5.00 0.0290
1.00 6.00 6.00 0.0260
-2.00 -2.00 -5.00 0.0330
-4.00 4.00 -3.00 0.0290
1.00 0.00 -2.00 0.0270
-4.00 1.00 4.00 0.0200
loop_
_geom_angle_atom_site_label_1
_geom_angle_atom_site_label_2
_geom_angle_atom_site_label_3
_geom_angle
_geom_angle_site_symmetry_1
_geom_angle_site_symmetry_3
_geom_angle_publ_flag
In In Ca 141.847(8) 16_556 1_665 ?
In In Ca 141.847(8) 16_556 . ?
In In Ca 141.847(8) 16_556 1_565 ?
As In In 116.838(14) 4_564 16_556 ?
As In In 116.838(14) 4_674 16_556 ?
As In In 116.839(14) 4_664 16_556 ?
As In As 101.201(18) 4_674 4_664 ?
As In As 101.201(18) 4_564 4_664 ?
As In As 101.201(18) 4_564 4_674 ?
As In Ca 50.903(10) 4_674 1_665 ?
As In Ca 50.903(10) 4_564 1_565 ?
As In Ca 50.903(10) 4_664 . ?
As In Ca 50.903(10) 4_564 . ?
As In Ca 101.31(2) 4_674 . ?
As In Ca 50.903(10) 4_664 1_665 ?
As In Ca 50.903(10) 4_674 1_565 ?
As In Ca 101.31(2) 4_664 1_565 ?
As In Ca 101.31(2) 4_564 1_665 ?
Ca In Ca 64.687(13) 1_565 . ?
Ca In Ca 64.687(13) 1_565 1_665 ?
Ca In Ca 64.687(14) . 1_665 ?
In As In 101.200(18) 4_675 4_565 ?
In As In 101.199(18) 4_675 4_665 ?
In As In 101.199(18) 4_565 4_665 ?
In As Ca 169.35(2) 4_565 4_665 ?
In As Ca 85.455(10) 4_665 4 ?
In As Ca 85.455(10) 4_565 4 ?
In As Ca 169.35(2) 4_665 4_565 ?
In As Ca 85.455(11) 4_675 4_665 ?
In As Ca 169.35(2) 4_675 4 ?
In As Ca 85.455(11) 4_665 4_665 ?
In As Ca 85.455(11) 4_675 4_565 ?
In As Ca 85.455(10) 4_565 4_565 ?
Ca As Ca 86.817(17) 4_565 4_665 ?
Ca As Ca 86.817(16) 4_565 4 ?
Ca As Ca 86.817(17) 4 4_665 ?
In Ca In 115.313(13) 13 1_445 ?
In Ca In 180.0 13_665 1_445 ?
In Ca In 64.687(13) 13_565 13_665 ?
In Ca In 180.0 . 13 ?
In Ca In 115.313(13) 13_565 1_445 ?
In Ca In 64.687(13) . 1_545 ?
In Ca In 115.313(13) 13_565 . ?
In Ca In 64.687(13) 1_545 1_445 ?
In Ca In 64.687(14) . 1_445 ?
In Ca In 64.687(13) 13_565 13 ?
In Ca In 115.313(14) . 13_665 ?
In Ca In 115.313(14) 1_545 13 ?
In Ca In 64.687(13) 13 13_665 ?
In Ca In 180.0 13_565 1_545 ?
In Ca In 115.313(13) 1_545 13_665 ?
As Ca In 136.358(8) 16_446 1_545 ?
As Ca In 136.358(8) 4_564 13_665 ?
As Ca In 90.665(18) 16_546 13_565 ?
As Ca In 43.642(8) 16_446 13_565 ?
As Ca In 136.357(8) 4_554 13_665 ?
As Ca In 136.358(8) 4_664 13_565 ?
As Ca In 89.335(18) 4_564 13_565 ?
As Ca In 43.642(8) 16_556 13_565 ?
As Ca In 89.334(18) 4_664 13_665 ?
As Ca In 136.358(8) 4_554 13_565 ?
As Ca In 90.665(18) 4_564 1_545 ?
As Ca In 136.358(8) 16_546 . ?
As Ca In 90.666(18) 4_554 . ?
As Ca In 43.642(8) 4_564 . ?
As Ca In 43.642(8) 16_546 13_665 ?
As Ca In 43.642(8) 4_564 1_445 ?
As Ca In 90.666(18) 16_446 13_665 ?
As Ca In 90.666(18) 4_664 1_445 ?
As Ca In 43.643(8) 16_556 13_665 ?
As Ca In 136.357(8) 4_664 13 ?
As Ca In 89.335(18) 16_546 1_545 ?
As Ca In 90.666(18) 16_556 13 ?
As Ca In 89.334(18) 4_554 13 ?
As Ca In 136.358(8) 16_556 1_545 ?
As Ca In 136.358(8) 16_546 1_445 ?
As Ca In 43.642(8) 4_554 1_545 ?
As Ca In 89.334(18) 16_446 1_445 ?
As Ca In 136.357(8) 16_446 . ?
As Ca In 136.357(8) 16_556 1_445 ?
As Ca In 43.643(8) 4_554 1_445 ?
As Ca In 43.643(8) 4_664 . ?
As Ca In 43.642(8) 16_546 13 ?
As Ca In 89.334(18) 16_556 . ?
As Ca In 136.358(8) 4_564 13 ?
As Ca In 43.643(8) 16_446 13 ?
As Ca In 43.642(8) 4_664 1_545 ?
As Ca As 86.816(16) 16_546 16_556 ?
As Ca As 180.000(18) 16_556 4_554 ?
As Ca As 93.184(17) 16_546 4_664 ?
As Ca As 93.184(16) 4_564 16_556 ?
As Ca As 86.816(17) 16_546 16_446 ?
As Ca As 86.815(16) 16_446 16_556 ?
As Ca As 180.000(18) 16_446 4_664 ?
As Ca As 93.185(16) 4_664 16_556 ?
As Ca As 180.000(18) 16_546 4_564 ?
As Ca As 93.184(16) 16_546 4_554 ?
As Ca As 93.184(17) 4_564 16_446 ?
As Ca As 86.816(16) 4_564 4_554 ?
As Ca As 86.816(17) 4_564 4_664 ?
As Ca As 93.185(16) 16_446 4_554 ?
As Ca As 86.815(16) 4_664 4_554 ?
loop_
_geom_bond_atom_site_label_1
_geom_bond_atom_site_label_2
_geom_bond_distance
_geom_bond_site_symmetry_2
_geom_bond_publ_flag
In In 2.7659(11) 16_556 ?
In As 2.6841(5) 4_564 ?
In As 2.6841(5) 4_674 ?
In As 2.6841(5) 4_664 ?
In Ca 3.8769(6) . ?
In Ca 3.8769(6) 1_665 ?
In Ca 3.8769(6) 1_565 ?
As Ca 3.0182(5) 4_565 ?
As Ca 3.0182(5) 4_665 ?
As Ca 3.0182(5) 4 ?
