#------------------------------------------------------------------------------
#$Date: 2021-06-05 21:35:52 +0300 (Sat, 05 Jun 2021) $
#$Revision: 266021 $
#$URL: file:///home/coder/svn-repositories/cod/cif/7/70/70/7707082.cif $
#------------------------------------------------------------------------------
#
# This file is available in the Crystallography Open Database (COD),
# http://www.crystallography.net/
#
# All data on this site have been placed in the public domain by the
# contributors.
#
data_7707082
loop_
_publ_author_name
'Akopov, Georgiy'
'Mark, Justin'
'Viswanathan, Gayatri'
'Lee, Shannon J.'
'McBride, Brennan C.'
'Won, Juyeon'
'Perras, Fr\'ed\'eric A'
'Paterson, Alexander L.'
'Yuan, Bing'
'Sen, Sabyasachi'
'Adeyemi, Adedoyin N.'
'Zhang, Feng'
'Wang, Cai-Zhuang'
'Ho, Kai-Ming'
'Miller, Gordon J.'
'Kovnir, Kirill'
_publ_section_title
;
 Third time's the charm: intricate non-centrosymmetric polymorphism in
 <i>Ln</i>SiP<sub>3</sub> (<i>Ln</i> = La and Ce) induced by distortions
 of phosphorus square layers.
;
_journal_issue                   19
_journal_name_full
'Dalton transactions (Cambridge, England : 2003)'
_journal_page_first              6463
_journal_page_last               6476
_journal_paper_doi               10.1039/d1dt00845e
_journal_volume                  50
_journal_year                    2021
_chemical_formula_sum            'La P3 Si'
_chemical_formula_weight         259.91
_space_group_crystal_system      orthorhombic
_space_group_IT_number           41
_space_group_name_Hall           'A 2 -2ab'
_space_group_name_H-M_alt        'A e a 2'
_audit_creation_method           SHELXL-2018/3
_audit_update_record
;
2021-03-28 deposited with the CCDC.	2021-04-09 downloaded from the CCDC.
;
_cell_angle_alpha                90
_cell_angle_beta                 90
_cell_angle_gamma                90
_cell_formula_units_Z            8
_cell_length_a                   5.9650(2)
_cell_length_b                   25.2125(10)
_cell_length_c                   5.8168(2)
_cell_measurement_reflns_used    12611
_cell_measurement_temperature    100(2)
_cell_measurement_theta_max      27.54
_cell_measurement_theta_min      3.23
_cell_volume                     874.80(5)
_computing_structure_refinement  'SHELXL-2018/3 (Sheldrick, 2018)'
_diffrn_ambient_temperature      100(2)
_diffrn_measured_fraction_theta_full 0.995
_diffrn_measured_fraction_theta_max 0.996
_diffrn_measurement_device_type  'Bruker Venture area-detector'
_diffrn_measurement_method       'profile data from \w scans'
_diffrn_radiation_type           MoK\a
_diffrn_radiation_wavelength     0.71073
_diffrn_reflns_av_R_equivalents  0.0301
_diffrn_reflns_av_unetI/netI     0.0122
_diffrn_reflns_Laue_measured_fraction_full 0.995
_diffrn_reflns_Laue_measured_fraction_max 0.996
_diffrn_reflns_limit_h_max       7
_diffrn_reflns_limit_h_min       -7
_diffrn_reflns_limit_k_max       32
_diffrn_reflns_limit_k_min       -32
_diffrn_reflns_limit_l_max       7
_diffrn_reflns_limit_l_min       -7
_diffrn_reflns_number            12611
_diffrn_reflns_point_group_measured_fraction_full 0.997
_diffrn_reflns_point_group_measured_fraction_max 0.997
_diffrn_reflns_theta_full        25.242
_diffrn_reflns_theta_max         27.543
_diffrn_reflns_theta_min         3.232
_diffrn_source                   'fine-focus sealed tube'
_exptl_absorpt_coefficient_mu    10.919
_exptl_absorpt_correction_T_max  0.75
_exptl_absorpt_correction_T_min  0.58
_exptl_absorpt_correction_type   multi-scan
_exptl_absorpt_process_details   SADABS
_exptl_crystal_colour            black
_exptl_crystal_density_diffrn    3.947
_exptl_crystal_description       block
_exptl_crystal_F_000             928
_exptl_crystal_size_max          0.091
_exptl_crystal_size_mid          0.066
_exptl_crystal_size_min          0.061
_refine_diff_density_max         1.072
_refine_diff_density_min         -0.853
_refine_diff_density_rms         0.157
_refine_ls_abs_structure_details
;
 Refined as an inversion twin.
;
_refine_ls_abs_structure_Flack   0.25(4)
_refine_ls_extinction_coef       0.00072(14)
_refine_ls_extinction_expression Fc^*^=kFc[1+0.001xFc^2^\l^3^/sin(2\q)]^-1/4^
_refine_ls_extinction_method     'SHELXL-2018/3 (Sheldrick 2018)'
_refine_ls_goodness_of_fit_ref   1.185
_refine_ls_hydrogen_treatment    undef
_refine_ls_matrix_type           full
_refine_ls_number_parameters     63
_refine_ls_number_reflns         1009
_refine_ls_number_restraints     2
_refine_ls_restrained_S_all      1.184
_refine_ls_R_factor_all          0.0181
_refine_ls_R_factor_gt           0.0171
_refine_ls_shift/su_max          0.002
_refine_ls_shift/su_mean         0.000
_refine_ls_structure_factor_coef Fsqd
_refine_ls_weighting_details
'w=1/[\s^2^(Fo^2^)+(0.0242P)^2^+5.0836P] where P=(Fo^2^+2Fc^2^)/3'
_refine_ls_weighting_scheme      calc
_refine_ls_wR_factor_gt          0.0491
_refine_ls_wR_factor_ref         0.0493
_reflns_Friedel_coverage         0.808
_reflns_Friedel_fraction_full    1.000
_reflns_Friedel_fraction_max     0.998
_reflns_number_gt                968
_reflns_number_total             1009
_reflns_threshold_expression     'I > 2\s(I)'
_cod_data_source_file            d1dt00845e2.cif
_cod_data_source_block           LaSiP3_Aea2
_cod_depositor_comments
'Adding full bibliography for 7707082--7707086.cif.'
_cod_original_sg_symbol_Hall     'A 2 -2ac'
_cod_original_sg_symbol_H-M      'A b a 2'
_cod_database_code               7707082
_shelx_shelxl_version_number     2018/3
_shelx_space_group_comment
;
The symmetry employed for this shelxl refinement is uniquely defined
by the following loop, which should always be used as a source of
symmetry information in preference to the above space-group names.
They are only intended as comments.
;
_shelx_estimated_absorpt_t_min   0.437
_shelx_estimated_absorpt_t_max   0.556
_shelx_res_file
;

TITL LaSiP3_Aea2 in Aba2
    shelx.res
    created by SHELXL-2018/3 at 00:07:12 on 27-Mar-2021
CELL 0.71073   5.96500  25.21250   5.81680  90.0000  90.0000  90.0000
ZERR    8.00   0.00020   0.00100   0.00020   0.0000   0.0000   0.0000
LATT -5
SYMM -X, -Y, Z
SYMM 0.5+X, 0.5-Y, Z
SYMM 0.5-X, 0.5+Y, Z
SFAC SI P LA
UNIT 8 24 8
TEMP -173.150
size .061 .066 .091
acta
L.S. 18
list 4
BOND
FMAP 2
PLAN -20
size .061 .066 .091
eadp p31 p32 p33  p44
eadp si11 si12
eadp p11 p12
twin
sump 1 .001 1 2 1 3 1 4 1 5
WGHT    0.024200    5.083600
EXTI    0.000715
BASF   0.24572
FVAR       0.06259   0.31333   0.37803   0.22542   0.08390   0.96304
LA1   3    0.000484    0.592933    0.547388    11.00000    0.00679    0.01903 =
         0.00433    0.00007    0.00008    0.00116
P11   2    0.941691    0.714174    0.581716    61.00000    0.00442    0.00672 =
         0.00304    0.00012   -0.00298   -0.00164
P12   2    0.074500    0.714104    0.592384   -61.00000    0.00442    0.00672 =
         0.00304    0.00012   -0.00298   -0.00164
SI11  1    0.915031    0.707612    0.968205    61.00000    0.00266    0.00623 =
         0.00310    0.00016   -0.00076   -0.00030
SI12  1    0.074911    0.705277   -0.050367   -61.00000    0.00266    0.00623 =
         0.00310    0.00016   -0.00076   -0.00030
P2    2    0.004403    0.625273    0.050430    11.00000    0.00638    0.00526 =
         0.00389   -0.00215   -0.00039    0.00009
P31   2    0.326878    0.500244    0.722283    21.00000    0.01104
P32   2    0.232203    0.500313    0.334343    31.00000    0.01104
P33   2    0.186587    0.500049    0.758676    41.00000    0.01104
P44   2    0.072914    0.499083    0.945356    51.00000    0.01104
HKLF 4




REM  LaSiP3_Aea2 in Aba2
REM wR2 = 0.0493, GooF = S = 1.185, Restrained GooF = 1.184 for all data
REM R1 = 0.0171 for 968 Fo > 4sig(Fo) and 0.0181 for all 1009 data
REM 63 parameters refined using 2 restraints

END

WGHT      0.0242      4.7833

REM Highest difference peak  1.072,  deepest hole -0.853,  1-sigma level  0.157
Q1    1   0.1924  0.4997  0.9364  11.00000  0.05    1.07
Q2    1  -0.1811  0.5012  0.1272  11.00000  0.05    1.06
Q3    1   0.1293  0.4994  0.8446  11.00000  0.05    0.89
Q4    1   0.1686  0.4993  0.4343  11.00000  0.05    0.86
Q5    1   0.1298  0.5006  0.2869  11.00000  0.05    0.83
Q6    1   0.0089  0.6204  0.5577  11.00000  0.05    0.76
Q7    1   0.1742  0.5001  0.6698  11.00000  0.05    0.75
Q8    1  -0.1487  0.6977  0.7741  11.00000  0.05    0.53
Q9    1   0.1469  0.6975  0.3346  11.00000  0.05    0.44
Q10   1   0.1603  0.6021  0.3945  11.00000  0.05    0.43
Q11   1   0.0103  0.6555  0.0543  11.00000  0.05    0.43
Q12   1   0.0000  0.5000  0.5498  10.50000  0.05    0.43
Q13   1   0.1478  0.6878  0.7731  11.00000  0.05    0.42
Q14   1   0.0048  0.6586  0.5376  11.00000  0.05    0.42
Q15   1  -0.1490  0.6978  0.3434  11.00000  0.05    0.41
Q16   1  -0.0727  0.6687  0.9203  11.00000  0.05    0.35
Q17   1   0.0000  0.5000  0.1117  10.50000  0.05    0.35
Q18   1   0.0677  0.5441  0.5269  11.00000  0.05    0.32
Q19   1   0.0600  0.6909  0.5913  11.00000  0.05    0.32
Q20   1   0.0031  0.7476  0.5870  11.00000  0.05    0.32
;
_shelx_res_checksum              7573
_shelx_hkl_file
;
   0   0   2  951.97   23.40
   0   0   2  954.12   23.29
   0   0   2  972.99   23.71
   0   0   2  999.00   24.12
   0   0  -2  947.88   23.31
   0   0  -2  998.70   24.17
   0   0  -2  969.00   23.74
   0   0  -2  966.14   23.44
   0   0  -4  544.87   13.72
   0   0  -4  545.79   13.97
   0   0  -4  545.99   14.56
   0   0   4  539.23   14.47
   0   0  -4  554.38   15.45
   0   0  -4  511.64   12.59
   0   0   4  539.72   13.91
   0   0   4  535.17   13.66
   0   0   4  499.71   12.62
   0   0  -4  505.18   12.61
   0   0   4  540.10   15.25
   0   0   6  223.16    8.76
   0   0  -6  225.41    5.56
   0   0  -6  222.82    5.61
   0   0   6  227.83    5.61
   0   0   6  234.47    8.07
   0   0   6  218.88    9.66
   0   0  -6  236.56   10.12
   0   0   6  223.93    7.61
   0   0  -6  230.80    7.46
   0   0  -6  242.79    8.92
   0   0  -6  230.27    7.87
   0  -1   1    0.01    0.03
   0   1   1    0.00    0.13
   0  -1   1    0.22    0.24
   0   1   1   -0.01    0.03
   0   1   1    0.08    0.21
   0   1   1    0.05    0.03
   0   1  -1   -0.03    0.02
   0  -1  -1    0.00    0.23
   0  -1  -1    0.09    0.21
   0   1   1    0.01    0.14
   0   1  -1    0.00    0.16
   0   1  -1    0.02    0.13
   0   1  -1   -0.09    0.11
   0   1  -1    0.02    0.03
   0  -1   1   -0.09    0.17
   0  -1   1    0.06    0.13
   0  -1  -1   -0.05    0.14
   0  -1  -1   -0.04    0.11
   0  -1  -1   -0.02    0.03
   0  -1  -1    0.03    0.03
   0   1   1    0.03    0.23
   0  -1   1   -0.05    0.10
   0  -1   1    0.05    0.03
   0   1  -1    0.02    0.02
   0   1  -1   -0.06    0.23
   0   1  -3   -0.06    0.06
   0   1  -3   -0.08    0.06
   0  -1  -3   -0.58    0.63
   0   1  -3   -0.22    0.88
   0   1  -3   -1.16    0.58
   0   1  -3   -0.04    0.48
   0   1  -3   -0.32    0.39
   0  -1   3   -0.33    0.35
   0  -1   3    0.01    0.07
   0  -1  -3   -0.06    0.45
   0   1   3   -0.45    0.45
   0   1   3    0.20    0.37
   0   1   3   -0.02    0.07
   0  -1   3   -0.51    0.82
   0  -1   3   -0.17    0.59
   0  -1   3   -0.55    0.43
   0  -1  -3   -1.03    0.88
   0   1   3    0.36    0.88
   0   1   3    0.54    0.63
   0  -1  -3   -0.11    0.06
   0  -1  -3    0.03    0.07
   0  -1  -3   -0.38    0.38
   0   1  -5    4.09    2.26
   0   1   5   -1.35    1.16
   0  -1  -5    0.04    1.16
   0  -1  -5    1.70    0.96
   0  -1  -5   -0.02    0.12
   0   1  -5   -2.13    1.39
   0   1  -5   -0.93    1.13
   0   1   5   -0.11    0.11
   0  -1   5   -0.62    1.93
   0  -1   5   -0.38    1.33
   0  -1   5    1.55    1.07
   0  -1   5    0.46    0.87
   0   1   5    1.00    1.99
   0  -1   5   -0.14    0.10
   0  -1  -5   -0.60    1.91
   0  -1  -5   -1.11    1.46
   0  -1  -5    0.20    0.13
   0   1  -5    0.04    0.12
   0   1   5   -0.63    0.86
   0   1   5    0.38    0.77
   0   1  -5   -0.11    0.98
   0  -1  -7   -0.03    0.20
   0  -1  -7   -0.17    0.21
   0   1  -7    0.42    0.22
   0   1   7    0.02    0.19
   0   1  -7    0.03    0.19
   0   2   2    6.85    0.63
   0   2   2    6.62    0.56
   0   2  -2    5.37    0.54
   0   2  -2    6.06    0.21
   0   2   2    7.13    0.25
   0   2  -2    5.85    0.62
   0  -2   2    5.47    0.90
   0   2  -2    5.64    0.23
   0  -2  -2    5.96    0.95
   0  -2   2    6.43    0.63
   0  -2   2    7.37    0.56
   0  -2   2    7.69    0.24
   0  -2  -2    5.13    0.62
   0  -2  -2    5.74    0.22
   0   2   2    7.00    1.01
   0   2   2    6.82    0.77
   0   2  -2    5.88    0.94
   0   2  -2    6.02    0.76
   0  -2  -2    6.12    0.78
   0   2   2    7.25    0.23
   0  -2  -2    5.81    0.57
   0  -2   2    7.42    0.77
   0  -2  -4   39.91    1.08
   0  -2  -4   41.81    2.56
   0   2  -4   39.00    1.09
   0  -2   4   39.39    2.12
   0  -2   4   41.62    3.15
   0  -2   4   40.02    1.09
   0  -2  -4   37.92    3.05
   0   2  -4   36.96    2.05
   0  -2  -4   36.96    2.09
   0  -2  -4   41.08    1.08
   0   2  -4   38.69    1.91
   0   2  -4   40.49    1.05
   0   2   4   39.73    2.13
   0   2   4   38.67    1.93
   0  -2   4   41.27    1.96
   0  -2   4   40.55    2.57
   0   2   4   39.29    1.10
   0   2  -4   40.87    2.51
   0  -2  -4   37.97    1.95
   0   2  -4   40.65    3.08
   0   2   4   39.75    3.09
   0   2   4   35.35    2.49
   0   2   6   47.05    4.56
   0  -2   6   55.09    1.58
   0   2  -6   55.44    4.57
   0   2   6   56.99    1.60
   0   2  -6   62.99    3.84
   0   2   6   41.58    5.67
   0   2  -6   58.92    5.61
   0  -2   6   57.20    3.52
   0  -2  -6   58.18    1.58
   0   2  -6   56.77    3.38
   0   2  -6   56.59    1.53
   0  -2   6   57.58    5.54
   0   2  -6   57.83    1.60
   0  -2  -6   58.22    1.56
   0  -2   6   58.38    4.32
   0  -2   6   55.48    3.13
   0   3  -1   -0.57    0.23
   0  -3   1   -0.85    0.04
   0   3  -1   -0.86    0.02
   0  -3   1   -0.89    0.14
   0   3  -1   -0.90    0.29
   0   3  -1   -0.88    0.03
   0  -3  -1   -0.77    0.29
   0   3  -1   -0.79    0.17
   0  -3   1   -1.18    0.16
   0  -3  -1   -1.03    0.14
   0  -3   1   -0.86    0.03
   0  -3   1   -0.87    0.02
   0   3   1   -1.02    0.17
   0   3   1   -0.90    0.04
   0  -3  -1   -0.92    0.18
   0   3   1   -0.78    0.12
   0  -3  -1   -0.91    0.04
   0  -3   1   -0.81    0.12
   0   3   1   -0.90    0.14
   0  -3   1   -0.28    0.30
   0   3  -1   -0.86    0.03
   0   3  -1   -0.83    0.15
   0   3   1   -0.78    0.28
   0  -3  -1   -0.86    0.24
   0   3   3   -0.38    0.50
   0   3  -3   -0.16    0.06
   0   3   3   -0.33    0.66
   0   3   3   -0.33    0.38
   0  -3   3   -0.69    0.77
   0  -3   3    0.66    0.66
   0   3  -3   -0.22    0.36
   0   3  -3   -0.24    0.06
   0  -3   3   -0.22    0.06
   0  -3   3   -0.08    0.38
   0  -3  -3   -0.21    0.06
   0   3  -3   -0.18    0.44
   0  -3   3   -0.43    0.45
   0   3   3   -0.25    0.07
   0   3  -3   -0.92    0.87
   0   3  -3    0.22    0.60
   0   3   3   -0.22    0.88
   0   3   5   -0.73    1.33
   0  -3  -5    0.00    0.12
   0  -3   5    1.18    1.54
   0   3   5    0.02    0.11
   0   3   5   -0.45    0.82
   0  -3  -5    0.02    0.11
   0  -3   5   -3.10    1.79
   0   3  -5   -1.55    1.40
   0   3  -5    2.07    1.18
   0  -3   5    1.05    1.10
   0  -3   5    0.12    0.11
   0   3  -5    0.47    2.06
   0   3  -5   -0.06    0.11
   0   3  -5    0.63    0.94
   0   3  -5    0.02    0.11
   0   3   5   -0.41    2.16
   0   3   5   -0.10    1.04
   0  -3   5    0.52    0.93
   0   3  -7    0.07    0.21
   0  -3  -7   -0.43    0.20
   0   3  -7    0.00    0.20
   0   3   7    0.08    0.19
   0  -4   0   97.24    2.79
   0   4   0   95.18    2.34
   0  -4   0   98.84    2.32
   0  -4   0   96.95    2.65
   0  -4   0   98.37    2.59
   0  -4   0   97.81    2.98
   0   4  -2  404.31    9.89
   0   4   2  397.33   10.63
   0   4   2  392.92   10.80
   0   4   2  390.66    9.95
   0   4   2  389.56    9.84
   0  -4   2  384.17   10.24
   0  -4   2  398.45   10.64
   0   4  -2  408.49   10.33
   0   4   2  392.92   10.05
   0   4   2  393.74   10.25
   0   4   2  376.30    9.35
   0   4   2  388.24    9.91
   0  -4   2  381.76    9.83
   0  -4   2  385.35    9.95
   0  -4   2  398.35    9.31
   0   4  -2  402.73   10.00
   0   4   2  385.69   10.35
   0   4  -2  410.31   10.75
   0   4   2  422.46    9.35
   0   4  -4  206.66    7.45
   0  -4   4  202.78    7.28
   0   4  -4  201.89    4.89
   0   4  -4  201.16    4.95
   0  -4   4  205.57    6.12
   0   4  -4  203.99    6.74
   0  -4   4  201.77    5.90
   0   4   4  208.51    6.25
   0  -4   4  195.48    6.56
   0   4   4  205.91    6.01
   0   4  -4  202.40    6.20
   0   4   4  211.92    6.83
   0   4   4  207.76    7.50
   0   4  -4  201.26    5.97
   0   4   4  204.04    4.97
   0  -4  -4  204.23    4.93
   0   4  -6  168.32    4.14
   0  -4   6  169.13    8.10
   0  -4  -6  170.40    4.21
   0   4   6  170.32    6.26
   0   4   6  171.68    5.89
   0  -4   6  164.64    5.75
   0   4  -6  169.36    6.06
   0   4  -6  172.15    8.50
   0  -4   6  166.64    6.99
   0   4  -6  179.20    6.53
   0   4  -6  171.33    7.40
   0   4   6  172.42    7.16
   0   4  -6  167.36    4.23
   0   4   6  171.99    8.31
   0   4   6  163.10    4.23
   0  -4   6  158.24    6.06
   0   5   1   -0.52    0.05
   0  -5   1   -0.77    0.26
   0  -5   1   -0.50    0.04
   0  -5  -1   -0.67    0.16
   0   5  -1   -0.47    0.03
   0  -5   1   -0.52    0.03
   0  -5   1    0.01    0.39
   0   5   1   -0.38    0.35
   0   5   1   -0.69    0.15
   0  -5  -1   -0.56    0.06
   0  -5   1   -0.53    0.03
   0   5  -1   -0.53    0.04
   0   5  -1   -0.59    0.15
   0   5  -1   -0.69    0.17
   0   5  -1   -0.54    0.23
   0  -5  -1   -0.49    0.15
   0   5  -1   -0.51    0.03
   0  -5   1   -0.58    0.17
   0  -5  -1   -0.58    0.35
   0   5  -1   -0.89    0.34
   0  -5   1   -0.69    0.20
   0   5   1   -0.51    0.26
   0  -5  -1   -0.45    0.25
   0   5   1   -0.41    0.20
   0   5  -1   -0.41    0.06
   0  -5   3    0.19    0.61
   0  -5   3    0.00    0.88
   0  -5   3   -0.59    0.38
   0   5   3   -0.15    0.43
   0   5   3    0.12    0.50
   0   5  -3   -1.06    0.40
   0   5  -3   -0.08    0.05
   0   5  -3   -0.12    0.07
   0   5   3    0.51    0.78
   0   5   3    0.33    1.07
   0   5   3   -0.46    0.66
   0   5   3   -0.18    0.08
   0  -5   3   -0.06    0.33
   0   5   3    0.60    0.88
   0   5   3   -0.24    0.43
   0   5   3    0.23    0.54
   0   5  -3    0.33    0.75
   0   5  -3    0.03    0.57
   0   5  -3    2.32    1.15
   0   5   5    0.25    1.41
   0  -5   5   -0.66    1.31
   0   5   5    0.25    1.24
   0  -5   5    4.18    2.08
   0  -5  -5    0.01    0.13
   0   5  -5    0.30    0.97
   0   5   5    0.58    1.06
   0   5   5    0.01    0.87
   0  -5   5    0.08    0.85
   0   5   5   -3.96    1.84
   0  -5   5    0.94    1.04
   0   5   5    1.54    2.13
   0   5  -5    0.10    0.12
   0   5   5    1.62    1.62
   0   5  -5   -1.15    1.07
   0   5  -5    0.00    0.10
   0   5  -5   -0.75    1.52
   0   5   5    0.10    0.94
   0   5  -5   -1.57    2.00
   0   5   5    0.21    0.13
   0   5  -7    0.07    0.22
   0  -5  -7   -0.16    0.22
   0   5   7    0.16    0.22
   0   5  -7   -0.03    0.20
   0   6   0  268.93    6.70
   0  -6   0  256.49    6.78
   0  -6   0  261.92    7.02
   0  -6   0  262.70    7.32
   0   6   0  271.14    6.79
   0  -6   0  257.58    6.70
   0  -6   0  271.05    6.30
   0   6   0  266.63    6.33
   0   6   0  272.75    7.30
   0   6   0  274.27    7.02
   0  -6   2  575.59   14.26
   0  -6   2  588.73   14.61
   0   6  -2  564.75   14.14
   0   6   2  562.00   14.11
   0   6  -2  573.74   14.61
   0   6  -2  571.48   14.27
   0  -6   2  578.29   15.00
   0   6   2  566.38   14.23
   0   6  -2  601.12   15.16
   0   6   2  569.29   14.56
   0  -6   2  561.21   14.11
   0   6   2  587.89   15.04
   0   6   4  252.61    7.01
   0   6   4  248.36    7.10
   0  -6   4  254.11    7.85
   0   6   4  243.27    6.02
   0  -6   4  245.04    7.23
   0  -6   4  254.94    8.52
   0   6  -4  247.63    7.08
   0   6   4  250.09    8.44
   0   6   4  249.26    8.67
   0   6   4  254.76    7.79
   0   6   4  252.27    7.96
   0   6   4  253.44    7.23
   0   6   4  245.06    7.34
   0   6  -4  240.03    5.91
   0   6  -4  237.99    7.81
   0   6  -4  247.14    8.55
   0  -6   4  254.13    7.04
   0   6  -4  242.29    7.28
   0   6   6  147.95    3.76
   0   6  -6  152.13    6.00
   0   6  -6  145.70    8.12
   0   6   6  127.01    9.07
   0   6   6  149.01    7.70
   0   6   6  152.81    5.83
   0   6   6  130.08    7.30
   0  -6   6  155.78    6.67
   0   6  -6  157.73    5.63
   0  -6   6  150.87    5.37
   0   6  -6  145.63    3.75
   0   6  -6  150.14    3.64
   0   6   6  156.97    5.46
   0   6   6  120.27    6.80
   0  -6   6  153.54    5.77
   0  -6  -6  147.45    3.73
   0   6   6  148.34    6.64
   0  -6   6  148.10    7.80
   0   6  -6  150.12    6.89
   0  -7   1    0.12    0.21
   0   7   1   -0.21    0.31
   0  -7   1    0.01    0.04
   0  -7  -1    0.12    0.51
   0   7  -1   -0.03    0.05
   0  -7  -1   -0.12    0.24
   0   7   1    0.04    0.07
   0   7  -1   -0.18    0.23
   0   7  -1    0.48    0.51
   0  -7   1    0.00    0.04
   0  -7  -1    0.12    0.34
   0   7   1   -0.12    0.21
   0  -7  -1    0.05    0.20
   0   7   1   -0.31    0.45
   0   7  -1   -0.03    0.20
   0   7  -1   -0.05    0.06
   0   7   1   -0.08    0.24
   0  -7   1    0.03    0.24
   0  -7   1    0.03    0.06
   0  -7   1   -0.60    0.45
   0  -7   1    0.31    0.31
   0   7  -1   -0.52    0.27
   0   7  -1    0.04    0.04
   0  -7   3   -0.16    0.43
   0   7  -3    0.91    1.01
   0   7   3   -0.83    0.59
   0   7   3    0.33    0.82
   0   7  -3   -0.08    0.05
   0   7   3   -0.55    0.58
   0   7   3   -0.37    0.83
   0   7  -3    0.01    0.07
   0   7   3   -0.49    0.97
   0   7  -3   -0.24    0.64
   0   7  -3    0.20    0.50
   0   7  -3   -0.26    0.40
   0   7   3   -0.65    0.45
   0   7   3    1.19    1.15
   0  -7   3   -0.17    0.89
   0   7   3    0.00    0.50
   0  -7   3   -0.11    0.68
   0  -7   3    1.21    0.60
   0  -7   3   -0.03    0.08
   0   7   3   -0.06    0.08
   0  -7   5    1.62    1.34
   0  -7  -5    0.33    0.16
   0   7  -5    0.14    0.90
   0   7   5    1.87    1.38
   0   7  -5   -0.80    1.11
   0   7   5    1.07    1.21
   0   7  -5   -1.76    1.40
   0  -7   5    1.15    0.83
   0   7  -5   -0.04    0.12
   0   7   5    2.69    2.18
   0  -7   5   -0.94    2.10
   0   7   5    0.52    1.57
   0   7  -5    0.13    0.11
   0   7   5   -0.86    0.95
   0   7   5   -0.07    0.13
   0   7   5   -0.54    1.08
   0   7  -5    2.01    2.27
   0  -7   5   -0.32    0.97
   0   7   5    0.96    1.84
   0   7   5   -0.51    2.72
   0  -7  -7    0.08    0.23
   0   7   7   -0.15    0.21
   0   7  -7    0.23    0.21
   0   7  -7    0.29    0.24
   0   8   0   49.25    1.77
   0   8   0   47.03    1.95
   0  -8   0   46.91    1.67
   0  -8   0   49.74    1.21
   0   8   0   50.35    1.21
   0  -8   0   43.23    1.94
   0   8   0   49.42    2.25
   0  -8   0   45.59    1.76
   0   8   0   49.81    1.26
   0   8   0   48.28    1.67
   0  -8   0   44.78    2.23
   0   8  -2    5.43    0.24
   0   8   2    5.79    0.27
   0   8  -2    5.69    0.75
   0   8  -2    7.07    1.21
   0   8  -2    6.21    0.95
   0  -8   2    4.84    1.06
   0  -8   2    7.00    0.95
   0  -8   2    5.42    0.72
   0  -8   2    5.77    0.62
   0   8  -2    6.06    0.28
   0   8   2    4.55    0.87
   0  -8  -2    4.56    0.71
   0  -8  -2    5.51    0.65
   0   8   2    5.62    0.73
   0  -8   2    6.00    0.20
   0   8   2    5.45    0.64
   0  -8  -2    5.76    0.92
   0   8  -2    6.05    0.19
   0  -8   2    5.70    0.19
   0   8   2    5.94    1.15
   0   8  -2    5.15    0.64
   0  -8  -2    8.38    1.25
   0   8  -2    6.14    0.20
   0   8   4   14.46    1.94
   0   8  -4   14.64    1.58
   0   8   4   16.72    1.49
   0   8   4   15.61    1.36
   0  -8   4   14.30    2.49
   0  -8   4   15.39    1.88
   0   8   4   19.43    2.21
   0   8   4   13.17    2.42
   0   8   4   20.00    2.84
   0  -8   4   15.61    1.33
   0   8  -4   16.44    1.44
   0   8  -4   17.01    0.49
   0   8  -4   18.55    2.09
   0   8   4   17.94    1.58
   0  -8   4   18.05    1.56
   0   8   4   18.07    1.73
   0   8  -4   17.75    2.61
   0   8  -4   16.59    0.57
   0   8  -6   15.08    2.30
   0   8  -6   18.54    2.77
   0   8   6   24.18    5.10
   0  -8   6   15.80    3.60
   0  -8   6   15.12    2.37
   0   8   6   14.27    2.49
   0   8   6   25.45    4.74
   0  -8   6   10.44    2.26
   0  -8  -6   16.28    0.64
   0   8   6   14.41    2.77
   0   8   6   16.20    0.66
   0   8  -6   16.79    4.01
   0   8  -6   15.09    2.89
   0   8  -6   15.42    0.64
   0   8   6   13.59    2.45
   0   8   6   18.59    2.19
   0   8   6   17.47    2.47
   0   8  -6   14.79    0.54
   0   8   6   17.05    3.28
   0  -9   1   -0.28    0.55
   0   9   1    0.20    0.31
   0   9  -1   -0.52    0.61
   0   9  -1   -0.04    0.06
   0  -9   1   -0.39    0.29
   0   9   1    0.22    0.39
   0  -9  -1   -0.16    0.48
   0   9   1   -0.13    0.08
   0   9   1   -0.21    0.25
   0  -9   1    0.03    0.05
   0   9  -1    0.17    0.50
   0   9  -1   -0.05    0.08
   0  -9  -1   -0.10    0.62
   0   9  -1    0.14    0.33
   0   9  -1    0.07    0.36
   0   9   1   -1.20    0.53
   0  -9   1   -0.05    0.34
   0  -9  -1    0.17    0.40
   0  -9  -1   -0.14    0.30
   0   9  -1   -0.13    0.04
   0  -9   1    0.44    0.46
   0   9   3    0.57    0.99
   0   9   3   -0.35    1.29
   0   9   3    0.03    0.48
   0  -9   3   -1.65    1.05
   0  -9   3   -0.03    0.08
   0   9   3    0.16    0.91
   0   9  -3    0.62    1.04
   0   9   3   -0.05    0.40
   0   9   3    0.45    0.55
   0   9   3    0.08    0.64
   0   9  -3   -0.02    0.08
   0   9  -3    0.09    0.06
   0  -9   3    0.83    0.76
   0   9  -3   -0.16    0.70
   0  -9   3   -0.08    0.09
   0  -9   3    0.62    0.57
   0  -9   3   -0.08    0.42
   0   9  -3    0.62    0.47
   0   9   3    0.00    0.10
   0   9   3   -0.23    0.65
   0   9  -3   -0.36    0.51
   0   9   5    0.32    0.92
   0   9  -5    0.11    0.11
   0   9   5    2.18    2.50
   0   9  -5   -1.01    2.37
   0   9   5    0.22    0.15
   0   9  -5   -0.05    0.13
   0   9   5    0.51    1.15
   0   9   5   -0.85    1.75
   0   9  -5   -0.03    1.06
   0   9   5   -0.55    1.47
   0  -9   5    0.92    1.01
   0  -9   5    0.13    0.79
   0   9   5    0.99    1.15
   0   9   5    2.15    1.41
   0   9   5    4.54    2.35
   0   9  -5    0.45    1.77
   0  -9   5   -0.15    1.33
   0   9  -5    1.80    1.39
   0  -9   5   -0.22    2.17
   0   9   7   -0.03    0.22
   0   9  -7   -0.01    0.25
   0  -9  -7   -0.22    0.23
   0   9  -7    0.15    0.22
   0  10   0  867.40   21.84
   0 -10   0  923.95   22.51
   0 -10   0  912.64   22.99
   0 -10   0  898.58   21.92
   0  10   0  936.31   22.96
   0  10   0  880.82   22.00
   0 -10   0  903.71   22.09
   0  10   0  891.80   22.38
   0  10   2  345.58    9.00
   0 -10  -2  352.44   10.16
   0  10  -2  344.98    8.36
   0  10  -2  338.20    8.29
   0 -10  -2  348.28    9.62
   0  10  -2  350.83    9.62
   0  10  -2  359.49    9.06
   0 -10   2  343.10    9.15
   0 -10   2  345.04    8.99
   0  10  -2  354.95   10.17
   0  10  -2  347.35    8.21
   0 -10  -2  349.56    9.19
   0 -10   2  348.80    9.57
   0 -10   2  354.42   10.07
   0  10   2  343.15    9.54
   0  10   2  346.19    9.17
   0  10  -2  353.20    9.21
   0 -10   2  351.66    8.23
   0  10   2  345.25    8.34
   0 -10  -2  353.95    9.04
   0 -10   2  344.81    8.21
   0  10   2  353.41   10.09
   0  10  -4  234.15    8.38
   0 -10   4  230.78    6.49
   0  10   4  221.55    7.25
   0  10  -4  223.66    7.42
   0 -10   4  225.58    6.71
   0 -10   4  219.43    7.25
   0  10  -4  218.88    6.78
   0  10   4  214.92    7.91
   0  10   4  224.56    8.51
   0  10  -4  216.06    6.51
   0  10  -4  220.42    5.25
   0  10   4  214.77    6.61
   0  10   4  221.43    6.68
   0  10   4  211.26    7.52
   0  10   4  210.63    5.39
   0 -10   4  229.71    8.09
   0  10   4  226.50    6.47
   0  10   4  220.11    6.92
   0  10  -4  209.43    5.36
   0  10   6   81.66    6.95
   0  10   6   92.79    2.49
   0  10   6   88.48    4.74
   0 -10   6   90.00    4.12
   0  10  -6   87.14    7.08
   0  10   6   86.21    6.48
   0  10   6  100.88    4.29
   0 -10  -6   92.22    2.47
   0  10  -6   95.11    4.38
   0 -10   6   89.58    5.51
   0 -10   6  100.54    4.63
   0  10   6   94.35    5.39
   0  10  -6   93.94    4.82
   0  10  -6   86.09    5.79
   0  10   6   95.29    5.85
   0  10   6   96.85    4.55
   0 -10   6   92.47    6.80
   0  10  -6   87.80    2.46
   0  10   6   93.96    4.36
   0  11  -1    0.19    0.44
   0 -11  -1    1.70    0.65
   0 -11   1   -0.10    0.35
   0  11   1   -0.70    0.69
   0  11  -1   -0.07    0.09
   0 -11  -1   -0.50    0.42
   0 -11   1    0.02    0.41
   0 -11  -1   -0.36    0.34
   0  11  -1   -1.41    0.76
   0  11   1   -0.05    0.06
   0  11   1    0.56    0.60
   0 -11   1   -0.04    0.78
   0  11  -1   -0.28    0.33
   0 -11   1   -0.30    0.56
   0 -11  -1    0.24    0.82
   0  11  -1   -0.08    0.06
   0  11   1    0.25    0.43
   0  11  -1   -0.01    0.06
   0 -11   1   -0.04    0.07
   0  11   1   -0.07    0.09
   0  11  -1    0.14    0.57
   0  11   1   -0.19    0.36
   0  11  -3   -0.04    0.12
   0 -11   3   -0.64    0.51
   0  11  -3   -0.04    0.06
   0 -11   3    0.25    0.10
   0 -11   3    0.10    0.09
   0  11  -3    0.24    0.69
   0  11   3   -0.55    0.62
   0 -11   3    0.75    1.32
   0  11  -3    0.13    0.10
   0 -11   3    0.01    0.69
   0 -11   3   -1.59    0.85
   0  11  -3    0.67    0.97
   0  11   3    0.09    0.12
   0  11   3   -0.88    0.50
   0  11  -3    1.27    0.66
   0  11   3    1.65    0.90
   0  11  -3   -0.12    1.28
   0  11   3   -1.31    1.13
   0  11   5    0.94    0.89
   0 -11   5    1.82    1.78
   0  11   5    0.57    1.09
   0  11   5    0.69    2.33
   0 -11   5   -0.78    0.97
   0  11  -5    1.24    2.71
   0  11  -5    0.19    0.12
   0  11  -5   -1.14    1.47
   0  11   5   -1.77    1.40
   0  11   5    0.86    1.77
   0  11   5   -2.99    2.55
   0  11  -5   -0.67    1.20
   0  11  -5   -1.33    2.01
   0 -11   5   -0.30    1.17
   0  11  -5    0.09    0.16
   0  11   5    0.24    1.29
   0 -11   5   -2.09    2.37
   0  11  -7    0.30    0.27
   0  11   7   -0.24    0.23
   0  11  -7   -0.47    0.29
   0 -11  -7   -0.01    0.27
   0 -12   0   37.40    1.71
   0 -12   0   36.54    2.12
   0  12   0   49.77    2.67
   0 -12   0   40.41    2.58
   0  12   0   45.13    1.92
   0 -12   0   37.95    1.85
   0  12   0   41.38    1.18
   0  12   0   46.71    2.25
   0  12   0   42.29    1.11
   0  12   0   48.33    1.82
   0  12   2    4.87    0.79
   0  12   2    6.07    0.31
   0 -12  -2    3.36    0.71
   0 -12   2    5.97    0.21
   0 -12  -2    3.78    0.99
   0 -12   2    5.06    1.13
   0 -12   2    5.08    0.81
   0 -12   2    6.55    0.22
   0 -12   2    4.60    0.92
   0  12   2    7.11    1.47
   0  12   2    6.27    0.99
   0 -12  -2    2.90    1.20
   0 -12   2    7.93    1.49
   0  12   2    7.24    1.21
   0  12   4   49.07    4.31
   0  12   4   55.26    3.00
   0  12   4   49.88    3.78
   0  12   4   55.72    3.24
   0 -12   4   51.95    3.22
   0  12   4   53.38    1.50
   0  12  -4   51.50    1.53
   0 -12   4   48.10    3.87
   0 -12   4   55.76    2.50
   0  12   4   58.27    3.68
   0  12   4   51.64    2.72
   0 -12   4   50.68    2.68
   0  12  -4   51.55    2.78
   0  12  -4   50.05    3.93
   0  12  -4   52.27    1.46
   0  12   4   56.92    2.54
   0  12  -4   51.00    3.27
   0  12  -4   52.38    1.33
   0  12   4   54.77    2.70
   0  12  -4   55.77    2.62
   0 -12   6   72.25    4.99
   0  12  -6   68.70    4.00
   0  12   6   76.57    6.97
   0 -12  -6   74.78    2.00
   0  12   6   64.83    4.36
   0 -12   6   67.77    3.60
   0  12  -6   71.98    4.52
   0  12   6   79.45    6.57
   0  12   6   71.08    5.04
   0  12  -6   77.85    6.95
   0  12  -6   76.17    5.57
   0  12  -6   72.96    2.10
   0  12  -6   71.27    1.80
   0 -12   6   74.56    6.41
   0  12  -6   73.23    2.00
   0  12   6   69.54    3.68
   0  12   6   70.42    4.11
   0  12   6   59.80    3.81
   0 -12   6   67.75    4.01
   0  12   6   64.81    5.44
   0  12   6   69.73    2.01
   0  13  -1   -0.65    0.54
   0  13  -1   -0.43    0.10
   0 -13  -1   -0.58    0.46
   0  13   1    0.02    0.47
   0  13   1   -0.30    0.59
   0 -13   1   -0.31    0.69
   0 -13   1   -0.61    0.51
   0 -13  -1    1.07    1.08
   0  13  -1    0.22    0.51
   0  13  -1   -0.07    0.73
   0  13   1   -0.16    0.11
   0  13   1   -0.08    0.08
   0  13  -1    0.33    1.05
   0 -13  -1    0.00    0.57
   0  13  -1   -0.22    0.09
   0 -13   1    0.11    1.04
   0  13   1   -0.22    0.92
   0 -13   1   -0.31    0.42
   0  13   1    0.14    0.42
   0  13  -1   -0.20    0.07
   0 -13   1   -0.19    0.09
   0 -13  -1    0.30    0.77
   0 -13  -3   -0.23    0.80
   0 -13  -3    1.05    1.05
   0 -13   3   -0.03    0.09
   0  13  -3    0.01    0.07
   0  13  -3   -0.07    0.11
   0 -13   3    1.65    1.45
   0  13  -3   -0.07    0.13
   0 -13   3    0.76    1.09
   0  13  -3    1.05    0.70
   0  13   3   -0.86    0.58
   0 -13  -3    0.08    0.66
   0  13  -3    1.39    0.86
   0  13   3   -0.63    0.93
   0 -13   3   -0.54    0.61
   0 -13  -3   -1.99    1.48
   0 -13   3    0.05    0.10
   0  13   3    0.15    1.35
   0  13   3    0.42    0.73
   0  13  -3   -0.31    1.44
   0  13   3   -0.08    0.12
   0 -13   3   -1.08    0.77
   0  13  -3    0.45    1.12
   0  13   5    1.12    1.26
   0  13  -5   -0.17    0.20
   0 -13   5    0.20    1.25
   0  13   5    0.87    3.10
   0  13  -5    0.00    0.15
   0  13   5   -1.53    1.65
   0  13   5    4.72    2.76
   0  13  -5   -3.75    2.05
   0  13   5   -0.05    2.00
   0  13   5    1.07    1.51
   0 -13   5    0.24    1.04
   0  13   5    1.03    1.13
   0 -13   5   -0.23    1.67
   0  13  -5   -0.04    0.11
   0  13  -5   -0.74    1.63
   0 -13   5    0.79    2.73
   0  13  -5    0.15    1.41
   0  13  -5    6.04    3.02
   0  13   5    0.13    1.30
   0  14   0   48.39    2.89
   0 -14   0   45.15    3.02
   0  14   0   46.66    1.19
   0  14   0   43.02    2.34
   0  14   0   45.67    1.93
   0 -14   0   45.52    2.00
   0  14   0   46.68    2.09
   0  14   0   44.69    1.28
   0 -14   0   44.35    2.51
   0 -14   0   42.93    2.13
   0  14  -2    7.98    1.40
   0 -14   2    5.75    1.19
   0  14   2    7.70    0.38
   0 -14   2    7.42    0.95
   0 -14  -2    7.16    0.95
   0  14   2    8.10    1.07
   0  14   2    7.45    0.94
   0  14   2   10.96    1.89
   0 -14   2    9.86    1.17
   0  14  -2    6.87    0.31
   0  14  -2    7.30    1.69
   0 -14  -2    6.49    1.59
   0 -14  -2    8.48    1.09
   0  14  -2    5.75    1.01
   0  14  -2    7.26    0.39
   0  14  -2    7.05    0.26
   0  14  -2    7.85    0.95
   0 -14  -2    7.96    1.40
   0  14   2    7.59    1.36
   0 -14   2    8.08    0.26
   0 -14   2    8.51    1.70
   0  14   4    9.30    1.68
   0 -14   4   11.90    1.83
   0 -14   4    7.09    1.43
   0  14  -4    4.13    1.74
   0  14  -4    9.08    1.77
   0  14   4    7.52    0.41
   0 -14   4   10.70    2.15
   0  14   4    6.80    1.42
   0  14   4   10.84    2.46
   0  14  -4    7.58    0.27
   0  14   4    8.55    2.27
   0  14   4    7.41    1.63
   0  14   4    8.36    1.48
   0 -14   4    6.25    2.33
   0  14  -4    6.78    1.25
   0  14  -4    7.13    2.55
   0  14   4   12.74    2.91
   0  14  -4    7.43    0.38
   0  14   4   11.28    2.16
   0  14  -4    7.04    0.44
   0  14   6   24.67    4.79
   0 -14   6   26.16    3.38
   0  14   6   25.60    0.97
   0  14  -6   21.85    5.13
   0 -14  -6   26.89    0.98
   0 -14   6   19.98    4.36
   0  14   6   25.45    3.28
   0  14   6   25.40    2.91
   0  14  -6   26.46    1.05
   0  14  -6   24.01    3.06
   0  14  -6   27.85    0.96
   0  14   6   19.57    4.18
   0 -14   6   29.64    2.84
   0 -14   6   33.11    6.02
   0  14  -6   33.16    3.73
   0  14  -6   28.77    4.74
   0  15   1    0.01    0.09
   0 -15  -1   -0.71    0.63
   0 -15  -1    0.92    0.81
   0  15   1    0.26    0.14
   0  15  -1   -0.45    1.15
   0  15  -1   -1.50    0.88
   0 -15   1    0.30    0.52
   0 -15   1    0.03    0.12
   0  15  -1   -0.67    0.53
   0 -15  -1    2.07    1.15
   0  15  -1   -0.12    0.13
   0  15  -1    0.08    0.67
   0 -15   1   -0.31    1.25
   0  15  -1    0.12    0.10
   0 -15   1   -0.19    0.62
   0 -15   1   -0.25    0.79
   0  15  -1    0.05    0.09
   0 -15  -1    0.14    1.31
   0  15  -3   -0.43    0.86
   0  15  -3    1.29    1.74
   0  15   3    1.49    1.28
   0 -15  -3    0.80    1.00
   0  15   3   -0.20    0.16
   0 -15  -3    2.10    1.84
   0 -15  -3   -0.57    1.20
   0  15  -3   -0.01    0.12
   0  15   3   -0.39    0.83
   0  15  -3   -0.17    0.09
   0  15  -3   -0.11    0.69
   0 -15   3    0.00    0.12
   0 -15   3   -0.09    0.90
   0 -15  -3    0.15    0.77
   0  15   3    0.62    0.73
   0  15  -3   -0.04    0.19
   0 -15   3   -1.74    1.11
   0 -15   3   -0.22    0.11
   0 -15   3   -0.81    1.53
   0  15   3   -2.27    1.44
   0 -15   3    0.31    0.76
   0  15   5    0.97    1.77
   0  15   5    1.29    1.51
   0 -15   5    1.07    3.01
   0  15   5    0.27    0.18
   0  15   5    2.06    1.29
   0  15   5    0.04    2.40
   0 -15   5    0.94    1.25
   0  15  -5   -0.09    0.13
   0  15  -5    1.77    1.79
   0  15  -5    0.32    3.04
   0  15   5    1.61    2.71
   0  15   5    0.09    1.44
   0  15  -5   -0.26    0.16
   0  15  -5   -0.85    1.32
   0  15  -5   -1.67    2.30
   0  15   5   -1.67    3.52
   0  15   5    1.80    2.18
   0  15  -5    0.30    0.22
   0 -15   5   -1.37    2.00
   0 -15   5   -0.65    1.54
   0 -16   0  174.01    6.81
   0 -16   0  178.74    6.18
   0 -16   0  181.35    5.41
   0  16   0  173.04    4.41
   0  16   0  180.26    5.50
   0 -16   0  179.95    5.63
   0  16   0  175.75    5.94
   0  16   0  175.19    4.30
   0  16   0  178.01    5.27
   0  16   0  176.12    6.59
   0  16   0  176.68    4.30
   0  16  -2  307.36    7.58
   0  16  -2  308.50    9.55
   0 -16  -2  312.86    9.04
   0  16  -2  307.26    7.66
   0  16   2  320.68    8.95
   0  16   2  318.29    9.52
   0  16   2  303.76    7.73
   0  16   2  318.79    7.64
   0  16  -2  316.67    8.77
   0 -16   2  336.14    9.67
   0  16  -2  314.77    7.78
   0 -16   2  327.74    8.78
   0 -16   2  321.21    7.56
   0  16   2  340.96   10.35
   0 -16  -2  321.23   10.48
   0  16  -2  326.63   10.42
   0 -16   2  336.70   10.47
   0 -16   2  333.27    9.06
   0  16   2  313.42    8.69
   0  16  -2  324.55    9.05
   0 -16  -2  323.48    9.71
   0 -16  -2  309.06    8.79
   0  16   4  109.36    6.68
   0  16  -4  113.71    4.68
   0  16   4  113.14    4.23
   0  16  -4  109.83    2.95
   0  16   4  122.88    6.17
   0  16   4  117.35    4.59
   0  16  -4  118.69    2.78
   0  16   4  109.51    5.68
   0  16   4  120.60    4.60
   0  16  -4  121.18    6.38
   0 -16   4  116.33    4.61
   0 -16   4  113.66    4.26
   0 -16   4  117.43    5.34
   0  16   4  115.86    5.23
   0  16  -4  110.34    3.07
   0  16   4  112.23    3.00
   0 -16   4  117.76    6.25
   0  16  -4  118.68    5.46
   0  16   4  114.00    4.95
   0  16  -4  119.11    4.43
   0  16   6   59.10    6.79
   0 -16  -6   58.02    1.74
   0  16  -6   55.61    1.82
   0 -16   6   51.22   10.81
   0  16   6   59.95    3.80
   0  16   6   55.10    4.29
   0  16   6   56.70    1.73
   0  16  -6   56.38    1.70
   0  16   6   64.04    5.52
   0 -16   6   60.67    5.79
   0 -17   1   -0.09    1.53
   0 -17  -1   -0.83    0.70
   0  17  -1   -1.24    1.06
   0 -17   1    0.19    1.06
   0 -17   1    0.38    0.80
   0  17  -1    0.82    0.86
   0  17  -1   -0.17    0.16
   0  17   1    0.56    1.04
   0  17   1   -0.58    1.22
   0 -17  -1    1.32    1.19
   0  17   1    0.70    0.81
   0  17   1   -0.48    0.62
   0  17  -1   -0.68    1.36
   0  17   1    0.16    0.15
   0 -17   1   -0.73    0.61
   0  17  -1    0.09    0.10
   0  17  -1    0.40    0.74
   0  17  -1    0.08    0.11
   0 -17  -1   -0.10    1.51
   0  17   1   -0.19    0.10
   0 -17  -1    0.17    0.85
   0 -17  -3    2.26    1.57
   0 -17  -3   -0.38    2.14
   0 -17   3    0.16    0.13
   0 -17   3    0.18    0.83
   0  17  -3    0.10    1.04
   0  17   3   -0.03    0.15
   0 -17   3    2.70    1.94
   0 -17   3    0.58    1.10
   0  17  -3   -0.71    1.90
   0  17  -3   -0.02    0.10
   0  17  -3    0.50    0.83
   0 -17  -3    1.47    1.18
   0  17  -3   -0.58    1.44
   0  17  -3    0.09    0.14
   0 -17   3    0.02    1.50
   0  17  -3   -0.04    0.17
   0 -17  -3    0.23    0.97
   0  17   5    2.06    4.14
   0  17   5   -1.52    2.11
   0  17  -5   -1.28    1.80
   0  17   5    0.53    3.19
   0  17   5    2.39    1.81
   0  17  -5    1.57    1.67
   0  17  -5   -1.72    3.58
   0  17   5    3.43    3.01
   0  17   5    1.49    2.14
   0  17   5    0.06    0.21
   0 -17   5    0.02    1.42
   0  17   5    0.00    1.40
   0  17  -5    0.02    0.19
   0  17   5    0.35    1.66
   0 -17   5    1.97    2.48
   0  17  -5   -0.08    0.23
   0  17  -5    4.73    2.64
   0 -17   5    0.51    1.78
   0 -17   5   -1.56    3.17
   0 -18   0    2.11    0.77
   0 -18   0    0.15    1.74
   0  18   0    0.66    1.11
   0 -18   0    1.71    0.93
   0  18   0    1.39    0.87
   0  18   0    1.26    0.17
   0  18   0    1.43    1.52
   0  18   0    1.11    0.24
   0  18   0    0.83    0.73
   0  18   0    1.56    0.18
   0 -18   0    1.15    1.19
   0  18  -2   56.54    1.43
   0  18  -2   55.37    3.32
   0 -18  -2   54.01    2.89
   0 -18   2   54.47    2.83
   0  18  -2   56.42    2.61
   0  18   2   56.44    1.62
   0  18   2   57.77    1.49
   0 -18   2   55.82    4.12
   0 -18  -2   58.92    4.26
   0  18   2   54.16    3.84
   0 -18   2   56.43    3.37
   0  18  -2   54.87    1.64
   0  18   2   53.35    2.73
   0  18  -2   52.50    4.01
   0  18  -2   55.94    1.52
   0  18   2   58.84    2.59
   0 -18  -2   59.31    2.71
   0 -18   2   59.32    2.65
   0 -18  -2   58.90    3.52
   0  18   2   53.75    3.20
   0  18  -2   57.28    2.86
   0  18   4   23.68    3.80
   0  18   4   18.90    2.13
   0 -18   4   20.75    2.31
   0  18  -4   22.66    2.20
   0 -18   4   17.93    3.28
   0  18  -4   19.59    0.71
   0  18   4   21.02    1.92
   0  18  -4   19.23    2.46
   0  18  -4   23.91    3.20
   0 -18   4   20.00    2.96
   0  18  -4   19.08    0.81
   0  18   4   17.81    2.72
   0 -18   4   18.90    1.96
   0  18  -4   17.68    3.55
   0  18   4   17.34    0.73
   0  18   6   17.33    0.81
   0  18  -6   18.81    0.80
   0 -18  -6   17.66    0.83
   0  18  -6   18.27    0.91
   0  19  -1   -0.25    0.18
   0 -19  -1   -2.60    1.79
   0  19   1    0.97    0.94
   0  19  -1   -0.32    0.81
   0  19   1    0.80    1.60
   0  19  -1    0.79    1.67
   0  19   1   -0.30    1.21
   0  19  -1    0.07    1.06
   0 -19  -1    0.67    1.11
   0  19  -1   -0.43    1.36
   0  19   1    0.07    0.13
   0 -19   1   -1.69    1.75
   0  19   1    1.21    0.77
   0 -19  -1   -0.93    1.43
   0 -19   1    0.54    1.46
   0 -19   1   -0.38    0.86
   0 -19  -1    1.13    0.94
   0 -19   1   -0.55    1.01
   0  19   1   -0.07    0.19
   0  19  -1    0.16    0.11
   0  19  -3    0.05    1.24
   0  19  -3    2.53    1.66
   0 -19  -3   -0.23    1.65
   0 -19   3   -0.77    1.21
   0  19  -3    0.07    0.12
   0 -19  -3   -0.35    1.21
   0 -19  -3   -4.01    2.32
   0  19  -3    1.96    2.41
   0  19   3   -0.49    1.51
   0 -19   3   -1.56    1.53
   0  19  -3    1.11    1.05
   0  19  -3    0.00    0.19
   0 -19   3    2.83    2.50
   0  19   3   -1.14    0.89
   0  19  -3   -0.05    0.13
   0  19   3    0.03    0.16
   0 -19  -3   -0.83    0.95
   0  19   3    1.73    2.33
   0 -19   3    0.61    1.05
   0  19   3    0.94    1.20
   0  19  -5   -0.16    0.28
   0  19  -5    2.06    2.21
   0 -19   5    7.36    2.28
   0 -19   5   -2.64    1.69
   0  19  -5    0.56    0.23
   0  19   5    6.00    2.21
   0  19   5    0.05    0.23
   0  19  -5    5.05    2.99
   0 -19   5    0.18    2.85
   0  19  -5    3.08    4.13
   0  19   5   -1.94    1.75
   0 -19   5    0.14    3.71
   0  19  -5    0.34    1.96
   0  19   5   -5.84    2.66
   0  20   0  101.65    5.14
   0  20   0  100.95    2.53
   0  20   0  100.59    4.44
   0 -20   0  105.60    4.79
   0 -20   0   95.70    5.44
   0  20   0  100.42    2.54
   0 -20   0   99.59    3.81
   0 -20   0   96.66    4.07
   0  20   0   98.53    2.67
   0  20   0  102.96    3.69
   0  20   0   98.65    3.88
   0  20  -2   13.11    0.50
   0 -20  -2    7.21    3.12
   0  20   2   14.39    1.84
   0  20   2    6.38    1.77
   0  20  -2   12.54    0.42
   0  20   2    6.76    1.42
   0  20   2   10.53    2.62
   0 -20   2   11.61    2.47
   0  20  -2   13.09    0.61
   0 -20   2   11.02    1.87
   0 -20   2    9.04    1.59
   0 -20   2   12.23    2.91
   0  20   2   10.20    0.55
   0  20   4   20.81    2.26
   0  20   4   13.83    2.66
   0  20  -4   19.38    2.49
   0  20  -4   17.91    0.69
   0  20  -4   10.03    3.71
   0  20  -4   19.82    2.87
   0  20  -4   20.37    3.71
   0  20   4   13.92    2.49
   0 -20   4   15.31    2.10
   0  20   4   16.07    3.60
   0 -20   4   16.86    3.33
   0 -20   4   20.68    3.75
   0 -20   4   20.30    2.64
   0  20   4   15.77    0.72
   0  20  -4   18.81    0.82
   0  20  -6    8.02    0.71
   0 -21   1   -1.08    0.89
   0  21  -1    0.67    1.50
   0 -21  -1    0.25    1.80
   0 -21   1   -0.16    1.08
   0  21   1    0.11    0.14
   0  21  -1    1.96    2.52
   0  21  -1   -0.94    1.74
   0 -21   1    2.76    2.23
   0 -21  -1   -5.34    2.55
   0  21  -1   -0.10    0.12
   0 -21  -1   -1.05    1.12
   0 -21   1   -0.22    1.48
   0  21   1    0.10    0.18
   0  21  -1    0.29    0.21
   0  21  -1    0.03    0.13
   0 -21  -1    0.76    1.46
   0  21   3   -1.05    1.00
   0  21   3    0.19    0.17
   0 -21  -3    2.48    1.46
   0  21  -3   -0.28    0.20
   0 -21  -3    5.32    3.08
   0  21  -3    0.62    1.93
   0  21   3    1.01    1.30
   0  21   3   -0.49    1.64
   0 -21  -3   -1.06    1.81
   0 -21   3    0.35    1.19
   0  21  -3   -0.02    0.12
   0  21  -3    1.22    2.74
   0  21  -3   -0.22    1.34
   0  21   3   -0.42    2.58
   0  21  -3   -0.35    1.17
   0 -21   3   -2.27    1.79
   0 -21   3    2.47    2.91
   0  21  -3    0.02    0.15
   0  21   3    0.27    0.20
   0 -21   3    1.30    1.40
   0 -21  -3   -0.68    1.09
   0 -21   5    0.44    2.57
   0  21   5   -2.83    4.03
   0  21  -5   -4.05    2.35
   0 -21   5    2.51    4.36
   0  21   5   -2.29    3.10
   0  21   5    2.05    2.37
   0  21  -5    4.16    3.48
   0  21   5    1.89    2.02
   0  21  -5   11.10    5.03
   0  21  -5   -0.28    1.95
   0 -21   5   -1.91    2.15
   0 -21   5    1.06    3.49
   0  22   0  146.83    3.47
   0 -22   0  121.28    6.68
   0  22   0  139.36    3.62
   0  22   0  145.18    3.49
   0  22   0  144.76    4.81
   0 -22   0  125.68    5.76
   0 -22   0  133.94    8.11
   0  22   0  141.69    5.08
   0  22   0  145.64    5.79
   0 -22   0  126.76    5.44
   0  22   0  145.15    6.61
   0 -22  -2   49.62    5.17
   0  22  -2   58.47    5.12
   0 -22   2   56.13    2.93
   0 -22   2   54.41    3.25
   0  22  -2   52.01    1.41
   0 -22  -2   51.50    3.04
   0 -22  -2   41.21    4.01
   0  22  -2   52.63    2.92
   0  22  -2   51.10    1.65
   0  22   2   54.34    1.63
   0 -22  -2   53.29    3.41
   0 -22   2   52.84    3.94
   0  22  -2   49.18    3.92
   0  22   2   62.97    3.29
   0  22  -2   56.53    3.30
   0  22  -2   52.13    1.50
   0  22   2   67.52    4.92
   0  22   2   61.35    2.95
   0  22   2   56.78    1.49
   0  22   2   58.10    3.90
   0 -22   2   57.44    5.07
   0  22   4  114.74    7.30
   0 -22   4  120.22    5.34
   0  22   4  114.37    6.17
   0  22  -4  118.61    3.30
   0  22  -4  116.72    3.13
   0  22   4  122.25    5.34
   0 -22   4  121.15    4.92
   0 -22  -4  115.24    6.75
   0  22  -4  120.66    5.55
   0 -22  -4  121.15    8.30
   0  22   4  122.59    4.92
   0 -22  -4  118.89    5.19
   0  22  -4  121.37    5.11
   0 -22   4  128.20    7.70
   0 -22   4  117.56    6.28
   0  22  -4  120.64    7.90
   0 -22  -4  119.28    5.68
   0  22  -4  122.87    6.59
   0  22   4  122.82    3.22
   0 -23  -1    1.43    1.64
   0  23   1   -2.51    1.54
   0  23  -1    1.42    1.12
   0  23  -1    0.02    0.13
   0 -23   1    1.42    2.90
   0  23   1   -0.02    0.16
   0 -23   1   -2.19    1.26
   0  23   1   -0.04    0.20
   0 -23  -1    1.17    1.41
   0  23  -1   -0.56    1.28
   0  23  -1   -0.65    2.29
   0 -23  -1    0.14    2.11
   0  23  -1    0.08    0.15
   0  23  -1   -3.30    1.68
   0  23  -1   -0.12    0.21
   0  23   1   -1.88    1.21
   0 -23   1   -0.23    1.06
   0  23   1    0.04    0.15
   0 -23   1    0.10    1.73
   0 -23  -1   -0.24    2.78
   0  23   1    0.50    2.39
   0  23   1   -0.53    1.07
   0 -23  -3   -2.12    3.42
   0 -23   3    0.77    3.34
   0 -23   3    1.50    1.83
   0  23  -3    1.45    3.47
   0  23   3   -0.43    2.04
   0 -23  -3    5.61    2.41
   0 -23  -3    1.08    1.72
   0  23  -3    2.38    1.47
   0  23   3   -2.93    2.85
   0  23   3   -0.80    1.27
   0  23   3    3.40    1.57
   0 -23   3    0.88    2.45
   0  23  -3    0.50    2.18
   0  23  -3    0.97    1.66
   0 -23   3    0.78    1.51
   0 -23  -3   -0.53    1.35
   0  23  -5    0.28    0.35
   0  23   5   -0.05    0.28
   0  23  -5    0.07    0.26
   0 -24   0  164.18    8.23
   0 -24   0  173.91    7.19
   0  24   0  170.66    4.21
   0  24   0  180.57    7.79
   0 -24   0  170.51    5.91
   0  24   0  156.60    4.28
   0  24   0  174.95    6.78
   0 -24   0  171.55    6.29
   0  24   0  175.71    5.70
   0  24   0  178.27    6.06
   0  24   0  162.73    4.38
   0  24  -2   33.02    0.96
   0  24  -2   32.40    2.93
   0 -24   2   32.52    5.08
   0  24   2   33.21    1.01
   0  24  -2   34.09    2.55
   0 -24  -2   32.05    4.03
   0 -24   2   36.13    2.72
   0 -24  -2   31.63    5.31
   0  24  -2   33.22    3.71
   0 -24   2   38.87    4.03
   0 -24   2   35.12    3.10
   0  24  -2   40.02    4.99
   0 -24  -2   39.28    2.86
   0  24   2   33.54    1.17
   0  24   2   35.11    4.63
   0  24  -2   34.18    1.21
   0  24   2   31.43    2.48
   0 -24  -2   33.22    3.16
   0  24   2   30.68    3.48
   0  24  -2   32.92    1.04
   0  24   2   33.74    2.82
   0  24   4   27.20    2.94
   0 -24  -4   24.12    5.21
   0  24  -4   18.90    5.21
   0  24   4   19.05    3.30
   0  24  -4   19.87    3.14
   0  24   4   19.26    0.87
   0  24  -4   19.40    0.78
   0  24   4   17.35    3.47
   0 -24   4   14.02    2.59
   0  24   4   15.69    4.65
   0  24   4   20.83    0.74
   0  24  -4   21.04    0.97
   0  24  -4   17.44    3.24
   0 -24  -4   16.55    3.24
   0 -24   4   14.33    4.73
   0 -24   4   14.59    3.30
   0  24  -4   14.84    3.75
   0 -24  -4   15.35    5.09
   0 -24  -4   20.79    3.41
   0 -24   4   17.23    2.76
   0 -25  -1    3.06    3.36
   0 -25  -1   -1.53    2.44
   0 -25  -1   -0.17    1.79
   0  25  -1    0.72    1.58
   0 -25   1   -0.13    1.71
   0  25  -1   -1.56    2.69
   0 -25   1    1.51    3.06
   0  25   1   -1.62    1.92
   0  25   1    1.56    1.45
   0 -25   1    5.01    2.51
   0  25  -1    1.67    2.23
   0  25   1    1.48    1.23
   0 -25  -1    3.08    1.62
   0  25  -1    1.58    1.35
   0  25   1   -3.38    2.64
   0 -25   1    2.11    1.42
   0 -25   3   -0.76    1.60
   0 -25  -3   -3.68    4.07
   0  25   3    0.28    0.27
   0 -25  -3    2.25    2.98
   0 -25  -3    1.00    2.23
   0 -25   3   -1.22    1.92
   0  25  -3   -2.40    2.78
   0  25   3   -3.07    3.39
   0 -25   3   -1.35    3.93
   0  25  -3    0.06    1.68
   0  25  -3   -0.25    2.06
   0 -25  -3   -1.34    1.73
   0  25  -3   -2.38    3.68
   0  25   3    1.12    2.07
   0  25   3   -4.49    2.53
   0  25  -3    0.01    0.30
   0  25  -3    0.06    0.20
   0 -25   3   -2.83    2.59
   0  25   3    0.09    0.21
   0  25   3    2.11    1.76
   0  26   0  110.74    2.79
   0  26   0  109.57    2.79
   0  26   0  111.72    4.41
   0  26   0  106.68    6.51
   0  26   0  116.48    4.79
   0 -26   0   93.67    4.82
   0 -26   0  109.09    7.11
   0 -26   0  105.63    4.56
   0 -26   0  101.23    5.76
   0  26   0  121.50    5.64
   0  26   2  191.18    4.84
   0 -26  -2  191.66    6.75
   0  26  -2  187.36    4.89
   0 -26   2  175.58    9.52
   0  26   2  189.49    6.88
   0  26  -2  172.34    7.75
   0 -26  -2  193.73    8.30
   0  26   2  185.36    6.45
   0 -26   2  199.57    6.74
   0 -26   2  203.68    8.31
   0 -26   2  193.18    7.16
   0  26   2  190.96    4.64
   0 -26  -2  173.69    9.52
   0  26  -2  189.49    4.67
   0  26   2  179.08    7.71
   0  26  -2  182.72    6.50
   0  26  -2  185.24    4.55
   0  26  -2  178.24    9.13
   0 -26  -2  184.34    7.15
   0  26   2  206.95    9.31
   0  26  -2  170.20    6.80
   0  26  -4   62.37    1.98
   0 -26  -4   48.57    6.77
   0  26   4   59.02    1.87
   0  26   4   74.50    8.09
   0  26   4   58.00    5.30
   0  26   4   66.56    6.32
   0 -26  -4   52.46    5.36
   0 -26   4   50.39    8.59
   0 -26   4   61.20    5.34
   0 -26   4   52.29    6.33
   0  26   4   61.52    1.69
   0  26  -4   57.60    1.75
   0  26   4   52.54    4.55
   0 -26  -4   62.80    4.71
   0 -26   4   63.86    7.38
   0 -26  -4   72.34    9.16
   0  27  -1   -0.04    0.26
   0  27   1    0.32    0.28
   0  27   1    0.51    1.52
   0 -27  -1   -1.18    3.88
   0  27   1   -1.09    3.31
   0  27  -1    0.04    0.18
   0 -27   1   -3.16    2.22
   0  27   1    0.04    0.18
   0 -27  -1   -5.05    2.80
   0 -27  -1    1.14    1.76
   0  27   1   -0.29    2.16
   0  27  -1   -0.17    0.20
   0  27  -1   -0.13    1.98
   0  27  -1   -1.15    1.56
   0 -27   1    4.15    1.80
   0  27  -1   -2.89    2.53
   0 -27   1   -0.99    1.42
   0 -27   1   -0.93    3.58
   0  27   1   -1.48    1.72
   0  27   1    0.04    0.18
   0  27  -1   -1.37    3.24
   0 -27  -1    1.21    2.14
   0 -27  -3    1.97    4.97
   0 -27   3   -3.19    4.41
   0  27  -3    5.39    2.28
   0  27   3   -0.25    0.28
   0  27   3    0.60    2.84
   0 -27   3    0.67    2.61
   0  27   3    0.49    0.24
   0  27  -3    3.47    2.76
   0 -27   3    2.02    3.51
   0  27   3   -0.77    2.14
   0 -27  -3    1.52    2.76
   0  27  -3   -4.10    3.35
   0  27   3   -4.69    4.14
   0  27  -3   -9.29    4.43
   0 -27  -3    0.23    3.60
   0  27  -3   -0.14    0.31
   0 -27  -3    1.97    2.24
   0  27   3    1.33    1.77
   0  27  -3    0.14    0.20
   0 -28   0   11.06    2.47
   0 -28   0   12.37    3.29
   0  28   0   13.39    0.57
   0  28   0   12.66    0.72
   0  28   0   13.30    0.56
   0  28   0    8.74    1.80
   0  28   0    9.71    2.10
   0 -28   0   11.35    2.25
   0  28   0    8.06    2.59
   0 -28   0   17.16    4.60
   0  28   0   14.08    3.94
   0  28  -2   78.02    5.82
   0  28   2   76.23    2.05
   0 -28  -2   81.14    8.25
   0  28  -2   81.75    4.83
   0 -28   2   74.33    5.90
   0  28  -2   70.97    4.16
   0  28   2   74.26    2.12
   0  28   2   72.54    4.08
   0  28   2   73.56    2.24
   0 -28  -2   77.70    5.05
   0  28  -2   75.59    2.31
   0 -28   2   75.54    7.58
   0 -28   2   84.94    4.40
   0  28   2   73.60    7.11
   0  28   2   69.05    4.51
   0 -28  -2   69.18    4.32
   0  28  -2   90.74    7.56
   0  28   2   81.72    5.67
   0 -28   2   71.03    4.77
   0 -28  -2   79.57    6.35
   0  28  -2   80.10    2.34
   0 -29   1   -1.39    1.77
   0  29   1    0.19    0.20
   0  29   1    0.56    2.13
   0  29   1    5.12    3.18
   0 -29  -1   -1.59    3.57
   0  29   1    0.11    0.30
   0 -29  -1   -3.50    2.60
   0  29  -1    0.14    0.31
   0  29  -1    0.27    4.01
   0  29  -1    0.88    2.87
   0 -29   1    0.13    2.20
   0  29  -1    0.20    0.21
   0  29   1    1.65    3.80
   0 -29   1    1.02    3.28
   0 -29  -1   -3.99    2.05
   0  29  -1    2.78    1.90
   0 -29  -1   10.33    4.75
   0  29   1    0.28    0.21
   0 -29   1   -3.82    4.25
   0  29  -1   -0.24    0.21
   0  29   1   -1.49    1.77
   0  29  -1    2.00    2.22
   0  29  -3    0.64    0.27
   0  29   3    0.30    0.28
   0  29  -3    0.06    0.36
   0 -29  -3   -0.07    4.60
   0 -29  -3    7.23    2.89
   0  29   3   -0.08    0.32
   0 -29  -3   -0.01    3.38
   0 -29  -3   -5.02    6.07
   0  30   0    6.66    3.06
   0  30   0    9.27    2.14
   0  30   0    9.15    4.35
   0  30   0    6.68    0.62
   0  30   0    4.07    2.31
   0  30   0    6.59    0.45
   0 -30   0    7.50    2.52
   0  30   0    7.39    0.45
   0 -30   0    7.30    3.88
   0 -30   0    5.63    2.89
   0 -30   0    1.51    4.67
   0 -30  -2   -3.05    5.92
   0  30   2   13.42    4.85
   0 -30  -2    8.46    3.03
   0  30  -2    4.16    0.62
   0  30   2   -1.20    2.83
   0 -30  -2    3.47    3.75
   0  30   2    4.77    0.44
   0 -30   2    7.35    2.43
   0  30   2    6.51    2.52
   0  30   2    3.96    0.41
   0 -30   2   -1.87    2.86
   0  30  -2    2.21    4.14
   0  30   2    4.38    0.54
   0 -30   2    4.23    5.38
   0 -30  -2    2.51    2.29
   0  30   2    8.75    4.10
   0  30  -2    4.31    0.41
   0  30  -2    0.69    3.40
   0 -30   2    9.13    4.06
   0  31   1    5.58    4.81
   0  31  -1    0.41    0.23
   0  31   1    0.06    0.24
   0  31   1   -1.36    3.35
   0 -31  -1    0.50    5.80
   0  31  -1    0.16    0.23
   0  31   1    0.00    0.32
   0  31  -1    4.17    3.72
   0 -31   1    7.94    5.73
   0  31   1    0.01    0.25
   0  31  -1   -3.69    5.79
   0  31  -1    5.02    5.04
   0  31   1   -1.70    2.10
   0 -31   1   -3.31    3.91
   0  31  -1   -0.37    0.31
   0 -31  -1   -0.84    4.14
   0 -31  -1    0.41    3.01
   0  31  -1    2.23    3.08
   0 -31   1    8.81    2.86
   0 -31  -1   -2.91    2.45
   0  31   1   -2.04    2.50
   0 -32   0  116.15   15.83
   0  32   0  137.89    3.67
   0  32   0  138.59    3.39
   0 -32   0  114.29   12.67
   0 -32   0  114.58    8.02
   0 -32   0  111.73    7.67
   0  32   0  136.80    3.38
  -1   0   0   -0.01    0.02
   1   0   0    0.03    0.02
  -1   0   0   -0.03    0.02
   1   0   0    0.02    0.03
  -1   0   2   -0.73    0.22
  -1   0  -2   -0.59    0.08
   1   0  -2   -0.59    0.05
   1   0   2   -0.82    0.25
  -1   0   2   -0.49    0.51
  -1   0   2   -0.75    0.39
   1   0  -2   -0.03    0.43
  -1   0   2   -0.54    0.28
  -1   0  -2   -0.56    0.05
   1   0  -2   -0.76    0.29
  -1   0   2   -0.56    0.05
  -1   0  -2   -0.44    0.22
  -1   0  -2   -0.47    0.51
   1   0  -2   -1.71    0.50
  -1   0  -2   -0.53    0.24
  -1   0   2   -0.69    0.05
  -1   0  -2   -0.72    0.04
   1   0  -2   -0.46    0.26
   1   0   2   -0.70    0.42
   1   0   2   -1.11    0.54
   1   0   2   -0.53    0.05
  -1   0  -2   -0.70    0.33
   1   0   2   -0.52    0.32
  -1   0  -4   -0.09    0.97
   1   0   4    0.25    0.64
   1   0  -4   -0.96    1.34
   1   0   4   -0.86    0.80
  -1   0  -4    0.68    0.75
   1   0  -4   -1.34    0.93
  -1   0  -4    0.05    0.63
  -1   0  -4    0.01    0.10
   1   0   4   -0.09    0.08
  -1   0   4   -0.84    0.68
   1   0   4    0.87    1.27
  -1   0  -4    2.75    1.44
  -1   0  -4    0.13    0.10
  -1   0   4    1.00    1.36
   1   0  -4    0.26    0.58
   1   0  -4   -0.09    0.08
   1   0   4   -0.34    0.51
  -1   0   4   -0.13    0.64
   1   0  -4   -0.32    0.70
  -1   0   4    0.09    0.10
  -1   0   4   -0.07    0.96
   1   0   6   -3.71    2.74
  -1   0  -6   -0.32    2.12
   1   0  -6    0.39    1.52
  -1   0  -6   -3.33    1.29
  -1   0   6   -0.91    2.79
  -1   0   6   -0.75    2.11
   1   0  -6   -2.31    1.77
   1   0   6   -1.50    1.16
   1   0  -6    5.44    3.25
   1   0   6   -0.54    1.48
  -1   0   6   -0.88    1.24
   1   0  -6    0.18    0.15
  -1   0  -6   -1.84    1.61
   1   0  -6    4.11    2.51
   1   0   6    0.08    0.15
   1   0   6    1.48    1.98
  -1   0  -6    2.57    3.03
  -1   0  -6    0.07    0.16
   1   0  -6    0.15    0.15
  -1   0   6    0.13    1.59
  -1   0  -6    0.17    0.16
   1   1   1  238.45    5.59
  -1  -1   1  233.94    5.83
   1   1   1  237.26    5.87
   1   1   1  242.89    5.61
  -1  -1   1  242.73    6.24
   1   1   1  246.16    5.59
  -1   1  -1  221.22    5.60
  -1   1  -1  244.97    5.58
   1   1   1  232.73    5.81
   1   1   1  238.04    6.18
  -1  -1   1  236.44    5.88
   1  -1  -1  235.33    5.58
  -1  -1   1  237.48    6.03
   1   1   1  238.10    6.01
   1  -1   1  236.88    5.59
   1  -1   1  235.82    6.19
   1  -1   1  243.98    5.59
   1   1  -1  230.92    5.89
   1  -1   1  235.39    6.00
  -1  -1  -1  231.91    5.87
  -1   1   1  236.77    6.29
   1  -1   1  228.51    5.81
   1   1  -1  235.46    6.04
  -1  -1  -1  240.91    6.22
  -1   1   1  236.41    5.92
   1   1  -1  230.66    5.83
   1   1  -1  239.71    6.24
   1  -1   1  234.94    5.60
  -1  -1  -1  233.06    5.82
   1  -1   1  230.43    5.86
  -1   1   1  240.72    6.09
  -1   1   1  235.54    5.86
  -1  -1  -1  237.92    6.02
  -1   1  -3  204.55    4.89
  -1   1  -3  202.54    4.90
   1  -1  -3  207.49    6.83
   1   1   3  202.30    5.60
   1   1   3  205.81    6.67
  -1  -1   3  204.68    5.80
   1  -1  -3  202.59    6.27
   1   1   3  205.49    6.15
  -1  -1   3  201.99    4.89
  -1   1  -3  196.09    5.76
   1   1   3  210.46    5.79
  -1   1  -3  194.88    5.60
   1   1   3  201.48    4.90
   1  -1  -3  202.87    5.68
  -1   1  -3  200.89    6.64
   1  -1  -3  198.98    4.88
  -1   1  -3  193.22    6.11
  -1  -1   3  208.87    6.20
  -1  -1   3  210.82    6.75
   1  -1  -3  205.72    5.86
  -1  -1   3  208.62    5.65
  -1  -1  -3  199.42    6.16
  -1   1   3  203.41    4.90
  -1  -1  -3  199.30    5.63
  -1  -1  -3  204.87    6.73
  -1   1   3  212.86    5.85
   1   1  -3  203.22    5.66
  -1   1   3  213.17    5.69
   1   1  -3  194.79    6.17
  -1  -1  -3  200.09    4.89
   1  -1   3  210.62    6.19
  -1  -1  -3  199.56    4.90
   1   1  -3  201.45    4.88
  -1   1   3  207.33    6.72
  -1   1   3  212.89    6.27
   1   1  -3  198.23    5.79
   1  -1   3  202.51    4.90
   1  -1   3  212.40    5.63
  -1  -1  -3  198.51    5.78
   1   1  -3  206.01    6.76
   1  -1   3  208.70    5.78
   1  -1   3  203.07    6.64
   1   1   5  124.52    4.47
   1   1   5  133.68    5.44
  -1  -1   5  135.55    3.30
  -1   1  -5  128.94    4.56
  -1  -1   5  126.57    4.48
   1  -1  -5  135.54    4.72
  -1  -1   5  127.80    4.76
  -1  -1   5  127.81    6.21
   1   1   5  136.38    4.84
   1   1   5  131.30    3.31
  -1   1  -5  133.54    5.55
  -1   1  -5  131.58    3.32
  -1   1  -5  126.01    4.82
   1   1   5  140.56    6.38
   1  -1  -5  135.12    5.02
   1  -1  -5  119.98    3.32
  -1  -1   5  130.55    5.42
  -1   1  -5  131.77    6.39
   1  -1  -5  127.55    5.63
   1  -1  -5  132.18    6.53
   1  -1  -5  132.91    3.29
  -1   1  -5  132.96    3.28
   1  -1   5  129.61    6.21
  -1  -1  -5  133.73    3.29
   1   1  -5  138.58    6.66
   1  -1   5  132.66    5.46
  -1  -1  -5  132.28    3.31
   1   1  -5  141.55    5.78
   1  -1   5  138.54    4.84
  -1   1   5  134.54    5.49
   1  -1   5  132.41    3.31
  -1  -1  -5  125.49    4.54
   1   1  -5  132.24    3.25
   1  -1   5  136.33    4.55
   1   1  -5  131.86    3.29
  -1   1   5  134.95    6.36
  -1   1   5  133.58    3.31
  -1  -1  -5  134.24    4.87
  -1   1   5  130.43    4.55
   1   1  -5  134.52    4.99
  -1   1   5  133.08    4.85
  -1  -1  -5  125.02    5.40
   1   1  -5  132.18    4.68
  -1  -1  -5  136.82    6.42
  -1   1  -7   70.57    1.96
  -1  -1   7   62.32    4.49
  -1  -1   7   68.61    5.70
  -1   1  -7   69.51    1.90
   1  -1  -7   70.79    1.89
  -1  -1   7   68.75    4.03
   1  -1  -7   71.25    1.92
  -1  -1   7   53.80    7.31
   1   1   7   68.87    1.95
  -1   1   7   63.41    5.86
  -1   1   7   71.26    1.94
  -1   1   7   59.41    7.61
   1   1  -7   71.03    1.93
   1   1  -7   70.28    1.87
  -1   1   7   72.77    4.14
   1  -1   7   70.43    1.95
  -1  -1  -7   68.08    1.90
  -1   1   7   67.23    4.65
   1  -2   0    4.30    0.26
   1  -2   0    4.41    0.35
   1   2   0    4.35    0.25
   1  -2   0    3.68    0.40
  -1  -2   0    4.14    0.22
  -1   2   0    4.01    0.30
  -1  -2   0    2.94    0.13
   1  -2   0    4.61    0.30
   1  -2   0    3.57    0.14
   1  -2   0    2.95    0.11
  -1  -2   0    3.84    0.30
  -1   2   0    4.04    0.27
  -1   2   0    3.48    0.13
   1   2   0    3.18    0.14
   1   2   0    3.69    0.28
  -1   2   0    3.58    0.15
  -1  -2   0    3.45    0.13
  -1   2   0    4.22    0.36
   1   2   0    3.80    0.20
   1   2   0    3.35    0.13
   1  -2   0    3.43    0.14
   1  -2   0    3.58    0.15
  -1  -2   0    3.89    0.26
  -1   2   0    4.26    0.44
  -1   2   0    3.65    0.14
  -1  -2   0    4.25    0.21
   1   2   0    4.14    0.19
  -1  -2   2    1.83    0.44
   1   2   2    1.34    0.12
  -1  -2   2    1.69    0.53
  -1   2  -2    1.69    0.41
   1   2   2    1.45    0.43
  -1   2  -2    1.40    0.49
   1   2   2    2.02    0.70
  -1   2  -2    1.27    0.11
   1  -2  -2    1.30    0.10
  -1   2  -2    1.47    0.11
  -1  -2   2    2.03    0.40
  -1   2  -2    1.34    0.39
  -1   2  -2    1.58    0.64
  -1  -2   2    0.58    0.57
   1   2   2    2.00    0.43
   1   2   2    1.86    0.59
  -1   2  -2    1.44    0.13
  -1  -2  -2    1.64    0.16
  -1  -2  -2    1.48    0.12
   1  -2   2    0.72    0.63
   1  -2   2    1.61    0.54
   1   2  -2    1.43    0.66
   1   2  -2    1.29    0.46
   1   2  -2    1.38    0.11
   1  -2   2    1.67    0.40
  -1   2   2    0.93    0.33
  -1  -2  -2    1.74    0.47
  -1   2   2    1.22    0.68
  -1  -2  -2    1.00    0.67
  -1   2   2    1.34    0.10
  -1  -2  -2    1.51    0.56
  -1  -2  -2    1.61    0.42
   1   2  -2    1.67    0.41
   1   2  -2    1.56    0.40
   1  -2   2    1.30    0.11
  -1   2   2    1.00    0.37
  -1   2   2    1.24    0.11
   1  -2   2    1.75    0.15
  -1   2   2    1.25    0.49
   1  -2   2    1.88    0.45
  -1  -2   4    0.21    0.09
  -1  -2   4    1.14    1.03
  -1   2  -4    0.02    0.82
  -1  -2   4    0.39    0.59
  -1  -2   4    0.65    0.75
   1   2   4   -0.28    0.93
   1   2   4    1.03    0.73
   1  -2  -4   -0.26    1.33
  -1   2  -4   -0.51    1.27
  -1  -2   4   -0.09    1.31
   1   2   4   -1.12    1.24
  -1   2  -4    1.04    0.65
   1  -2  -4   -0.94    1.07
   1   2   4    0.15    0.60
   1  -2  -4    0.63    0.74
   1  -2  -4    0.21    0.10
  -1   2  -4    0.26    0.18
   1  -2  -4   -0.19    0.81
   1   2   4    0.21    0.11
  -1   2  -4    0.12    0.10
  -1   2  -4    0.83    0.58
   1  -2   4    0.08    0.09
   1   2  -4    0.22    0.09
  -1   2   4   -0.35    0.58
   1  -2   4    0.45    0.58
   1   2  -4    0.26    0.10
  -1  -2  -4    0.05    0.57
  -1   2   4    0.21    0.09
   1   2  -4   -0.10    0.99
  -1  -2  -4    0.24    1.30
  -1  -2  -4   -0.29    0.91
  -1  -2  -4    0.29    0.12
   1  -2   4   -0.35    0.65
  -1   2   4    0.57    1.34
  -1  -2  -4    0.34    0.72
  -1   2   4    0.24    0.72
   1   2  -4    0.44    0.58
  -1   2   4   -0.26    0.95
   1   2  -4    0.49    0.69
  -1  -2  -4    0.24    0.09
   1   2  -4    0.88    1.33
   1  -2   4   -0.23    1.16
   1  -2   4   -0.88    0.86
   1   2   6    1.99    1.58
  -1   2  -6    0.66    0.18
   1   2   6    0.45    0.18
  -1   2  -6    0.57    0.20
  -1  -2   6    1.40    3.00
  -1   2  -6    2.61    1.63
  -1   2  -6    0.07    1.25
   1  -2  -6    0.58    0.17
  -1  -2   6    0.73    1.21
  -1  -2   6    0.99    1.92
  -1   2  -6   -1.53    2.15
   1   2   6    0.43    3.09
  -1  -2   6    0.08    1.44
   1   2   6    1.44    2.05
   1  -2  -6    0.43    0.18
  -1   2  -6    1.93    2.98
   1   2   6   -0.38    1.24
   1  -2   6    5.59    2.44
   1  -2   6    0.58    1.39
   1  -2   6    3.12    1.75
   1   2  -6    0.18    2.14
  -1   2   6    0.46    0.16
  -1   2   6   -0.27    1.91
  -1   2   6    0.72    1.17
  -1   2   6   -0.79    1.40
  -1   2   6    1.53    3.01
   1  -2   6    0.52    0.17
  -1  -2  -6    0.55    0.19
  -1   2   6    0.75    2.97
   1   2  -6   -0.80    1.32
   1   2  -6    0.31    3.13
   1   2  -6    1.30    1.67
   1  -2   6    1.96    2.96
   1   2  -6    0.57    0.16
   1   2  -6    0.58    0.18
  -1  -3   1    6.66    0.21
  -1   3  -1    6.57    0.22
   1   3   1    8.23    0.24
   1   3   1    6.85    0.52
  -1   3  -1    6.24    0.24
   1   3   1    8.09    0.45
  -1   3  -1    6.43    0.22
  -1  -3   1    7.55    0.24
   1   3   1    8.09    0.24
  -1  -3   1    7.23    0.41
   1  -3  -1    6.23    0.23
   1  -3  -1    5.10    0.66
  -1  -3   1    6.92    0.44
  -1   3  -1    6.31    0.24
   1   3   1    6.70    0.69
  -1  -3   1    7.57    0.65
  -1  -3   1    7.34    0.54
   1   3   1    6.69    0.47
   1   3   1    7.73    0.25
   1  -3  -1    5.70    0.83
  -1   3  -1    6.87    0.22
   1   3   1    7.11    0.43
   1  -3  -1    5.08    0.49
   1   3   1    7.56    0.64
   1  -3  -1    5.58    0.55
   1   3   1    7.87    0.60
   1   3   1    6.97    0.40
   1   3  -1    6.01    0.40
   1  -3   1    7.40    0.24
   1  -3   1    8.01    0.23
  -1  -3  -1    6.51    0.23
  -1   3   1    7.63    0.19
   1  -3   1    6.66    0.44
   1   3  -1    6.76    0.19
  -1  -3  -1    6.77    0.23
   1  -3   1    7.01    0.49
   1   3  -1    5.63    0.63
   1  -3   1    6.90    0.71
   1   3  -1    5.60    0.43
   1   3  -1    6.16    0.23
   1   3  -1    6.18    0.53
   1  -3   1    7.86    0.23
  -1   3   1    7.84    0.23
   1  -3   1    7.03    0.59
  -1  -3   3   19.98    1.14
   1   3   3   20.06    0.58
   1   3   3   20.01    1.29
  -1  -3   3   19.41    1.86
  -1   3  -3   18.00    0.54
   1  -3  -3   18.26    0.54
  -1   3  -3   18.26    0.57
  -1   3  -3   16.75    1.10
  -1   3  -3   16.95    1.22
  -1  -3   3   18.30    1.49
  -1   3  -3   15.28    1.75
  -1  -3   3   19.67    1.25
  -1   3  -3   16.38    1.48
   1   3   3   19.60    1.56
   1   3   3   20.55    1.17
   1   3   3   20.15    1.93
  -1   3   3   19.12    1.29
   1  -3   3   19.76    1.48
   1   3  -3   17.56    1.11
  -1  -3  -3   18.05    0.56
  -1  -3  -3   16.74    1.25
  -1   3   3   17.99    1.54
   1  -3   3   20.77    1.13
  -1   3   3   20.53    0.58
   1  -3   3   20.32    0.57
  -1   3   3   18.52    1.15
   1   3  -3   17.27    1.21
   1  -3   3   17.44    1.17
  -1  -3  -3   17.30    1.15
   1   3  -3   18.05    0.55
   1   3  -3   17.43    1.48
   1  -3   3   17.51    1.74
  -1  -3  -3   17.93    1.52
  -1  -3  -3   12.25    1.76
  -1   3   3   21.07    1.97
   1   3  -3   18.89    1.81
  -1  -3   5   16.12    1.90
  -1  -3   5   17.64    3.27
   1  -3  -5   14.42    0.52
  -1   3  -5   14.40    0.56
  -1  -3   5   15.52    2.50
   1   3   5   16.21    2.41
  -1   3  -5   13.82    2.88
   1   3   5   15.51    0.57
  -1   3  -5   13.55    1.85
  -1   3  -5   17.89    1.70
   1   3   5   16.18    3.21
  -1   3  -5   13.00    2.39
  -1   3  -5   14.37    0.51
  -1  -3   5   12.74    1.61
   1   3   5   16.94    1.93
   1   3   5   15.38    1.62
   1  -3   5   13.21    2.29
   1  -3   5   16.86    1.86
  -1   3   5   17.13    3.14
  -1  -3  -5   14.47    0.54
   1  -3   5   21.43    3.28
  -1   3   5   14.72    0.55
   1  -3   5   15.59    0.55
   1  -3   5   17.45    1.63
  -1   3   5   15.43    1.67
  -1   3   5   15.30    3.24
   1   3  -5   15.10    0.50
   1   3  -5   14.63    0.55
   1   3  -5   16.35    3.05
   1   3  -5   18.90    2.71
  -1   3   5   16.50    1.93
   1   3  -5   14.51    2.05
  -1   3   5   16.24    1.63
  -1   3   5   16.21    2.53
   1   3  -5   14.41    1.79
   1   3   7    4.02    2.42
  -1  -3   7   12.86    4.93
   1   3   7    4.68    0.42
   1  -3  -7    4.53    0.41
  -1  -3   7    5.26    3.20
  -1  -3   7    4.00    2.40
   1   3   7    1.56    3.07
  -1   3  -7    5.08    0.40
  -1   3  -7    4.84    0.41
  -1  -3   7    6.16    1.98
   1   3   7    3.59    2.03
   1   3   7    7.13    4.61
  -1  -3  -7    3.86    0.40
   1   3  -7    1.32    4.85
   1   3  -7    3.50    3.89
   1   3  -7    4.81    0.39
   1   3  -7    4.85    2.58
   1   3  -7    4.36    0.36
   1   3  -7    6.34    3.04
  -1   3   7    5.31    2.47
  -1   3   7    8.14    2.19
  -1   3   7    7.67    4.99
  -1   3   7    0.55    3.18
  -1   3   7    4.89    0.39
   1   4   0   16.56    0.60
   1  -4   0   17.01    1.01
   1   4   0   15.27    0.42
   1   4   0   14.75    0.41
  -1   4   0   15.29    0.43
   1   4   0   16.91    0.65
  -1   4   0   16.79    0.44
  -1   4   0   16.65    0.46
  -1  -4   0   16.71    0.66
  -1  -4   0   17.05    0.62
   1   4   0   16.31    0.43
   1  -4   0   17.08    0.74
   1  -4   0   15.65    0.43
   1  -4   0   17.51    0.69
   1   4   0   17.10    0.44
   1  -4   0   17.51    0.87
   1  -4   0   15.86    0.40
  -1  -4   0   15.46    0.85
   1  -4   0   16.47    0.45
  -1  -4   0   15.57    0.41
   1   4   0   16.86    0.84
   1  -4   0   15.93    0.45
  -1  -4   0   16.85    0.76
   1   4   0   16.98    0.73
  -1   4  -2    6.06    0.58
  -1   4  -2    8.88    1.07
   1   4   2    5.30    0.60
  -1   4  -2    6.06    0.23
   1   4   2    6.25    0.69
  -1  -4   2    5.47    0.77
  -1  -4   2    5.90    0.54
  -1   4  -2    6.30    0.24
   1   4   2    6.31    0.24
  -1  -4   2    6.37    0.63
  -1   4  -2    6.19    0.82
  -1   4  -2    5.64    0.64
   1   4   2    6.67    0.88
  -1   4  -2    6.25    0.22
   1  -4  -2    5.88    0.20
   1   4   2    6.08    0.53
   1   4   2    5.59    0.59
   1   4   2    6.91    0.96
   1   4   2    5.12    1.00
  -1  -4   2    7.10    1.01
   1   4   2    5.57    0.74
   1  -4   2    6.59    0.23
  -1   4   2    7.43    0.72
  -1  -4  -2    6.25    0.24
  -1   4   2    6.81    0.65
  -1   4   2    5.91    0.86
  -1   4   2    6.37    0.57
  -1   4   2    5.90    0.20
  -1   4   2    6.31    1.15
   1  -4   2    6.53    0.74
  -1   4   2    6.23    0.81
  -1   4   2    6.12    0.24
   1   4  -2    6.16    0.63
   1   4  -2    6.16    0.23
   1  -4   2    7.08    0.61
   1   4  -2    7.47    1.07
   1   4  -2    6.40    0.78
   1   4  -2    6.25    0.56
   1  -4   2    5.94    0.92
   1  -4   2    6.30    0.54
  -1   4   2    5.28    0.97
  -1   4   2    6.32    0.61
  -1  -4   4   -0.19    0.70
  -1   4  -4   -0.23    0.95
   1   4   4    0.14    0.59
   1   4   4    1.94    1.51
  -1  -4   4    2.15    1.59
  -1   4  -4    0.32    0.12
   1   4   4   -1.11    0.66
  -1   4  -4    0.60    0.75
   1   4   4    0.59    0.99
   1   4   4    0.50    0.13
  -1  -4   4    0.72    0.99
  -1  -4   4    0.82    0.61
  -1   4  -4    0.47    0.11
  -1   4  -4    0.29    0.58
  -1   4  -4    0.96    1.39
   1  -4  -4    0.61    0.12
   1   4  -4    0.49    0.13
  -1   4   4   -0.94    1.40
  -1   4   4   -1.10    0.55
   1   4  -4    1.17    0.80
   1  -4   4    1.54    0.75
  -1   4   4    0.25    0.61
  -1   4   4    0.58    0.99
   1   4  -4    0.39    0.09
  -1   4   4    1.02    1.45
  -1   4   4    0.51    0.12
   1  -4   4    0.48    0.11
   1   4  -4    0.39    0.62
  -1   4   4   -0.40    0.70
   1   4  -4    0.28    1.41
   1   4  -4   -0.68    0.94
   1  -4   4    3.87    1.51
   1  -4   4    0.47    0.96
   1  -4   4    0.25    0.58
  -1   4   4   -0.47    0.74
  -1   4   4    1.41    1.08
  -1  -4   6    5.12    2.50
   1   4   6    1.03    0.22
   1   4   6    0.23    1.33
   1  -4  -6    1.15    0.23
   1  -4  -6    1.17    0.22
  -1  -4   6    2.73    3.00
  -1   4  -6    0.78    2.35
   1   4   6   -3.35    2.82
   1   4   6   -0.24    1.40
  -1   4  -6   -0.94    1.77
  -1   4  -6    1.43    0.23
  -1  -4   6    0.64    1.62
   1   4   6    2.80    1.76
   1   4   6    4.74    2.17
  -1   4  -6   -1.55    3.24
  -1  -4   6    0.32    1.31
  -1   4  -6    1.23    0.24
   1   4   6    0.02    1.62
   1   4   6   -1.85    3.20
  -1   4  -6    1.33    1.49
   1   4   6   -2.04    2.06
   1   4  -6    1.44    2.22
  -1   4   6    4.97    2.45
   1   4  -6    1.82    1.43
  -1   4   6    1.54    1.80
   1   4  -6    0.75    1.63
  -1   4   6    5.40    3.45
   1   4  -6    1.06    0.19
   1  -4   6    2.59    2.09
   1  -4   6    1.40    1.47
  -1   4   6    1.21    1.60
   1  -4   6    2.65    3.11
  -1   4   6    1.09    0.21
  -1   4   6   -2.28    2.09
  -1   4   6    1.66    3.06
  -1   4   6    0.20    1.63
   1  -4   6    2.42    1.22
   1   4  -6   -0.35    3.31
  -1  -4  -6    1.27    0.23
  -1   4   6    1.19    1.38
   1   4  -6    1.32    0.24
   1  -5  -1  344.89    8.70
  -1  -5   1  330.09    8.31
  -1  -5   1  343.61    8.61
   1  -5  -1  335.58    8.46
   1   5   1  325.71    8.35
  -1   5  -1  349.79    9.00
  -1  -5   1  325.24    7.99
  -1  -5   1  344.67    8.86
  -1   5  -1  352.08    8.72
  -1   5  -1  343.40    8.47
  -1   5  -1  342.28    8.38
   1  -5  -1  334.62    8.37
   1   5   1  316.07    8.27
   1   5   1  330.40    8.55
   1  -5  -1  349.99    9.02
   1   5   1  330.61    8.78
  -1  -5   1  340.23    8.40
   1  -5   1  328.48    8.35
  -1  -5  -1  336.09    8.30
  -1   5   1  348.50    8.71
   1   5  -1  332.81    8.59
   1  -5   1  315.65    8.01
   1   5  -1  333.05    8.31
   1   5  -1  336.31    8.39
  -1   5   1  335.62    8.37
   1  -5   1  337.48    8.93
  -1   5   1  341.32    8.98
  -1  -5  -1  335.22    8.37
   1  -5   1  345.78    7.98
   1  -5   1  330.00    7.99
  -1  -5  -1  347.35    8.84
  -1  -5  -1  346.98    8.59
   1  -5   1  331.23    8.44
   1   5  -1  343.66    8.85
   1  -5   1  336.05    8.67
  -1   5   1  342.00    8.47
  -1  -5  -1  349.49    8.00
   1   5   3  188.90    5.48
  -1  -5   3  185.60    6.39
  -1   5  -3  197.37    5.59
   1   5   3  187.97    5.58
   1   5   3  185.67    5.98
  -1  -5   3  189.83    5.35
   1   5   3  181.97    6.49
  -1   5  -3  201.18    5.44
  -1   5  -3  201.12    4.59
   1   5   3  183.90    4.64
  -1   5  -3  192.59    4.63
   1   5   3  188.64    6.33
   1   5   3  184.66    5.39
  -1  -5   3  191.45    5.94
   1   5   3  188.61    5.86
  -1   5  -3  196.17    6.54
   1  -5  -3  198.81    4.59
   1   5   3  188.02    5.32
  -1   5  -3  199.32    6.02
  -1  -5   3  194.56    5.54
  -1   5   3  183.65    5.44
  -1   5   3  190.19    5.36
   1  -5   3  183.54    5.48
   1   5  -3  206.05    5.63
   1   5  -3  201.40    6.04
   1   5  -3  191.59    4.62
   1   5  -3  214.86    6.68
  -1   5   3  185.40    6.61
  -1   5   3  189.07    5.53
  -1   5   3  184.24    5.60
   1  -5   3  181.67    6.33
   1  -5   3  181.69    5.32
  -1  -5  -3  197.98    4.63
   1   5  -3  202.93    4.55
  -1   5   3  188.86    6.43
   1   5  -3  204.77    5.45
  -1   5   3  189.49    5.93
  -1   5   3  180.90    6.02
  -1   5   3  183.61    4.63
   1  -5   3  188.87    5.90
  -1   5  -5  108.37    5.64
   1   5   5   84.49    3.44
   1   5   5   85.04    3.70
  -1  -5   5   83.80    4.34
  -1   5  -5   98.95    4.61
   1  -5  -5   96.01    2.29
  -1  -5   5   95.77    5.30
   1   5   5   86.98    5.35
   1   5   5   93.79    4.58
   1   5   5   85.38    2.33
   1   5   5   82.29    3.50
   1   5   5   90.37    3.88
   1   5   5   88.75    4.32
  -1  -5   5   83.24    3.70
  -1   5  -5   99.79    3.69
  -1   5  -5   95.63    2.27
  -1   5  -5   93.32    2.34
  -1   5  -5   97.60    3.96
   1   5   5   82.16    4.94
  -1  -5   5   82.62    3.43
   1   5  -5   95.03    2.32
  -1  -5  -5   93.50    2.32
  -1   5   5   83.05    4.46
  -1   5   5   87.00    4.39
   1   5  -5   87.81    5.45
   1  -5   5   85.01    3.71
   1  -5   5   81.79    5.09
  -1   5   5   87.69    3.54
   1   5  -5   96.32    2.23
   1  -5   5   81.18    3.40
  -1   5   5   91.60    5.17
  -1   5   5   82.28    2.31
  -1   5   5   81.37    3.78
   1   5  -5   93.24    3.66
  -1   5   5   80.42    3.51
   1   5  -5   90.99    4.59
   1  -5   5   83.27    4.30
  -1   5   5   90.21    3.82
   1   5  -5   97.95    4.01
  -1   5   5   84.36    5.24
   1   5   7   59.59    1.78
  -1   5  -7   63.93    1.79
  -1  -5   7   56.90    3.81
   1   5   7   69.25    6.69
  -1   5  -7   63.00    1.68
  -1  -5   7   52.25    7.19
   1   5   7   63.18    5.87
   1  -5  -7   62.33    1.74
  -1  -5   7   55.23    4.34
  -1  -5   7   45.20    5.31
   1   5   7   68.31   10.76
  -1  -5  -7   62.64    1.75
   1   5  -7   62.62    4.64
   1   5  -7   63.98    1.77
  -1   5   7   57.94    1.74
   1   5  -7   59.69    6.88
   1   5  -7   58.79    5.46
   1   5  -7   39.11    8.08
   1   5  -7   62.16    1.63
  -1  -6   0   21.95    0.56
   1  -6   0   22.27    0.56
  -1  -6   0   21.78    1.08
   1  -6   0   21.10    0.60
   1   6   0   22.66    0.87
   1  -6   0   22.65    0.59
   1  -6   0   21.30    0.62
  -1   6   0   23.98    0.62
   1  -6   0   23.10    1.21
   1  -6   0   22.39    0.95
  -1   6   0   22.43    1.18
  -1   6   0   21.98    1.01
   1   6   0   23.26    1.07
   1  -6   0   22.26    1.03
  -1   6   0   22.40    0.56
   1   6   0   22.68    0.93
   1  -6   0   22.96    1.42
  -1  -6   0   20.86    0.87
   1   6   0   23.34    1.24
  -1   6   0   21.30    0.93
   1   6   0   21.84    0.60
  -1   6   0   21.68    1.36
  -1   6   0   22.96    0.61
  -1  -6   0   21.72    0.94
  -1  -6   0   22.10    1.25
   1   6   0   22.22    0.60
  -1  -6   0   22.86    0.59
   1   6   2    8.72    0.86
  -1   6  -2    9.70    0.36
  -1   6  -2    9.92    1.01
  -1   6  -2    9.23    0.30
   1   6   2   10.34    1.10
   1   6   2    9.44    0.34
  -1   6  -2    9.71    0.32
  -1   6  -2    9.48    0.74
   1   6   2    8.75    1.32
   1   6   2    9.12    0.65
  -1   6  -2    9.46    0.32
  -1   6  -2    9.63    0.83
   1   6   2    8.75    1.07
   1   6   2    9.30    0.72
   1   6   2    8.57    0.76
  -1  -6   2    8.65    0.65
  -1  -6   2    9.37    0.74
  -1  -6   2    7.87    1.10
  -1   6  -2    9.97    1.27
  -1  -6   2    9.44    0.92
   1   6   2    9.20    0.88
  -1   6   2    8.72    0.33
   1   6  -2    9.07    0.94
   1  -6   2   10.12    0.32
  -1   6   2    9.88    1.23
  -1   6   2    9.75    0.29
  -1  -6  -2    9.77    0.33
   1  -6   2   10.11    0.71
   1   6  -2   10.45    0.72
   1   6  -2    8.06    1.12
  -1   6   2   10.06    0.81
   1   6  -2    9.48    0.32
   1  -6   2    8.37    0.75
  -1   6   2    9.91    0.99
   1  -6   2   10.38    0.96
   1  -6   2    9.50    1.20
   1   6  -2    9.42    0.78
  -1   6   2    9.47    0.72
  -1   6  -4    0.52    0.11
   1   6   4    0.39    1.09
  -1   6  -4    0.21    0.58
  -1   6  -4    0.53    0.12
  -1  -6   4    1.21    1.44
   1   6   4    2.24    1.60
   1   6   4    0.50    0.72
   1   6   4    0.58    0.14
   1   6   4    1.11    0.87
   1   6   4    0.87    0.71
  -1   6  -4    0.11    0.94
   1   6   4    1.02    1.16
  -1  -6   4    1.69    0.72
   1   6   4    0.70    1.43
   1   6   4    0.29    0.81
  -1   6  -4    1.09    0.75
  -1   6  -4   -0.52    1.40
  -1  -6   4    1.85    1.16
  -1  -6   4   -0.40    0.78
   1  -6   4    0.48    1.50
  -1   6   4   -0.86    1.41
  -1   6   4    0.01    0.68
  -1   6   4    0.30    1.55
  -1   6   4    2.77    1.20
   1   6  -4    1.92    1.54
  -1  -6  -4    0.64    0.15
   1   6  -4    2.24    0.85
  -1   6   4    1.93    0.88
   1  -6   4    0.59    0.69
  -1   6   4    1.76    0.89
   1   6  -4    0.57    0.11
  -1   6   4    1.31    0.75
   1   6  -4   -0.30    0.63
  -1   6   4    0.46    0.15
  -1   6   4   -0.13    1.01
   1   6  -4   -1.75    0.90
   1  -6   4    0.85    0.88
   1  -6   4    1.59    0.62
   1   6   6    0.81    2.17
   1  -6  -6    1.48    0.26
   1   6   6    1.54    1.75
   1   6   6    1.41    0.27
  -1  -6   6    2.15    1.49
  -1   6  -6    1.30    0.26
  -1   6  -6    1.81    1.71
  -1   6  -6    3.25    1.40
   1   6   6    0.69    2.95
  -1   6  -6    1.51    0.24
   1   6   6    1.25    1.34
  -1  -6   6    2.93    1.27
   1   6   6    4.08    2.21
   1   6   6    2.76    1.42
  -1   6  -6    4.55    3.32
  -1  -6   6   -0.83    3.02
   1   6   6   -0.61    3.47
  -1  -6   6    1.15    1.97
  -1   6  -6    2.02    2.36
   1   6   6    0.55    1.56
  -1   6   6   -1.60    3.35
  -1   6   6    6.81    4.59
  -1   6   6    0.32    1.69
   1   6  -6    1.22    0.25
  -1   6   6    2.94    2.33
   1   6  -6   -2.12    3.22
  -1   6   6   -0.40    2.60
   1   6  -6    1.62    1.75
   1  -6   6    6.16    2.44
  -1   6   6   -0.14    1.67
   1  -6   6    2.03    1.47
   1   6  -6    2.04    2.38
   1  -6   6    1.96    3.09
   1  -6   6    2.60    1.76
  -1   6   6    0.04    2.07
   1   6  -6    0.57    1.51
  -1   6   6    1.56    1.46
  -1   6   6    1.39    0.25
  -1  -6  -6    1.41    0.26
   1  -7  -1  340.94    9.04
   1   7   1  349.77    8.91
  -1   7  -1  340.23    8.13
  -1   7  -1  359.71    9.08
   1   7   1  349.62    8.67
   1  -7  -1  335.21    8.74
  -1  -7   1  335.67    8.66
   1  -7  -1  350.89    9.45
   1  -7  -1  332.99    8.63
   1   7   1  341.32    8.55
  -1   7  -1  336.21    8.15
  -1   7  -1  334.91    8.19
  -1  -7   1  332.98    8.55
  -1   7  -1  349.44    8.65
  -1   7  -1  355.64    8.78
  -1   7  -1  360.30    9.45
  -1  -7   1  338.43    8.90
   1   7   1  344.68    9.19
  -1  -7   1  335.99    9.19
   1   7   1  336.73    8.17
   1   7  -1  357.01    9.26
  -1  -7  -1  324.93    8.63
   1   7  -1  345.94    8.16
   1   7  -1  345.65    8.92
  -1   7   1  350.41    8.65
   1  -7   1  351.15    8.15
   1  -7   1  354.00    9.03
   1   7  -1  339.70    8.56
  -1   7   1  353.84    8.78
   1  -7   1  336.49    8.12
   1  -7   1  347.83    8.13
   1  -7   1  346.14    8.62
  -1  -7  -1  354.49    8.17
   1   7  -1  343.44    8.66
   1   7  -1  333.70    8.16
  -1  -7  -1  329.02    8.87
  -1  -7  -1  339.12    9.20
  -1   7   1  355.21    9.41
  -1  -7  -1  327.27    8.54
  -1   7   1  352.74    8.17
   1  -7   1  352.64    9.40
   1  -7   1  351.17    8.75
  -1   7   1  353.11    9.06
   1   7   3  293.07    8.08
   1   7   3  292.88    7.91
   1   7   3  293.78    8.86
  -1   7  -3  292.24    8.49
  -1   7  -3  291.96    9.07
   1   7   3  294.49    7.03
   1   7   3  292.67    9.16
  -1   7  -3  279.91    7.00
  -1  -7   3  301.00    8.96
   1   7   3  292.43    7.75
  -1   7  -3  293.40    8.04
  -1   7  -3  284.41    7.05
   1   7   3  297.41    7.90
   1   7   3  296.56    8.57
  -1  -7   3  310.81    6.92
  -1   7  -3  284.40    6.95
   1   7   3  291.49    8.34
  -1  -7   3  300.41    7.97
  -1   7  -3  293.95    7.86
  -1  -7   3  299.45    8.40
  -1  -7   3  301.06    7.79
  -1   7  -3  279.30    6.99
   1   7  -3  293.63    9.07
   1  -7   3  297.16    7.80
   1  -7   3  290.69    8.94
  -1   7   3  305.87    9.42
  -1   7   3  288.83    7.80
   1   7  -3  283.75    8.42
  -1  -7  -3  276.52    7.00
  -1   7   3  285.56    7.02
   1   7  -3  289.16    7.81
  -1   7   3  298.04    9.04
  -1   7   3  305.57    8.74
   1   7  -3  272.60    6.99
  -1   7   3  289.16    8.41
  -1   7   3  305.31    8.21
   1   7  -3  290.50    8.00
  -1   7   3  293.47    7.98
   1  -7   3  288.35    7.95
  -1   7   3  305.99    8.00
   1  -7   3  295.89    8.43
   1   7  -3  287.20    6.90
  -1   7  -5  199.02    5.37
  -1   7  -5  215.00    8.66
  -1  -7   5  214.92    6.66
  -1  -7   5  217.65    7.67
   1   7   5  219.07    8.71
   1   7   5  215.52    7.07
   1   7   5  218.45    6.79
  -1   7  -5  227.43    7.18
  -1   7  -5  212.78    7.80
   1   7   5  226.79    6.70
   1   7   5  237.81    7.05
   1   7   5  220.39    7.84
  -1  -7   5  227.14    8.67
  -1   7  -5  213.68    5.42
   1   7   5  218.28    5.44
  -1  -7   5  221.12    6.98
  -1   7  -5  221.92    6.84
   1   7   5  241.26    7.78
   1   7   5  235.98    8.66
   1   7  -5  225.77    7.92
   1   7  -5  220.37    7.14
   1  -7   5  220.41    8.56
  -1   7   5  220.54    6.87
   1   7  -5  221.96    6.83
  -1   7   5  214.26    7.16
  -1   7   5  230.51    7.07
  -1   7   5  223.92    6.76
  -1   7   5  227.76    8.67
  -1   7   5  218.19    8.87
  -1  -7  -5  212.94    5.41
   1  -7   5  216.41    6.93
  -1   7   5  229.83    7.81
   1   7  -5  217.84    5.41
  -1   7   5  222.82    8.00
   1   7  -5  224.82    8.81
   1   7  -5  217.33    5.28
   1  -7   5  220.67    6.67
  -1   7   5  222.31    5.43
   1  -7   5  218.06    7.62
  -1   7  -7  112.36    2.95
  -1  -7   7  113.79    8.36
  -1  -7   7  102.04    4.89
  -1  -7   7  108.28    6.55
  -1   7  -7  111.45    2.82
  -1  -7   7  100.26    5.36
   1  -7  -7  111.18    2.91
   1   7   7  115.65    2.97
   1   7  -7  111.30    2.93
   1   7  -7  109.85    2.76
  -1   7   7  113.24    2.94
  -1  -7  -7  107.81    2.91
  -1  -8   0   13.94    0.43
   1  -8   0   15.32    1.38
  -1  -8   0   15.13    1.28
   1  -8   0   12.58    0.89
  -1   8   0   13.08    1.07
   1   8   0   14.45    0.43
  -1  -8   0   12.67    0.77
  -1   8   0   13.69    1.32
  -1   8   0   14.71    0.94
  -1   8   0   14.58    0.44
   1  -8   0   14.74    0.40
  -1   8   0   14.20    0.39
   1  -8   0   14.48    0.47
   1   8   0   13.78    0.45
  -1   8   0   14.49    0.86
   1   8   0   13.82    0.76
   1   8   0   13.42    0.97
   1  -8   0   11.78    0.79
   1   8   0   12.18    1.13
   1  -8   0   12.53    1.07
  -1  -8   0   13.86    1.04
   1   8   0   13.70    0.83
  -1   8   0   14.33    0.46
   1  -8   0   13.28    0.41
  -1  -8   0   12.61    0.84
  -1   8  -2    5.10    1.12
   1  -8  -2    6.44    0.67
   1   8   2    5.21    0.26
   1  -8  -2    4.55    1.10
   1  -8  -2    6.68    0.97
   1   8   2    4.55    0.99
   1   8   2    4.98    0.61
  -1   8  -2    5.21    0.27
  -1  -8   2    5.84    1.23
  -1  -8   2    6.90    0.95
  -1   8  -2    5.26    0.94
  -1  -8   2    4.69    0.60
  -1   8  -2    5.25    0.23
   1  -8  -2    5.28    0.74
  -1   8  -2    5.64    0.75
  -1   8  -2    5.39    0.23
  -1   8  -2    5.12    0.21
  -1   8  -2    3.59    0.60
   1   8   2    6.55    0.73
  -1  -8   2    5.17    0.71
   1   8   2    5.12    0.87
  -1  -8  -2    5.84    0.64
   1  -8   2    5.02    0.90
   1   8  -2    6.89    1.22
  -1  -8  -2    5.98    0.74
  -1  -8  -2    4.93    1.05
  -1  -8  -2    4.66    0.91
  -1   8   2    5.49    0.26
   1   8  -2    5.72    0.65
  -1   8   2    5.06    0.20
   1  -8   2    5.29    0.61
   1  -8   2    4.60    0.69
   1   8  -2    5.14    0.73
   1   8  -2    5.49    0.24
   1  -8   2    6.13    1.22
   1   8  -2    6.32    0.96
  -1   8  -4   -0.15    0.69
   1   8   4    0.34    0.62
   1   8   4   -0.08    0.74
  -1  -8   4    0.12    0.11
  -1   8  -4   -0.71    1.02
  -1   8  -4    0.26    0.12
  -1   8  -4    0.22    0.16
   1   8   4    0.05    0.13
   1   8   4    1.06    0.94
  -1  -8   4    1.44    1.44
   1   8   4   -0.06    1.21
   1   8   4   -0.68    1.69
   1   8   4    0.37    0.76
   1   8   4    0.24    1.45
  -1   8  -4    0.23    0.10
  -1   8  -4    1.87    1.60
  -1  -8   4   -0.22    0.65
   1   8   4   -0.15    0.96
  -1  -8   4   -0.70    0.52
  -1  -8   4   -0.41    0.91
  -1   8  -4   -0.71    0.77
  -1   8   4    0.01    0.12
  -1   8   4   -0.34    0.87
  -1   8   4   -0.13    0.75
  -1   8   4    0.36    0.88
   1   8  -4    0.36    0.70
   1   8  -4    0.90    1.19
   1   8  -4    0.39    0.12
  -1   8   4    0.49    1.14
   1   8  -4    0.33    0.08
   1  -8   4   -0.16    0.95
   1  -8   4    1.43    0.75
   1  -8   4    3.63    1.74
  -1   8   4   -2.17    1.72
   1  -8   4   -0.45    0.55
  -1   8   4    0.78    1.47
  -1   8   4    0.34    0.73
  -1  -8  -4    0.40    0.12
   1   8  -4    0.10    0.81
  -1   8   4   -0.39    1.18
   1   8  -4    2.17    1.68
   1   8   6    1.32    0.25
   1   8   6    8.08    3.26
  -1   8  -6   -0.91    1.38
  -1  -8   6   -0.14    1.31
   1   8   6    1.21    1.37
   1   8   6    1.41    1.94
  -1   8  -6    1.36    0.26
   1   8   6   -6.04    3.45
  -1   8  -6   -0.68    2.12
  -1  -8   6    3.31    2.29
  -1   8  -6    3.05    1.73
  -1  -8   6   -1.93    3.11
   1   8   6    1.14    1.50
  -1   8  -6    1.29    0.24
   1   8   6    7.18    2.50
   1   8   6    2.64    2.59
  -1  -8   6    1.01    1.62
  -1   8  -6    1.28    3.61
   1   8   6   -0.03    1.65
  -1  -8  -6    1.12    0.23
   1  -8   6    1.18    3.44
   1   8  -6    5.50    3.66
  -1   8   6   -2.60    3.23
   1   8  -6    1.22    0.25
   1   8  -6    3.72    1.58
  -1   8   6   -0.03    1.75
  -1   8   6    6.98    2.99
   1   8  -6   -0.33    2.43
  -1   8   6    1.66    0.28
  -1   8   6    1.84    1.55
   1  -8   6    3.26    1.38
   1  -8   6   -1.10    2.08
  -1   8   6    2.42    2.03
  -1   8   6    3.50    2.34
   1   8  -6    1.55    1.80
  -1   8   6    0.72    1.67
  -1   8   6    4.27    3.56
   1   8  -6    1.70    0.23
   1  -8   6    3.64    1.70
  -1   9  -1   75.09    1.82
   1  -9  -1   74.96    2.82
   1   9   1   76.06    2.33
  -1   9  -1   74.53    2.54
   1   9   1   75.74    2.43
  -1  -9   1   70.66    2.30
  -1   9  -1   75.16    1.82
  -1   9  -1   74.58    2.81
   1   9   1   71.80    2.64
   1   9   1   69.48    2.88
   1  -9  -1   72.09    2.50
  -1  -9   1   72.82    2.43
   1  -9  -1   72.14    2.39
  -1  -9   1   74.11    2.99
  -1   9  -1   74.97    1.85
   1   9   1   77.45    1.89
  -1   9  -1   77.50    3.19
   1  -9  -1   75.66    3.19
  -1   9  -1   73.59    2.41
  -1  -9   1   74.15    2.68
  -1   9  -1   72.55    1.90
  -1   9   1   74.39    2.52
   1   9  -1   71.01    2.65
   1  -9   1   76.61    3.16
   1  -9   1   74.13    2.78
   1   9  -1   72.02    1.85
   1   9  -1   74.65    1.88
  -1  -9  -1   77.94    3.08
  -1   9   1   79.32    3.18
   1  -9   1   76.18    2.53
   1  -9   1   72.55    2.38
   1   9  -1   68.65    2.29
  -1   9   1   75.44    2.80
  -1  -9  -1   73.20    2.44
  -1   9   1   77.68    2.42
  -1   9   1   78.15    1.88
   1  -9   1   75.85    1.82
   1   9  -1   71.10    2.94
  -1   9   1   77.52    1.80
  -1  -9  -1   73.86    2.34
   1   9  -1   69.49    2.40
  -1  -9  -1   75.34    2.73
   1   9   3  106.54    2.58
   1   9   3  106.04    4.37
  -1   9  -3  100.45    3.38
   1   9   3  108.65    3.34
  -1  -9   3  102.91    3.89
  -1   9  -3   99.12    2.52
  -1   9  -3   98.38    2.53
   1   9   3   99.38    3.59
  -1  -9   3  103.04    3.32
   1   9   3   99.04    4.03
   1   9   3  103.23    3.45
  -1  -9   3  106.81    3.53
  -1   9  -3   99.80    2.48
  -1   9  -3   96.83    3.93
  -1   9  -3   99.70    2.60
   1   9   3   99.91    4.62
   1   9   3  101.37    3.43
  -1  -9   3  100.80    4.38
  -1   9  -3   96.93    4.44
  -1   9  -3   97.59    3.52
   1   9   3  105.67    3.87
   1   9  -3   95.44    3.47
   1   9  -3   97.13    2.54
  -1   9   3  104.48    2.57
  -1  -9  -3  102.33    2.56
  -1   9   3  108.05    4.52
   1  -9   3  105.58    3.96
  -1   9   3  104.39    3.74
   1  -9   3  107.81    3.57
  -1   9   3   97.63    4.13
   1  -9   3  106.16    3.37
  -1   9   3   96.65    3.31
  -1   9   3  100.95    3.93
  -1   9   3  101.20    3.51
   1   9  -3   95.22    3.31
  -1   9   3  113.04    4.97
   1   9  -3   97.08    3.88
   1   9  -3  102.33    4.44
   1  -9   3  102.30    4.46
  -1   9   3  102.71    3.50
  -1   9  -5   64.82    1.97
   1   9   5   74.38    4.89
  -1   9  -5   73.26    2.09
   1   9   5   77.47    3.25
  -1   9  -5   69.58    3.62
  -1   9  -5   72.11    2.02
  -1   9  -5   66.42    5.01
   1   9   5   78.28    4.47
   1   9   5   77.68    3.52
   1   9   5   80.06    4.19
  -1  -9   5   75.93    3.55
  -1  -9   5   77.80    4.28
  -1   9  -5   73.44    3.40
   1   9   5   78.38    5.32
  -1  -9   5   76.20    3.27
  -1   9  -5   76.67    4.32
   1   9   5   75.31    3.71
  -1  -9   5   78.19    5.22
   1   9   5   79.43    2.06
   1   9   5   76.35    3.40
  -1   9   5   83.94    3.42
   1   9  -5   73.46    2.01
   1  -9   5   75.54    3.26
  -1   9   5   79.81    4.35
  -1   9   5   80.01    3.80
   1   9  -5   70.30    3.60
   1  -9   5   74.64    4.18
  -1   9   5   77.84    5.18
   1   9  -5   82.15    5.31
  -1   9   5   82.75    3.70
   1   9  -5   76.85    3.40
   1  -9   5   80.92    5.15
  -1   9   5   77.30    2.04
  -1   9   5   77.77    3.45
  -1  -9  -5   71.60    2.01
   1  -9   5   76.36    3.54
   1   9  -5   71.44    4.28
   1   9  -5   74.98    1.87
  -1   9   5   76.82    4.47
  -1   9   5   82.77    5.51
   1  -9  -7   28.42    1.02
  -1  -9   7   35.94    4.40
  -1  -9   7   28.67    8.14
  -1   9  -7   29.30    0.93
  -1  -9   7   34.66    6.28
   1   9   7   29.89    1.07
  -1   9  -7   29.58    1.06
  -1  -9   7   30.78    4.78
  -1   9  -7   27.10    1.12
   1   9  -7   30.87    1.05
  -1   9   7   31.28    1.05
  -1  -9  -7   27.52    1.03
  -1  10   0    4.77    0.25
  -1  10   0    4.50    0.22
   1  10   0    6.59    1.09
   1  10   0    4.50    0.25
  -1 -10   0    4.73    0.70
   1  10   0    4.85    0.64
   1 -10   0    4.37    0.61
  -1  10   0    5.40    0.64
   1  10   0    5.22    0.58
   1 -10   0    4.31    0.86
   1 -10   0    5.53    1.10
  -1  10   0    5.97    1.21
  -1 -10   0    4.90    1.07
   1 -10   0    4.69    0.20
  -1 -10   0    4.87    0.62
  -1  10   0    3.96    0.78
   1  10   0    4.64    0.21
  -1  10   0    4.70    0.18
   1  10   0    5.35    0.82
  -1 -10   0    4.24    0.88
  -1  10   0    4.65    0.70
   1 -10   0    3.68    0.69
   1  10   2    2.40    0.56
  -1  10  -2    2.02    0.20
  -1  10  -2    2.11    0.14
   1 -10  -2    1.55    0.54
   1  10   2    0.68    0.84
  -1 -10   2    2.14    0.53
   1 -10  -2    0.95    0.65
  -1  10  -2    2.06    0.49
  -1  10  -2    1.88    1.00
  -1  10  -2    1.31    0.65
  -1  10  -2    2.83    0.16
  -1 -10   2    2.50    1.06
   1  10   2    3.85    0.71
  -1 -10   2    1.62    0.59
   1  10   2    2.67    0.83
   1 -10  -2    2.03    1.09
  -1 -10   2    2.08    0.80
   1 -10  -2    1.98    0.48
  -1  10  -2    1.74    0.54
   1  10   2    1.87    0.19
  -1 -10  -2    3.36    0.61
   1 -10   2    2.61    0.78
   1 -10   2    3.17    0.62
   1  10  -2    2.38    0.75
  -1 -10  -2    2.53    0.67
  -1 -10  -2    3.25    1.03
   1  10  -2    2.32    0.17
   1  10  -2    2.23    0.19
   1 -10   2    2.38    0.61
  -1  10   2    1.72    0.46
  -1  10   2    1.79    0.54
   1  10  -2    2.53    1.03
  -1  10   2    2.38    0.73
   1  10  -2    2.14    0.57
   1  10  -2    2.16    0.51
   1 -10   2    2.96    1.03
  -1  10   2    3.77    1.09
  -1  10   2    2.43    0.19
  -1 -10  -2    5.28    1.05
   1  10   4    1.48    1.24
   1  10   4   -0.98    1.74
  -1 -10   4    0.34    1.06
  -1  10  -4   -0.05    0.10
   1  10   4    0.26    0.71
  -1 -10   4   -0.18    0.64
   1  10   4   -0.31    0.86
   1  10   4   -0.64    1.17
  -1 -10   4   -0.57    0.81
  -1  10  -4    0.02    0.12
  -1 -10   4   -0.19    1.68
   1  10   4    1.14    0.96
  -1  10  -4    0.20    0.69
  -1  10  -4   -0.03    0.15
   1  10   4   -0.26    0.78
   1  10   4    0.01    0.13
  -1  10  -4    1.99    1.71
  -1  10  -4    0.12    1.05
  -1 -10   4   -0.01    0.10
   1  10   4   -0.68    1.60
  -1  10  -4   -0.42    0.80
   1  10  -4   -0.44    0.83
  -1  10   4    0.43    1.51
   1 -10   4    0.72    1.77
  -1 -10  -4    0.17    0.13
   1  10  -4    0.35    1.29
  -1  10   4   -0.98    1.62
   1  10  -4   -0.08    0.07
  -1  10   4    0.04    0.13
   1 -10   4    0.25    0.67
   1  10  -4    0.19    1.02
  -1  10   4   -0.41    0.64
  -1  10   4   -0.18    0.84
   1  10  -4    0.21    0.13
   1 -10   4    0.78    1.13
  -1  10   4    1.11    1.89
  -1  10   4   -1.33    1.08
   1  10  -4   -2.43    1.61
  -1  10   4    0.28    1.07
   1 -10   4   -0.06    0.80
  -1  10   4   -1.03    0.88
  -1  10  -6    0.49    0.21
   1  10   6    1.42    1.39
   1  10   6   -1.76    3.18
   1  10   6    0.26    0.22
   1  10   6    3.40    2.20
   1  10   6   -0.92    1.53
  -1 -10   6   -0.61    2.07
  -1 -10   6   -2.38    1.52
  -1  10  -6    0.65    0.18
  -1 -10   6   -1.46    3.35
  -1 -10   6    0.26    1.26
  -1  10  -6    0.81    0.27
  -1  10   6    0.85    2.02
   1 -10   6    2.81    3.67
   1  10  -6    2.25    3.75
  -1  10   6   -0.16    1.60
   1  10  -6    2.07    1.79
   1  10  -6    0.70    0.15
  -1  10   6    1.61    1.89
   1 -10   6    1.75    2.33
   1 -10   6    1.30    1.68
   1 -10   6    2.59    1.42
   1  10  -6    0.98    0.23
  -1  10   6   -1.91    2.44
  -1  10   6    2.17    1.57
  -1 -10  -6    0.50    0.20
  -1  10   6   -8.12    3.61
   1  10  -6    3.52    2.16
  -1  10   6    0.54    0.20
  -1  10   6   -3.08    3.25
  -1  10   6   -0.02    2.67
   1  10  -6    3.77    2.75
  -1  11  -1  388.19    9.19
  -1 -11   1  394.74   10.97
   1  11   1  394.79   10.87
  -1 -11   1  393.36   10.45
  -1 -11   1  395.24    9.91
  -1  11  -1  375.57    9.21
  -1 -11   1  391.86   10.06
   1 -11  -1  384.37   10.15
   1  11   1  380.87   10.36
  -1  11  -1  378.17    9.28
   1 -11  -1  381.93    9.96
   1 -11  -1  383.68   10.57
   1  11   1  374.67    9.83
   1  11   1  386.19   10.01
   1  11   1  373.86    9.27
   1 -11  -1  393.52   11.14
   1  11  -1  407.54   10.93
   1  11  -1  387.62    9.27
  -1 -11  -1  394.32   10.07
  -1 -11  -1  393.55   10.96
   1  11  -1  367.36    9.22
   1 -11   1  384.20    9.96
   1  11  -1  373.54    9.13
   1 -11   1  383.14   10.14
   1 -11   1  392.12   11.11
   1  11  -1  406.36   10.44
  -1  11   1  381.68    9.17
  -1 -11  -1  393.04    9.90
  -1  11   1  393.51    9.27
   1  11  -1  398.66    9.88
   1  11  -1  405.80   10.06
  -1 -11  -1  399.38   10.49
   1 -11   1  384.80   10.55
  -1  11  -3  312.70    7.68
   1  11   3  324.80    9.83
   1  11   3  323.17    8.69
  -1  11  -3  309.46    9.99
  -1  11  -3  316.31    7.56
  -1 -11   3  330.62    8.77
  -1 -11   3  325.21    9.26
   1  11   3  318.52   10.32
   1  11   3  304.57    8.87
   1  11   3  312.06    7.64
   1  11   3  311.87    8.64
   1  11   3  320.66    8.48
  -1  11  -3  300.77    9.24
  -1  11  -3  307.89    7.59
  -1  11  -3  316.38    8.59
  -1 -11   3  330.96    8.54
   1  11   3  325.47    9.20
  -1 -11   3  332.03    9.96
   1  11   3  306.16    9.42
  -1  11  -3  314.88    8.80
  -1  11  -3  307.80    7.52
   1 -11   3  315.39    8.52
  -1  11   3  309.75    9.24
   1  11  -3  324.26    9.99
   1 -11   3  312.26    9.23
  -1  11   3  308.85    7.62
   1  11  -3  324.01    9.34
   1 -11   3  309.32    9.84
   1 -11   3  312.76    8.73
  -1  11   3  311.03    8.73
  -1  11   3  319.92    9.94
   1  11  -3  330.10    8.60
   1  11  -3  337.99    8.83
  -1  11   3  310.08    8.51
  -1  11  -5  215.80    9.05
  -1  11  -5  215.10    6.82
  -1  11  -5  214.51    5.37
   1  11   5  199.35    7.47
   1  11   5  208.74    6.58
  -1  11  -5  219.48    8.00
  -1  11  -5  215.36    5.16
  -1  11  -5  210.86    5.28
   1  11   5  210.24    6.87
   1  11   5  214.78    8.49
   1  11   5  208.95    7.99
  -1  11  -5  220.43    7.18
   1  11   5  205.69    9.03
  -1 -11   5  210.40    8.73
   1  11   5  206.81    5.31
  -1 -11   5  220.04    7.02
  -1 -11   5  218.54    7.78
   1  11   5  208.34    7.17
  -1 -11   5  222.84    6.71
   1  11   5  210.68    6.82
   1  11  -5  220.52    7.16
  -1  11   5  215.48    6.91
  -1  11   5  225.78    7.12
   1 -11   5  214.64    7.79
   1 -11   5  209.26    6.98
   1  11  -5  227.32    9.08
  -1  11   5  225.71    6.79
  -1  11   5  218.27    8.80
  -1  11   5  214.41    9.32
   1  11  -5  218.94    6.82
  -1  11   5  207.17    7.23
  -1  11   5  212.48    7.81
  -1  11   5  208.36    5.29
   1 -11   5  211.13    6.66
  -1 -11  -5  213.78    5.28
  -1  11   5  209.24    8.11
   1 -11   5  217.24    8.80
   1  11  -5  213.86    5.09
   1  11  -5  207.25    5.27
   1  11  -5  215.75    7.94
   1  11   7  135.44    3.56
  -1  11  -7  134.45    3.35
   1 -11  -7  134.67    3.52
  -1  11  -7  135.96    3.56
  -1  11  -7  129.14    3.63
   1  11  -7  135.90    3.54
  -1  11   7  132.66    3.52
  -1 -11  -7  133.71    3.52
   1  12   0    0.62    0.12
   1  12   0    0.27    0.45
   1 -12   0    0.63    1.07
   1 -12   0   -0.07    0.55
   1 -12   0    0.65    0.77
  -1 -12   0    0.35    0.50
   1  12   0   -0.91    0.79
  -1 -12   0    0.31    0.68
  -1  12   0    0.26    0.12
   1  12   0   -0.18    0.57
  -1  12   0    1.06    0.89
  -1 -12   0   -0.83    0.93
   1  12   0    0.38    0.12
  -1  12   0    0.31    0.09
  -1  12   0    0.62    0.10
   1  12   0    0.34    0.41
   1 -12   0    0.50    0.52
  -1 -12   0    0.06    0.40
  -1 -12   2    0.48    0.54
  -1  12  -2   -0.14    1.08
  -1  12  -2    0.43    0.10
   1  12   2    0.15    0.66
  -1  12  -2    0.46    0.51
   1  12   2    0.25    0.48
  -1  12  -2    0.30    0.08
  -1  12  -2    0.24    0.09
  -1 -12   2    0.49    0.67
   1 -12  -2    1.30    1.11
   1  12   2   -0.07    0.41
   1 -12  -2    0.56    0.58
  -1  12  -2   -0.06    0.87
   1  12   2    0.48    0.13
  -1 -12   2    0.70    0.44
   1 -12  -2    0.25    0.45
   1 -12  -2    0.89    0.76
   1  12   2    1.18    1.01
  -1 -12   2    0.72    1.01
  -1  12  -2    0.87    0.60
  -1  12  -2    0.42    0.15
   1  12  -2    0.74    1.04
   1 -12   2    0.07    0.73
  -1  12   2   -0.33    1.04
  -1  12   2    0.82    0.53
   1  12  -2    0.93    0.73
   1  12  -2    0.41    0.14
   1  12  -2   -0.13    0.50
  -1 -12  -2    0.18    0.64
  -1 -12  -2    1.73    1.15
  -1 -12  -2    0.70    0.50
   1  12  -2    0.33    0.11
   1 -12   2    0.13    1.09
   1  12  -2    0.49    0.45
  -1  12   2    0.66    0.45
  -1 -12  -2    0.38    0.41
   1 -12   2    0.37    0.55
  -1  12   2    0.38    0.12
  -1  12   2   -0.12    0.68
   1 -12   2    0.35    0.45
  -1  12  -4    0.30    0.13
  -1  12  -4    0.47    0.12
   1  12   4    0.58    0.86
  -1  12  -4   -0.52    1.91
   1  12   4    1.84    0.82
   1  12   4   -0.19    1.20
   1  12   4    1.40    1.08
   1  12   4    0.26    0.17
  -1  12  -4    0.48    1.30
  -1  12  -4    0.54    0.98
  -1 -12   4   -1.34    1.77
  -1 -12   4    0.35    0.85
   1  12   4    0.03    2.08
  -1 -12   4    1.92    1.40
   1  12   4    4.42    1.83
  -1  12  -4    0.37    0.83
  -1 -12   4   -0.84    1.00
   1  12   4    0.73    1.44
  -1  12  -4    0.19    0.17
   1  12   4   -0.59    0.84
  -1  12   4   -0.53    0.92
  -1 -12  -4    0.46    0.15
   1 -12   4    0.38    1.37
   1 -12   4    0.19    0.83
   1  12  -4    0.36    0.15
  -1  12   4    0.35    0.83
  -1  12   4    0.30    0.15
   1  12  -4    0.80    0.88
   1 -12   4    0.32    0.99
  -1  12   4    1.44    2.29
  -1  12   4    0.33    1.01
   1  12  -4    0.88    1.08
  -1  12   4   -1.04    1.47
   1  12  -4    1.79    1.88
   1 -12   4   -1.07    1.83
  -1  12   4    1.24    1.44
   1  12  -4    2.03    1.49
  -1  12   4    0.83    1.79
  -1  12   4   -0.88    1.08
   1  12   6   -1.71    1.42
   1  12   6    0.24    0.22
   1  12   6   -0.27    1.82
  -1  12  -6    0.27    0.21
   1  12   6    0.02    2.50
  -1 -12   6    5.20    2.75
  -1  12  -6   -0.34    0.23
  -1 -12   6   -1.11    1.49
  -1 -12   6    3.11    1.90
  -1  12  -6    0.29    0.17
   1  12   6   -2.05    3.27
  -1 -12   6    6.68    3.78
   1  12  -6   -1.05    1.75
  -1 -12  -6   -0.03    0.20
   1  12  -6    1.61    2.72
   1  12  -6    1.91    2.21
  -1  12   6    1.28    2.72
  -1  12   6   -6.41    4.03
  -1  12   6    0.44    0.21
   1  12  -6    4.48    3.90
   1  12  -6    0.05    0.21
  -1  12   6    1.66    1.68
  -1  12   6    0.32    1.99
   1 -13  -1   78.18    3.38
  -1  13  -1   78.64    2.06
  -1 -13   1   80.01    3.77
  -1 -13   1   79.14    2.73
  -1  13  -1   80.67    1.98
   1  13   1   79.84    1.98
   1  13   1   79.97    3.62
  -1  13  -1   78.30    2.78
  -1  13  -1   80.01    3.81
  -1  13  -1   79.48    3.35
  -1  13  -1   77.72    2.95
   1  13   1   77.64    2.81
  -1 -13   1   76.99    3.24
   1  13   1   77.86    3.17
   1  13   1   79.69    2.05
   1 -13  -1   77.02    2.97
  -1 -13   1   80.16    2.90
  -1  13  -1   79.64    1.95
   1 -13  -1   78.59    2.81
   1 -13  -1   76.87    3.87
   1  13   1   76.63    2.65
  -1 -13  -1   80.74    3.76
  -1 -13  -1   78.40    3.27
  -1  13   1   77.52    3.69
   1  13  -1   78.49    2.04
   1  13  -1   78.90    1.99
   1 -13   1   75.19    2.75
  -1  13   1   80.17    2.04
   1  13  -1   77.81    3.17
   1 -13   1   72.92    3.75
   1  13  -1   80.15    3.63
  -1  13   1   72.26    2.83
   1  13  -1   82.42    2.71
  -1  13   1   73.84    3.19
  -1 -13  -1   79.52    2.91
   1 -13   1   68.89    3.20
  -1  13   1   73.51    2.69
   1 -13   1   73.48    2.89
  -1  13   1   79.01    2.01
  -1  13   1   80.14    1.93
   1  13  -1   80.05    1.90
   1  13  -1   84.43    2.89
  -1 -13  -1   79.96    2.74
   1 -13  -3   56.88    3.14
   1  13   3   53.03    2.55
   1 -13  -3   58.60    2.51
  -1  13  -3   54.06    3.20
  -1  13  -3   59.58    2.77
  -1  13  -3   62.36    3.86
   1  13   3   56.46    3.74
  -1  13  -3   53.62    1.69
   1  13   3   53.69    2.78
  -1  13  -3   57.59    2.52
  -1 -13   3   59.61    2.63
  -1  13  -3   58.60    1.45
  -1 -13   3   56.44    2.39
   1  13   3   57.45    1.58
   1  13   3   52.54    3.20
  -1 -13   3   59.20    3.60
  -1 -13   3   60.76    3.10
   1 -13  -3   64.19    3.87
   1 -13  -3   59.45    2.73
  -1  13  -3   57.74    1.49
   1  13  -3   55.00    3.89
  -1  13   3   60.00    3.13
  -1  13   3   56.12    2.44
   1  13  -3   57.79    2.82
   1  13  -3   57.12    2.61
  -1  13   3   57.36    2.65
   1 -13   3   58.77    2.46
   1 -13   3   60.56    3.72
   1  13  -3   55.82    1.54
   1  13  -3   59.08    3.32
  -1  13   3   57.66    3.67
   1 -13   3   53.12    3.07
   1 -13   3   61.25    2.68
   1  13  -3   56.72    1.60
   1  13   5   32.32    4.75
  -1 -13   5   26.76    2.60
   1  13   5   33.52    3.16
  -1  13  -5   28.01    3.59
  -1 -13   5   28.10    2.26
  -1 -13   5   29.59    4.51
  -1  13  -5   26.47    0.79
   1  13   5   26.59    2.44
   1  13   5   31.40    4.06
  -1 -13   5   28.88    3.37
  -1  13  -5   34.38    4.80
  -1  13  -5   26.70    0.90
  -1  13  -5   27.70    2.47
   1  13   5   26.52    0.94
   1  13   5   23.88    2.77
  -1  13  -5   31.81    2.88
   1  13   5   25.16    2.42
   1  13   5   24.73    3.61
   1  13   5   29.72    2.22
  -1  13  -5   27.04    1.00
   1 -13   5   21.26    4.25
   1  13  -5   26.06    0.90
  -1  13   5   29.33    3.03
  -1  13   5   27.32    0.93
  -1 -13  -5   27.57    0.92
   1 -13   5   27.23    2.20
  -1  13   5   31.47    3.66
   1  13  -5   33.17    3.62
   1  13  -5   27.67    2.42
   1  13  -5   26.86    4.54
   1  13  -5   26.45    2.73
  -1  13   5   26.88    4.99
   1 -13   5   27.66    3.26
  -1  13   5   23.72    3.66
  -1  13   5   26.86    2.61
  -1  13   5   24.95    2.37
  -1  13   5   22.24    4.67
   1 -13   5   29.54    2.60
  -1  13   5   29.72    2.77
   1  14   0    0.98    0.55
  -1  14   0    0.37    0.50
   1 -14   0    0.48    0.60
  -1  14   0    0.50    0.15
  -1 -14   0    0.08    1.22
  -1  14   0    0.27    1.18
  -1  14   0    0.59    0.58
  -1 -14   0    0.38    0.76
   1 -14   0    0.70    0.49
  -1 -14   0    0.67    0.60
  -1 -14   0    0.62    0.52
  -1  14   0    0.81    0.15
   1  14   0    1.12    0.61
  -1  14   0    0.68    0.12
   1  14   0    0.84    0.19
   1  14   0    0.13    0.76
   1  14   0    0.67    0.14
   1 -14   0    0.70    0.78
  -1  14   0    0.19    0.78
   1  14   0    0.59    1.03
   1 -14   0    1.01    1.24
   1 -14  -2    0.57    0.59
  -1 -14   2    1.06    0.65
  -1  14  -2    0.89    0.60
  -1 -14   2    0.43    0.96
  -1 -14   2   -0.16    1.21
  -1  14  -2    0.67    0.15
  -1  14  -2    0.09    0.64
   1 -14  -2    1.92    1.40
   1 -14  -2    1.14    0.72
   1  14   2   -0.01    0.81
  -1  14  -2    0.72    0.93
   1 -14  -2    1.09    0.91
  -1  14  -2    0.83    0.15
   1  14   2    1.27    0.68
  -1  14  -2    2.20    1.49
   1  14   2   -1.18    1.11
  -1  14  -2    0.65    0.19
   1  14   2    0.56    0.17
   1  14   2    0.57    0.54
  -1 -14   2    1.12    0.75
   1  14  -2    0.27    1.20
   1  14  -2    0.99    0.17
  -1  14   2    1.12    0.70
  -1 -14  -2    0.61    0.55
  -1 -14  -2    1.03    1.43
  -1  14   2    0.75    0.14
   1 -14   2    1.27    0.60
  -1  14   2    0.85    0.18
  -1  14   2    1.31    0.62
   1  14  -2    0.71    0.18
   1 -14   2    0.69    0.67
  -1  14   2    0.08    0.86
  -1 -14  -2    1.46    0.91
  -1 -14  -2   -0.13    0.62
   1  14  -2    0.40    0.82
   1 -14   2    2.39    1.46
   1  14  -2    0.47    0.58
  -1  14   2    2.19    1.31
   1 -14   2   -0.15    0.88
   1  14  -2    1.11    0.68
   1  14   4    1.88    1.79
  -1  14  -4    0.42    1.41
   1  14   4    1.22    0.89
  -1 -14   4    0.32    2.09
   1  14   4    1.26    1.12
  -1 -14   4    1.09    0.90
  -1 -14   4    1.93    1.11
   1  14   4    2.03    1.38
   1  14   4   -0.48    1.77
   1  14   4    3.35    1.17
   1  14   4    2.66    2.42
  -1  14  -4    0.79    0.13
  -1 -14   4   -1.44    1.38
  -1  14  -4    1.18    0.20
   1  14   4    0.98    0.22
  -1  14  -4    1.24    1.12
  -1  14  -4    1.14    0.97
   1  14   4    1.22    1.49
  -1  14  -4   -1.38    2.11
  -1  14  -4    0.88    0.24
   1 -14   4    1.67    2.15
  -1  14   4    1.71    1.85
   1 -14   4    1.67    1.68
  -1  14   4    2.36    1.59
   1  14  -4    0.78    0.18
  -1  14   4    0.57    0.16
  -1  14   4    0.35    0.88
  -1  14   4    0.38    1.17
   1  14  -4    1.54    2.19
   1  14  -4    0.91    1.03
  -1  14   4    1.32    1.13
   1  14  -4    0.88    0.23
  -1  14   4    0.39    2.41
   1  14  -4    0.25    1.15
  -1  14   4    0.70    1.37
  -1 -14  -4    0.71    0.19
  -1  14   4   -2.50    1.72
   1 -14   4    1.80    0.99
   1  14  -4   -3.12    1.45
   1 -14   4    1.43    1.15
  -1 -14   6    5.87    4.07
  -1  14  -6    0.01    0.27
   1  14   6    0.35    0.26
  -1  14  -6    0.29    0.22
  -1 -14   6   -0.17    2.76
  -1 -14   6   -0.99    1.65
   1  14   6    2.16    3.99
   1  14   6    0.87    2.03
  -1 -14   6   -2.89    2.06
   1  14   6    0.16    2.72
   1  14   6    3.30    1.79
  -1  14  -6    0.49    0.19
   1  14  -6    6.94    4.27
   1  14  -6    0.47    0.29
   1  14  -6   -1.36    1.85
   1  14  -6   -4.16    2.26
   1  14  -6    2.11    3.20
  -1 -14  -6    0.32    0.23
   1  14  -6    0.42    0.24
  -1  14   6    5.04    2.20
  -1  14   6    0.69    0.25
  -1  14   6   -0.70    3.57
  -1  14   6    1.18    4.37
  -1  14   6   -3.22    2.48
   1  15   1  299.99    7.36
  -1 -15   1  298.90    8.22
   1 -15  -1  306.63    9.15
  -1  15  -1  291.31    8.46
  -1 -15   1  296.94    8.43
   1  15   1  298.05    7.27
   1 -15  -1  300.28    9.83
  -1  15  -1  289.01    8.98
  -1 -15   1  293.12    8.90
  -1  15  -1  295.38    8.25
   1 -15  -1  306.05    8.58
  -1  15  -1  300.95    7.24
  -1 -15   1  297.98    9.60
   1  15   1  310.79    8.89
  -1  15  -1  306.26    9.70
  -1  15  -1  295.70    7.36
   1 -15  -1  307.25    8.35
  -1  15  -1  300.01    7.27
   1  15   1  320.05    9.56
   1  15   1  313.07    8.39
   1  15   1  304.43    8.15
   1  15  -1  316.62    8.20
   1 -15   1  310.36    8.57
  -1  15   1  300.97    7.22
  -1 -15  -1  301.99    8.49
  -1  15   1  297.55    7.31
   1  15  -1  308.85    9.45
   1 -15   1  309.86    9.12
   1 -15   1  298.02    9.75
  -1 -15  -1  302.13    8.26
   1  15  -1  319.55    8.42
  -1 -15  -1  302.90    9.03
   1  15  -1  313.06    8.89
   1  15  -1  302.46    7.29
  -1  15   1  304.51    9.00
  -1  15   1  306.69    9.67
  -1  15   1  303.57    8.46
   1  15  -1  300.89    7.19
  -1 -15  -1  302.71    9.71
  -1  15   1  307.73    8.26
  -1  15   1  305.44    7.35
   1  15  -1  301.21    7.36
   1 -15   1  312.99    8.34
  -1 -15   3  176.92    5.54
  -1  15  -3  186.48    7.44
   1 -15  -3  190.75    6.68
  -1  15  -3  182.25    4.51
  -1  15  -3  180.01    4.63
   1  15   3  171.51    6.23
   1 -15  -3  187.27    7.49
   1  15   3  180.89    5.54
  -1 -15   3  183.02    7.10
   1  15   3  175.89    4.59
   1 -15  -3  187.86    5.75
  -1 -15   3  181.72    6.37
  -1 -15   3  184.74    5.83
   1  15   3  173.90    5.73
  -1  15  -3  189.12    4.43
   1 -15  -3  189.16    6.02
  -1  15  -3  187.36    4.47
  -1  15  -3  184.31    5.98
   1  15   3  179.58    6.96
  -1  15  -3  182.16    5.71
  -1  15  -3  183.58    6.61
  -1 -15  -3  179.16    6.46
  -1  15   3  183.20    5.88
   1  15  -3  191.93    7.36
  -1 -15  -3  187.86    7.27
   1  15  -3  183.47    4.61
   1  15  -3  199.15    6.02
  -1 -15  -3  189.07    5.68
   1 -15   3  187.09    5.66
  -1 -15  -3  182.55    5.90
  -1  15   3  189.73    6.51
   1 -15   3  184.99    5.89
  -1  15   3  188.62    7.27
   1  15  -3  182.00    4.53
   1 -15   3  178.67    7.24
   1  15  -3  186.06    6.57
  -1  15   3  180.64    5.62
   1  15  -3  191.62    5.71
  -1  15   3  177.15    4.56
   1 -15   3  185.06    6.50
   1  15   5  109.93    7.23
  -1 -15   5   95.53    5.28
  -1  15  -5  105.52    7.01
   1  15   5   93.86    2.60
  -1 -15   5  103.44    4.11
  -1  15  -5   99.65    2.57
  -1  15  -5   97.58    4.31
  -1 -15   5   99.07    6.42
   1  15   5  100.96    6.30
  -1  15  -5   97.66    2.41
   1  15   5   90.29    4.29
   1  15   5   92.21    3.96
  -1  15  -5   97.69    2.70
  -1 -15   5  101.69    4.49
  -1  15  -5   91.05    4.67
   1  15   5  100.35    5.78
   1  15   5   95.33    5.11
   1  15   5   98.53    4.77
  -1  15  -5   97.97    5.61
   1  15   5   94.01    4.32
   1  15  -5   95.38    5.39
   1  15  -5   96.92    2.67
   1  15  -5   99.44    4.23
   1 -15   5   95.49    4.52
   1  15  -5   95.65    2.57
   1  15  -5  101.26    4.61
  -1  15   5   98.41    5.93
  -1  15   5   97.28    4.15
   1 -15   5   98.23    5.47
  -1  15   5   97.89    5.38
  -1  15   5   97.42    6.46
  -1  15   5   92.99    4.41
  -1  15   5   94.04    7.21
   1  15  -5   99.86    6.70
  -1  15   5   95.32    2.60
  -1 -15  -5   94.76    2.57
  -1  15   5   92.75    4.51
   1 -15   5   97.41    6.59
   1 -15   5   92.74    4.08
  -1  15   5   90.38    4.85
  -1  16   0    5.58    1.16
  -1  16   0    4.51    1.52
  -1 -16   0    7.28    1.06
  -1 -16   0    6.09    1.49
   1  16   0    4.58    0.92
   1  16   0    5.64    0.92
   1  16   0    4.91    0.27
  -1  16   0    5.35    0.33
  -1  16   0    4.36    1.28
   1  16   0    5.45    0.34
   1 -16   0    4.92    1.68
   1  16   0    5.00    1.12
  -1  16   0    5.39    0.24
   1 -16   0    7.57    1.58
  -1 -16   0    5.76    1.21
  -1 -16   0    6.86    1.78
  -1  16   0    5.17    0.28
   1 -16   0    6.74    1.24
   1  16   0    5.33    1.47
   1 -16   0    5.49    1.02
  -1  16   0    5.54    0.98
  -1  16  -2    2.65    1.76
  -1  16  -2    3.01    0.30
  -1  16  -2    3.34    0.23
  -1 -16   2    3.88    0.95
   1  16   2    3.06    1.19
   1  16   2    2.42    0.78
  -1 -16   2    5.40    1.20
  -1  16  -2    3.22    0.86
   1 -16  -2    4.28    0.98
  -1 -16   2    3.83    1.42
  -1  16  -2    2.69    0.94
   1  16   2    4.91    1.01
   1  16   2    5.28    1.75
  -1 -16   2    3.75    1.75
   1 -16  -2    6.03    1.92
  -1  16  -2    3.64    0.23
   1  16   2    3.58    0.30
   1 -16  -2    1.26    1.07
  -1  16  -2    2.26    1.15
   1 -16  -2    3.40    0.84
  -1  16   2    4.11    1.03
   1  16  -2    3.57    0.31
   1 -16   2    2.09    1.60
  -1  16   2    4.67    1.62
  -1  16   2    2.87    0.29
   1  16  -2    3.39    0.24
  -1  16   2    5.01    0.95
  -1  16   2    3.54    0.21
   1 -16   2    5.31    1.47
   1 -16   2    4.21    1.05
  -1  16   2    3.59    1.25
   1 -16   2    5.14    1.08
   1  16   4   -2.00    2.08
   1  16   4   -0.78    1.44
   1  16   4   -0.76    0.92
  -1 -16   4   -0.41    2.19
  -1  16  -4   -0.99    1.25
  -1  16  -4    5.99    2.71
  -1  16  -4    0.87    0.24
   1  16   4    6.48    2.97
  -1  16  -4    0.53    0.17
  -1  16  -4    1.24    1.50
   1  16   4    0.55    0.20
   1  16   4    1.79    1.36
   1  16   4    3.21    1.27
  -1 -16   4    3.10    1.26
  -1  16  -4    0.96    0.16
   1  16   4   -3.00    1.99
  -1  16  -4    0.61    0.16
  -1  16  -4    3.38    2.01
  -1 -16   4    2.43    1.05
   1  16   4    3.04    1.66
  -1 -16   4    1.92    1.65
  -1  16   4    0.07    1.74
  -1  16   4    0.83    0.21
   1 -16   4    1.57    1.29
   1 -16   4    2.60    1.76
  -1  16   4    2.87    1.54
   1  16  -4   -2.17    1.70
  -1  16   4    1.72    2.43
  -1  16   4   -1.81    2.67
  -1  16   4    0.36    1.97
   1 -16   4    3.89    2.60
   1  16  -4    1.06    0.22
   1  16  -4    2.74    2.43
   1  16  -4    0.77    0.22
  -1  16   4    1.12    1.17
   1  16  -4    0.90    1.33
   1 -16   4    1.13    1.09
   1  16  -4   -0.35    1.05
  -1  16   4    2.06    1.39
  -1  16  -6    0.95    0.21
  -1 -16   6   -2.49    2.17
   1  16   6    0.48    0.28
  -1 -16   6    5.64    3.14
  -1 -16   6   -0.67    4.63
  -1 -16   6    1.57    1.86
  -1  16  -6    0.82    0.26
  -1  16  -6    0.70    0.33
   1  16  -6   -1.88    2.07
   1  16  -6    0.78    0.28
  -1  16   6    0.89    0.29
  -1 -16  -6    1.21    0.30
   1  16  -6   -0.45    2.45
   1  16  -6    6.15    3.31
   1  16  -6    0.52    0.34
   1  16  -6    5.22    4.97
   1  17   1  252.61    6.01
  -1  17  -1  247.44    7.38
  -1  17  -1  247.68    7.12
  -1 -17   1  257.17    8.00
   1 -17  -1  249.17    8.13
  -1  17  -1  255.77    8.76
   1  17   1  232.20    7.34
   1  17   1  215.28    8.33
   1  17   1  237.25    9.29
   1  17   1  244.23    6.11
  -1 -17   1  258.97    7.43
  -1  17  -1  248.18    6.00
   1 -17  -1  252.96    8.99
  -1  17  -1  248.38    5.97
  -1 -17   1  250.81    8.71
  -1  17  -1  246.82    6.12
   1  17   1  234.36    7.64
   1 -17  -1  245.50    7.46
   1 -17  -1  252.83    7.24
  -1  17  -1  245.50    7.96
  -1 -17   1  253.90    7.14
   1  17  -1  235.89    6.02
   1  17  -1  256.14    7.09
   1  17  -1  256.07    8.52
  -1 -17  -1  253.07    8.06
  -1  17   1  246.50    6.04
   1 -17   1  258.79    8.12
   1  17  -1  257.96    5.92
   1  17  -1  254.24    7.89
  -1  17   1  251.61    5.95
  -1  17   1  253.69    8.66
  -1 -17  -1  249.05    8.82
   1 -17   1  251.00    7.19
   1  17  -1  252.48    7.32
   1  17  -1  245.60    6.11
   1 -17   1  261.62    7.51
  -1  17   1  242.66    7.30
  -1 -17  -1  254.13    7.19
  -1 -17  -1  251.59    7.45
  -1  17   1  239.99    7.05
  -1  17   1  248.92    6.10
   1 -17   1  248.02    8.83
  -1  17   1  245.47    7.87
  -1  17  -3  242.25    9.25
   1 -17  -3  241.18    7.34
  -1  17  -3  242.82    6.15
   1 -17  -3  248.43    8.43
  -1  17  -3  249.26    8.40
   1 -17  -3  242.65    7.64
  -1 -17   3  242.01    7.45
   1  17   3  256.05    8.88
  -1 -17   3  244.39    7.18
   1 -17  -3  252.43    9.42
   1  17   3  247.33    6.10
  -1  17  -3  241.38    6.01
   1  17   3  237.64    7.99
  -1  17  -3  246.54    7.67
   1  17   3  249.58    7.45
  -1  17  -3  247.72    5.96
  -1 -17   3  242.40    8.09
  -1  17  -3  243.01    7.35
  -1 -17   3  242.10    8.88
   1  17   3  257.00    7.22
   1  17  -3  252.11    9.05
   1  17  -3  237.29    6.04
   1  17  -3  249.37    7.57
  -1  17   3  251.42    6.09
  -1  17   3  261.64    9.23
   1  17  -3  246.52    6.14
   1  17  -3  257.67    7.33
  -1 -17  -3  248.79    8.30
   1  17  -3  250.55    8.27
   1 -17   3  238.40    8.14
   1 -17   3  243.28    7.23
   1 -17   3  247.16    9.05
  -1 -17  -3  249.34    7.33
  -1 -17  -3  247.54    7.60
  -1  17   3  242.93    8.22
  -1 -17  -3  249.61    9.17
   1 -17   3  245.32    7.53
  -1  17   3  261.94    7.36
  -1  17   3  257.24    7.63
  -1 -17   5  211.39    7.27
  -1  17  -5  215.64    7.21
  -1 -17   5  209.31    6.85
  -1 -17   5  203.98    8.12
  -1 -17   5  215.91    9.33
  -1  17  -5  207.35    5.33
  -1  17  -5  204.76    5.19
   1  17   5  207.17    5.24
   1  17   5  208.22    6.81
  -1  17  -5  221.73    8.79
   1  17   5  209.38    9.32
   1  17   5  208.97    8.07
  -1  17  -5  211.27    5.02
  -1  17  -5  213.07    7.63
   1  17   5  210.92    7.23
  -1  17  -5  207.77   10.01
  -1  17   5  194.78    8.63
  -1  17   5  211.61    5.24
   1  17  -5  203.20    7.44
   1 -17   5  209.23    6.96
  -1  17   5  224.70    7.00
   1 -17   5  207.68    7.38
  -1  17   5  206.73    9.40
  -1  17   5  202.69    7.14
   1  17  -5  199.43    5.19
  -1 -17  -5  200.02    5.19
  -1  17   5  217.82    7.36
  -1  17   5  193.92   10.03
   1  17  -5  205.03    8.39
   1  17  -5  206.59    5.32
  -1  17   5  203.14    8.12
   1 -17   5  211.25    9.58
   1  17  -5  204.99    9.66
   1  17  -5  208.19    7.04
   1 -17   5  206.28    8.36
  -1  17   5  198.66    7.59
   1 -18   0    7.73    1.20
  -1 -18   0    5.25    1.18
   1 -18   0   10.61    1.93
  -1 -18   0    6.06    1.80
   1 -18   0    5.06    1.95
   1  18   0    8.14    0.45
  -1  18   0    7.84    1.19
   1  18   0    9.02    1.57
  -1 -18   0    6.97    2.48
  -1  18   0    6.30    1.39
  -1  18   0    7.95    0.32
   1  18   0    4.75    2.62
   1  18   0    8.48    2.13
   1  18   0    7.18    0.35
  -1  18   0    8.12    0.37
   1 -18   0    9.05    1.44
  -1  18   0    7.29    0.41
   1  18   0    9.09    1.82
  -1  18   0    5.92    1.79
  -1 -18   0    8.49    1.76
  -1  18   0    9.03    1.39
   1 -18  -2    2.45    1.46
  -1  18  -2    3.58    0.24
  -1  18  -2    6.04    2.12
   1  18   2    4.67    1.44
  -1  18  -2    3.62    0.25
  -1 -18   2    3.55    0.94
  -1 -18   2    2.56    1.06
  -1  18  -2    1.63    0.98
  -1  18  -2    3.93    0.93
   1 -18  -2    4.23    2.11
   1  18   2    3.67    0.94
  -1 -18   2    3.33    1.30
  -1  18  -2    3.60    0.37
   1 -18  -2    3.93    1.05
   1  18   2    1.87    1.00
   1  18   2    3.54    0.26
   1 -18  -2    3.28    1.21
  -1 -18   2    3.76    2.01
   1  18   2    1.60    1.77
   1  18   2    3.35    0.34
  -1  18  -2    1.67    1.28
  -1  18   2    3.69    0.32
   1  18  -2    3.28    0.27
  -1  18   2    5.65    1.58
   1  18  -2    2.13    1.95
  -1  18   2    3.61    0.97
   1  18  -2    4.35    1.12
   1 -18   2    3.40    1.04
  -1  18   2    3.43    0.23
   1  18  -2    4.04    1.36
   1 -18   2    5.50    1.35
  -1 -18  -2    5.31    1.67
  -1 -18  -2    6.03    1.17
  -1  18   2    2.98    1.83
   1 -18   2    2.64    2.02
  -1 -18  -2    3.10    1.15
   1  18  -2    3.07    0.35
   1  18  -2    4.07    0.98
  -1  18   2    2.89    1.10
  -1 -18  -2    1.18    1.88
   1 -18   2    5.71    1.74
  -1  18  -4    0.30    0.24
  -1  18  -4    0.54    0.16
   1  18   4    3.38    2.48
  -1  18  -4    2.35    1.71
   1  18   4   -1.20    1.40
   1  18   4    0.33    0.22
   1  18   4    4.52    1.98
  -1  18  -4   -0.02    3.00
   1  18   4    0.99    2.39
  -1 -18   4   -1.81    1.42
   1  18   4   -1.38    1.64
  -1  18  -4    2.34    1.56
  -1  18  -4    0.60    0.17
  -1  18  -4    0.60    0.20
   1  18   4    1.26    1.38
  -1  18  -4   -2.07    2.25
   1  18   4   -1.12    3.21
   1  18   4    1.24    1.19
  -1 -18   4    2.61    2.03
  -1 -18   4    0.80    1.31
  -1 -18   4   -3.14    2.68
   1  18  -4   -0.90    2.65
   1  18  -4    0.58    0.20
   1 -18   4    2.02    1.39
   1  18  -4    0.57    0.24
   1  18  -4    0.42    2.00
   1 -18   4    2.82    2.27
   1  18  -4    1.80    1.31
   1 -18   4    1.32    1.69
   1  18  -4    2.63    1.46
  -1  18   4    0.52    0.19
   1 -18   4   -0.20    2.79
   1  18   6    1.11    0.32
  -1  18  -6    0.94    0.36
  -1  18  -6    1.16    0.30
  -1  18   6    0.50    0.29
  -1 -18  -6    1.10    0.32
   1  18  -6    0.98    0.40
   1  18  -6    1.25    0.32
  -1  19  -1   20.09    1.88
   1 -19  -1   19.95    2.60
  -1  19  -1   20.44    0.65
   1  19   1   21.16    2.36
   1  19   1   21.05    0.67
  -1  19  -1   19.00    1.64
   1 -19  -1   18.27    1.80
   1 -19  -1   15.23    3.21
   1  19   1   20.58    1.88
  -1  19  -1   20.04    0.78
   1  19   1   25.99    2.97
  -1  19  -1   16.18    2.29
  -1 -19   1   19.60    1.87
  -1 -19   1   18.23    3.09
  -1  19  -1   20.78    0.67
  -1 -19   1   18.83    1.64
  -1  19  -1   15.04    2.88
   1  19   1   20.15    1.65
  -1 -19   1   22.90    2.42
   1 -19  -1   21.83    2.10
   1  19  -1   20.76    1.62
   1  19  -1   21.05    0.60
   1 -19   1   20.16    2.00
   1 -19   1   22.49    1.81
  -1  19   1   20.90    0.62
  -1 -19  -1   17.53    2.00
   1  19  -1   21.56    2.94
  -1  19   1   22.13    1.83
  -1  19   1   19.65    0.76
   1  19  -1   18.62    2.26
  -1  19   1   22.00    2.27
  -1  19   1   24.24    3.00
   1  19  -1   20.31    1.83
  -1 -19  -1   19.94    1.78
  -1 -19  -1   16.04    3.17
   1  19  -1   20.10    0.67
  -1 -19  -1   19.02    2.54
   1 -19   1   20.69    3.27
  -1  19   1   22.25    1.65
   1 -19   1   20.40    2.53
   1  19   3   53.18    4.34
   1 -19  -3   51.41    4.68
   1 -19  -3   52.15    2.83
  -1  19  -3   47.17    3.69
   1 -19  -3   52.35    3.79
  -1  19  -3   51.11    4.58
  -1  19  -3   51.76    1.45
  -1 -19   3   52.59    4.54
  -1  19  -3   51.08    1.38
  -1 -19   3   52.12    2.71
   1  19   3   55.23    2.68
   1  19   3   52.96    1.56
  -1 -19   3   54.08    3.06
   1  19   3   51.13    2.91
  -1  19  -3   53.62    3.14
  -1  19  -3   50.52    2.82
   1 -19  -3   47.54    3.02
  -1 -19   3   53.61    3.69
   1  19   3   47.89    3.49
  -1  19  -3   49.56    1.58
   1  19  -3   48.72    1.56
  -1  19   3   61.81    4.69
  -1 -19  -3   51.57    3.08
   1  19  -3   49.41    4.38
  -1  19   3   55.53    3.09
  -1  19   3   53.92    2.76
  -1  19   3   51.55    1.52
   1 -19   3   51.38    2.76
  -1 -19  -3   57.43    4.75
   1  19  -3   54.82    3.08
   1 -19   3   52.68    4.63
  -1 -19  -3   50.36    2.73
  -1  19   3   54.51    1.39
   1  19  -3   50.44    2.74
   1 -19   3   49.70    3.07
   1 -19   3   51.91    3.74
   1  19  -3   50.76    1.48
   1  19  -3   58.16    3.76
  -1 -19  -3   47.92    3.68
  -1  19   3   51.76    3.75
  -1 -19   5   56.92    6.04
   1  19   5   43.08    4.51
  -1 -19   5   45.23    3.15
   1  19   5   37.75    5.95
  -1  19  -5   46.77    1.21
   1  19   5   37.56    3.49
  -1 -19   5   45.12    4.57
   1  19   5   44.38    3.15
  -1 -19   5   41.93    3.56
  -1  19  -5   45.18    1.52
   1  19   5   45.93    1.44
  -1  19  -5   45.40    1.38
  -1  19   5   48.37    3.64
  -1  19   5   45.89    1.42
   1 -19   5   46.33    7.36
  -1 -19  -5   44.05    1.39
  -1  19   5   43.62    4.14
   1  19  -5   45.75    4.91
   1  19  -5   43.71    1.38
   1  19  -5   46.55    3.44
  -1  19   5   35.49    4.19
  -1  19   5   36.81    5.18
   1  19  -5   45.48    1.52
  -1  19   5   34.20    6.90
  -1  19   5   50.41    5.49
   1  19  -5   39.25    3.80
   1  19  -5   29.68    6.15
   1  20   0    6.09    0.33
  -1 -20   0    6.81    1.48
  -1  20   0    5.82    0.34
  -1  20   0    6.62    1.64
   1  20   0    5.14    1.04
   1  20   0    5.47    0.41
   1  20   0    7.70    1.49
  -1 -20   0    5.91    1.66
  -1  20   0    5.26    0.39
  -1  20   0    7.43    1.25
  -1 -20   0    9.24    1.48
  -1  20   0    4.83    1.16
  -1  20   0    5.84    0.29
   1 -20   0    8.64    2.02
  -1 -20   0    7.93    2.39
   1 -20   0    7.18    1.58
   1  20   0    6.18    2.07
  -1  20   0    6.20    2.06
   1 -20   0    8.53    1.45
   1  20   0    4.90    1.50
   1 -20   0    4.25    2.19
  -1  20  -2    7.75    2.50
  -1 -20   2    3.84    2.44
   1  20   2    4.35    1.54
   1 -20  -2    2.61    1.08
  -1  20  -2    2.90    0.37
   1 -20  -2    0.71    1.55
   1  20   2    1.50    2.09
   1  20   2    3.53    0.38
   1  20   2    3.11    0.27
  -1  20  -2    3.30    0.26
  -1  20  -2    4.24    1.78
   1 -20  -2    5.86    2.62
  -1 -20   2    2.51    1.04
  -1  20  -2    4.27    1.44
   1  20   2    2.06    0.94
   1  20   2    2.02    1.05
  -1 -20   2    4.38    1.29
  -1  20  -2    3.51    0.27
   1 -20  -2    5.48    1.40
  -1  20  -2    4.28    1.19
  -1 -20   2    3.46    1.64
   1  20  -2    3.46    0.28
   1  20  -2    4.53    1.58
  -1  20   2    6.45    2.42
   1  20  -2    6.41    2.31
   1  20  -2    3.69    1.22
   1  20  -2    3.75    0.38
  -1  20   2    3.12    0.24
   1 -20   2    3.54    1.08
  -1 -20  -2    3.57    1.30
  -1  20   2    5.15    1.30
  -1 -20  -2    4.79    1.88
   1 -20   2    2.86    1.28
  -1  20   2    1.96    1.65
  -1 -20  -2   -1.38    2.24
   1 -20   2    0.41    1.53
  -1 -20  -2    4.38    1.49
   1 -20   2    5.18    2.43
  -1  20   2    3.47    0.34
   1  20  -2    4.59    1.12
  -1  20   2    4.03    1.36
  -1  20  -4   -0.01    0.18
   1  20   4   -0.48    1.42
   1 -20  -4    0.80    3.31
  -1  20  -4   -0.02    0.17
  -1 -20   4   -2.60    2.02
   1  20   4   -1.67    1.89
  -1 -20   4   -3.56    2.90
  -1  20  -4   -0.98    3.51
   1  20   4    0.56    1.16
   1  20   4    4.90    2.96
  -1  20  -4   -1.33    1.55
  -1  20  -4   -1.05    1.96
   1  20   4    0.03    0.22
  -1 -20   4    0.49    1.29
  -1 -20   4    0.10    1.59
  -1  20  -4   -0.09    0.25
  -1  20  -4   -2.25    2.57
   1  20  -4    0.21    0.19
  -1  20   4    1.68    1.38
   1  20  -4    2.89    1.82
  -1  20   4   -0.34    1.58
  -1  20   4   -0.67    2.07
   1  20  -4    0.13    0.26
  -1  20   4   -2.12    3.13
   1  20  -4   -0.53    3.05
   1  20  -4    2.13    2.46
  -1  20   4   -0.04    0.21
   1  20  -4    0.86    1.49
   1 -21  -1  156.85    6.47
   1 -21  -1  163.19    5.46
   1 -21  -1  157.24    5.72
   1  21   1  160.53    6.09
  -1 -21   1  151.41    5.57
   1  21   1  150.18    4.07
  -1  21  -1  160.06    7.21
  -1  21  -1  159.93    5.65
  -1  21  -1  159.69    5.33
   1  21   1  163.33    6.91
   1  21   1  158.18    3.95
  -1 -21   1  157.26    7.17
   1  21   1  161.25    5.19
  -1  21  -1  163.50    3.95
  -1 -21   1  162.68    6.34
  -1  21  -1  159.73    4.09
  -1 -21   1  161.06    5.34
   1 -21  -1  156.98    7.41
  -1  21  -1  177.71    6.55
  -1  21  -1  160.33    3.92
   1  21   1  156.42    5.43
  -1  21   1  170.60    7.23
  -1 -21  -1  153.06    7.23
   1  21  -1  156.89    5.15
  -1  21   1  159.25    6.26
  -1 -21  -1  168.73    6.51
   1  21  -1  161.83    3.86
   1  21  -1  157.82    5.43
  -1 -21  -1  156.47    5.67
  -1  21   1  163.55    5.31
   1 -21   1  150.06    6.29
   1  21  -1  165.72    6.13
  -1 -21  -1  156.69    5.35
   1  21  -1  159.14    6.80
   1  21  -1  157.42    4.09
  -1  21   1  159.34    3.88
  -1  21   1  152.67    4.05
  -1  21   1  153.63    3.97
   1 -21   1  152.79    5.32
  -1  21   1  159.09    5.57
   1  21  -1  158.88    3.95
   1 -21   1  153.67    5.64
   1 -21   1  166.85    7.43
  -1 -21   3  132.65    4.88
  -1 -21   3  131.67    7.04
   1 -21  -3  134.11    5.19
   1 -21  -3  132.61    6.72
  -1  21  -3  136.25    3.38
   1 -21  -3  127.17    7.59
   1  21   3  135.35    4.79
   1  21   3  127.18    5.05
  -1  21  -3  140.50    6.32
   1  21   3  126.72    5.77
  -1  21  -3  144.53    5.16
  -1  21  -3  133.57    3.56
  -1  21  -3  139.95    5.49
   1  21   3  130.79    6.78
   1  21   3  130.05    3.49
  -1  21  -3  129.35    7.22
   1  21   3  134.27    3.38
  -1 -21   3  127.92    5.19
   1 -21  -3  130.76    5.53
  -1 -21   3  126.78    5.92
  -1  21  -3  133.68    3.31
  -1 -21  -3  138.49    5.42
   1 -21   3  125.82    4.86
  -1  21   3  130.19    3.31
   1 -21   3  125.53    5.21
   1  21  -3  136.07    3.42
   1  21  -3  137.84    7.03
  -1 -21  -3  129.84    7.39
  -1 -21  -3  143.63    6.35
  -1 -21  -3  135.12    5.01
   1  21  -3  141.00    6.04
   1  21  -3  135.90    3.55
  -1  21   3  126.73    3.46
   1  21  -3  140.44    5.27
   1 -21   3  131.62    6.06
   1 -21   3  133.82    7.23
   1  21  -3  134.48    4.90
  -1  21  -5   91.50    2.64
  -1 -21   5   78.00    6.23
  -1 -21   5   74.95    5.04
  -1 -21   5   78.90    7.85
   1  21   5   83.98    2.50
  -1  21  -5   93.70    2.46
  -1 -21   5   88.20    4.58
   1  21  -5   92.45    2.62
   1  21  -5   84.95    4.87
   1  21  -5   92.08    2.47
  -1  21   5   84.96    2.47
  -1 -21  -5   88.89    2.46
   1  21  -5   94.13    8.25
   1  21  -5  101.93    6.84
   1  21  -5   97.80    5.52
  -1 -22   0    3.21    1.92
   1 -22   0    1.33    1.87
  -1  22   0    3.36    0.27
   1  22   0    3.26    0.27
   1  22   0    3.34    0.38
  -1  22   0    3.55    2.18
   1 -22   0    4.34    1.25
   1  22   0    5.34    1.22
  -1  22   0    5.39    1.43
  -1 -22   0    3.54    1.46
  -1  22   0    3.50    0.36
   1  22   0    3.52    1.57
   1  22   0    2.57    2.01
  -1 -22   0    6.15    2.66
  -1  22   0    2.62    0.30
  -1  22   0    3.51    1.79
   1 -22   0    3.75    1.39
   1  22   0    4.52    1.39
   1 -22   0   10.08    2.91
  -1 -22   0    4.79    1.29
  -1  22   0    4.29    1.17
  -1 -22   2    3.02    2.10
  -1  22  -2    2.15    1.17
   1 -22  -2    0.29    2.86
  -1 -22   2    0.71    1.23
   1 -22  -2    5.01    1.75
  -1 -22   2   -0.07    1.48
   1  22   2    1.96    2.35
   1  22   2    0.02    1.12
   1 -22  -2    4.66    1.46
  -1  22  -2    1.75    0.25
   1  22   2    1.90    1.83
   1 -22  -2   -1.38    2.06
  -1  22  -2    0.97    0.27
  -1  22  -2    1.54    0.25
  -1 -22   2    3.78    2.54
  -1  22  -2    1.60    1.37
  -1  22  -2    1.61    1.88
   1  22   2    1.44    0.29
   1  22   2    1.28    0.24
  -1  22  -2    2.82    2.90
   1  22   2    3.11    1.39
  -1 -22  -2    0.34    2.88
   1  22  -2    3.07    1.33
  -1  22   2    1.55    0.28
   1  22  -2    0.69    1.08
  -1  22   2    0.56    1.67
   1  22  -2   -1.20    2.32
   1 -22   2    1.82    1.43
   1 -22   2   -4.11    2.60
  -1 -22  -2    0.40    1.37
  -1  22   2   -0.27    1.05
  -1  22   2    1.16    0.23
  -1  22   2    3.05    1.34
  -1  22   2    4.02    2.52
  -1  22   2    1.66    0.27
   1 -22   2    0.35    1.85
   1  22  -2    1.18    0.29
   1  22  -2    3.19    1.83
   1 -22   2    1.47    1.17
   1  22  -2    1.18    0.24
  -1 -22  -2    0.17    1.13
  -1 -22  -2    3.16    1.98
  -1  22  -4    0.29    0.30
   1  22   4   -0.28    0.23
  -1 -22   4   -1.56    1.77
  -1 -22   4    0.29    2.40
   1 -22  -4   -0.73    1.78
  -1  22  -4   -0.45    2.35
   1 -22  -4   -0.47    2.19
  -1  22  -4    0.29    0.21
  -1  22  -4   -2.10    4.08
  -1  22  -4   -4.14    3.01
   1  22   4   -1.66    1.28
   1  22   4    1.13    1.67
  -1  22  -4    0.24    0.20
   1 -22  -4    2.51    4.40
  -1 -22   4   -1.45    1.44
   1  22   4    0.53    2.17
  -1 -22   4   -6.65    3.43
   1  22   4    0.77    3.22
  -1  22  -4   -1.86    1.93
   1 -22  -4    1.23    2.76
   1 -22   4    1.22    1.85
   1  22  -4   -1.75    1.89
  -1  22   4    0.23    0.24
  -1  22   4    2.85    1.77
  -1  22   4    1.27    2.32
   1  22  -4    0.34    0.22
   1 -22   4    1.47    2.88
   1  22  -4   -0.45    2.49
   1  22  -4    0.09    0.28
   1  22  -4    0.31    1.62
  -1  22   4   -0.85    1.37
   1  22  -4   -7.14    3.64
   1 -22   4    1.32    2.24
  -1  22   4   -0.38    3.59
   1 -22   4   -2.38    3.65
  -1  22   4    0.59    0.22
  -1  23  -1   55.29    2.96
   1  23   1   52.75    1.45
  -1 -23   1   53.93    4.06
  -1  23  -1   48.54    3.80
   1  23   1   47.65    4.47
  -1 -23   1   51.13    2.94
  -1 -23   1   51.61    3.28
   1  23   1   54.10    3.11
   1 -23  -1   45.70    3.02
  -1 -23   1   49.22    5.02
  -1  23  -1   47.39    3.13
  -1  23  -1   51.36    1.44
   1  23   1   56.88    2.85
   1  23   1   49.20    1.57
  -1  23  -1   50.07    1.58
   1 -23  -1   51.14    4.23
   1 -23  -1   45.72    5.16
   1  23   1   51.01    3.67
  -1  23  -1   56.51    4.74
   1 -23  -1   46.75    3.36
  -1  23  -1   50.87    1.41
   1 -23   1   54.91    3.39
  -1  23   1   54.20    2.90
   1  23  -1   51.14    1.45
  -1 -23  -1   46.91    3.33
   1 -23   1   56.40    4.15
   1  23  -1   51.38    3.03
   1  23  -1   51.55    2.75
   1 -23   1   55.83    3.07
  -1  23   1   46.05    4.51
  -1  23   1   51.21    1.47
   1  23  -1   50.37    4.49
  -1 -23  -1   53.50    3.05
  -1  23   1   52.48    3.81
  -1  23   1   55.58    3.22
  -1 -23  -1   52.26    5.22
   1  23  -1   51.72    3.69
   1 -23   1   51.45    5.13
  -1  23   1   51.23    1.57
   1  23  -1   51.63    1.36
  -1 -23  -1   55.68    4.20
   1  23   3   47.38    3.38
  -1  23  -3   49.78    1.62
   1  23   3   52.48    5.33
  -1  23  -3   50.62    3.81
  -1  23  -3   52.14    3.37
   1 -23  -3   45.73    4.44
   1  23   3   50.03    1.57
  -1 -23   3   53.93    4.47
  -1 -23   3   51.02    3.19
  -1  23  -3   50.46    1.44
   1 -23  -3   50.85    5.81
   1  23   3   47.24    2.95
  -1  23  -3   48.37    5.79
  -1 -23   3   49.70    3.61
  -1  23  -3   48.20    1.36
  -1  23  -3   49.53    4.68
   1 -23  -3   48.65    3.18
   1  23   3   50.26    4.19
  -1 -23   3   41.75    5.67
   1 -23  -3   45.09    3.48
   1  23   3   51.91    1.44
   1 -23   3   44.54    4.45
  -1  23   3   46.66    3.55
  -1  23   3   52.37    3.21
  -1 -23  -3   49.02    3.25
   1  23  -3   51.70    3.09
   1  23  -3   48.45    1.61
  -1  23   3   50.68    1.37
   1  23  -3   49.77    1.47
  -1 -23  -3   40.70    4.48
   1  23  -3   47.98    3.37
   1  23  -3   62.07    5.48
  -1 -23  -3   52.60    3.69
   1  23  -3   40.04    4.02
   1 -23   3   55.21    3.32
  -1 -23  -3   48.70    5.81
   1 -23   3   46.58    3.61
  -1  23   3   55.69    4.47
   1 -23   3   56.99    6.10
  -1  23   3   50.36    1.54
  -1  23   3   47.52    5.41
   1  23   5   33.12    1.21
  -1  23  -5   30.46    1.28
  -1  23  -5   31.66    1.12
   1  23  -5   30.29    1.28
  -1 -23  -5   30.14    1.11
   1  23  -5   29.91    1.12
  -1  23   5   32.68    1.17
  -1  23   5   34.17    1.02
  -1  24   0    4.46    2.80
  -1 -24   0   -3.19    2.91
  -1  24   0    0.89    1.42
  -1 -24   0    2.74    1.51
   1  24   0    0.06    0.17
  -1  24   0    1.50    1.81
   1  24   0    0.39    0.15
   1  24   0   -0.96    1.01
   1 -24   0   -0.86    1.50
   1  24   0    1.18    2.46
  -1 -24   0   -1.16    1.95
   1  24   0   -0.03    0.22
   1 -24   0    0.64    2.10
   1 -24   0    2.55    2.97
  -1 -24   0    2.88    1.29
   1 -24   0    2.02    1.32
  -1  24   0    0.46    1.20
   1  24   0   -1.01    1.54
   1  24   0   -1.12    1.19
  -1  24  -2    0.96    0.22
   1  24   2    0.59    0.22
   1  24   2    3.50    1.31
   1 -24  -2    5.71    2.17
   1  24   2    3.98    2.03
  -1 -24   2   -1.02    3.08
   1 -24  -2   -0.84    3.49
  -1  24  -2    0.78    0.26
  -1  24  -2    0.88    0.21
  -1 -24   2    1.57    1.34
   1  24   2    5.22    2.89
  -1  24  -2    1.07    2.17
  -1  24  -2   -1.83    3.34
  -1  24  -2    1.87    1.41
   1  24   2   -1.20    1.37
   1  24   2    0.35    0.26
   1 -24  -2    4.29    1.82
  -1  24  -2    3.57    1.77
  -1 -24   2    0.18    1.52
   1 -24  -2    2.20    2.70
  -1 -24   2    1.18    1.97
  -1  24   2    0.52    0.21
  -1 -24  -2    1.58    2.03
  -1 -24  -2    3.29    1.40
  -1  24   2    0.42    0.18
  -1  24   2    1.61    3.18
   1  24  -2    1.33    0.26
   1  24  -2    1.19    1.38
  -1  24   2    2.09    1.65
  -1  24   2    2.67    1.41
  -1 -24  -2    2.84    1.69
  -1  24   2    0.80    2.07
   1  24  -2    1.73    1.68
  -1 -24  -2    8.25    3.37
   1  24  -2    1.09    2.87
   1  24  -2    0.32    0.28
  -1  24   2    0.38    0.25
   1  24  -2    2.05    2.32
  -1 -24   4    2.66    1.89
  -1  24  -4    0.77    0.36
   1  24   4    4.69    3.98
   1 -24  -4   -3.75    4.51
  -1 -24   4    4.43    3.06
   1 -24  -4    0.01    3.69
   1  24   4    0.88    0.32
  -1 -24   4    1.51    2.29
   1 -24  -4    5.63    6.41
   1  24   4    0.42    0.25
   1 -24  -4    5.48    8.51
  -1 -24   4    2.50    4.60
  -1  24  -4    0.77    0.26
   1  24  -4    3.02    2.00
   1  24  -4    2.24    3.09
  -1  24   4    0.74    0.25
   1  24  -4   -0.59    2.31
   1  24  -4    0.90    0.36
  -1 -24  -4   -4.48    4.89
  -1  24   4    1.02    0.30
   1  24  -4    0.25    0.23
   1  24  -4    2.66    4.52
   1  25   1   79.09    3.61
   1 -25  -1   74.94    6.66
   1  25   1   78.28    5.60
  -1  25  -1   77.01    2.30
   1 -25  -1   80.82    4.08
   1  25   1   79.28    2.31
  -1  25  -1   79.85    6.00
   1  25   1   85.50    2.17
  -1  25  -1   83.68    4.26
  -1 -25   1   78.80    4.10
  -1 -25   1   81.21    3.76
  -1 -25   1   76.08    4.91
  -1  25  -1   83.58    3.86
  -1  25  -1   83.12    5.00
  -1 -25   1   81.54    6.17
  -1  25  -1   81.24    2.14
  -1  25  -1   81.16    2.11
   1 -25  -1   85.25    5.51
   1  25   1   82.29    4.69
   1 -25  -1   83.11    4.53
   1  25   1   77.82    3.93
   1  25  -1   85.09    4.80
   1 -25   1   78.11    5.33
  -1  25   1   82.42    5.06
  -1 -25  -1   85.41    4.44
   1  25  -1   81.44    4.04
   1 -25   1   64.95    7.31
  -1  25   1   78.39    3.78
  -1 -25  -1   87.60    4.03
  -1  25   1   78.47    6.15
   1  25  -1   78.98    3.67
  -1  25   1   78.69    4.18
   1  25  -1   81.18    2.16
   1  25  -1   90.10    5.80
  -1  25   1   83.45    2.09
   1  25  -1   81.54    2.06
  -1 -25  -1   84.06    5.33
   1 -25   1   58.82    6.02
   1  25  -1   78.38    2.32
  -1  25   1   81.01    2.18
   1 -25   1   67.72    5.67
  -1 -25  -1   82.45    6.54
  -1  25   1   81.38    2.30
  -1 -25   3   48.51    3.39
   1  25   3   48.93    3.22
  -1  25  -3   37.51    6.25
  -1 -25   3   49.95    6.56
   1 -25  -3   52.09    7.15
  -1  25  -3   44.85    3.32
   1  25   3   42.92    4.39
   1 -25  -3   52.49    4.17
  -1 -25   3   56.53    3.96
   1  25   3   48.59    1.40
   1  25   3   41.12    5.62
  -1 -25   3   48.68    4.88
  -1  25  -3   46.83    1.60
   1 -25  -3   44.67    3.52
  -1  25  -3   45.91    1.32
  -1  25  -3   46.94    3.74
   1  25   3   49.28    3.65
  -1  25  -3   46.69    1.40
  -1  25  -3   47.68    4.86
   1  25   3   47.02    1.55
   1 -25  -3   47.43    5.30
  -1 -25  -3   48.57    5.02
  -1  25   3   49.32    1.34
  -1  25   3   48.00    1.49
   1  25  -3   48.77    1.62
   1  25  -3   52.27    3.83
  -1  25   3   46.26    3.31
  -1  25   3   52.51    6.24
  -1  25   3   48.48    3.76
   1  25  -3   44.84    4.71
   1 -25   3   43.85    3.86
  -1  25   3   51.57    4.76
   1 -25   3   52.03    6.70
  -1 -25  -3   38.04    3.35
   1  25  -3   45.62    3.32
   1 -25   3   48.63    3.43
  -1  25   3   47.38    1.52
   1  25  -3   45.39    1.43
  -1 -25  -3   44.19    6.40
   1  25  -3   39.65    6.09
  -1 -25  -3   45.13    3.86
   1 -25   3   48.33    4.87
   1 -26   0    7.10    2.82
  -1 -26   0    2.61    2.26
  -1  26   0    6.17    3.45
   1 -26   0   -2.77    3.35
  -1  26   0   -0.53    1.35
  -1 -26   0    5.91    3.44
   1  26   0   -0.88    1.13
  -1  26   0    1.82    2.31
  -1  26   0   -0.16    1.70
   1  26   0    2.32    2.76
  -1 -26   0   -2.19    1.37
   1  26   0    1.94    1.52
   1  26   0   -3.02    1.88
  -1 -26   0   -1.71    1.69
   1 -26  -2   -2.67    2.68
  -1 -26   2   -0.75    1.68
   1 -26  -2    5.57    4.28
  -1 -26   2    4.39    3.78
   1  26   2    0.58    0.28
  -1  26  -2    0.84    0.32
  -1  26  -2    0.19    2.68
   1  26   2    2.83    2.40
   1  26   2    0.46    1.76
  -1 -26   2   -1.23    2.31
   1 -26  -2    0.61    2.06
   1  26   2    2.98    3.42
  -1  26  -2    0.23    1.77
   1 -26  -2   -0.97    1.66
  -1 -26   2    0.53    1.44
   1  26   2    0.81    0.23
   1  26   2    0.27    1.41
  -1  26  -2   -3.58    3.78
  -1  26  -2    0.46    0.20
  -1  26  -2    0.58    2.07
   1 -26   2    0.50    2.88
   1  26  -2    0.79    0.31
  -1  26   2    0.52    0.21
  -1  26   2    0.26    1.91
  -1  26   2    0.75    1.66
  -1  26   2    0.35    0.25
   1  26  -2    1.38    3.47
   1  26  -2   -0.79    2.47
   1 -26   2    1.87    1.81
  -1  26   2    0.80    0.21
  -1 -26  -2   -0.32    1.51
  -1 -26  -2   -4.44    3.78
  -1  26   2    3.12    2.58
   1 -26   2   -2.36    3.83
   1  26  -2    1.50    1.52
   1 -26   2    1.38    2.13
  -1 -26  -2    3.90    2.60
   1  26  -2    0.33    1.77
  -1  26   2    1.49    3.65
  -1 -26  -2    2.23    1.90
   1  26  -2    1.42    0.28
   1  26   4    0.75    0.28
  -1  26  -4    0.81    0.44
   1  26   4    1.14    0.37
   1  26  -4    0.79    0.40
  -1  26   4    1.30    0.30
  -1  26   4    0.91    0.31
   1  26  -4    1.38    0.32
   1 -27  -1   40.02    4.86
   1  27   1   32.55    3.97
  -1  27  -1   28.85    1.15
   1 -27  -1   28.32    3.64
   1  27   1   32.74    1.01
  -1  27  -1   33.87    2.96
  -1  27  -1   29.87    0.99
   1 -27  -1   22.11    4.78
   1  27   1   28.79    2.69
  -1 -27   1   33.80    4.52
  -1  27  -1   30.10    0.96
   1  27   1   31.21    1.16
   1 -27  -1   27.17    3.13
  -1 -27   1   27.07    2.92
  -1  27  -1   26.28    3.21
  -1 -27   1   33.78    3.50
  -1 -27   1   30.00    4.86
  -1  27  -1   32.33    4.19
   1  27   1   33.06    5.11
   1  27   1   25.96    3.05
  -1  27  -1   38.95    5.59
  -1 -27  -1   25.08    4.75
  -1  27   1   37.48    4.11
  -1  27   1   33.70    1.17
  -1  27   1   35.05    3.28
  -1 -27  -1   33.34    5.21
   1 -27   1   29.27    5.09
  -1 -27  -1   29.99    3.62
   1  27  -1   31.32    5.12
   1 -27   1   30.29    3.58
   1  27  -1   34.63    3.95
   1 -27   1   42.49    3.25
  -1  27   1   29.49    5.28
   1  27  -1   29.83    2.71
  -1  27   1   31.14    0.94
  -1  27   1   31.05    1.02
  -1 -27  -1   28.17    3.02
   1 -27   1   25.39    4.51
   1  27  -1   30.68    0.91
   1  27  -1   30.34    1.00
  -1  27   1   33.34    2.84
   1  27  -1   30.03    1.17
   1  27  -1   30.42    3.11
   1  27   3   35.68    1.34
  -1 -27   3   34.32    3.66
  -1  27  -3   36.59    1.40
  -1  27  -3   36.18    1.19
  -1 -27   3   36.63    5.50
  -1 -27   3   42.14    8.04
   1  27   3   39.39    1.20
  -1 -27   3   39.05    4.33
   1  27  -3   37.44    5.87
  -1  27   3   38.82    1.12
  -1  27   3   37.62    1.32
   1  27  -3   36.45    1.22
   1  27  -3   37.04    1.41
  -1  27   3   39.19    1.28
  -1 -28   0    0.65    2.28
  -1 -28   0    1.08    1.92
   1 -28   0    1.03    2.12
   1  28   0    5.01    1.76
   1  28   0    0.96    0.34
  -1  28   0    0.82    0.30
  -1 -28   0    4.24    4.16
   1 -28   0    0.59    2.83
   1  28   0   -0.46    3.34
   1  28   0    1.36    0.27
   1  28   0    1.12    2.04
  -1  28   0    4.78    2.63
  -1  28   0   -0.70    1.90
   1  28   0    1.63    0.31
  -1  28   0    1.67    0.27
  -1  28   0    4.54    3.78
  -1 -28   0   -0.01    3.04
   1 -28   0   -4.66    4.31
   1 -28   0    0.77    1.72
  -1  28   0    3.03    1.61
   1  28   0    2.32    2.56
  -1  28   0    1.30    0.30
   1  28   2    0.27    0.32
  -1  28  -2    0.52    0.25
   1  28   2    1.54    3.00
   1  28   2   10.01    4.64
  -1  28  -2    1.43    0.28
   1  28   2    0.65    0.25
   1 -28  -2   -0.88    1.86
  -1 -28   2    0.30    2.10
  -1 -28   2    6.44    2.91
   1 -28  -2   -3.17    4.93
   1 -28  -2   -3.51    3.36
  -1 -28   2    7.49    4.82
   1  28   2    4.27    2.51
   1  28   2    2.48    2.12
   1 -28  -2    4.32    2.59
  -1  28  -2    0.35    0.31
  -1 -28   2    1.17    1.75
   1  28  -2    0.63    0.37
   1 -28   2    1.36    3.28
   1 -28   2    0.76    2.49
   1 -28   2   -4.84    4.65
   1  28  -2   -1.88    4.19
   1  28  -2    0.27    2.06
  -1  28   2    1.62    0.30
  -1 -28  -2   -2.24    2.28
   1  28  -2    3.44    2.75
  -1 -28  -2    6.67    5.06
   1 -28   2   -0.43    1.90
   1  28  -2    0.82    1.79
  -1 -28  -2   -5.14    3.57
   1  28  -2    0.66    0.25
  -1 -28  -2    6.61    3.02
  -1  28   2    0.83    0.24
  -1  28   2    0.51    0.30
   1  29   1    9.10    0.66
   1 -29  -1   11.45    2.64
  -1  29  -1    9.70    0.66
   1  29   1    6.80    2.59
   1  29   1    7.98    2.29
  -1  29  -1    9.53    0.48
  -1 -29   1    5.34    4.78
  -1 -29   1    7.93    3.30
   1  29   1    5.88    3.25
   1 -29  -1    3.75    3.84
   1 -29  -1    2.67    5.06
   1  29   1    5.76    4.43
   1  29   1    9.64    0.51
   1  29   1    8.79    0.50
  -1 -29   1    7.61    2.07
  -1 -29   1    9.04    2.48
  -1  29  -1    9.98    0.52
   1 -29  -1    8.62    3.11
  -1  29   1    9.33    0.66
  -1  29   1    9.32    0.47
   1  29  -1   10.04    0.52
  -1 -29  -1   14.52    4.49
   1 -29   1    6.45    3.11
  -1 -29  -1    7.99    5.18
   1  29  -1   10.75    4.30
   1 -29   1    9.68    2.60
   1  29  -1    9.08    0.70
   1 -29   1    6.20    2.13
   1  29  -1    8.14    2.28
  -1 -29  -1    7.78    2.66
  -1 -29  -1   14.43    3.34
   1  29  -1    6.91    2.59
   1 -29   1    3.94    4.98
   1  29  -1   13.14    3.29
  -1  29   1    9.27    0.52
   1  29   3    5.37    0.62
   1  29   3    5.58    0.48
  -1  29  -3    5.87    0.66
  -1  29  -3    5.90    0.47
  -1  29   3    5.46    0.43
  -1  29   3    4.30    0.54
  -1  29   3    5.06    0.50
   1  29  -3    6.11    0.70
   1  29  -3    5.69    0.48
  -1  30   0    2.56    0.37
   1  30   0    1.37    0.40
  -1  30   0    2.48    0.50
   1  30   0    1.91    0.34
  -1  30   0    2.57    0.32
   1  30   0    2.65    0.37
  -1  30  -2    1.94    0.44
   1  30   2    1.33    0.42
   1  30   2    2.12    0.37
  -1  30  -2    1.87    0.33
  -1  30  -2    1.61    0.38
  -1  30   2    1.68    0.39
  -1  30   2    1.84    0.35
   1  30  -2    1.75    0.37
  -1  30   2    1.50    0.36
   1  30  -2    1.04    0.42
  -1  31  -1   11.57    0.60
  -1  31  -1   13.03    0.78
   1  31   1   11.90    0.60
   1  31   1   12.26    0.60
  -1  31  -1   13.78    0.60
   1  31   1   10.99    0.80
   1  31  -1   13.07    0.83
  -1  31   1   11.36    0.61
  -1  31   1   12.33    0.57
  -1  31   1   12.16    0.76
  -1  32   0    2.20    0.37
  -1  32   0    2.66    0.56
   1  32   0    1.81    0.46
   1  32   0    2.38    0.38
   1  32   0    2.77    0.41
  -1  32   0    1.93    0.39
  -2   0   2  955.90   23.34
  -2   0  -2  994.88   24.14
   2   0   2  946.73   23.27
   2   0  -2  961.51   23.50
  -2   0   2  997.68   24.20
   2   0   2  974.06   23.67
   2   0   2  951.79   23.37
   2   0  -2  975.47   23.83
  -2   0  -2  962.18   23.43
  -2   0   2  959.82   23.46
   2   0  -2 1000.00   24.30
  -2   0   2  972.42   23.78
  -2   0  -2  963.88   23.31
   2   0  -2  950.00   23.37
  -2   0  -2  966.72   23.72
   2   0   2  998.02   24.06
   2   0   4  438.27   12.52
  -2   0   4  412.87   11.24
   2   0  -4  430.16   11.14
   2   0  -4  419.28   12.75
  -2   0  -4  410.81   11.23
  -2   0  -4  419.43   11.01
   2   0   4  419.61   11.15
   2   0   4  429.52   10.97
  -2   0  -4  398.89    9.96
   2   0  -4  427.73   11.99
   2   0  -4  432.37   11.40
   2   0   4  429.92   11.76
  -2   0   4  435.42   12.70
  -2   0   4  422.55   11.85
  -2   0  -4  392.34    9.97
  -2   0  -4  410.49   11.78
  -2   0  -4  418.87   12.54
  -2   0   4  410.54    9.94
  -2   0   4  426.69   11.04
   2   0   4  406.36    9.97
   2   0  -4  400.54    9.93
  -2   0   6  232.53    9.92
  -2   0   6  227.39    7.31
   2   0  -6  225.03    5.59
  -2   0   6  229.63    7.73
  -2   0   6  231.05    8.65
   2   0  -6  229.71    5.57
  -2   0  -6  225.78    5.61
   2   0   6  230.93    5.65
  -2  -1   1    6.82    0.22
  -2  -1   1    5.66    0.38
   2  -1  -1    5.65    0.20
  -2  -1   1    6.68    0.43
   2   1   1    6.33    0.36
   2   1   1    6.65    0.48
   2  -1  -1    6.35    0.25
  -2   1  -1    6.40    0.43
  -2   1  -1    6.21    0.52
  -2   1  -1    6.07    0.25
   2   1   1    5.86    0.38
   2   1   1    4.63    0.54
  -2  -1   1    6.38    0.22
  -2  -1   1    5.84    0.63
  -2   1  -1    6.48    0.38
   2   1   1    6.16    0.19
  -2   1  -1    6.54    0.23
   2  -1  -1    6.52    0.22
  -2   1  -1    6.00    0.63
  -2  -1   1    7.12    0.53
   2  -1  -1    6.71    0.19
  -2   1   1    6.50    0.68
   2   1  -1    6.59    0.21
   2  -1   1    6.85    0.22
   2   1  -1    6.19    0.55
  -2  -1  -1    6.10    0.25
  -2   1   1    6.08    0.41
   2   1  -1    5.56    0.64
  -2   1   1    6.60    0.41
   2   1  -1    6.91    0.21
   2   1  -1    5.66    0.39
  -2  -1  -1    5.88    0.36
  -2   1   1    6.21    0.45
  -2  -1  -1    6.38    0.42
  -2   1   1    6.09    0.56
  -2  -1  -1    6.60    0.23
   2   1  -1    6.77    0.24
  -2   1   1    6.84    0.20
   2  -1   1    5.69    0.22
   2  -1   1    5.55    0.36
  -2   1   1    6.48    0.24
  -2   1   1    5.57    0.54
  -2   1   1    7.06    0.47
   2   1  -1    5.73    0.19
   2  -1   1    5.96    0.20
   2  -1   1    6.15    0.59
   2  -1   1    6.22    0.41
  -2  -1  -1    5.68    0.50
  -2  -1  -1    6.03    0.61
   2  -1   1    6.01    0.49
  -2   1   1    4.58    0.67
   2   1  -1    6.13    0.44
  -2   1  -3   24.88    0.72
   2   1   3   24.86    2.00
   2   1   3   25.15    1.40
  -2   1  -3   24.68    0.72
   2   1   3   24.76    1.27
   2  -1  -3   25.27    0.68
   2  -1  -3   22.30    2.11
   2   1   3   24.54    0.71
   2   1   3   23.15    1.63
  -2  -1   3   23.64    2.11
  -2  -1   3   26.20    1.34
  -2  -1   3   24.72    1.74
  -2  -1   3   27.05    1.49
  -2   1   3   26.92    1.36
  -2   1   3   24.60    0.69
   2   1  -3   25.09    1.48
   2   1  -3   26.10    1.36
   2  -1   3   24.00    0.71
  -2  -1  -3   25.46    0.72
  -2   1   3   25.12    1.78
   2   1  -3   21.86    2.08
   2   1  -3   24.60    0.69
  -2   1   3   25.70    2.13
   2   1  -3   25.15    1.78
  -2   1   3   25.41    1.48
  -2   1  -5   20.11    0.68
  -2   1  -5   20.78    3.32
   2   1   5   19.89    3.10
  -2   1  -5   17.57    2.64
  -2   1  -5   22.95    1.86
  -2   1  -5   21.56    2.09
   2   1   5   21.49    2.45
  -2  -1   5   22.28    3.57
  -2  -1   5   21.38    2.72
  -2  -1   5   18.25    1.79
  -2   1  -5   20.31    0.70
   2  -1  -5   20.18    0.65
   2   1   5   24.52    1.98
   2   1   5   20.25    0.69
  -2  -1   5   24.17    2.18
   2   1   5   19.00    1.66
   2  -1   5   25.50    4.76
  -2   1   5   20.61    3.23
  -2  -1  -5   21.06    2.15
  -2  -1  -5   19.74    1.86
  -2  -1  -5   24.88    3.61
  -2   1   5   20.13    0.67
   2   1  -5   20.51    0.67
  -2  -1  -5   19.80    0.68
   2   1  -5   19.64    1.91
   2  -1   5   16.25    2.70
  -2  -1  -5   25.34    2.81
  -2   1   5   22.18    1.86
   2  -1   5   19.99    0.69
   2   1  -5   20.30    3.43
   2  -1   5   19.83    3.81
   2   1  -5   27.71    2.31
  -2   1   5   20.86    2.11
   2  -1   5   18.69    2.21
  -2   1   5   18.62    2.66
   2   1  -5   23.32    2.79
  -2   1  -7    4.08    0.40
   2   1   7    4.55    0.40
   2  -1  -7    5.21    0.38
   2  -1  -7    4.48    0.39
   2  -1   7    4.42    0.40
  -2  -1  -7    5.12    0.42
   2   1  -7    3.91    0.36
   2   1  -7    4.62    0.38
   2   2   0    0.46    0.08
   2  -2   0    0.51    0.19
   2  -2   0    0.89    0.26
  -2   2   0    0.40    0.27
   2  -2   0    0.51    0.09
   2  -2   0    0.26    0.28
  -2  -2   0    0.38    0.08
   2  -2   0    0.51    0.07
  -2   2   0    0.21    0.31
  -2  -2   0    0.37    0.09
   2  -2   0    0.51    0.17
  -2   2   0    0.43    0.09
  -2   2   0    0.70    0.23
  -2   2   0    0.57    0.20
  -2  -2   2   46.21    1.61
  -2  -2   2   47.56    1.72
   2   2   2   45.81    1.58
  -2   2  -2   44.73    1.59
  -2   2  -2   44.43    1.68
   2   2   2   48.04    1.17
   2   2   2   44.30    1.87
  -2  -2   2   45.79    2.22
   2   2   2   43.74    1.66
  -2   2  -2   48.78    1.16
  -2   2  -2   41.73    2.11
  -2  -2   2   48.11    1.17
  -2   2  -2   48.45    1.19
   2  -2  -2   47.35    1.13
  -2   2  -2   43.23    1.88
  -2   2  -2   46.14    1.23
  -2   2  -2   46.59    1.18
  -2  -2   2   46.70    1.93
   2   2   2   46.90    2.15
  -2   2  -2   47.29    1.19
   2  -2   2   44.14    2.13
   2   2  -2   44.65    1.71
  -2   2   2   43.89    2.29
  -2  -2  -2   45.55    1.23
   2  -2   2   46.84    1.90
  -2  -2  -2   44.53    1.70
  -2   2   2   47.95    1.16
  -2  -2  -2   46.64    1.19
   2   2  -2   47.58    1.16
   2  -2   2   44.77    1.67
   2  -2   2   47.74    1.17
  -2   2   2   44.02    1.72
   2   2  -2   44.95    2.22
  -2   2   2   43.62    1.94
   2   2  -2   43.40    1.92
  -2   2   2   45.10    2.00
   2  -2   2   44.71    1.58
  -2   2   2   45.42    1.66
  -2   2   2   45.73    1.77
  -2   2   2   46.55    1.14
  -2  -2  -2   45.75    1.61
  -2   2   2   44.61    2.25
  -2   2   2   46.52    1.20
  -2  -2  -2   48.32    1.16
  -2   2   2   43.43    1.61
   2   2  -2   44.69    1.62
  -2  -2  -2   43.72    1.91
  -2  -2  -2   43.30    2.16
  -2   2  -4   20.03    0.63
   2   2   4   16.30    1.30
  -2  -2   4   18.21    1.98
   2   2   4   15.84    1.79
  -2   2  -4   22.23    1.51
   2  -2  -4   21.05    0.60
   2   2   4   20.85    0.65
   2   2   4   18.24    2.32
  -2   2  -4   18.77    1.64
  -2   2  -4   18.22    2.51
  -2  -2   4   18.41    1.43
  -2  -2   4   20.57    2.62
  -2   2  -4   19.78    2.05
  -2  -2   4   20.34    1.65
   2   2   4   17.67    1.48
  -2   2  -4   20.49    0.65
   2  -2   4   16.63    1.30
   2  -2   4   16.32    1.82
  -2  -2  -4   18.18    1.99
  -2  -2  -4   21.00    2.57
  -2  -2  -4   20.25    1.51
   2   2  -4   24.12    2.25
  -2   2   4   20.23    0.62
  -2   2   4   19.94    1.67
  -2  -2  -4   21.40    0.66
   2  -2   4   19.36    0.63
   2   2  -4   20.82    2.71
  -2   2   4   22.90    2.10
  -2   2   4   19.31    1.46
  -2   2   4   17.96    2.57
   2   2  -4   20.15    1.53
   2  -2   4   20.37    1.54
   2  -2   4   21.58    2.41
   2   2  -4   21.45    1.74
   2   2  -4   20.70    0.62
  -2  -2  -4   21.47    1.68
   2  -2  -6   32.32    0.97
  -2  -2   6   31.45    3.78
  -2  -2   6   30.48    4.87
  -2  -2   6   31.51    2.94
  -2   2  -6   32.71    1.04
   2   2   6   31.10    1.02
  -2   2  -6   32.65    0.99
  -2  -2   6   31.36    2.59
   2   2  -6   32.44    0.94
  -2   2   6   29.78    3.03
   2   2  -6   32.78    0.99
   2   2  -6   36.47    3.27
  -2  -2  -6   31.81    1.00
  -2   2   6   27.75    2.60
   2   2  -6   37.30    4.12
  -2   2   6   28.56    3.92
   2  -2   6   30.41    1.00
  -2   2   6   40.52    5.35
   2   2  -6   31.00    2.85
  -2   2   6   31.59    0.99
   2   2  -6   34.86    5.23
  -2  -3   1    3.41    0.44
   2   3   1    2.94    0.28
   2   3   1    2.63    0.31
   2   3   1    2.84    0.55
   2  -3  -1    2.48    0.49
   2   3   1    1.93    0.46
   2   3   1    3.20    0.31
  -2   3  -1    2.99    0.14
  -2   3  -1    2.99    0.18
  -2   3  -1    3.24    0.53
  -2   3  -1    3.01    0.16
   2  -3  -1    2.74    0.36
   2   3   1    2.80    0.39
  -2  -3   1    3.20    0.16
   2   3   1    2.98    0.44
  -2   3  -1    2.78    0.57
  -2  -3   1    2.98    0.34
  -2   3  -1    3.33    0.14
  -2  -3   1    3.07    0.14
  -2   3  -1    3.03    0.34
  -2  -3   1    2.18    0.46
   2  -3  -1    2.64    0.64
   2  -3  -1    2.53    0.15
  -2   3  -1    2.89    0.40
  -2  -3   1    3.10    0.31
  -2  -3   1    3.23    0.14
   2   3   1    2.97    0.35
   2  -3  -1    2.72    0.40
   2   3  -1    2.87    0.13
   2  -3   1    3.06    0.40
  -2   3   1    2.97    0.53
   2  -3   1    2.84    0.15
   2   3  -1    2.54    0.35
   2   3  -1    3.19    0.16
  -2   3   1    3.04    0.17
   2  -3   1    3.10    0.35
  -2   3   1    3.02    0.42
  -2   3   1    3.09    0.37
   2   3  -1    2.80    0.44
  -2   3   1    3.61    0.69
   2  -3   1    2.97    0.49
   2   3  -1    2.63    0.31
  -2  -3  -1    2.70    0.17
   2   3  -1    3.64    0.56
   2  -3   1    3.00    0.17
  -2   3   1    2.97    0.13
   2   3  -1    3.36    0.16
  -2  -3  -1    3.02    0.16
   2  -3   1    2.39    0.55
  -2  -3   3   14.07    1.82
  -2   3  -3   11.40    1.98
  -2   3  -3   13.04    0.45
  -2   3  -3   13.80    0.48
  -2  -3   3   13.26    1.14
   2   3   3   12.50    1.72
  -2  -3   3   12.25    1.40
   2   3   3   14.00    0.98
  -2   3  -3   12.58    1.14
   2  -3  -3   13.52    0.41
  -2  -3   3   12.77    1.00
  -2   3  -3   12.93    0.45
  -2   3  -3   10.84    1.23
   2   3   3   12.03    1.08
   2   3   3   13.35    0.45
  -2  -3   3   13.89    0.43
   2   3   3   12.11    1.35
  -2   3  -3   13.13    0.48
  -2   3  -3   11.40    1.56
   2   3  -3   15.84    1.49
  -2   3   3   13.81    1.04
  -2   3   3   14.79    1.51
  -2   3   3   15.21    1.19
   2   3  -3   13.93    1.17
   2  -3   3   12.81    0.43
   2  -3   3   13.35    0.97
  -2   3   3   16.93    1.91
  -2  -3  -3   13.47    0.46
  -2   3   3   15.09    1.22
  -2   3   3   13.22    0.44
  -2   3   3   13.17    1.71
   2   3  -3   13.87    1.05
  -2   3   3   15.21    1.08
  -2   3   3   14.91    1.43
   2  -3   3   13.83    1.12
   2  -3   3   12.22    1.70
   2   3  -3   13.45    0.43
   2   3  -3   13.40    1.84
   2  -3   3   13.51    1.40
  -2  -3   5   12.45    1.55
  -2   3  -5   11.13    0.45
  -2   3  -5    9.42    2.71
  -2   3  -5   12.97    1.82
   2   3   5   11.06    0.49
  -2  -3   5   13.72    2.38
   2   3   5   12.30    2.31
  -2   3  -5   11.55    1.54
  -2   3  -5   11.71    0.48
  -2  -3   5   12.84    2.66
  -2  -3   5   11.93    1.79
   2   3   5   17.46    3.15
  -2   3  -5    7.31    1.81
   2   3   5   10.28    1.46
   2   3   5   13.55    1.76
   2  -3   5   11.50    2.22
  -2   3   5   14.51    1.97
  -2   3   5   12.27    1.65
  -2   3   5   11.39    0.46
   2   3  -5   11.50    0.42
   2   3  -5   12.87    1.93
  -2   3   5    9.41    2.11
  -2   3   5   11.22    2.85
   2   3  -5    8.86    1.98
  -2  -3  -5   10.88    0.47
   2  -3   5   13.69    2.64
   2   3  -5   13.51    1.67
  -2   3   5   13.01    2.81
   2  -3   5   12.78    1.53
   2   3  -5   12.39    2.78
  -2   3   5   11.84    1.62
  -2   3   5   11.91    2.18
   2   3  -5   11.26    0.45
  -2   3   5   15.32    1.92
   2  -3   5   10.81    0.46
   2  -3   5    9.90    1.78
  -2   3  -7    1.91    0.33
   2  -3  -7    2.33    0.31
   2  -3  -7    2.17    0.37
   2   3   7    2.57    0.36
  -2   3  -7    2.55    0.36
   2   3  -7    2.54    0.34
  -2  -3  -7    2.32    0.36
   2   3  -7    1.94    0.32
  -2   3   7    2.24    0.32
  -2  -4   0  408.15    9.76
   2  -4   0  402.98    9.91
  -2   4   0  392.89   10.45
  -2   4   0  401.06   10.21
   2   4   0  412.89    9.82
   2  -4   0  417.01   10.42
  -2   4   0  393.04    9.92
   2   4   0  406.54    9.93
  -2  -4   0  404.62    9.98
  -2  -4   0  403.67    9.72
   2  -4   0  414.27   10.18
  -2  -4   0  416.04    9.87
   2  -4   0  406.67    9.98
   2   4   0  406.87    9.74
  -2   4   0  401.68   10.02
   2  -4   0  429.86    9.61
   2   4   0  416.45    9.59
   2   4   0  401.74    9.61
   2   4   0  398.76    9.70
  -2  -4   2  181.84    4.80
   2   4   2  182.88    5.44
  -2   4  -2  170.50    5.57
  -2   4  -2  172.64    4.82
   2   4   2  185.72    4.31
   2   4   2  178.32    4.74
  -2   4  -2  179.14    4.31
   2  -4  -2  179.12    4.25
  -2  -4   2  185.42    5.56
  -2   4  -2  186.11    4.30
   2   4   2  178.65    5.17
  -2  -4   2  186.49    4.28
  -2  -4   2  186.68    4.93
   2   4   2  179.29    4.90
   2   4   2  174.95    5.49
   2   4   2  182.53    4.80
  -2  -4   2  182.48    5.21
  -2   4  -2  178.94    4.33
   2   4   2  176.03    4.83
  -2   4  -2  179.70    4.32
  -2   4  -2  171.47    4.35
  -2   4  -2  173.41    5.23
  -2   4  -2  172.12    4.93
   2   4   2  179.08    5.09
   2   4  -2  179.46    5.57
   2  -4   2  179.96    4.81
  -2   4   2  176.04    4.35
  -2   4   2  176.82    4.25
   2   4  -2  178.18    5.22
  -2   4   2  183.63    5.08
   2  -4   2  175.92    5.19
   2   4  -2  178.28    4.31
   2   4  -2  180.13    4.94
  -2   4   2  186.21    4.95
   2   4  -2  181.29    4.26
   2  -4   2  172.37    5.52
  -2   4   2  182.45    5.85
  -2  -4  -2  189.07    4.30
   2  -4   2  175.37    4.29
   2   4  -2  178.52    4.82
  -2  -4  -2  181.40    4.33
  -2   4   2  179.97    4.30
   2  -4   2  178.08    4.92
  -2   4   2  186.40    5.43
  -2   4  -4  217.89    6.65
  -2  -4   4  221.11    7.85
  -2  -4   4  227.05    7.15
   2   4   4  216.24    6.34
  -2  -4   4  226.51    6.61
   2   4   4  224.29    7.69
  -2   4  -4  218.97    5.39
  -2  -4   4  227.76    6.40
   2  -4  -4  223.61    5.32
   2   4   4  215.30    7.07
   2   4   4  214.77    6.55
  -2   4  -4  219.99    7.20
  -2   4  -4  228.79    6.47
   2   4   4  222.41    5.39
   2   4   4  211.94    7.70
  -2   4  -4  219.13    7.82
  -2   4   4  219.07    5.37
   2   4  -4  224.22    6.46
  -2   4   4  218.59    6.60
  -2   4   4  222.23    7.85
   2  -4   4  223.06    7.79
   2  -4   4  222.89    5.37
   2   4  -4  223.09    7.26
  -2   4   4  221.63    7.16
  -2   4   4  221.77    7.29
  -2  -4  -4  222.87    5.39
   2   4  -4  223.31    7.97
   2  -4   4  224.23    6.58
  -2   4   4  227.37    6.75
   2   4  -4  223.27    6.70
  -2   4   4  221.07    6.40
   2   4  -4  217.25    5.36
   2  -4   4  232.60    6.39
  -2   4   4  230.14    6.51
  -2   4   4  222.41    7.99
   2  -4   4  215.89    7.05
  -2  -4   6  147.55    7.91
   2   4   6  141.53    5.30
  -2  -4   6  147.53    5.79
  -2   4  -6  150.51    3.69
  -2  -4   6  144.44    6.66
  -2  -4   6  148.63    5.39
  -2   4  -6  148.15    3.75
   2   4   6  157.68    7.67
   2   4   6  147.21    5.72
   2   4   6  143.69    6.56
   2  -4  -6  150.61    3.66
   2   4   6  149.67    3.75
   2   4  -6  153.01    8.10
  -2   4   6  151.61    5.91
   2   4  -6  152.28    3.71
   2   4  -6  140.31    3.65
  -2   4   6  145.83    5.45
  -2  -4  -6  150.69    3.73
  -2   4   6  146.00    3.70
   2   4  -6  140.29    5.46
   2   4  -6  127.18    6.60
  -2   4   6  142.31    6.72
   2   4  -6  149.03    5.93
  -2   4   6  148.61    8.14
   2   5   1    0.58    0.26
  -2   5  -1    0.64    0.37
   2   5   1    0.53    0.11
   2  -5  -1    0.10    0.46
  -2  -5   1    0.46    0.27
  -2   5  -1    0.53    0.30
   2   5   1    0.55    0.23
  -2  -5   1    0.72    0.24
  -2  -5   1    0.26    0.31
   2  -5  -1    1.06    0.39
  -2  -5   1    0.92    0.46
  -2   5  -1    0.46    0.11
  -2  -5   1    0.56    0.07
  -2   5  -1    0.40    0.08
  -2   5  -1    0.27    0.46
   2   5   1    0.44    0.39
  -2   5  -1    0.31    0.07
   2   5   1    0.42    0.32
  -2   5  -1    0.70    0.26
  -2  -5   1    0.42    0.07
   2  -5  -1    0.70    0.28
  -2   5  -1    0.20    0.10
  -2   5  -1    0.56    0.10
   2  -5  -1   -0.05    0.27
   2  -5   1    1.16    0.54
   2   5  -1    0.20    0.23
  -2   5   1    0.81    0.58
   2  -5   1    0.61    0.28
   2  -5   1    1.09    0.43
   2   5  -1    0.38    0.22
   2   5  -1    0.35    0.38
   2   5  -1    0.50    0.10
  -2   5   1    0.43    0.11
  -2  -5  -1    0.65    0.09
  -2   5   1    0.31    0.08
   2  -5   1    0.70    0.33
   2  -5   1    0.40    0.09
  -2   5   1    0.89    0.48
  -2   5   1    1.50    0.37
   2   5  -1    0.16    0.31
  -2   5   1    0.40    0.28
   2   5  -1    0.59    0.09
   2   5  -1    0.49    0.07
  -2   5  -3    2.50    1.19
   2   5   3    1.27    0.62
   2   5   3    1.37    0.99
  -2   5  -3    2.14    0.63
   2   5   3    2.91    0.99
   2   5   3    2.41    0.61
  -2   5  -3    2.57    0.78
  -2  -5   3    2.10    0.53
  -2   5  -3    2.29    0.20
  -2  -5   3    2.15    0.15
   2   5   3    2.00    0.18
   2   5   3    2.00    0.79
  -2   5  -3    1.88    0.16
  -2   5  -3    2.06    0.17
   2  -5  -3    2.13    0.14
  -2   5  -3    2.29    0.21
  -2  -5   3    2.27    0.65
  -2  -5   3    1.80    1.11
   2   5   3    1.72    1.09
   2   5   3    3.04    0.68
  -2   5  -3    2.13    0.57
   2   5   3    3.86    0.71
  -2  -5   3    1.80    0.77
  -2   5   3    3.93    1.42
  -2   5   3    2.14    0.54
   2  -5   3    2.31    0.60
   2  -5   3    2.27    0.86
  -2   5   3    3.79    1.00
   2   5  -3    2.10    0.56
   2   5  -3    2.17    0.78
   2  -5   3    3.18    1.25
   2   5  -3    1.53    1.10
  -2  -5  -3    2.13    0.19
   2   5  -3    2.17    0.17
  -2   5   3    2.33    0.83
  -2   5   3    2.98    0.71
  -2   5   3    2.35    0.76
   2  -5   3    1.96    0.63
  -2   5   3    1.90    0.16
   2   5  -3    1.92    0.64
  -2   5   3    3.06    1.13
  -2   5   3    1.58    0.61
  -2   5  -5    2.14    1.20
   2  -5  -5    1.60    0.20
  -2   5  -5    1.89    1.54
   2   5   5    0.16    0.88
  -2   5  -5    0.66    0.91
   2   5   5    2.08    1.01
  -2  -5   5    1.04    1.82
  -2   5  -5    1.90    0.22
   2   5   5   -0.08    2.16
  -2  -5   5    0.83    1.25
   2   5   5    1.62    1.18
  -2   5  -5    1.79    0.23
  -2  -5   5    1.70    1.06
   2   5   5    1.93    1.44
   2   5   5   -0.27    2.02
   2   5   5    1.58    0.24
  -2   5  -5    4.83    2.30
   2   5   5    3.18    1.24
   2   5   5   -1.44    1.46
  -2  -5   5    1.96    2.26
   2  -5   5    1.63    0.99
  -2   5   5    3.36    1.88
   2   5  -5    2.04    0.19
  -2   5   5    0.59    1.66
  -2   5   5    2.14    1.42
  -2  -5  -5    2.14    0.25
   2  -5   5    2.91    2.14
  -2   5   5    2.44    1.33
   2  -5   5    2.48    1.56
  -2   5   5    1.98    0.23
  -2   5   5    2.00    2.21
  -2   5   5    2.58    1.21
   2   5  -5    3.86    1.29
   2   5  -5    5.02    1.46
  -2   5   5    3.39    1.24
   2   5  -5    1.82    0.23
  -2   5   5   -2.56    2.28
   2   5  -5    2.41    2.32
   2   5  -5    2.11    1.77
   2  -5   5    2.61    1.21
  -2   5  -7    0.66    0.34
  -2   5  -7    0.72    0.25
   2  -5  -7    0.19    0.25
  -2   5  -7    0.44    0.25
   2   5   7    0.53    0.25
  -2  -5  -7    0.60    0.26
   2   5  -7    0.71    0.25
  -2   5   7    0.15    0.21
  -2   6   0  529.50   13.06
   2   6   0  547.42   12.95
  -2  -6   0  523.98   12.82
  -2  -6   0  525.56   13.24
  -2  -6   0  544.14   13.04
  -2  -6   0  521.74   12.75
   2  -6   0  519.10   12.91
  -2   6   0  522.17   13.68
   2  -6   0  519.60   13.61
   2   6   0  546.30   13.16
   2   6   0  541.10   12.71
   2  -6   0  513.84   13.01
  -2   6   0  515.18   12.93
  -2   6   0  522.58   13.33
   2  -6   0  522.83   13.29
   2   6   0  545.64   12.78
   2   6   2  264.74    6.75
  -2  -6   2  249.14    6.65
   2   6   2  264.47    7.41
   2   6   2  261.07    6.85
  -2   6  -2  251.17    6.18
  -2   6  -2  258.61    6.15
  -2  -6   2  260.33    6.08
  -2   6  -2  244.27    6.18
  -2  -6   2  255.77    6.79
  -2  -6   2  253.69    7.09
  -2   6  -2  256.61    6.15
   2   6   2  270.37    6.17
   2   6   2  267.66    7.05
   2   6   2  258.60    7.57
   2   6   2  262.07    7.17
   2   6   2  265.41    6.65
   2   6   2  266.89    6.73
  -2  -6   2  262.39    7.50
   2   6  -2  266.95    7.61
   2   6  -2  256.89    7.15
  -2   6   2  245.46    6.20
  -2   6   2  224.77    8.86
  -2  -6  -2  265.09    6.15
  -2   6   2  254.22    6.15
   2   6  -2  256.72    6.16
   2   6  -2  255.77    6.07
   2  -6   2  252.76    7.60
   2   6  -2  257.83    6.84
  -2   6   2  252.46    6.07
   2   6  -2  263.23    6.72
   2  -6   2  261.58    7.21
   2  -6   2  262.53    6.88
   2  -6   2  262.07    6.74
  -2  -6  -2  252.26    6.16
  -2  -6   4  244.61    7.86
  -2  -6   4  240.17    7.07
   2   6   4  260.27    7.86
   2   6   4  255.48    8.63
   2   6   4  243.27    7.88
   2   6   4  262.45    7.32
  -2   6  -4  254.75    7.22
   2  -6  -4  249.69    6.03
  -2  -6   4  250.61    6.02
  -2   6  -4  252.13    6.16
   2   6   4  254.84    7.07
  -2  -6   4  255.97    8.61
  -2   6  -4  252.46    7.45
  -2   6  -4  246.47    6.12
   2   6   4  246.96    7.36
   2   6   4  253.17    6.13
  -2   6  -4  266.26    8.85
   2   6   4  262.60    8.57
   2   6   4  242.99    7.12
  -2   6  -4  257.76    8.07
  -2  -6   4  244.32    7.31
   2  -6   4  253.77    7.90
   2   6  -4  260.51    8.81
  -2  -6  -4  247.65    6.12
  -2   6   4  251.73    8.14
   2  -6   4  257.08    8.63
  -2   6   4  254.47    7.28
  -2   6   4  254.94    8.99
  -2   6   4  254.08    8.64
  -2   6   4  255.25    7.55
   2  -6   4  258.91    7.12
   2   6  -4  258.85    7.22
  -2   6   4  242.84    7.12
  -2   6   4  240.47    7.32
   2   6  -4  256.03    6.00
   2  -6   4  258.88    7.36
   2   6  -4  252.10    7.44
  -2   6   4  254.95    7.97
   2   6  -4  256.61    8.06
   2   6   6  148.44    3.70
  -2  -6   6  149.38    7.89
   2   6   6  140.54    6.48
  -2  -6   6  152.43    6.64
   2   6   6  137.34    5.24
   2   6   6  134.74    5.58
   2   6   6  146.80    7.76
  -2  -6   6  142.11    5.62
  -2   6  -6  143.61    3.60
  -2  -6   6  145.62    5.28
  -2   6  -6  141.00    3.74
  -2   6  -6  144.54    3.68
   2   6  -6  134.78    6.79
  -2  -6  -6  144.38    3.67
   2   6  -6  146.28    5.52
  -2   6   6  143.53    8.36
   2   6  -6  139.02    7.88
   2   6  -6  144.14    3.51
  -2   6   6  143.36    3.64
   2   6  -6  143.93    3.65
   2   6  -6  142.62    5.90
  -2   6   6  147.28    5.97
  -2   6   6  152.91    7.04
  -2   6   6  144.87    5.51
  -2   7  -1    1.27    0.13
   2  -7  -1    1.46    0.41
   2   7   1    1.56    0.15
   2   7   1    1.88    0.57
  -2   7  -1    1.29    0.15
  -2   7  -1    0.28    0.70
  -2   7  -1    1.60    0.42
  -2  -7   1    1.70    0.60
  -2   7  -1    0.90    0.53
  -2  -7   1    1.76    0.38
  -2  -7   1    1.04    0.09
  -2   7  -1    2.20    0.50
   2   7   1    1.39    0.35
   2  -7  -1    2.16    0.42
  -2  -7   1    0.89    0.33
   2  -7  -1    1.51    0.68
  -2  -7   1    1.06    0.43
   2  -7  -1    0.50    0.45
   2   7   1    1.78    0.45
  -2   7  -1    1.32    0.10
  -2   7  -1    1.01    0.12
  -2  -7   1    1.29    0.08
   2   7   1    1.65    0.35
   2  -7   1    0.78    0.55
   2   7  -1    0.94    0.38
   2   7  -1    1.08    0.08
   2  -7   1    1.15    0.11
  -2   7   1    1.18    0.12
  -2   7   1    1.17    0.14
  -2  -7  -1    1.39    0.12
   2  -7   1    1.90    0.49
   2   7  -1    1.26    0.13
   2   7  -1    0.89    0.30
   2  -7   1    2.65    0.80
  -2  -7  -1    1.19    0.28
  -2  -7  -1    1.33    0.12
   2   7  -1    1.52    0.34
  -2  -7  -1    1.45    0.34
  -2  -7  -1    1.51    0.44
  -2  -7  -1    0.65    0.51
   2   7  -1    1.31    0.10
   2   7  -1    1.49    0.54
   2  -7   1    1.57    0.41
  -2  -7   3    0.57    0.53
   2   7   3    0.65    0.96
  -2  -7   3    1.41    1.18
   2   7   3    1.66    0.75
  -2   7  -3    0.35    0.57
  -2   7  -3    1.53    1.17
  -2   7  -3    0.93    0.19
  -2  -7   3    0.26    0.67
  -2   7  -3    0.97    0.14
  -2   7  -3    1.61    0.73
  -2  -7   3    1.05    0.48
  -2   7  -3    0.82    0.17
   2   7   3    0.32    1.16
  -2  -7   3    0.82    0.09
   2   7   3    1.16    0.59
  -2   7  -3   -0.88    0.79
   2   7   3   -0.12    0.75
   2   7   3    1.07    0.16
   2   7   3   -0.03    0.56
   2   7   3    0.71    0.51
  -2   7  -3    1.02    0.15
   2   7   3    1.23    1.06
   2  -7   3    1.81    1.04
   2   7  -3    0.77    0.10
  -2   7   3    1.35    0.81
   2  -7   3   -0.09    0.38
  -2   7   3    1.40    1.05
   2  -7   3    1.52    0.72
   2  -7   3    0.99    0.55
  -2   7   3    1.46    0.68
  -2   7   3    0.38    0.48
  -2   7   3    0.93    0.58
  -2  -7  -3    0.85    0.14
  -2   7   3    0.87    0.72
  -2   7   3    1.05    1.31
  -2   7   3    1.25    1.12
  -2   7   3    0.70    0.14
   2   7  -3    0.99    0.15
  -2   7  -5   -0.64    0.94
  -2   7  -5    0.59    0.20
   2   7   5   -4.61    2.16
  -2  -7   5    2.65    2.36
   2   7   5    0.94    1.65
   2   7   5    0.45    1.05
  -2   7  -5    0.39    0.16
  -2   7  -5    2.52    2.36
  -2  -7   5    1.68    1.55
  -2  -7   5    1.53    0.98
   2   7   5   -0.58    1.64
   2   7   5    0.85    0.19
  -2  -7   5    1.79    1.21
   2   7   5   -0.95    1.16
   2   7   5    1.11    1.35
   2   7   5    1.22    1.08
  -2   7  -5    0.51    0.15
  -2   7  -5   -0.21    1.62
  -2   7  -5   -1.14    1.12
   2   7   5    3.23    2.11
  -2   7   5    3.43    2.27
   2   7  -5    0.76    0.18
  -2   7   5   -0.50    1.25
  -2   7   5    0.98    1.72
   2   7  -5    0.65    0.12
   2   7  -5    0.41    1.16
   2  -7   5    3.41    2.31
  -2   7   5    1.41    1.14
   2   7  -5    6.21    1.72
  -2   7   5    0.11    2.42
  -2   7   5   -0.58    1.23
  -2   7   5    0.52    0.17
  -2  -7  -5    0.55    0.17
   2  -7   5    0.75    1.17
   2   7  -5   -0.22    2.26
   2   7  -5   -0.05    0.92
   2  -7   5    1.29    1.55
  -2   7   5    2.04    1.71
   2  -7   5    1.55    1.01
  -2   7   5    0.72    1.15
  -2   7  -7    0.42    0.26
  -2   7  -7    0.27    0.26
  -2   7  -7    0.54    0.34
   2   7   7    0.29    0.24
   2   7  -7    0.02    0.25
  -2   7   7    0.11    0.21
  -2  -7  -7    0.48    0.26
  -2   8   0    0.57    0.40
   2   8   0    1.72    0.14
   2  -8   0    2.31    0.49
   2  -8   0    2.08    0.52
  -2   8   0    0.78    0.68
  -2  -8   0    2.23    0.71
   2   8   0    1.58    0.36
   2  -8   0    2.07    0.83
   2   8   0    1.73    0.38
  -2  -8   0    1.34    0.41
   2   8   0    0.92    0.55
  -2  -8   0    1.65    0.52
  -2   8   0    1.34    0.14
   2   8   0    1.71    0.15
   2   8   0    1.40    0.13
  -2  -8   0    1.52    0.11
  -2  -8   0    1.57    0.37
  -2   8   0    0.19    0.81
  -2   8   0    1.31    0.15
  -2   8   0    1.67    0.08
   2   8   0    1.94    0.48
   2  -8   0    2.03    0.66
   2  -8  -2   22.02    1.61
   2  -8  -2   22.90    1.23
   2   8   2   22.41    1.10
  -2   8  -2   22.28    0.69
  -2  -8   2   21.97    1.46
  -2   8  -2   22.25    0.68
   2   8   2   22.01    1.31
  -2   8  -2   21.78    1.91
  -2  -8   2   22.17    1.11
   2  -8  -2   21.19    1.33
   2  -8  -2   21.48    1.96
   2   8   2   22.39    1.19
   2   8   2   21.98    1.83
  -2   8  -2   22.09    1.29
   2   8   2   22.35    1.56
  -2   8  -2   22.54    0.64
  -2  -8   2   19.79    1.72
  -2   8  -2   23.23    1.19
   2   8   2   22.95    1.22
   2   8   2   25.18    1.74
   2   8   2   24.04    1.44
  -2   8  -2   21.48    1.56
   2   8   2   23.89    0.68
  -2   8  -2   23.11    0.64
  -2  -8   2   22.09    1.23
  -2  -8  -2   23.38    0.66
   2   8  -2   23.56    1.25
  -2   8   2   22.29    1.31
   2  -8   2   21.02    1.16
  -2   8   2   21.23    1.19
   2   8  -2   22.52    0.66
   2   8  -2   21.41    1.12
  -2   8   2   22.05    0.65
  -2   8   2   22.20    0.70
  -2  -8  -2   22.87    0.66
   2   8  -2   22.64    1.49
   2  -8   2   21.03    1.54
  -2   8   2   22.06    0.56
  -2   8   2   22.93    1.88
  -2   8   2   20.08    1.50
   2  -8   2   22.23    1.30
   2  -8   2   22.25    1.86
   2   8  -2   20.87    1.77
  -2   8  -4    4.66    0.31
   2   8   4    5.15    1.15
  -2  -8   4    5.12    1.75
  -2   8  -4    5.61    1.18
   2   8   4    4.41    0.30
  -2  -8   4    5.66    1.45
  -2  -8   4    5.01    0.23
   2   8   4    6.87    1.80
  -2   8  -4    4.61    0.28
  -2   8  -4    4.35    1.14
   2   8   4    5.55    1.09
   2   8   4    6.24    1.22
  -2   8  -4    3.68    0.39
  -2  -8   4    6.16    1.05
   2   8   4    4.01    0.96
   2   8   4    6.76    1.51
   2   8   4    7.82    1.68
  -2  -8   4    6.86    1.22
  -2   8  -4    5.34    1.49
  -2  -8   4    5.58    0.23
  -2   8  -4    6.67    1.95
   2   8   4    5.13    1.91
  -2   8   4    4.62    1.41
  -2   8   4    5.09    1.77
  -2   8   4    5.09    1.05
   2   8  -4    4.18    1.90
  -2   8   4    5.14    0.30
  -2   8   4    5.29    1.14
   2  -8   4    5.87    1.38
  -2   8   4    7.10    1.84
   2   8  -4    4.76    0.18
   2  -8   4    4.28    0.98
  -2   8   4    5.83    1.36
  -2   8   4    4.72    1.04
   2   8  -4    4.80    1.20
   2   8  -4    6.45    1.54
  -2   8   4    4.94    2.14
   2   8  -4    5.88    1.16
   2   8  -4    5.21    0.29
   2  -8   4    6.74    2.03
  -2  -8  -4    4.91    0.29
   2  -8   4    5.20    1.05
   2   8   6   10.39    2.31
  -2  -8   6    3.49    2.25
   2   8   6    8.95    1.93
  -2  -8   6    6.14    3.51
  -2  -8   6    5.04    1.50
  -2   8  -6    6.69    0.43
  -2   8  -6    7.23    0.40
   2   8   6   12.16    3.06
   2   8   6    3.74    3.17
  -2   8  -6    6.96    0.52
   2   8   6    7.35    0.46
  -2  -8   6    6.61    1.80
   2   8  -6    7.66    1.82
  -2   8   6    8.23    1.91
  -2  -8  -6    7.42    0.45
   2   8  -6    7.22    0.43
  -2   8   6    6.94    0.42
  -2   8   6    9.90    2.95
   2   8  -6    3.06    2.46
  -2   8   6    6.50    4.02
  -2   8   6    5.27    2.17
   2   8  -6    6.26    3.69
   2   8  -6    8.01    2.02
   2   8  -6    7.05    0.31
   2   9   1    4.38    0.89
  -2  -9   1    3.71    0.78
   2  -9  -1    3.95    1.03
  -2   9  -1    3.64    0.22
   2  -9  -1    5.44    1.01
  -2   9  -1    3.88    0.22
  -2  -9   1    3.81    0.13
   2  -9  -1    3.92    0.62
  -2  -9   1    2.92    0.51
   2   9   1    3.67    0.22
   2   9   1    3.11    0.66
  -2  -9   1    3.63    0.61
   2   9   1    4.25    0.61
   2  -9  -1    4.82    0.76
  -2  -9   1    4.15    0.87
   2   9   1    3.94    0.51
  -2   9  -1    3.53    0.16
  -2   9  -1    3.23    0.18
  -2  -9  -1    3.08    0.48
  -2  -9  -1    2.99    0.55
   2   9  -1    3.54    0.20
   2   9  -1    3.76    0.73
   2   9  -1    3.67    0.15
   2   9  -1    3.21    0.54
   2   9  -1    3.61    0.21
  -2  -9  -1    3.77    0.20
   2   9  -1    4.46    0.95
  -2   9   1    3.45    0.22
  -2  -9  -1    3.74    0.18
  -2  -9  -1    2.66    0.61
   2   9  -1    3.23    0.48
  -2   9   1    3.66    0.20
  -2  -9  -1    2.46    0.80
  -2   9  -3    8.25    0.32
   2   9   3    8.35    1.10
   2   9   3    8.00    1.57
  -2   9  -3    7.86    0.40
  -2   9  -3    9.97    1.89
  -2  -9   3    7.27    0.92
   2   9   3    8.16    1.76
  -2   9  -3    7.76    0.33
  -2   9  -3    7.22    1.12
  -2  -9   3    7.60    1.07
   2   9   3    6.95    1.01
   2   9   3    7.83    1.20
  -2  -9   3    6.72    1.36
   2   9   3    8.06    0.36
  -2   9  -3    7.29    1.44
   2   9   3    7.67    1.40
  -2   9  -3    7.97    0.99
  -2   9  -3    8.59    0.37
  -2  -9   3    5.68    1.50
   2   9   3    9.23    0.98
   2   9   3   10.33    1.86
  -2   9   3    9.29    1.18
   2   9  -3    9.67    1.06
  -2   9   3   10.56    1.06
   2   9  -3   11.54    1.97
  -2   9   3    7.52    0.35
   2  -9   3   10.19    1.16
  -2   9   3    8.86    2.03
   2  -9   3   11.47    2.04
  -2   9   3    8.82    1.76
  -2   9   3    9.13    1.78
  -2   9   3    8.18    1.34
   2  -9   3    6.52    1.43
   2  -9   3    8.59    0.97
   2   9  -3   11.08    1.57
  -2   9   3    8.53    1.15
  -2  -9  -3    7.28    0.40
   2   9  -3   10.26    1.21
   2   9  -3    8.41    0.35
  -2   9   3    7.55    1.45
  -2   9  -5    6.04    0.33
   2   9   5    7.78    2.39
   2   9   5    6.63    1.39
  -2  -9   5    6.29    0.29
  -2  -9   5    1.67    1.59
  -2   9  -5    7.39    1.68
  -2  -9   5    6.42    1.36
  -2   9  -5    7.67    2.20
   2   9   5    6.01    1.78
   2   9   5    4.18    2.45
  -2   9  -5    1.17    2.59
  -2  -9   5    4.76    2.65
   2   9   5    7.18    1.53
  -2  -9   5    3.88    1.09
  -2   9  -5    4.69    1.34
   2   9   5    7.40    1.49
   2   9   5    6.88    2.86
  -2   9  -5    6.18    0.36
   2   9   5    6.03    0.39
   2   9   5    8.40    1.78
  -2   9  -5    6.42    0.44
   2  -9   5    6.81    2.72
   2   9  -5   12.53    2.90
  -2   9   5    8.37    1.47
   2   9  -5    6.45    0.24
  -2   9   5    8.32    1.70
   2  -9   5    8.57    1.78
  -2   9   5    5.86    0.36
   2   9  -5    6.16    0.35
  -2   9   5    8.50    1.92
   2   9  -5    4.88    1.20
  -2   9   5    2.22    2.87
  -2  -9  -5    5.59    0.36
  -2   9   5    6.12    2.09
   2   9  -5   11.82    2.06
  -2   9   5    8.10    1.53
  -2   9   5    4.87    2.41
   2   9  -5    3.97    1.83
   2  -9   5    9.30    1.60
  -2   9   5    8.44    1.80
   2  -9   5   12.41    2.70
  -2   9  -7    1.77    0.41
  -2   9  -7    1.42    0.54
  -2   9  -7    1.54    0.30
   2   9   7    1.25    0.31
  -2   9   7    0.97    0.27
   2   9  -7    1.83    0.36
  -2  -9  -7    1.82    0.43
  -2 -10   0  323.29    8.16
  -2 -10   0  322.24    8.29
   2 -10   0  319.00    9.38
   2  10   0  319.55    8.46
  -2 -10   0  312.36    7.51
   2 -10   0  325.57    7.50
   2 -10   0  316.48    8.29
   2  10   0  306.17    7.58
  -2  10   0  313.21    7.61
  -2 -10   0  320.83    8.64
   2  10   0  316.42    8.16
   2  10   0  317.91    7.53
   2  10   0  307.73    8.02
   2 -10   0  319.78    8.46
  -2  10   0  310.16    7.49
  -2  10   0  319.78    7.58
   2  10   0  313.50    7.58
   2 -10   0  317.43    8.87
   2  10   0  322.01    8.83
  -2 -10   0  333.27    9.12
  -2  10  -2  402.52   10.72
   2  10   2  408.80    9.98
   2 -10  -2  430.01   10.79
   2  10   2  435.33   11.17
  -2 -10   2  421.80   11.67
   2 -10  -2  436.26   11.47
   2  10   2  429.69   11.64
  -2  10  -2  408.22    9.94
  -2 -10   2  422.42   11.21
   2  10   2  421.32   10.75
  -2 -10   2  425.49   10.64
  -2  10  -2  402.60    9.93
  -2  10  -2  405.29   10.01
   2  10   2  425.28   10.60
  -2  10  -2  402.43    9.98
   2 -10  -2  426.43   10.96
  -2 -10   2  424.97   10.81
  -2  10  -2  415.82   11.94
   2 -10  -2  427.89   12.04
  -2  10  -2  421.08   11.39
  -2  10  -2  404.31   10.90
   2 -10   2  396.67   11.28
   2 -10   2  419.83   11.92
  -2  10   2  411.38    9.97
  -2  10   2  413.01   11.96
   2  10  -2  442.10   11.81
  -2 -10  -2  429.97   11.24
   2 -10   2  408.24   10.89
   2  10  -2  438.60   11.25
  -2  10   2  423.41   10.79
   2 -10   2  409.63   10.72
  -2 -10  -2  409.29    9.96
  -2  10   2  393.24   10.02
  -2  10   2  433.62   11.01
   2  10  -2  431.12   10.83
  -2 -10  -2  425.75   10.82
   2  10  -2  443.05   10.69
  -2  10   2  426.04   11.46
  -2 -10  -2  427.51   10.66
  -2 -10  -2  424.11   11.72
   2  10  -2  395.70    9.97
  -2  10   2  417.40    9.86
  -2  10  -4  174.08    5.39
   2  10   4  170.27    6.21
   2  10   4  169.00    5.16
   2  10   4  160.15    5.27
  -2  10  -4  165.94    4.17
   2  10   4  161.32    5.32
   2  10   4  176.50    6.66
  -2  10  -4  167.61    4.16
   2  10   4  169.40    6.93
   2  10   4  166.86    4.19
  -2  10  -4  166.75    6.19
  -2 -10   4  176.38    6.10
  -2 -10   4  172.41    5.49
  -2  10  -4  168.52    4.25
  -2  10  -4  169.91    5.62
  -2 -10   4  173.51    5.25
   2  10   4  161.91    5.54
  -2  10  -4  165.13    6.92
  -2 -10   4  169.31    6.80
   2  10   4  170.29    5.92
  -2  10   4  167.98    6.13
  -2  10   4  168.29    6.44
  -2  10   4  162.37    6.78
   2 -10   4  170.95    5.26
  -2  10   4  172.54    5.57
  -2  10   4  167.78    4.17
  -2  10   4  172.92    7.33
  -2  10   4  162.80    5.44
   2 -10   4  167.79    6.11
   2 -10   4  175.19    6.96
  -2  10   4  163.00    5.72
   2  10  -4  166.58    4.16
   2 -10   4  172.97    5.55
  -2  10   4  173.42    5.33
  -2 -10  -4  162.73    4.17
  -2 -10   6   95.37    5.79
  -2 -10   6   88.02    7.14
  -2 -10   6   98.29    4.77
  -2  10  -6   93.32    2.42
  -2  10  -6   97.74    2.64
  -2  10  -6   95.03    2.53
   2  10   6   95.06    2.55
  -2 -10   6   92.64    4.27
  -2  10   6   96.31    2.51
  -2 -10  -6   93.05    2.52
  -2  10   6   94.52    6.23
  -2  10   6   92.64    4.55
   2  10  -6   92.35    7.22
   2  10  -6   93.10    4.53
  -2  10   6   90.40    7.57
   2  10  -6   90.32    4.94
   2  10  -6   95.87    2.52
   2  10  -6   82.44    5.86
  -2  10   6   91.67    5.01
  -2 -11   1    3.80    1.08
   2  11   1    5.10    0.95
  -2  11  -1    4.35    0.27
  -2  11  -1    4.62    0.20
  -2 -11   1    4.70    0.80
  -2  11  -1    3.93    1.20
   2 -11  -1    4.16    0.72
  -2 -11   1    5.20    0.16
  -2  11  -1    5.59    0.77
   2 -11  -1    5.66    1.12
   2  11   1    4.75    0.75
  -2 -11   1    3.81    0.66
  -2  11  -1    4.76    0.26
   2 -11  -1    4.87    1.29
   2 -11  -1    5.34    0.88
   2  11   1    5.31    0.28
   2  11   1    4.57    1.07
  -2  11  -1    5.50    1.15
  -2  11  -1    4.64    0.23
  -2  11  -1    3.95    0.86
  -2 -11   1    4.38    0.88
   2  11   1    4.66    0.64
   2  11  -1    4.08    0.69
  -2 -11  -1    4.43    1.00
  -2  11   1    5.54    0.87
  -2 -11  -1    4.75    0.27
   2  11  -1    5.16    0.26
  -2  11   1    4.27    1.15
  -2 -11  -1    4.94    0.22
  -2 -11  -1    4.98    1.18
   2 -11   1    5.69    0.96
   2  11  -1    4.41    1.02
   2  11  -1    4.89    0.18
   2 -11   1    4.37    1.31
   2 -11   1    5.29    0.82
  -2  11   1    4.78    0.25
  -2  11   1    4.98    0.16
  -2  11   1    4.01    0.88
  -2  11   1    4.69    0.74
  -2  11   1    4.84    0.27
   2  11  -1    6.48    0.66
  -2 -11  -1    5.21    0.67
   2  11  -1    4.46    0.26
  -2 -11  -1    5.94    0.80
   2 -11   1    5.29    1.15
   2  11  -1    5.76    0.94
  -2  11  -3   17.61    1.93
   2  11   3   21.10    2.17
  -2  11  -3   16.11    1.32
   2  11   3   16.59    0.60
  -2  11  -3   16.87    0.56
  -2  11  -3   17.05    1.54
  -2  11  -3   17.15    0.58
   2  11   3   16.39    1.23
  -2 -11   3   16.94    1.42
  -2 -11   3   16.46    1.75
   2  11   3   15.96    1.71
   2  11   3   17.30    1.40
  -2  11  -3   16.59    0.64
  -2  11  -3   21.46    2.51
  -2  11  -3   16.05    0.53
  -2 -11   3   15.78    1.22
  -2 -11   3   17.51    2.31
  -2  11   3   19.62    2.32
  -2  11   3   16.60    0.58
  -2 -11  -3   17.07    0.58
   2  11  -3   18.13    1.50
   2  11  -3   18.92    2.31
   2 -11   3   20.24    2.34
   2 -11   3   16.21    1.42
  -2  11   3   18.16    1.49
   2  11  -3   17.49    1.33
  -2  11   3   18.01    1.81
   2  11  -3   18.76    1.87
   2 -11   3   17.48    1.29
   2 -11   3   14.07    1.75
   2  11  -3   15.05    0.61
  -2  11   3   17.59    1.31
   2  11   5   11.82    1.74
  -2  11  -5   14.26    0.58
  -2  11  -5   12.21    2.22
   2  11   5   14.96    3.33
  -2 -11   5   11.88    2.27
   2  11   5   14.27    2.08
   2  11   5   14.23    0.61
  -2  11  -5   11.41    2.21
  -2 -11   5   17.31    3.36
  -2  11  -5   14.47    0.67
   2  11   5   15.90    2.76
   2  11   5   13.27    2.36
  -2 -11   5   13.20    2.13
  -2  11  -5   16.06    1.97
   2  11   5   19.21    2.71
  -2 -11   5   15.03    1.86
  -2  11  -5   13.76    0.51
   2  11   5   12.45    1.95
  -2  11  -5   13.93    3.21
   2  11   5   17.38    3.38
   2 -11   5   14.01    1.86
   2  11  -5   14.41    1.96
  -2  11   5   16.08    2.88
   2 -11   5   14.38    2.93
   2  11  -5   23.28    4.01
   2  11  -5   14.65    0.58
  -2  11   5   13.89    0.58
   2  11  -5   16.70    2.93
  -2  11   5   12.29    1.84
  -2  11   5   14.95    2.54
   2 -11   5   25.71    4.32
  -2  11   5   15.70    2.19
  -2  11   5    7.83    3.42
  -2  11   5   17.72    2.83
  -2  11   5   14.12    2.13
   2  11  -5   12.41    2.25
  -2 -11  -5   13.00    0.57
   2 -11   5   12.01    2.18
  -2  11   5   13.41    3.08
  -2  12   0    3.73    0.15
   2  12   0    3.26    0.24
   2  12   0    3.70    1.00
  -2  12   0    5.92    1.22
   2 -12   0    3.25    0.18
   2  12   0    3.56    0.62
  -2  12   0    3.25    0.23
  -2 -12   0    3.36    0.16
   2  12   0    3.22    0.21
   2  12   0    3.24    0.65
   2  12   0    4.10    0.85
  -2  12   0    4.17    0.76
  -2  12   0    3.26    0.23
  -2  12   0    1.50    1.07
  -2  12   0    4.95    0.91
   2 -12  -2   51.79    3.16
   2 -12  -2   50.80    2.67
   2  12   2   52.75    2.21
  -2  12  -2   53.92    1.48
  -2  12  -2   53.20    1.38
  -2  12  -2   52.46    2.21
   2  12   2   52.16    2.52
   2 -12  -2   54.61    2.19
  -2  12  -2   54.40    1.39
  -2  12  -2   53.21    2.76
  -2  12  -2   54.15    2.38
   2  12   2   52.73    2.06
  -2  12  -2   49.27    3.12
  -2  12  -2   54.52    1.44
   2 -12  -2   52.01    2.31
   2  12   2   51.92    2.88
   2  12   2   55.51    1.47
   2  12  -2   54.24    2.63
   2 -12   2   51.11    2.29
   2  12  -2   51.88    1.43
  -2  12   2   55.59    1.31
   2 -12   2   51.26    2.67
  -2  12   2   56.13    1.44
  -2  12   2   53.73    1.48
  -2  12   2   54.91    1.30
  -2 -12  -2   53.88    1.41
   2 -12   2   55.63    3.21
  -2 -12  -2   50.54    3.10
  -2 -12  -2   45.84    2.22
  -2 -12  -2   51.58    2.11
  -2  12   2   55.69    3.22
  -2  12   2   57.19    2.40
  -2  12   2   55.40    2.21
   2 -12   2   48.05    2.09
  -2 -12  -2   47.43    2.61
   2  12  -2   54.50    3.09
   2  12  -2   55.93    1.46
  -2  12   2   53.36    2.72
   2  12  -2   57.31    2.16
   2  12  -2   56.24    2.31
   2  12   4   29.38    3.28
  -2 -12   4   25.32    3.46
  -2  12  -4   30.71    0.94
   2  12   4   30.75    3.68
   2  12   4   30.84    0.98
   2  12   4   30.44    2.28
  -2  12  -4   27.92    3.60
  -2  12  -4   31.16    0.95
  -2 -12   4   31.20    2.76
  -2  12  -4   30.13    2.85
  -2  12  -4   30.40    2.30
   2  12   4   33.72    2.91
  -2  12  -4   31.57    1.04
  -2 -12   4   28.50    2.17
   2  12   4   29.41    2.04
   2  12   4   32.87    2.64
  -2  12  -4   30.35    0.89
   2  12   4   30.90    1.89
  -2 -12   4   33.57    1.97
  -2  12  -4   31.49    2.07
   2  12   4   32.33    2.12
   2 -12   4   34.77    3.43
   2 -12   4   27.42    2.14
   2  12  -4   34.61    2.82
  -2  12   4   29.58    2.57
   2  12  -4   30.72    0.95
  -2  12   4   31.01    3.44
   2 -12   4   33.15    2.73
  -2  12   4   30.08    0.95
   2 -12   4   30.88    1.93
   2  12  -4   30.69    1.99
  -2  12   4   32.14    2.30
   2  12  -4   29.42    3.55
  -2  12   4   28.89    2.26
  -2 -12  -4   31.70    0.96
  -2  12   4   31.82    3.30
   2  12  -4   31.46    2.19
  -2  12   4   30.13    2.84
  -2  12   4   30.45    4.27
  -2  12   4   29.54    2.01
  -2  12  -6   42.38    1.20
   2  12   6   40.55    1.33
  -2  12  -6   43.41    1.32
  -2  12  -6   44.24    1.44
  -2  12   6   33.58    3.97
  -2  12   6   40.63    1.29
  -2  12   6   25.72    5.12
   2  12  -6   44.86    1.32
  -2  12   6   36.40    3.48
  -2 -12  -6   42.54    1.32
  -2  12   6   33.24    6.83
  -2 -13   1    5.84    1.00
   2  13   1    4.81    1.49
   2 -13  -1    2.35    0.98
  -2 -13   1    4.60    1.40
   2  13   1    4.15    1.12
  -2 -13   1    3.91    0.14
  -2  13  -1    5.26    1.06
   2  13   1    3.11    0.71
   2 -13  -1    4.66    1.47
   2  13   1    2.59    0.78
  -2 -13   1    3.71    0.82
  -2  13  -1    2.40    1.00
  -2  13  -1    3.13    1.38
  -2  13  -1    3.10    0.70
   2 -13  -1    4.02    0.89
  -2  13  -1    3.45    0.25
  -2  13  -1    3.70    0.28
   2  13   1    3.35    0.27
   2  13   1    3.29    0.22
  -2 -13   1    6.60    1.31
   2 -13  -1    4.03    0.84
  -2  13  -1    3.65    0.19
  -2  13   1    6.28    1.47
  -2  13   1    3.57    0.26
  -2  13   1    4.65    0.85
   2 -13   1    3.66    0.75
  -2 -13  -1    4.33    0.85
  -2 -13  -1    3.84    0.74
   2 -13   1    3.79    0.86
  -2 -13  -1    3.93    1.06
   2 -13   1    3.65    1.03
   2  13  -1    2.98    1.12
   2  13  -1    3.77    0.69
   2  13  -1    2.42    0.74
  -2 -13  -1    3.59    0.20
   2 -13   1    5.14    1.50
  -2  13   1    3.95    0.25
   2  13  -1    3.61    0.24
  -2  13   1    5.76    1.27
  -2  13   1    4.70    1.02
  -2  13   1    3.85    0.16
   2  13  -1    4.60    0.84
   2  13  -1    3.82    0.17
   2  13  -1    4.43    0.28
  -2 -13  -1    4.93    1.31
  -2  13  -3   18.84    0.62
   2  13   3   19.48    2.40
   2  13   3   21.51    1.65
   2 -13  -3   18.34    2.15
  -2 -13   3   18.23    2.00
   2 -13  -3   20.52    2.80
  -2  13  -3   19.55    0.65
  -2  13  -3   13.92    2.58
  -2 -13   3   19.93    1.63
   2  13   3   20.08    1.39
   2 -13  -3   21.03    1.77
   2  13   3   18.99    1.86
   2  13   3   18.37    1.91
  -2 -13   3   19.54    1.44
  -2 -13   3   20.07    2.60
   2  13   3   19.28    0.69
   2  13   3   17.81    1.52
  -2  13  -3   19.49    1.52
  -2  13  -3   18.08    1.67
   2 -13  -3   17.96    1.50
  -2  13  -3   19.83    2.18
   2  13   3   25.02    2.58
  -2  13  -3   18.41    0.60
   2  13   3   17.28    3.01
  -2  13   3   19.91    2.11
  -2  13   3   19.12    2.64
   2  13  -3   20.14    1.65
   2 -13   3   21.52    2.05
  -2  13   3   21.98    1.55
  -2 -13  -3   19.46    0.64
   2  13  -3   19.01    0.66
   2  13  -3   19.14    2.03
   2  13  -3   19.23    0.69
   2 -13   3   22.00    2.70
   2  13  -3   23.86    2.57
   2  13  -3   20.14    1.46
   2 -13   3   18.51    1.60
  -2  13   3   18.83    0.66
  -2  13   3   18.01    1.67
   2 -13   3   20.16    1.45
   2  13   5   15.61    2.39
   2  13   5   15.89    2.97
  -2 -13   5   15.52    3.51
  -2 -13   5   18.87    2.37
   2  13   5   15.25    3.16
  -2  13  -5   14.33    3.13
   2  13   5   16.66    2.05
   2  13   5   21.10    2.08
   2  13   5   16.17    3.21
  -2  13  -5   14.81    3.49
  -2  13  -5   16.81    0.66
   2  13   5   16.52    2.34
   2  13   5   26.56    4.66
  -2  13  -5   16.09    0.75
   2  13   5   16.50    0.70
  -2  13  -5   15.26    2.10
  -2  13  -5   16.25    2.46
  -2  13  -5   16.18    0.58
  -2 -13   5   16.52    1.98
  -2 -13   5   14.90    3.04
  -2  13   5   18.66    2.82
   2  13  -5   19.18    3.76
  -2  13   5   18.65    3.29
   2 -13   5   15.90    2.05
  -2  13   5   20.19    2.59
  -2 -13  -5   16.31    0.66
   2  13  -5   15.06    2.11
   2  13  -5   14.30    2.45
   2 -13   5   16.12    2.47
   2  13  -5   15.06    3.27
   2 -13   5   16.02    3.18
  -2  13   5   18.28    2.44
  -2  13   5   25.23    3.84
   2  13  -5   17.01    0.66
   2 -13   5   22.45    4.41
  -2  13   5   27.14    5.33
  -2  13   5   18.33    3.55
  -2  13   5   17.95    2.21
  -2  13   5   16.54    0.66
   2 -14   0   10.53    2.06
   2 -14   0   11.20    1.58
  -2 -14   0   10.25    1.21
  -2 -14   0    9.76    2.03
  -2  14   0   12.56    1.13
  -2 -14   0   10.59    1.53
   2 -14   0   10.82    1.22
  -2  14   0    9.13    1.52
  -2  14   0   12.36    2.01
   2  14   0   11.47    0.47
  -2  14   0   11.80    0.46
   2  14   0   11.43    0.43
  -2 -14   0    9.96    1.05
  -2 -14   0   11.90    0.36
  -2  14   0   10.34    1.23
   2 -14   0    9.84    1.05
  -2  14   0   11.88    0.35
  -2  14   0   11.46    0.46
   2  14   2    0.06    0.90
   2 -14  -2    0.48    0.95
   2  14   2    2.31    1.30
  -2  14  -2    0.70    0.14
  -2  14  -2    2.62    1.47
   2  14   2    0.41    0.16
   2 -14  -2   -0.44    0.53
  -2  14  -2    0.59    0.19
   2 -14  -2    0.10    0.68
  -2  14  -2    0.34    0.12
   2  14   2    0.57    0.67
  -2  14  -2    1.32    0.82
  -2 -14   2    0.38    1.28
  -2  14  -2    0.31    0.13
  -2 -14   2    0.12    0.53
  -2  14  -2    0.08    0.64
   2  14   2    0.37    0.53
  -2 -14   2    0.59    0.90
   2 -14  -2    0.01    1.46
  -2  14  -2    1.20    1.07
  -2 -14   2    0.75    0.70
   2  14  -2    0.99    0.19
   2 -14   2    1.18    0.74
  -2 -14  -2    2.92    0.84
  -2  14   2    0.80    1.38
  -2  14   2    0.56    0.16
  -2 -14  -2    1.52    0.65
   2  14  -2    0.26    0.14
   2  14  -2    1.51    1.32
  -2  14   2    0.61    0.13
  -2  14   2    1.90    1.09
   2  14  -2   -0.18    0.86
   2 -14   2    1.07    1.13
  -2  14   2    0.56    0.59
  -2 -14  -2    0.41    0.12
  -2 -14  -2    2.92    1.07
  -2 -14  -2    3.03    1.37
  -2  14   2    1.05    0.18
   2  14  -2    1.74    0.72
   2 -14   2    0.65    0.83
  -2  14   2    1.52    0.75
   2 -14   2   -0.95    1.38
   2  14  -2    0.29    0.54
  -2 -14   4   11.07    2.40
   2  14   4   14.01    2.26
   2  14   4   16.19    2.07
   2  14   4   15.32    1.62
  -2  14  -4   15.95    2.15
  -2 -14   4   22.53    3.30
  -2  14  -4   15.02    1.84
  -2 -14   4   14.68    1.86
   2  14   4   13.43    2.71
  -2  14  -4   15.20    0.52
  -2  14  -4   13.79    0.67
   2  14   4   13.61    1.73
  -2  14  -4   16.47    3.10
   2  14   4   12.67    2.63
   2  14   4   13.72    1.86
   2  14   4   15.14    0.63
  -2 -14   4   17.37    1.67
   2  14   4   20.33    3.68
  -2  14  -4   17.17    2.76
  -2  14  -4   15.08    0.57
  -2  14   4   15.55    0.61
   2  14  -4   15.99    0.66
   2 -14   4   14.16    2.89
   2 -14   4   15.96    1.76
  -2  14   4   18.24    2.91
   2  14  -4   15.47    0.60
   2 -14   4   15.87    2.06
  -2  14   4   15.68    3.42
   2  14  -4   19.79    2.57
  -2  14   4   12.56    1.92
  -2  14   4   15.18    1.98
   2  14  -4   15.80    1.73
  -2  14   4   13.24    1.69
  -2 -14  -4   15.40    0.59
  -2  14   4   13.42    2.46
   2  14  -4   17.18    3.25
  -2  14   4   18.11    3.34
   2 -14   4   17.07    2.70
  -2  14   4   17.12    2.33
   2  14  -4   15.84    1.94
  -2  14  -6   19.33    0.90
   2  14   6   17.99    0.81
  -2  14  -6   19.82    0.78
  -2  14  -6   19.79    0.68
  -2  14   6   17.73    0.76
  -2  14   6   26.18    3.33
  -2  14   6   22.61    4.12
  -2  14   6   17.76    3.05
  -2  14   6   13.11    5.38
   2  14  -6   18.89    0.77
  -2 -14  -6   19.59    0.79
   2  15   1    3.81    0.92
  -2  15  -1    2.90    0.28
  -2 -15   1    2.73    1.48
   2  15   1    2.39    0.26
  -2  15  -1    2.76    0.76
  -2  15  -1    2.84    0.87
  -2 -15   1    2.45    0.12
   2 -15  -1    2.10    0.72
  -2  15  -1    2.72    0.24
   2 -15  -1    1.31    0.81
  -2 -15   1    1.21    0.83
  -2  15  -1    3.35    1.59
   2 -15  -1    2.86    1.64
   2  15   1    2.31    0.20
  -2 -15   1    2.88    0.79
   2 -15  -1    0.73    1.01
   2  15   1    1.25    1.24
  -2  15  -1    2.39    0.17
   2  15   1    3.23    0.79
   2  15   1    4.48    1.14
  -2  15  -1    1.63    1.02
  -2 -15   1    6.00    1.36
  -2  15   1    2.16    0.15
   2  15  -1    2.47    0.90
  -2  15   1    2.15    0.24
  -2  15   1    2.10    0.75
  -2  15   1   -0.97    1.21
  -2 -15  -1    2.43    0.65
   2 -15   1    1.65    1.54
   2  15  -1    2.54    0.15
   2 -15   1    1.13    0.78
  -2 -15  -1    1.22    0.72
  -2  15   1    1.25    0.62
   2  15  -1    2.03    0.67
   2  15  -1    3.68    1.35
   2 -15   1    1.50    1.05
   2  15  -1    2.07    0.25
   2  15  -1    3.89    0.82
  -2 -15  -1    1.32    1.32
   2  15  -1    2.20    0.21
  -2 -15  -1    2.56    0.18
   2 -15   1    2.04    0.72
  -2  15   1    2.78    1.00
  -2 -15  -1    2.63    1.08
  -2  15   1    1.94    0.23
   2 -15  -3   11.30    2.49
  -2 -15   3   13.17    1.58
  -2  15  -3   11.44    0.56
   2 -15  -3   10.41    1.81
  -2 -15   3   12.78    2.01
  -2  15  -3   11.36    0.47
  -2  15  -3   12.47    2.22
  -2 -15   3   10.88    1.35
   2  15   3   13.42    1.87
  -2  15  -3   11.18    1.72
  -2  15  -3   14.08    1.56
  -2  15  -3   11.01    0.42
   2 -15  -3    9.51    1.55
  -2  15  -3   10.64    0.44
   2 -15  -3   10.95    2.14
   2  15   3    8.93    1.93
   2  15   3   12.47    1.48
  -2  15  -3    9.90    2.30
   2  15   3   10.27    1.26
  -2 -15   3    8.83    2.21
   2  15  -3   11.18    0.53
  -2  15   3   12.03    2.06
   2  15  -3   13.11    2.74
  -2  15   3    9.58    2.23
   2 -15   3   13.10    2.09
   2  15  -3   11.03    0.48
   2 -15   3   10.03    1.59
   2 -15   3   12.22    1.38
   2  15  -3   11.52    1.97
   2  15  -3   12.11    1.56
   2  15  -3   10.37    1.32
  -2 -15  -3   11.56    0.47
   2 -15   3   10.43    2.33
  -2  15   3    8.69    1.55
  -2  15   3   11.23    0.48
  -2  15   3   10.41    1.37
  -2  15   3   11.43    0.52
   2  15   5   12.34    3.34
   2  15   5   10.36    2.06
  -2 -15   5    5.69    2.28
  -2  15  -5    8.87    0.60
  -2 -15   5   12.13    3.43
  -2  15  -5    9.23    0.42
   2  15   5   12.54    2.49
  -2  15  -5    9.63    0.48
   2  15   5    8.65    0.53
   2  15   5   16.31    3.22
  -2 -15   5   13.60    2.06
  -2 -15   5    6.73    1.74
   2  15  -5    7.97    1.97
  -2 -15  -5    9.99    0.51
   2  15  -5    8.98    0.57
  -2  15   5    7.99    2.85
   2  15  -5   11.23    2.22
   2  15  -5   10.19    0.51
  -2  15   5    9.82    2.34
  -2  15   5    9.94    2.06
  -2  15   5    8.62    0.49
   2  15  -5    7.37    2.45
   2  15  -5   11.52    3.49
  -2  15   5    1.64    3.92
   2 -16   0  275.75    8.04
   2  16   0  291.49    8.00
   2  16   0  284.59    8.44
   2  16   0  287.11    7.02
  -2  16   0  276.42    6.99
   2 -16   0  283.94    9.65
   2 -16   0  279.73    8.30
  -2  16   0  290.95    9.56
  -2 -16   0  301.93    8.02
   2 -16   0  284.70    8.91
  -2 -16   0  286.16    6.86
  -2 -16   0  304.70    9.56
  -2  16   0  291.71    6.87
   2  16   0  292.97    9.07
  -2  16   0  277.07    7.00
  -2 -16   0  298.24    8.24
  -2  16   0  290.07    8.27
   2  16   0  293.62    7.79
  -2  16   0  294.13    8.05
  -2 -16   0  300.29    8.82
  -2  16   0  288.91    8.84
  -2  16  -2  122.92    4.49
  -2 -16   2  117.46    4.79
  -2  16  -2  124.50    4.27
  -2 -16   2  125.57    5.60
   2  16   2  140.45    4.94
  -2 -16   2  124.64    4.14
   2  16   2  134.43    4.13
  -2  16  -2  128.18    3.18
  -2  16  -2  122.14    5.02
   2 -16  -2  122.80    4.47
  -2  16  -2  125.44    5.78
  -2  16  -2  126.73    3.12
  -2 -16   2  126.96    4.39
   2 -16  -2  127.26    4.29
   2  16   2  132.81    4.34
   2  16   2  125.02    5.42
   2 -16  -2  114.53    4.94
   2  16   2  128.32    3.25
   2 -16  -2  127.91    5.85
   2  16  -2  128.17    4.31
   2 -16   2  130.01    4.31
  -2 -16  -2  110.10    3.30
  -2 -16  -2  123.12    4.85
   2 -16   2  131.67    4.57
   2 -16   2  132.32    5.18
  -2  16   2  130.36    3.05
  -2 -16  -2  130.95    4.39
   2  16  -2  135.99    5.48
   2  16  -2  129.73    3.24
  -2  16   2  124.00    5.68
  -2 -16  -2  123.79    5.47
  -2  16   2  125.48    5.01
   2 -16   2  129.11    5.89
  -2  16   2  128.29    3.23
  -2 -16  -2  123.86    4.12
   2  16  -2  129.88    4.11
  -2  16   2  126.14    4.46
  -2  16   2  115.84    3.26
  -2  16   2  122.15    4.20
   2  16  -2  126.47    4.78
   2  16  -2  124.33    3.18
   2  16   4  116.50    5.71
  -2  16  -4  121.46    4.59
   2  16   4  122.60    6.73
   2  16   4  131.50    6.24
  -2 -16   4  119.96    4.69
  -2  16  -4  123.50    3.02
  -2  16  -4  123.63    3.10
  -2  16  -4  117.22    4.85
   2  16   4  123.08    3.17
  -2 -16   4  125.43    4.43
  -2 -16   4  121.26    5.43
  -2  16  -4  124.36    3.25
  -2  16  -4  128.05    6.82
  -2  16  -4  110.06    3.15
  -2 -16   4  121.31    6.24
   2  16   4  126.57    5.32
  -2  16  -4  112.69    5.58
   2  16   4  116.51    4.56
   2  16   4  124.49    4.35
   2  16   4  123.87    4.65
   2  16   4  114.66    4.87
   2  16  -4  115.94    5.42
   2  16  -4  119.70    3.20
  -2  16   4  127.41    4.58
  -2  16   4  121.07    6.06
   2 -16   4  122.80    4.81
   2 -16   4  122.38    4.50
  -2  16   4  118.15    7.08
   2 -16   4  120.20    5.49
  -2  16   4  123.95    5.63
  -2  16   4  122.89    6.61
   2  16  -4  132.16    6.44
   2  16  -4  118.97    4.75
   2  16  -4  119.91    4.48
  -2  16   4  128.31    4.92
  -2  16   4  122.65    3.14
  -2  16   4  124.46    4.81
   2  16  -4  118.12    3.13
   2 -16   4  118.62    6.51
  -2  16   4  120.83    5.18
  -2 -16  -4  121.53    3.12
  -2  16  -6   59.61    1.95
   2  16   6   63.19    1.88
  -2  16  -6   59.79    1.67
  -2  16  -6   61.61    1.83
  -2  16   6   67.51    1.85
   2  16  -6   61.93    1.83
  -2  16   6   66.90    7.09
  -2 -16  -6   60.44    1.83
  -2  16   6   62.16    9.05
   2  16  -6   61.24    1.93
  -2  16   6   66.76    6.03
  -2  16   6   77.59   14.75
   2  17   1    1.89    0.83
  -2  17  -1    2.80    0.85
  -2 -17   1    1.49    0.12
   2 -17  -1    2.85    1.89
  -2 -17   1    1.53    0.70
   2  17   1    1.13    0.24
   2  17   1    0.93    0.18
  -2  17  -1    1.38    0.22
  -2 -17   1    1.56    1.07
   2 -17  -1    4.17    1.51
  -2 -17   1    1.90    1.74
   2 -17  -1    2.36    1.11
   2  17   1    3.39    1.59
  -2  17  -1    0.44    0.88
   2 -17  -1    1.50    0.92
  -2  17  -1    1.47    0.16
  -2  17  -1   -1.76    1.55
  -2  17  -1    3.21    1.28
  -2  17  -1    1.43    0.26
  -2 -17   1    1.10    0.81
   2  17   1    1.12    0.90
   2  17   1    2.20    1.20
  -2  17   1    1.15    0.15
  -2 -17  -1    1.44    0.18
   2 -17   1    3.27    1.51
   2  17  -1    2.30    0.69
   2  17  -1    1.11    0.74
  -2 -17  -1    0.20    1.17
  -2  17   1    0.82    0.83
   2 -17   1   -0.58    1.70
  -2  17   1    0.68    1.52
  -2  17   1    0.83    1.13
   2 -17   1    3.12    1.12
  -2 -17  -1    1.91    0.90
   2  17  -1    1.70    0.20
  -2  17   1    1.27    0.24
   2  17  -1    1.40    0.28
  -2  17   1    2.38    0.77
   2  17  -1    1.43    0.97
  -2  17   1    1.46    0.20
   2  17  -1    0.08    1.45
  -2 -17  -1    1.53    0.73
   2  17  -1    1.51    0.16
  -2 -17  -1   -0.06    1.56
   2 -17   1    0.92    0.88
   2  17   3    4.81    1.49
   2 -17  -3    2.50    2.39
   2  17   3    2.01    1.12
  -2  17  -3    4.27    1.24
  -2  17  -3    2.86    1.34
   2  17   3    1.76    1.86
  -2  17  -3    2.98    0.30
  -2 -17   3    3.64    1.28
  -2  17  -3    3.57    0.26
  -2  17  -3    6.38    2.59
   2  17   3    3.18    1.00
   2  17   3    3.53    0.37
   2 -17  -3    5.87    1.48
  -2  17  -3    0.35    1.59
  -2 -17   3    2.53    1.64
   2 -17  -3    2.97    1.10
  -2 -17   3    3.75    1.06
  -2 -17   3    3.09    2.07
  -2  17  -3    2.94    0.37
   2 -17  -3    3.32    1.81
  -2 -17  -3    3.32    1.69
   2 -17   3    3.78    1.03
  -2  17   3    2.89    1.38
  -2 -17  -3    3.52    1.27
  -2 -17  -3    2.96    0.27
   2  17  -3    3.54    3.49
  -2  17   3    3.34    0.32
  -2 -17  -3    6.10    1.21
   2 -17   3    4.28    1.22
   2  17  -3    1.60    2.39
  -2  17   3    3.10    0.22
  -2  17   3    5.25    1.86
   2  17  -3    2.96    0.35
   2 -17   3    2.53    2.28
   2  17  -3    3.36    0.29
   2 -17   3    0.80    1.45
  -2  17   3    5.17    1.28
   2  17  -3    2.18    1.31
  -2  17   3    0.36    2.07
   2  17  -3    5.22    1.61
  -2 -17  -3    6.56    2.37
  -2  17   3    3.37    0.31
  -2 -17   5    6.23    3.00
  -2  17  -5    2.27    0.47
  -2 -17   5    2.12    2.15
  -2 -17   5    0.13    3.58
  -2  17  -5    2.56    0.30
  -2 -17   5    2.76    1.82
  -2  17  -5    2.87    0.32
   2  17   5    2.54    0.39
   2  17  -5    1.54    2.06
   2  17  -5   -3.13    2.92
  -2  17   5    3.44    2.51
   2  17  -5    2.39    0.43
   2  17  -5   12.26    4.20
  -2  17   5    4.51    2.09
  -2  17   5   -2.04    4.20
  -2  17   5    2.07    0.35
   2  17  -5    2.01    0.34
  -2 -17  -5    2.89    0.35
  -2  17   5    2.31    3.37
   2  17  -5    3.96    2.46
  -2 -18   0   59.89    1.50
   2 -18   0   56.65    2.92
  -2 -18   0   63.15    3.47
   2 -18   0   58.83    4.18
   2 -18   0   55.55    2.68
  -2 -18   0   64.38    4.15
   2  18   0   61.23    2.47
  -2  18   0   59.71    2.64
   2  18   0   57.35    1.67
  -2  18   0   61.36    3.38
   2 -18   0   59.31    3.52
  -2 -18   0   57.32    2.85
   2  18   0   56.48    1.60
   2  18   0   62.04    2.68
  -2  18   0   63.13    2.90
   2  18   0   59.02    3.07
  -2 -18   0   61.87    2.68
  -2  18   0   57.18    4.01
   2  18   0   55.54    3.53
  -2  18   0   60.12    1.51
   2 -18  -2    8.20    1.74
  -2  18  -2   14.36    2.67
   2  18   2   13.74    2.70
   2 -18  -2    6.98    2.39
   2  18   2   12.07    1.54
   2  18   2   10.25    1.31
  -2 -18   2   12.44    1.77
  -2 -18   2    9.90    1.47
  -2  18  -2   10.64    0.54
  -2 -18   2    7.87    2.39
  -2  18  -2   14.16    1.55
  -2  18  -2   11.19    0.49
  -2  18  -2   11.93    2.13
  -2 -18   2   11.75    2.14
   2 -18  -2   11.05    1.70
  -2  18  -2   11.71    1.76
   2  18   2   10.89    1.94
   2 -18  -2   10.54    1.47
   2  18   2   10.60    0.46
  -2  18   2   10.49    0.49
  -2  18   2   10.99    0.38
  -2 -18  -2   11.07    0.45
  -2 -18  -2    9.82    2.05
  -2  18   2   10.51    1.43
   2 -18   2   10.97    1.51
   2 -18   2    9.41    1.74
  -2 -18  -2   13.29    2.80
  -2  18   2   11.09    0.50
  -2  18   2   13.76    2.22
   2  18  -2   11.12    0.57
   2  18  -2   11.43    1.36
   2  18  -2    9.85    1.78
   2 -18   2    9.53    1.91
  -2 -18  -2   11.31    1.65
  -2 -18  -2   11.13    1.38
   2  18  -2   11.07    0.48
  -2  18   2   14.06    2.52
  -2  18   2   10.84    1.67
   2  18  -2    9.38    2.18
   2 -18   2    8.37    2.56
   2  18  -2   14.43    1.64
  -2  18  -4   29.86    0.86
  -2 -18   4   30.57    3.52
   2  18   4   27.09    2.90
   2  18   4   17.53    3.69
  -2 -18   4   25.63    4.60
  -2 -18   4   33.44    2.82
   2  18   4   25.25    2.49
  -2  18  -4   29.26    0.93
  -2  18  -4   25.36    4.98
   2  18   4   30.11    3.14
  -2 -18   4   26.82    2.40
  -2  18  -4   29.55    0.94
   2  18   4   21.03    3.67
  -2  18  -4   26.86    2.87
   2  18   4   27.95    1.00
   2  18   4   30.05    2.51
  -2  18  -4   30.06    1.08
  -2  18  -4   28.67    2.55
   2  18   4   30.25    2.24
   2  18   4   32.42    5.10
  -2  18  -4   27.66    3.70
   2 -18   4   26.12    4.58
   2  18  -4   24.92    3.41
  -2  18   4   32.16    3.51
   2  18  -4   28.92    1.05
   2 -18   4   25.95    2.74
  -2  18   4   28.88    0.98
  -2  18   4   28.75    2.39
  -2 -18  -4   29.61    0.96
   2  18  -4   28.31    0.97
  -2  18   4   23.26    4.51
   2 -18   4   30.73    2.41
  -2  18   4   31.53    2.77
   2  18  -4   25.85    4.59
   2  18  -4   28.21    2.36
   2  18  -4   29.50    2.70
   2 -18   4   31.30    3.59
  -2  18  -6   19.68    0.83
  -2  18  -6   19.12    0.70
  -2  18  -6   20.84    0.99
   2  18   6   18.47    0.88
  -2  18   6   19.28    0.83
   2  18  -6   19.38    0.96
   2  18  -6   20.15    0.85
  -2 -18  -6   16.00    0.87
  -2  19  -1    3.99    1.16
   2  19   1    4.04    1.01
  -2 -19   1    2.65    0.84
   2  19   1    2.17    1.31
   2  19   1    3.54    0.35
  -2  19  -1    2.72    0.33
  -2 -19   1    3.02    1.23
  -2  19  -1    2.10    0.92
   2  19   1    3.23    1.81
   2  19   1    3.02    0.27
  -2  19  -1    3.08    0.22
   2 -19  -1    3.12    1.19
   2 -19  -1    4.93    1.96
   2 -19  -1    2.05    2.29
  -2  19  -1    8.34    2.35
  -2 -19   1    3.35    1.01
  -2 -19   1    6.59    2.11
  -2 -19   1    3.69    0.17
   2 -19  -1    4.29    1.51
  -2  19  -1    3.52    1.50
  -2  19  -1    2.71    0.34
   2  19   1    4.93    1.16
   2 -19   1    2.81    0.97
   2  19  -1    2.72    0.34
  -2 -19  -1    3.19    1.21
  -2  19   1    3.80    0.30
   2  19  -1    3.23    1.38
  -2  19   1    3.59    0.33
  -2  19   1    5.06    1.43
  -2  19   1    4.11    1.18
  -2  19   1    2.82    1.71
   2  19  -1    4.58    0.99
  -2 -19  -1    2.49    1.99
  -2 -19  -1    4.12    1.02
  -2 -19  -1    3.89    1.59
   2  19  -1    3.38    0.22
   2  19  -1    3.19    0.26
  -2  19   1    3.86    2.09
   2  19  -1    1.64    1.74
   2 -19   1    4.14    1.51
  -2  19   1    3.00    0.21
   2 -19   1    3.26    2.34
  -2 -19  -1    3.40    0.24
   2 -19   1    1.19    1.07
   2  19  -1    2.77    1.02
  -2  19  -3    1.29    1.89
   2 -19  -3   -0.08    1.49
  -2 -19   3    2.54    2.42
  -2 -19   3    0.00    0.98
   2  19   3    0.63    1.07
  -2  19  -3    0.94    0.28
  -2  19  -3    1.48    1.15
  -2  19  -3    1.78    2.61
  -2  19  -3   -0.33    1.31
   2  19   3    1.12    1.54
   2 -19  -3   -0.72    1.18
   2  19   3    0.78    0.27
  -2 -19   3    0.12    1.17
  -2  19  -3    1.20    0.22
   2  19   3    1.09    0.90
   2 -19  -3    3.88    2.89
  -2 -19   3   -0.23    1.59
   2 -19  -3    0.65    2.00
   2  19   3    0.24    2.16
   2 -19   3    2.23    1.14
   2  19  -3    0.46    0.24
  -2 -19  -3    0.95    1.82
   2  19  -3    1.23    0.27
   2 -19   3   -0.09    1.36
  -2  19   3    3.10    2.06
  -2  19   3    0.67    1.48
  -2  19   3    0.68    0.21
   2 -19   3    0.09    1.74
   2  19  -3   -0.69    1.73
   2  19  -3    2.43    1.39
  -2  19   3    0.58    0.19
  -2  19   3    0.91    2.53
  -2 -19  -3    0.90    0.21
  -2  19   3    0.64    0.21
   2  19  -3    0.40    1.09
  -2 -19  -3   -0.15    1.39
   2  19  -3    0.32    2.33
  -2 -19  -3    0.12    1.11
  -2  19   3    0.12    1.21
  -2 -19  -3   -1.07    2.39
   2 -19   3   -0.70    2.62
  -2  19  -5    0.26    0.20
   2  19   5   -0.05    0.27
  -2  19  -5   -0.16    0.21
  -2  19  -5    0.08    0.33
  -2  19   5   -0.74    4.65
  -2  19   5    1.86    3.53
  -2 -19  -5   -0.17    0.22
   2  19  -5   -0.17    0.28
  -2  19   5   -0.52    2.14
  -2  19   5   -0.09    0.22
  -2  19   5    0.90    2.68
   2  19  -5    0.02    0.23
   2  20   0   10.13    1.96
   2 -20   0   10.26    2.19
   2  20   0    8.44    1.34
   2 -20   0   12.41    2.72
  -2  20   0    8.75    0.33
   2  20   0    5.70    2.11
  -2  20   0    9.81    2.46
   2  20   0    6.93    0.38
   2 -20   0   10.67    1.80
  -2  20   0    7.76    0.41
  -2 -20   0   11.84    1.54
  -2 -20   0   10.05    2.61
  -2 -20   0    9.73    1.76
  -2  20   0    6.67    1.68
  -2 -20   0   11.78    2.12
  -2 -20   0    7.81    0.31
  -2  20   0    8.20    0.46
  -2  20   0    8.47    1.42
   2 -20   0    8.13    1.61
   2  20   0    9.59    1.55
  -2  20   0    7.18    1.42
   2  20   2   41.18    2.32
  -2  20  -2   42.68    2.53
   2  20   2   38.89    1.30
  -2  20  -2   40.52    2.81
  -2  20  -2   39.48    4.31
  -2 -20   2   41.02    4.33
   2 -20  -2   45.33    4.49
  -2 -20   2   40.05    2.43
  -2 -20   2   43.54    3.40
   2  20   2   40.32    1.20
   2  20   2   44.48    2.60
   2  20   2   40.17    3.11
   2 -20  -2   46.22    2.86
   2  20   2   40.54    3.96
  -2  20  -2   41.95    1.16
   2 -20  -2   43.43    3.47
  -2  20  -2   35.63    3.27
  -2  20  -2   41.22    1.32
   2 -20  -2   36.88    2.44
  -2 -20   2   42.65    2.75
  -2 -20  -2   41.23    1.18
  -2 -20  -2   45.38    2.72
  -2 -20  -2   36.60    2.31
  -2 -20  -2   42.22    4.17
  -2  20   2   38.95    1.25
   2  20  -2   43.43    1.34
  -2  20   2   40.35    4.09
  -2  20   2   40.56    1.09
   2 -20   2   45.44    2.96
  -2  20   2   40.90    2.45
   2 -20   2   49.01    2.70
  -2  20   2   37.53    3.21
   2 -20   2   46.86    3.69
  -2  20   2   40.33    1.26
  -2 -20  -2   39.68    3.19
  -2  20   2   43.28    2.74
   2 -20   2   48.64    4.66
   2  20  -2   41.39    1.22
   2  20   4    6.58    1.95
   2  20   4   10.56    2.66
  -2 -20   4    5.55    1.41
  -2  20  -4   10.48    0.51
  -2 -20   4    7.67    1.73
  -2  20  -4   11.49    0.67
   2  20   4    8.72    3.17
   2  20   4    9.58    1.78
   2  20   4    8.20    0.56
  -2 -20   4    5.63    2.24
  -2 -20   4    5.43    3.23
   2  20  -4    8.62    1.87
   2  20  -4    9.98    0.53
  -2 -20  -4   10.85    0.52
   2  20  -4   12.05    3.73
   2  20  -4   10.52    2.21
  -2  20   4    8.65    0.40
   2 -20   4   11.37    4.37
   2 -20   4    1.84    2.90
   2  20  -4   10.42    0.63
   2 -20   4    5.15    2.02
  -2  20   4    8.63    0.51
   2  20  -4    6.30    2.29
  -2  20   4    8.38    0.54
   2 -21  -1    8.12    2.20
   2  21   1    5.07    0.42
   2  21   1    5.17    1.54
  -2  21  -1    5.35    0.36
  -2 -21   1    3.86    1.28
  -2 -21   1    6.87    1.49
  -2  21  -1    5.58    1.61
   2 -21  -1    5.24    1.41
  -2 -21   1    5.37    2.43
  -2  21  -1    4.87    0.30
  -2 -21   1    5.15    0.22
  -2  21  -1    6.72    1.46
   2 -21  -1    4.20    2.77
   2  21   1    5.07    0.33
   2  21   1    7.70    1.39
   2 -21  -1    3.52    1.53
   2  21   1    4.43    1.24
   2  21   1    1.70    2.00
  -2  21  -1    5.76    2.01
  -2 -21   1    6.15    1.66
  -2  21  -1    3.34    2.41
  -2  21  -1    5.51    0.41
  -2 -21  -1    4.91    1.20
   2  21  -1    4.37    1.15
   2 -21   1    5.90    1.73
  -2  21   1    5.13    1.15
   2  21  -1    5.20    0.44
  -2 -21  -1    4.79    0.31
   2  21  -1    6.41    1.37
  -2  21   1    5.10    0.36
   2  21  -1    8.68    1.95
  -2  21   1    5.27    1.36
  -2  21   1    5.31    0.27
  -2  21   1    5.42    0.39
   2 -21   1    3.28    2.64
   2  21  -1    3.64    2.23
   2 -21   1    4.62    2.21
  -2  21   1    4.02    1.58
  -2 -21  -1    5.31    1.42
   2  21  -1    5.38    0.26
  -2  21   1    2.13    2.29
   2  21  -1    5.11    0.33
  -2 -21  -1    6.22    1.86
   2 -21   1    5.82    1.46
  -2 -21  -1    9.91    2.73
   2 -21  -3   11.14    3.62
   2  21   3    2.46    0.41
  -2 -21   3    2.46    1.23
  -2  21  -3    6.31    1.69
  -2  21  -3    2.71    0.32
   2  21   3   -1.26    2.52
   2 -21  -3    4.88    2.07
   2  21   3    2.85    1.77
   2 -21  -3    6.38    2.76
  -2 -21   3    4.65    1.58
  -2  21  -3    3.60    2.41
  -2  21  -3    2.59    3.22
  -2 -21   3    3.80    2.86
  -2 -21   3    1.76    1.84
  -2  21  -3    2.98    0.29
   2  21   3    0.37    1.11
   2  21   3    2.78    0.30
  -2  21  -3    1.94    1.87
   2  21   3    1.99    1.35
  -2  21  -3    3.12    0.44
   2 -21  -3    4.63    1.73
  -2  21   3    3.36    1.67
  -2  21   3    2.68    2.99
   2  21  -3    4.48    1.67
  -2  21   3    2.78    0.33
   2 -21   3    6.90    3.30
  -2  21   3    1.66    2.04
  -2 -21  -3    2.92    1.71
   2  21  -3    1.92    2.64
  -2  21   3    2.94    0.36
   2  21  -3    3.26    0.33
  -2 -21  -3    2.60    2.16
  -2 -21  -3    4.19    1.57
  -2  21   3    3.02    0.26
   2  21  -3    4.69    2.25
  -2 -21  -3    3.57    0.32
   2 -21   3    6.21    2.63
   2 -21   3    4.44    1.68
   2  21  -3    3.11    0.42
  -2 -21  -3    2.72    2.97
  -2  21   3    3.29    1.49
   2  21  -3    1.70    1.37
   2 -21   3    7.41    2.08
  -2  21  -5    1.45    0.31
  -2  21  -5    1.78    0.34
   2  21   5    1.46    0.37
  -2  21  -5    1.43    0.40
  -2  21   5    0.62    2.82
  -2  21   5    1.33    2.32
   2  21  -5    1.27    0.36
  -2  21   5    1.28    0.30
  -2  21   5    8.81    6.10
  -2  21   5   -0.10    3.82
   2  21  -5    2.01    0.39
  -2 -21  -5    1.84    0.37
   2  22   0   53.06    2.61
  -2  22   0   49.39    3.70
  -2  22   0   53.18    2.81
  -2  22   0   56.66    3.15
  -2  22   0   60.81    4.76
   2  22   0   54.45    1.53
  -2  22   0   53.64    1.55
   2 -22   0   48.78    4.84
  -2  22   0   52.33    1.59
  -2  22   0   54.44    1.42
  -2 -22   0   56.02    3.18
   2  22   0   52.68    2.82
  -2 -22   0   55.55    2.86
   2  22   0   58.10    4.36
   2 -22   0   56.80    3.95
  -2 -22   0   58.64    4.80
   2  22   0   57.86    3.48
   2 -22   0   53.59    2.93
  -2 -22   0   53.99    3.80
  -2 -22   0   54.05    1.40
   2  22   0   53.66    1.63
   2 -22   0   54.72    3.25
   2 -22  -2  127.80    4.94
   2  22   2  128.45    6.37
  -2  22  -2  121.34    4.82
   2  22   2  120.77    5.45
  -2 -22   2  121.19    5.73
  -2  22  -2  129.37    6.15
   2  22   2  127.97    3.27
  -2  22  -2  130.63    3.41
  -2  22  -2  123.37    5.22
   2 -22  -2  119.70    5.24
  -2 -22   2  121.75    5.00
   2  22   2  127.48    3.40
  -2 -22   2  131.18    6.86
  -2  22  -2  126.80    7.27
  -2 -22   2  124.59    4.69
  -2  22  -2  126.20    3.27
  -2  22  -2  127.14    3.21
   2  22   2  127.46    4.89
   2 -22  -2  127.74    6.19
   2  22   2  128.36    4.59
   2 -22  -2  129.18    7.35
   2  22  -2  127.00    4.89
   2 -22   2  135.19    7.48
   2  22  -2  134.74    6.56
  -2  22   2  129.04    5.14
   2  22  -2  138.38    4.70
  -2 -22  -2  127.27    3.23
  -2  22   2  132.03    3.14
  -2 -22  -2  119.71    4.99
  -2  22   2  135.60    3.36
   2  22  -2  126.59    3.29
   2 -22   2  135.58    5.38
  -2 -22  -2  124.61    6.90
   2  22  -2  129.62    3.42
  -2 -22  -2  126.88    4.77
   2 -22   2  129.71    4.94
  -2  22   2  131.07    6.87
   2  22  -2  128.92    5.61
   2 -22   2  131.90    6.21
  -2  22   2  133.29    4.85
  -2 -22  -2  128.39    5.88
  -2  22   2  131.73    5.92
  -2  22   2  130.73    3.34
  -2  22  -4   85.18    2.46
  -2  22  -4   83.39    2.26
  -2  22  -4   83.11    2.22
   2  22   4   83.34    2.38
   2  22  -4   82.94    2.43
  -2 -22  -4   82.46    2.27
  -2  22   4   85.12    2.13
  -2  22   4   81.64    2.31
   2  22  -4   80.34    2.30
  -2  22   4   84.15    2.38
  -2  23  -1    3.12    0.39
   2  23   1    1.46    1.14
   2 -23  -1    1.76    1.32
   2  23   1    2.29    1.44
  -2  23  -1    1.33    2.81
   2  23   1   -0.92    1.69
  -2  23  -1    2.95    0.33
   2 -23  -1    3.24    2.24
   2  23   1   -0.26    2.39
  -2  23  -1    5.43    1.60
  -2  23  -1    1.24    1.22
  -2 -23   1   -2.36    2.74
   2 -23  -1    3.93    3.19
  -2  23  -1    2.85    0.26
  -2  23  -1    1.29    1.90
  -2 -23   1    3.76    2.18
   2  23   1    2.47    0.29
   2 -23  -1    1.76    1.60
  -2 -23   1    2.57    0.19
  -2 -23   1    4.24    1.37
   2  23   1    2.96    0.40
  -2 -23   1    2.26    1.55
  -2  23   1    0.93    1.35
   2  23  -1    1.02    1.64
  -2 -23  -1    1.59    1.29
   2  23  -1    2.80    0.24
  -2  23   1    2.26    0.35
  -2  23   1    2.97    0.25
  -2 -23  -1    3.53    1.61
   2  23  -1    2.24    0.28
   2 -23   1    2.28    1.54
  -2  23   1    2.26    1.61
   2 -23   1    4.48    1.36
  -2 -23  -1    4.32    2.25
  -2 -23  -1   -0.30    2.70
   2 -23   1    1.29    2.03
  -2  23   1    3.44    2.62
   2  23  -1    2.47    1.30
  -2 -23  -1    2.63    0.28
   2  23  -1    2.23    1.10
  -2  23   1    2.65    0.30
   2 -23   1    0.81    3.09
   2  23  -1    2.63    0.41
   2  23  -1    2.66    2.50
  -2  23   1    3.30    2.12
   2  23   3    8.51    1.62
   2 -23  -3    2.24    1.80
   2  23   3   13.50    2.69
  -2  23  -3    7.03    0.41
   2 -23  -3   11.58    3.07
   2  23   3    6.58    0.54
  -2  23  -3    7.22    0.57
  -2 -23   3    5.65    1.90
   2  23   3    6.54    0.43
  -2  23  -3    6.69    0.44
   2  23   3    5.03    1.74
  -2 -23   3    9.88    2.64
   2 -23  -3    6.69    2.16
   2 -23  -3    2.21    4.03
  -2 -23   3   10.62    2.26
   2  23   3    9.94    3.20
  -2 -23   3    6.12    3.67
  -2 -23  -3    4.48    3.68
  -2  23   3    7.21    0.49
  -2  23   3    6.77    0.48
  -2  23   3    6.47    2.73
   2 -23   3    4.05    1.62
   2  23  -3    8.89    1.98
   2 -23   3    3.73    2.68
  -2  23   3    6.06    2.29
   2  23  -3    8.53    2.72
  -2 -23  -3    6.80    0.43
   2  23  -3    6.28    0.57
   2 -23   3    6.01    4.06
   2  23  -3   12.75    3.65
   2 -23   3    6.05    2.04
   2  23  -3    8.11    2.19
  -2  23   3    7.13    0.35
  -2 -23  -3    7.39    3.00
  -2 -23  -3    5.95    1.92
  -2 -23  -3   12.44    2.45
   2  23  -3    7.01    0.45
   2  23   5    5.95    0.60
  -2  23  -5    6.01    0.49
  -2  23  -5    5.86    0.67
  -2 -23  -5    8.40    0.87
   2  23  -5    6.08    0.69
   2  23  -5    6.34    0.63
  -2  23   5    5.98    0.52
   2  24   0   18.55    3.70
   2 -24   0   27.74    5.37
  -2  24   0   24.93    2.32
  -2 -24   0   30.03    3.72
  -2  24   0   26.73    0.91
  -2  24   0   27.94    0.99
   2 -24   0   29.34    3.99
   2  24   0   28.83    2.45
  -2 -24   0   30.28    2.46
  -2  24   0   26.76    2.68
   2  24   0   26.40    1.01
   2 -24   0   25.36    3.10
  -2  24   0   24.55    0.84
  -2 -24   0   22.46    4.77
  -2  24   0   25.46    3.28
   2 -24   0   26.37    2.62
   2  24   0   24.58    2.06
  -2 -24   0   26.82    0.78
   2  24   0   26.72    0.89
   2  24   0   27.09    2.95
  -2  24   0   32.76    4.45
  -2 -24   0   28.55    2.81
   2  24   2   58.35    3.22
  -2  24  -2   60.71    1.63
  -2 -24   2   58.26    3.69
   2 -24  -2   61.85    6.44
  -2  24  -2   61.63    1.83
  -2  24  -2   61.38    3.90
  -2  24  -2   62.17    6.24
   2  24   2   59.44    1.68
  -2  24  -2   53.87    3.32
  -2 -24   2   55.88    3.24
  -2 -24   2   54.21    5.79
   2  24   2   58.63    1.82
  -2  24  -2   59.09    1.68
  -2  24  -2   61.47    4.78
   2 -24  -2   55.97    3.48
   2  24   2   49.46    5.21
  -2 -24   2   58.13    4.56
   2 -24  -2   62.37    5.02
   2 -24  -2   63.37    4.09
   2  24   2   61.66    4.34
   2  24   2   56.22    3.55
   2  24  -2   60.65    1.85
   2  24  -2   51.26    4.14
   2 -24   2   58.05    3.50
  -2 -24  -2   56.04    3.31
  -2  24   2   64.15    4.60
   2 -24   2   64.28    6.32
   2  24  -2   58.37    1.69
  -2 -24  -2   61.15    1.64
   2  24  -2   54.63    3.43
  -2  24   2   52.96    5.62
   2  24  -2   68.19    5.42
  -2 -24  -2   54.29    5.78
  -2 -24  -2   56.39    4.52
  -2 -24  -2   61.28    3.73
  -2  24   2   60.39    1.54
  -2  24   2   66.24    3.88
   2 -24   2   66.37    5.03
  -2  24   2   60.55    1.76
   2  24  -2   57.49    3.13
   2 -24   2   68.86    4.07
  -2  24   2   58.87    1.74
  -2  24   2   59.64    3.40
  -2  24  -4   12.58    0.60
   2  24   4   12.44    0.74
  -2  24  -4   13.30    0.81
   2  24   4   11.72    0.59
  -2  24  -4   11.70    0.58
  -2 -24  -4   11.54    0.60
   2  24  -4   12.13    0.78
  -2  24   4   12.03    0.68
  -2  24   4   12.81    0.66
   2  24  -4   12.15    0.65
   2  25   1    1.70    0.34
  -2  25  -1    2.76    2.26
  -2  25  -1    1.21    0.32
  -2  25  -1    2.28    0.26
   2 -25  -1   -4.88    3.80
  -2 -25   1    3.71    1.34
   2  25   1    0.99    1.99
  -2  25  -1   -2.26    3.05
  -2 -25   1    1.92    0.19
  -2  25  -1    2.87    1.68
  -2 -25   1    4.36    2.05
   2  25   1    1.87    0.30
  -2  25  -1    1.97    1.39
   2 -25  -1    1.55    1.96
   2 -25  -1    5.56    2.70
   2 -25  -1    2.13    1.65
   2  25   1    2.78    1.51
   2  25   1    3.87    2.79
   2  25   1    2.66    1.30
  -2  25  -1    1.80    0.32
  -2 -25   1    3.49    3.18
  -2 -25   1    2.66    1.55
   2  25  -1    2.06    0.29
  -2 -25  -1    3.71    1.48
  -2 -25  -1    1.87    0.27
  -2 -25  -1    2.62    1.81
   2  25  -1    1.29    0.33
   2 -25   1    2.43    1.75
  -2  25   1    2.72    2.27
   2  25  -1   -3.58    2.76
  -2  25   1    1.50    0.31
  -2 -25  -1    3.51    2.50
   2  25  -1   -1.75    2.08
   2  25  -1    4.38    1.53
   2 -25   1   -2.37    3.49
   2 -25   1    2.74    1.43
  -2 -25  -1    1.11    3.42
  -2  25   1    3.61    1.43
  -2  25   1    1.72    0.27
  -2  25   1    2.40    1.67
   2 -25   1    0.41    2.23
   2  25  -1    2.00    0.25
  -2  25   1    6.79    3.36
  -2  25   1    2.43    0.31
   2  25  -1    1.46    1.67
  -2  25  -3    7.46    0.63
   2  25   3    7.36    0.46
   2  25   3    7.54    0.61
  -2  25  -3    6.78    0.48
  -2  25  -3    7.52    0.44
  -2  25   3    7.66    0.52
  -2  25   3    7.39    0.53
  -2  25   3    7.08    0.39
  -2 -25  -3    7.69    0.48
   2  25  -3    6.46    0.63
   2  25  -3    7.18    0.49
   2 -26   0  161.89    6.14
   2  26   0  168.39    4.37
   2  26   0  163.13    5.70
   2  26   0  161.14    6.06
   2  26   0  177.53    8.16
  -2 -26   0  171.44    4.08
  -2  26   0  170.40    8.51
  -2 -26   0  163.38    6.44
   2 -26   0  173.22    6.70
  -2  26   0  174.84    4.11
  -2 -26   0  162.00    6.00
  -2  26   0  166.76    6.30
  -2  26   0  172.99    4.26
   2 -26   0  174.37    9.17
  -2  26   0  159.87    7.10
  -2  26   0  163.40    5.89
   2 -26   0  162.44    7.64
  -2 -26   0  169.66    8.68
  -2 -26   0  154.78    7.38
   2  26   0  160.91    6.87
   2  26   0  171.90    4.22
  -2  26   0  168.92    4.34
   2  26   2   76.25    2.07
  -2  26  -2   75.76    2.22
  -2  26  -2   74.31    2.05
   2  26   2   73.06    2.22
  -2  26  -2   75.99    2.00
   2  26  -2   73.06    2.07
  -2  26   2   73.51    2.15
  -2  26   2   72.82    1.99
  -2  26   2   74.10    2.11
  -2 -26  -2   75.15    2.01
   2  26  -2   77.63    2.26
   2  26   4   66.04    2.13
   2  26   4   72.65    2.01
  -2  26  -4   70.82    2.21
  -2  26  -4   69.56    1.98
  -2  26   4   70.46    2.06
   2  26  -4   68.73    2.05
  -2 -26  -4   68.80    2.00
   2  26  -4   69.56    2.22
  -2  26   4   71.53    2.12
   2  27   1    0.84    0.24
  -2  27  -1    0.80    0.24
   2  27   1    0.84    0.33
  -2  27  -1    1.11    0.22
  -2  27  -1    0.76    0.28
   2  27  -1    0.89    0.24
  -2  27   1    0.90    0.23
  -2 -27  -1    0.60    0.22
  -2  27   1    0.89    0.23
   2  27  -1    1.15    0.37
  -2  27   1    1.16    0.32
   2  27   3    4.46    0.43
  -2  27  -3    5.41    0.46
   2  27   3    5.27    0.60
  -2  27  -3    5.04    0.41
  -2  27  -3    4.36    0.60
  -2  27   3    4.46    0.50
   2  27  -3    4.98    0.65
   2  27  -3    5.42    0.47
  -2  27   3    5.06    0.49
  -2 -27  -3    4.91    0.46
  -2  28   0   85.68    2.17
  -2  28   0   83.15    2.41
  -2 -28   0   83.10    2.14
   2  28   0   82.07    2.27
   2  28   0   82.03    2.44
  -2  28   0   83.94    2.30
  -2  28  -2   36.67    1.34
   2  28   2   35.88    1.17
  -2  28  -2   35.24    1.15
   2  28   2   35.39    1.34
  -2  28  -2   36.54    1.11
  -2 -28  -2   35.18    1.13
  -2  28   2   35.05    1.21
  -2  28   2   35.98    1.27
   2  28  -2   35.47    1.18
  -2  28   2   35.78    1.03
   2  28  -2   36.00    1.38
   2  29   1    2.11    0.37
  -2  29  -1    1.29    0.25
  -2  29  -1    1.76    0.37
   2  29   1    1.47    0.39
  -2  29  -1    0.89    0.35
   2  29  -1    1.68    0.37
  -2  29   1    1.83    0.35
  -2  29   1    1.33    0.26
  -2 -29  -1    1.40    0.27
   2  29  -1    1.56    0.44
  -2  29   1    1.73    0.37
  -2  30   0    2.44    0.39
  -2  30   0    1.69    0.31
   2  30   0    1.51    0.42
   2  30   0    1.73    0.36
  -2  30   0    2.35    0.50
   2  30   2    3.98    0.63
  -2  30  -2    3.64    0.41
   2  30   2    3.13    0.41
  -2  30  -2    3.31    0.43
  -2  30  -2    3.83    0.57
   2  30  -2    3.98    0.63
   2  30  -2    3.47    0.44
  -2  30   2    3.04    0.52
  -2 -30  -2    3.57    0.45
  -2  30   2    3.40    0.46
  -2  31  -1    2.70    0.44
   2  31   1    3.07    0.62
  -2  31  -1    2.92    0.55
   2  31   1    3.08    0.45
  -2  31  -1    3.76    0.39
  -2  31   1    3.90    0.53
  -2  31   1    3.43    0.45
  -2 -31  -1    3.89    0.43
   2  31  -1    3.87    0.63
   2  31  -1    3.30    0.44
  -2  31   1    3.15    0.39
  -3   0   0   -0.28    0.06
  -3   0   0   -0.16    0.07
  -3   0   2   -0.36    0.69
  -3   0   2   -0.55    0.30
  -3   0  -2   -0.26    0.68
  -3   0   2   -0.26    0.53
   3   0   2    0.04    0.47
  -3   0  -2   -0.27    0.08
  -3   0   2   -0.16    0.10
   3   0  -2   -0.16    0.07
   3   0   2   -0.16    0.60
  -3   0  -2   -0.04    0.38
  -3   0  -2   -0.09    0.31
  -3   0   2   -0.48    0.37
   3   0   2   -0.29    0.06
  -3   0   2    0.13    0.71
  -3   0  -2   -0.34    0.08
   3   0   2   -0.56    0.31
  -3   0   2   -0.25    0.08
  -3   0   2   -0.36    0.53
  -3   0  -2   -0.05    0.51
  -3   0   2    0.12    0.33
   3   0   2   -0.46    0.28
  -3   0   2   -0.30    0.40
   3   0   4    1.91    1.49
   3   0   4    1.16    1.06
  -3   0  -4   -0.02    0.14
  -3   0  -4    0.37    1.13
  -3   0  -4    0.55    1.57
   3   0   4   -0.03    0.11
  -3   0  -4    1.11    0.67
  -3   0  -4    0.39    0.81
   3   0   4    1.76    0.80
   3   0  -4    0.29    0.12
  -3   0   4    1.33    0.78
  -3   0   4   -0.21    1.60
   3   0   4    0.44    0.66
  -3   0   4   -0.89    0.84
  -3   0  -4    0.00    0.11
  -3   0   4    0.24    0.13
  -3   0   4    0.80    1.17
  -3   0  -6    0.26    0.20
   3   0   6   -0.20    0.18
   3   0  -6   -0.16    0.17
  -3   0   6   -0.21    0.19
  -3  -1   1  200.49    4.92
  -3  -1   1  191.13    4.69
   3  -1  -1  188.69    4.63
  -3   1  -1  191.48    5.22
  -3   1  -1  196.71    4.91
   3  -1  -1  199.53    4.63
  -3   1  -1  189.28    4.73
   3   1   1  195.66    5.05
  -3  -1   1  196.27    4.85
  -3  -1   1  195.47    4.90
  -3  -1   1  198.46    4.86
  -3  -1   1  189.69    4.67
  -3  -1   1  197.39    5.05
  -3   1  -1  197.03    5.06
  -3  -1   1  194.76    5.22
   3   1   1  199.66    4.93
  -3   1  -1  199.62    4.86
  -3  -1   1  199.37    5.06
   3   1   1  198.88    4.82
  -3  -1   1  194.99    5.22
   3   1   1  194.61    4.77
  -3   1  -1  193.51    4.69
   3   1  -1  197.17    4.61
  -3  -1  -1  193.61    4.69
   3  -1   1  192.61    5.22
  -3  -1  -1  190.75    4.73
   3  -1   1  192.32    5.04
  -3   1   1  191.14    5.36
  -3   1   1  191.80    4.71
   3  -1   1  195.72    4.64
  -3   1   1  198.74    4.93
   3   1  -1  189.37    4.65
  -3   1   1  196.20    4.98
  -3   1   1  199.44    5.18
  -3   1   1  198.46    5.00
  -3   1   1  198.49    5.16
   3  -1   1  193.88    4.85
  -3   1   1  195.77    4.91
   3  -1   1  195.65    4.91
  -3   1   1  191.70    5.35
   3  -1  -3  137.60    3.31
  -3  -1   3  138.03    4.26
  -3  -1   3  139.80    4.67
  -3   1  -3  139.12    5.13
   3   1   3  134.35    4.92
  -3  -1   3  134.59    3.36
   3   1   3  138.21    4.50
  -3  -1   3  141.13    4.11
  -3   1  -3  132.57    4.05
  -3   1  -3  130.63    4.20
  -3   1  -3  137.50    4.63
   3   1   3  134.28    4.13
  -3   1  -3  138.47    3.35
   3   1   3  137.86    4.01
   3   1   3  139.94    3.35
  -3   1  -3  132.79    3.39
  -3  -1   3  137.84    5.16
  -3   1  -3  140.50    3.33
  -3   1   3  135.57    4.28
  -3   1   3  132.11    4.65
  -3   1   3  136.88    4.25
   3  -1   3  138.99    3.35
  -3  -1  -3  136.17    3.39
  -3   1   3  140.06    5.16
  -3  -1  -3  133.70    4.21
   3   1  -3  135.63    3.32
   3  -1   3  137.20    4.02
  -3  -1  -3  140.48    4.09
   3   1  -3  144.18    5.33
  -3   1   3  139.69    5.21
  -3   1   3  134.81    3.39
  -3  -1  -3  135.04    4.61
  -3   1   3  140.61    4.14
  -3   1   3  137.01    4.64
  -3  -1  -3  138.96    3.33
   3  -1   3  136.03    4.17
   3  -1   3  141.72    5.02
  -3  -1  -3  140.52    3.32
  -3   1   3  136.52    4.09
   3  -1   3  138.98    4.55
  -3  -1  -3  139.78    5.11
  -3   1  -5   62.24    6.10
  -3  -1   5   83.81    3.46
  -3   1  -5   86.04    2.24
  -3   1  -5   79.74    4.87
  -3  -1   5   84.21    4.46
  -3  -1   5   83.02    2.19
   3   1   5   86.46    2.21
  -3  -1   5   86.65    3.78
  -3   1  -5   85.88    2.22
  -3   1  -5   68.73    5.72
  -3  -1   5   78.53    5.36
  -3   1  -5   77.63    4.39
   3   1  -5   83.53    2.16
   3  -1   5   88.40    4.48
  -3  -1  -5   83.51    2.22
  -3   1   5   89.55    4.57
  -3   1   5   88.58    4.54
  -3   1   5   82.27    3.76
  -3   1   5   85.53    5.31
  -3   1   5   83.77    5.26
   3  -1   5   87.66    2.21
   3  -1   5   81.84    5.24
  -3   1   5   84.91    3.83
   3  -1   5   93.61    3.84
  -3   1   5   79.31    3.45
  -3   1   5   86.30    3.56
   3  -1   5   90.81    3.51
  -3   1   5   84.07    2.21
  -3  -2   0    9.38    0.35
  -3   2   0   10.27    0.48
  -3   2   0    9.60    0.44
  -3   2   0    9.72    0.34
   3  -2   0    8.55    0.63
  -3   2   0    9.59    0.36
   3  -2   0    9.86    0.43
  -3   2   0    9.48    0.67
  -3  -2   0    9.52    0.33
   3  -2   0    9.70    0.46
  -3   2   0    9.19    0.57
   3  -2   0    9.52    0.54
  -3  -2   2    3.76    0.82
  -3   2  -2    4.51    0.84
  -3   2  -2    3.99    0.25
   3   2   2    5.25    0.78
  -3   2  -2    4.02    0.23
   3   2   2    4.27    0.58
  -3  -2   2    3.92    0.88
  -3  -2   2    3.56    0.54
   3  -2  -2    4.55    0.17
   3   2   2    4.36    0.20
  -3   2  -2    3.85    0.63
  -3  -2   2    4.19    0.21
  -3   2  -2    3.58    0.92
  -3  -2   2    4.29    0.64
   3   2   2    3.34    0.80
  -3   2  -2    4.44    0.56
   3   2   2    3.91    0.50
  -3   2   2    5.30    0.99
   3  -2   2    3.97    0.50
  -3   2   2    4.45    0.25
  -3   2   2    3.65    0.85
   3  -2   2    3.65    0.58
  -3  -2  -2    4.25    0.26
   3   2  -2    4.42    0.20
   3   2  -2    5.58    1.15
   3   2  -2    3.56    0.68
  -3   2   2    4.83    0.95
  -3   2   2    5.00    0.72
   3  -2   2    3.74    0.82
   3   2  -2    4.37    0.61
  -3   2   2    4.71    0.58
  -3   2   2    4.59    0.61
  -3   2   2    4.60    0.19
   3  -2   2    4.36    0.19
   3   2  -2    4.12    0.80
  -3  -2  -2    4.27    0.23
  -3   2   2    4.36    1.04
  -3   2   2    3.59    0.66
   3  -2   2    4.18    0.74
   3   2   4    3.87    1.57
   3  -2  -4    0.36    0.12
  -3   2  -4    0.29    0.16
  -3   2  -4    0.43    0.13
   3   2   4   -0.31    0.94
  -3  -2   4   -0.23    1.04
  -3   2  -4    1.07    1.06
  -3  -2   4   -3.48    1.49
  -3  -2   4    0.43    0.79
  -3  -2   4    1.17    0.70
  -3   2  -4   -0.61    0.74
   3   2   4    0.83    0.74
   3   2   4    0.31    0.13
  -3  -2   4    0.19    0.12
  -3   2  -4    3.11    1.67
  -3   2  -4    0.68    0.63
   3   2   4    0.09    0.60
   3   2  -4    0.35    1.70
   3   2  -4    1.05    0.94
   3  -2   4    0.51    1.55
  -3   2   4   -2.69    1.50
   3   2  -4    2.42    1.32
  -3   2   4    0.55    1.14
   3  -2   4    0.41    0.13
  -3  -2  -4   -0.57    1.51
   3  -2   4    0.67    0.70
  -3   2   4    0.71    0.70
   3   2  -4    0.73    0.15
   3  -2   4    1.04    0.83
   3  -2   4    0.14    1.11
   3   2  -4    0.01    0.79
  -3  -2  -4    0.24    0.12
  -3   2   4   -0.44    0.81
  -3   2   4    0.42    0.16
  -3   2  -6    2.28    0.41
   3  -2  -6    2.49    0.27
  -3  -2   6    2.25    0.35
  -3   2  -6    1.75    0.31
   3   2   6    2.12    0.31
  -3   2   6    2.53    0.34
  -3  -2  -6    2.71    0.32
   3   2  -6    2.33    0.28
   3  -2   6    2.27    0.29
   3   3   1    1.92    0.39
   3   3   1    2.13    0.31
  -3   3  -1    1.92    0.35
  -3  -3   1    2.12    0.46
  -3   3  -1    2.30    0.48
  -3  -3   1    2.26    0.15
  -3   3  -1    1.73    0.40
   3   3   1    2.57    0.38
  -3  -3   1    2.24    0.50
   3   3   1    2.59    0.50
  -3   3  -1    2.04    0.18
  -3  -3   1    2.56    0.36
  -3  -3   1    2.55    0.16
   3   3   1    2.04    0.29
  -3   3  -1    2.27    0.55
   3   3   1    1.98    0.25
   3   3   1    2.11    0.27
  -3  -3   1    2.33    0.31
  -3   3  -1    2.18    0.16
   3   3   1    1.84    0.40
  -3  -3  -1    2.55    0.17
  -3   3   1    2.20    0.42
   3  -3   1    2.53    0.46
  -3   3   1    2.05    0.47
   3  -3   1    1.75    0.57
  -3   3   1    2.35    0.18
   3   3  -1    2.68    0.45
  -3   3   1    2.72    0.56
   3   3  -1    1.62    0.38
  -3  -3  -1    2.16    0.18
  -3   3   1    2.04    0.64
  -3   3   1    2.31    0.49
   3   3  -1    2.94    0.63
   3  -3   1    2.64    0.22
  -3   3   1    2.17    0.39
   3  -3   1    2.77    0.55
  -3   3   1    1.79    0.64
   3   3  -1    2.51    0.34
  -3   3   1    2.32    0.57
   3  -3   1    1.81    0.39
   3   3   3    3.31    0.71
   3   3   3    3.39    0.75
  -3   3  -3    0.78    0.80
  -3  -3   3    3.01    1.25
  -3   3  -3    3.35    0.78
   3   3   3    2.57    1.16
  -3  -3   3    3.21    0.67
  -3   3  -3    3.75    0.69
  -3  -3   3    2.83    0.20
   3  -3  -3    2.25    0.14
   3   3   3    2.41    0.19
  -3  -3   3    3.76    0.81
  -3   3  -3    2.76    0.22
  -3   3  -3    2.52    0.21
  -3   3  -3    1.44    1.14
   3   3   3    4.40    1.00
  -3  -3   3    3.55    1.00
   3  -3   3    2.37    0.54
   3  -3   3    2.43    0.60
  -3   3   3    2.63    1.19
   3  -3   3    2.68    1.06
   3   3  -3    4.12    1.27
   3  -3   3    1.77    0.73
   3   3  -3    2.46    0.18
  -3   3   3    4.09    1.01
  -3   3   3    2.56    1.29
  -3   3   3    2.80    0.16
  -3  -3  -3    2.98    0.19
  -3  -3  -3    2.25    0.20
   3   3  -3    2.08    0.88
  -3  -3  -3    2.59    0.24
   3   3  -3    2.48    0.69
  -3   3   3    2.30    0.74
  -3   3   3    2.92    0.66
  -3   3   3    2.91    0.66
  -3   3   3    3.38    0.75
  -3   3   3    2.45    0.96
  -3   3   3    2.54    0.22
   3   3  -3    2.23    0.61
   3  -3   3    2.40    0.17
  -3  -3   5    1.74    0.24
  -3   3  -5    1.12    0.23
   3   3   5    1.62    0.25
  -3   3  -5    1.08    0.20
   3   3   5    0.08    1.34
  -3   3  -5    2.92    1.65
   3   3   5    0.96    1.12
   3  -3  -5    1.22    0.20
   3   3   5   -0.72    1.24
   3   3   5    3.07    1.91
   3   3   5    1.41    2.38
  -3  -3   5    2.60    2.40
   3   3   5    0.84    2.13
  -3   3  -5    1.05    1.15
  -3  -3   5    2.33    1.12
  -3   3  -5    0.74    1.02
  -3  -3   5    2.78    1.27
   3   3   5    1.68    1.69
  -3  -3   5    1.56    1.65
  -3   3  -5    3.29    2.47
   3   3   5    3.84    1.16
   3  -3   5    1.56    0.23
  -3   3   5    3.18    1.76
   3  -3   5    2.09    1.05
  -3   3   5    1.90    1.05
  -3   3   5    1.28    1.23
  -3   3   5    1.01    0.21
   3  -3   5   -0.76    2.27
   3   3  -5    0.70    1.34
   3   3  -5   -4.49    2.26
  -3   3   5    0.02    1.68
  -3  -3  -5    0.97    0.20
   3  -3   5    0.46    1.18
   3   3  -5    0.54    1.16
  -3   3   5    0.81    1.05
  -3   3   5    0.71    2.32
   3  -3   5    4.23    1.70
   3   3  -5    3.04    1.73
   3   3  -5    1.13    0.20
  -3   3   5    2.03    0.27
  -3   3   5   -0.55    2.40
  -3   3   5   -0.33    1.20
   3  -4   0   41.58    1.32
   3  -4   0   40.02    1.05
  -3   4   0   42.14    1.34
   3  -4   0   39.91    1.52
  -3   4   0   42.24    1.42
  -3  -4   0   41.38    1.06
  -3   4   0   40.07    1.09
  -3   4   0   41.92    1.80
   3  -4   0   39.81    1.71
  -3   4   0   40.02    1.12
   3   4   0   42.65    1.08
   3  -4   0   41.86    1.38
   3  -4   0   41.11    1.01
  -3  -4   0   39.30    1.08
  -3   4   0   42.05    1.58
  -3   4  -2   20.02    0.66
   3   4   2   17.63    1.41
  -3   4  -2   20.73    0.54
  -3  -4   2   18.62    1.26
  -3  -4   2   18.31    1.52
  -3  -4   2   19.95    0.57
  -3   4  -2   20.89    1.04
  -3   4  -2   20.29    1.67
  -3   4  -2   20.86    0.56
   3   4   2   20.43    1.21
  -3  -4   2   19.33    1.06
   3   4   2   20.39    1.28
   3   4   2   19.84    1.02
  -3   4  -2   21.87    1.38
  -3  -4   2   21.23    1.00
   3   4   2   20.82    0.94
  -3   4  -2   19.36    1.13
  -3   4  -2   19.88    0.61
   3   4   2   20.46    0.57
  -3   4   2   16.95    1.70
   3   4  -2   19.87    0.55
   3  -4   2   20.47    1.61
  -3   4   2   20.03    1.04
  -3  -4  -2   19.27    0.64
  -3   4   2   20.88    1.49
  -3   4   2   20.24    1.21
  -3   4   2   20.43    1.16
   3  -4   2   19.39    0.99
  -3   4   2   20.82    0.64
   3   4  -2   20.49    0.58
   3  -4   2   19.49    1.29
  -3   4   2   20.57    0.54
   3  -4   2   19.31    1.08
  -3   4   2   19.76    1.09
  -3   4   2   20.02    1.38
  -3   4   2   18.00    1.67
  -3  -4  -2   19.48    0.61
  -3   4  -4    0.86    0.18
  -3   4  -4    0.78    0.99
   3   4   4    1.14    0.21
   3   4   4    0.72    0.64
  -3   4  -4    0.91    0.17
  -3  -4   4   -1.00    1.25
   3   4   4   -0.81    0.75
  -3   4  -4    0.79    0.16
  -3  -4   4    0.47    1.00
  -3  -4   4    0.84    0.17
  -3   4  -4   -0.11    1.21
   3   4   4    4.52    1.59
   3   4   4    1.78    0.91
  -3  -4   4    2.00    0.89
  -3   4  -4    1.19    1.72
   3   4   4    1.73    1.51
   3   4   4    0.07    1.00
  -3  -4   4    0.63    1.74
   3  -4  -4    0.64    0.13
  -3   4  -4    0.56    0.78
   3   4   4   -0.47    0.71
   3   4   4   -0.02    1.09
  -3   4   4    1.72    1.20
  -3  -4  -4    0.92    0.18
   3   4  -4   -1.21    1.63
   3  -4   4    0.73    0.16
   3  -4   4    1.34    0.74
   3   4  -4    1.10    1.23
   3   4  -4   -0.15    0.89
  -3   4   4    0.66    0.14
  -3   4   4    0.61    0.19
  -3   4   4    1.24    0.88
   3  -4   4    0.13    1.14
  -3   4   4    2.71    1.70
   3   4  -4    0.36    0.80
   3   4  -4    0.83    0.17
  -3   4   4   -1.09    1.64
   3  -4   4    1.03    1.68
  -3   4   4    1.64    1.17
  -3   4   4    1.23    0.90
   3  -4   4    2.04    0.93
  -3   4   4    0.39    0.73
  -3   4   4    1.73    0.77
   3   4   6    4.49    0.37
  -3  -4   6    4.19    0.44
   3  -4  -6    4.18    0.32
  -3   4  -6    3.96    0.36
  -3   4  -6    3.97    0.46
  -3   4   6    4.39    0.40
  -3  -4  -6    4.08    0.38
  -3   4   6    4.09    0.34
   3   4  -6    4.70    0.33
   3   5   1  176.54    4.85
   3  -5  -1  178.62    5.04
   3  -5  -1  177.50    5.35
   3   5   1  176.83    4.87
   3  -5  -1  178.31    4.80
  -3   5  -1  173.41    4.32
   3   5   1  181.09    4.48
   3   5   1  182.07    4.71
   3   5   1  182.07    4.31
  -3  -5   1  180.90    4.79
   3   5   1  180.73    4.49
  -3   5  -1  181.19    4.68
  -3  -5   1  173.76    4.97
   3   5   1  181.65    4.55
  -3   5  -1  180.29    5.01
  -3  -5   1  183.19    4.62
   3  -5  -1  178.68    4.70
  -3   5  -1  176.52    5.28
  -3  -5   1  178.54    4.27
   3   5   1  180.09    4.54
  -3  -5   1  181.97    4.55
  -3   5  -1  173.66    4.37
  -3  -5   1  180.31    4.30
   3   5   1  179.42    4.68
  -3   5  -1  178.10    4.77
   3  -5   1  174.65    5.09
   3  -5   1  176.40    5.42
  -3  -5  -1  177.53    4.35
  -3   5   1  180.30    4.87
  -3   5   1  177.45    4.37
   3   5  -1  185.18    4.56
   3  -5   1  174.35    4.83
   3   5  -1  179.94    4.26
  -3  -5  -1  179.48    4.31
  -3   5   1  174.90    5.44
  -3   5   1  178.16    5.14
   3   5  -1  184.58    4.63
   3   5  -1  176.52    4.99
   3   5  -1  175.83    4.32
   3   5  -1  185.08    4.80
   3  -5   1  171.89    4.72
  -3   5   1  182.72    4.77
   3   5   3  157.95    4.63
  -3   5  -3  157.10    3.86
  -3  -5   3  160.73    3.79
   3   5   3  152.76    4.51
  -3  -5   3  155.74    4.56
   3   5   3  152.17    5.52
   3   5   3  159.60    4.49
   3   5   3  157.75    5.45
   3   5   3  152.48    4.66
  -3  -5   3  155.28    4.72
   3   5   3  159.39    3.84
   3  -5  -3  159.94    3.75
   3   5   3  154.94    4.98
   3   5   3  157.60    5.08
  -3   5  -3  154.34    3.85
  -3   5  -3  159.88    4.81
  -3   5  -3  159.84    5.23
  -3  -5   3  156.97    5.63
  -3   5  -3  157.25    5.75
  -3   5  -3  156.34    3.85
  -3  -5   3  158.19    5.14
  -3   5  -3  160.06    4.64
   3   5  -3  157.86    5.23
   3  -5   3  153.64    4.74
  -3   5   3  153.39    3.90
   3   5  -3  165.83    4.86
   3  -5   3  160.93    5.71
  -3   5   3  163.98    5.31
  -3  -5  -3  155.27    3.87
   3  -5   3  157.78    4.59
  -3   5   3  157.30    4.82
  -3   5   3  156.03    5.80
  -3   5   3  157.68    4.73
   3   5  -3  167.84    3.79
  -3   5   3  156.78    4.65
   3   5  -3  155.79    3.83
  -3   5   3  151.34    3.75
   3   5  -3  157.02    5.74
  -3   5   3  156.22    5.40
   3  -5   3  154.35    5.15
  -3  -5  -3  159.82    3.80
   3   5  -3  161.33    4.65
  -3   5   3  153.03    5.97
  -3   5   3  157.87    4.94
  -3   5   3  156.92    3.80
   3   5   5  117.23    4.21
  -3   5  -5  119.64    4.35
   3   5   5  116.21    2.94
  -3  -5   5  115.69    2.84
  -3   5  -5  107.39    4.52
  -3  -5   5  112.99    4.17
   3   5   5  107.02    5.74
  -3   5  -5  101.75    5.11
   3   5   5  120.02    4.48
   3   5   5  117.55    6.07
   3   5   5  116.57    4.15
  -3  -5   5  120.20    6.15
   3  -5  -5  117.23    2.83
  -3  -5   5  115.01    4.50
  -3   5  -5  114.74    2.94
  -3   5  -5  116.97    2.92
  -3  -5   5  110.86    5.15
   3   5   5  112.17    5.02
   3   5   5  114.11    4.47
   3   5   5  101.02    4.99
  -3   5  -5  116.45    2.98
  -3   5  -5  113.56    6.16
  -3   5   5  111.67    5.40
   3  -5   5  122.66    6.11
   3  -5   5  108.76    5.01
  -3   5   5  116.35    4.27
  -3   5   5  111.99    2.87
   3   5  -5  114.89    2.89
   3  -5   5  113.70    4.41
  -3   5   5  114.38    6.42
  -3   5   5  112.58    2.96
  -3   5   5  115.46    4.65
   3   5  -5  120.20    5.46
   3   5  -5  118.54    6.39
  -3   5   5  109.69    5.18
  -3  -5  -5  114.78    2.94
   3   5  -5  120.28    4.37
  -3   5   5  112.53    6.14
   3  -5   5  114.64    4.13
   3   5  -5  116.23    4.66
  -3   5   5  109.33    4.28
  -3   5   5  109.91    4.49
   3   6   0   64.51    1.71
  -3  -6   0   64.97    1.88
  -3   6   0   63.00    2.02
  -3  -6   0   62.35    2.00
  -3   6   0   63.71    2.13
  -3   6   0   64.94    2.37
  -3  -6   0   61.65    1.61
  -3  -6   0   64.83    1.59
  -3  -6   0   65.27    1.72
   3   6   0   62.27    1.96
  -3   6   0   63.35    1.67
   3  -6   0   65.36    2.01
   3  -6   0   63.21    2.58
   3  -6   0   62.23    1.53
  -3   6   0   61.47    1.62
   3   6   0   63.30    1.74
  -3   6   0   61.57    2.63
   3   6   0   62.24    1.62
  -3  -6   0   64.67    1.76
   3  -6   0   63.66    2.09
   3   6   0   64.72    1.85
   3  -6   0   62.85    2.30
  -3   6  -2   32.11    0.82
   3   6   2   31.98    1.28
   3   6   2   30.59    1.59
   3   6   2   31.10    1.26
  -3   6  -2   31.46    0.86
  -3  -6   2   31.44    1.98
  -3   6  -2   30.57    0.89
  -3   6  -2   31.02    1.38
  -3   6  -2   32.25    1.50
  -3   6  -2   30.58    0.93
  -3  -6   2   31.26    1.68
   3   6   2   33.16    1.39
   3   6   2   30.98    1.83
   3   6   2   30.21    1.54
   3   6   2   32.80    0.86
  -3   6  -2   34.04    2.14
  -3  -6   2   31.46    0.83
  -3   6  -2   30.71    0.85
   3   6   2   32.05    1.36
   3   6   2   31.44    1.83
  -3   6  -2   31.11    1.76
  -3  -6   2   29.55    1.42
  -3  -6   2   30.12    1.32
  -3   6   2   31.23    0.93
   3  -6   2   29.73    1.36
   3   6  -2   32.70    0.88
  -3   6   2   33.33    1.58
   3   6  -2   31.33    1.94
   3   6  -2   31.46    1.34
  -3   6   2   30.90    1.80
  -3   6   2   36.81    2.29
   3   6  -2   32.93    1.46
  -3   6   2   32.25    0.83
  -3   6   2   31.42    1.42
   3  -6   2   31.07    1.49
   3   6  -2   31.35    0.80
   3   6  -2   31.51    1.68
   3  -6   2   32.11    1.76
  -3  -6  -2   31.44    0.89
   3  -6   2   31.62    2.07
  -3   6  -4    1.35    0.21
  -3  -6   4    3.23    1.31
   3   6   4   -1.21    1.47
  -3  -6   4    2.80    0.99
   3   6   4    1.68    0.23
  -3  -6   4    1.30    0.19
   3   6   4    1.72    0.73
  -3  -6   4    1.93    0.77
  -3   6  -4    1.74    0.25
   3   6   4    1.00    1.68
   3   6   4    0.44    1.07
   3   6   4   -0.42    0.93
   3   6   4    0.29    1.23
  -3   6  -4    1.76    0.21
   3  -6  -4    1.64    0.16
   3   6   4    3.17    0.90
   3   6   4    2.35    0.89
  -3  -6   4    4.00    1.82
  -3   6  -4    1.38    0.27
  -3   6   4    1.19    1.16
  -3   6   4    2.24    0.85
   3   6  -4    4.36    2.01
  -3   6   4    1.27    0.21
  -3   6   4    2.85    2.00
   3  -6   4    0.76    0.75
   3   6  -4   -0.18    1.27
  -3   6   4   -0.38    1.42
  -3   6   4    1.86    1.15
   3   6  -4    0.72    0.81
   3   6  -4    1.70    0.20
  -3   6   4    1.57    0.94
   3  -6   4   -0.23    1.79
  -3   6   4    0.88    0.86
   3  -6   4    2.96    1.41
  -3  -6  -4    1.49    0.21
   3   6  -4    3.23    1.06
   3  -6   4    1.21    0.94
  -3   6   4    4.19    1.82
   3   6   6    5.16    0.41
  -3   6  -6    5.06    0.39
  -3   6  -6    4.97    0.40
  -3   6  -6    5.06    0.50
  -3   6   6    5.12    0.43
  -3  -6  -6    5.40    0.41
  -3   6   6    5.33    0.37
   3   6  -6    4.53    0.35
   3   7   1  232.75    6.43
  -3  -7   1  232.65    6.25
  -3   7  -1  231.55    6.89
   3  -7  -1  226.37    6.86
   3   7   1  232.32    5.56
  -3   7  -1  239.79    5.53
   3   7   1  240.61    5.99
  -3  -7   1  230.89    5.53
  -3   7  -1  224.84    5.53
  -3   7  -1  225.35    5.65
   3   7   1  239.24    5.89
   3  -7  -1  227.43    6.20
  -3   7  -1  247.58    5.51
  -3  -7   1  229.46    5.92
   3  -7  -1  227.92    6.50
  -3   7  -1  225.28    6.19
   3   7   1  240.86    6.19
  -3  -7   1  234.15    6.54
  -3   7  -1  241.48    6.55
  -3   7  -1  227.79    6.08
   3  -7  -1  229.53    6.09
  -3  -7   1  233.06    6.02
  -3   7  -1  226.27    5.60
  -3  -7   1  231.36    5.55
  -3   7   1  230.21    6.30
   3  -7   1  224.46    6.98
   3   7  -1  221.55    5.60
  -3   7   1  228.95    5.66
   3   7  -1  240.17    5.90
   3   7  -1  243.43    6.00
  -3   7   1  235.84    5.52
   3  -7   1  231.08    6.15
   3   7  -1  238.01    6.20
   3   7  -1  236.45    5.52
   3   7  -1  241.78    6.49
   3  -7   1  227.26    6.27
   3   7  -1  245.09    5.59
  -3  -7  -1  231.86    5.58
   3  -7   1  228.79    6.59
  -3   7   1  231.52    6.16
  -3   7   1  229.85    7.05
  -3   7   1  239.81    6.68
   3   7   3  182.07    5.64
  -3   7  -3  160.45    4.57
   3   7   3  179.05    5.09
  -3   7  -3  180.19    6.54
   3   7   3  189.65    4.44
  -3   7  -3  174.30    5.44
   3   7   3  180.62    5.25
  -3  -7   3  183.20    6.32
  -3   7  -3  180.63    4.43
   3   7   3  181.33    5.77
  -3   7  -3  178.96    5.27
   3   7   3  184.55    5.18
  -3   7  -3  181.49    4.44
  -3  -7   3  187.23    4.34
   3   7   3  183.80    6.29
  -3   7  -3  177.80    4.45
   3   7   3  184.20    6.14
  -3  -7   3  180.60    5.34
  -3  -7   3  188.86    5.82
   3   7   3  183.49    5.36
  -3   7  -3  174.76    5.88
  -3  -7   3  183.39    5.17
  -3   7   3  186.49    4.40
  -3   7   3  182.17    5.61
  -3   7   3  176.16    4.31
  -3  -7  -3  179.55    4.45
   3   7  -3  180.64    5.87
   3   7  -3  184.60    4.32
  -3   7   3  184.54    5.41
   3  -7   3  185.08    6.43
   3   7  -3  183.89    5.25
   3  -7   3  179.58    5.22
   3   7  -3  184.32    6.40
  -3   7   3  190.61    6.19
   3   7  -3  187.39    5.45
  -3  -7  -3  180.98    4.39
  -3   7   3  183.69    6.82
   3   7  -3  183.82    4.43
   3  -7   3  185.00    5.86
   3  -7   3  183.58    5.42
   3   7   5  108.44    5.85
  -3   7  -5  115.16    2.95
   3   7   5  110.42    5.06
  -3  -7   5  120.83    5.25
   3   7   5  108.50    4.35
  -3   7  -5  108.92    4.48
   3   7   5  114.37    2.90
   3   7   5  103.58    5.03
  -3  -7   5  109.88    4.15
  -3   7  -5  114.29    2.86
  -3  -7   5  118.95    4.53
  -3   7  -5  114.24    4.90
  -3   7  -5  115.61    5.82
  -3   7  -5  110.53    2.89
   3   7   5  104.70    4.07
   3   7   5  105.40    5.91
  -3   7  -5  109.05    6.62
  -3  -7   5  112.97    6.11
  -3  -7   5  116.62    2.75
   3   7   5  107.84    4.11
   3   7   5  109.64    4.44
  -3   7   5  112.05    2.94
  -3   7   5  115.36    5.52
  -3   7   5  103.06    6.18
  -3   7   5  109.55    4.69
   3  -7   5  117.08    4.52
  -3   7   5  115.35    6.46
  -3  -7  -5  111.91    2.89
   3  -7   5  111.48    4.15
   3   7  -5  110.06    4.56
  -3   7   5  112.55    4.58
  -3   7   5  108.10    4.24
   3  -7   5  115.49    6.26
   3   7  -5  118.73    6.28
   3  -7   5  118.24    5.23
  -3   7   5  114.17    2.84
   3   7  -5  110.79    2.85
  -3   7   5  111.62    4.36
   3   7  -5  114.32    2.71
   3   7  -5  106.45    5.23
   3   7  -5  106.29    4.25
  -3   7   5  108.19    5.26
  -3   8   0   40.15    1.98
  -3   8   0   40.48    1.01
   3   8   0   41.39    1.31
   3   8   0   41.19    1.53
  -3   8   0   39.86    1.13
   3  -8   0   40.00    1.93
   3   8   0   39.10    1.08
  -3  -8   0   40.03    1.59
   3  -8   0   40.08    0.98
   3   8   0   37.88    1.68
  -3  -8   0   40.64    1.34
  -3  -8   0   37.84    1.06
  -3  -8   0   41.58    1.81
   3  -8   0   38.59    1.55
  -3  -8   0   39.70    1.41
  -3   8   0   40.11    1.59
   3   8   0   40.88    1.37
  -3   8   0   40.25    1.70
   3  -8   0   38.74    2.19
   3   8   0   41.98    1.04
  -3   8   0   39.10    1.08
  -3   8   0   40.42    2.33
   3  -8   0   40.29    1.68
   3  -8  -2   18.97    1.21
  -3  -8   2   19.36    1.77
   3  -8  -2   21.10    1.37
   3   8   2   18.52    1.15
  -3  -8   2   19.22    1.45
  -3   8  -2   20.26    0.67
   3  -8  -2   20.26    1.62
  -3  -8   2   21.89    1.22
  -3   8  -2   20.65    1.65
   3   8   2   22.43    1.43
  -3  -8   2   18.82    1.06
  -3   8  -2   18.63    1.29
   3   8   2   17.74    1.39
  -3   8  -2   19.38    0.62
   3   8   2   19.75    1.66
   3   8   2   19.66    1.16
   3   8   2   20.13    1.07
   3   8   2   18.19    1.70
  -3   8  -2   21.58    1.99
   3  -8  -2   21.93    2.01
  -3   8  -2   20.05    0.61
  -3   8  -2   19.65    1.18
  -3  -8   2   19.56    0.54
   3   8   2   20.64    0.62
   3   8   2   19.26    1.04
  -3   8  -2   19.78    0.59
  -3   8   2   20.51    1.33
   3  -8   2   20.73    1.59
   3   8  -2   18.74    1.79
  -3   8   2   19.73    0.67
  -3   8   2   20.66    1.20
  -3  -8  -2   20.00    0.61
   3  -8   2   19.72    1.32
  -3   8   2   20.13    0.58
   3   8  -2   21.37    1.25
   3   8  -2   19.37    0.52
   3  -8   2   18.71    1.93
  -3   8   2   18.34    1.58
   3  -8   2   20.36    1.20
   3   8  -2   22.29    1.53
  -3   8   2   19.64    2.01
   3   8  -2   19.66    1.11
   3   8  -2   20.01    0.63
  -3  -8   4    0.33    1.71
  -3  -8   4   -0.94    0.81
   3   8   4    0.57    0.71
   3   8   4    0.42    0.16
   3   8   4    0.50    0.86
  -3   8  -4    0.56    0.15
  -3  -8   4   -0.45    0.69
   3   8   4   -0.11    0.87
   3   8   4    0.26    0.77
   3   8   4    1.38    1.66
   3   8   4   -0.11    1.17
  -3   8  -4    0.39    0.15
  -3   8  -4    0.37    0.20
  -3   8  -4    0.16    0.92
  -3   8  -4    1.49    1.18
  -3   8  -4    1.18    2.09
   3   8   4    1.90    1.66
  -3   8  -4    0.57    1.57
  -3  -8   4   -0.12    1.19
   3   8   4    1.19    1.24
   3  -8   4    0.03    0.77
   3   8  -4   -0.59    1.23
  -3  -8  -4    0.46    0.16
  -3   8   4    1.15    1.01
   3  -8   4    1.03    1.07
  -3   8   4    2.02    1.40
   3   8  -4    0.60    0.17
  -3   8   4    0.24    1.73
  -3   8   4    0.51    0.15
  -3   8   4    1.34    1.23
   3  -8   4    1.57    1.99
  -3   8   4    0.57    1.06
  -3   8   4    0.49    0.17
   3   8  -4   -0.10    0.96
  -3   8   4    0.89    2.11
  -3   8   4    1.75    0.94
   3   8  -4    1.53    1.83
  -3   8   4    0.51    1.55
   3   8  -4    0.13    0.84
   3   8  -4    0.17    0.14
   3  -8   4    1.03    1.32
  -3   8  -6    5.22    0.40
  -3   8  -6    4.82    0.54
  -3   8  -6    5.17    0.40
   3   8   6    4.85    0.44
  -3   8   6    4.90    0.37
  -3  -8  -6    5.18    0.41
   3   8  -6    4.69    0.38
  -3   8   6    4.62    0.44
  -3   9  -1   66.40    3.13
  -3  -9   1   63.71    2.82
  -3   9  -1   66.54    2.28
  -3   9  -1   67.79    1.71
   3  -9  -1   67.40    2.42
  -3  -9   1   63.76    3.26
  -3  -9   1   67.98    1.62
   3  -9  -1   66.77    2.29
  -3  -9   1   63.55    2.62
  -3   9  -1   68.21    1.63
  -3  -9   1   70.28    1.65
   3  -9  -1   67.04    2.73
   3   9   1   67.62    1.70
   3  -9  -1   64.39    3.06
  -3   9  -1   68.75    1.67
  -3   9  -1   63.81    2.70
  -3   9  -1   68.67    1.64
  -3   9  -1   64.98    1.75
  -3   9  -1   66.96    2.43
  -3   9   1   63.91    3.23
   3   9  -1   65.67    1.72
   3   9  -1   69.85    1.62
  -3  -9  -1   67.88    2.23
   3  -9   1   68.11    2.83
   3   9  -1   57.14    2.27
  -3   9   1   66.72    2.49
   3  -9   1   68.50    3.26
   3   9  -1   53.76    2.37
  -3   9   1   63.93    2.78
  -3   9   1   68.59    1.65
  -3  -9  -1   69.36    3.03
  -3   9   1   63.67    2.32
   3  -9   1   64.94    2.33
   3  -9   1   65.02    2.48
  -3   9   1   68.53    1.77
   3   9  -1   66.47    1.65
  -3  -9  -1   67.37    2.64
  -3  -9  -1   67.00    2.35
   3   9  -1   61.63    2.77
  -3  -9  -1   68.66    1.68
  -3  -9   3   43.64    2.98
   3   9   3   41.40    2.78
  -3   9  -3   42.47    1.25
   3   9   3   43.38    2.00
  -3  -9   3   43.13    2.46
  -3   9  -3   42.51    1.23
   3   9   3   46.16    2.52
  -3   9  -3   42.51    1.25
  -3  -9   3   45.21    2.11
   3   9   3   43.05    1.93
   3   9   3   41.69    1.83
   3   9   3   44.26    2.35
  -3  -9   3   44.18    1.91
   3   9   3   42.40    2.93
  -3   9  -3   42.51    1.19
   3   9   3   44.07    2.11
   3   9   3   45.42    1.21
   3   9  -3   40.98    2.46
  -3   9   3   43.37    2.84
  -3   9   3   43.83    1.17
   3   9  -3   46.33    3.05
  -3   9   3   39.72    2.96
  -3   9   3   42.16    1.25
   3   9  -3   42.82    1.94
  -3  -9  -3   43.35    1.22
  -3  -9  -3   42.40    1.21
  -3   9   3   46.50    2.40
  -3   9   3   45.66    3.77
  -3   9   3   45.53    2.55
   3  -9   3   45.75    2.65
   3  -9   3   45.48    2.21
   3  -9   3   44.82    2.00
  -3   9   3   40.71    2.48
   3   9  -3   42.02    2.09
   3  -9   3   42.75    3.15
  -3   9   3   39.90    3.32
  -3   9   3   44.24    2.16
   3   9   5   27.13    2.99
   3   9   5   23.70    3.48
   3   9   5   25.84    2.14
  -3   9  -5   24.31    0.84
   3   9   5   29.23    2.43
   3   9   5   25.74    2.99
  -3  -9   5   26.41    3.15
  -3  -9   5   27.71    2.13
  -3  -9   5   21.73    3.54
  -3  -9   5   20.45    2.33
  -3   9  -5   24.35    0.91
   3   9   5   27.06    4.51
  -3   9  -5   24.67    0.81
   3   9   5   25.95    0.88
   3   9   5   23.75    3.83
   3   9   5   27.06    5.45
   3   9  -5   24.63    0.82
   3   9  -5   19.82    3.27
   3   9  -5   23.32    2.25
  -3   9   5   25.27    0.81
   3  -9   5   22.37    2.47
  -3   9   5   21.60    3.61
   3  -9   5   21.10    2.18
  -3   9   5   24.79    4.67
   3  -9   5   33.51    4.41
   3   9  -5   23.95    2.60
  -3   9   5   27.36    2.45
   3   9  -5   21.30    3.62
   3  -9   5   28.83    3.30
  -3   9   5   27.92    2.89
  -3   9   5   26.12    0.91
  -3  -9  -5   24.67    0.86
  -3 -10   0   15.77    0.47
  -3 -10   0   14.81    1.72
  -3 -10   0   16.95    1.45
  -3  10   0   15.63    0.57
  -3 -10   0   15.56    1.04
   3 -10   0   16.04    1.07
   3  10   0   15.96    0.53
   3 -10   0   16.14    1.46
  -3 -10   0   15.54    1.15
   3  10   0   15.69    0.51
   3 -10   0   15.83    0.43
  -3  10   0   16.26    0.49
  -3  10   0   17.53    1.11
  -3  10   0   15.33    1.47
  -3  10   0   15.38    0.42
   3 -10   0   16.75    1.21
   3 -10   0   19.00    1.86
  -3  10   0   14.35    1.90
  -3  10   0   16.10    1.21
   3  10   2    7.74    0.89
   3  10   2    7.52    0.34
  -3  10  -2    7.67    0.35
  -3  10  -2    7.07    0.32
  -3 -10   2    7.20    1.22
   3  10   2    7.59    0.96
   3  10   2    7.59    1.11
   3 -10  -2    7.23    0.91
  -3  10  -2    7.11    0.38
   3  10   2    7.03    1.46
   3  10   2    8.90    0.79
  -3  10  -2    6.84    0.29
   3  10   2    7.16    1.24
  -3  10  -2    8.46    1.06
  -3  10  -2    7.18    1.59
   3  10   2    8.25    0.84
  -3  10  -2    8.04    1.39
  -3 -10   2    7.69    0.96
  -3 -10   2    7.22    0.82
   3 -10  -2    5.26    1.43
   3  10   2    7.02    1.32
   3 -10  -2    4.47    1.05
  -3  10  -2    6.85    0.89
  -3 -10   2    6.48    1.32
   3 -10  -2    6.58    1.05
   3 -10   2    8.32    1.08
  -3  10   2    7.51    1.43
   3  10  -2    7.71    1.18
   3  10  -2    7.46    0.94
   3 -10   2    9.98    1.88
   3  10  -2    7.35    1.40
   3 -10   2    7.45    1.34
   3  10  -2    8.16    0.83
  -3 -10  -2    7.64    0.32
  -3  10   2    5.84    0.91
  -3  10   2    7.38    0.30
   3 -10   2    6.79    0.92
   3  10  -2    7.12    0.34
  -3  10   2    5.12    0.90
  -3  10   2    6.35    1.56
   3  10   4    1.60    0.94
   3  10   4    1.47    0.87
  -3  10  -4    0.31    0.24
   3  10   4    0.41    1.32
   3  10   4   -0.47    0.71
  -3  10  -4    0.81    1.10
  -3  10  -4    0.57    0.16
  -3 -10   4   -2.66    1.83
  -3 -10   4   -0.08    1.22
  -3  10  -4    0.67    1.46
  -3 -10   4    0.93    0.98
   3  10   4   -0.73    1.66
   3  10   4    1.49    1.86
   3  10   4    1.36    1.17
  -3  10  -4    0.69    0.16
  -3  10  -4   -0.04    0.93
   3  10   4   -1.26    0.94
  -3 -10   4   -0.41    0.76
  -3  10  -4    0.53    2.05
  -3  10  -4    0.66    0.20
   3  10   4    0.41    0.18
  -3 -10  -4    0.63    0.17
  -3  10   4    0.62    0.19
  -3  10   4   -1.65    1.11
   3  10  -4   -3.25    1.82
  -3  10   4   -0.51    1.53
   3  10  -4   -0.79    1.36
   3  10  -4    0.41    1.11
  -3  10   4    1.75    2.00
   3  10  -4    1.52    0.97
   3 -10   4    2.18    1.93
   3 -10   4   -0.10    0.80
  -3  10   4   -0.28    0.92
  -3  10   4    0.62    1.53
  -3  10   4    0.67    1.18
  -3  10   4   -0.58    0.96
   3 -10   4    2.72    1.38
   3  10  -4    0.65    0.18
  -3  10   4    3.34    2.43
   3 -10   4    0.56    0.99
  -3  10   4    0.44    0.15
  -3  10  -6    2.63    0.44
  -3  10  -6    2.86    0.36
  -3  10  -6    2.73    0.35
   3  10   6    3.16    0.42
   3  10  -6    3.01    0.35
  -3  10   6    2.91    0.35
  -3  10   6    2.80    0.41
  -3 -10  -6    2.74    0.37
  -3  11  -1  318.15    8.49
   3 -11  -1  334.11    9.79
  -3  11  -1  313.98    8.66
  -3 -11   1  328.79    8.35
  -3  11  -1  316.76    9.11
   3  11   1  315.70    7.72
   3  11   1  332.86    8.26
   3  11   1  328.08    8.40
   3 -11  -1  319.89    9.12
  -3 -11   1  328.58    8.88
  -3  11  -1  324.13    9.70
   3 -11  -1  320.55    8.49
  -3  11  -1  326.29    7.70
  -3  11  -1  323.20    7.77
  -3  11  -1  322.95    7.63
  -3 -11   1  321.96    8.48
   3  11   1  321.45    9.15
  -3  11  -1  326.76    7.71
  -3 -11   1  324.50    7.61
  -3 -11   1  322.24    9.34
   3  11   1  329.72    8.73
   3 -11  -1  325.92    8.68
   3 -11   1  307.80    9.73
   3  11  -1  318.79    7.73
  -3  11   1  327.30    7.67
  -3  11   1  300.30    9.11
  -3  11   1  318.67    7.78
   3  11  -1  331.76    8.22
  -3  11   1  309.57    9.73
  -3 -11  -1  325.42    8.33
  -3  11   1  318.06    8.53
   3 -11   1  310.08    8.71
  -3 -11  -1  314.83    7.66
   3  11  -1  336.60    8.37
  -3 -11  -1  328.40    8.21
  -3 -11  -1  329.63    8.66
   3  11  -1  318.37    7.63
   3 -11   1  304.75    8.50
   3  11  -1  336.60    9.11
   3  11  -1  336.34    8.69
  -3 -11  -1  324.39    9.06
   3  11  -1  330.26    7.70
   3 -11   1  305.28    9.15
  -3  11   1  309.95    8.69
   3  11   3  257.96    8.31
  -3 -11   3  261.94    7.86
   3  11   3  263.18    7.73
  -3  11  -3  256.61    6.29
   3  11   3  254.03    7.03
  -3  11  -3  255.98    6.31
  -3 -11   3  260.05    8.47
   3  11   3  254.49    8.54
   3  11   3  247.87    7.85
  -3  11  -3  252.63    6.23
  -3 -11   3  262.91    7.35
  -3 -11   3  261.66    7.13
   3  11   3  256.22    7.38
   3  11   3  264.03    6.27
   3  11   3  261.70    7.25
   3  11   3  258.64    7.19
   3  11  -3  256.02    7.86
  -3  11   3  248.18    6.31
   3  11  -3  260.93    8.57
  -3  11   3  259.69    8.84
   3 -11   3  248.39   11.02
  -3  11   3  248.46    7.26
   3 -11   3  282.58    8.51
  -3  11   3  249.41    7.50
  -3  11   3  262.43    7.47
  -3 -11  -3  261.02    6.26
   3  11  -3  256.22    7.35
  -3  11   3  256.84    9.28
  -3  11   3  249.20    6.21
   3  11  -3  259.07    7.16
  -3  11   3  254.81    8.08
   3 -11   3  270.98    8.11
   3  11  -3  253.17    6.26
  -3  11   3  263.22    7.79
   3 -11   3  261.85    9.36
  -3  11   3  266.77    8.45
   3  11   5  188.18    4.59
  -3  11  -5  180.60    4.50
  -3  11  -5  185.33    4.56
  -3 -11   5  176.71    6.32
  -3 -11   5  183.45    8.34
  -3 -11   5  172.86    5.93
  -3 -11   5  178.91    7.15
  -3  11  -5  183.53    4.64
  -3 -11  -5  185.03    4.58
  -3  11   5  174.92    6.24
   3  11  -5  188.18    6.55
   3  11  -5  189.92    7.91
  -3  11   5  187.03    6.76
   3  11  -5  181.09    6.91
   3  11  -5  179.15    4.54
  -3  11   5  181.93    4.64
  -3  11   5  176.15    7.61
   3  11  -5  185.00    8.35
  -3  11   5  182.48    9.02
  -3  11   5  183.29    4.52
  -3 -12   0    1.58    0.14
  -3  12   0    1.59    0.18
   3  12   0    1.93    0.61
  -3 -12   0    1.26    0.79
  -3  12   0    1.82    0.23
  -3  12   0    1.34    0.87
   3 -12   0    2.34    1.03
   3  12   0    2.37    0.93
  -3  12   0    1.72    0.57
   3 -12   0    2.02    0.65
   3  12   0    2.46    0.78
   3  12   0    1.85    0.50
  -3  12   0    1.78    0.67
  -3  12   0    1.60    1.20
   3 -12   0    1.68    0.14
  -3 -12   0    1.90    0.55
   3 -12   0    1.66    0.74
   3 -12   0    2.38    1.34
  -3 -12   0    3.02    0.71
   3  12   0    1.63    0.22
  -3 -12   0    1.10    1.06
  -3  12   0    1.55    0.11
   3  12   0    1.49    0.20
  -3 -12   2    2.20    0.96
  -3  12  -2    2.10    0.25
   3  12   2    2.02    1.12
  -3 -12   2    2.84    0.71
  -3  12  -2    2.10    0.21
  -3 -12   2    3.69    1.39
   3  12   2    1.85    0.24
   3  12   2    1.93    0.82
   3 -12  -2    1.57    0.83
  -3 -12   2    2.84    0.85
   3 -12  -2    1.27    0.70
   3 -12  -2    3.22    1.58
  -3  12  -2    2.20    0.18
   3  12   2    2.31    0.58
   3 -12  -2    0.70    1.02
   3  12   2    2.75    0.67
   3 -12   2    3.82    1.48
   3  12  -2    3.39    0.97
   3 -12   2    0.84    0.75
   3 -12   2    0.50    0.99
   3 -12   2    2.71    0.70
   3  12  -2    2.82    0.64
   3  12  -2    2.34    0.70
  -3  12   2    1.97    0.19
   3  12  -2    0.84    1.10
  -3  12   2    1.72    0.23
   3  12  -2    2.21    0.23
   3  12  -2    1.95    0.24
  -3 -12  -2    2.01    0.23
  -3  12  -4    4.31    2.45
   3  12   4    2.32    1.13
   3  12   4    1.09    2.22
  -3  12  -4    1.54    1.17
  -3  12  -4    2.27    0.34
  -3  12  -4    2.05    0.23
   3  12   4    2.54    1.10
  -3  12  -4    1.30    0.27
  -3  12  -4    2.25    1.34
  -3  12  -4    1.69    0.24
   3  12   4    2.68    1.31
   3  12   4    2.11    0.30
   3  12   4   -0.22    0.81
  -3 -12   4    1.04    1.17
  -3 -12   4    1.21    0.96
   3  12   4    2.19    1.65
   3  12   4    2.17    1.36
  -3 -12   4    0.58    2.11
   3  12   4    3.13    1.91
  -3  12  -4    2.78    1.79
  -3 -12   4    4.22    1.65
   3  12  -4    3.43    1.09
  -3  12   4    1.69    0.25
  -3  12   4    1.76    0.29
  -3  12   4    2.09    1.25
  -3 -12  -4    2.57    0.28
   3 -12   4    2.21    1.15
  -3  12   4    0.31    1.17
   3 -12   4    0.57    2.15
   3  12  -4    3.37    1.26
   3 -12   4    2.81    1.37
  -3  12   4    3.65    2.32
  -3  12   4    2.02    1.11
   3  12  -4    2.47    1.59
   3  12  -4    1.15    2.08
  -3  12   4    4.69    1.65
   3  12  -4    1.96    0.24
  -3  12   4    1.92    2.01
  -3  12   4    5.33    1.65
  -3  12   4   -3.44    2.51
   3 -12   4    3.35    1.81
  -3  12  -6    0.74    0.28
  -3  12  -6    1.38    0.39
  -3  12  -6    0.92    0.26
   3  12   6    1.13    0.30
   3  12  -6    0.85    0.27
  -3  12   6    0.96    0.25
  -3  12   6    1.33    0.31
  -3 -12  -6    1.67    0.32
   3  13   1   47.85    1.33
  -3  13  -1   49.83    1.24
  -3 -13   1   46.75    1.99
  -3 -13   1   47.65    2.53
   3 -13  -1   43.06    3.06
   3 -13  -1   46.29    2.09
   3  13   1   53.50    2.80
   3  13   1   52.47    2.08
   3 -13  -1   43.90    2.23
  -3  13  -1   43.82    1.37
  -3  13  -1   49.32    1.33
  -3 -13   1   48.79    3.01
   3 -13  -1   42.76    2.61
   3  13   1   49.21    1.91
   3  13   1   49.02    1.36
  -3 -13   1   50.23    1.21
  -3  13  -1   48.65    1.39
  -3 -13   1   47.65    2.16
   3  13   1   52.85    2.41
   3  13  -1   49.71    1.24
   3 -13   1   47.77    3.39
   3 -13   1   45.43    2.31
  -3 -13  -1   49.26    1.28
   3 -13   1   48.56    2.79
  -3 -13  -1   49.54    2.79
   3  13  -1   51.39    2.32
   3  13  -1   51.18    1.34
   3  13  -1   52.05    2.72
  -3 -13  -1   46.61    2.33
  -3  13   1   50.78    1.30
   3  13  -1   50.56    1.88
  -3 -13  -1   51.21    1.91
  -3 -13  -1   49.42    2.03
   3 -13   1   46.86    2.14
  -3  13   1   48.45    1.39
   3  13  -1   50.67    2.02
   3  13   3   30.47    1.88
  -3  13  -3   34.13    0.99
  -3  13  -3   33.00    2.24
  -3  13  -3   32.69    3.33
   3  13   3   33.40    2.94
   3  13   3   33.39    1.79
  -3  13  -3   37.04    2.82
   3  13   3   35.43    2.15
  -3  13  -3   33.58    1.06
   3  13   3   33.89    2.61
   3  13   3   35.92    2.39
  -3  13  -3   35.05    1.00
   3  13   3   33.41    3.20
   3  13   3   34.56    1.05
  -3  13  -3   33.77    2.04
   3  13   3   33.99    1.96
  -3 -13   3   30.37    3.14
  -3 -13   3   33.72    2.57
  -3 -13   3   35.67    2.14
  -3  13  -3   33.08    1.14
  -3 -13   3   34.75    1.89
  -3  13   3   34.67    1.09
  -3  13   3   35.58    2.09
  -3  13   3   31.74    2.79
  -3  13   3   33.23    3.51
   3  13  -3   33.67    1.03
   3 -13   3   33.04    2.20
  -3 -13  -3   34.17    1.01
   3 -13   3   33.16    1.93
   3 -13   3   40.54    3.47
   3  13  -3   37.20    2.12
   3  13  -3   36.44    1.92
   3  13  -3   36.87    2.55
  -3  13   3   35.12    1.01
  -3  13   3   36.12    2.32
   3 -13   3   36.12    2.71
   3  13  -3   35.68    3.22
  -3  13  -5   23.46    0.82
  -3  13  -5   23.57    0.87
   3  13   5   22.80    0.87
  -3  13  -5   22.39    0.78
  -3  13  -5   23.66    0.94
  -3  13   5   24.34    2.67
   3  13  -5   22.59    0.82
  -3  13   5   24.34    4.62
  -3 -13  -5   22.71    0.84
  -3  13   5   20.70    4.15
  -3  13   5   22.83    0.81
  -3  13   5   26.37    0.93
  -3  13   5   19.00    3.05
   3  14   0    2.71    0.63
  -3 -14   0    2.51    0.16
   3  14   0    2.52    0.22
  -3 -14   0    2.78    0.91
   3 -14   0    1.84    0.82
   3  14   0    2.84    0.94
   3  14   0    3.15    1.20
  -3 -14   0    1.77    1.05
  -3 -14   0    3.33    1.43
   3  14   0    2.38    0.27
   3  14   0    2.97    0.74
  -3  14   0    1.83    0.22
   3 -14   0    0.97    1.71
  -3 -14   0    3.07    0.76
   3 -14   0    1.96    0.20
   3 -14   0    2.32    1.27
   3 -14   0    2.52    0.96
  -3  14   0    2.11    0.23
  -3  14   0    2.13    0.14
   3  14   2    1.93    1.30
  -3 -14   2    2.39    0.72
   3 -14  -2    1.50    0.90
   3 -14  -2    2.16    0.75
  -3  14  -2    3.13    1.19
  -3  14  -2    3.60    1.79
  -3  14  -2    2.75    0.30
   3  14   2    2.38    0.81
   3  14   2    2.17    0.68
   3 -14  -2    3.81    1.78
  -3  14  -2    3.15    0.28
  -3  14  -2    2.56    0.23
  -3  14  -2    2.89    0.80
  -3  14  -2    4.79    1.03
  -3 -14   2    2.99    0.89
  -3  14  -2    2.70    0.20
   3  14   2    3.65    1.10
  -3 -14   2    3.04    1.46
   3  14   2    2.99    0.30
   3 -14  -2    1.66    1.16
  -3 -14   2    2.89    1.10
   3  14  -2    2.81    0.27
   3  14  -2    2.65    0.84
  -3  14   2    2.30    0.76
   3 -14   2    2.12    0.99
   3  14  -2    2.83    0.76
  -3  14   2    0.59    1.60
   3 -14   2    3.08    1.99
  -3 -14  -2    2.59    0.87
   3  14  -2    2.04    1.42
  -3  14   2    2.34    0.23
   3 -14   2    2.39    1.30
  -3  14   2    2.34    0.26
   3  14  -2    2.48    0.26
  -3 -14  -2    2.51    1.13
  -3 -14  -2    0.79    1.45
   3  14  -2    2.88    1.08
  -3 -14  -2    2.53    0.24
  -3 -14  -2    4.11    0.84
  -3  14   2    3.50    1.15
   3 -14   2    3.14    0.94
  -3 -14  -2    2.62    0.29
  -3  14   2    1.41    0.82
  -3  14  -4    4.23    1.51
   3  14   4    3.78    1.17
  -3  14  -4    1.48    1.18
  -3 -14   4    2.13    1.72
  -3 -14   4    6.39    2.52
  -3  14  -4    2.38    0.27
  -3  14  -4    1.83    0.38
   3  14   4    4.00    1.74
   3  14   4    1.66    1.92
  -3  14  -4    5.85    2.77
   3  14   4    4.34    2.29
  -3 -14   4    1.95    1.08
   3  14   4    1.60    1.19
   3  14   4    3.20    1.31
   3  14   4    2.47    1.41
  -3 -14   4    1.10    1.30
   3  14   4    5.48    2.65
  -3  14  -4    1.09    1.73
  -3  14  -4    2.65    0.32
   3  14   4    2.23    0.33
   3  14  -4    6.21    1.32
   3  14  -4    2.41    0.29
  -3  14   4    1.46    1.65
  -3  14   4    0.16    1.72
  -3  14   4    2.78    0.29
  -3 -14  -4    3.37    0.31
   3  14  -4    2.96    2.44
  -3  14   4    1.91    2.51
   3  14  -4    2.94    1.87
  -3  14   4    3.36    1.33
   3 -14   4    3.00    1.28
  -3  14   4    2.84    0.33
   3  14  -4    6.23    1.55
  -3  14   4    1.35    1.09
  -3  14   4    1.27    2.95
   3 -14   4   -0.14    2.49
   3 -14   4    4.58    1.14
  -3  14   4    3.19    2.18
  -3  14   4    4.56    1.46
   3 -14   4    0.15    1.61
   3  14   6    1.56    0.35
  -3  14  -6    2.19    0.38
  -3  14  -6    1.05    0.44
  -3  14  -6    2.02    0.37
   3  14  -6    1.71    0.36
  -3  14   6    1.59    0.40
  -3 -14  -6    2.02    0.41
  -3  14   6    2.24    0.38
   3 -15  -1  178.88    5.58
  -3 -15   1  172.09    5.84
  -3  15  -1  167.41    6.72
   3  15   1  175.67    5.20
  -3  15  -1  156.08    5.96
  -3 -15   1  177.22    5.36
  -3 -15   1  171.79    6.49
  -3 -15   1  174.92    5.14
   3  15   1  167.06    4.26
   3 -15  -1  176.24    5.32
  -3  15  -1  167.30    5.33
   3  15   1  173.66    6.16
   3  15   1  170.22    5.59
  -3  15  -1  171.35    4.27
   3 -15  -1  172.71    6.11
  -3  15  -1  164.90    5.56
   3  15   1  170.22    4.30
  -3  15  -1  175.43    4.16
   3 -15  -1  174.23    6.85
  -3 -15   1  178.19    4.11
  -3  15  -1  172.56    4.32
   3  15   1  175.52    5.01
  -3 -15  -1  175.26    4.19
   3  15  -1  176.95    4.29
   3 -15   1  174.10    5.37
  -3 -15  -1  174.39    5.68
  -3  15   1  167.81    5.27
   3  15  -1  175.82    5.16
   3  15  -1  171.13    5.55
   3  15  -1  169.99    4.28
  -3 -15  -1  179.31    5.05
  -3  15   1  170.31    4.32
   3 -15   1  170.61    6.16
  -3  15   1  171.15    6.82
  -3  15   1  174.70    5.54
  -3 -15  -1  176.15    6.24
  -3 -15  -1  173.21    5.21
   3 -15   1  172.00    5.60
   3  15  -1  171.61    4.14
  -3  15   1  175.83    6.09
   3 -15   1  180.33    7.02
   3  15  -1  171.83    6.07
   3  15  -1  175.98    4.99
  -3  15   1  177.10    4.25
   3  15   3  150.15    6.21
  -3 -15   3  152.28    6.49
   3 -15  -3  149.20    6.86
  -3 -15   3  160.52    5.78
   3  15   3  155.40    5.93
   3  15   3  155.64    6.65
  -3 -15   3  155.81    4.92
  -3  15  -3  160.36    3.86
  -3  15  -3  157.36    3.96
   3  15   3  155.46    5.64
  -3  15  -3  163.92    5.57
   3  15   3  158.99    4.89
   3 -15  -3  158.83    6.15
   3  15   3  153.19    5.04
  -3  15  -3  157.94    5.22
  -3  15  -3  160.04    6.99
   3  15   3  155.98    5.32
   3  15   3  160.65    5.12
   3 -15  -3  155.25    5.16
  -3  15  -3  158.86    6.22
  -3 -15   3  154.50    5.17
  -3  15  -3  155.91    3.85
  -3  15  -3  155.24    3.94
   3 -15  -3  152.00    5.42
  -3  15   3  150.96    3.96
  -3  15   3  157.18    6.84
  -3  15   3  165.03    6.14
   3 -15   3  152.09    6.00
   3  15  -3  152.84    5.75
  -3  15   3  152.38    5.39
   3 -15   3  157.49    5.11
   3 -15   3  158.71    6.94
  -3 -15  -3  157.52    3.89
   3  15  -3  155.05    5.19
   3  15  -3  157.74    3.95
   3  15  -3  156.54    6.55
   3 -15   3  149.65    5.34
  -3  15   3  148.98    5.10
   3  15  -3  156.01    3.93
  -3  15   3  156.82    3.88
   3  15  -3  157.40    4.96
  -3  15  -5  115.06    2.96
  -3  15  -5  116.19    3.16
  -3  15  -5  113.93    3.06
  -3  15  -5  115.82    3.03
   3  15   5  113.44    3.08
  -3 -15  -5  117.79    3.06
  -3  15   5  123.36    5.98
  -3  15   5  127.47    6.60
  -3  15   5  133.40    8.14
  -3  15   5  117.15    9.42
   3  15  -5  113.09    3.05
  -3  15   5  114.45    3.01
  -3  15   5  114.46    3.14
  -3  16   0   21.54    1.58
   3 -16   0   19.15    2.28
  -3 -16   0   19.44    1.61
  -3  16   0   20.73    1.77
  -3  16   0   19.18    0.66
  -3  16   0   19.10    2.13
  -3 -16   0   20.82    2.06
   3  16   0   18.01    1.75
   3 -16   0   16.76    1.77
   3 -16   0   24.70    3.12
  -3  16   0   18.49    0.69
  -3 -16   0   19.31    0.56
  -3 -16   0   19.53    1.44
   3  16   0   17.28    2.19
  -3  16   0   19.47    0.53
   3  16   0   18.03    1.42
   3  16   0   19.61    1.29
   3 -16   0   18.91    1.58
   3  16   0   19.91    0.70
   3  16   0   18.99    0.66
  -3  16   0   15.96    2.75
  -3 -16   0   16.21    2.53
  -3  16  -2   10.30    1.68
   3  16   2    9.99    1.77
  -3 -16   2   10.62    1.34
   3 -16  -2   16.49    2.95
  -3  16  -2   11.06    1.50
   3 -16  -2    8.90    1.66
  -3 -16   2   12.27    2.07
   3  16   2   10.55    0.53
   3  16   2   11.13    1.40
  -3  16  -2   10.72    0.50
  -3  16  -2    8.08    1.71
   3 -16  -2    7.38    1.29
   3  16   2   13.62    2.48
  -3 -16   2    6.38    1.95
  -3  16  -2   10.09    0.39
   3  16   2   10.38    1.21
  -3  16  -2   20.51    2.99
  -3 -16   2   10.42    1.56
  -3  16  -2   10.67    0.44
   3 -16  -2   10.34    1.58
  -3 -16  -2   11.54    2.13
  -3  16   2   10.97    2.20
  -3  16   2    8.10    2.26
   3  16  -2   10.86    1.22
  -3 -16  -2   12.54    1.95
   3 -16   2   10.77    2.07
   3  16  -2    6.72    1.87
  -3  16   2   13.00    1.75
   3  16  -2   10.15    0.50
   3 -16   2   10.01    1.64
   3 -16   2    8.30    1.33
  -3  16   2   10.47    0.46
   3  16  -2    8.63    1.38
   3  16  -2    9.59    1.83
   3 -16   2   12.34    2.41
   3  16  -2   10.66    0.47
  -3 -16  -2   10.24    1.25
  -3 -16  -2   12.29    1.47
  -3 -16  -2   10.30    0.42
  -3  16   2   10.65    1.47
  -3  16   2   10.35    0.50
   3  16   4    6.05    2.40
   3  16   4    1.61    2.78
  -3  16  -4    1.43    0.24
   3  16   4    1.16    1.19
   3  16   4    1.51    0.29
  -3 -16   4   -0.46    1.94
   3  16   4    1.44    1.39
  -3 -16   4    0.36    1.46
  -3 -16   4    0.00    2.84
  -3  16  -4    1.47    0.27
  -3  16  -4    2.40    0.41
  -3 -16   4    1.98    1.25
  -3  16  -4    1.85    0.31
   3 -16   4    0.10    2.76
   3  16  -4    0.73    2.78
   3 -16   4    1.93    1.74
   3 -16   4    1.17    1.33
   3 -16   4    3.92    2.19
   3  16  -4    1.88    0.30
  -3  16   4    5.45    3.32
   3  16  -4    2.53    1.71
  -3  16   4    1.82    1.64
  -3  16   4    6.20    2.07
  -3  16   4    1.81    0.32
  -3  16   4    1.48    2.46
   3  16  -4    1.23    0.28
  -3 -16  -4    1.69    0.28
   3  16  -4   -1.00    2.15
   3  16  -4    3.33    1.58
  -3  16   4    1.32    0.27
   3  17   1  225.12    6.49
  -3  17  -1  220.74    6.62
  -3  17  -1  215.11    8.29
  -3 -17   1  232.36    7.32
   3  17   1  223.88    6.96
   3  17   1  227.17    6.27
  -3 -17   1  228.98    6.71
   3 -17  -1  210.21    6.77
  -3 -17   1  231.33    5.21
  -3  17  -1  215.94    5.42
   3 -17  -1  214.05    6.53
   3  17   1  212.42    5.38
   3  17   1  221.71    7.60
  -3  17  -1  222.92    5.27
  -3 -17   1  224.74    6.43
   3 -17  -1  223.64    8.32
   3 -17  -1  206.50    7.40
  -3  17  -1  220.44    7.56
  -3 -17   1  222.20    8.01
  -3  17  -1  218.47    6.90
   3  17   1  221.17    5.45
  -3  17  -1  219.64    5.44
  -3  17   1  220.85    8.24
   3  17  -1  219.79    6.24
  -3 -17  -1  219.61    5.30
   3 -17   1  210.81    7.46
   3  17  -1  223.96    5.44
  -3  17   1  204.03    5.55
  -3  17   1  223.93    7.51
  -3 -17  -1  219.42    6.31
  -3 -17  -1  218.85    6.53
   3  17  -1  224.91    6.48
   3 -17   1  218.48    8.31
   3  17  -1  215.56    5.39
  -3  17   1  218.85    5.45
   3  17  -1  223.75    6.96
   3  17  -1  218.64    5.24
  -3 -17  -1  218.77    7.79
   3 -17   1  221.37    6.90
  -3 -17  -1  223.71    7.12
  -3  17   1  224.98    6.61
  -3  17   1  219.08    6.85
   3  17  -1  215.99    7.53
   3 -17   1  213.32    6.58
  -3 -17   3  188.57    6.76
  -3  17  -3  187.27    6.10
  -3 -17   3  189.30    7.62
   3 -17  -3  180.51    8.26
  -3  17  -3  189.47    4.60
  -3  17  -3  180.46    7.96
  -3  17  -3  183.39    4.68
  -3  17  -3  188.94    4.72
   3 -17  -3  188.70    6.46
   3  17   3  184.88    5.73
  -3 -17   3  185.99    5.80
  -3  17  -3  179.46    7.12
   3  17   3  187.89    5.99
   3 -17  -3  195.00    6.16
   3 -17  -3  201.91    7.37
  -3 -17   3  189.52    6.11
   3  17   3  192.09    4.72
  -3  17  -3  185.69    6.40
   3  17   3  182.43    7.26
  -3  17  -3  185.47    4.59
   3  17   3  184.67    6.60
   3  17  -3  186.11    6.71
  -3  17   3  181.92    6.28
   3 -17   3  180.25    5.97
   3  17  -3  187.39    5.81
  -3  17   3  182.54    7.91
  -3  17   3  183.08    5.99
  -3  17   3  191.37    7.10
   3 -17   3  185.18    8.05
   3  17  -3  193.24    7.63
  -3  17   3  189.15    4.64
   3 -17   3  190.26    7.10
  -3  17   3  189.99    4.74
  -3 -17  -3  187.53    4.62
   3 -17   3  181.17    6.31
   3  17  -3  193.66    4.73
   3  17  -3  184.22    4.68
   3  17  -3  187.99    6.07
   3  17   5  124.27    3.37
  -3  17  -5  128.65    3.45
  -3  17  -5  129.02    3.34
  -3  17  -5  126.98    3.31
  -3  17  -5  129.15    3.24
  -3  17   5  128.68    3.30
  -3  17   5  129.78    3.44
  -3 -17  -5  125.93    3.33
   3  17  -5  123.53    3.42
   3  17  -5  128.72    3.35
   3  18   0   26.03    0.85
   3  18   0   28.95    2.25
  -3 -18   0   26.46    2.00
   3 -18   0   28.15    3.46
   3 -18   0   25.64    2.14
  -3  18   0   23.21    0.90
   3  18   0   29.00    2.84
  -3 -18   0   25.49    3.24
  -3  18   0   26.58    0.71
   3  18   0   26.90    1.82
  -3  18   0   30.90    3.50
  -3  18   0   26.66    1.93
   3  18   0   25.09    0.89
  -3 -18   0   26.87    1.79
   3 -18   0   23.87    1.86
  -3  18   0   29.48    2.72
  -3  18   0   25.65    2.17
   3 -18   0   25.64    2.65
  -3 -18   0   27.06    2.56
  -3 -18   0   26.71    0.73
   3  18   0   26.27    1.62
  -3  18   0   26.41    0.89
  -3  18  -2   15.03    1.75
   3  18   2   17.62    2.20
  -3  18  -2   13.96    0.57
   3 -18  -2   16.05    1.97
   3 -18  -2   15.64    1.72
   3  18   2   15.26    1.47
   3  18   2   16.45    1.70
   3 -18  -2   10.88    2.79
   3  18   2   14.67    0.58
  -3 -18   2    9.30    2.44
  -3 -18   2   14.68    2.39
  -3  18  -2   11.89    2.94
  -3  18  -2   15.00    0.62
   3 -18  -2   10.73    2.15
  -3  18  -2   14.58    2.02
  -3  18  -2   14.76    0.63
  -3 -18   2   17.58    1.67
   3  18   2   14.34    2.88
  -3 -18   2   14.72    1.92
   3  18   2   13.96    0.84
  -3  18  -2   11.63    2.55
  -3 -18  -2   17.01    1.79
   3 -18   2   11.92    1.70
  -3  18   2   15.21    0.59
   3  18  -2   13.73    1.69
  -3  18   2   14.10    0.62
  -3 -18  -2   13.19    1.47
  -3  18   2   14.04    1.92
   3  18  -2   14.70    0.60
   3 -18   2   17.45    2.11
   3  18  -2   11.05    2.39
   3  18  -2   13.88    0.71
   3  18  -2   15.91    1.53
   3  18  -2   14.50    2.21
  -3 -18  -2   17.60    3.02
  -3 -18  -2   14.32    2.25
  -3  18   2   14.11    1.67
  -3  18   2   13.33    2.42
   3 -18   2   13.10    2.42
  -3  18   2   16.46    3.35
   3 -18   2    9.27    2.85
  -3 -18  -2   14.74    0.54
  -3  18  -4    0.63    0.22
  -3  18  -4    0.63    0.31
  -3  18  -4    0.99    0.22
  -3  18  -4    0.29    0.20
   3  18   4    1.01    0.29
  -3  18   4   -0.58    3.76
  -3  18   4    0.82    0.25
  -3  18   4    4.08    1.91
  -3  18   4    2.91    3.02
  -3 -18  -4    0.90    0.22
  -3  18   4    0.67    0.23
   3  18  -4    0.69    0.23
   3  18  -4    0.34    0.26
  -3  18   4   -2.73    2.15
  -3 -19   1   29.04    2.19
  -3  19  -1   23.49    2.38
  -3  19  -1   25.38    3.02
   3 -19  -1   27.03    2.06
  -3  19  -1   26.90    0.92
  -3 -19   1   22.50    2.63
  -3 -19   1   24.36    3.46
   3  19   1   25.91    2.41
  -3 -19   1   27.24    0.70
  -3  19  -1   26.64    0.91
   3 -19  -1   29.16    2.37
  -3  19  -1   23.48    3.70
  -3  19  -1   26.68    2.11
  -3  19  -1   26.65    0.76
   3  19   1   28.22    1.77
   3  19   1   26.27    0.87
   3 -19  -1   20.52    2.85
   3  19   1   29.02    2.00
   3  19   1   26.70    0.94
   3  19   1   28.61    3.10
  -3 -19   1   28.02    1.93
   3 -19  -1   20.69    3.77
  -3  19   1   28.78    2.94
   3 -19   1   22.76    2.20
  -3  19   1   24.87    3.74
   3  19  -1   25.64    1.70
   3 -19   1   28.46    2.97
   3 -19   1   25.44    1.99
   3  19  -1   27.39    2.39
   3 -19   1   26.32    3.69
  -3  19   1   27.79    2.35
  -3 -19  -1   30.29    2.75
   3  19  -1   27.63    0.94
  -3  19   1   26.95    0.92
  -3  19   1   27.52    0.70
  -3 -19  -1   28.13    1.88
  -3  19   1   25.36    2.04
   3  19  -1   26.64    0.87
  -3  19   1   26.48    0.87
  -3 -19  -1   27.22    3.41
  -3 -19  -1   27.06    0.79
  -3 -19  -1   25.68    2.07
   3  19  -1   25.94    1.91
   3  19  -1   25.49    3.05
  -3  19  -3   18.11    3.95
  -3 -19   3   22.93    4.22
   3 -19  -3   19.31    3.35
   3  19   3   16.98    1.93
  -3  19  -3   17.64    2.37
   3 -19  -3   15.12    2.14
   3 -19  -3   13.77    2.51
  -3  19  -3   17.19    0.62
  -3  19  -3   17.48    2.83
   3 -19  -3   16.09    3.75
   3  19   3   18.60    2.27
  -3 -19   3   18.43    2.00
   3  19   3   18.25    3.77
  -3  19  -3   19.03    3.59
   3  19   3   18.29    0.77
  -3  19  -3   16.83    0.76
  -3  19  -3   16.76    0.70
  -3 -19   3   14.62    2.32
  -3  19  -3   18.81    0.65
  -3 -19   3   17.56    2.99
   3  19   3   22.00    2.94
  -3  19   3   17.63    0.68
   3 -19   3   15.65    3.22
   3  19  -3   16.46    0.69
  -3  19   3   16.02    3.19
  -3 -19  -3   16.98    0.65
  -3  19   3   21.52    2.12
  -3  19   3   19.35    3.52
   3  19  -3   17.20    0.76
   3  19  -3   19.79    2.91
   3  19  -3   19.37    1.99
   3  19  -3   18.56    2.25
   3 -19   3   15.53    2.13
   3 -19   3   28.90    4.76
   3 -19   3   19.57    2.59
   3  19  -3   13.97    2.94
  -3  19   3   19.07    2.43
  -3  19   3   17.00    0.73
  -3  19  -5   11.12    0.57
  -3  19  -5   10.33    0.53
  -3  19  -5   10.82    0.74
  -3  19  -5   10.48    0.59
   3  19   5   11.56    0.69
   3  19  -5   10.11    0.70
   3  19  -5   11.40    0.63
  -3  19   5   11.13    0.60
  -3 -19  -5   11.03    0.61
  -3  19   5   11.07    0.67
  -3 -20   0   20.91    2.09
  -3  20   0   26.77    3.82
   3 -20   0   23.98    2.31
  -3  20   0   23.68    2.77
  -3 -20   0   23.37    2.75
  -3 -20   0   24.46    0.68
  -3  20   0   24.44    0.67
  -3 -20   0   28.00    3.57
  -3  20   0   25.09    0.84
  -3  20   0   23.20    0.84
   3  20   0   23.10    0.80
   3 -20   0   23.44    3.81
  -3 -20   0   22.97    1.86
   3 -20   0   20.98    2.92
   3  20   0   18.20    2.89
   3  20   0   22.22    1.88
   3  20   0   23.87    2.37
  -3  20   0   23.08    2.23
   3  20   0   25.60    1.72
   3 -20   0   22.69    2.00
  -3  20   0   21.67    1.90
  -3  20  -2   11.86    0.57
  -3  20  -2    8.66    1.67
   3 -20  -2    9.75    1.82
   3  20   2   11.95    0.64
  -3  20  -2   10.08    2.17
   3 -20  -2    9.63    3.22
   3  20   2   18.85    2.53
   3  20   2   13.17    1.65
   3 -20  -2   10.94    2.15
   3  20   2   13.21    1.90
   3 -20  -2    7.71    2.20
  -3 -20   2    9.95    2.07
  -3  20  -2    8.21    3.08
  -3 -20   2    9.83    1.64
  -3 -20   2   13.21    2.02
   3  20   2    7.18    2.39
  -3  20  -2   11.67    0.47
  -3 -20   2   17.88    3.63
   3  20   2   12.12    0.53
  -3  20  -2   12.46    0.60
  -3  20  -2    9.58    1.80
  -3  20   2   11.69    0.57
   3 -20   2   11.10    1.84
  -3  20   2   13.01    2.13
  -3 -20  -2   12.00    0.49
   3  20  -2    3.75    2.38
   3  20  -2   12.82    2.15
   3 -20   2   15.54    3.32
  -3 -20  -2    7.25    2.45
   3 -20   2   13.61    2.97
   3  20  -2   11.92    1.83
   3  20  -2   13.79    1.62
   3  20  -2   11.07    0.61
  -3 -20  -2   10.98    1.82
  -3 -20  -2   14.02    1.60
  -3  20   2   13.39    1.81
   3  20  -2   12.02    0.54
   3 -20   2   11.11    2.19
  -3 -20  -2   14.75    2.47
  -3  20   2   14.15    3.09
  -3  20   2   11.56    0.54
   3  20   4    0.37    0.29
  -3  20  -4    0.39    0.22
  -3  20  -4    0.56    0.23
  -3  20  -4    0.19    0.22
  -3  20  -4    0.47    0.32
   3  20  -4    0.38    0.29
   3  20  -4    0.22    0.23
  -3  20   4    0.31    0.23
  -3  20   4    0.68    0.25
  -3 -20  -4    0.50    0.23
   3 -21  -1  142.14    5.02
  -3  21  -1  132.80    5.98
  -3 -21   1  138.35    5.06
   3 -21  -1  138.20    5.36
  -3 -21   1  141.99    6.76
   3  21   1  133.43    3.52
  -3 -21   1  135.11    4.72
  -3  21  -1  136.59    3.47
   3 -21  -1  134.73    7.27
  -3  21  -1  134.87    3.30
   3  21   1  134.44    3.43
  -3  21  -1  135.39    4.88
  -3 -21   1  136.47    5.72
   3  21   1  134.91    6.08
   3  21   1  135.83    4.76
   3  21   1  127.81    4.44
  -3 -21   1  137.00    3.21
  -3  21  -1  133.79    6.96
  -3  21  -1  132.39    3.47
  -3  21  -1  140.76    5.29
   3 -21  -1  142.24    6.27
   3  21   1  130.21    5.30
   3  21  -1  135.41    4.51
   3  21  -1  133.06    4.76
  -3 -21  -1  137.49    5.01
   3  21  -1  122.77    6.00
  -3 -21  -1  134.55    3.32
  -3 -21  -1  136.71    4.70
  -3  21   1  135.36    3.43
   3 -21   1  124.74    5.17
  -3 -21  -1  132.59    6.55
   3  21  -1  133.38    3.43
  -3  21   1  133.44    5.12
   3 -21   1  123.49    4.82
   3 -21   1  128.08    7.03
   3  21  -1  123.29    5.26
  -3  21   1  138.33    6.91
  -3  21   1  132.93    5.83
  -3  21   1  135.43    4.84
   3 -21   1  119.86    5.88
  -3  21   1  136.27    3.49
  -3  21   1  140.17    3.23
  -3 -21  -1  138.33    5.73
   3  21  -1  137.21    3.52
   3  21   3  114.14    3.01
  -3  21  -3  117.27    2.94
  -3  21  -3  117.14    3.11
   3  21   3  112.19    3.09
  -3  21  -3  116.66    3.04
   3  21  -3  114.35    3.05
  -3 -21  -3  114.33    2.97
  -3  21   3  114.90    3.09
  -3  21   3  112.66    3.00
   3  21  -3  119.29    3.14
  -3  21  -5   95.16    2.52
   3  21   5   86.66    2.60
  -3  21  -5   90.63    2.51
  -3  21  -5   92.10    2.42
  -3  21  -5   94.72    2.70
  -3  21   5   97.99    2.90
   3  21  -5   89.65    2.68
   3  21  -5   92.63    2.58
  -3 -21  -5   92.08    2.65
  -3  21   5   88.82    2.51
   3  22   0   10.01    1.58
  -3 -22   0    8.98    1.74
   3  22   0   11.46    1.84
  -3 -22   0   10.82    2.13
  -3  22   0   11.69    0.40
  -3  22   0    6.07    1.96
  -3  22   0    7.24    1.64
   3  22   0   11.88    0.63
   3  22   0   11.25    2.39
  -3 -22   0   11.67    0.41
   3  22   0    9.53    2.45
  -3  22   0    9.56    1.79
  -3  22   0   10.83    0.54
   3 -22   0    7.23    1.51
  -3 -22   0   13.32    2.14
   3 -22   0    8.68    1.81
  -3  22   0   11.91    0.58
  -3 -22   0    7.18    2.72
   3 -22   0    4.73    3.17
   3  22   0   11.32    0.52
  -3  22   0   13.44    3.12
   3 -22   0    7.41    2.27
   3 -22  -2    4.09    1.36
   3  22   2    7.48    0.43
  -3 -22   2    4.67    2.24
   3  22   2    7.74    0.57
  -3  22  -2    6.68    0.36
  -3 -22   2   11.59    2.29
  -3  22  -2    6.86    0.49
  -3 -22   2    4.81    1.43
  -3  22  -2    6.80    0.45
  -3 -22   2    6.87    3.14
   3 -22  -2    0.02    3.21
   3 -22  -2    1.07    2.00
   3 -22  -2    6.27    1.72
  -3  22   2    6.78    0.45
   3  22  -2    9.49    2.70
  -3 -22  -2    7.38    0.40
  -3 -22  -2    9.19    3.37
  -3 -22  -2    7.39    1.80
   3  22  -2    7.37    0.55
   3 -22   2    5.82    2.26
  -3  22   2    7.46    0.45
   3  22  -2   11.50    2.32
   3  22  -2    7.14    0.44
  -3 -22  -2    9.59    1.88
   3 -22   2   12.20    3.73
   3  22  -2    5.51    3.53
   3  22  -2    8.91    2.23
   3 -22   2    7.00    1.76
   3 -22   2    6.94    1.55
  -3 -22  -2    7.02    2.27
  -3  22  -4    1.50    0.31
   3  22   4    1.22    0.36
  -3  22  -4    0.91    0.36
  -3  22  -4    1.07    0.27
  -3 -22  -4    1.34    0.29
   3  22  -4    1.74    0.37
   3  22  -4    1.15    0.39
  -3  22   4    1.21    0.31
  -3  22   4    1.43    0.29
  -3 -23   1   38.06    2.57
   3  23   1   38.49    2.73
   3  23   1   35.82    1.14
  -3  23  -1   36.19    1.17
  -3 -23   1   38.73    3.73
   3 -23  -1   35.07    3.17
   3  23   1   35.41    1.24
  -3 -23   1   37.42    2.93
   3  23   1   36.36    3.03
   3  23   1   36.77    3.71
   3 -23  -1   34.08    5.17
  -3  23  -1   36.33    1.20
   3 -23  -1   35.43    2.75
   3  23   1   31.11    4.42
  -3 -23   1   41.92    4.85
   3 -23  -1   36.03    4.06
   3 -23   1   34.37    2.69
  -3 -23  -1   28.94    4.72
  -3  23   1   35.10    1.15
  -3 -23  -1   38.64    3.92
   3  23  -1   36.20    2.35
   3  23  -1   38.75    3.29
   3 -23   1   37.37    3.18
  -3  23   1   37.45    0.96
  -3 -23  -1   35.53    2.93
   3 -23   1   35.97    5.21
   3  23  -1   31.31    3.95
   3  23  -1   35.15    2.63
  -3  23   1   37.83    1.19
   3 -23   1   35.74    3.97
  -3 -23  -1   34.13    2.55
   3  23  -1   36.30    1.25
  -3 -23  -1   35.69    1.03
   3  23  -1   35.17    1.13
  -3  23  -3   24.35    0.92
  -3  23  -3   25.19    1.01
   3  23   3   24.49    1.01
   3  23   3   25.12    0.90
  -3  23  -3   25.95    0.84
  -3  23   3   25.61    0.97
   3  23  -3   25.06    0.93
  -3  23   3   24.40    0.91
  -3 -23  -3   24.40    0.87
   3  23  -3   24.90    1.04
  -3 -24   0    1.92    0.26
  -3  24   0    2.36    0.41
   3 -24   0    5.85    1.82
   3 -24   0    3.46    2.02
  -3  24   0    2.71    0.25
  -3  24   0    2.55    0.34
   3 -24   0    6.11    4.36
   3 -24   0    2.12    2.76
   3  24   0    2.15    0.38
   3  24   0    2.16    0.32
  -3  24  -2    2.66    0.37
   3  24   2    2.23    0.33
  -3  24  -2    2.97    0.29
  -3  24  -2    2.24    0.43
   3  24   2    3.55    0.53
  -3 -24  -2    3.10    0.33
  -3  24   2    3.07    0.37
   3  24  -2    2.85    0.35
   3  24  -2    2.07    0.41
  -3  24   2    2.54    0.38
  -3  24  -4    3.27    0.38
   3  24   4    2.80    0.42
   3  24   4    2.38    0.47
  -3  24  -4    1.92    0.43
  -3  24  -4    2.17    0.44
  -3  24   4    2.53    0.47
  -3 -24  -4    2.67    0.40
   3  24  -4    2.53    0.50
  -3  24   4    2.23    0.43
   3  24  -4    2.98    0.44
  -3  25  -1   39.45    1.27
  -3  25  -1   39.14    1.30
   3  25   1   40.20    1.37
   3  25   1   38.26    1.23
  -3  25  -1   39.11    1.11
   3  25  -1   40.62    1.25
  -3 -25  -1   39.39    1.12
  -3  25   1   38.29    1.26
  -3  25   1   39.10    1.28
   3  25  -1   39.36    1.36
  -3  25  -3   37.42    1.25
   3  25   3   37.74    1.37
   3  25   3   38.30    1.24
  -3  25  -3   37.59    1.16
  -3  25  -3   38.79    1.37
   3  25  -3   38.06    1.27
   3  25  -3   38.95    1.42
  -3  25   3   38.41    1.32
  -3  25   3   36.94    1.25
  -3 -25  -3   38.08    1.20
   3  26   0    0.16    0.21
  -3  26   0    0.36    0.22
  -3  26   0    0.70    0.23
  -3 -26   0    0.35    0.19
   3  26   0    0.41    0.30
  -3  26   0    0.14    0.27
  -3  26  -2    2.28    0.38
   3  26   2    2.32    0.37
   3  26   2    2.07    0.44
  -3  26  -2    2.58    0.47
  -3  26  -2    1.62    0.30
   3  26  -2    2.50    0.47
   3  26  -2    2.45    0.36
  -3 -26  -2    2.27    0.36
  -3  26   2    2.46    0.41
  -3  26   2    1.65    0.37
  -3  27  -1   40.78    1.15
  -3  27  -1   39.95    1.37
  -3  27  -1   40.20    1.30
   3  27   1   39.09    1.27
   3  27   1   40.54    1.44
  -3  27   1   40.27    1.32
   3  27  -1   40.66    1.28
   3  27  -1   38.98    1.42
  -3 -27  -1   40.35    1.16
  -3  27   1   39.43    1.32
  -3  27  -3   42.45    1.25
  -3  27  -3   38.85    1.31
   3  27   3   39.64    1.32
   3  27   3   37.36    1.45
  -3  27  -3   40.96    1.45
   3  27  -3   41.74    1.53
  -3  27   3   38.19    1.32
   3  27  -3   40.41    1.38
  -3  27   3   38.71    1.37
  -3 -27  -3   39.89    1.26
   3  28   0    2.85    0.55
  -3  28   0    2.66    0.40
   3  28   0    3.12    0.38
  -3  28   0    2.56    0.47
  -3  28  -2    2.94    0.36
  -3  28  -2    3.70    0.46
   3  28   2    3.52    0.44
   3  28   2    2.62    0.52
  -3  28  -2    3.45    0.56
   3  28  -2    2.57    0.51
  -3  28   2    3.79    0.44
   3  28  -2    2.95    0.42
  -3  28   2    3.24    0.47
  -3 -28  -2    4.02    0.43
  -3  29  -1    1.01    0.31
   3  29   1    0.87    0.42
   3  29   1    0.50    0.28
  -3  29  -1    0.69    0.36
  -3  29  -1    0.61    0.25
   3  29  -1    1.10    0.42
  -3  29   1    1.30    0.31
   3  29  -1    1.03    0.30
  -3  29   1    0.83    0.32
  -3 -29  -1    0.91    0.27
  -3  30   0    8.74    0.59
   3  30   0    8.87    0.75
  -3  30   0    8.96    0.66
   3  30   0    9.03    0.56
  -4   0   0  390.30    9.40
  -4   0   0  396.47    9.36
  -4   0  -2  361.57    8.97
  -4   0  -2  361.72    8.86
  -4   0   2  361.34    9.32
  -4   0   2  361.15    9.35
   4   0   2  357.12    9.13
  -4   0   2  349.10    8.50
  -4   0  -2  358.24    9.23
  -4   0  -2  354.25    9.57
  -4   0   2  360.80    9.73
   4   0   2  352.53    8.79
  -4   0   2  356.14    9.68
  -4   0   2  358.51    9.04
   4   0   2  354.12    8.89
   4   0   2  353.63    8.40
  -4   0  -2  340.89    8.56
  -4   0  -2  338.99    8.49
   4   0   2  358.97    9.44
  -4   0   2  361.71    8.93
  -4   0   2  362.86    8.92
   4   0  -2  340.40    8.40
  -4   0   2  358.19    9.03
  -4   0  -4  348.70   10.32
   4   0   4  360.30    8.44
  -4   0   4  336.47    8.47
  -4   0   4  360.53    9.51
  -4   0   4  362.20    9.54
  -4   0   4  359.76    9.77
   4   0   4  348.76    9.35
  -4   0   4  356.16   10.34
  -4   0   4  360.51    9.76
  -4   0  -4  336.46    8.48
  -4   0   4  352.68   11.07
   4   0   4  347.85    9.56
  -4   0  -4  344.07   11.07
  -4   0   4  353.95   11.16
   4   0   4  358.71   10.81
  -4   0  -4  353.24    9.51
   4   0  -4  348.99    8.38
   4   0   4  352.56   10.11
  -4   0  -4  354.54    9.76
  -4   0   4  352.03   10.35
  -4   0  -6  225.05    5.58
   4   0  -6  224.84    5.46
  -4   0   6  222.16    5.51
  -4   0  -6  224.20    5.53
   4   0   6  223.96    5.54
  -4  -1   1    5.07    0.76
  -4  -1   1    5.94    0.27
  -4   1  -1    5.82    0.27
  -4  -1   1    5.78    0.58
  -4   1  -1    5.76    0.36
  -4   1  -1    5.59    0.42
  -4  -1   1    5.58    0.28
  -4   1  -1    4.98    0.63
  -4  -1   1    6.17    0.40
  -4   1  -1    5.50    0.31
  -4  -1   1    5.52    0.68
  -4  -1   1    5.13    0.70
  -4  -1   1    6.73    0.47
  -4  -1   1    5.71    0.46
  -4   1  -1    5.94    0.54
   4  -1  -1    5.77    0.23
  -4  -1   1    5.32    0.52
  -4   1   1    5.57    0.30
  -4   1   1    5.20    0.51
   4  -1   1    5.49    0.56
  -4   1   1    4.94    0.85
  -4   1   1    5.80    0.29
   4  -1   1    6.03    0.45
  -4  -1  -1    5.60    0.27
   4   1  -1    5.41    0.20
  -4   1   1    6.75    0.93
  -4  -1  -1    6.08    0.32
   4   1  -1    5.91    0.25
   4  -1   1    6.29    0.70
  -4   1   1    6.45    0.47
  -4   1   1    6.05    0.68
   4  -1   1    5.30    0.26
  -4   1   1    6.61    0.59
   4  -1   1    6.51    0.40
  -4   1   1    5.70    0.76
  -4   1   1    5.79    0.50
  -4   1  -3   25.58    1.98
  -4   1  -3   26.05    0.88
   4   1   3   26.84    1.45
  -4  -1   3   25.71    2.37
  -4  -1   3   25.81    1.55
   4   1   3   28.02    1.34
   4   1   3   26.30    0.75
  -4   1  -3   26.62    0.82
  -4   1  -3   27.73    1.63
  -4   1  -3   25.28    2.41
  -4   1  -3   26.05    1.42
  -4  -1   3   26.11    0.80
  -4  -1   3   26.20    1.41
  -4  -1   3   26.08    1.93
  -4  -1   3   23.08    2.36
  -4  -1   3   28.51    1.61
  -4  -1   3   27.06    1.95
  -4  -1   3   25.72    1.42
   4  -1  -3   26.50    0.71
   4   1   3   26.22    2.17
   4   1   3   23.28    1.70
  -4  -1  -3   26.51    0.82
  -4   1   3   26.02    1.58
   4  -1   3   24.84    1.33
  -4   1   3   25.78    1.97
  -4   1   3   25.92    1.45
   4  -1   3   27.50    1.80
  -4   1   3   28.62    1.67
   4  -1   3   25.04    1.46
  -4   1   3   26.80    0.82
  -4   1   3   26.49    1.96
  -4   1   3   26.14    1.44
  -4  -1  -3   25.64    0.88
   4  -1   3   25.86    2.19
  -4   1   3   29.92    2.45
  -4   1   3   26.15    2.48
   4  -1   3   26.20    0.75
   4   1  -3   26.24    0.73
   4   1   5   22.46    0.75
   4  -1  -5   20.22    0.72
  -4   1  -5   21.86    0.77
  -4  -1   5   21.88    0.75
  -4   1  -5   21.65    0.78
  -4   1   5   21.78    0.76
   4  -1   5   22.17    0.75
  -4  -1  -5   23.00    0.79
   4   1  -5   22.30    0.71
  -4  -1  -5   23.04    0.76
  -4   2   0   77.03    1.93
  -4   2   0   77.69    1.92
  -4   2   0   75.99    1.99
  -4   2   0   75.79    1.94
  -4   2   0   76.70    2.00
  -4   2   0   77.01    2.01
  -4   2   0   77.41    1.91
  -4   2   0   73.08    2.09
  -4   2   0   76.18    2.07
   4   2   0   77.14    1.91
  -4  -2   0   75.38    1.97
  -4  -2   0   75.48    1.92
  -4   2   0   76.72    1.95
  -4  -2   2   40.79    1.60
  -4  -2   2   42.30    1.88
   4  -2  -2   42.21    1.01
  -4   2  -2   42.58    1.65
   4   2   2   40.50    1.66
  -4   2  -2   41.10    1.13
  -4  -2   2   40.60    1.84
   4   2   2   40.13    1.45
  -4  -2   2   37.58    2.11
  -4   2  -2   42.56    1.90
   4   2   2   38.85    1.64
   4   2   2   40.52    1.38
  -4   2  -2   39.23    2.18
  -4  -2   2   40.33    1.48
   4   2   2   37.79    1.35
   4   2   2   40.06    1.46
  -4   2  -2   41.81    1.53
  -4  -2   2   39.99    1.11
   4   2   2   38.12    1.88
  -4   2  -2   41.20    1.19
  -4  -2   2   39.00    2.11
  -4  -2   2   40.74    1.59
  -4  -2   2   41.88    1.50
   4   2   2   41.33    1.04
   4   2   2   37.78    1.88
   4  -2   2   40.84    1.03
  -4   2   2   41.01    1.15
  -4   2   2   37.93    2.26
  -4   2   2   40.17    1.68
   4  -2   2   40.27    1.57
  -4  -2  -2   40.31    1.17
  -4  -2  -2   41.43    1.13
  -4   2   2   39.78    1.96
  -4   2   2   42.12    1.71
  -4   2   2   40.00    1.57
   4   2  -2   42.20    1.06
   4  -2   2   40.70    1.47
  -4   2   2   38.71    2.27
  -4   2   2   39.71    1.56
   4  -2   2   39.76    2.07
   4  -2   2   39.68    1.80
  -4   2   2   37.01    1.92
  -4   2  -4   29.26    0.99
  -4   2  -4   29.21    2.08
   4   2   4   29.05    2.99
  -4  -2   4   29.57    0.88
   4   2   4   29.20    3.01
   4   2   4   29.23    0.88
   4   2   4   25.31    1.91
  -4  -2   4   27.03    2.50
   4   2   4   27.61    1.72
  -4  -2   4   30.11    1.83
   4   2   4   28.99    2.43
  -4   2  -4   34.50    3.29
   4   2   4   28.51    1.72
  -4  -2   4   26.75    1.78
  -4   2  -4   32.18    1.85
  -4  -2   4   27.92    3.17
  -4   2  -4   30.06    0.93
  -4  -2   4   29.98    3.18
   4   2   4   27.27    1.92
  -4   2  -4   29.88    0.84
   4  -2  -4   30.59    0.81
  -4  -2   4   30.44    2.03
  -4  -2   4   30.75    2.52
  -4  -2   4   27.16    2.02
  -4   2  -4   31.90    2.61
  -4   2   4   29.15    3.21
  -4   2   4   29.62    1.86
  -4   2   4   28.69    2.51
  -4   2   4   28.21    1.77
  -4   2   4   30.88    3.19
  -4   2   4   29.60    2.02
   4  -2   4   27.42    1.89
   4  -2   4   25.90    2.33
  -4   2   4   27.95    0.91
  -4   2   4   28.64    2.60
  -4   2   4   29.57    2.10
  -4  -2  -4   29.67    0.92
   4  -2   4   26.66    2.94
   4  -2   4   29.36    0.86
   4  -2   4   28.74    1.70
   4   2  -4   30.03    0.84
  -4  -2   6    9.18    0.48
  -4   2  -6    8.46    0.52
  -4   2  -6    9.45    0.59
   4  -2  -6    9.85    0.44
   4   2   6    9.11    0.52
  -4  -2  -6    9.15    0.52
  -4   2   6    8.49    0.51
   4  -2   6    9.29    0.50
  -4  -2  -6    8.35    0.55
   4   2  -6    9.09    0.46
  -4  -3   1    3.24    0.46
  -4   3  -1    3.17    0.67
  -4   3  -1    3.34    0.25
  -4   3  -1    4.08    0.68
  -4  -3   1    3.13    0.52
  -4  -3   1    3.58    0.30
  -4  -3   1    3.67    0.44
  -4  -3   1    3.54    0.35
  -4  -3   1    3.38    0.21
   4  -3  -1    3.27    0.15
  -4  -3   1    3.16    0.22
  -4  -3   1    3.36    0.73
  -4  -3   1    4.78    0.54
  -4   3  -1    2.88    0.43
  -4   3  -1    2.87    0.50
  -4  -3   1    3.46    0.62
  -4   3   1    3.88    0.50
  -4   3   1    4.11    0.78
  -4   3   1    4.16    0.65
  -4   3   1    3.19    0.24
  -4  -3  -1    3.16    0.24
   4   3  -1    3.42    0.21
  -4   3   1    3.98    0.56
  -4  -3  -1    3.38    0.22
  -4   3   1    2.34    0.73
   4  -3   1    3.88    0.74
  -4   3   1    4.78    0.59
  -4   3   1    3.68    0.84
  -4   3   1    4.78    0.84
   4  -3   1    3.33    0.56
   4  -3   1    3.22    0.74
   4  -3   1    3.98    0.48
  -4   3  -3   15.12    2.16
   4   3   3   14.82    0.49
  -4   3  -3   12.51    1.28
   4   3   3   12.79    1.85
  -4  -3   3   14.95    0.51
  -4   3  -3   13.93    1.15
   4   3   3   14.35    1.46
   4   3   3   14.84    1.20
  -4  -3   3   13.56    1.67
   4   3   3   13.58    1.49
  -4   3  -3   14.53    0.53
  -4  -3   3   15.56    1.13
   4   3   3   12.62    1.80
  -4  -3   3   14.78    1.28
  -4  -3   3   12.16    2.01
   4   3   3   14.65    1.05
   4   3   3   17.78    1.22
  -4   3  -3   14.68    0.60
   4  -3  -3   14.47    0.42
   4   3   3   14.01    1.05
  -4   3  -3   15.75    1.68
  -4   3   3   15.19    1.15
  -4   3   3   17.63    1.39
  -4  -3  -3   13.73    0.53
   4   3  -3   14.42    0.47
   4  -3   3   14.62    0.47
  -4   3   3   13.12    0.46
   4  -3   3   14.72    1.07
  -4   3   3   16.12    1.33
  -4   3   3   13.77    1.64
  -4   3   3   13.07    2.08
  -4   3   3   17.10    1.77
   4  -3   3   18.34    1.28
   4  -3   3   13.39    1.52
   4  -3   3   12.17    1.92
  -4   3   3   14.74    1.19
  -4   3   3   12.89    2.16
  -4  -3   5   12.14    0.52
  -4   3  -5   11.99    0.56
   4  -3  -5   11.93    0.44
   4   3   5   11.97    0.52
  -4   3  -5   11.97    0.54
  -4  -3  -5   11.66    0.51
   4   3  -5   12.69    0.50
   4  -3   5   12.20    0.51
  -4   3   5   12.04    0.54
  -4  -3  -5   12.60    0.56
   4  -4   0  252.91    6.18
   4  -4   0  255.97    5.91
  -4   4   0  242.01    6.05
   4  -4   0  253.83    6.42
  -4   4   0  254.73    6.45
  -4   4   0  247.09    6.66
   4  -4   0  251.44    6.24
   4  -4   0  246.70    6.62
  -4   4   0  253.71    6.20
  -4   4   0  255.19    6.27
  -4   4   0  246.55    6.01
  -4  -4   0  244.73    5.98
  -4  -4   0  248.42    6.02
   4   4   0  239.04    5.98
   4   4   2  258.18    6.69
   4   4   2  254.27    6.97
   4   4   2  256.89    6.37
   4   4   2  256.14    6.46
  -4   4  -2  257.31    6.58
   4   4   2  260.82    6.02
  -4  -4   2  250.53    6.85
   4   4   2  257.40    6.98
   4   4   2  261.45    6.38
  -4   4  -2  248.23    6.11
   4   4   2  253.58    6.45
   4   4   2  261.03    6.70
  -4   4  -2  253.83    7.44
  -4   4  -2  253.99    7.03
  -4  -4   2  252.45    7.19
  -4   4  -2  252.62    6.18
  -4   4  -2  257.24    6.71
  -4  -4   2  251.26    6.46
  -4  -4   2  246.95    6.56
  -4  -4   2  251.71    6.06
  -4   4   2  249.07    6.13
  -4   4   2  249.75    6.77
  -4   4   2  252.34    7.58
  -4   4   2  244.94    7.60
   4  -4   2  250.47    6.68
  -4   4   2  253.54    7.18
  -4   4   2  250.54    7.12
   4   4  -2  249.69    6.05
  -4   4   2  249.37    6.63
  -4   4   2  257.85    6.84
  -4  -4  -2  248.68    6.09
   4  -4   2  249.18    6.98
  -4  -4  -2  244.59    6.15
   4  -4   2  248.69    6.54
   4  -4   2  240.41    7.32
  -4   4   2  254.25    6.68
  -4   4  -4  139.33    3.45
  -4   4  -4  138.30    3.62
  -4   4  -4  139.17    4.53
   4   4   4  139.95    4.60
   4   4   4  139.06    4.39
  -4  -4   4  138.96    4.70
  -4   4  -4  140.53    5.37
  -4  -4   4  145.72    5.94
   4   4   4  139.15    4.38
  -4   4  -4  138.34    4.78
  -4   4  -4  150.58    6.27
   4   4   4  137.32    5.70
  -4  -4   4  134.88    4.44
   4   4   4  142.83    4.60
   4   4   4  142.39    3.49
   4  -4  -4  144.16    3.39
  -4  -4   4  135.82    5.21
   4   4   4  137.29    5.08
  -4  -4   4  143.75    3.46
   4   4   4  138.06    5.08
  -4   4  -4  141.97    3.54
   4   4   4  132.87    5.71
  -4   4   4  142.18    6.06
  -4   4   4  137.34    6.13
  -4   4   4  145.18    5.38
   4   4  -4  139.55    4.85
   4  -4   4  143.46    5.26
  -4   4   4  140.39    5.43
  -4   4   4  136.38    3.54
  -4   4   4  139.54    4.84
   4   4  -4  138.53    5.41
  -4   4   4  141.74    4.60
   4  -4   4  144.72    5.98
   4  -4   4  148.81    4.76
  -4   4   4  137.36    4.75
  -4  -4  -4  142.57    3.54
   4  -4   4  151.21    4.53
   4   4  -4  130.61    4.53
   4   4  -4  136.99    6.09
  -4   4   4  139.68    4.54
   4   4   6   98.07    2.58
  -4   4  -6   97.66    2.59
   4  -4  -6   96.01    2.47
  -4   4  -6   95.81    2.59
   4   4  -6   96.29    2.52
  -4  -4  -6   96.69    2.52
  -4  -4  -6   95.19    2.60
  -4   4   6   97.13    2.59
  -4  -5   1    0.29    0.44
  -4   5  -1    0.88    0.17
  -4   5  -1    0.92    0.41
  -4  -5   1    0.76    0.30
  -4  -5   1    0.64    0.54
  -4  -5   1    0.98    0.14
  -4  -5   1    1.15    0.34
  -4   5  -1    1.63    0.65
  -4   5  -1    0.46    0.73
  -4  -5   1    0.88    0.15
  -4   5  -1    1.17    0.45
  -4   5   1    1.38    0.71
  -4   5   1    0.09    0.84
  -4   5   1    0.59    0.15
   4  -5   1    0.47    0.57
   4  -5   1    0.97    0.40
   4  -5   1    0.49    0.75
   4  -5   1    0.64    0.44
  -4  -5  -1    0.51    0.13
  -4   5   1    0.84    0.54
  -4  -5  -1    0.79    0.15
  -4   5   1    1.45    0.48
   4   5  -1    0.94    0.16
  -4  -5   3    4.31    0.84
   4   5   3    3.28    1.02
  -4   5  -3    2.92    0.24
  -4  -5   3    2.85    0.23
  -4   5  -3    3.33    0.74
   4   5   3    3.09    0.62
  -4   5  -3    5.44    1.20
  -4   5  -3    2.58    0.86
   4   5   3    3.64    0.79
  -4   5  -3    2.02    1.44
   4   5   3    4.25    0.90
   4   5   3    3.03    0.23
   4   5   3    2.76    1.14
  -4   5  -3    2.60    0.28
  -4  -5   3    2.86    0.97
  -4  -5   3    1.78    1.25
   4   5   3    2.39    0.76
  -4  -5   3    3.91    0.72
   4   5   3    4.77    1.33
   4   5   3    2.11    0.91
  -4   5   3    3.11    0.83
  -4  -5  -3    2.54    0.23
  -4   5   3    2.69    1.18
   4   5  -3    2.91    0.22
   4  -5   3    2.68    1.35
  -4   5   3    3.81    1.21
  -4   5   3    4.62    0.96
   4   5  -3    3.60    0.88
   4  -5   3    2.15    0.76
  -4   5   3    1.28    0.83
  -4   5   3    3.22    1.58
   4  -5   3    2.65    0.68
   4   5  -3    2.33    1.42
   4   5  -3    4.16    1.16
   4   5  -3    2.70    0.69
  -4   5   3    3.50    0.83
   4  -5   3    2.87    1.00
  -4   5   3    3.26    1.54
  -4  -5   5    2.55    0.28
   4   5   5    2.68    0.31
   4  -5  -5    2.08    0.23
  -4   5  -5    2.38    0.32
  -4   5  -5    1.87    0.40
   4   5  -5    2.37    0.26
  -4  -5  -5    1.88    0.31
  -4   5   5    2.33    0.31
  -4  -5  -5    2.41    0.31
   4  -6   0  225.75    5.80
   4  -6   0  228.27    6.16
  -4   6   0  218.95    5.53
   4   6   0  219.88    5.45
  -4   6   0  217.98    6.49
  -4   6   0  229.02    6.23
  -4   6   0  228.23    5.84
   4  -6   0  232.57    5.34
  -4  -6   0  225.03    5.43
   4  -6   0  227.85    5.91
   4  -6   0  230.93    6.50
  -4  -6   0  222.58    5.46
  -4   6   0  228.21    5.95
   4   6   2  245.84    6.20
  -4   6  -2  239.56    6.85
  -4   6  -2  231.57    5.85
   4   6   2  238.77    6.09
   4   6   2  244.86    6.46
   4   6   2  245.85    5.71
  -4   6  -2  242.81    6.36
  -4  -6   2  238.85    5.72
   4   6   2  240.66    6.44
  -4   6  -2  238.99    5.79
  -4  -6   2  233.98    6.94
  -4   6  -2  238.38    6.49
  -4  -6   2  239.97    6.19
   4   6   2  234.05    6.75
   4   6   2  243.06    6.20
  -4   6  -2  239.04    7.31
   4   6   2  242.56    6.09
   4   6   2  240.95    6.75
  -4  -6   2  234.62    6.30
  -4  -6   2  240.56    6.60
  -4   6   2  234.51    6.43
  -4   6   2  234.99    5.83
  -4   6   2  233.19    7.44
   4   6  -2  234.87    5.75
   4   6  -2  239.56    6.67
   4  -6   2  234.99    6.86
  -4   6   2  236.29    6.58
   4   6  -2  243.11    6.25
   4   6  -2  247.16    6.38
   4   6  -2  244.01    7.10
  -4   6   2  235.69    6.97
  -4   6   2  240.56    6.43
  -4   6   2  235.01    7.54
   4  -6   2  233.18    6.49
  -4   6   2  239.58    7.04
  -4   6   2  238.29    6.62
   4  -6   2  232.54    6.34
  -4  -6  -2  233.74    5.77
   4   6   4  141.75    5.97
   4   6   4  145.54    4.54
   4   6   4  150.71    5.33
  -4  -6   4  153.18    3.56
  -4   6  -4  144.57    3.75
  -4   6  -4  145.93    5.00
   4   6   4  153.27    3.64
  -4   6  -4  143.47    4.72
  -4  -6   4  144.69    6.10
   4   6   4  143.95    5.24
  -4  -6   4  140.69    5.33
   4   6   4  145.87    4.78
  -4   6  -4  144.51    6.40
   4   6   4  153.64    4.60
   4   6   4  142.60    5.86
  -4  -6   4  147.20    4.60
   4   6   4  146.03    4.75
  -4   6  -4  147.56    3.66
  -4  -6   4  146.98    4.83
  -4   6  -4  146.48    3.60
  -4   6  -4  146.25    5.62
  -4   6   4  152.01    3.55
   4  -6   4  139.52    4.85
  -4   6   4  142.06    6.44
   4  -6   4  140.23    5.42
  -4  -6  -4  146.35    3.68
   4   6  -4  147.09    4.75
  -4   6   4  146.62    4.81
  -4   6   4  154.93    6.59
  -4   6   4  142.40    5.06
  -4   6   4  148.40    4.77
   4   6  -4  147.56    3.61
  -4   6   4  141.41    5.67
   4   6  -4  139.79    5.53
   4   6  -4  145.07    6.35
  -4   6   4  152.47    5.05
  -4   6   4  146.83    5.63
  -4   6   4  144.11    3.69
   4  -6   4  138.34    4.60
   4  -6   4  141.01    6.12
   4   6  -4  136.25    4.90
  -4   6  -6  110.34    2.90
  -4   6  -6  108.57    2.87
   4   6   6  112.06    2.89
  -4   6   6  106.17    2.90
   4   6  -6  111.15    2.84
  -4  -6  -6  107.42    2.91
   4   7   1    1.25    0.31
   4   7   1    0.95    0.17
  -4   7  -1    1.16    0.44
   4   7   1    0.83    0.48
  -4   7  -1    0.92    0.68
   4   7   1    1.20    0.43
  -4  -7   1    1.01    0.70
   4  -7  -1    1.40    0.66
   4   7   1    0.65    0.46
  -4   7  -1    0.69    0.15
   4   7   1    1.33    0.34
   4   7   1    1.42    0.42
  -4   7  -1    0.68    0.15
  -4   7  -1    1.52    0.56
   4   7   1    1.04    0.29
  -4  -7   1    1.01    0.58
  -4  -7   1    0.77    0.13
   4   7   1    0.84    0.26
   4  -7  -1    0.94    0.42
  -4  -7   1    0.65    0.36
  -4  -7   1    0.81    0.15
   4  -7  -1    1.33    0.88
   4  -7  -1    1.15    0.52
  -4  -7   1    0.68    0.42
  -4   7  -1    1.73    0.90
   4   7  -1    1.83    0.63
  -4   7   1    0.68    0.64
   4   7  -1    0.68    0.32
   4  -7   1    0.30    0.94
  -4   7   1    0.79    0.19
   4  -7   1    1.53    0.75
  -4   7   1    1.26    0.57
  -4   7   1    1.06    1.06
   4  -7   1    0.18    0.47
  -4  -7  -1    0.70    0.14
  -4   7   1   -0.05    0.79
   4  -7   1    1.16    0.56
  -4  -7  -1    0.53    0.14
   4   7  -1    1.84    0.42
   4   7  -1    0.77    0.51
   4   7  -1    0.77    0.16
   4   7   3    0.68    0.15
  -4   7  -3    0.59    0.17
  -4  -7   3    1.39    0.99
   4   7   3    1.51    0.61
  -4   7  -3   -0.07    0.82
  -4  -7   3    1.98    1.37
   4   7   3    0.91    0.75
  -4   7  -3    0.38    0.14
  -4   7  -3    0.67    0.69
   4   7   3    0.68    1.14
   4   7   3    1.53    1.30
  -4   7  -3    0.73    1.52
   4   7   3    0.43    0.91
  -4   7  -3    0.40    0.13
  -4   7  -3    1.21    1.13
   4   7   3    0.06    0.59
  -4  -7   3    0.62    0.71
  -4  -7   3    1.06    0.63
  -4  -7   3    0.57    0.13
   4   7   3    0.91    0.95
   4   7   3    0.42    0.66
   4   7  -3    0.97    1.04
  -4   7   3    2.37    1.13
  -4  -7  -3    0.97    0.20
   4  -7   3    0.79    1.03
   4   7  -3    0.00    0.65
  -4   7   3    0.91    0.70
  -4   7   3    0.00    1.12
  -4   7   3    2.03    1.73
  -4   7   3    1.73    1.48
   4   7  -3    0.02    1.38
  -4   7   3    0.87    0.90
  -4   7   3    0.78    0.19
   4   7  -3    0.77    0.17
  -4   7   3    0.11    0.81
   4  -7   3    0.79    0.77
   4   7  -3    0.11    0.73
  -4   7   3    0.65    0.14
   4  -7   3   -0.36    1.40
  -4   7   3    0.54    0.66
   4  -7   3    1.12    0.67
  -4   7  -5    0.28    0.20
   4   7   5    0.44    0.21
  -4   7  -5    0.31    0.27
  -4   7   5    0.26    0.17
   4   7  -5    0.21    0.17
  -4   7   5    0.19    0.19
  -4  -7  -5    0.48    0.20
  -4  -7  -5    0.38    0.21
   4  -8   0   19.41    1.45
   4  -8   0   21.97    1.24
   4   8   0   22.35    1.00
   4   8   0   21.20    0.68
  -4  -8   0   22.26    0.64
  -4   8   0   21.43    1.16
  -4  -8   0   21.87    0.67
  -4  -8   0   21.12    0.98
  -4   8   0   21.73    0.70
  -4   8   0   22.96    2.02
   4   8   0   22.50    0.74
  -4  -8   0   21.91    0.72
  -4  -8   0   21.28    0.87
  -4   8   0   20.52    1.28
   4  -8   0   21.61    1.12
  -4   8   0   22.60    0.74
   4   8   0   22.17    0.89
   4   8   0   22.23    0.78
   4  -8   0   21.55    1.82
  -4  -8   0   20.64    0.76
  -4   8   0   23.83    1.62
   4   8   0   22.74    0.61
   4   8   2    8.39    0.85
  -4   8  -2    8.90    0.94
   4   8   2    8.71    0.35
  -4   8  -2    8.76    1.10
   4   8   2    7.29    0.73
   4   8   2    8.98    0.87
  -4  -8   2    8.84    0.83
  -4   8  -2    7.49    1.50
  -4   8  -2    8.22    1.42
  -4  -8   2    8.65    1.25
   4   8   2   10.78    1.37
   4   8   2    6.59    1.07
   4   8   2    7.23    1.08
  -4  -8   2    9.69    0.98
   4   8   2    7.50    1.16
  -4  -8   2    8.21    0.32
  -4   8  -2    9.04    0.38
  -4  -8   2    9.84    1.63
   4   8   2    8.24    0.76
  -4   8  -2    9.06    0.43
   4   8  -2    6.49    0.83
  -4   8   2    7.97    1.00
  -4   8   2    6.24    1.15
  -4  -8  -2    8.35    0.36
  -4   8   2    7.95    0.42
  -4   8   2    7.91    1.77
  -4   8   2    9.83    1.54
   4  -8   2    7.32    0.96
   4  -8   2   11.10    1.92
   4   8  -2    8.59    0.97
  -4   8   2    8.43    0.27
  -4   8   2    9.48    1.24
   4   8  -2    7.93    0.37
   4  -8   2   10.31    1.17
  -4   8   2    9.83    1.64
   4  -8   2    6.77    1.41
  -4   8   2    7.50    1.02
  -4   8   2    9.61    2.00
   4   8  -2    6.34    1.23
   4   8  -2    7.27    1.30
  -4   8  -4    7.53    1.84
   4   8   4   10.61    1.38
  -4  -8   4    8.05    1.61
  -4   8  -4    7.38    0.38
  -4   8  -4    9.14    1.39
  -4   8  -4    7.45    0.40
  -4   8  -4    6.70    1.47
   4   8   4    9.93    1.63
   4   8   4    7.37    1.98
   4   8   4   10.67    1.60
  -4   8  -4    7.43    0.43
  -4   8  -4    7.85    0.46
  -4  -8   4    7.52    1.33
  -4  -8   4    7.66    2.19
   4   8   4    5.57    2.09
  -4   8  -4    5.36    2.27
   4   8   4   14.00    2.15
  -4  -8   4    8.09    0.32
   4   8   4   13.25    2.11
   4   8   4   10.57    1.36
  -4  -8   4   10.89    2.16
   4  -8   4    8.20    1.77
   4  -8   4    7.06    1.38
   4  -8   4    6.30    1.30
   4   8  -4   15.98    3.15
  -4   8   4   12.14    2.58
   4  -8   4    5.61    2.23
  -4   8   4    7.35    0.43
  -4   8   4   10.14    1.92
  -4   8   4    7.69    0.38
   4   8  -4    8.83    1.94
  -4   8   4   10.82    2.67
  -4   8   4    2.86    2.50
  -4   8   4   10.88    2.32
   4   8  -4    6.84    1.35
   4   8  -4    7.53    0.39
   4   8  -4    8.64    1.58
  -4   8   4   12.24    1.79
  -4   8   4    9.93    1.51
  -4   8   4    6.63    1.28
   4   8   6    1.18    0.32
  -4   8  -6    1.39    0.40
  -4   8  -6    1.83    0.37
   4   8  -6    2.10    0.35
  -4   8   6    1.42    0.31
  -4   8   6    1.85    0.33
  -4  -8  -6    1.28    0.30
  -4   9  -1    1.04    0.56
  -4   9  -1    2.00    1.11
  -4   9  -1    2.00    0.89
   4   9   1    1.83    0.75
   4   9   1    2.00    0.22
   4   9   1    1.91    0.42
  -4  -9   1    2.18    0.20
   4   9   1    2.83    0.58
   4  -9  -1    1.98    0.52
   4   9   1    2.50    0.49
  -4  -9   1    2.15    0.61
  -4   9  -1    1.78    0.68
   4  -9  -1    1.44    1.03
   4   9   1    1.86    0.61
  -4   9  -1    1.97    0.21
  -4  -9   1    2.34    0.52
  -4  -9   1    2.07    0.92
   4   9   1    1.33    0.71
   4   9   1    2.15    0.63
   4   9   1    2.88    0.59
  -4  -9   1    2.06    0.77
  -4   9  -1    2.12    0.25
  -4  -9   1    2.23    0.18
   4  -9  -1    1.18    0.76
   4  -9  -1    2.53    0.63
   4   9  -1    2.08    0.77
   4  -9   1    2.46    0.61
  -4   9   1    2.59    0.69
   4   9  -1    2.89    0.52
   4   9  -1    2.52    0.63
   4  -9   1    0.68    1.18
  -4   9   1    3.40    1.02
  -4   9   1    2.15    0.24
  -4   9   1    0.83    0.71
   4  -9   1    1.76    0.89
  -4   9   1    4.28    1.33
   4   9  -1    2.46    0.23
   4   9  -1    2.16    0.43
   4  -9   1    2.52    0.71
  -4  -9   3    7.91    1.24
   4   9   3    8.84    1.21
  -4  -9   3    6.38    1.63
  -4   9  -3    6.69    0.36
   4   9   3    6.08    0.98
   4   9   3    6.26    1.01
  -4   9  -3    8.63    1.35
  -4   9  -3    7.20    2.07
   4   9   3    3.55    1.36
   4   9   3    6.33    1.60
  -4   9  -3    6.92    0.33
  -4  -9   3    9.50    1.64
  -4   9  -3    7.91    1.60
   4   9   3    8.96    1.60
  -4  -9   3    7.17    0.29
  -4   9  -3    6.70    0.33
   4   9   3    5.72    0.97
  -4   9  -3    6.25    1.08
   4   9   3    6.99    0.36
   4   9   3    5.52    1.24
  -4  -9   3    6.33    1.03
  -4   9  -3    7.15    0.42
  -4   9   3    6.21    1.32
   4   9  -3    8.21    1.21
  -4  -9  -3    6.97    0.36
  -4   9   3    6.46    0.39
   4   9  -3    7.85    1.67
  -4   9   3    7.66    1.77
   4  -9   3   10.66    2.04
  -4   9   3    6.97    0.29
   4  -9   3    5.85    1.16
  -4   9   3    6.96    2.20
   4  -9   3   10.38    1.87
  -4   9   3    6.11    1.27
  -4   9   3    9.55    1.89
   4  -9   3    9.74    1.45
   4   9  -3    7.45    0.36
  -4   9   3    9.78    2.09
  -4   9   3    6.66    1.19
   4   9  -3    6.03    1.07
  -4   9   3    7.08    1.43
   4   9  -3    7.32    1.73
   4   9   5    4.80    0.42
  -4   9  -5    5.10    0.43
  -4   9  -5    5.32    0.39
  -4   9  -5    5.06    0.46
  -4   9   5    5.46    0.34
  -4   9   5    5.34    0.42
   4   9  -5    5.66    0.36
  -4  -9  -5    5.43    0.42
   4  10   0  170.74    4.06
   4 -10   0  168.17    4.77
   4 -10   0  163.02    5.29
  -4  10   0  164.90    4.80
  -4 -10   0  168.66    4.62
   4 -10   0  167.54    4.92
   4  10   0  166.08    4.80
  -4  10   0  160.77    4.94
   4  10   0  173.02    4.39
   4  10   0  173.89    4.32
  -4 -10   0  163.75    4.84
  -4  10   0  163.65    5.36
   4 -10   0  167.38    5.81
   4  10   0  174.63    4.59
  -4 -10   0  171.14    4.33
  -4 -10   0  168.07    4.05
  -4  10   0  165.60    4.19
  -4  10   0  161.34    5.87
  -4 -10   0  168.16    4.41
  -4  10  -2  137.01    3.53
  -4  10  -2  137.11    5.50
  -4 -10   2  140.04    4.60
  -4 -10   2  143.06    4.10
   4 -10  -2  138.49    5.55
  -4 -10   2  138.17    4.24
   4  10   2  145.10    4.04
  -4  10  -2  138.32    3.46
  -4 -10   2  149.54    3.43
  -4  10  -2  146.34    5.02
   4  10   2  148.69    3.51
  -4  10  -2  145.43    4.53
  -4  10  -2  143.60    3.41
  -4  10  -2  140.40    3.62
   4 -10  -2  143.19    4.36
  -4  10  -2  142.69    4.32
   4 -10  -2  141.93    4.54
  -4  10  -2  143.66    3.44
   4  10   2  142.97    4.03
   4  10   2  142.95    4.50
   4  10   2  136.84    4.86
  -4 -10   2  139.71    5.03
   4 -10  -2  143.34    5.00
   4  10   2  146.31    4.52
   4  10   2  146.88    4.95
   4  10   2  142.05    4.17
   4  10   2  144.04    4.17
  -4  10   2  145.02    4.61
  -4  10   2  144.04    3.62
   4  10  -2  134.90    4.96
   4 -10   2  143.88    5.08
   4 -10   2  141.77    4.38
   4  10  -2  138.47    3.40
  -4  10   2  148.52    3.43
   4  10  -2  142.39    4.10
   4  10  -2  139.96    4.23
  -4 -10  -2  141.51    3.52
   4  10  -2  137.80    4.56
  -4  10   2  140.48    4.38
   4 -10   2  142.55    5.69
  -4  10   2  136.34    5.62
   4  10  -2  136.97    3.53
  -4  10   2  144.44    5.10
   4 -10   2  142.51    4.59
  -4  10  -4  154.19    3.99
  -4  10  -4  149.11    7.51
  -4  10  -4  160.50    6.79
  -4 -10   4  143.32    5.81
  -4  10  -4  138.79    9.69
  -4  10  -4  156.58    4.10
   4  10   4  173.87    5.37
  -4  10  -4  155.32    3.98
  -4 -10   4  149.91    5.27
   4  10   4  180.78    4.04
  -4 -10   4  157.09    6.73
   4  10   4  173.81    5.98
  -4  10  -4  160.69    4.01
   4  10   4  173.96    5.11
   4  10   4  178.10    6.82
  -4 -10   4  151.48    5.01
  -4  10  -4  161.33    6.31
  -4  10   4  159.91    5.40
  -4  10   4  166.49    5.79
   4 -10   4  164.35    6.18
   4 -10   4  160.17    5.19
  -4  10   4  152.12    7.42
   4 -10   4  162.51    7.03
   4  10  -4  158.45    6.95
  -4  10   4  159.11    4.09
   4  10  -4  159.25    5.68
   4  10  -4  154.17    3.99
  -4  10   4  159.78    3.92
  -4  10   4  167.97    6.58
   4  10  -4  155.13    5.34
   4 -10   4  163.91    5.50
   4  10  -4  159.24    6.36
   4  10   6  108.49    2.82
  -4  10  -6  104.17    2.80
  -4  10  -6  104.61    2.84
  -4  10  -6  103.12    2.76
  -4  10   6  102.80    2.85
   4  10  -6  102.80    2.75
  -4  10   6  103.70    2.68
   4 -11  -1    3.09    0.67
  -4 -11   1    3.61    0.68
  -4  11  -1    2.28    1.44
   4 -11  -1    3.02    0.75
  -4  11  -1    3.24    0.19
  -4 -11   1    2.36    1.17
  -4 -11   1    6.85    1.25
  -4 -11   1    3.57    0.77
   4 -11  -1    3.77    1.41
   4  11   1    4.07    0.75
   4  11   1    3.39    0.63
   4  11   1    4.37    0.82
   4 -11  -1    1.44    0.83
  -4  11  -1    3.43    0.30
  -4 -11   1    3.59    0.20
  -4  11  -1    3.19    0.19
  -4  11  -1    3.38    0.84
   4  11   1    2.99    0.27
   4  11   1    2.39    0.92
  -4  11  -1    2.11    0.64
  -4  11  -1    3.43    0.25
  -4  11  -1    2.08    1.02
   4  11   1    3.31    0.26
   4  11  -1    4.26    0.74
  -4  11   1    7.20    1.25
   4 -11   1    4.19    0.82
   4 -11   1    3.20    0.91
   4 -11   1    3.52    1.18
  -4  11   1    3.02    0.28
  -4  11   1    3.32    0.18
   4  11  -1    2.97    0.23
   4  11  -1    3.40    0.25
   4  11  -1    2.83    0.74
  -4  11   1    2.43    1.15
  -4 -11  -1    3.40    0.23
  -4  11   1    4.40    0.85
   4  11  -1    2.28    0.88
   4  11  -1    3.04    0.61
   4 -11   1    3.83    1.50
  -4  11   1    0.21    1.43
   4  11   3   17.07    1.28
  -4  11  -3   21.29    1.57
   4  11   3   17.61    1.96
   4  11   3   16.56    1.44
  -4  11  -3   17.22    0.60
  -4 -11   3   16.24    2.02
  -4  11  -3   16.73    0.58
   4  11   3   18.57    2.38
  -4 -11   3   11.97    2.54
   4  11   3   17.93    1.86
  -4  11  -3   21.20    2.98
  -4  11  -3   16.15    0.61
  -4  11  -3   16.59    1.77
  -4 -11   3   16.59    1.36
  -4  11  -3   17.11    0.69
   4  11   3   16.97    0.62
   4  11   3   21.82    2.57
   4  11   3   17.81    1.34
   4  11   3   17.33    1.52
  -4  11  -3   19.51    2.29
  -4 -11   3   16.58    1.60
   4  11  -3   16.48    0.62
   4  11  -3   15.55    1.38
  -4 -11  -3   17.02    0.61
   4 -11   3   14.84    2.19
   4 -11   3   16.03    1.52
  -4  11   3   18.94    2.62
  -4  11   3   17.71    1.75
  -4  11   3   14.82    1.50
   4  11  -3   19.40    1.62
   4 -11   3   16.47    1.78
   4  11  -3   16.40    2.53
  -4  11   3   19.17    2.27
   4 -11   3   16.19    2.82
  -4  11   3   19.49    1.76
  -4  11   3   16.74    0.68
  -4  11   3   18.07    2.90
   4  11  -3   20.49    2.09
  -4  11   3   16.90    3.36
  -4  11   3   17.33    1.97
  -4  11   3   17.08    0.55
  -4  11  -5   14.43    0.61
  -4  11  -5   13.88    0.69
  -4  11  -5   14.56    0.61
  -4  11  -5   14.78    0.68
   4  11   5   14.62    0.65
  -4  11   5   14.04    0.56
   4  11  -5   14.38    0.60
  -4  11   5   14.33    0.68
  -4 -11  -5   14.44    0.64
   4  12   0   86.17    2.29
  -4  12   0   94.86    4.38
  -4 -12   0   92.31    3.10
  -4  12   0   88.07    3.08
  -4 -12   0   91.03    2.20
   4 -12   0   87.26    3.04
   4 -12   0   86.98    3.62
  -4 -12   0   86.65    2.76
  -4  12   0   89.02    2.36
   4 -12   0   87.31    3.22
   4  12   0   90.95    2.63
   4  12   0   90.34    2.74
   4 -12   0   81.72    4.12
  -4  12   0   84.08    3.24
  -4 -12   0   85.82    2.64
  -4  12   0   89.91    2.16
  -4 -12   0   87.32    3.40
   4  12   0   91.80    3.32
  -4  12   0   81.99    3.64
   4  12   0   89.85    2.25
   4  12   0   90.43    2.99
  -4  12  -2   53.59    2.99
  -4 -12   2   51.95    2.30
  -4  12  -2   53.43    1.37
   4  12   2   53.91    2.18
  -4 -12   2   48.82    2.08
   4 -12  -2   55.04    2.59
   4  12   2   50.53    2.56
   4  12   2   52.97    2.02
   4  12   2   52.76    2.95
  -4 -12   2   47.41    3.14
  -4 -12   2   52.26    2.68
  -4  12  -2   51.70    2.47
   4  12   2   49.43    2.16
   4 -12  -2   50.35    2.96
  -4  12  -2   54.32    1.53
  -4  12  -2   54.55    1.37
   4 -12  -2   51.70    2.35
  -4  12  -2   54.89    1.45
   4  12   2   51.25    1.42
  -4  12  -2   49.99    3.48
   4 -12  -2   55.42    3.60
  -4  12  -2   53.88    2.29
   4  12   2   48.65    1.99
   4  12   2   49.96    2.49
   4  12   2   51.05    3.00
   4  12  -2   51.93    2.21
   4  12  -2   54.28    2.08
  -4  12   2   49.92    2.31
   4  12  -2   55.62    1.46
  -4  12   2   53.82    3.62
   4 -12   2   52.23    2.59
   4 -12   2   50.18    2.34
  -4  12   2   49.80    1.51
   4  12  -2   53.71    2.61
  -4  12   2   51.72    1.35
  -4  12   2   48.63    2.99
  -4 -12  -2   52.06    1.41
   4  12  -2   53.81    1.36
  -4  12   2   55.48    2.59
   4 -12   2   47.67    3.68
   4  12  -2   49.24    3.02
   4 -12   2   49.18    2.98
   4  12   4   31.58    3.08
   4  12   4   37.60    1.16
  -4  12  -4   38.46    1.12
   4  12   4   35.33    2.21
   4  12   4   35.24    2.47
   4  12   4   39.01    3.90
  -4  12  -4   39.14    1.24
  -4  12  -4   38.73    1.14
  -4  12  -4   38.36    1.17
  -4  12   4   37.67    1.22
  -4  12   4   32.12    2.96
  -4  12   4   31.83    2.57
  -4  12   4   33.42    3.84
  -4 -12  -4   40.57    1.17
   4  12  -4   39.86    1.16
  -4  12   4   38.33    4.98
  -4  12   4   36.12    1.06
  -4  13  -1    4.51    1.26
  -4  13  -1    5.41    0.27
   4  13   1    5.18    0.35
   4  13   1    5.63    0.97
   4 -13  -1    2.46    1.55
   4  13   1    7.07    1.25
   4 -13  -1    6.12    1.05
   4  13   1    5.23    0.33
  -4 -13   1    5.42    0.92
  -4  13  -1    5.28    0.23
   4 -13  -1    4.16    0.96
  -4 -13   1    5.77    0.24
   4  13   1    4.84    0.82
  -4  13  -1    4.03    1.08
  -4  13  -1    4.30    1.75
  -4 -13   1    4.63    1.19
   4 -13  -1    8.67    1.69
  -4  13  -1    5.49    0.37
  -4  13  -1    5.40    1.05
  -4 -13   1    3.95    1.42
   4  13   1    3.83    1.18
  -4  13  -1    5.35    0.33
  -4 -13   1    5.29    0.97
   4 -13   1    6.98    1.36
   4 -13   1    4.49    1.80
  -4 -13  -1    6.27    1.25
   4 -13   1    4.81    0.96
  -4  13   1    5.52    0.36
   4  13  -1    6.46    0.84
   4  13  -1    5.90    0.96
  -4 -13  -1    3.84    0.78
  -4  13   1    5.97    1.09
  -4  13   1    3.36    1.27
   4  13  -1    4.84    0.32
  -4 -13  -1    6.52    0.92
  -4  13   1    5.02    0.95
  -4  13   1    6.30    1.72
  -4 -13  -1    5.52    0.28
   4  13  -1    4.97    1.21
  -4  13   1    5.25    0.25
   4  13  -1    6.65    1.28
  -4 -13  -1    5.18    1.17
   4  13  -1    5.52    0.34
   4 -13   1    4.81    1.36
  -4  13  -3   19.85    0.72
   4  13   3   22.02    1.54
   4  13   3   22.47    3.01
  -4 -13   3   21.56    1.59
  -4  13  -3   20.49    0.72
   4  13   3   19.87    1.79
   4  13   3   18.22    2.14
   4  13   3   19.83    1.57
   4  13   3   22.85    1.76
  -4  13  -3   21.83    0.81
   4  13   3   21.06    0.74
  -4 -13   3   21.29    2.26
   4  13   3   23.62    2.73
  -4 -13   3   16.11    2.85
  -4  13  -3   18.03    2.56
  -4  13  -3   22.07    2.04
   4  13   3   26.71    2.40
  -4 -13   3   18.60    1.77
  -4  13  -3   21.25    0.68
  -4  13  -3   20.09    1.75
  -4  13  -3   22.44    3.48
   4 -13   3   23.40    2.17
  -4  13   3   18.48    2.06
   4  13  -3   17.67    2.28
  -4  13   3   22.20    1.99
  -4  13   3   21.17    2.69
  -4 -13  -3   20.19    0.71
   4  13  -3   21.23    1.63
  -4  13   3   22.97    3.02
   4 -13   3   26.46    3.46
  -4  13   3   20.98    0.79
  -4  13   3   21.78    1.84
   4  13  -3   22.07    0.75
   4 -13   3   19.70    1.85
  -4  13   3   17.98    3.66
   4  13  -3   19.57    1.84
  -4  13   3   19.54    0.71
   4  13  -3   18.43    2.87
  -4  13   3   20.66    2.29
  -4  13   3   17.23    3.34
   4 -13   3   25.58    2.73
  -4  13  -5   18.37    0.73
  -4  13  -5   19.21    0.84
   4  13   5   19.38    0.79
  -4  13  -5   18.75    0.82
  -4  13  -5   18.23    0.72
  -4 -13  -5   18.84    0.76
   4  13  -5   18.51    0.74
  -4  13   5   18.28    0.68
   4 -14   0   26.35    2.84
   4  14   0   24.89    1.37
  -4  14   0   23.63    1.76
   4  14   0   24.43    0.79
   4  14   0   21.87    2.01
  -4  14   0   23.41    2.20
   4 -14   0   24.48    2.23
  -4 -14   0   22.85    2.20
  -4  14   0   26.55    2.81
  -4 -14   0   24.14    0.70
   4 -14   0   23.26    1.61
   4 -14   0   26.77    1.88
  -4 -14   0   24.46    1.29
  -4  14   0   21.79    1.54
  -4 -14   0   23.65    1.81
   4  14   0   23.69    0.79
  -4 -14   0   24.07    1.44
   4  14   0   24.85    1.66
  -4  14   0   24.51    0.70
   4  14   0   23.87    1.24
  -4  14   0   24.99    0.86
  -4 -14   2   31.64    1.93
   4  14   2   26.84    1.72
  -4 -14   2   27.94    2.32
   4  14   2   28.43    1.56
   4 -14  -2   30.64    1.90
   4 -14  -2   34.51    3.34
  -4  14  -2   28.45    1.86
  -4  14  -2   29.13    0.90
   4 -14  -2   29.35    2.57
   4  14   2   28.54    0.92
  -4  14  -2   29.26    0.97
  -4  14  -2   29.28    0.86
   4  14   2   30.96    2.82
   4 -14  -2   24.34    2.04
   4  14   2   24.70    2.04
  -4  14  -2   28.21    2.57
   4  14   2   27.76    1.82
  -4  14  -2   29.85    0.82
   4  14   2   25.80    2.58
   4  14   2   28.44    2.28
  -4 -14   2   22.03    2.89
   4  14   2   28.33    1.65
  -4  14  -2   30.55    2.11
  -4  14  -2   25.87    3.17
  -4 -14   2   26.99    1.68
   4  14  -2   28.58    1.58
  -4  14   2   23.65    2.51
   4 -14   2   26.75    3.50
   4  14  -2   29.99    0.92
   4 -14   2   31.37    2.83
  -4  14   2   27.17    3.37
  -4  14   2   30.51    1.90
  -4 -14  -2   28.47    0.86
   4  14  -2   29.43    0.91
   4  14  -2   30.12    2.19
  -4  14   2   28.05    0.97
   4  14  -2   29.48    2.73
   4  14  -2   28.50    1.77
   4 -14   2   29.66    1.99
   4 -14   2   23.83    2.17
  -4  14   2   26.24    2.07
  -4  14   2   28.37    0.82
  -4  14  -4    9.02    0.43
  -4  14  -4    8.90    0.52
  -4  14  -4    8.37    0.46
  -4  14  -4    8.35    0.52
   4  14   4    7.92    0.48
  -4  14   4    7.09    0.50
  -4  14   4    8.19    0.41
   4  14  -4    8.16    0.46
  -4 -14  -4    9.04    0.47
   4  15   1    3.14    0.34
   4 -15  -1    3.53    1.36
  -4  15  -1    3.22    0.88
   4  15   1    5.19    1.12
  -4 -15   1    5.19    1.03
  -4 -15   1    3.83    1.69
   4  15   1    6.21    1.10
   4  15   1    3.46    0.29
  -4  15  -1    3.48    0.33
   4  15   1    2.07    1.29
  -4  15  -1    3.13    1.10
  -4  15  -1    4.44    2.06
   4  15   1    4.97    0.80
  -4  15  -1    2.81    1.50
   4 -15  -1    0.44    1.82
  -4  15  -1    3.39    0.27
  -4 -15   1    3.08    0.95
  -4 -15   1    3.75    0.21
   4 -15  -1    3.13    1.02
  -4 -15   1    4.80    1.25
   4 -15  -1    3.62    0.92
  -4  15  -1    3.76    0.21
   4  15  -1    3.44    0.30
  -4  15   1    2.91    1.90
  -4  15   1    3.04    0.31
  -4  15   1    2.56    0.92
  -4  15   1    3.71    1.41
  -4  15   1    3.55    0.25
   4  15  -1    3.18    0.71
  -4 -15  -1    4.94    1.05
   4  15  -1    5.01    1.11
  -4 -15  -1    3.21    1.09
  -4 -15  -1    4.01    1.36
   4 -15   1    3.74    1.11
   4 -15   1    3.76    1.42
  -4 -15  -1    4.33    0.88
   4  15  -1    3.92    0.33
   4  15  -1    3.16    0.82
   4 -15   1    3.27    1.94
   4 -15   1    3.52    0.94
   4  15  -1    5.26    1.41
  -4  15   1    2.50    1.11
   4  15   3   16.08    2.55
   4  15   3   16.75    1.75
  -4  15  -3   12.51    2.23
  -4  15  -3   12.07    0.62
   4  15   3   12.25    1.84
  -4 -15   3   14.39    1.59
  -4  15  -3   13.38    2.89
  -4  15  -3   13.23    0.50
   4  15   3   10.87    1.94
  -4 -15   3   12.58    1.85
  -4  15  -3   12.88    0.54
  -4  15  -3   12.58    0.61
  -4  15  -3    9.84    3.17
  -4  15  -3   13.95    1.93
   4  15   3   19.86    3.05
   4  15   3   12.36    2.53
  -4 -15   3    5.70    2.34
   4  15   3   13.81    1.59
   4  15   3   13.41    2.10
  -4 -15   3   15.01    2.40
   4  15  -3   13.91    2.46
   4  15  -3   12.58    2.41
  -4 -15  -3   12.79    0.54
   4 -15   3   13.78    2.81
   4  15  -3   13.02    0.57
   4 -15   3   11.88    3.00
  -4  15   3   12.81    0.61
   4 -15   3   16.68    1.89
   4  15  -3   12.81    0.61
   4  15  -3   12.05    1.59
   4  15  -3   12.89    1.85
   4 -15   3   15.86    2.17
  -4  15   3   12.20    0.50
  -4  15  -5   10.75    0.63
  -4  15  -5   11.48    0.58
  -4  15  -5   11.61    0.71
  -4  15  -5   10.90    0.55
   4  15   5   11.12    0.63
  -4  15   5   10.36    0.54
   4  15  -5   11.69    0.60
  -4 -15  -5   11.27    0.58
  -4  15   5   11.41    0.64
   4 -16   0   75.08    3.86
   4 -16   0   76.35    4.55
  -4 -16   0   69.61    3.77
  -4 -16   0   76.62    3.32
   4 -16   0   70.24    3.01
  -4  16   0   68.79    4.49
   4  16   0   72.51    1.98
   4  16   0   75.07    1.99
   4  16   0   74.05    2.55
  -4  16   0   72.95    3.77
  -4 -16   0   77.97    2.69
   4  16   0   73.63    2.71
  -4 -16   0   71.22    2.85
   4  16   0   73.24    3.09
   4 -16   0   74.74    3.31
  -4 -16   0   75.03    1.86
  -4  16   0   71.16    2.98
   4  16   0   74.23    3.58
  -4  16   0   75.64    1.90
  -4  16   0   71.66    3.21
  -4  16   0   74.49    2.06
   4  16   2   85.34    4.48
   4 -16  -2   93.83    3.58
  -4  16  -2   87.46    3.77
   4  16   2   87.86    3.40
  -4  16  -2   93.91    2.49
  -4  16  -2   92.39    2.36
  -4 -16   2   85.32    3.29
   4  16   2   96.83    3.93
  -4 -16   2   92.12    4.86
   4  16   2   91.63    3.21
  -4  16  -2   91.32    5.20
  -4  16  -2   89.25    3.52
  -4  16  -2   96.63    2.39
   4  16   2   94.06    2.44
  -4  16  -2   93.02    2.29
   4 -16  -2   95.49    3.86
  -4 -16   2   87.60    4.04
   4 -16  -2   83.09    4.41
   4 -16  -2   88.81    5.44
  -4 -16   2   85.77    3.51
  -4  16  -2   86.49    4.38
   4  16  -2   88.64    4.45
   4  16  -2   91.92    2.41
  -4  16   2   85.79    5.56
  -4  16   2   89.02    3.60
  -4  16   2   96.01    2.50
  -4 -16  -2   91.48    2.34
   4 -16   2   88.85    3.88
   4 -16   2   94.09    3.65
   4  16  -2   89.73    3.19
   4 -16   2  100.01    4.70
   4  16  -2   92.34    3.90
   4  16  -2   90.19    3.39
  -4  16   2   86.63    4.55
   4 -16   2   91.70    5.54
  -4  16   2   89.92    3.91
   4  16  -2   92.02    2.42
  -4  16  -4   66.19    1.88
  -4  16  -4   65.53    1.81
   4  16   4   66.75    1.89
  -4  16  -4   65.14    1.94
  -4  16  -4   66.20    1.83
  -4  16   4   68.18    1.80
   4  16  -4   66.65    1.88
  -4  16   4   67.27    1.96
   4  16  -4   67.76    1.93
  -4 -16  -4   65.27    1.85
  -4  17  -1    2.39    1.25
   4  17   1    1.76    0.36
   4  17   1    2.77    0.80
  -4  17  -1    2.06    0.19
  -4  17  -1    2.90    2.30
  -4 -17   1    3.46    0.95
  -4 -17   1    2.94    1.86
   4 -17  -1   -3.09    2.11
  -4 -17   1    3.41    1.43
  -4  17  -1    2.35    0.32
   4  17   1    1.37    0.90
  -4  17  -1    0.22    0.97
   4 -17  -1    2.69    1.28
  -4  17  -1    2.23    0.29
  -4 -17   1    2.14    0.18
   4  17   1    2.18    0.27
  -4 -17   1    1.34    1.00
   4  17   1    0.21    1.52
  -4  17  -1    1.90    1.67
   4 -17  -1    1.34    1.61
   4 -17  -1    2.42    1.06
   4  17   1    2.22    1.15
   4 -17   1    2.74    1.21
   4  17  -1    1.75    1.09
   4  17  -1    2.06    0.92
   4 -17   1    2.63    2.27
   4 -17   1    2.50    1.41
  -4  17   1    1.83    2.15
  -4  17   1    2.30    0.30
  -4  17   1    2.77    1.22
   4  17  -1    1.53    1.54
   4  17  -1    1.98    0.26
  -4  17   1    2.39    1.58
   4 -17   1    1.70    1.78
  -4 -17  -1    0.55    1.59
  -4 -17  -1    1.56    1.19
  -4 -17  -1    2.30    0.25
  -4 -17  -1    2.69    0.78
  -4  17   1    0.39    0.93
  -4 -17  -1    3.71    0.94
   4  17  -1    1.95    0.35
   4  17  -1    1.59    0.72
  -4  17   1    1.79    0.26
  -4  17  -3    3.76    0.38
  -4  17  -3    3.74    0.29
   4  17   3    3.22    1.52
   4  17   3    3.56    0.40
   4  17   3    6.64    3.10
   4  17   3    3.68    1.74
  -4  17  -3    3.84    0.39
   4  17   3    5.77    2.43
  -4  17  -3    3.59    0.34
  -4  17   3    4.14    0.33
  -4  17   3    4.29    0.40
  -4 -17  -3    3.26    0.31
   4  17  -3    4.22    0.43
   4  17  -3    4.10    0.36
  -4  17  -5    3.70    0.47
  -4  17  -5    3.43    0.61
  -4  17  -5    3.28    0.42
   4  17   5    3.31    0.51
  -4  17  -5    3.76    0.39
   4  17  -5    2.98    0.54
  -4  17   5    3.10    0.42
   4  17  -5    3.19    0.44
  -4 -17  -5    3.35    0.42
  -4  17   5    3.65    0.48
   4  18   0   23.44    1.69
  -4  18   0   24.11    0.87
  -4  18   0   22.69    0.77
  -4  18   0   22.15    1.94
   4 -18   0   22.28    2.22
  -4  18   0   21.88    2.24
  -4 -18   0   24.58    1.92
   4  18   0   25.11    2.12
  -4 -18   0   25.05    3.07
   4 -18   0   23.20    3.77
  -4 -18   0   23.46    0.69
  -4  18   0   25.32    2.89
   4  18   0   23.74    0.86
   4  18   0   23.81    0.81
   4  18   0   18.02    2.59
   4 -18   0   24.82    2.88
  -4 -18   0   22.20    2.39
  -4 -18   0   23.72    1.65
   4 -18   0   24.66    1.98
  -4  18   0   25.65    4.01
   4  18   0   21.68    1.47
  -4  18  -2   32.94    1.04
  -4 -18   2   32.94    2.15
  -4  18  -2   33.82    1.12
  -4 -18   2   34.76    3.78
   4 -18  -2   32.26    6.17
   4  18   2   31.26    1.34
   4 -18  -2   28.17    4.25
   4  18   2   32.31    1.05
  -4 -18   2   27.62    2.94
   4  18   2   36.87    3.30
  -4 -18   2   29.36    2.41
   4  18   2   47.64    4.33
   4  18   2   35.72    3.01
   4  18   2   34.34    4.14
   4 -18  -2   32.22    3.47
   4  18  -2   33.20    1.06
   4 -18   2   35.84    4.48
   4 -18   2   32.68    2.36
   4  18  -2   36.63    3.12
  -4  18   2   34.04    1.13
   4  18  -2   45.38    3.98
   4 -18   2   30.29    2.66
  -4 -18  -2   28.41    1.94
  -4 -18  -2   33.09    0.98
   4  18  -2   34.14    1.12
  -4  18   2   33.54    0.99
  -4 -18  -2   27.58    2.78
   4 -18   2   33.73    3.43
  -4 -18  -2   30.65    2.23
   4  18  -2   37.91    3.99
   4  18  -2   32.37    2.21
  -4 -18  -2   26.95    3.43
   4  18   4   18.78    0.80
  -4  18  -4   18.81    0.81
  -4  18  -4   18.07    0.69
  -4  18  -4   18.24    0.82
  -4  18  -4   17.50    0.72
  -4 -18  -4   18.31    0.72
   4  18  -4   19.26    0.84
   4  18  -4   18.57    0.78
  -4  18   4   18.32    0.70
  -4  18   4   19.44    0.83
  -4  19  -1    4.17    0.40
   4  19   1    2.82    0.96
   4  19   1    4.20    0.35
  -4  19  -1    4.08    0.24
  -4 -19   1    4.94    1.75
  -4 -19   1    1.42    2.26
  -4 -19   1    4.55    0.23
   4 -19  -1    2.57    3.01
   4  19   1    4.44    1.18
   4  19   1   -0.07    1.79
   4  19   1    4.29    1.45
  -4  19  -1    3.93    0.40
   4 -19  -1    4.28    2.30
   4  19   1    3.76    0.44
  -4 -19   1    2.54    1.29
   4 -19  -1    5.30    1.81
  -4 -19   1    4.80    1.20
   4  19  -1    3.84    1.10
   4  19  -1    4.08    0.44
  -4  19   1    4.17    0.34
   4  19  -1    1.95    1.81
   4  19  -1    4.46    0.99
  -4 -19  -1    4.66    1.02
   4  19  -1    3.96    0.35
  -4 -19  -1    5.06    1.19
  -4 -19  -1   -0.10    2.01
   4 -19   1    4.42    1.21
  -4  19   1    4.01    0.37
  -4 -19  -1    5.54    1.60
   4 -19   1    3.65    1.94
  -4 -19  -1    3.74    0.28
   4  19  -1    5.36    1.44
   4 -19   1    4.49    1.49
   4 -19   1    4.44    2.83
  -4  19  -3    1.71    0.37
   4  19   3    1.19    0.32
  -4  19  -3    1.52    0.25
  -4  19  -3    1.39    0.27
  -4  19  -3    1.18    0.29
  -4  19   3    2.06    0.35
  -4 -19  -3    1.29    0.25
   4  19  -3    0.96    0.33
   4  19  -3    1.40    0.30
  -4  20   0   13.85    0.64
  -4 -20   0   14.48    2.04
  -4 -20   0   16.47    3.42
   4  20   0   16.31    1.97
   4  20   0   13.63    2.20
  -4 -20   0   13.24    1.72
  -4  20   0   13.60    0.57
  -4 -20   0   11.18    2.20
   4  20   0   14.95    2.84
   4  20   0   10.16    2.86
  -4 -20   0   13.81    0.48
   4  20   0   13.61    0.59
  -4  20  -2    8.90    0.41
  -4  20  -2    9.06    0.51
   4  20   2   10.13    0.62
  -4  20  -2    8.95    0.54
   4  20   2    8.91    0.49
   4  20  -2    8.82    0.50
  -4  20   2    9.74    0.55
  -4  20   2    9.68    0.47
   4  20  -2    9.06    0.58
  -4 -20  -2    9.01    0.44
  -4  20  -4   19.65    0.75
   4  20   4   19.88    0.86
  -4  20  -4   18.73    0.83
  -4  20  -4   18.22    0.85
  -4  20  -4   18.32    0.71
  -4  20   4   19.66    0.87
  -4 -20  -4   18.37    0.75
  -4  20   4   18.94    0.75
   4  20  -4   18.96    0.90
   4  20  -4   18.07    0.80
  -4  21  -1    4.02    0.40
  -4  21  -1    4.00    0.26
   4  21   1    3.54    0.46
  -4  21  -1    4.11    0.41
   4  21   1    3.91    0.36
  -4  21   1    3.82    0.39
  -4 -21  -1    4.24    0.29
   4  21  -1    4.14    0.47
  -4  21   1    3.89    0.35
   4  21  -1    3.92    0.36
  -4  21  -3    2.10    0.28
  -4  21  -3    2.43    0.39
   4  21   3    2.59    0.35
   4  21   3    2.36    0.50
  -4  21  -3    2.24    0.44
   4  21  -3    2.42    0.49
  -4  21   3    2.30    0.38
  -4  21   3    2.09    0.35
  -4 -21  -3    2.61    0.35
   4  21  -3    2.50    0.37
  -4  22   0  128.12    3.38
   4  22   0  125.00    3.31
   4  22   0  128.04    3.37
  -4 -22   0  125.18    3.12
  -4  22   0  131.19    3.26
  -4  22  -2   93.94    2.33
  -4  22  -2   91.27    2.54
   4  22   2   90.04    2.56
   4  22   2   87.66    2.46
  -4  22  -2   92.13    2.47
  -4 -22  -2   90.68    2.37
  -4  22   2   89.68    2.55
   4  22  -2   92.90    2.48
   4  22  -2   93.02    2.56
  -4  22   2   90.88    2.41
  -4  22  -4   70.57    2.12
  -4  22  -4   71.59    1.99
  -4  22  -4   74.53    2.14
   4  22   4   69.28    2.14
   4  22  -4   71.55    2.20
  -4  22   4   80.25    2.53
  -4  22   4   69.21    2.00
   4  22  -4   72.23    2.11
  -4 -22  -4   72.08    2.04
   4  23   1    1.22    0.29
   4  23   1    1.35    0.36
  -4  23  -1    1.09    0.28
  -4  23  -1    1.89    0.24
  -4  23  -1    1.48    0.33
  -4 -23  -1    1.51    0.27
   4  23  -1    1.37    0.27
   4  23  -1    1.43    0.37
  -4  23   1    2.08    0.36
  -4  23   1    1.82    0.35
  -4  23  -3    6.74    0.53
   4  23   3    6.99    0.50
  -4  23  -3    7.68    0.44
  -4  23  -3    6.39    0.59
   4  23   3    5.25    0.64
  -4 -23  -3    6.08    0.47
   4  23  -3    6.25    0.50
  -4  23   3    6.64    0.53
  -4  23   3    6.15    0.49
   4  23  -3    6.28    0.65
   4  24   0   10.22    0.54
  -4  24   0    9.26    0.55
  -4  24   0    9.58    0.58
   4  24   0   10.03    0.66
   4  24   2    9.24    0.54
   4  24   2    7.57    0.70
  -4  24  -2    8.46    0.57
  -4  24  -2    8.75    0.44
  -4  24  -2    8.83    0.60
  -4  24   2    8.60    0.58
  -4 -24  -2    9.29    0.49
  -4  24   2    9.50    0.54
   4  24  -2    8.74    0.54
   4  24  -2    8.25    0.67
  -4  25  -1    1.40    0.34
   4  25   1    2.55    0.37
   4  25   1    0.87    0.38
  -4  25  -1    1.31    0.33
  -4  25   1    1.97    0.39
   4  25  -1    2.04    0.35
  -4 -25  -1    1.66    0.31
   4  25  -1    1.45    0.40
  -4  25   1    1.57    0.32
   4  26   0   39.04    1.39
  -4  26   0   40.06    1.27
   4  26   0   38.60    1.26
  -4  26   0   37.68    1.32
   4  26   2   54.94    1.65
  -4  26  -2   54.31    1.67
  -4  26  -2   53.95    1.47
   4  26   2   53.65    1.78
  -4  26  -2   50.79    1.67
   4  26  -2   52.39    1.63
  -4 -26  -2   51.16    1.51
  -4  26   2   55.09    1.60
   4  26  -2   53.98    1.79
  -4  27  -1    1.30    0.34
   4  27   1    1.45    0.33
   4  27   1    2.10    0.47
  -4  27  -1    1.39    0.39
   4  27  -1    1.21    0.41
  -4  27   1    2.16    0.42
   4  27  -1    0.98    0.31
  -4  27   1    0.88    0.34
  -4 -27  -1    1.71    0.34
   4  28   0   69.63    2.15
  -4  28   0   65.57    1.99
   4  28   0   73.66    2.27
  -4  28   0   68.67    2.08
  -5   0   0    0.08    0.12
  -5   0   0    0.27    0.14
  -5   0   2    0.05    0.44
  -5   0  -2   -0.10    0.12
   5   0   2    0.58    0.34
  -5   0   2    0.03    0.57
   5   0   2    0.70    0.65
  -5   0  -2   -0.16    0.13
  -5   0   2   -0.37    0.90
   5   0   2   -0.54    0.39
  -5   0   2   -0.57    0.93
   5   0  -2    0.10    0.11
  -5   0   2   -0.28    0.46
   5   0   2    1.27    0.56
  -5   0   2    0.32    0.76
  -5   0   2   -0.03    0.14
  -5   0   2    1.14    0.79
   5   0   2    0.58    0.51
   5   0   2    0.07    0.43
   5   0   2    0.01    0.79
   5   0   2    0.05    0.09
  -5   0   2    0.48    0.55
   5   0   2    0.16    0.66
   5   0   4   -0.27    1.00
  -5   0   4    0.19    0.19
  -5   0  -4   -0.07    0.18
   5   0   4   -1.68    1.87
   5   0   4    0.28    0.84
   5   0   4    2.57    1.45
   5   0   4    0.12    0.17
   5   0  -4   -0.09    0.15
  -5  -1   1  115.79    2.92
  -5   1  -1  118.77    3.01
  -5   1  -1  115.57    2.94
  -5  -1   1  113.26    2.98
   5  -1  -1  115.23    2.84
   5   1  -1  116.46    2.87
  -5   1   1  115.76    2.98
  -5  -1  -1  119.06    2.94
  -5  -1  -1  119.75    3.01
  -5   1  -3   81.05    2.13
  -5  -1   3   74.92    3.74
   5   1   3   81.19    2.76
  -5  -1   3   77.42    2.89
   5   1   3   81.41    2.61
   5   1   3   80.75    2.61
   5   1   3   82.44    2.02
   5  -1  -3   82.14    1.97
  -5  -1   3   82.18    3.86
  -5   1  -3   80.25    2.22
   5   1   3   79.50    3.52
  -5  -1   3   80.52    2.75
   5   1   3   79.48    3.10
  -5  -1   3   78.16    2.72
  -5  -1   3   77.83    3.29
   5   1   3   80.63    3.12
  -5  -1   3   80.00    2.11
  -5  -1   3   79.46    3.34
  -5  -1   3   81.04    2.92
   5   1   3   86.94    3.62
   5   1   3   80.86    2.76
   5  -1   3   77.39    3.61
  -5   1   3   76.84    2.74
  -5   1   3   80.79    2.13
  -5   1   3   82.51    4.03
   5  -1   3   80.85    2.82
   5   1  -3   81.68    2.00
  -5  -1  -3   81.81    2.13
  -5   1   3   79.20    2.98
  -5  -1  -3   79.16    2.21
   5  -1   3   80.50    3.20
   5  -1   3   79.53    2.01
  -5   1   3   76.48    3.84
  -5   1   3   77.49    3.43
   5  -1   3   80.88    2.65
  -5   1   3   82.01    2.81
  -5   1   3   78.26    3.35
  -5   1   3   75.02    2.91
  -5   1  -5   61.14    1.76
   5   1   5   60.74    1.68
  -5  -1   5   61.53    1.69
   5  -1   5   61.26    1.67
   5   1  -5   62.05    1.62
  -5   1   5   60.03    1.71
  -5  -1  -5   60.72    1.76
  -5  -2   0    1.95    0.24
   5  -2   0    1.93    0.19
  -5   2   0    1.86    0.25
  -5  -2   0    2.07    0.23
  -5   2   0    2.08    0.22
   5   2   0    2.02    0.20
  -5  -2   2    1.04    0.44
   5   2   2    1.32    0.61
   5   2   2   -0.02    0.53
  -5  -2   2    0.77    0.74
  -5  -2   2    1.08    0.51
   5   2   2    0.83    0.16
   5  -2  -2    0.86    0.14
  -5  -2   2    0.29    0.17
   5   2   2    0.75    0.30
  -5  -2   2    1.61    1.50
  -5  -2   2    1.31    0.90
  -5  -2   2    0.49    0.58
  -5   2  -2    0.76    0.18
   5   2   2    0.61    0.34
  -5   2  -2    0.72    0.19
   5   2   2    1.63    0.50
  -5  -2   2    0.42    0.98
   5   2   2    1.19    0.42
   5   2   2    0.98    0.53
  -5  -2   2    0.38    0.70
   5   2   2    1.16    0.37
  -5   2   2    0.84    0.19
   5   2  -2    0.95    0.16
  -5  -2  -2    0.75    0.16
  -5   2   2    1.42    1.03
  -5   2   2    1.21    0.53
  -5   2   2    1.54    0.61
  -5   2   2    2.21    0.82
  -5   2   2    0.00    1.10
  -5   2   2    1.74    0.59
  -5   2   2    1.69    0.92
  -5  -2  -2    0.72    0.19
  -5   2   2    0.21    0.66
   5   2   4   -1.01    0.95
  -5   2  -4    0.15    0.17
   5   2   4    1.10    1.95
   5   2   4    1.24    1.39
   5   2   4    0.10    0.17
   5   2   4    0.70    0.85
   5  -2  -4   -0.08    0.13
  -5   2  -4   -0.06    0.18
  -5  -2   4    0.02    0.19
   5   2  -4    0.11    0.17
   5  -2   4    0.69    0.90
   5  -2   4    2.10    1.55
   5  -2   4   -0.69    1.08
  -5  -2  -4    0.13    0.17
   5  -2   4    2.70    1.95
  -5   2   4    0.24    0.18
  -5  -3   1    2.83    0.25
  -5  -3   1    3.23    0.28
  -5   3  -1    3.84    0.32
  -5   3  -1    3.50    0.27
   5  -3  -1    3.53    0.19
  -5   3  -1    4.68    0.64
   5  -3  -1    3.80    0.20
  -5  -3  -1    3.71    0.27
   5   3  -1    4.27    0.26
   5  -3   1    3.96    0.38
  -5   3   1    3.74    0.74
   5  -3   1    2.81    0.32
  -5   3   1    3.84    0.49
  -5   3   1    3.30    0.64
   5  -3   1    3.23    0.49
  -5   3   1    3.54    0.30
   5  -3   1    3.31    0.49
  -5  -3  -1    3.95    0.30
  -5   3   1    3.11    0.57
  -5   3  -3    6.01    1.45
   5   3   3    1.88    1.19
  -5  -3   3    5.46    0.98
  -5  -3   3    5.46    1.58
   5   3   3    3.93    0.84
  -5   3  -3    7.84    1.20
  -5  -3   3    6.03    1.22
   5   3   3    5.68    0.30
  -5  -3   3    6.00    0.96
  -5  -3   3    5.85    1.04
  -5   3  -3    8.60    1.15
  -5   3  -3    6.97    0.37
  -5  -3   3    5.45    1.60
  -5   3  -3    6.18    0.42
   5   3   3    6.25    1.10
   5   3   3    6.13    1.01
  -5  -3   3    5.23    0.36
  -5   3  -3    5.69    1.78
  -5  -3   3    8.15    1.28
  -5  -3   3    7.38    1.39
   5  -3   3    5.88    1.31
  -5   3   3    6.01    1.32
   5  -3   3    7.03    1.71
   5  -3   3    6.10    1.07
  -5  -3  -3    6.52    0.37
  -5  -3  -3    6.21    0.42
  -5   3   3    5.92    1.01
  -5   3   3    7.18    1.90
   5  -3   3    5.74    1.01
  -5   3   3    6.60    1.06
  -5   3   3    5.19    0.37
  -5   3   3    5.15    0.92
  -5   3   3    8.43    1.82
  -5   3   3    6.65    1.38
  -5   3   3    5.75    1.76
   5   3  -3    6.22    0.30
  -5   3  -5    5.16    0.41
   5   3   5    4.34    0.38
  -5  -3   5    4.41    0.40
   5   3  -5    5.18    0.36
  -5   3   5    4.51    0.42
  -5  -3  -5    5.26    0.43
  -5   4   0   15.88    0.60
  -5   4   0   15.52    0.81
  -5  -4   0   14.88    0.52
  -5   4   0   14.18    0.54
  -5   4   0   14.03    0.58
  -5   4   0   14.15    0.88
  -5   4   0   14.34    0.59
  -5   4   0   14.22    0.75
  -5   4   0   15.21    0.94
  -5  -4   0   14.53    0.56
  -5   4   0   14.38    0.63
   5   4   0   14.56    0.51
  -5   4   0   14.82    0.66
   5   4   2    8.20    0.55
   5   4   2    8.62    0.72
  -5   4  -2    8.36    0.46
  -5   4  -2    8.29    0.86
   5   4   2    9.02    0.85
   5   4   2    8.27    0.56
   5   4   2    8.24    0.86
  -5  -4   2    7.85    0.84
   5   4   2    8.26    0.32
  -5   4  -2    7.21    0.99
  -5  -4   2    7.96    1.11
   5   4   2    8.07    0.50
  -5  -4   2    7.95    0.39
  -5  -4   2    7.65    1.38
   5   4   2    7.15    0.71
  -5   4  -2    8.30    1.33
  -5   4  -2    9.18    1.73
  -5  -4   2    8.36    0.72
  -5   4  -2    8.04    0.40
   5   4   2    9.18    0.49
  -5   4   2    8.56    0.99
   5  -4   2    7.80    0.91
  -5   4   2    6.94    0.89
  -5   4   2    6.44    1.49
  -5   4   2   10.45    1.52
  -5   4   2    8.65    1.14
  -5   4   2    8.49    1.78
   5  -4   2    9.02    1.07
  -5  -4  -2    7.86    0.44
   5  -4   2    8.32    1.36
   5  -4   2   10.34    1.80
  -5   4   2    8.17    1.39
  -5   4   2    7.86    1.04
   5   4  -2    8.34    0.35
  -5  -4  -2    8.34    0.39
  -5   4   2    8.02    0.66
  -5   4  -4    1.74    0.29
   5   4   4    1.42    0.28
  -5  -4   4    1.51    0.32
   5   4   4    1.57    0.87
   5   4   4    2.09    1.45
  -5   4  -4    1.88    0.34
   5   4   4    0.71    1.04
   5   4   4    3.27    2.00
   5  -4   4    0.32    2.24
   5  -4   4    2.76    1.80
   5  -4   4    2.35    1.24
  -5   4   4    1.69    0.30
   5  -4   4    1.27    1.09
   5   4  -4    1.13    0.25
  -5  -4  -4    1.64    0.30
  -5   5  -1  101.66    2.68
  -5   5  -1   99.90    3.43
  -5   5  -1  100.91    2.89
  -5  -5   1  106.10    2.67
  -5   5  -1  104.21    3.22
  -5   5  -1  103.19    2.76
  -5   5  -1  103.37    3.00
  -5  -5   1  108.56    2.64
  -5   5   1  107.48    3.36
  -5   5   1  109.24    3.00
   5  -5   1  112.86    3.23
   5  -5   1  115.14    3.11
  -5   5   1  105.02    3.15
  -5   5   1  108.98    3.10
  -5  -5  -1  102.97    2.71
  -5   5   1   98.68    3.76
   5  -5   1  101.80    3.92
  -5  -5  -1  102.97    2.65
  -5   5   1  106.49    2.74
  -5   5   1  104.53    3.03
  -5   5   1  104.50    3.66
   5   5  -1   99.76    2.63
   5  -5   1  109.15    3.50
  -5   5   1  102.41    3.42
  -5  -5   3  147.90    4.36
   5   5   3  131.25    4.38
  -5   5  -3  136.89    5.53
  -5   5  -3  136.78    4.89
  -5   5  -3  140.83    4.24
  -5  -5   3  139.40    4.27
  -5  -5   3  144.92    3.44
  -5  -5   3  136.90    4.08
   5   5   3  146.95    3.41
  -5  -5   3  146.40    4.79
  -5   5  -3  134.83    3.60
  -5   5  -3  135.33    3.51
   5   5   3  125.63    4.58
  -5  -5   3  132.65    5.14
   5   5   3  124.34    4.64
  -5  -5   3  138.52    4.68
   5   5   3  137.45    4.81
   5   5   3  139.03    3.93
  -5  -5   3  147.33    4.18
  -5   5  -3  131.52    4.39
   5   5   3  136.39    4.07
  -5  -5   3  148.80    5.39
  -5   5   3  146.73    5.12
  -5   5   3  143.99    5.75
   5  -5   3  143.54    4.20
  -5   5   3  137.17    4.48
   5  -5   3  136.21    4.81
  -5   5   3  140.43    4.55
  -5   5   3  131.37    4.94
   5  -5   3  139.44    4.39
   5  -5   3  140.66    5.40
  -5   5   3  133.23    5.48
   5   5  -3  133.14    3.41
  -5   5   3  139.80    4.32
  -5  -5  -3  137.83    3.50
  -5   5   3  141.79    3.54
  -5   5   3  140.90    4.31
   5   5   5  123.08    3.04
  -5   5  -5  117.75    3.09
   5   5  -5  114.50    2.98
  -5   5   5  119.50    3.11
  -5  -5  -5  114.76    3.09
  -5   6   0   25.89    1.08
  -5   6   0   22.53    1.67
  -5   6   0   26.57    1.43
  -5  -6   0   25.20    0.82
   5   6   0   24.87    0.78
   5  -6   0   26.61    1.16
   5  -6   0   23.57    1.60
  -5   6   0   24.28    0.80
   5  -6   0   26.71    1.39
  -5   6   0   25.52    1.18
   5  -6   0   27.40    1.07
   5  -6   0   24.57    0.68
  -5   6   0   25.26    0.86
  -5  -6   2   15.03    1.13
   5   6   2   15.93    0.92
  -5  -6   2   15.05    1.83
  -5  -6   2   13.05    1.57
  -5   6  -2   14.77    0.58
   5   6   2   14.82    0.79
  -5  -6   2   16.40    1.06
   5   6   2   15.71    0.96
  -5   6  -2   16.07    0.66
  -5  -6   2   16.88    0.93
   5   6   2   16.15    0.68
   5   6   2   13.44    1.13
  -5   6  -2   15.54    1.10
   5   6   2   16.81    0.72
  -5  -6   2   15.74    0.55
  -5   6  -2   18.36    1.67
  -5  -6   2   12.20    1.27
  -5   6  -2   19.72    2.10
   5   6   2   15.32    0.75
   5   6   2   16.43    0.50
  -5   6  -2   17.82    1.29
  -5  -6   2   15.04    1.25
   5   6   2   15.50    1.08
  -5  -6   2   15.44    1.65
  -5   6   2   14.70    1.15
  -5   6   2   17.84    1.91
   5   6  -2   15.90    0.56
  -5   6   2   14.32    1.25
  -5   6   2   15.68    0.63
   5  -6   2   16.97    1.73
  -5   6   2   20.05    1.52
   5  -6   2   14.45    1.17
  -5   6   2   17.04    2.18
   5  -6   2   16.10    2.16
  -5   6   2   16.20    1.36
   5  -6   2   13.58    1.34
  -5  -6  -2   15.48    0.63
  -5   6   2   20.51    1.78
  -5  -6  -2   15.80    0.58
  -5   6   2   22.98    2.49
  -5  -6   4    3.74    0.32
   5   6   4    6.03    1.30
   5   6   4    5.21    1.09
   5   6   4    5.94    2.23
   5   6   4    3.52    0.40
  -5   6  -4    3.86    0.42
  -5   6  -4    4.41    0.36
   5   6   4    6.37    1.69
  -5  -6  -4    4.12    0.35
  -5   6   4    4.32    0.38
   5   6  -4    3.91    0.32
  -5   7  -1  153.03    4.49
  -5  -7   1  148.44    3.63
  -5   7  -1  149.94    4.05
  -5   7  -1  144.99    3.67
  -5  -7   1  150.50    3.60
  -5   7  -1  148.66    3.75
  -5   7  -1  146.71    4.16
  -5   7  -1  144.10    4.83
  -5   7   1  143.96    5.18
  -5   7   1  142.40    4.33
  -5  -7  -1  149.06    3.63
   5  -7   1  146.83    4.20
  -5   7   1  150.36    4.74
  -5   7   1  145.28    4.18
  -5   7   1  143.41    3.72
   5  -7   1  143.50    4.49
   5  -7   1  148.24    4.08
  -5   7   1  144.74    5.03
   5  -7   1  139.95    4.84
   5   7  -1  143.00    3.64
   5   7   3   91.92    3.47
  -5  -7   3   82.60    4.12
  -5  -7   3   90.03    3.07
  -5   7  -3  101.71    3.38
   5   7   3   93.60    3.70
  -5   7  -3  103.02    3.62
  -5   7  -3   97.61    4.73
   5   7   3   99.59    2.41
  -5   7  -3  101.49    2.51
   5   7   3   92.32    3.94
  -5  -7   3  101.01    2.40
   5   7   3   92.47    3.25
  -5  -7   3   86.40    3.23
   5   7   3   94.11    4.12
   5   7   3   95.80    3.13
   5   7   3   94.65    2.97
   5   7   3   92.77    3.08
  -5   7  -3   97.51    2.60
  -5  -7   3   91.09    3.65
  -5   7  -3  101.32    4.13
  -5  -7  -3   98.99    2.49
  -5   7   3   87.68    4.09
  -5   7   3   95.15    3.64
   5  -7   3   99.68    4.07
  -5   7   3   88.62    3.55
  -5   7   3   85.82    4.67
   5   7  -3   98.85    2.43
  -5   7   3   93.53    3.39
   5  -7   3   91.88    3.28
  -5   7   3   98.53    4.22
  -5   7   3   97.92    4.91
  -5   7   3   95.27    2.53
   5  -7   3   92.91    3.51
  -5   7   3   89.39    3.33
  -5   7  -5   38.59    1.21
   5   7   5   37.50    1.17
  -5  -7  -5   37.28    1.21
   5   7  -5   37.17    1.12
  -5   7   5   36.41    1.23
   5  -8   0   14.21    0.97
  -5   8   0   16.48    1.05
  -5   8   0   14.81    1.96
   5  -8   0   15.01    1.09
  -5   8   0   16.96    1.56
  -5   8   0   15.28    0.63
   5  -8   0   14.91    1.76
  -5   8   0   14.89    1.20
   5   8   0   15.23    0.57
   5  -8   0   16.83    1.39
  -5   8   0   15.19    0.58
   5   8   2    8.64    1.28
   5   8   2    8.78    0.83
   5   8   2    8.63    0.74
  -5  -8   2    8.94    1.77
  -5   8  -2    8.94    0.43
   5   8   2    8.70    0.77
  -5  -8   2    7.76    0.87
   5   8   2    9.39    0.67
   5   8   2    8.69    1.22
   5   8   2    9.11    0.38
  -5   8  -2   11.57    1.35
   5   8   2    8.62    1.01
  -5  -8   2   10.56    1.37
  -5  -8   2    7.69    1.05
  -5   8  -2    7.08    1.71
   5   8   2   10.69    1.09
  -5   8  -2    8.58    0.48
  -5   8  -2    7.48    1.42
  -5   8  -2    9.13    1.13
  -5  -8   2    8.60    0.38
  -5   8   2    7.02    1.44
   5  -8   2   10.24    1.15
   5  -8   2   10.15    1.79
  -5   8   2    9.02    1.89
  -5   8   2    9.39    1.31
  -5   8   2    8.65    0.47
  -5   8   2    8.08    1.10
   5   8  -2    8.29    0.40
  -5   8   2    9.22    1.26
  -5   8   2    7.27    2.01
   5  -8   2    5.22    1.71
  -5   8   2   10.45    1.76
  -5   8   2   10.05    1.88
   5  -8   2    7.63    1.31
  -5  -8  -2    8.77    0.41
   5   8   4    2.28    0.39
  -5   8  -4    2.34    0.38
  -5   8  -4    2.31    0.32
   5   8  -4    2.31    0.28
  -5   8   4    2.12    0.34
  -5  -8  -4    2.26    0.31
  -5   9  -1   39.48    1.85
   5   9   1   36.51    1.02
  -5   9  -1   38.57    1.19
   5  -9  -1   39.86    2.22
  -5   9  -1   37.40    1.12
   5  -9  -1   39.71    1.70
   5  -9  -1   32.11    2.57
  -5   9  -1   37.35    2.23
   5  -9  -1   40.98    1.87
  -5  -9   1   37.02    1.03
  -5  -9   1   35.14    1.20
  -5   9  -1   38.25    1.67
  -5  -9   1   37.58    1.06
  -5   9  -1   39.23    2.70
   5   9   1   36.66    1.10
  -5   9   1   35.74    2.92
   5   9  -1   37.40    1.10
   5  -9   1   34.38    2.18
  -5   9   1   35.53    1.97
  -5   9   1   37.79    1.80
  -5   9   1   36.62    1.17
   5  -9   1   40.86    2.75
  -5   9   1   39.26    2.41
   5  -9   1   35.51    1.83
  -5  -9  -1   38.27    1.07
   5  -9   1   37.13    1.68
  -5  -9   3   19.86    2.36
   5   9   3   19.23    0.67
   5   9   3   17.25    1.32
   5   9   3   20.28    1.54
  -5   9  -3   22.22    0.74
   5   9   3   19.82    1.95
   5   9   3   18.50    1.99
   5   9   3   16.78    1.55
  -5  -9   3   18.53    1.83
  -5  -9   3   22.09    1.62
  -5   9  -3   19.50    2.53
  -5   9  -3   20.68    1.98
   5   9   3   17.63    1.37
  -5   9  -3   18.19    3.28
   5   9   3   18.42    2.48
  -5  -9   3   19.64    0.62
  -5  -9   3   23.35    3.13
  -5   9  -3   23.75    1.74
   5   9   3   20.08    2.43
  -5   9  -3   21.21    0.82
   5  -9   3   15.11    3.23
  -5   9   3   17.88    3.42
  -5   9   3   16.36    2.53
  -5   9   3   20.54    2.62
  -5  -9  -3   21.43    0.73
  -5   9   3   19.33    1.73
  -5   9   3   22.09    2.32
   5  -9   3   19.77    1.72
   5  -9   3   19.38    2.50
  -5   9   3   18.96    0.77
  -5   9   3   19.10    1.98
   5   9  -3   21.67    0.70
  -5   9   3   19.24    4.34
   5  -9   3   16.05    1.96
  -5   9   3   15.59    3.26
   5   9   5   10.60    0.59
  -5   9  -5   12.45    0.61
  -5   9  -5   13.41    0.72
  -5   9   5   10.77    0.64
  -5  -9  -5   13.47    0.63
   5   9  -5   12.66    0.56
  -5  10   0    5.81    1.65
  -5  10   0    5.16    1.01
  -5  10   0    5.59    1.03
   5 -10   0    6.31    0.94
   5 -10   0    5.99    0.96
   5  10   0    5.55    0.33
  -5  10   0    5.84    0.39
  -5 -10   0    5.40    0.36
   5 -10   0   10.51    2.03
  -5  10   0    5.17    1.27
   5  10   0    5.44    0.35
   5 -10   0    6.40    1.23
  -5 -10   0    5.18    0.41
  -5  10  -2    1.61    1.62
  -5 -10   2    4.46    0.79
   5  10   2    3.55    0.64
  -5  10  -2    2.52    1.34
   5  10   2    2.47    1.05
  -5  10  -2    4.34    0.91
   5  10   2    3.82    0.74
   5  10   2    4.21    0.30
  -5  10  -2    4.17    1.08
  -5  10  -2    3.52    0.35
   5  10   2    3.29    0.84
  -5 -10   2    5.55    1.22
   5  10   2    2.24    1.10
   5  10   2    5.17    1.01
  -5  10  -2    3.60    0.31
  -5 -10   2    3.67    0.26
   5  10   2    3.70    0.70
  -5 -10   2    4.75    0.91
   5  10   2    3.86    0.69
  -5 -10   2    3.39    1.44
   5  10  -2    4.73    0.89
  -5  10   2    4.17    1.35
  -5  10   2    3.46    1.76
  -5  10   2    3.32    0.87
  -5  10   2    3.59    1.02
   5 -10   2    0.92    1.81
  -5 -10  -2    3.43    0.29
   5 -10   2    4.01    1.14
  -5  10   2    4.32    1.57
  -5  10   2    2.57    1.13
   5 -10   2    3.30    1.35
  -5  10   2    3.36    0.34
   5 -10   2    3.31    0.92
   5  10  -2    3.46    1.05
   5  10  -2    3.12    0.81
  -5  10   2    4.49    1.04
  -5  10   2    2.75    2.00
   5  10  -2    3.18    1.28
   5  10  -2    3.47    0.30
  -5  10  -4    1.46    0.30
  -5  10  -4    1.05    0.26
   5  10   4    1.82    0.30
  -5 -10  -4    0.87    0.24
  -5  10   4    1.06    0.26
   5  10  -4    1.20    0.26
  -5  11  -1  235.53    6.68
   5  11   1  236.81    5.74
   5  11   1  241.32    5.75
   5  11   1  227.55    6.04
   5  11   1  236.98    5.91
  -5 -11   1  229.85    6.47
   5  11   1  235.43    5.78
  -5 -11   1  240.37    5.68
   5  11   1  238.72    5.79
   5 -11  -1  232.89    6.47
  -5 -11   1  232.41    5.93
   5  11   1  235.56    5.79
   5 -11  -1  232.54    6.66
   5 -11  -1  231.40    7.11
  -5 -11   1  236.24    6.02
  -5  11  -1  243.22    7.20
  -5 -11   1  245.04    5.72
   5  11   1  239.40    5.89
   5  11   1  223.91    6.00
   5  11   1  237.36    5.71
   5 -11  -1  238.75    7.76
  -5  11  -1  235.56    5.80
  -5 -11   1  237.59    6.24
  -5  11  -1  245.73    7.84
  -5  11  -1  240.18    6.50
   5  11  -1  235.47    5.93
   5  11  -1  240.10    6.02
  -5  11   1  239.74    5.89
   5  11  -1  244.36    5.70
  -5 -11  -1  237.50    5.73
   5 -11   1  233.81    6.74
   5  11  -1  233.05    6.45
   5 -11   1  234.99    7.21
  -5  11   1  242.83    6.64
  -5  11   1  239.02    6.85
   5  11  -1  236.46    5.78
   5 -11   1  237.91    6.55
  -5  11   1  222.84    7.95
  -5  11   1  235.16    7.34
   5 -11   1  222.42    7.73
   5  11  -1  239.65    6.22
   5  11   3  199.79    6.27
   5  11   3  203.73    5.84
   5  11   3  207.22    4.92
  -5  11  -3  202.57    4.99
   5  11   3  203.29    5.64
  -5  11  -3  199.49    5.10
   5  11   3  201.72    6.84
   5 -11   3  195.31    7.83
  -5 -11  -3  193.82    4.95
   5 -11   3  199.75    6.37
  -5  11   3  201.09    5.06
   5 -11   3  200.58    6.09
   5 -11   3  197.54    7.02
   5  11  -3  200.87    4.96
  -5  11  -5  164.51    4.32
   5  11   5  169.98    4.17
  -5  11  -5  165.66    4.18
   5  11  -5  159.96    4.12
  -5  11   5  162.30    4.25
  -5 -11  -5  159.90    4.21
   5  12   0    1.82    0.31
  -5  12   0    2.90    1.37
   5  12   0    2.13    0.68
  -5  12   0    2.28    0.31
   5  12   0    1.84    0.39
  -5  12   0   -1.45    1.71
   5 -12   0    2.71    0.96
  -5  12   0    2.79    0.90
   5 -12   0    2.51    1.29
  -5 -12   0    1.70    0.23
   5  12   0    3.74    0.59
  -5  12   0    1.71    1.03
   5 -12   0    1.89    0.82
   5  12   0    3.06    0.60
   5 -12   0    1.88    1.65
   5  12   0    1.99    0.27
   5  12   2    2.81    0.72
   5  12   2    1.57    0.25
   5  12   2    1.92    0.80
  -5 -12   2    0.65    1.50
  -5  12  -2    2.36    0.34
  -5 -12   2    3.11    0.79
  -5 -12   2    1.39    0.90
  -5  12  -2    1.18    0.22
   5  12   2    0.22    1.20
   5  12   2    1.30    1.02
  -5 -12   2    1.04    1.17
  -5  12  -2    3.19    2.04
   5  12   2    2.12    0.82
  -5  12  -2    3.31    1.20
  -5  12  -2    3.59    1.05
   5  12   2    2.62    1.05
   5  12   2    1.74    0.66
  -5  12  -2    1.48    1.60
   5  12   2    3.06    1.30
  -5  12   2    1.44    1.58
  -5  12   2    1.12    1.24
  -5  12   2    2.66    2.15
   5 -12   2    1.87    0.99
   5  12  -2    0.84    0.74
   5  12  -2    2.67    1.18
  -5 -12  -2    1.81    0.26
   5  12  -2    1.90    0.27
   5  12  -2    2.54    1.44
  -5  12   2    1.92    1.09
   5 -12   2   -0.65    1.99
   5  12  -2    1.16    0.88
   5 -12   2    0.10    1.10
  -5  12   2    1.79    0.30
   5 -12   2    2.35    1.50
   5  12   4    1.79    0.36
  -5  12  -4    2.16    0.40
  -5  12  -4    2.49    0.36
  -5  12   4    1.63    0.27
   5  12  -4    1.49    0.30
  -5  12   4    1.20    0.36
  -5 -12  -4    1.61    0.32
  -5 -13   1   16.19    1.61
  -5 -13   1   17.74    1.28
   5 -13  -1   19.34    1.75
  -5 -13   1   19.30    1.13
   5 -13  -1   18.40    1.50
  -5  13  -1   18.79    2.40
   5  13   1   19.38    0.70
   5  13   1   19.02    1.46
   5  13   1   20.68    1.67
   5 -13  -1   17.30    2.16
   5  13   1   19.58    0.70
  -5  13  -1   19.05    0.71
  -5  13  -1   22.55    1.89
   5  13   1   19.81    1.17
   5  13   1   15.84    1.75
  -5  13  -1   20.52    3.09
   5  13   1   19.08    1.10
   5  13   1   19.55    1.03
   5  13   1   18.19    1.35
  -5 -13   1   19.41    0.60
   5  13   1   20.28    0.98
  -5  13  -1   19.73    1.60
   5 -13  -1   19.41    2.85
  -5 -13   1   20.89    2.02
  -5  13  -1   19.74    0.78
  -5  13   1   19.80    0.78
  -5 -13  -1   18.49    0.64
   5 -13   1   17.67    2.36
   5  13  -1   17.93    1.08
   5 -13   1   18.92    1.62
   5  13  -1   20.60    1.55
   5  13  -1   19.88    1.89
   5 -13   1   17.05    3.07
  -5  13   1   13.82    2.51
   5  13  -1   18.61    0.69
  -5  13   1   18.58    2.41
   5  13  -1   19.37    0.67
  -5  13   1   19.14    1.90
   5 -13   1   18.70    1.87
  -5  13   1   19.59    1.63
   5  13  -1   19.83    1.25
   5  13   3   20.39    0.74
  -5  13  -3   19.71    0.75
   5  13   3   21.87    3.07
   5  13   3   18.03    1.63
   5  13   3   21.23    1.92
  -5  13  -3   20.50    0.85
   5  13   3   21.00    2.53
  -5  13   3   20.47    0.82
  -5 -13  -3   18.40    0.72
   5  13  -3   18.91    0.73
  -5  13   3   20.23    0.58
  -5  14   0    0.11    0.19
  -5  14   0   -0.48    1.14
  -5 -14   0    0.49    0.50
  -5 -14   0    0.50    0.83
   5  14   0   -0.01    0.62
   5  14   0    0.54    0.24
   5  14   0    0.04    0.17
   5 -14   0    0.22    1.91
   5  14   0   -0.44    0.50
   5 -14   0   -1.09    1.05
  -5  14   0    0.06    0.92
  -5 -14   0    1.22    0.62
   5 -14   0    0.07    0.86
  -5  14   0    0.84    2.04
  -5 -14   0   -1.02    0.98
  -5 -14   0    0.42    0.17
   5 -14   0    0.79    1.40
   5  14   0    1.29    1.00
  -5  14   0   -1.21    1.45
   5  14   0    0.17    0.83
  -5  14  -2    0.25    0.23
   5  14   2    0.68    1.22
   5 -14  -2   -0.34    2.12
   5  14   2   -0.11    0.23
   5 -14  -2    0.99    1.59
  -5  14  -2    0.27    0.20
   5  14   2    0.94    0.90
   5  14   2    0.94    1.54
   5  14   2    0.90    0.76
   5 -14  -2    1.08    1.02
   5 -14  -2    0.14    1.21
   5  14  -2    0.44    0.19
   5 -14   2    1.65    1.74
   5 -14   2   -0.97    1.25
   5 -14   2    1.72    2.39
  -5  14   2    0.39    0.19
   5 -14   2    0.52    1.10
   5  14  -2   -0.05    0.21
  -5 -14  -2    0.29    0.18
   5  14   4    0.28    0.27
   5  14  -4    0.52    0.26
  -5  14   4    0.21    0.24
  -5  14   4    0.45    0.19
  -5 -14  -4    0.21    0.23
   5 -15  -1  103.70    5.24
   5  15   1   92.08    3.75
   5  15   1   94.95    3.96
   5  15   1   93.05    3.36
  -5 -15   1   95.29    3.27
   5  15   1   97.49    2.51
  -5  15  -1   95.75    2.63
  -5 -15   1   94.76    4.21
  -5  15  -1   94.86    4.43
  -5 -15   1   92.09    3.65
   5 -15  -1   92.35    3.76
  -5 -15   1   94.56    3.08
  -5  15  -1   93.78    3.53
   5  15   1   95.47    2.91
   5  15   1   96.66    2.53
  -5  15  -1   97.73    3.83
   5 -15  -1   94.40    3.53
  -5  15  -1   90.38    5.13
   5  15   1   90.24    3.03
  -5 -15   1  101.65    2.38
   5 -15  -1  103.30    4.46
  -5  15   1   91.18    4.42
   5  15  -1   94.70    3.15
  -5  15   1   95.55    3.85
   5  15  -1   98.12    2.49
   5 -15   1   97.98    3.63
   5 -15   1   96.42    3.89
   5  15  -1   94.12    3.50
  -5  15   1   93.14    5.21
   5  15  -1   96.64    3.01
  -5 -15  -1   96.35    2.44
  -5  15   1   98.33    3.60
   5  15  -1   93.52    2.52
   5  15  -1   94.04    3.91
   5 -15   1   99.02    4.52
   5 -15   1  102.40    5.37
  -5  15   1   98.44    2.63
  -5  15  -3  119.30    3.15
  -5  15  -3  119.52    3.04
   5  15   3  105.87    3.11
   5  15  -3  113.93    3.02
  -5 -15  -3  115.45    2.98
  -5  15   3  116.11    3.12
   5  15  -3  117.06    3.02
  -5  15   3  117.56    2.84
   5 -16   0    6.13    2.48
  -5 -16   0    4.86    0.92
  -5 -16   0    8.33    1.65
   5 -16   0    7.92    1.46
   5  16   0    6.65    0.99
  -5 -16   0    4.91    0.37
   5  16   0    6.36    1.15
  -5  16   0    5.44    1.60
  -5  16   0    3.73    1.31
   5 -16   0    5.01    1.22
   5 -16   0    7.11    1.91
  -5  16   0    8.02    2.81
  -5  16   0    6.21    0.45
   5  16   0    5.46    1.43
  -5 -16   0    5.57    0.99
  -5 -16   0    4.72    1.55
   5  16   0    8.44    1.51
   5  16   0    5.53    0.38
   5  16   0    5.82    0.44
  -5  16   0    7.65    2.08
   5  16   2    2.82    1.01
  -5  16  -2    3.62    0.36
   5  16   2    2.14    1.95
   5  16   2    3.86    1.21
   5  16   2    3.26    0.43
   5  16   2    3.54    0.35
  -5  16  -2    3.87    0.43
   5  16   2    1.48    1.61
   5  16  -2    3.76    0.36
  -5 -16  -2    3.24    0.32
   5  16  -2    3.18    0.46
  -5  16   2    3.78    0.40
  -5  16   2    3.54    0.26
  -5  16  -4    0.66    0.24
  -5  16  -4    1.19    0.32
   5  16   4    0.72    0.32
  -5  16  -4    1.07    0.27
  -5 -16  -4    0.61    0.25
   5  16  -4    0.20    0.31
  -5  16   4    0.26    0.20
  -5  16   4    0.30    0.25
   5  16  -4    0.18    0.26
   5  17   1  166.28    4.35
  -5  17  -1  181.51    4.17
  -5  17  -1  171.01    4.46
   5  17   1  172.64    4.37
  -5 -17   1  173.22    4.17
  -5 -17  -1  173.02    4.25
   5  17  -1  174.02    4.34
  -5  17   1  176.08    4.17
   5  17  -1  170.20    4.35
  -5  17   1  171.56    4.45
  -5  17  -3  123.90    3.30
  -5  17  -3  119.56    3.04
  -5  17  -3  124.79    3.17
   5  17   3  116.38    3.14
  -5 -17  -3  121.81    3.12
   5  17  -3  122.04    3.19
  -5  17   3  117.81    3.27
  -5  17   3  120.62    3.00
   5  17  -3  122.67    3.18
   5  18   0   10.65    0.60
   5  18   0    9.59    0.52
  -5  18   0   10.71    0.59
  -5  18   0   10.24    0.41
  -5  18  -2    5.87    0.51
   5  18   2    5.11    0.41
  -5  18  -2    5.53    0.37
  -5  18   2    5.43    0.40
  -5 -18  -2    5.24    0.38
   5  18  -2    4.92    0.55
  -5  18   2    5.44    0.47
   5  18  -2    6.48    0.44
   5  18   4    0.93    0.36
   5  18  -4    0.43    0.37
  -5  18   4    1.10    0.25
  -5 -18  -4    0.59    0.28
   5  18  -4    1.96    0.41
  -5  18   4    1.03    0.34
   5  19   1   19.99    0.78
   5  19   1   20.57    0.87
  -5  19  -1   19.98    0.85
  -5  19  -1   21.15    0.67
   5  19  -1   19.93    0.77
  -5  19   1   20.68    0.66
  -5  19   1   20.35    0.86
   5  19  -1   17.71    1.00
  -5 -19  -1   20.57    0.68
   5  19   3   10.00    0.64
  -5  19  -3   10.06    0.66
   5  19   3   10.60    0.58
  -5  19  -3   10.59    0.48
  -5  19  -3   11.17    0.60
  -5  19   3   10.45    0.64
  -5 -19  -3   11.40    0.56
   5  19  -3   10.04    0.79
  -5  19   3   10.01    0.48
   5  19  -3   10.08    0.58
   5  20   0    9.65    0.52
  -5  20   0    9.48    0.59
  -5  20   0    9.38    0.48
   5  20   2    4.93    0.57
  -5  20  -2    6.32    0.44
  -5  20  -2    5.97    0.40
  -5  20  -2    6.24    0.54
   5  20   2    6.26    0.46
  -5 -20  -2    5.90    0.43
  -5  20   2    5.20    0.37
  -5  20   2    6.58    0.51
   5  20  -2    6.01    0.57
   5  20  -2    6.19    0.46
  -5  21  -1  103.44    2.93
   5  21   1  104.28    2.87
  -5  21  -1  108.92    2.70
   5  21   1  107.72    2.85
  -5 -21  -1  105.03    2.69
  -5  21   1  107.60    2.68
   5  21  -1  105.66    2.87
  -5  21   1  107.49    2.94
   5  21  -1  105.77    2.83
   5  21   3  110.46    2.93
   5  21   3  107.16    2.91
  -5  21  -3  108.66    3.00
  -5  21  -3  104.88    2.72
  -5 -21  -3  100.82    2.79
  -5  21   3  106.66    2.72
   5  21  -3  106.98    2.89
   5  21  -3  107.09    2.96
  -5  22   0    6.91    0.54
   5  22   0    6.20    0.61
  -5  22   0    7.22    0.43
   5  22   0    6.26    0.46
   5  22   2    4.76    0.62
  -5  22  -2    5.23    0.55
   5  22   2    3.85    0.45
  -5  22  -2    5.18    0.44
  -5  22   2    4.54    0.50
  -5  22   2    4.48    0.40
   5  22  -2    4.95    0.62
  -5 -22  -2    4.86    0.43
   5  22  -2    5.14    0.46
   5  23   1   14.18    0.68
   5  23   1   13.52    0.80
  -5  23  -1   14.55    0.76
  -5  23  -1   12.96    0.61
   5  23  -1   14.05    0.80
  -5  23   1   12.78    0.58
  -5  23   1   14.21    0.75
   5  23  -1   13.90    0.66
  -5 -23  -1   13.14    0.57
   5  24   0    1.46    0.33
  -5  24   0    2.29    0.41
   5  24   0    1.80    0.44
  -5  24   0    2.13    0.45
  -6   0   0  145.18    3.69
  -6   0   0  143.00    3.62
   6   0   0  143.00    3.54
  -6   0  -2  152.76    3.96
   6   0  -2  150.86    3.69
  -6   0  -2  152.26    3.87
  -6   0   2  155.45    3.88
  -6   0   4  186.70    4.64
  -6   0  -4  183.18    4.68
   6   0   4  185.67    4.53
  -6   1  -1    7.16    0.44
  -6  -1   1    6.22    0.41
  -6   1  -1    6.62    0.40
   6  -1  -1    6.31    0.31
  -6  -1  -1    6.50    0.42
  -6   1   1    6.55    0.42
  -6  -1  -1    6.68    0.38
   6   1  -1    6.99    0.33
   6   1   3    4.23    0.32
  -6  -1   3    5.52    0.98
  -6  -1   3    6.86    1.83
  -6   1  -3    4.87    0.44
   6   1   3    4.71    0.75
  -6   1  -3    4.29    0.38
   6   1   3    5.17    1.31
   6   1   3    5.63    1.10
   6   1   3    5.18    1.15
  -6  -1   3    4.75    0.38
  -6  -1   3    6.85    1.51
  -6  -1   3    4.64    1.10
  -6   1   3    4.80    0.40
  -6  -1  -3    4.45    0.43
  -6   1   3    4.32    1.14
  -6  -1  -3    3.85    0.36
   6  -1   3    5.78    0.99
   6  -1   3    6.34    1.05
   6  -1   3    5.98    1.31
   6   1  -3    4.40    0.27
  -6   1   3    3.90    1.92
  -6   1   3    5.72    1.03
   6  -1   3    6.78    1.56
  -6   1   3    5.04    1.48
  -6  -2   0   91.73    2.44
   6  -2   0   93.57    2.36
  -6  -2   0   98.44    2.52
  -6   2   0   92.95    2.46
   6   2   0   92.95    2.40
  -6   2   0   94.92    2.54
  -6  -2   2   57.68    1.57
  -6   2  -2   57.13    1.58
  -6   2  -2   55.97    1.67
  -6   2   2   56.18    1.60
  -6   2   2   54.39    2.55
   6   2  -2   56.53    1.44
  -6   2   2   54.19    1.70
  -6   2   2   52.52    1.91
  -6   2   2   52.52    2.20
  -6  -2  -2   56.74    1.66
  -6   2   2   53.51    1.79
  -6  -2  -2   57.49    1.58
  -6   2   2   54.38    1.80
  -6   2   2   53.48    2.03
  -6   2  -4   18.47    0.75
  -6   2  -4   18.18    0.84
  -6  -2   4   17.33    0.70
  -6  -2  -4   18.45    0.75
  -6   2   4   17.85    0.73
  -6  -3   1    3.78    0.33
  -6   3  -1    3.30    0.35
   6  -3  -1    3.01    0.22
  -6  -3   1    3.56    0.33
  -6   3  -1    3.05    0.32
  -6  -3  -1    3.38    0.30
   6   3  -1    3.21    0.28
  -6  -3  -1    3.53    0.35
  -6   3  -3    2.90    0.33
  -6  -3   3    2.82    1.03
   6   3   3    1.12    1.04
   6   3   3    2.98    0.71
  -6  -3   3    2.54    0.35
  -6  -3   3    3.50    1.35
   6   3   3    2.52    0.60
  -6  -3   3    4.85    1.70
   6   3   3    2.54    0.94
  -6  -3   3    3.13    0.86
  -6   3  -3    2.22    0.37
   6  -3   3    0.65    1.34
   6  -3   3   -0.34    1.00
  -6   3   3    2.38    0.34
   6  -3   3    1.35    0.88
   6   3  -3    2.57    0.27
  -6  -3  -3    2.29    0.32
  -6   3   3    0.32    2.02
  -6   3   3    2.37    1.55
  -6   3   3    1.86    0.98
  -6  -3  -3    2.26    0.36
   6  -3   3    0.97    1.67
  -6   3   3    3.38    1.21
   6  -4   0  201.70    4.87
  -6  -4   0  202.89    4.97
  -6  -4   0  203.44    5.04
  -6   4   0  208.82    5.10
   6   4   0  200.08    4.95
  -6   4   0  197.97    5.01
  -6  -4   2  186.91    4.43
  -6   4  -2  179.27    4.56
  -6   4  -2  180.89    4.45
  -6   4   2  173.63    4.84
   6  -4   2  179.20    4.52
  -6   4   2  169.48    5.71
  -6  -4  -2  183.46    4.53
   6   4  -2  176.62    4.32
  -6   4   2  182.25    4.49
  -6   4   2  170.25    4.94
  -6   4   2  173.12    4.71
  -6  -4  -2  178.88    4.43
  -6   4   2  172.25    4.81
  -6   4   2  173.83    5.14
  -6   4   2  174.90    5.31
   6  -4   2  181.98    4.70
   6  -4   2  181.12    4.46
   6  -4   2  171.68    4.88
  -6  -4   4  115.12    2.85
  -6   4  -4  110.06    2.94
  -6   4  -4  107.83    3.06
  -6   4   4  111.16    2.94
   6   4  -4  109.98    2.78
  -6  -4  -4  110.46    2.93
  -6  -5   1    0.68    0.21
   6   5   1    0.33    0.19
  -6   5  -1    0.41    0.21
  -6  -5   1    0.51    0.19
  -6   5  -1    0.49    0.19
   6   5  -1    0.76    0.21
  -6   5   1   -0.27    0.41
  -6   5   1    0.29    0.43
  -6   5   1    0.29    0.18
  -6   5   1    0.40    0.36
  -6   5   1    1.12    0.59
  -6   5   1   -0.31    0.71
  -6   5   1    0.36    0.34
  -6   5   1    1.36    0.56
  -6  -5  -1    0.42    0.19
  -6   5   1    0.56    0.65
  -6  -5  -1    0.46    0.18
  -6   5  -3    0.84    0.27
  -6   5  -3    1.45    1.11
  -6  -5   3    0.97    0.80
   6   5   3    2.62    0.95
  -6  -5   3   -0.66    1.32
  -6   5  -3    1.45    1.57
  -6  -5   3   -0.58    1.67
   6   5   3    0.06    0.60
  -6   5  -3   -1.28    1.88
  -6   5  -3    0.16    0.90
   6   5   3    0.09    0.50
  -6   5  -3    0.59    0.23
   6   5   3    1.32    0.78
  -6  -5   3    0.22    0.22
  -6  -5   3    0.66    0.97
   6  -5   3    1.73    1.17
   6   5  -3    0.25    0.21
  -6   5   3    0.61    0.23
   6  -5   3   -1.52    0.94
  -6  -5  -3    0.20    0.20
   6  -5   3    1.49    1.92
   6  -5   3    1.82    1.56
  -6   6   0  123.94    3.22
   6  -6   0  124.57    3.04
   6   6   0  122.81    3.17
  -6   6   0  127.20    3.30
  -6  -6   0  128.03    3.23
  -6  -6   0  126.17    3.16
  -6   6  -2  127.83    3.56
  -6   6  -2  129.71    4.04
  -6   6  -2  125.94    4.43
  -6   6  -2  128.53    3.37
  -6   6  -2  129.93    3.70
  -6   6  -2  127.91    3.26
  -6  -6   2  130.72    3.20
  -6   6   2  123.08    3.81
  -6   6   2  127.27    3.31
   6   6  -2  123.69    3.15
   6  -6   2  120.75    4.42
   6  -6   2  123.52    3.99
  -6  -6  -2  129.48    3.33
  -6  -6  -2  125.40    3.22
  -6   6   2  124.33    4.46
   6  -6   2  125.37    3.56
   6  -6   2  125.65    3.69
  -6   6   2  123.11    4.01
  -6   6   2  121.30    5.05
  -6   6  -4  103.02    2.73
  -6   6  -4   99.94    2.84
   6   6  -4  101.04    2.58
  -6  -6  -4   98.36    2.71
  -6   6   4  102.10    2.73
  -6   7  -1    0.29    0.59
  -6   7  -1    0.62    1.01
  -6  -7   1    0.01    0.16
  -6   7  -1   -0.14    0.49
  -6  -7   1   -0.32    0.17
  -6   7  -1   -0.27    0.17
  -6   7  -1    1.61    0.83
  -6   7  -1   -0.16    0.18
   6   7   1   -0.28    0.18
  -6   7   1    1.18    1.17
  -6   7   1    0.11    0.93
   6  -7   1    3.28    1.07
  -6  -7  -1    0.17    0.19
   6  -7   1   -0.06    0.49
  -6   7   1   -0.34    0.17
   6   7  -1   -0.04    0.19
  -6   7   1   -0.29    0.70
  -6   7   1    1.19    0.62
   6  -7   1   -0.53    0.76
  -6   7   1    1.07    0.58
  -6   7   1    0.38    1.24
  -6  -7  -1    0.01    0.16
  -6   7   1   -1.18    0.71
   6  -7   1   -0.49    0.57
  -6   7   1    0.83    1.03
  -6   7  -3   -0.05    0.22
   6   7   3   -0.14    0.52
   6   7   3   -0.15    0.83
  -6  -7   3    0.72    0.94
  -6  -7   3    0.23    1.59
  -6  -7   3   -2.45    1.23
   6   7   3   -0.13    0.62
  -6   7  -3    0.36    0.23
  -6  -7   3   -1.03    0.76
   6   7   3   -0.87    0.93
  -6  -7   3    0.05    0.23
   6   7  -3    0.19    0.21
  -6  -7  -3   -0.26    0.18
  -6   7   3   -0.12    0.21
   6  -7   3    1.74    2.18
  -6  -8   0   22.79    0.75
  -6   8   0   23.13    1.28
  -6   8   0   22.47    0.86
  -6   8   0   21.26    1.61
  -6   8   0   21.60    1.13
  -6   8   0   20.03    1.96
   6   8   0   21.39    0.76
  -6  -8   0   22.62    0.79
  -6   8  -2   11.92    1.96
  -6   8  -2   11.75    1.27
  -6   8  -2   11.48    0.63
  -6   8  -2    9.94    1.88
  -6   8  -2   11.42    0.56
  -6  -8   2   12.12    0.52
  -6   8  -2   11.86    1.50
   6  -8   2   10.64    1.25
   6   8  -2   11.02    0.51
  -6  -8  -2   11.54    0.52
  -6   8   2   11.53    2.32
  -6   8   2   12.94    1.51
  -6   8   2    7.45    2.32
  -6   8   2   11.18    0.59
   6  -8   2   12.99    1.99
   6  -8   2   16.36    2.70
   6  -8   2   12.32    1.50
  -6   8   2   13.62    1.76
  -6   8  -4    3.40    0.42
  -6   8  -4    4.11    0.51
  -6  -8  -4    3.12    0.40
   6   8  -4    3.18    0.34
  -6   8   4    3.24    0.45
  -6   9  -1    0.29    0.19
  -6   9  -1   -0.04    0.86
  -6   9  -1    0.49    0.24
   6   9   1    0.49    0.21
  -6   9  -1    2.09    1.46
  -6   9  -1    1.38    0.73
  -6  -9   1    0.48    0.20
  -6  -9   1    0.03    0.18
  -6   9  -1    1.00    1.18
  -6   9   1   -0.02    1.31
   6  -9   1    0.40    1.13
  -6  -9  -1    0.30    0.19
   6  -9   1    1.71    1.48
   6   9  -1    0.32    0.20
   6  -9   1    0.50    0.84
   6  -9   1   -0.24    0.67
  -6   9   1    1.83    0.84
  -6   9   1    2.31    1.67
  -6  -9  -1    0.49    0.20
  -6   9   1    0.37    0.22
  -6   9   1   -0.41    0.98
   6   9   3   -0.51    0.92
   6   9   3    0.09    1.13
   6   9   3   -1.65    0.66
  -6   9  -3    0.22    0.23
  -6   9  -3    0.24    0.24
   6   9   3    0.53    0.57
  -6   9   3    0.28    0.22
  -6  -9  -3    0.28    0.21
   6   9  -3    0.75    0.23
   6 -10   0   59.59    2.77
   6 -10   0   61.86    2.22
  -6  10   0   63.07    2.46
   6  10   0   60.86    1.70
  -6 -10   0   62.76    1.71
  -6  10   0   63.28    2.26
  -6 -10   0   61.70    1.64
   6 -10   0   59.92    3.30
  -6  10   0   59.93    3.35
   6 -10   0   57.42    2.37
  -6  10   0   59.73    1.80
  -6  10   0   59.49    2.87
  -6  10  -2   63.05    3.14
  -6  10  -2   66.90    1.87
  -6  10  -2   64.07    1.95
  -6  10  -2   62.69    4.69
  -6  10  -2   62.75    2.86
  -6 -10   2   67.85    1.79
  -6  10  -2   61.88    3.81
   6 -10   2   70.50    3.49
   6  10  -2   64.87    1.79
   6 -10   2   65.78    2.65
  -6  10   2   66.99    1.92
   6 -10   2   67.29    4.22
   6 -10   2   64.78    2.88
  -6 -10  -2   64.70    1.79
  -6  10  -4   87.59    2.54
  -6  10  -4   88.98    2.43
  -6  10   4   86.90    2.44
   6  10  -4   84.31    2.30
  -6 -10  -4   86.34    2.38
  -6 -11   1    3.63    0.34
   6  11   1    2.92    0.33
  -6  11  -1    5.51    1.25
  -6  11  -1    3.02    0.36
  -6  11  -1    1.84    1.89
  -6  11  -1    5.67    1.67
  -6  11  -1    4.41    1.04
  -6 -11   1    4.03    0.36
  -6  11  -1    3.90    0.42
  -6 -11  -1    3.95    0.33
   6 -11   1    6.04    1.30
   6  11  -1    4.01    0.34
  -6  11   1    3.97    1.66
  -6  11   1    3.48    0.40
   6 -11   1    4.14    1.49
  -6  11   1    4.02    1.08
  -6  11   1    3.10    2.12
  -6  11   1    3.16    1.27
   6 -11   1    4.99    1.92
   6 -11   1    4.12    1.18
   6  11   3    2.78    1.38
   6  11   3    0.28    1.11
   6  11   3    1.91    0.82
   6  11   3    1.52    0.71
  -6  11  -3    2.46    0.38
  -6  11  -3    2.14    0.41
  -6  11   3    2.92    0.57
  -6 -11  -3    2.32    0.35
   6  11  -3    2.37    0.33
   6 -12   0   99.59    3.63
   6 -12   0  113.22    4.24
  -6  12   0   98.85    2.83
  -6  12   0  101.04    4.20
   6  12   0  104.77    2.73
  -6  12   0  102.88    3.69
   6 -12   0  103.70    3.45
   6 -12   0  105.09    4.84
  -6 -12   0  103.54    2.63
  -6  12   0  103.87    4.93
  -6  12   0  106.90    3.47
  -6  12  -2   67.89    1.89
  -6 -12   2   59.66    2.57
   6  12   2   65.58    1.87
  -6  12  -2   69.81    2.01
  -6  12   2   64.53    1.95
   6  12  -2   67.37    1.83
  -6 -12  -2   66.29    1.82
  -6  13  -1    7.03    0.53
   6  13   1    7.81    0.46
  -6 -13   1    7.37    0.43
  -6  13   1    7.38    0.52
  -6 -13  -1    7.41    0.42
   6  13  -1    7.87    0.46
  -6  13  -3    5.64    0.53
  -6  13  -3    5.47    0.47
  -6 -13  -3    5.66    0.44
  -6  13   3    5.99    0.52
   6  13  -3    5.59    0.43
   6  14   0   46.03    1.39
  -6 -14   0   46.02    1.29
  -6  14   0   46.18    1.50
  -6  14  -2   37.19    1.32
   6  14   2   35.41    1.19
  -6  14  -2   37.51    1.21
  -6 -14  -2   37.40    1.15
   6  14  -2   37.77    1.17
  -6  14   2   37.52    1.30
   6  15   1    3.78    0.40
  -6  15  -1    3.78    0.46
   6  15  -1    3.79    0.37
  -6  15   1    3.40    0.43
  -6 -15  -1    3.42    0.36
  -6  15  -3    2.07    0.48
  -6  15  -3    2.89    0.42
   6  15  -3    4.32    0.42
  -6 -15  -3    2.92    0.40
  -6  15   3    2.78    0.46
   6  16   0   24.67    0.91
  -6  16   0   26.06    1.02
  -6 -16   0   25.10    0.81
   6  16   2   38.70    1.95
  -6  16  -2   35.78    1.32
   6  16   2   36.99    2.22
  -6  16  -2   35.03    1.20
   6  16   2   33.59    2.75
   6  16   2   39.29    2.58
   6  16   2   36.02    1.19
   6  16  -2   34.84    1.16
  -6 -16  -2   35.17    1.12
  -6  16   2   35.17    1.28
   6  17   1    1.20    0.29
  -6  17  -1    0.68    0.30
   6  17  -1    0.84    0.28
  -6 -17  -1    0.78    0.26
  -6  17   1    0.75    0.28
  -6 -18   0   23.11    0.77
  -6  18   0   23.62    0.99
   6  18   0   24.08    0.90
   6  18   2   27.32    1.01
  -6  18  -2   29.53    1.16
   6  18  -2   26.86    0.99
  -6 -18  -2   25.99    0.93
  -6  18   2   27.52    1.10
   6  19   1    0.90    0.31
  -6  19  -1    1.29    0.35
   6  19  -1    1.51    0.33
  -6 -19  -1    1.02    0.27
  -6  19   1    2.37    0.46
   6  20   0    9.56    0.57
  -6  20   0    9.29    0.67
  -7   0   0    0.04    0.23
  -7   0   0    0.49    0.24
  -7   0  -2    0.23    0.23
  -7   0   2    0.08    0.24
  -7   0  -2   -0.25    0.25
  -7   1  -1   57.54    1.66
  -7  -1   1   59.70    1.71
   7   1   1   55.21    1.58
  -7   1  -1   57.26    1.75
   7  -1   1   57.35    1.58
  -7   1   1   59.31    1.73
  -7  -1  -1   56.99    1.66
  -7  -1  -1   56.09    1.87
  -7   1  -3   52.54    1.66
  -7  -1   3   51.33    1.57
  -7   1  -3   53.84    1.72
  -7  -1  -3   51.99    1.71
  -7   1   3   52.66    1.60
  -7  -1  -3   53.16    1.60
  -7   2   0    0.69    0.26
   7   2   0    0.61    0.27
  -7  -2   0    0.48    0.23
  -7  -2   0    0.55    0.24
  -7   2  -2    0.89    0.28
  -7  -2   2    0.77    0.26
  -7   2  -2    0.76    0.30
  -7  -2  -2    0.79    0.29
  -7  -2  -2    0.85    0.26
  -7   2   2    1.21    0.30
   7   3   1    1.56    0.32
  -7   3  -1    1.84    0.40
  -7   3  -1    1.61    0.30
  -7  -3   1    1.67    0.37
  -7  -3  -1    1.88    0.37
   7   3  -1    1.71    0.33
  -7   3   1    1.33    0.30
  -7  -3  -1    1.75    0.38
   7  -3   1    1.66    0.28
  -7   3  -3    5.37    0.58
  -7  -3   3    5.60    0.49
  -7  -3  -3    5.40    0.55
  -7   3   3    5.45    0.49
  -7  -3  -3    6.60    0.48
  -7  -4   0    0.24    0.22
  -7   4   0    0.11    0.23
  -7  -4   0    0.07    0.24
   7   4   0   -0.12    0.24
  -7   4   0    0.39    0.25
  -7  -4   2    1.99    0.39
  -7   4  -2    2.08    0.38
  -7   4  -2    2.07    0.40
  -7  -4  -2    1.65    0.30
  -7   4   2    1.57    0.32
  -7  -4  -2    2.02    0.42
  -7   5  -1   90.63    2.58
   7   5   1   92.32    2.42
  -7   5  -1   88.44    2.47
  -7  -5   1   93.82    2.48
  -7  -5  -1   93.52    2.53
   7   5  -1   87.59    2.36
  -7  -5  -1   90.27    2.44
  -7   5   1   93.08    2.55
  -7   5  -3   94.75    2.98
  -7  -5   3  104.42    2.60
  -7   5   3   99.84    2.69
  -7  -5  -3   90.86    2.63
  -7   6   0    0.10    0.25
   7   6   0    0.72    0.26
  -7  -6   0    0.84    0.26
  -7  -6   0    0.80    0.27
  -7   6  -2    3.43    0.43
  -7  -6   2    3.36    0.41
  -7   6  -2    4.24    0.48
  -7  -6  -2    3.47    0.39
  -7   6   2    4.21    0.46
  -7  -6  -2    3.78    0.46
   7   6  -2    3.48    0.36
  -7  -7   1   62.20    1.72
  -7   7  -1   61.58    1.78
  -7   7  -1   61.71    1.88
  -7  -7   1   61.85    1.76
   7   7   1   58.36    1.71
   7   7  -1   59.33    1.68
  -7  -7  -1   63.30    1.82
  -7   7   1   61.34    1.86
  -7  -7  -1   60.41    1.72
  -7   8   0   -0.02    0.26
   7   8   0    0.30    0.25
  -7  -8   0    0.23    0.25
  -7  -8   0   -0.04    0.23
  -7   8  -2    2.33    0.41
  -7   8  -2    2.00    0.45
  -7  -8   2    1.59    0.31
   7   8   2    2.14    0.38
  -7   8   2    1.77    0.35
   7   8  -2    2.50    0.36
  -7  -8  -2    1.97    0.37
  -7   9  -1   10.66    0.68
  -7  -9   1   10.54    0.57
  -7  -9   1   10.63    0.56
   7   9   1    9.67    0.55
  -7   9  -1   11.65    0.62
  -7   9   1   10.22    0.64
  -7  -9  -1   11.31    0.56
   7   9  -1   11.50    0.55
  -7 -10   0   -0.04    0.24
  -7  10   0    0.13    0.27
  -7 -10   0   -0.02    0.26
   7  10   0    0.29    0.26
   7  10   2    0.63    0.29
  -7  10  -2    0.33    0.32
  -7 -10  -2    0.93    0.29
   7  10  -2    0.62    0.27
  -7 -11   1  164.53    4.04
  -7 -11   1  159.50    3.99
   7  11   1  164.32    4.09
  -7  11  -1  159.52    4.25
  -7  11   1  159.06    4.21
  -7 -11  -1  155.78    4.02
   7  11  -1  155.16    4.03
   7  12   0    0.87    0.29
  -7  12   0    0.19    0.29
  -7 -12   0    0.77    0.30
  -7  13  -1    9.42    0.72
   7  13   1    9.17    0.57
   7  13  -1    9.02    0.55
  -7  13   1    9.53    0.66
  -7 -13  -1    8.07    0.54
  -7 -14   0    1.15    0.31
   7  14   0    0.77    0.29
  -7  14   0    0.58    0.40
   0   0   0    0.00    0.00
;
_shelx_hkl_checksum              79122
loop_
_space_group_symop_operation_xyz
'x, y, z'
'-x, -y, z'
'x+1/2, -y+1/2, z'
'-x+1/2, y+1/2, z'
'x, y+1/2, z+1/2'
'-x, -y+1/2, z+1/2'
'x+1/2, -y+1, z+1/2'
'-x+1/2, y+1, z+1/2'
loop_
_atom_site_label
_atom_site_type_symbol
_atom_site_fract_x
_atom_site_fract_y
_atom_site_fract_z
_atom_site_U_iso_or_equiv
_atom_site_adp_type
_atom_site_occupancy
_atom_site_site_symmetry_order
_atom_site_calc_flag
_atom_site_refinement_flags_posn
_atom_site_refinement_flags_adp
_atom_site_refinement_flags_occupancy
_atom_site_disorder_assembly
_atom_site_disorder_group
La1 La 0.00048(5) 0.59293(2) 0.5474(3) 0.01005(17) Uani 1 1 d . . . . .
P11 P 0.9417(3) 0.71417(6) 0.5817(4) 0.0047(4) Uani 0.963(3) 1 d . . P . .
P12 P 0.074(9) 0.7141(16) 0.592(13) 0.0047(4) Uani 0.037(3) 1 d . . P . .
Si11 Si 0.9150(3) 0.70761(6) 0.9682(4) 0.0040(4) Uani 0.963(3) 1 d . . P . .
Si12 Si 0.075(8) 0.7053(17) -0.050(15) 0.0040(4) Uani 0.037(3) 1 d . . P . .
P2 P 0.0044(2) 0.62527(5) 0.0504(7) 0.0052(3) Uani 1 1 d . . . . .
P31 P 0.3269(14) 0.5002(2) 0.7223(13) 0.0110(8) Uiso 0.313(6) 1 d . . P . .
P32 P 0.2322(15) 0.50031(17) 0.3343(11) 0.0110(8) Uiso 0.378(10) 1 d . . P . .
P33 P 0.187(2) 0.5000(3) 0.759(2) 0.0110(8) Uiso 0.225(8) 1 d . . P . .
P44 P 0.073(4) 0.4991(7) 0.945(5) 0.0110(8) Uiso 0.084(5) 1 d . . P . .
loop_
_atom_site_aniso_label
_atom_site_aniso_U_11
_atom_site_aniso_U_22
_atom_site_aniso_U_33
_atom_site_aniso_U_23
_atom_site_aniso_U_13
_atom_site_aniso_U_12
La1 0.0068(2) 0.0190(2) 0.0043(2) 0.0001(3) 0.00008(12) 0.00116(11)
P11 0.0044(8) 0.0067(6) 0.0030(10) 0.0001(6) -0.0030(7) -0.0016(5)
P12 0.0044(8) 0.0067(6) 0.0030(10) 0.0001(6) -0.0030(7) -0.0016(5)
Si11 0.0027(8) 0.0062(7) 0.0031(8) 0.0002(7) -0.0008(6) -0.0003(6)
Si12 0.0027(8) 0.0062(7) 0.0031(8) 0.0002(7) -0.0008(6) -0.0003(6)
P2 0.0064(6) 0.0053(6) 0.0039(6) -0.0022(14) -0.0004(6) 0.0001(4)
loop_
_atom_type_symbol
_atom_type_description
_atom_type_scat_dispersion_real
_atom_type_scat_dispersion_imag
_atom_type_scat_source
Si Si 0.0817 0.0704 'International Tables Vol C Tables 4.2.6.8 and 6.1.1.4'
P P 0.1023 0.0942 'International Tables Vol C Tables 4.2.6.8 and 6.1.1.4'
La La -0.2871 2.4523 'International Tables Vol C Tables 4.2.6.8 and 6.1.1.4'
loop_
_geom_angle_atom_site_label_1
_geom_angle_atom_site_label_2
_geom_angle_atom_site_label_3
_geom_angle
_geom_angle_site_symmetry_1
_geom_angle_site_symmetry_3
_geom_angle_publ_flag
P33 La1 P33 45.6(5) . 2_565 ?
P33 La1 P32 50.2(2) . . ?
P33 La1 P32 73.7(2) 2_565 . ?
P33 La1 P32 73.5(2) . 2_565 ?
P33 La1 P32 50.0(2) 2_565 2_565 ?
P32 La1 P32 55.2(3) . 2_565 ?
P33 La1 P2 129.1(2) . . ?
P33 La1 P2 129.5(2) 2_565 . ?
P32 La1 P2 78.99(12) . . ?
P32 La1 P2 79.55(12) 2_565 . ?
P33 La1 P2 78.7(2) . 1_556 ?
P33 La1 P2 79.0(2) 2_565 1_556 ?
P32 La1 P2 127.35(13) . 1_556 ?
P32 La1 P2 127.75(13) 2_565 1_556 ?
P2 La1 P2 148.66(5) . 1_556 ?
P33 La1 P2 80.9(3) . 8_545 ?
P33 La1 P2 126.1(3) 2_565 8_545 ?
P32 La1 P2 76.36(16) . 8_545 ?
P32 La1 P2 131.09(17) 2_565 8_545 ?
P2 La1 P2 85.75(7) . 8_545 ?
P2 La1 P2 85.16(7) 1_556 8_545 ?
P33 La1 P11 145.7(3) . 1_455 ?
P33 La1 P11 137.5(3) 2_565 1_455 ?
P32 La1 P11 148.83(14) . 1_455 ?
P32 La1 P11 138.72(15) 2_565 1_455 ?
P2 La1 P11 78.12(7) . 1_455 ?
P2 La1 P11 70.88(7) 1_556 1_455 ?
P2 La1 P11 81.11(4) 8_545 1_455 ?
P33 La1 P12 135.5(12) . . ?
P33 La1 P12 145.5(14) 2_565 . ?
P32 La1 P12 137.8(11) . . ?
P32 La1 P12 150.9(12) 2_565 . ?
P2 La1 P12 79.2(14) . . ?
P2 La1 P12 69.7(14) 1_556 . ?
P2 La1 P12 66.4(10) 8_545 . ?
P11 La1 P12 14.8(9) 1_455 . ?
P33 La1 P2 125.8(3) . 8_445 ?
P33 La1 P2 80.6(3) 2_565 8_445 ?
P32 La1 P2 130.85(17) . 8_445 ?
P32 La1 P2 76.14(16) 2_565 8_445 ?
P2 La1 P2 86.68(7) . 8_445 ?
P2 La1 P2 86.09(7) 1_556 8_445 ?
P2 La1 P2 149.41(5) 8_545 8_445 ?
P11 La1 P2 68.33(4) 1_455 8_445 ?
P12 La1 P2 83.1(10) . 8_445 ?
P33 La1 P31 61.9(3) . 8_544 ?
P33 La1 P31 77.3(3) 2_565 8_544 ?
P32 La1 P31 13.3(2) . 8_544 ?
P32 La1 P31 47.73(16) 2_565 8_544 ?
P2 La1 P31 67.94(13) . 8_544 ?
P2 La1 P31 140.19(14) 1_556 8_544 ?
P2 La1 P31 83.50(16) 8_545 8_544 ?
P11 La1 P31 143.56(13) 1_455 8_544 ?
P12 La1 P31 136.8(13) . 8_544 ?
P2 La1 P31 120.55(16) 8_445 8_544 ?
P33 La1 P31 77.2(3) . 7_454 ?
P33 La1 P31 61.7(3) 2_565 7_454 ?
P32 La1 P31 47.73(16) . 7_454 ?
P32 La1 P31 13.3(2) 2_565 7_454 ?
P2 La1 P31 68.39(13) . 7_454 ?
P2 La1 P31 140.49(14) 1_556 7_454 ?
P2 La1 P31 120.83(16) 8_545 7_454 ?
P11 La1 P31 137.04(13) 1_455 7_454 ?
P12 La1 P31 145.4(13) . 7_454 ?
P2 La1 P31 83.25(16) 8_445 7_454 ?
P31 La1 P31 37.9(3) 8_544 7_454 ?
P12 P11 Si12 94(3) 1_655 6_665 ?
P12 P11 Si11 167(6) 1_655 8_644 ?
Si12 P11 Si11 85.5(14) 6_665 8_644 ?
P12 P11 Si11 69(3) 1_655 6_764 ?
Si12 P11 Si11 25.0(13) 6_665 6_764 ?
Si11 P11 Si11 109.89(9) 8_644 6_764 ?
P12 P11 Si11 90(6) 1_655 . ?
Si12 P11 Si11 115(2) 6_665 . ?
Si11 P11 Si11 102.80(8) 8_644 . ?
Si11 P11 Si11 112.53(8) 6_764 . ?
P12 P11 Si12 65(5) 1_655 1_656 ?
Si12 P11 Si12 116(2) 6_665 1_656 ?
Si11 P11 Si12 126.8(14) 8_644 1_656 ?
Si11 P11 Si12 103.2(12) 6_764 1_656 ?
Si11 P11 Si12 24.4(14) . 1_656 ?
P12 P11 La1 84(3) 1_655 1_655 ?
Si12 P11 La1 155(2) 6_665 1_655 ?
Si11 P11 La1 90.90(7) 8_644 1_655 ?
Si11 P11 La1 143.83(8) 6_764 1_655 ?
Si11 P11 La1 89.99(9) . 1_655 ?
Si12 P11 La1 85.6(11) 1_656 1_655 ?
P11 P12 Si12 95(6) 1_455 1_556 ?
P11 P12 Si11 90(4) 1_455 6_664 ?
Si12 P12 Si11 116(3) 1_556 6_664 ?
P11 P12 Si12 153(6) 1_455 8_545 ?
Si12 P12 Si12 111(2) 1_556 8_545 ?
Si11 P12 Si12 86(2) 6_664 8_545 ?
P11 P12 Si12 66(3) 1_455 6_565 ?
Si12 P12 Si12 116(2) 1_556 6_565 ?
Si11 P12 Si12 23.9(12) 6_664 6_565 ?
Si12 P12 Si12 108(2) 8_545 6_565 ?
P11 P12 Si11 71(5) 1_455 1_455 ?
Si12 P12 Si11 23.6(15) 1_556 1_455 ?
Si11 P12 Si11 113(3) 6_664 1_455 ?
Si12 P12 Si11 134(2) 8_545 1_455 ?
Si12 P12 Si11 103.3(19) 6_565 1_455 ?
P11 P12 La1 82(3) 1_455 . ?
Si12 P12 La1 89(2) 1_556 . ?
Si11 P12 La1 154(3) 6_664 . ?
Si12 P12 La1 90.2(18) 8_545 . ?
Si12 P12 La1 140(2) 6_565 . ?
Si11 P12 La1 87.3(15) 1_455 . ?
Si12 Si11 P12 94(3) 1_656 6_665 ?
Si12 Si11 P2 74(3) 1_656 1_656 ?
P12 Si11 P2 144(2) 6_665 1_656 ?
Si12 Si11 P11 169(5) 1_656 8_645 ?
P12 Si11 P11 81.8(15) 6_665 8_645 ?
P2 Si11 P11 103.70(10) 1_656 8_645 ?
Si12 Si11 P11 73(3) 1_656 6_765 ?
P12 Si11 P11 20.7(14) 6_665 6_765 ?
P2 Si11 P11 132.29(12) 1_656 6_765 ?
P11 Si11 P11 102.14(8) 8_645 6_765 ?
Si12 Si11 P11 80(5) 1_656 . ?
P12 Si11 P11 106(2) 6_665 . ?
P2 Si11 P11 105.59(16) 1_656 . ?
P11 Si11 P11 110.83(9) 8_645 . ?
P11 Si11 P11 101.61(8) 6_765 . ?
Si12 Si11 P12 60(5) 1_656 1_655 ?
P12 Si11 P12 103.8(17) 6_665 1_655 ?
P2 Si11 P12 99.6(10) 1_656 1_655 ?
P11 Si11 P12 130.1(14) 8_645 1_655 ?
P11 Si11 P12 93.3(11) 6_765 1_655 ?
P11 Si11 P12 19.4(13) . 1_655 ?
Si11 Si12 P12 96(5) 1_454 1_554 ?
Si11 Si12 P2 80(3) 1_454 . ?
P12 Si12 P2 112(3) 1_554 . ?
Si11 Si12 P11 82(3) 1_454 6_664 ?
P12 Si12 P11 105(3) 1_554 6_664 ?
P2 Si12 P11 141(4) . 6_664 ?
Si11 Si12 P12 150(6) 1_454 8_544 ?
P12 Si12 P12 111(2) 1_554 8_544 ?
P2 Si12 P12 100(2) . 8_544 ?
P11 Si12 P12 79.7(19) 6_664 8_544 ?
Si11 Si12 P11 76(4) 1_454 1_454 ?
P12 Si12 P11 20.2(16) 1_554 1_454 ?
P2 Si12 P11 106(2) . 1_454 ?
P11 Si12 P11 103(2) 6_664 1_454 ?
P12 Si12 P11 131(2) 8_544 1_454 ?
Si11 Si12 P12 62(3) 1_454 6_564 ?
P12 Si12 P12 105(2) 1_554 6_564 ?
P2 Si12 P12 130(3) . 6_564 ?
P11 Si12 P12 19.5(12) 6_664 6_564 ?
P12 Si12 P12 98(2) 8_544 6_564 ?
P11 Si12 P12 96.5(19) 1_454 6_564 ?
Si12 P2 Si11 25.6(13) . 1_454 ?
Si12 P2 La1 121(2) . . ?
Si11 P2 La1 117.67(16) 1_454 . ?
Si12 P2 La1 89(2) . 1_554 ?
Si11 P2 La1 92.41(16) 1_454 1_554 ?
La1 P2 La1 148.67(5) . 1_554 ?
Si12 P2 La1 93.4(13) . 8_544 ?
Si11 P2 La1 118.97(8) 1_454 8_544 ?
La1 P2 La1 86.61(7) . 8_544 ?
La1 P2 La1 86.01(7) 1_554 8_544 ?
Si12 P2 La1 115.7(13) . 8_444 ?
Si11 P2 La1 90.66(6) 1_454 8_444 ?
La1 P2 La1 85.81(7) . 8_444 ?
La1 P2 La1 85.24(6) 1_554 8_444 ?
La1 P2 La1 149.41(5) 8_544 8_444 ?
P32 P31 P33 47.4(10) 8_545 . ?
P32 P31 P44 171.9(14) 8_545 8_544 ?
P33 P31 P44 124.5(15) . 8_544 ?
P32 P31 P44 21.0(12) 8_545 . ?
P33 P31 P44 26.4(13) . . ?
P44 P31 P44 150.9(10) 8_544 . ?
P32 P31 P31 118.4(11) 8_545 2_665 ?
P33 P31 P31 165.8(11) . 2_665 ?
P44 P31 P31 69.6(8) 8_544 2_665 ?
P44 P31 P31 139.4(7) . 2_665 ?
P32 P31 P44 166.1(13) 8_545 7_554 ?
P33 P31 P44 146.5(13) . 7_554 ?
P44 P31 P44 22.0(11) 8_544 7_554 ?
P44 P31 P44 172.9(13) . 7_554 ?
P31 P31 P44 47.7(6) 2_665 7_554 ?
P32 P31 P32 137.6(10) 8_545 . ?
P33 P31 P32 90.1(11) . . ?
P44 P31 P32 34.4(9) 8_544 . ?
P44 P31 P32 116.5(7) . . ?
P31 P31 P32 104.1(2) 2_665 . ?
P44 P31 P32 56.4(7) 7_554 . ?
P32 P31 P32 103.3(11) 8_545 7 ?
P33 P31 P32 150.7(13) . 7 ?
P44 P31 P32 84.7(8) 8_544 7 ?
P44 P31 P32 124.3(7) . 7 ?
P31 P31 P32 15.1(2) 2_665 7 ?
P44 P31 P32 62.8(7) 7_554 7 ?
P32 P31 P32 119.1(4) . 7 ?
P32 P31 P33 149.9(11) 8_545 8_544 ?
P33 P31 P33 102.5(11) . 8_544 ?
P44 P31 P33 22.1(9) 8_544 8_544 ?
P44 P31 P33 128.9(8) . 8_544 ?
P31 P31 P33 91.7(3) 2_665 8_544 ?
P44 P31 P33 44.0(7) 7_554 8_544 ?
P32 P31 P33 12.3(3) . 8_544 ?
P32 P31 P33 106.8(4) 7 8_544 ?
P32 P31 La1 68.2(8) 8_545 8_545 ?
P33 P31 La1 99.9(9) . 8_545 ?
P44 P31 La1 117.2(7) 8_544 8_545 ?
P44 P31 La1 82.5(6) . 8_545 ?
P31 P31 La1 71.4(3) 2_665 8_545 ?
P44 P31 La1 102.5(6) 7_554 8_545 ?
P32 P31 La1 131.0(3) . 8_545 ?
P32 P31 La1 62.38(18) 7 8_545 ?
P33 P31 La1 127.3(3) 8_544 8_545 ?
P32 P31 La1 68.6(7) 8_545 7 ?
P33 P31 La1 99.5(9) . 7 ?
P44 P31 La1 115.5(7) 8_544 7 ?
P44 P31 La1 81.4(6) . 7 ?
P31 P31 La1 70.8(3) 2_665 7 ?
P44 P31 La1 103.0(6) 7_554 7 ?
P32 P31 La1 130.9(3) . 7 ?
P32 P31 La1 61.83(18) 7 7 ?
P33 P31 La1 127.0(3) 8_544 7 ?
La1 P31 La1 94.8(2) 8_545 7 ?
P32 P31 La1 89.3(9) 8_545 . ?
P33 P31 La1 59.6(7) . . ?
P44 P31 La1 85.8(7) 8_544 . ?
P44 P31 La1 75.9(6) . . ?
P31 P31 La1 127.7(3) 2_665 . ?
P44 P31 La1 99.7(6) 7_554 . ?
P32 P31 La1 62.9(2) . . ?
P32 P31 La1 132.3(2) 7 . ?
P33 P31 La1 70.5(3) 8_544 . ?
La1 P31 La1 81.35(13) 8_545 . ?
La1 P31 La1 157.2(3) 7 . ?
P33 P32 P31 76.1(11) 8_544 8_544 ?
P33 P32 P44 71.3(16) 8_544 8_544 ?
P31 P32 P44 147.4(18) 8_544 8_544 ?
P33 P32 P44 59.9(13) 8_544 7_554 ?
P31 P32 P44 136.0(15) 8_544 7_554 ?
P44 P32 P44 11.6(7) 8_544 7_554 ?
P33 P32 P31 118.2(11) 8_544 . ?
P31 P32 P31 165.6(11) 8_544 . ?
P44 P32 P31 46.9(11) 8_544 . ?
P44 P32 P31 58.3(8) 7_554 . ?
P33 P32 P44 70.5(12) 8_544 1_554 ?
P31 P32 P44 5.7(10) 8_544 1_554 ?
P44 P32 P44 141.8(14) 8_544 1_554 ?
P44 P32 P44 130.4(13) 7_554 1_554 ?
P31 P32 P44 171.2(7) . 1_554 ?
P33 P32 P33 138.5(11) 8_544 . ?
P31 P32 P33 145.3(14) 8_544 . ?
P44 P32 P33 67.2(11) 8_544 . ?
P44 P32 P33 78.7(8) 7_554 . ?
P31 P32 P33 20.3(4) . . ?
P44 P32 P33 150.9(9) 1_554 . ?
P33 P32 P31 122.6(10) 8_544 7_454 ?
P31 P32 P31 46.5(10) 8_544 7_454 ?
P44 P32 P31 165.9(12) 8_544 7_454 ?
P44 P32 P31 177.5(8) 7_554 7_454 ?
P31 P32 P31 119.1(4) . 7_454 ?
P44 P32 P31 52.1(7) 1_554 7_454 ?
P33 P32 P31 98.8(6) . 7_454 ?
P33 P32 La1 129.1(8) 8_544 . ?
P31 P32 La1 98.4(9) 8_544 . ?
P44 P32 La1 102.8(9) 8_544 . ?
P44 P32 La1 108.1(6) 7_554 . ?
P31 P32 La1 73.1(2) . . ?
P44 P32 La1 102.3(5) 1_554 . ?
P33 P32 La1 62.5(3) . . ?
P31 P32 La1 70.4(2) 7_454 . ?
P33 P32 La1 127.8(8) 8_544 2_565 ?
P31 P32 La1 98.1(9) 8_544 2_565 ?
P44 P32 La1 100.7(9) 8_544 2_565 ?
P44 P32 La1 108.8(6) 7_554 2_565 ?
P31 P32 La1 73.2(2) . 2_565 ?
P44 P32 La1 101.1(5) 1_554 2_565 ?
P33 P32 La1 62.4(3) . 2_565 ?
P31 P32 La1 69.9(2) 7_454 2_565 ?
La1 P32 La1 103.2(2) . 2_565 ?
P33 P32 La1 46.0(7) 8_544 8_544 ?
P31 P32 La1 77.6(8) 8_544 8_544 ?
P44 P32 La1 80.7(10) 8_544 8_544 ?
P44 P32 La1 71.7(6) 7_554 8_544 ?
P31 P32 La1 112.1(3) . 8_544 ?
P44 P32 La1 74.2(5) 1_554 8_544 ?
P33 P32 La1 124.1(3) . 8_544 ?
P31 P32 La1 109.9(2) 7_454 8_544 ?
La1 P32 La1 83.08(11) . 8_544 ?
La1 P32 La1 173.0(2) 2_565 8_544 ?
P33 P32 La1 45.0(7) 8_544 7_554 ?
P31 P32 La1 77.5(8) 8_544 7_554 ?
P44 P32 La1 78.8(10) 8_544 7_554 ?
P44 P32 La1 72.3(6) 7_554 7_554 ?
P31 P32 La1 111.9(3) . 7_554 ?
P44 P32 La1 73.3(5) 1_554 7_554 ?
P33 P32 La1 123.7(3) . 7_554 ?
P31 P32 La1 109.4(2) 7_454 7_554 ?
La1 P32 La1 173.3(2) . 7_554 ?
La1 P32 La1 82.81(11) 2_565 7_554 ?
La1 P32 La1 90.81(19) 8_544 7_554 ?
P32 P33 P31 56.5(11) 8_545 . ?
P32 P33 P44 79.7(17) 8_545 . ?
P31 P33 P44 136(2) . . ?
P32 P33 P44 102.7(15) 8_545 2_565 ?
P31 P33 P44 159.1(17) . 2_565 ?
P44 P33 P44 23.0(13) . 2_565 ?
P32 P33 P33 137.7(10) 8_545 2_565 ?
P31 P33 P33 165.8(11) . 2_565 ?
P44 P33 P33 58.0(13) . 2_565 ?
P44 P33 P33 35.1(10) 2_565 2_565 ?
P32 P33 P44 94.1(13) 8_545 8_544 ?
P31 P33 P44 37.6(11) . 8_544 ?
P44 P33 P44 173.5(16) . 8_544 ?
P44 P33 P44 163.3(17) 2_565 8_544 ?
P33 P33 P44 128.2(7) 2_565 8_544 ?
P32 P33 P32 126.0(12) 8_545 . ?
P31 P33 P32 69.5(10) . . ?
P44 P33 P32 154.3(16) . . ?
P44 P33 P32 131.3(12) 2_565 . ?
P33 P33 P32 96.3(5) 2_565 . ?
P44 P33 P32 31.9(6) 8_544 . ?
P32 P33 P31 49.4(9) 8_545 8_545 ?
P31 P33 P31 105.9(13) . 8_545 ?
P44 P33 P31 30.3(12) . 8_545 ?
P44 P33 P31 53.2(9) 2_565 8_545 ?
P33 P33 P31 88.3(3) 2_565 8_545 ?
P44 P33 P31 143.5(9) 8_544 8_545 ?
P32 P33 P31 175.4(7) . 8_545 ?
P32 P33 La1 124.5(8) 8_545 . ?
P31 P33 La1 105.4(8) . . ?
P44 P33 La1 100.0(10) . . ?
P44 P33 La1 85.4(8) 2_565 . ?
P33 P33 La1 67.3(3) 2_565 . ?
P44 P33 La1 84.9(6) 8_544 . ?
P32 P33 La1 67.3(4) . . ?
P31 P33 La1 114.5(3) 8_545 . ?
P32 P33 La1 125.7(9) 8_545 2_565 ?
P31 P33 La1 106.0(8) . 2_565 ?
P44 P33 La1 98.1(10) . 2_565 ?
P44 P33 La1 86.4(8) 2_565 2_565 ?
P33 P33 La1 67.1(3) 2_565 2_565 ?
P44 P33 La1 84.0(6) 8_544 2_565 ?
P32 P33 La1 67.6(4) . 2_565 ?
P31 P33 La1 114.7(3) 8_545 2_565 ?
La1 P33 La1 109.4(5) . 2_565 ?
P32 P33 La1 42.4(7) 8_545 8_545 ?
P31 P33 La1 65.7(8) . 8_545 ?
P44 P33 La1 83.5(11) . 8_545 ?
P44 P33 La1 99.0(8) 2_565 8_545 ?
P33 P33 La1 123.0(4) 2_565 8_545 ?
P44 P33 La1 93.2(7) 8_544 8_545 ?
P32 P33 La1 115.1(4) . 8_545 ?
P31 P33 La1 61.7(3) 8_545 8_545 ?
La1 P33 La1 82.13(17) . 8_545 ?
La1 P33 La1 167.7(4) 2_565 8_545 ?
P32 P33 La1 43.6(7) 8_545 7 ?
P31 P33 La1 66.2(8) . 7 ?
P44 P33 La1 82.0(11) . 7 ?
P44 P33 La1 100.0(8) 2_565 7 ?
P33 P33 La1 122.9(4) 2_565 7 ?
P44 P33 La1 92.3(7) 8_544 7 ?
P32 P33 La1 115.3(4) . 7 ?
P31 P33 La1 61.9(3) 8_545 7 ?
La1 P33 La1 167.6(4) . 7 ?
La1 P33 La1 82.19(17) 2_565 7 ?
La1 P33 La1 86.0(3) 8_545 7 ?
P44 P44 P33 121.9(13) 2_565 . ?
P44 P44 P32 150.6(12) 2_565 8_545 ?
P33 P44 P32 29.0(7) . 8_545 ?
P44 P44 P31 110.3(8) 2_565 8_545 ?
P33 P44 P31 127.6(18) . 8_545 ?
P32 P44 P31 98.7(14) 8_545 8_545 ?
P44 P44 P33 35.1(10) 2_565 2_565 ?
P33 P44 P33 86.9(18) . 2_565 ?
P32 P44 P33 115.9(19) 8_545 2_565 ?
P31 P44 P33 145.4(16) 8_545 2_565 ?
P44 P44 P31 139.2(7) 2_565 . ?
P33 P44 P31 17.4(9) . . ?
P32 P44 P31 11.5(6) 8_545 . ?
P31 P44 P31 110.2(11) 8_545 . ?
P33 P44 P31 104.4(14) 2_565 . ?
P44 P44 P32 17.8(8) 2_565 7_455 ?
P33 P44 P32 104.3(17) . 7_455 ?
P32 P44 P32 133.3(18) 8_545 7_455 ?
P31 P44 P32 128.0(14) 8_545 7_455 ?
P33 P44 P32 17.4(4) 2_565 7_455 ?
P31 P44 P32 121.8(13) . 7_455 ?
P44 P44 P31 47.7(6) 2_565 7_455 ?
P33 P44 P31 169.5(18) . 7_455 ?
P32 P44 P31 161.3(17) 8_545 7_455 ?
P31 P44 P31 62.7(9) 8_545 7_455 ?
P33 P44 P31 82.7(10) 2_565 7_455 ?
P31 P44 P31 172.8(13) . 7_455 ?
P32 P44 P31 65.3(7) 7_455 7_455 ?
P44 P44 P33 128.1(8) 2_565 8_545 ?
P33 P44 P33 109.8(13) . 8_545 ?
P32 P44 P33 80.8(10) 8_545 8_545 ?
P31 P44 P33 17.9(6) 8_545 8_545 ?
P33 P44 P33 163.2(17) 2_565 8_545 ?
P31 P44 P33 92.4(9) . 8_545 ?
P32 P44 P33 145.8(14) 7_455 8_545 ?
P31 P44 P33 80.5(10) 7_455 8_545 ?
P44 P44 P32 112.7(6) 2_565 1_556 ?
P33 P44 P32 125.2(15) . 1_556 ?
P32 P44 P32 96.3(12) 8_545 1_556 ?
P31 P44 P32 2.4(4) 8_545 1_556 ?
P33 P44 P32 147.8(15) 2_565 1_556 ?
P31 P44 P32 107.8(10) . 1_556 ?
P32 P44 P32 130.4(13) 7_455 1_556 ?
P31 P44 P32 65.1(8) 7_455 1_556 ?
P33 P44 P32 15.4(3) 8_545 1_556 ?
P44 P44 La1 84.6(17) 2_565 2_565 ?
P33 P44 La1 59.3(10) . 2_565 ?
P32 P44 La1 78.0(10) 8_545 2_565 ?
P31 P44 La1 135.6(9) 8_545 2_565 ?
P33 P44 La1 59.8(7) 2_565 2_565 ?
P31 P44 La1 69.8(7) . 2_565 ?
P32 P44 La1 70.5(6) 7_455 2_565 ?
P31 P44 La1 115.7(8) 7_455 2_565 ?
P33 P44 La1 129.7(7) 8_545 2_565 ?
P32 P44 La1 134.9(7) 1_556 2_565 ?
P44 P44 La1 80.4(16) 2_565 . ?
P33 P44 La1 57.8(9) . . ?
P32 P44 La1 76.1(10) 8_545 . ?
P31 P44 La1 133.1(8) 8_545 . ?
P33 P44 La1 59.2(7) 2_565 . ?
P31 P44 La1 68.7(7) . . ?
P32 P44 La1 70.2(6) 7_455 . ?
P31 P44 La1 114.8(7) 7_455 . ?
P33 P44 La1 128.1(7) 8_545 . ?
P32 P44 La1 132.9(7) 1_556 . ?
La1 P44 La1 89.7(6) 2_565 . ?
loop_
_geom_bond_atom_site_label_1
_geom_bond_atom_site_label_2
_geom_bond_distance
_geom_bond_site_symmetry_2
_geom_bond_publ_flag
La1 P33 2.868(10) . ?
La1 P33 2.873(10) 2_565 ?
La1 P32 2.983(6) . ?
La1 P32 2.998(6) 2_565 ?
La1 P2 3.004(4) . ?
La1 P2 3.038(3) 1_556 ?
La1 P2 3.0639(13) 8_545 ?
La1 P11 3.0834(16) 1_455 ?
La1 P12 3.10(4) . ?
La1 P2 3.1201(13) 8_445 ?
La1 P31 3.178(6) 8_544 ?
La1 P31 3.189(6) 7_454 ?
P11 P12 0.79(5) 1_655 ?
P11 Si12 2.17(5) 6_665 ?
P11 Si11 2.234(2) 8_644 ?
P11 Si11 2.248(2) 6_764 ?
P11 Si11 2.260(2) . ?
P11 Si12 2.29(8) 1_656 ?
P12 Si12 2.09(5) 1_556 ?
P12 Si11 2.10(4) 6_664 ?
P12 Si12 2.26(7) 8_545 ?
P12 Si12 2.37(6) 6_565 ?
P12 Si11 2.39(8) 1_455 ?
Si11 Si12 0.96(5) 1_656 ?
Si11 P2 2.196(2) 1_656 ?
Si12 P2 2.14(5) . ?
P31 P32 0.741(11) 8_545 ?
P31 P33 0.863(17) . ?
P31 P44 1.72(3) 8_544 ?
P31 P44 1.99(3) . ?
P31 P31 2.065(17) 2_665 ?
P31 P44 2.18(3) 7_554 ?
P31 P32 2.326(9) . ?
P31 P32 2.504(9) 7 ?
P31 P33 2.698(17) 8_544 ?
P32 P33 0.655(11) 8_544 ?
P32 P44 1.33(3) 8_544 ?
P32 P44 2.13(2) 7_554 ?
P32 P44 2.45(3) 1_554 ?
P32 P33 2.483(10) . ?
P33 P44 1.28(3) . ?
P33 P44 1.89(3) 2_565 ?
P33 P33 2.23(3) 2_565 ?
P33 P44 2.32(3) 8_544 ?
P44 P44 0.87(5) 2_565 ?
