#------------------------------------------------------------------------------
#$Date: 2021-09-06 14:07:23 +0300 (Mon, 06 Sep 2021) $
#$Revision: 268747 $
#$URL: file:///home/coder/svn-repositories/cod/cif/7/70/79/7707923.cif $
#------------------------------------------------------------------------------
#
# This file is available in the Crystallography Open Database (COD),
# http://www.crystallography.net/
#
# All data on this site have been placed in the public domain by the
# contributors.
#
data_7707923
loop_
_publ_author_name
'Wang, Jinhui'
'Zhang, Xinyuan'
'Liang, Fei'
'Hu, Zhanggui'
'Wu, Yicheng'
_publ_section_title
;
 Co-crystal
 AX&#x00B7;(H<sub>3</sub>C<sub>3</sub>N<sub>3</sub>O<sub>3</sub>) (A = Na,
 Rb, Cs; X = Br, I): a series of strongly anisotropic alkali halide
 cyanurates with a planar structural motif and large birefringence.
;
_journal_issue                   33
_journal_name_full
'Dalton transactions (Cambridge, England : 2003)'
_journal_page_first              11555
_journal_page_last               11561
_journal_paper_doi               10.1039/d1dt02217b
_journal_volume                  50
_journal_year                    2021
_chemical_formula_moiety         '0.25(C12 H12 I4 N12 O12 Rb4)'
_chemical_formula_sum            'C3 H3 I N3 O3 Rb'
_chemical_formula_weight         341.45
_space_group_crystal_system      orthorhombic
_space_group_IT_number           62
_space_group_name_Hall           '-P 2ac 2n'
_space_group_name_H-M_alt        'P n m a'
_atom_sites_solution_hydrogens   difmap
_atom_sites_solution_primary     dual
_audit_creation_date             2020-12-08
_audit_creation_method
;
Olex2 1.2
(compiled 2017.08.10 svn.r3458 for OlexSys, GUI svn.r5381)
;
_audit_update_record
;
2021-06-30 deposited with the CCDC.	2021-07-26 downloaded from the CCDC.
;
_cell_angle_alpha                90
_cell_angle_beta                 90
_cell_angle_gamma                90
_cell_formula_units_Z            4
_cell_length_a                   7.4445(3)
_cell_length_b                   8.2726(5)
_cell_length_c                   13.7915(7)
_cell_measurement_reflns_used    2193
_cell_measurement_temperature    100(2)
_cell_measurement_theta_max      30.41
_cell_measurement_theta_min      2.87
_cell_volume                     849.35(8)
_computing_cell_refinement       'SAINT V8.38A (?, 2016)'
_computing_data_reduction        'SAINT V8.38A (?, 2016)'
_computing_molecular_graphics    'Olex2 (Dolomanov et al., 2009)'
_computing_publication_material  'Olex2 (Dolomanov et al., 2009)'
_computing_structure_refinement  'ShelXL (Sheldrick, 2015)'
_computing_structure_solution    'ShelXT (Sheldrick, 2015)'
_diffrn_ambient_temperature      100.0
_diffrn_measured_fraction_theta_full 1.000
_diffrn_measured_fraction_theta_max 0.881
_diffrn_measurement_device_type  'CCD area detector'
_diffrn_measurement_method       'phi and omega scans'
_diffrn_radiation_monochromator  graphite
_diffrn_radiation_type           MoK\a
_diffrn_radiation_wavelength     0.71073
_diffrn_reflns_av_R_equivalents  0.0744
_diffrn_reflns_av_unetI/netI     0.0669
_diffrn_reflns_Laue_measured_fraction_full 1.000
_diffrn_reflns_Laue_measured_fraction_max 0.881
_diffrn_reflns_limit_h_max       10
_diffrn_reflns_limit_h_min       -10
_diffrn_reflns_limit_k_max       10
_diffrn_reflns_limit_k_min       -11
_diffrn_reflns_limit_l_max       20
_diffrn_reflns_limit_l_min       -13
_diffrn_reflns_number            6389
_diffrn_reflns_point_group_measured_fraction_full 1.000
_diffrn_reflns_point_group_measured_fraction_max 0.881
_diffrn_reflns_theta_full        25.242
_diffrn_reflns_theta_max         32.246
_diffrn_reflns_theta_min         2.871
_exptl_absorpt_coefficient_mu    9.430
_exptl_absorpt_correction_T_max  0.7464
_exptl_absorpt_correction_T_min  0.5951
_exptl_absorpt_correction_type   none
_exptl_absorpt_process_details
;
SADABS-2016/2 (Bruker,2016/2) was used for absorption correction.
wR2(int) was 0.0958 before and 0.0797 after correction.
The Ratio of minimum to maximum transmission is 0.7973.
The \l/2 correction factor is Not present.
;
_exptl_crystal_density_diffrn    2.670
_exptl_crystal_description       strip
_exptl_crystal_F_000             624
_refine_diff_density_max         1.230
_refine_diff_density_min         -1.529
_refine_diff_density_rms         0.267
_refine_ls_extinction_method     none
_refine_ls_goodness_of_fit_ref   1.047
_refine_ls_hydrogen_treatment    refall
_refine_ls_matrix_type           full
_refine_ls_number_parameters     65
_refine_ls_number_reflns         1413
_refine_ls_number_restraints     0
_refine_ls_restrained_S_all      1.047
_refine_ls_R_factor_all          0.0629
_refine_ls_R_factor_gt           0.0362
_refine_ls_shift/su_max          0.002
_refine_ls_shift/su_mean         0.000
_refine_ls_structure_factor_coef Fsqd
_refine_ls_weighting_details
'w=1/[\s^2^(Fo^2^)+(0.0178P)^2^] where P=(Fo^2^+2Fc^2^)/3'
_refine_ls_weighting_scheme      calc
_refine_ls_wR_factor_gt          0.0624
_refine_ls_wR_factor_ref         0.0713
_reflns_Friedel_coverage         0.000
_reflns_number_gt                1067
_reflns_number_total             1413
_reflns_threshold_expression     'I > 2\s(I)'
_cod_data_source_file            d1dt02217b2.cif
_cod_data_source_block           a_CCDC1
_cod_depositor_comments
'Adding full bibliography for 7707922--7707924.cif.'
_cod_database_code               7707923
_shelx_shelxl_version_number     2016/4
_shelx_space_group_comment
;
The symmetry employed for this shelxl refinement is uniquely defined
by the following loop, which should always be used as a source of
symmetry information in preference to the above space-group names.
They are only intended as comments.
;
_olex2_refinement_description
;
;
_shelx_res_file
;
TITL a_a.res in Pnma
 a.res created by SHELXL-2016/4 at 11:05:14 on 08-Dec-2020
REM Old TITL a in Pnma
REM SHELXT solution in Pnma
REM R1 0.112, Rweak 0.003, Alpha 0.017, Orientation as input
REM Formula found by SHELXT: C6 O3 Rb2
CELL 0.71073 7.4445 8.2726 13.7915 90 90 90
ZERR 4 0.0003 0.0005 0.0007 0 0 0
LATT 1
SYMM 0.5-X,-Y,0.5+Z
SYMM -X,0.5+Y,-Z
SYMM 0.5+X,0.5-Y,0.5-Z
SFAC C H I N O Rb
UNIT 12 12 4 12 12 4

L.S. 4
PLAN  20
TEMP -173.15
list 4
fmap 2
ACTA
REM <olex2.extras>
REM <HklSrc "%.\\a.hkl">
REM </olex2.extras>

WGHT    0.017800
FVAR       0.31779
I1    3    0.349936    0.250000    1.066388    10.50000    0.01638    0.01677 =
         0.01052    0.00000    0.00024    0.00000
RB1   6    0.452653    0.250000    0.796746    10.50000    0.01298    0.02094 =
         0.01073    0.00000    0.00071    0.00000
O2    5    0.343833    0.525518    0.322515    11.00000    0.02436    0.01155 =
         0.01805    0.00416    0.00307   -0.00029
O1    5    0.290144    0.250000    0.606704    10.50000    0.01756    0.02284 =
         0.01035    0.00000   -0.00080    0.00000
N1    4    0.330954    0.389317    0.465731    11.00000    0.01444    0.00943 =
         0.01489   -0.00231   -0.00008    0.00187
N2    4    0.353453    0.250000    0.321943    10.50000    0.02182    0.01619 =
         0.00789    0.00000    0.00231    0.00000
C1    1    0.316000    0.250000    0.518872    10.50000    0.00906    0.01987 =
         0.01437    0.00000   -0.00146    0.00000
C2    1    0.342182    0.397969    0.365913    11.00000    0.01140    0.01722 =
         0.01239    0.00015   -0.00270   -0.00150
H2    2    0.367572    0.250000    0.265615    10.50000    0.02969
H1    2    0.300425    0.470250    0.489096    11.00000    0.00302
HKLF 4




REM  a_a.res in Pnma
REM R1 =  0.0362 for    1067 Fo > 4sig(Fo)  and  0.0629 for all    1413 data
REM     65 parameters refined using      0 restraints

END

WGHT      0.0178      0.0000

REM Highest difference peak  1.230,  deepest hole -1.529,  1-sigma level  0.267
Q1    1   0.1889  0.2500  0.4370  10.50000  0.05    1.23
Q2    1   0.2598  0.2500  0.7925  10.50000  0.05    1.13
Q3    1   0.1070  0.2500  0.4839  10.50000  0.05    1.04
Q4    1   0.5011  0.2500  1.0279  10.50000  0.05    0.97
Q5    1   0.4533  0.2500  0.6023  10.50000  0.05    0.95
Q6    1   0.1513  0.2500  1.0323  10.50000  0.05    0.95
Q7    1   0.2430  0.2500  0.3401  10.50000  0.05    0.90
Q8    1   0.2523  0.2500  0.5752  10.50000  0.05    0.90
Q9    1   0.1952  0.2500  0.6737  10.50000  0.05    0.89
Q10   1   0.4634  0.2500  0.3398  10.50000  0.05    0.89
Q11   1   0.5438  0.4263  0.2692  11.00000  0.05    0.87
Q12   1   0.3267  0.7500  0.3387  10.50000  0.05    0.87
Q13   1   0.5814  0.5448  0.2842  11.00000  0.05    0.86
Q14   1   0.5243  0.1783  0.5768  11.00000  0.05    0.85
Q15   1   0.3049  0.2500  0.4591  10.50000  0.05    0.85
Q16   1   0.4016  0.6434  0.4765  11.00000  0.05    0.85
Q17   1   0.3214  0.2500  0.6822  10.50000  0.05    0.84
Q18   1   0.2072  0.1409  0.6155  11.00000  0.05    0.81
Q19   1   0.3434  0.2500  1.0390  10.50000  0.05    0.80
Q20   1   0.3802  0.6407  0.3745  11.00000  0.05    0.80
;
_shelx_res_checksum              63563
_shelx_hkl_file
;
   1   0   0    1.50    1.20
   1   0   0    0.30    0.70
  -1   0   0    3.20    1.40
  -1   0   0    0.70    1.10
  -2   0   0  319.17   21.80
   2   0   0  304.67   23.70
  -2   0   0  338.57   23.30
  -2   0   0  346.57   23.40
  -3   0   0   -1.00    1.60
  -3   0   0    3.80    2.50
  -3   0   0   -0.20    1.30
   3   0   0   -2.20    2.30
  -4   0   0 1479.75   91.89
  -4   0   0 1705.73   91.39
   4   0   0 1634.74   97.49
  -4   0   0 1599.14   94.79
  -5   0   0   -2.40    3.70
  -5   0   0   -0.20    3.00
  -5   0   0    6.20    4.60
  -6   0   0 1411.46   97.19
  -6   0   0 1652.73   92.09
  -6   0   0 1618.14   91.79
  -7   0   0   -5.70    6.40
  -7   0   0   -5.40    5.30
  -7   0   0   -1.40    4.30
  -8   0   0  116.09   23.80
  -9   0   0   -7.50   11.10
   0  -1   0    0.20    0.90
   0   1   0    6.40    2.20
   0   1   0    0.20    0.90
   0  -1   0    0.10    0.80
   1   1   0    0.20    0.70
  -1   1   0    2.40    2.00
  -1   1   0   -1.50    1.10
   1  -1   0    1.70    2.30
   1   1   0    0.70    1.40
   2   1   0 9999.00  451.75
  -2   1   0 8469.85  458.25
   2   1   0 8610.44  456.65
   2  -1   0 8643.24  459.25
  -2  -1   0 8591.84  461.75
  -3  -1   0   -2.40    1.50
   3   1   0    4.60    2.70
   3  -1   0    1.50    2.70
   3   1   0   -0.70    2.30
   4  -1   0  245.98   26.00
  -4   1   0  211.18   21.10
  -4   1   0  228.98   23.00
  -4  -1   0  223.88   21.70
   4   1   0  176.78   18.50
  -5  -1   0    3.50    4.60
  -5   1   0   12.60    6.50
  -5   1   0    4.60    3.80
  -6   1   0   60.19   13.50
  -6  -1   0   19.80    9.80
  -6   1   0   32.00   10.20
  -7   1   0   -6.70    5.80
  -7   1   0  -15.50    6.50
  -7   1   0   -6.00    5.60
  -7  -1   0  -10.60    4.50
  -8  -1   0 1415.76   95.39
  -8   1   0 1347.27   96.29
  -8   1   0 1364.16   93.59
  -9  -1   0   16.00   14.80
  -9   1   0   30.30   16.20
   0  -2   0 9151.28  466.95
   0   2   0 8871.81  464.85
   0   2   0 9150.88  466.55
  -1   2   0   -2.80    1.40
  -1  -2   0   -0.70    1.30
   1   2   0   -3.60    1.70
  -1  -2   0    1.10    1.90
   1  -2   0    3.50    3.10
   1  -2   0    2.10    2.20
   1   2   0    1.50    1.70
  -1   2   0    2.20    2.80
  -2   2   0  126.39   15.80
   2  -2   0  117.89   16.20
   2   2   0  102.99    9.60
  -2  -2   0  115.29   13.70
   2   2   0  132.69   14.20
  -2   2   0  131.69   15.20
   3  -2   0   -4.40    2.00
   3   2   0    2.90    2.50
  -3   2   0    1.10    3.70
  -3  -2   0    2.80    2.90
   4  -2   0  247.18   28.60
  -4  -2   0  254.67   25.30
  -4   2   0  294.67   29.30
   4   2   0  272.67   25.60
   4   2   0  260.67   22.00
  -5  -2   0   -4.60    3.50
  -5   2   0   -1.80    4.40
   5  -2   0   -0.30    3.80
   5   2   0    1.30    3.90
  -5   2   0   -3.60    4.20
   5   2   0    4.10    4.80
  -6   2   0  295.17   30.80
  -6  -2   0  266.47   29.90
   6   2   0  271.17   27.30
  -7   2   0    8.10    7.40
  -7   2   0   13.60    8.00
  -7  -2   0  -12.40    7.90
  -8   2   0   35.40   13.50
  -8   2   0   20.30   13.00
  -8  -2   0   27.40   13.50
  -9   2   0   14.40   12.10
  -9  -2   0    4.40   13.20
  -9   2   0   41.20   16.00
   0  -3   0   -1.10    2.40
   0   3   0    3.10    2.50
   0  -3   0    0.20    2.70
   0   3   0   -1.30    3.00
  -1  -3   0    1.70    2.50
   1  -3   0   -0.90    2.30
  -1   3   0    0.30    2.40
  -1  -3   0    3.50    2.10
  -1   3   0    2.90    3.80
   1  -3   0   -0.10    2.90
   1   3   0    5.00    2.60
   1   3   0    5.90    3.30
   2  -3   0 3622.34  227.58
  -2   3   0 4123.69  229.68
   2   3   0 4247.38  217.28
  -2  -3   0 4403.06  227.38
   2   3   0 4171.78  226.18
  -2   3   0 4340.87  228.78
  -3  -3   0   -7.00    2.70
   3   3   0    2.10    2.50
   3   3   0   -1.30    3.40
  -3   3   0    5.90    3.60
   3  -3   0   -5.10    3.30
  -3   3   0   -8.50    3.30
   4   3   0    2.10    4.00
   4   3   0    1.00    5.60
  -4  -3   0   16.30    7.00
  -4   3   0   18.50    7.10
   4  -3   0   -3.50    1.90
   5   3   0    1.70    4.80
   5  -3   0    6.40    4.80
  -5  -3   0    2.40    4.10
  -5   3   0    5.10    6.10
   5   3   0    4.80    4.10
  -6  -3   0   26.50   10.60
   6   3   0   19.80    8.00
  -6   3   0   10.10   11.10
   6   3   0   47.60   11.90
  -7  -3   0    9.10    8.50
  -7   3   0   -3.30    8.50
  -8   3   0  671.33   59.79
  -8  -3   0  727.43   60.29
  -8   3   0  722.33   65.99
  -9   3   0    5.80   14.20
  -9  -3   0  -14.60   15.10
  -9   3   0    5.70   12.90
   0  -4   0 7336.47  384.16
   0   4   0 6523.75  391.66
   0   4   0 7582.74  380.46
   0  -4   0 7244.18  377.36
  -1   4   0    0.40    3.70
   1  -4   0   -0.90    2.50
  -1  -4   0    0.70    2.70
   1   4   0   -0.30    3.70
  -1   4   0    2.80    5.50
  -1  -4   0    2.30    4.00
   1   4   0    0.80    3.30
   2  -4   0   35.50   12.10
   2   4   0   32.40    7.80
  -2  -4   0   37.40   12.10
  -2   4   0   26.30    9.90
  -2   4   0   21.00    8.30
  -3  -4   0    0.40    4.30
   3   4   0   -1.40    3.80
   3   4   0   -5.90    2.40
  -3   4   0    4.20    6.10
   3  -4   0   -8.60    4.00
   4   4   0  392.16   37.80
   4  -4   0  378.86   41.60
   4   4   0  384.86   30.10
  -4  -4   0  405.56   38.60
  -5  -4   0    1.60    7.50
   5   4   0    0.30    4.40
   6   4   0  320.57   29.90
  -6  -4   0  346.17   37.10
  -7  -4   0   -5.00    8.20
  -7   4   0    7.50    8.20
  -8  -4   0    3.80   12.20
  -8   4   0   24.50   16.70
  -9  -4   0  -19.60   15.60
  -9   4   0   19.60   13.40
   0  -5   0    4.10    5.90
   0  -5   0    0.10    4.10
   0   5   0    7.70    5.20
   1  -5   0   -2.30    3.20
  -1  -5   0    7.50    6.60
   1  -5   0   -7.40    3.70
  -1   5   0    4.80    5.80
   1   5   0   -3.90    3.70
   2   5   0 2670.63  147.09
   2  -5   0 2671.03  160.08
  -2  -5   0 2523.55  158.78
   3  -5   0    0.50    5.40
  -3  -5   0   -3.60    5.50
   3   5   0    3.00    4.10
   4   5   0   -2.70    4.60
  -4  -5   0   15.20    8.30
   4  -5   0   10.10    6.20
   5  -5   0    2.60    7.90
   5   5   0   32.40    9.20
  -5  -5   0   -8.00    6.90
  -6  -5   0   25.90   12.70
  -7  -5   0   -8.30    9.90
  -8   5   0  685.53   64.49
  -8  -5   0  594.44   60.59
  -9   5   0   -0.40   17.40
   0  -6   0 4801.02  266.77
   0  -6   0 4969.40  280.87
   1  -6   0   -3.30    4.30
  -1  -6   0   -5.90    4.70
   1  -6   0    4.30    5.90
  -2  -6   0   12.20    8.90
   2  -6   0   10.20    6.60
   2   6   0    4.80    5.70
   3  -6   0    1.70    7.00
   3   6   0    9.20    6.50
  -3  -6   0    5.00    5.70
   4   6   0  372.66   31.60
  -4  -6   0  353.66   41.60
   4  -6   0  310.67   41.60
  -5  -6   0   -2.70    9.00
  -6  -6   0  351.56   43.30
  -7  -6   0    4.40   12.50
  -8   6   0   47.10   19.40
  -8  -6   0   69.29   41.60
  -9   6   0   -2.50   16.70
   0  -7   0   -4.40    7.00
  -1  -7   0    3.40    5.50
   1  -7   0   -2.50    6.90
  -2  -7   0 2831.92  181.98
  -3  -7   0   15.30   11.60
  -4  -7   0  135.59   30.80
  -5  -7   0  -14.30   11.00
  -6  -7   0   -1.10   14.00
  -7  -7   0   15.50   16.00
  -8  -7   0  876.41   83.29
   0  -8   0 3179.58  206.58
  -1  -8   0    5.50    9.90
   1  -8   0    7.50    8.20
  -2  -8   0   20.00   11.00
  -3  -8   0   12.30    9.50
  -4  -8   0  251.47   46.20
  -5  -8   0   -5.80   13.00
  -6  -8   0  287.57   50.19
  -7  -8   0  -25.50   19.10
   0  -9   0   -5.00   10.50
  -1  -9   0   -7.40   12.30
   1  -9   0    4.70    9.80
  -2  -9   0  718.63   77.09
  -3  -9   0   15.00   12.50
  -4  -9   0   22.00   16.40
  -5  -9   0   40.00   17.50
  -6  -9   0   12.70   21.00
  -7  -9   0   -4.90   22.40
   0 -10   0 1092.09  104.49
  -1 -10   0  -13.80   10.10
  -2 -10   0   14.00   14.30
  -3 -10   0    6.70   17.10
  -4 -10   0   62.49   25.80
  -5 -10   0   16.40   17.70
  -6 -10   0   39.70   26.90
  -1 -11   0   -1.20   22.50
  -1   0   1  423.86   26.90
   1   0   1  444.06   25.20
   1   0  -1  471.45   27.40
  -1   0  -1  437.36   24.50
  -2   0  -1  851.01   43.90
  -2   0   1  795.82   48.80
  -2   0  -1  674.33   43.20
   2   0   1  784.32   45.70
  -2   0   1  817.82   47.10
   2   0  -1  814.62   47.60
  -2   0   1  725.53   46.90
  -3   0   1   17.20    6.00
  -3   0   1   22.50    6.90
  -3   0  -1   21.30    6.80
  -3   0  -1   18.30    4.80
  -3   0  -1   19.60    4.80
  -3   0   1   14.20    5.10
   3   0   1   13.40    5.30
  -4   0  -1 2276.07  122.29
  -4   0  -1 2224.88  119.19
  -4   0   1 2057.89  124.09
  -4   0   1 2187.08  122.59
  -4   0   1 2170.38  127.19
   4   0   1 2402.16  127.59
  -4   0  -1 2037.90  117.69
  -5   0   1   78.79   16.10
  -5   0  -1  117.09   12.50
  -5   0   1   88.19   15.20
  -5   0  -1   99.89   13.40
   5   0   1  121.89   17.10
  -5   0  -1  120.59   12.20
  -5   0   1  101.89   17.00
  -6   0   1 1248.68   76.99
  -6   0  -1 1213.28   70.79
  -6   0   1 1253.87   84.09
  -6   0   1 1239.28   77.89
  -6   0  -1 1159.28   78.19
  -7   0   1  303.97   34.80
  -7   0   1  315.47   27.80
  -7   0  -1  316.47   31.30
  -7   0   1  279.97   27.40
  -8   0  -1   52.59   16.10
  -9   0   1   94.49   25.00
  -9   0  -1   82.09   19.90
   0  -1   1   72.19    7.30
   0  -1   1   80.39    8.20
   0   1  -1   73.19    8.00
   0   1  -1   72.09    7.50
   0   1   1   71.79    7.70
   1  -1   1  400.76   30.40
  -1  -1  -1  468.25   27.90
   1   1  -1  401.26   32.90
   1   1  -1  468.15   28.50
  -1   1   1  483.95   30.90
   1  -1   1  515.45   29.80
  -1   1  -1  507.55   33.50
   1   1   1  463.25   28.00
  -1   1  -1  456.75   29.30
  -1  -1   1  459.85   30.80
  -1  -1   1  496.25   28.10
   2   1  -1 1260.57   71.19
   2  -1   1 1320.87   75.29
  -2  -1  -1 1307.57   70.09
  -2   1   1 1276.57   75.39
   2   1  -1 1204.98   73.69
  -2   1  -1 1073.19   72.39
  -2  -1   1 1361.16   70.09
  -2  -1   1 1315.27   74.99
   2   1   1 1271.07   69.79
   3   1  -1  651.33   41.50
   3  -1   1  628.74   45.60
  -3  -1  -1  629.84   41.10
   3   1  -1  656.23   44.50
  -3   1   1  716.13   47.30
  -3   1   1  634.24   44.10
  -3  -1   1  643.64   39.00
   3   1   1  658.83   40.10
  -3  -1   1  622.84   40.60
  -3   1  -1  539.45   41.80
   3   1   1  640.74   38.00
  -3  -1   1  627.34   44.20
   3   1   1  574.74   38.70
  -4   1   1  996.00   64.19
  -4   1   1 1037.00   66.89
   4  -1   1  882.81   65.79
  -4  -1  -1  998.70   60.29
   4   1  -1  923.51   61.39
  -4  -1   1  996.30   57.59
  -4  -1   1 1036.10   65.69
   4   1   1  984.40   58.99
  -4   1  -1  978.80   61.69
  -4  -1   1  973.60   58.79
  -4   1  -1  896.31   61.89
   4   1   1  951.30   60.39
  -5   1   1  359.36   42.90
   5  -1   1  449.56   40.00
  -5   1   1  395.76   37.90
  -5  -1  -1  415.36   33.00
   5   1  -1  400.36   34.30
  -5   1   1  367.16   34.10
  -5  -1   1  423.36   29.40
  -5   1  -1  466.55   34.70
  -5  -1   1  430.46   30.50
  -5   1  -1  391.26   32.90
  -5  -1   1  392.46   36.60
  -6  -1  -1  384.46   32.80
   6  -1   1  351.26   37.50
  -6   1   1  375.96   35.40
  -6   1  -1  337.37   30.60
  -6   1  -1  336.57   32.70
  -6  -1   1  403.26   37.00
  -6   1  -1  347.57   31.40
  -6  -1   1  335.77   26.20
  -7   1   1   81.59   20.30
  -7   1   1   62.79   15.70
  -7  -1  -1   47.80   12.40
  -7   1   1   70.19   16.30
  -7   1  -1   48.90   12.40
  -7  -1   1   91.99   21.30
  -7   1  -1   73.19   17.30
  -7   1  -1   48.20   12.60
  -8  -1  -1  251.37   28.40
  -8   1   1  236.78   28.90
  -8   1   1  295.17   35.60
  -8   1   1  260.87   28.00
  -8   1  -1  230.18   23.10
  -8   1  -1  189.68   22.90
  -8  -1   1  204.98   30.60
  -8   1  -1  237.68   30.60
  -9   1   1  335.67   39.10
  -9  -1  -1  291.27   38.10
  -9   1   1  239.28   41.80
  -9   1  -1  300.47   37.80
  -9  -1   1  358.96   42.10
   0   2  -1    2.10    2.00
   0   2  -1    0.70    2.50
   0   2   1    4.30    3.40
   0  -2   1    0.10    2.00
   0   2   1    1.20    2.00
   0  -2  -1    0.00    1.80
  -1   2   1 1939.51  103.49
   1  -2   1 1868.21  103.59
  -1  -2  -1 1756.42  100.99
   1  -2   1 1831.52  102.49
   1   2  -1 1732.53   98.49
   1   2  -1 1815.32  103.29
  -1  -2   1 1736.23   97.49
  -1   2  -1 1934.21  103.49
  -1  -2   1 1720.63  102.69
   1   2   1 1742.23  100.39
  -1   2  -1 1858.61  102.59
   2   2  -1   88.59   12.30
   2  -2   1   74.89   14.20
  -2  -2  -1   94.09   11.60
  -2   2   1   80.79   14.90
   2   2  -1   98.39   10.40
  -2  -2   1   82.39    8.20
  -2   2  -1  103.29   14.30
   2   2   1   95.49   11.30
   2  -2  -1   89.09   15.90
  -2  -2   1   91.99   12.70
  -2   2  -1  110.79   13.30
  -3   2   1 1271.67   79.29
   3   2  -1 1115.39   74.09
  -3  -2  -1 1173.68   71.39
   3  -2   1 1251.67   79.59
   3   2  -1 1275.47   70.09
  -3  -2   1 1145.09   75.09
   3   2   1 1203.68   71.29
  -3   2  -1 1199.18   74.09
  -3   2  -1 1068.59   75.39
   4   2  -1  730.83   52.49
  -4   2   1  683.33   53.79
   4   2  -1  720.03   47.40
   4  -2   1  613.34   53.49
  -4  -2  -1  735.93   48.50
   4   2   1  740.33   43.70
  -4   2  -1  665.73   49.30
   4   2   1  624.94   46.70
  -4  -2   1  710.63   52.09
  -4   2  -1  772.42   53.79
  -5   2   1    2.60    5.00
   5  -2   1    7.10    6.20
   5   2  -1   -1.90    4.90
  -5  -2  -1   12.40    5.40
   5   2  -1    8.80    4.70
  -5   2   1    4.90    6.90
  -5   2  -1    5.30    5.60
   5   2   1   -4.00    3.60
  -5   2  -1    0.90    6.00
  -5  -2   1    6.00    5.90
  -6  -2  -1  788.42   56.99
  -6   2   1  730.93   59.49
   6  -2   1  801.82   66.19
  -6   2  -1  841.92   59.19
  -6  -2   1  799.52   61.69
  -6   2  -1  765.62   58.69
  -6   2  -1  797.72   59.09
  -7   2   1  596.54   49.80
  -7   2   1  527.15   51.89
  -7  -2  -1  553.24   45.70
  -7   2  -1  570.74   46.90
  -7   2  -1  482.45   47.40
  -7  -2   1  548.95   49.99
  -8   2   1   13.80    8.50
  -8   2   1   12.60    9.60
  -8  -2  -1   -4.20    8.30
  -8  -2   1   33.90   14.30
  -8   2  -1    9.70   11.90
  -8   2  -1    0.80    9.10
  -9   2   1  198.68   31.60
  -9  -2  -1  291.67   33.10
  -9   2   1  174.88   34.60
  -9  -2   1  231.68   38.80
  -9   2  -1  287.27   30.80
  -9   2  -1  228.08   37.00
 -10   2   1  -33.10   23.40
   0  -3   1  176.38   18.50
   0   3   1  193.68   18.90
   0  -3   1  210.38   21.70
   0   3   1  198.78   20.90
   0   3  -1  200.58   19.30
   0   3  -1  183.88   20.10
   0  -3  -1  171.18   19.90
   1  -3   1 1497.35   96.19
  -1   3   1 1651.63   98.29
   1   3  -1 1740.33   98.39
   1  -3   1 1621.24   97.49
  -1  -3  -1 1688.43   96.79
   1   3  -1 1527.05   91.39
  -1   3   1 1562.44   96.59
   1  -3  -1 1616.64   96.09
  -1  -3   1 1542.05   90.69
   1   3   1 1540.55   89.49
  -1   3  -1 1703.33   97.89
  -1  -3   1 1691.23   98.49
   1   3   1 1592.14   95.39
   2   3  -1  797.92   49.90
   2  -3   1  800.82   58.39
  -2  -3  -1  801.32   54.49
  -2   3   1  818.12   58.29
   2   3  -1  873.11   57.69
   2  -3   1  787.72   56.19
  -2   3   1  806.72   57.59
   2  -3  -1  721.43   56.69
   2   3   1  783.12   45.70
   2   3   1  757.22   53.49
  -2  -3   1  858.61   57.49
  -2  -3   1  832.22   46.90
  -2   3  -1  748.03   55.69
   3   3  -1  464.85   39.70
  -3   3   1  533.45   44.00
  -3  -3  -1  464.85   37.50
   3   3  -1  475.45   34.00
   3  -3   1  406.46   41.00
  -3   3   1  465.05   41.20
   3   3   1  471.45   37.10
   3  -3  -1  502.25   44.00
  -3  -3   1  508.35   40.80
  -3   3  -1  427.26   38.70
  -3   3  -1  549.65   44.40
  -4  -3  -1  642.84   48.00
  -4   3   1  651.13   52.99
   4   3  -1  622.34   49.70
   4   3  -1  663.93   44.20
   4  -3   1  641.14   54.69
   4   3   1  631.74   39.50
   4   3   1  615.34   46.70
  -4   3  -1  627.74   51.69
  -4   3  -1  609.24   49.60
  -4  -3   1  665.83   51.49
   5   3  -1  762.92   54.69
   5  -3   1  855.91   67.59
  -5  -3  -1  815.52   57.89
   5   3  -1  754.82   60.09
  -5   3  -1  731.83   59.89
   5   3   1  795.92   51.19
  -5  -3   1  828.92   62.29
   5   3   1  862.41   58.39
  -6  -3  -1  202.68   24.40
  -6   3   1  184.68   26.20
   6  -3   1  141.49   28.20
   6   3   1  169.58   19.50
  -6  -3   1  203.58   27.10
   6   3   1  170.88   22.60
  -7   3   1  206.98   28.60
  -7  -3  -1  186.28   24.80
  -7  -3   1  177.78   31.70
  -7   3  -1  221.78   28.50
  -8  -3  -1  217.98   28.10
  -8   3   1  230.98   35.00
  -8   3   1  263.27   33.70
  -8   3  -1  214.48   32.80
  -8   3  -1  201.28   29.20
  -8  -3   1  280.97   35.60
  -9   3   1  219.88   37.20
  -9   3   1  311.67   42.40
  -9  -3   1  268.57   42.80
  -9   3  -1  240.98   41.60
  -9   3  -1  324.97   37.20
 -10   3   1   29.30   28.40
   0   4  -1    0.20    3.80
   0  -4   1    2.40    3.00
   0   4   1    1.90    3.30
   0   4  -1    3.80    3.90
   0   4   1   -4.60    2.10
   0  -4  -1    1.40    3.80
   0  -4   1    0.00    3.10
   1  -4   1 1004.60   72.99
   1  -4   1 1206.98   75.39
  -1  -4  -1 1047.30   72.79
   1   4  -1 1074.59   67.19
  -1   4   1 1051.29   73.89
   1   4  -1  965.20   71.69
  -1   4   1  994.50   71.69
  -1   4  -1 1181.38   74.29
  -1  -4   1 1076.69   74.19
   1  -4  -1 1005.10   73.49
  -1   4  -1 1070.69   73.89
   1   4   1 1117.09   72.89
   1   4   1 1048.60   66.29
  -1  -4   1 1122.89   67.09
   2  -4   1   21.90    8.70
   2   4  -1   38.80   12.70
  -2  -4  -1   24.90    9.70
  -2   4   1   28.80    9.90
  -2   4   1   23.20    8.20
   2  -4   1   40.70   12.40
   2   4  -1   32.40    8.80
   2   4   1   34.20    7.80
   2  -4  -1   22.50    8.80
  -2  -4   1   39.00   12.30
  -2   4  -1   23.90    9.70
  -2  -4   1   26.30    6.10
   2   4   1   20.80    8.30
  -2   4  -1   18.70    9.10
  -3  -4  -1  881.21   63.59
   3  -4   1  990.00   71.59
   3   4  -1  837.42   56.59
   3   4  -1  885.11   65.49
   3   4   1  875.11   52.79
  -3  -4   1  888.91   66.19
  -3   4  -1  888.91   66.39
   4   4  -1  761.52   65.59
   4  -4   1  836.82   69.59
   4   4  -1  840.72   57.09
  -4  -4  -1  934.81   65.39
   4   4   1  938.51   53.29
   4   4   1  828.82   62.39
   5  -4   1    3.20    6.50
  -5  -4  -1   -6.50    5.20
   5   4  -1  -10.50    4.70
   5   4   1   -2.50    6.00
  -5  -4   1   -2.50    6.00
   5   4   1    1.90    4.30
   6  -4   1  795.42   70.79
  -6  -4   1  768.02   64.39
   6   4   1  758.42   52.59
  -7   4   1  437.66   49.60
  -7  -4  -1  430.56   42.90
  -7  -4   1  451.85   46.80
  -8   4   1  -15.80    9.10
  -8  -4  -1   -8.00    9.80
  -8  -4   1    2.40   11.70
  -8   4  -1   12.80   14.10
  -9   4   1  204.28   38.80
  -9   4   1  193.98   34.60
  -9   4  -1  149.39   31.00
  -9  -4   1  223.78   39.90
 -10   4   1  -53.19   34.90
   0  -5   1  197.98   27.70
   0   5   1  261.37   27.00
   0   5  -1  259.37   26.60
   0  -5  -1  251.07   30.10
   0  -5   1  219.58   25.50
  -1   5   1  911.91   64.59
   1  -5   1  826.92   65.69
   1   5  -1  799.92   57.59
   1  -5   1  847.82   63.79
   1  -5  -1  779.02   64.89
  -1  -5   1  908.21   67.79
   1   5   1  797.82   57.09
   1   5   1  819.82   64.39
  -1  -5   1  830.32   56.69
   2  -5   1  358.26   39.40
   2   5  -1  378.96   37.10
   2  -5   1  424.76   41.70
   2   5   1  419.76   32.70
  -2  -5   1  417.76   42.10
  -2  -5   1  425.46   29.10
   2   5   1  441.56   40.50
   3  -5   1  265.07   34.70
   3   5  -1  270.67   26.60
  -3  -5  -1  314.67   34.90
  -3  -5   1  367.26   37.10
   3   5   1  274.27   24.10
  -4  -5  -1  345.57   36.90
   4  -5   1  361.46   40.90
   4   5  -1  324.47   30.00
   4   5   1  305.37   25.40
  -4  -5   1  309.47   36.80
  -5  -5  -1  514.85   47.70
   5  -5   1  529.55   55.39
   5   5  -1  509.35   43.30
  -5  -5   1  506.65   49.90
   5   5   1  461.65   36.90
  -6  -5  -1  127.09   24.70
   6  -5   1  126.39   29.70
   6   5   1  124.29   19.30
  -6  -5   1   78.99   22.20
  -7  -5  -1   92.69   23.70
  -7  -5   1  158.58   30.50
  -8  -5  -1  132.19   30.60
  -8   5   1  195.28   38.40
  -8   5  -1  140.79   31.50
  -8  -5   1  162.58   31.90
  -9   5   1  205.08   38.00
  -9   5  -1  235.18   39.80
  -9  -5   1  222.38   40.90
 -10   5   1    4.50   21.00
   0  -6   1   -5.80    3.40
   0  -6  -1   -0.20    5.20
   0  -6   1   -3.90    3.10
  -1  -6  -1  490.15   48.10
   1  -6   1  391.86   41.00
   1  -6   1  431.86   46.90
  -1  -6   1  436.56   47.20
  -1  -6   1  440.66   36.80
   1   6   1  495.25   40.80
   1  -6  -1  434.46   46.60
  -2  -6  -1    8.80    9.90
   2  -6   1   14.70    9.70
   2  -6   1    1.40    4.50
  -2  -6   1   17.60   10.20
   2   6   1    5.30    5.10
  -3  -6  -1  303.47   37.30
   3  -6   1  276.57   36.90
  -3  -6   1  281.67   36.90
   3   6   1  303.57   27.60
  -4  -6  -1  520.55   52.19
   4  -6   1  401.76   51.39
   4   6   1  548.65   39.90
  -4  -6   1  538.25   54.19
  -5  -6  -1    4.20    8.90
   5  -6   1   -5.20    9.00
   5   6   1   15.70    8.40
  -5  -6   1   39.00   14.40
  -6  -6  -1  527.45   53.39
   6  -6   1  495.25   58.09
  -6  -6   1  497.75   53.79
  -7  -6  -1  293.57   38.00
  -7  -6   1  250.27   50.89
  -8  -6  -1  -23.50   17.00
  -8   6   1   -1.50   13.80
  -8  -6   1  -21.00   16.20
  -9   6   1   45.30   25.40
  -9   6  -1   52.29   23.40
   0  -7   1   20.60   10.70
   0  -7  -1   19.70   12.30
   0  -7   1   21.10    9.90
   1  -7   1  103.89   25.30
  -1  -7  -1  122.29   29.50
   1  -7   1  144.79   27.20
  -1  -7   1  129.69   30.50
   1  -7  -1  137.19   31.80
   2  -7   1  412.06   48.40
  -2  -7  -1  445.96   48.90
   2  -7   1  416.56   46.30
  -2  -7   1  421.76   50.09
   3  -7   1  193.38   37.80
  -3  -7  -1  181.08   36.00
  -3  -7   1  164.68   34.60
   4  -7   1  410.96   51.09
  -4  -7  -1  473.45   50.69
  -4  -7   1  428.06   50.59
  -5  -7  -1  106.89   28.60
   5  -7   1  100.19   26.90
  -5  -7   1   91.19   33.80
  -6  -7  -1  228.58   42.00
  -7  -7  -1    0.40   18.20
  -7  -7   1    6.70   14.60
  -8  -7  -1  105.89   47.30
  -8  -7   1   68.59   29.40
   0  -8  -1    6.30   10.80
   0  -8   1    4.00    7.00
   1  -8   1  255.27   33.50
   1  -8   1  212.18   42.00
  -1  -8  -1  166.68   54.39
  -1  -8   1  288.07   40.70
   2  -8   1   62.29   20.60
   2  -8   1   35.80   15.00
  -2  -8   1   10.70   13.00
   3  -8   1  125.59   27.30
  -3  -8  -1  159.08   36.20
  -3  -8   1   87.29   24.80
  -4  -8  -1  345.47   48.30
  -4  -8   1  527.05   57.19
  -5  -8  -1   36.60   20.30
  -5  -8   1    5.30   15.40
  -6  -8  -1  316.17   47.70
  -7  -8  -1  149.79   38.70
  -7  -8   1  146.29   36.90
  -8  -8   1  -19.30   23.90
   0  -9  -1   80.99   25.90
   0  -9   1   64.89   24.00
  -1  -9  -1  361.16   48.00
   1  -9   1  334.27   49.00
  -1  -9   1  288.27   54.39
  -2  -9  -1   74.69   29.50
  -2  -9   1   93.99   28.30
  -3  -9  -1  131.39   31.50
  -3  -9   1  110.49   31.30
  -4  -9  -1   78.59   28.00
  -4  -9   1   59.49   22.00
  -5  -9  -1  246.18   47.10
  -5  -9   1  198.48   46.10
  -6  -9  -1    5.70   23.80
  -6  -9   1   39.50   27.30
  -7  -9  -1   -3.80   24.50
  -7  -9   1   -4.80   24.20
   0 -10   1   -8.60   13.50
   1 -10   1  125.79   40.00
  -1 -10  -1  234.18   47.20
  -1 -10   1  135.09   36.60
  -2 -10  -1    6.00   15.20
  -2 -10   1   10.70   16.70
  -3 -10  -1  285.67   53.39
  -3 -10   1  232.58   70.09
  -4 -10   1  102.49   32.10
  -5 -10  -1   28.60   22.80
  -5 -10   1  -28.90   19.40
  -6 -10  -1  154.58   41.00
  -2 -11  -1   87.49   38.80
   0   0  -2  198.18   13.10
   0   0  -2  191.98   13.70
   0   0   2  155.08   13.00
   0   0   2  162.18   12.70
  -1   0   2   26.60    6.10
   1   0   2   45.30    4.90
  -1   0   2   45.20    7.70
   1   0  -2   54.59    6.90
  -1   0  -2   41.30    4.40
   2   0  -2 1992.80  110.29
   2   0   2 1829.52  105.99
  -2   0   2 1872.61  111.89
  -2   0   2 2095.49  110.49
  -2   0  -2 2165.18  104.19
  -3   0  -2  174.68   13.30
   3   0  -2  201.08   18.70
  -3   0   2  170.38   17.20
  -3   0  -2  157.38   12.60
  -3   0   2  169.98   19.70
  -3   0   2  186.58   18.80
   3   0   2  182.58   16.60
  -3   0  -2  173.98   12.90
  -4   0  -2  832.62   44.60
  -4   0  -2  737.83   47.40
   4   0   2  626.14   49.90
  -4   0   2  826.92   54.19
  -4   0   2  771.32   52.19
  -4   0   2  821.12   57.19
  -5   0   2  724.63   51.09
  -5   0   2  689.23   54.79
   5   0   2  792.02   54.29
  -5   0  -2  687.13   46.20
  -5   0   2  668.13   51.29
  -6   0  -2  607.04   42.20
  -6   0   2  577.84   49.99
  -6   0   2  542.95   43.70
   6   0   2  512.15   46.70
  -7   0   2   57.99   14.70
  -7   0  -2   79.39   15.50
  -7   0   2   35.60   13.80
  -7   0   2   88.49   21.90
  -8   0   2  133.89   28.40
  -8   0  -2  142.19   22.40
  -8   0   2  140.99   22.80
  -9   0   2   -7.30   13.80
 -10   0   2  -16.20   21.10
   0  -1   2   -0.50    1.10
   0   1  -2   -0.20    1.50
   0   1  -2    0.20    1.20
   1  -1   2    0.30    1.50
   1   1  -2   10.60    4.30
   1  -1   2    2.00    1.90
   1   1  -2    2.60    2.10
  -1   1  -2    1.00    1.30
  -1  -1   2   -2.30    1.20
  -1  -1   2    0.50    2.20
  -1   1  -2    1.10    1.60
   1   1   2    0.10    1.40
  -2   1   2  644.24   42.50
  -2  -1  -2  602.54   35.30
   2   1  -2  651.33   43.80
   2   1  -2  580.64   40.10
   2  -1   2  653.63   41.30
  -2  -1   2  625.84   39.70
  -2   1  -2  647.04   40.50
  -2   1  -2  652.83   38.70
   2   1   2  615.44   35.20
  -2  -1   2  570.04   42.50
  -3  -1  -2 1699.83   90.69
  -3   1   2 1823.52  100.79
   3   1  -2 1672.73  100.79
  -3   1   2 1537.75   99.29
   3  -1   2 1870.01  100.49
   3   1  -2 1563.24   96.29
   3   1   2 1745.03   90.09
  -3   1  -2 1677.03   93.99
  -3   1  -2 1752.92   96.39
   3   1   2 1615.04   89.49
  -3  -1   2 1456.25   98.79
  -3  -1   2 1773.42   95.69
   3   1   2 1699.03   90.79
  -4   1   2 2109.19  124.99
   4  -1   2 2047.70  125.59
  -4  -1  -2 2249.77  123.69
   4   1  -2 2222.28  123.39
  -4   1   2 2033.60  126.19
   4   1   2 2170.88  118.49
  -4  -1   2 2025.40  118.79
  -4   1  -2 2160.28  120.49
  -4   1  -2 2293.27  119.49
  -4  -1   2 2341.67  121.49
  -4  -1   2 1756.82  123.59
   5   1  -2   -3.60    4.20
   5  -1   2    1.30    3.70
  -5   1   2    2.20    3.90
  -5   1   2   -3.70    5.30
  -5  -1  -2   -2.50    2.80
  -5   1   2    1.20    6.40
   5   1   2    4.40    4.30
  -5   1  -2    4.70    3.70
  -5   1  -2    7.60    4.70
  -5   1  -2    1.10    4.70
  -5  -1   2   -9.90    3.90
  -5  -1   2    6.20    5.90
  -5  -1   2   -5.90    3.20
  -6   1   2  762.62   56.69
  -6  -1  -2  735.13   50.19
   6  -1   2  709.73   59.19
  -6   1   2  765.92   61.89
  -6  -1   2  857.51   51.59
  -6   1  -2  756.52   51.69
   6   1   2  763.42   55.59
  -6  -1   2  706.43   50.49
  -6   1  -2  688.43   51.79
  -6   1  -2  745.63   53.29
  -6   1  -2  722.43   50.09
  -6  -1   2  696.03   59.39
  -7   1   2  382.16   41.50
  -7   1   2  398.16   37.40
  -7  -1  -2  340.87   30.10
   7  -1   2  357.36   39.20
  -7   1  -2  290.37   27.80
  -7   1  -2  265.07   30.00
  -7  -1   2  354.76   28.90
  -7   1  -2  322.47   28.00
  -7  -1   2  373.56   28.30
  -7  -1   2  350.86   39.80
  -7   1  -2  335.07   32.50
  -8  -1  -2   46.40   11.50
  -8   1   2   47.80   13.40
  -8   1   2   42.20   16.40
  -8  -1   2   44.00   18.00
  -8   1  -2   21.60   10.40
  -9   1   2   -0.10   12.10
  -9   1   2   20.60   14.50
  -9  -1   2   16.00   13.60
  -9   1  -2   13.80   15.30
 -10   1   2   -3.70   21.10
 -10  -1   2   11.00   21.90
   0  -2   2  214.08   18.80
   0  -2   2  235.28   21.10
   0   2  -2  230.98   19.50
   0   2   2  221.78   19.80
   0   2  -2  207.48   20.10
  -1  -2  -2 2012.20  111.79
   1  -2   2 1912.01  113.09
   1   2  -2 2109.59  116.19
   1   2  -2 1992.90  111.59
  -1   2  -2 1922.81  113.09
  -1  -2   2 2126.09  111.49
  -1   2  -2 2130.99  114.39
   1   2   2 1999.70  111.59
  -2  -2  -2 1619.54   89.79
  -2   2   2 1508.05   94.59
   2   2  -2 1602.84   90.69
   2   2  -2 1794.12   97.19
   2  -2   2 1655.93   92.79
  -2   2  -2 1510.35   91.79
  -2   2  -2 1638.44   94.29
   2   2   2 1570.84   88.99
  -2  -2   2 1463.95   88.09
  -2  -2   2 1573.14   95.89
  -3   2   2   41.20   11.20
   3   2  -2   44.50   11.00
   3   2  -2   70.79   12.00
  -3  -2  -2   50.49    9.40
   3  -2   2   40.90   10.30
  -3  -2   2   44.70    8.10
   3   2   2   50.89    9.30
  -3  -2   2   50.59   12.20
  -3   2  -2   48.60   10.80
  -3   2  -2   42.90   10.90
  -4   2   2 1026.20   68.99
  -4   2   2 1117.29   72.99
  -4  -2  -2  972.20   60.39
   4   2  -2  932.31   62.99
   4  -2   2 1035.90   71.19
   4   2  -2  980.30   77.19
   4   2   2 1009.10   60.19
   4   2   2  835.02   54.49
  -4   2  -2  904.11   63.19
  -4   2  -2 1161.98   68.79
  -4  -2   2  965.20   58.59
  -4  -2   2  971.40   68.59
   4   2   2  982.20   56.79
  -4  -2   2  947.01   57.59
   5  -2   2 2084.79  123.39
  -5  -2  -2 1887.71  107.49
   5   2  -2 1796.62  117.59
   5   2  -2 1859.11  112.29
  -5   2   2 1830.72  116.59
  -5  -2   2 2013.10  119.49
  -5  -2   2 1764.92  101.79
   5   2   2 1878.41  104.89
   5   2   2 1818.22  105.99
  -5   2  -2 1835.32  113.79
  -5   2  -2 1810.12  111.49
  -5  -2   2 1876.41  103.99
   6  -2   2  464.55   47.50
  -6   2   2  516.85   47.00
  -6  -2  -2  533.65   40.00
  -6   2  -2  496.65   43.90
  -6   2  -2  601.24   45.90
  -6  -2   2  507.75   47.50
  -7   2   2    7.70    8.10
  -7  -2  -2   -9.80    5.90
  -7   2   2    7.60    8.60
   7  -2   2   10.20    7.60
  -7   2  -2  -13.40    7.60
  -7   2  -2  -11.40    5.80
  -7   2  -2  -11.00    5.80
  -7   2  -2   -8.70    9.00
  -8   2   2  147.59   32.00
  -8   2   2  162.88   28.80
  -8  -2  -2  131.99   22.70
  -8  -2   2  194.98   33.60
  -8   2  -2  147.09   21.10
  -8   2  -2  139.09   25.70
  -9   2   2   47.10   17.40
  -9   2  -2   60.29   19.50
  -9  -2   2   47.40   19.90
 -10   2   2  -17.10   18.20
   0   3   2    2.60    2.60
   0   3   2    2.00    2.70
   0   3  -2    1.50    3.00
   0  -3  -2    1.40    2.90
   0  -3   2   -0.60    2.90
   0  -3   2    8.10    4.30
  -1   3   2   46.30    9.50
   1  -3   2   30.10    8.80
   1  -3   2   66.39   14.30
   1   3  -2   54.19   12.30
  -1   3   2   37.20   11.20
  -1  -3  -2   29.00    8.60
   1   3  -2   48.20    9.80
  -1   3  -2   54.99   12.40
  -1  -3   2   36.70    9.90
  -1   3  -2   48.10   11.30
  -1  -3   2   50.19    9.50
   1   3   2   39.80    9.50
   2   3  -2   45.30    9.60
  -2   3   2   38.40   11.80
   2  -3   2   36.90   10.80
   2  -3   2   39.70   10.70
   2   3  -2   18.70    7.30
  -2  -3  -2   29.00    8.20
  -2   3   2   34.60    9.60
  -2  -3   2   42.60   12.40
   2   3   2   38.50    9.30
  -2   3  -2   29.30    9.10
  -2  -3   2   29.20    6.90
  -2   3  -2   30.90    9.20
  -3   3   2 1900.61  128.99
  -3  -3  -2 2217.98  123.49
   3   3  -2 2303.17  131.99
   3   3  -2 1842.12  119.69
   3   3   2 2255.87  122.99
  -3   3  -2 2351.86  129.89
  -3   3  -2 1989.10  125.79
  -3  -3   2 2187.68  115.89
  -3  -3   2 2223.28  130.19
  -4  -3  -2  993.40   65.39
   4   3  -2 1013.40   65.39
   4  -3   2  982.30   74.79
   4   3  -2  933.61   69.99
  -4   3  -2 1078.79   70.69
   4   3   2 1056.39   65.09
  -4   3  -2  875.61   68.79
  -4  -3   2 1010.10   72.39
  -5  -3  -2   11.00    7.90
   5   3  -2   11.70    7.10
   5  -3   2   13.90    8.00
  -5  -3   2   24.80   11.30
   5   3   2   22.50    8.20
  -5   3  -2   23.00   11.00
   5   3   2   34.40    7.20
  -6   3   2  589.84   54.39
   6  -3   2  653.93   59.29
  -6  -3  -2  591.74   47.00
   6   3   2  634.34   43.70
  -6  -3   2  609.64   55.09
  -6   3  -2  676.73   54.29
   7  -3   2  546.35   78.29
  -7  -3  -2  426.66   38.50
  -7   3   2  508.95   48.40
  -7   3  -2  384.66   41.00
  -7  -3   2  463.65   47.90
  -8  -3  -2    0.00    8.80
  -8   3   2   18.70   11.90
  -8   3   2   19.20   12.20
  -8   3  -2    6.70    8.20
  -8  -3   2    7.40   11.60
  -8   3  -2    4.30   10.20
  -9   3   2   -1.70   14.40
  -9   3   2  -21.00   11.40
  -9   3  -2   19.00   15.70
  -9   3  -2   -1.00   14.60
  -9  -3   2   -3.60   15.40
 -10   3   2  -16.90   22.00
   0   4   2   34.10    8.70
   0  -4   2   42.50   12.20
   0  -4   2   49.30   11.80
   0   4  -2   25.90    9.00
   0   4  -2   55.69   13.00
   0  -4  -2   54.79   14.40
   1  -4   2  672.73   52.49
  -1   4   2  722.43   54.79
  -1   4   2  731.33   58.99
   1   4  -2  640.04   52.99
   1   4  -2  626.64   48.20
   1  -4   2  656.43   52.99
  -1  -4  -2  750.62   53.99
  -1  -4   2  746.33   55.59
   1   4   2  709.53   46.00
  -1  -4   2  704.63   48.20
  -1   4  -2  645.94   50.99
   1   4   2  656.43   51.49
  -1   4  -2  662.33   52.49
   2  -4   2  579.34   51.49
   2  -4   2  728.73   53.89
  -2  -4  -2  590.64   49.10
   2   4  -2  613.34   52.09
  -2   4   2  651.93   53.69
  -2   4   2  609.84   51.49
   2   4  -2  648.24   46.00
   2   4   2  636.24   41.10
  -2  -4   2  658.63   43.80
  -2   4  -2  818.42   55.59
  -2   4  -2  614.64   51.29
   2   4   2  641.04   49.30
  -2  -4   2  736.03   55.39
   3   4  -2   39.40   10.00
   3   4  -2   42.70   12.80
   3  -4   2   35.80   13.10
  -3  -4  -2   52.59   13.60
  -3   4  -2   48.80   12.40
   3   4   2   54.49   12.90
  -3  -4   2   44.70   14.70
  -3  -4   2   42.00    7.90
  -4  -4  -2  374.46   35.90
   4  -4   2  399.96   43.40
   4   4  -2  372.16   32.80
   4   4   2  424.66   36.60
  -4  -4   2  434.36   41.70
  -4   4  -2  359.76   38.60
  -5  -4  -2 1183.58   77.79
   5  -4   2 1069.39   86.19
  -5  -4   2 1110.69   82.99
   5   4   2 1057.99   74.59
   5   4   2 1148.59   65.89
  -6  -4  -2  163.08   24.20
   6  -4   2  247.58   42.00
  -6  -4   2  173.08   32.50
   6   4   2  203.78   19.70
   6   4   2  193.88   24.20
   7  -4   2   22.30   11.60
  -7  -4  -2   -8.60    9.00
  -7   4   2   -3.40    7.60
   7   4   2   -4.30    7.10
  -7  -4   2  -11.60    9.70
  -8   4   2  152.38   31.30
  -8   4  -2  175.88   35.50
  -8  -4   2  139.79   31.40
  -9   4   2   -8.80   15.20
  -9   4   2   64.49   22.60
  -9   4  -2   42.80   19.80
  -9  -4   2   13.90   18.00
  -9   4  -2  -15.10   16.20
 -10   4   2    0.60   25.20
 -10   4   2   18.80   21.10
   0  -5  -2   -4.20    3.80
   0  -5   2    6.70    5.70
   0  -5   2    0.00    4.40
   0   5   2    5.50    4.80
   0   5  -2    2.30    4.10
  -1  -5  -2   19.20   12.50
   1   5  -2   46.40   11.50
   1  -5   2   50.59   24.00
  -1   5   2   54.69   14.10
   1  -5   2   48.50   14.40
  -1  -5   2   58.59   16.90
   1   5   2   40.50   10.00
  -1  -5   2   42.60   11.20
   1   5   2   49.99   14.80
   2  -5   2  216.68   29.10
  -2  -5  -2  204.08   26.20
   2   5  -2  203.78   23.20
   2  -5   2  202.38   27.40
   2   5   2  205.18   26.00
  -2  -5   2  221.58   21.50
   2   5   2  207.68   20.40
  -2  -5   2  210.78   29.10
  -3  -5  -2 1556.24  100.99
   3  -5   2 1448.36  104.49
   3   5  -2 1508.85   92.89
   3   5   2 1414.86   84.49
  -3  -5   2 1492.25  103.19
   3   5   2 1431.76   96.79
  -4  -5  -2  942.11   83.49
   4   5  -2  980.50   91.09
   4  -5   2  931.31   78.49
   4   5   2  800.32   81.99
   4   5   2  950.30   57.49
  -4  -5   2 1046.30   77.79
  -5  -5  -2    5.20    8.90
   5  -5   2   19.30    9.70
   5   5   2   11.10    5.40
  -5  -5   2    8.20    8.30
  -6  -5  -2  474.85   46.70
   6  -5   2  499.95   55.09
   6   5   2  500.95   38.00
  -6  -5   2  534.05   53.29
  -7   5   2  339.47   42.90
  -7  -5  -2  341.47   38.60
   7  -5   2  375.36   48.00
  -7  -5   2  319.07   42.10
  -8   5   2    7.90   13.60
  -8  -5  -2   15.70   13.90
  -8   5  -2   23.90   15.50
  -8  -5   2   42.80   18.10
  -9  -5   2   -9.80   21.20
  -9   5  -2   32.50   16.80
 -10   5   2  -43.70   27.50
 -10   5   2   18.70   24.50
   0  -6   2  119.29   26.50
   0  -6   2  109.49   21.80
   0  -6  -2  124.59   26.20
  -1  -6  -2  297.37   35.90
   1  -6   2  277.27   33.60
   1  -6   2  304.37   36.90
  -1  -6   2  305.57   37.90
  -1  -6   2  285.87   30.30
   1   6   2  334.07   31.70
   2  -6   2  600.54   56.99
  -2  -6  -2  657.83   58.49
   2  -6   2  713.63   60.89
  -2  -6   2  575.64   44.70
   2   6   2  630.74   47.30
  -2  -6   2  643.14   59.69
   3  -6   2   18.70    9.20
  -3  -6  -2   11.50   10.50
  -3  -6   2   18.40   10.00
   3   6   2    9.60    6.20
   4  -6   2  489.25   52.69
  -4  -6  -2  495.45   48.80
   4   6   2  465.35   36.10
  -4  -6   2  478.65   51.19
   5  -6   2  720.73   68.99
  -5  -6  -2  651.03   59.29
   5   6   2  642.64   47.30
  -5  -6   2  599.64   61.09
  -6  -6  -2  352.26   40.90
   6  -6   2  404.46   49.30
  -6  -6   2  293.27   40.30
   6   6   2  299.07   28.50
  -7  -6  -2   12.90   15.80
   7  -6   2    6.60   12.50
  -7  -6   2   -0.90   13.10
  -8   6   2   42.30   20.20
  -8  -6  -2   54.99   30.50
  -8  -6   2   97.19   27.50
  -9   6   2   34.20   24.00
  -9  -6   2   37.00   30.20
  -9   6  -2   28.60   21.50
   0  -7   2    3.10    4.50
   0  -7   2    8.20    9.90
   0  -7  -2   -3.90    6.90
   1  -7   2   15.10    8.70
   1  -7   2   10.60    7.70
  -1  -7  -2    9.70   10.20
  -1  -7   2   24.10   13.70
  -1  -7   2   -1.80    6.90
  -2  -7  -2  101.79   26.30
   2  -7   2  148.89   30.80
   2  -7   2  126.79   30.40
  -2  -7   2   93.79   25.90
  -2  -7   2  109.59   14.90
  -3  -7  -2  306.37   40.00
   3  -7   2  347.37   42.50
  -3  -7   2  254.97   39.30
   4  -7   2  590.44   63.89
  -4  -7  -2  616.24   61.49
   4   7   2  615.74   48.00
  -4  -7   2  729.53   66.99
  -5  -7  -2   -7.50   11.00
   5  -7   2    6.90   12.20
  -5  -7   2    8.80   13.80
   6  -7   2  262.07   49.60
  -6  -7  -2  249.97   38.00
  -6  -7   2  283.17   49.99
  -7  -7  -2  121.79   27.90
  -7  -7   2  121.19   32.00
  -8  -7   2   36.70   21.70
   0  -8   2   80.89   23.70
   0  -8   2   30.30   14.30
   1  -8   2   97.69   27.50
   1  -8   2  137.49   27.30
  -1  -8   2  100.09   29.30
  -1  -8   2  123.39   21.50
   2  -8   2  316.57   43.30
   2  -8   2  373.56   44.40
  -2  -8   2  274.17   49.60
   3  -8   2   16.10   13.10
  -3  -8  -2   16.30   17.60
  -3  -8   2    7.50   11.60
  -4  -8  -2  198.58   41.00
   4  -8   2  307.87   42.60
  -4  -8   2  200.68   39.80
   5  -8   2  326.47   46.20
  -5  -8  -2  352.06   47.60
  -5  -8   2  355.76   48.40
  -6  -8  -2  123.79   31.80
  -6  -8   2  148.89   35.40
  -7  -8  -2    6.50   21.90
  -7  -8   2    3.30   21.70
  -8  -8   2   16.10   27.70
   0  -9   2  -13.30    9.30
   1  -9   2   22.30   12.10
  -1  -9  -2   -3.60   11.50
   1  -9   2    6.10   15.00
  -1  -9   2   41.20   20.20
   2  -9   2   93.19   28.10
   2  -9   2  113.29   26.30
  -2  -9  -2   86.69   26.40
  -2  -9   2   64.69   23.60
   3  -9   2  514.05   59.59
  -3  -9  -2  534.65   63.49
  -3  -9   2  656.83   70.49
   4  -9   2  317.57   55.39
  -4  -9  -2  387.36   53.19
  -4  -9   2  329.07   57.99
  -5  -9  -2    5.90   16.10
  -5  -9   2   12.90   15.90
  -6  -9  -2  149.69   40.10
  -6  -9   2  128.69   35.80
  -7  -9   2  183.08   46.70
   0 -10   2    5.70   14.10
   1 -10   2  279.47   64.39
  -1 -10   2  172.48   44.60
  -2 -10  -2  164.18   39.80
  -3 -10  -2   -5.50   16.70
  -3 -10   2   27.80   17.40
  -4 -10  -2   76.69   34.50
  -4 -10   2   93.89   31.40
  -5 -10  -2  308.27   57.69
  -5 -10   2  259.97   54.09
  -6 -10  -2   59.29   33.60
   0   0   3    0.00    1.50
   0   0  -3   -1.70    1.20
   0   0  -3   -1.30    0.90
   1   0  -3   32.50    6.80
  -1   0  -3   44.60    5.50
  -1   0  -3   53.79    5.50
   1   0   3   53.79    6.40
   1   0   3   49.20    5.50
  -1   0   3   42.20    8.40
  -1   0   3   36.20    8.10
   2   0   3 4085.29  207.28
   2   0  -3 3742.63  212.28
  -2   0   3 4015.80  212.78
  -2   0  -3 4016.10  204.28
  -2   0   3 4054.79  216.38
   3   0   3 1648.94   96.19
   3   0  -3 1683.93  101.69
  -3   0   3 1884.91  106.89
  -3   0   3 1730.33  101.39
   4   0  -3   49.90   12.20
  -4   0   3   61.89   13.50
  -4   0   3   45.30   11.20
  -4   0   3   23.20    8.90
   4   0   3   61.49   12.20
   5   0   3   12.90    6.10
  -5   0   3    8.40    6.50
  -5   0   3   22.20    8.30
   6   0   3   37.80   12.50
  -6   0   3   31.20   11.00
  -6   0   3   61.89   17.10
  -6   0   3   49.70   14.50
  -7   0   3  457.75   47.00
  -7   0   3  387.36   41.20
  -7   0   3  423.16   38.10
   7   0   3  432.86   42.80
  -8   0   3  915.41   64.79
  -8   0   3  801.82   73.69
  -9   0   3   28.20   17.40
  -9   0   3   41.40   16.00
 -10   0   3    3.60   22.60
   0   1  -3 4823.92  273.07
   0  -1   3 5510.45  274.17
   0   1  -3 5375.76  273.07
   1   1  -3   47.80    9.10
   1  -1   3   24.90    6.30
   1   1  -3   40.10    9.10
  -1   1   3   23.50    6.10
   1  -1   3   47.10    6.70
  -1  -1   3   44.50    9.10
  -1  -1   3   38.80    9.30
  -1   1  -3   42.50    7.90
  -1   1  -3   36.10    7.50
  -2   1   3   56.29   10.80
   2   1  -3   39.00   10.30
   2  -1   3   63.49   11.10
   2   1  -3   47.70   10.20
   2  -1   3   54.19    7.10
  -2  -1   3   44.40    9.70
  -2   1  -3   65.79    7.80
  -2   1  -3   56.29    8.20
  -2  -1   3   44.30   11.00
   3   1  -3  169.18   18.20
   3   1  -3  183.18   20.80
   3  -1   3  129.49   16.70
  -3   1   3  133.59   17.60
  -3  -1   3  148.29   19.60
  -3  -1   3  207.98   19.00
  -3   1  -3  174.68   15.00
   3   1   3  150.88   11.90
  -4   1   3  919.81   61.89
  -4   1   3  878.21   62.09
   4  -1   3  875.91   59.79
   4   1  -3  817.82   58.19
  -4  -1   3  827.82   61.99
  -4   1  -3  888.21   52.89
  -4  -1   3  890.21   56.79
   4   1   3  835.32   51.69
  -4   1  -3  745.93   52.79
   5  -1   3  929.41   66.89
  -5   1   3  846.52   68.89
  -5   1   3  972.00   67.29
  -5   1   3  797.52   65.79
  -5   1  -3  934.61   57.79
  -5  -1   3  924.31   62.39
   5   1   3  953.50   60.39
  -5   1  -3 1021.10   58.99
  -5  -1   3  708.33   89.79
  -5  -1   3  926.71   61.19
  -5   1  -3  902.01   57.99
  -6   1   3  503.15   49.99
   6  -1   3  550.14   48.70
  -6   1   3  518.15   45.40
  -6  -1   3  531.05   40.70
  -6  -1   3  496.35   41.00
  -6   1  -3  558.54   37.20
  -6   1  -3  554.44   40.00
  -6  -1   3  506.35   48.50
  -6   1  -3  415.16   35.00
   6   1   3  473.35   41.30
  -6   1  -3  556.34   39.40
  -7   1   3  150.38   31.30
   7  -1   3  170.68   30.60
  -7   1   3  127.39   23.80
  -7   1  -3  134.09   19.50
  -7   1  -3  151.78   18.80
   7   1   3  152.28   25.30
  -7  -1   3  166.68   21.40
  -7  -1   3  144.89   19.50
  -7  -1   3  151.38   29.00
   8  -1   3    7.80   10.40
  -8   1   3    1.00    9.70
  -8   1  -3   -8.20    7.50
  -8  -1   3   -1.50    7.10
  -8  -1   3   -9.90    9.50
  -9   1   3   16.30   14.10
  -9   1   3  -17.20   11.50
  -9  -1   3  -32.60   17.60
 -10   1   3  554.64   68.99
 -10  -1   3  679.03   71.49
   0  -2   3    6.80    3.40
   0   2  -3    1.40    2.50
   0   2  -3    3.10    3.20
   0  -2   3   -1.70    1.40
   1  -2   3  516.05   37.00
   1   2  -3  486.25   36.00
   1   2  -3  540.95   39.90
   1  -2   3  499.85   36.80
  -1  -2   3  448.56   37.80
   1   2   3  495.35   34.80
  -1   2  -3  541.25   37.30
  -1   2  -3  553.44   37.60
  -1  -2   3  502.35   35.30
   2  -2   3 2530.65  144.59
   2  -2   3 2757.32  148.79
  -2  -2  -3 2880.31  142.69
   2   2  -3 2458.15  149.59
   2   2  -3 2787.12  146.69
  -2  -2   3 2422.56  149.79
   2   2   3 2638.54  141.19
  -2  -2   3 2674.73  144.59
  -2   2  -3 2551.94  145.09
   3   2  -3  478.35   36.20
   3   2  -3  425.46   38.20
   3  -2   3  461.15   38.40
  -3   2   3  445.66   39.10
   3   2   3  405.86   31.20
  -3   2  -3  494.25   37.30
  -3  -2   3  467.15   40.10
  -3   2  -3  461.85   34.60
  -3  -2   3  439.46   33.20
  -4   2   3    7.40    5.80
   4   2  -3    4.60    4.70
  -4   2   3    8.60    7.50
   4   2  -3    1.80    4.70
  -4  -2  -3   10.20    3.50
   4  -2   3    4.10    3.60
   4   2   3    3.70    2.80
  -4   2  -3    5.00    5.50
  -4   2  -3    4.60    5.10
  -4  -2   3   -2.10    5.80
  -4  -2   3    3.40    3.50
  -5  -2  -3    6.60    4.00
  -5   2   3   16.30    7.70
   5  -2   3   13.20    6.80
  -5   2  -3    9.20   12.20
   5   2   3    9.10    4.50
  -5   2  -3   17.60    7.00
  -5  -2   3   19.30    8.00
  -5  -2   3   13.30    5.70
  -5  -2   3   13.80    9.80
   6  -2   3   39.70   14.90
  -6   2   3   45.30   14.50
  -6   2  -3   19.70    8.70
  -6  -2   3   46.80   10.40
   6   2   3   46.60   11.30
  -6  -2   3   44.70    9.20
  -6  -2   3   32.10   14.80
  -6   2  -3   75.59   16.20
  -6   2  -3   41.70   12.80
  -7   2   3  167.48   29.40
   7  -2   3  150.68   29.50
  -7   2   3  112.39   27.60
  -7   2  -3  130.79   28.50
  -7   2  -3  145.89   21.00
  -7   2  -3  110.79   20.20
  -7  -2   3  130.19   28.00
  -8   2   3  744.23   70.69
   8  -2   3  788.72   70.39
  -8   2   3  741.83   62.89
  -8   2  -3  668.93   50.89
  -8  -2   3  688.43   66.39
  -8   2  -3  707.13   55.49
  -9   2   3   62.99   25.20
  -9   2   3   67.89   25.30
  -9  -2   3   97.19   25.80
 -10   2   3   -4.40   19.80
 -10  -2   3   -6.40   22.50
   0   3  -3 2508.15  132.99
   0  -3   3 2374.56  135.49
   0   3   3 2237.58  132.99
   0   3  -3 2318.97  135.09
   0  -3   3 2138.19  129.79
   1   3  -3  223.58   21.50
   1   3  -3  284.47   27.10
   1  -3   3  194.78   22.20
   1  -3   3  234.48   23.90
  -1   3   3  223.38   24.20
   1   3   3  237.18   23.10
  -1   3  -3  197.58   22.50
  -1  -3   3  195.58   20.30
  -1  -3   3  229.58   24.60
  -1   3  -3  201.98   22.60
   2  -3   3  228.98   24.40
  -2  -3  -3  166.38   18.60
   2   3  -3  183.88   19.80
  -2   3   3  176.08   20.90
   2  -3   3  170.48   20.30
  -2  -3   3  185.98   18.10
  -2  -3   3  163.38   21.50
   2   3   3  174.58   18.30
  -2   3  -3  163.48   28.10
  -2   3  -3  130.29   18.00
  -3   3   3  167.78   22.70
   3   3  -3  163.28   18.50
  -3  -3  -3  161.68   17.80
   3  -3   3  153.88   19.90
   3  -3   3  115.79   22.40
   3   3  -3  145.29   21.10
  -3   3  -3  187.58   22.00
   3   3   3  156.38   17.20
  -3  -3   3  161.88   22.30
  -3   3  -3  137.39   19.40
  -3  -3   3  142.19   15.70
  -4  -3  -3  447.76   34.60
   4  -3   3  497.95   44.40
   4   3  -3  478.65   38.00
  -4  -3   3  396.26   40.60
   4   3   3  405.26   33.00
  -4  -3   3  398.86   31.30
  -4   3  -3  482.45   41.20
  -4   3  -3  395.36   37.20
  -5   3   3  900.41   71.39
   5  -3   3  830.52   71.99
  -5  -3  -3  940.51   61.79
  -5  -3   3  949.90   57.29
  -5  -3   3  932.91   56.49
  -5   3  -3  885.01   67.69
  -5  -3   3  942.01   73.19
   5   3   3 1054.29   61.79
   6  -3   3  194.78   36.60
  -6  -3  -3  181.68   20.40
  -6   3   3  195.18   27.80
  -6   3  -3  170.28   28.50
   6   3   3  184.38   18.40
  -6  -3   3  160.28   30.70
  -7  -3  -3   72.99   14.20
  -7   3   3   67.69   20.70
  -7  -3   3  108.49   24.70
  -7   3  -3   72.39   16.00
  -8   3   3   -1.10   11.30
  -8   3   3  -15.10   10.40
   8  -3   3    1.90    8.70
  -8   3  -3    4.10   11.20
  -8  -3   3   21.20   13.60
  -9   3   3   10.70   14.80
  -9   3   3   32.70   17.80
  -9  -3   3    3.10   15.40
  -9   3  -3  -10.70   18.90
 -10   3   3  268.37   48.20
 -10   3   3  446.86   60.79
   0  -4   3    9.80    6.00
   0   4  -3   10.70    6.40
   0   4   3    1.20    2.80
   0   4  -3   16.10    6.10
   0  -4   3    4.50    3.00
   0   4   3    4.40    3.60
  -1   4   3   46.10   11.10
   1   4  -3   40.00   10.30
  -1  -4  -3   68.99   15.70
  -1   4   3   35.00   11.70
   1  -4   3   29.10   10.20
   1   4  -3   47.50   13.20
   1  -4   3   75.69   17.10
   1   4   3   54.39   14.30
  -1  -4   3   54.09   11.90
  -1   4  -3   34.90   11.10
  -1   4  -3   26.80   10.50
  -1  -4   3   34.40   11.70
   1   4   3   32.00    7.50
  -2   4   3 1316.77   84.59
   2   4  -3 1193.08   78.69
   2   4  -3 1264.87   86.59
   2  -4   3 1190.78   95.49
  -2  -4  -3 1210.78   80.99
   2  -4   3 1167.28   82.39
  -2   4  -3 1282.67   84.49
  -2  -4   3 1213.98   75.59
   2   4   3 1253.97   80.29
  -2   4  -3 1236.28   85.49
  -2  -4   3 1239.78   86.49
   3  -4   3 1119.59   81.69
   3  -4   3 1125.69   77.69
   3   4  -3 1145.99   73.59
  -3  -4  -3 1125.89   74.59
  -3   4  -3  965.10   75.79
  -3  -4   3 1056.49   66.89
  -3  -4   3 1203.58   82.19
   3   4   3 1090.19   72.29
   4  -4   3   16.80   11.20
   4   4  -3   15.50    8.50
  -4  -4  -3   22.20    8.80
  -4  -4   3   18.90    8.60
  -4   4  -3    8.00   10.10
   4   4   3    2.90    5.90
  -4  -4   3   14.30    5.00
  -5  -4  -3    6.00    5.10
   5  -4   3   -2.50    8.20
  -5  -4   3   -0.30    5.30
   5   4   3   -2.60    4.40
   6  -4   3   13.60   12.40
  -6   4   3   16.10   11.00
  -6  -4  -3   24.50   10.20
   6   4   3   36.10   10.60
   6   4   3   30.30    7.90
  -6  -4   3   12.10    9.80
  -7   4   3  284.67   37.40
   7  -4   3  253.57   45.40
  -7  -4  -3  197.48   26.50
   7   4   3  257.67   24.60
  -7  -4   3  262.47   38.00
   8  -4   3  516.45   59.79
  -8   4   3  449.66   51.49
  -8   4  -3  435.56   48.40
  -8  -4   3  474.85   54.09
  -9   4   3   23.50   17.60
  -9   4   3   12.50   17.30
  -9   4  -3   -1.80   19.30
  -9  -4   3   11.30   19.10
 -10   4   3   -7.10   22.70
 -10   4   3  -17.90   25.90
   0  -5   3 2239.68  138.59
   0  -5   3 2144.69  143.69
   0   5   3 2574.24  138.09
  -1   5   3   13.80   10.10
   1  -5   3   -3.00    5.80
  -1  -5  -3    2.50    9.80
   1  -5   3    1.30    4.40
  -1  -5   3    2.90    4.30
   1   5   3   -1.40    4.00
  -1  -5   3   10.20    8.60
   1   5   3   15.40    5.60
   2  -5   3   28.10   10.80
  -2  -5  -3   45.60   13.20
   2  -5   3   25.00   12.20
  -2  -5   3   30.50    9.20
  -2  -5   3   30.70   13.80
   2   5   3   44.50    9.60
   2   5   3   16.20    9.40
   3  -5   3  145.29   29.40
  -3  -5  -3   95.89   20.90
   3  -5   3  118.09   23.70
  -3  -5   3  114.89   14.70
   3   5   3   97.39   12.30
  -3  -5   3   97.29   23.80
   3   5   3  135.89   23.10
  -4  -5  -3  379.66   38.60
   4  -5   3  430.56   47.00
  -4  -5   3  353.06   41.90
   4   5   3  374.16   36.50
  -5  -5  -3  488.25   45.40
   5  -5   3  504.75   55.09
  -5  -5   3  458.85   49.70
   5   5   3  456.95   42.90
   6  -5   3  247.78   44.40
  -6  -5   3  257.37   37.60
  -7   5   3   54.09   21.00
  -7  -5  -3  132.89   30.70
   7  -5   3   58.69   22.80
  -7  -5   3   73.99   31.70
  -8   5   3    7.20   12.90
   8  -5   3   20.80   18.30
  -8  -5   3   -9.00   13.30
  -9   5   3  -11.80   14.40
  -9  -5   3   27.70   22.30
  -9   5  -3   26.90   18.50
 -10   5   3  255.37   68.09
   0  -6   3    2.50    5.90
   0  -6   3   -5.70    4.60
   1  -6   3  129.29   27.70
  -1  -6  -3  105.99   23.10
   1  -6   3   99.69   22.70
   1   6   3  121.39   17.10
  -1  -6   3  101.89   25.40
  -1  -6   3   98.69   20.70
  -2  -6  -3 1450.05  105.19
   2  -6   3 1586.74  110.39
   2  -6   3 1471.25  107.59
  -2  -6   3 1583.64   96.29
  -2  -6   3 1529.55  110.79
  -3  -6  -3  276.57   35.50
   3  -6   3  348.77   41.30
   3  -6   3  354.96   40.40
  -3  -6   3  284.87   26.20
   3   6   3  294.77   26.60
  -3  -6   3  325.07   39.80
  -4  -6  -3   25.00   14.10
   4  -6   3   29.80   13.60
  -4  -6   3   14.20   10.80
   4   6   3   29.10    7.20
   5  -6   3   -1.40    9.40
  -5  -6  -3    7.10    9.70
  -5  -6   3   25.50   15.00
   6  -6   3   52.09   19.00
  -6  -6  -3   13.90   13.20
  -6  -6   3   13.40   15.20
  -7  -6  -3  118.09   27.10
   7  -6   3  101.09   28.10
  -7   6   3   87.29   27.40
  -7  -6   3   75.99   23.80
  -8   6   3  492.85   61.99
  -8  -6   3  530.05   63.19
  -9  -6   3   38.40   28.70
  -9   6  -3   45.50   25.10
   0  -7   3 1675.93  114.29
   0  -7   3 1741.33  124.49
   1  -7   3   67.49   20.00
  -1  -7  -3   69.49   21.40
   1  -7   3   59.99   17.00
  -1  -7   3   58.09   17.40
  -1  -7   3   66.39   21.90
   2  -7   3    3.90    8.50
   2  -7   3  -12.80    5.50
  -2  -7   3    5.70    5.40
  -2  -7   3  -12.70    6.90
   3  -7   3   66.99   21.00
   3  -7   3   42.60   16.70
  -3  -7  -3   51.69   18.20
   3   7   3   53.59   12.40
  -3  -7   3   46.60   19.50
   4  -7   3  357.76   45.70
  -4  -7  -3  302.17   39.80
  -4  -7   3  298.17   41.70
   4   7   3  279.57   28.40
   5  -7   3  451.85   56.29
  -5  -7  -3  465.35   51.09
  -5  -7   3  554.14   60.09
   5   7   3  476.95   37.10
  -6  -7  -3  284.87   40.30
   6  -7   3  228.88   48.40
  -6  -7   3  313.97   46.20
  -7  -7  -3   74.09   23.40
   7  -7   3   49.30   22.40
  -7  -7   3   19.30   20.20
  -8  -7   3  -23.30   20.50
  -9  -7   3   -8.40   42.00
   0  -8   3   -2.10    7.50
   0  -8   3    6.20   10.20
   1  -8   3   49.70   20.30
   1  -8   3   67.99   21.20
  -1  -8   3   29.00   14.70
  -1  -8   3   29.50   12.80
  -2  -8  -3  701.73   89.99
   2  -8   3  747.63   81.19
   2  -8   3  816.52   77.39
  -2  -8   3  799.12   77.69
  -2  -8   3  766.92   56.79
   3  -8   3  188.88   37.10
   3  -8   3  195.98   37.40
  -3  -8  -3  203.08   51.39
  -3  -8   3  223.98   43.50
   4  -8   3   47.00   18.90
  -4  -8  -3   13.00   24.80
  -4  -8   3    0.70   14.50
   5  -8   3  -13.70    8.60
  -5  -8  -3  -24.60   10.10
  -5  -8   3    7.30   13.30
  -6  -8  -3    9.90   17.50
   6  -8   3   46.90   21.80
  -6  -8   3    9.90   18.40
  -7  -8  -3   97.69   33.60
  -8  -8   3  248.78   49.70
   0  -9   3  778.92   66.39
   0  -9   3  746.03   78.59
   1  -9   3   11.90   13.60
   1  -9   3    8.20   10.70
  -1  -9   3  -12.80    9.00
   2  -9   3   14.30   16.10
  -2  -9  -3    6.30   13.60
   2  -9   3   38.10   15.50
  -2  -9   3    9.90   17.20
  -3  -9  -3   26.20   16.70
   3  -9   3   24.70   16.30
  -3  -9   3   19.20   15.00
  -4  -9  -3  121.79   31.60
   4  -9   3  164.98   35.80
  -4  -9   3   94.19   31.50
   5  -9   3  100.29   28.70
  -5  -9  -3  129.19   33.00
  -5  -9   3   79.09   45.50
  -6  -9  -3  111.19   33.00
  -6  -9   3  124.89   35.40
   1 -10   3   11.10   14.80
   2 -10   3  276.57   55.39
   2 -10   3  204.58   36.20
  -2 -10   3  201.98   46.30
   3 -10   3   79.79   24.70
  -3 -10   3  107.79   35.20
  -4 -10  -3   19.80   20.80
  -4 -10   3  -24.70   17.80
  -5 -10  -3  -52.79   33.40
  -6 -10  -3    3.50   29.10
   0   0   4    4.30    3.20
   0   0   4    4.90    3.00
   0   0  -4    2.80    2.60
   1   0  -4 4793.72  271.37
  -1   0   4 4882.41  272.27
   1   0   4 5918.11  268.77
  -1   0   4 5084.79  275.17
  -2   0   4  235.88   23.10
   2   0  -4  266.17   23.70
  -2   0  -4  261.87   17.20
   2   0   4  241.58   19.40
  -2   0   4  244.18   25.40
   3   0   4 1648.83   92.19
  -3   0   4 1569.14  102.19
  -3   0   4 1643.74   98.69
  -4   0   4   96.69   18.50
  -4   0   4   83.89   18.50
   4   0   4   83.89   14.10
   4   0  -4   80.69   17.00
  -5   0   4  402.66   37.20
  -5   0   4  356.26   34.90
  -5   0   4  365.06   39.00
   5   0   4  418.96   34.30
  -6   0   4   20.80   11.80
  -6   0   4   27.60   10.20
   6   0   4   16.60    8.60
  -7   0   4  613.74   58.19
   7   0   4  623.34   53.89
  -7   0   4  538.15   48.60
  -8   0   4   59.09   16.60
   8   0   4   50.19   16.70
  -8   0   4   62.59   20.60
  -9   0   4  522.15   48.20
  -9   0   4  577.74   62.99
 -10   0   4   43.30   22.40
   0  -1   4    1.70    2.30
   0   1   4    0.50    1.70
   0   1  -4    1.10    2.10
   0  -1   4   -0.40    1.60
   1   1  -4 4854.21  243.38
  -1   1   4 4433.46  239.08
   1   1  -4 4838.42  240.58
   1  -1   4 5124.89  239.38
   1  -1   4 4323.77  235.88
  -1  -1   4 3935.51  240.68
   1   1   4 4427.26  232.48
  -1   1  -4 4252.97  236.78
  -1   1  -4 4355.36  236.48
   2   1  -4    5.80    3.60
   2  -1   4    3.80    2.20
  -2   1   4    2.00    3.50
   2   1  -4   -0.60    2.90
   2  -1   4   12.80    5.30
   2   1   4    5.00    2.00
  -2  -1   4    6.70    4.80
  -2  -1   4    3.70    3.80
  -2   1  -4    5.50    3.10
  -2   1  -4    2.10    3.10
   3  -1   4  754.12   50.39
  -3   1   4  712.73   53.39
   3   1  -4  715.93   60.09
  -3   1  -4  739.53   44.10
  -3  -1   4  778.42   51.49
  -3   1  -4  688.33   46.70
  -3  -1   4  753.92   55.99
   3   1   4  741.73   42.50
  -4   1   4  169.18   22.40
   4   1  -4  170.58   21.60
  -4   1   4  182.08   25.70
  -4   1   4  199.58   33.80
   4  -1   4  174.58   20.80
  -4   1  -4  176.18   17.10
  -4  -1   4  149.88   22.00
  -4  -1   4  168.88   19.80
   4   1   4  164.18   15.10
  -4   1  -4  147.79   14.60
  -5   1   4   15.30   10.20
   5  -1   4   12.50    6.70
  -5   1  -4   13.70    5.00
  -5  -1   4   16.20    7.10
  -5  -1   4   11.90    6.50
  -5   1  -4    0.70    4.30
  -5   1  -4    7.60    4.80
  -5  -1   4   -0.60    5.70
   5   1   4   15.90    5.30
   6  -1   4   82.79   20.10
  -6   1   4  101.79   24.50
  -6   1   4  115.89   23.50
  -6   1  -4   97.29   12.90
  -6  -1   4  132.49   28.00
   6   1   4  101.69   18.80
  -6  -1   4  106.79   20.10
  -6   1  -4  102.39   12.00
  -6  -1   4   78.59   16.80
  -7   1   4  245.28   32.30
   7  -1   4  246.58   33.30
  -7   1   4  244.78   35.50
   7   1   4  271.67   31.30
  -7  -1   4  209.38   27.30
  -7  -1   4  235.78   35.20
  -7  -1   4  341.07   30.70
  -8   1   4    5.20    9.40
  -8   1   4   18.90   11.20
   8  -1   4   14.90   12.00
  -8  -1   4   -7.20   12.30
  -8  -1   4    2.50    8.40
   8   1   4    2.90    9.10
  -9   1   4  453.85   55.79
  -9   1   4  516.95   49.80
  -9  -1   4  454.85   57.39
 -10   1   4  -22.40   19.60
 -10  -1   4  -26.70   19.70
   0  -2   4   81.29   14.10
   0   2  -4   73.09   13.10
   0   2  -4   67.09   12.90
   0  -2   4   85.39   15.10
   1   2  -4 2262.57  143.19
   1   2  -4 2764.12  142.49
   1  -2   4 2825.42  143.39
   1  -2   4 2489.15  140.69
   1   2   4 2404.36  137.49
  -1   2  -4 2611.34  141.59
  -1  -2   4 2415.96  140.29
  -1  -2   4 2496.85  145.09
  -1   2  -4 2442.66  140.89
   2   2  -4  195.38   23.30
   2  -2   4  258.17   23.30
   2   2  -4  181.58   20.00
   2  -2   4  206.08   19.80
   2   2   4  198.48   17.10
  -2   2  -4  183.28   19.30
  -2   2  -4  194.08   20.20
  -2  -2   4  188.48   20.00
  -2  -2   4  204.38   23.80
   3   2  -4  974.90   68.09
   3   2  -4 1005.40   72.49
   3  -2   4 1088.89   70.79
  -3   2   4 1008.50   70.99
  -3   2  -4 1163.58   68.69
  -3  -2   4 1126.09   75.89
  -3   2  -4 1058.39   65.69
  -3  -2   4  965.40   65.99
   3   2   4 1028.50   59.09
  -4   2   4    9.40    7.60
   4  -2   4   14.60    7.80
   4   2  -4    0.10    5.20
  -4   2  -4    3.50    5.90
  -4  -2   4   -2.70    5.00
  -4  -2   4    8.40    6.00
  -4   2  -4   15.10    6.30
   5  -2   4  110.29   22.20
  -5   2   4  112.49   22.40
  -5  -2   4   93.39   22.20
  -5   2  -4  116.19   16.30
  -5   2  -4  121.39   20.00
  -5  -2   4   99.99   16.80
   5   2   4   96.49   11.60
  -5  -2   4   96.99   17.40
  -6   2   4    7.10    8.10
   6  -2   4   -4.00    5.90
  -6   2  -4   14.00    7.10
  -6   2  -4    7.40    6.70
  -6  -2   4   14.40    9.40
   6   2   4    0.10    5.70
  -6  -2   4    1.10    4.80
  -6  -2   4  -12.30    5.20
  -7   2   4  473.65   48.00
  -7   2   4  450.85   51.69
   7  -2   4  509.15   51.59
  -7  -2   4  496.55   39.60
  -7   2  -4  521.65   40.20
  -7   2  -4  441.96   38.20
  -7  -2   4  430.76   49.60
  -7   2  -4  472.15   40.40
  -7  -2   4  515.55   38.60
  -7   2  -4  502.05   40.10
   7   2   4  534.05   42.40
   8  -2   4   29.30   16.00
  -8   2   4   37.40   21.20
  -8   2   4   41.80   20.10
  -8   2  -4   28.30   11.10
  -8  -2   4   24.80   16.40
  -9   2   4  416.06   46.90
  -9   2   4  380.56   50.79
   9  -2   4  436.06   52.49
  -9  -2   4  342.27   50.49
 -10   2   4  -13.20   21.90
 -10  -2   4   34.10   25.30
   0  -3   4    0.60    3.00
   0   3  -4   -2.20    3.20
   0   3  -4   -1.10    3.50
   0  -3   4    0.10    2.40
   0   3   4   -5.20    3.10
   1   3  -4 4555.94  227.48
   1   3  -4 3521.65  260.07
   1  -3   4 3741.03  224.78
   1  -3   4 4076.79  227.58
  -1   3  -4 3979.90  227.08
  -1  -3   4 4093.79  224.68
   1   3   4 4227.98  224.98
  -1   3  -4 4389.66  228.58
  -1  -3   4 4515.15  232.28
   2  -3   4   -4.90    2.90
   2   3  -4    5.00    5.00
   2   3  -4    6.90    5.60
  -2   3  -4   -1.90    4.00
   2   3   4    7.80    4.40
  -2  -3   4   -0.80    4.20
  -2   3  -4    4.90    4.90
  -2  -3   4    0.80    3.00
   3   3  -4 1298.57   91.59
   3  -3   4 1338.57   84.79
  -3  -3  -4 1352.26   81.29
   3   3  -4 1355.36   85.09
   3   3   4 1403.16   79.99
  -3   3  -4 1267.07   87.09
  -3   3  -4 1301.57   85.59
  -3  -3   4 1382.26   82.59
  -4  -3  -4  163.98   17.70
   4  -3   4  167.68   24.00
  -4  -3   4  148.49   17.60
  -4   3  -4  182.68   22.00
  -4   3  -4  142.19   24.00
  -4  -3   4  181.08   26.00
   4   3   4  147.69   16.50
  -5  -3  -4   28.50    8.40
   5  -3   4   52.49   18.20
  -5   3   4   33.40   14.20
  -5  -3   4    9.30    9.80
   5   3   4   31.50    8.20
  -5  -3   4   30.80    8.50
  -5   3  -4   36.10   10.80
   6  -3   4   59.79   19.30
  -6   3   4   62.19   17.00
  -6  -3   4   41.10   10.30
  -6   3  -4   33.60   13.60
   6   3   4   42.30   10.10
  -6  -3   4   64.09   12.90
  -6  -3   4   68.79   20.70
  -7   3   4  209.48   39.00
   7  -3   4  329.97   59.29
  -7   3  -4  298.67   34.30
  -7   3  -4  288.57   31.30
  -7  -3   4  311.67   40.10
  -8   3   4   32.40   16.20
   8  -3   4   19.10   13.60
  -8   3   4   25.60   15.80
  -8   3  -4   34.20   15.10
  -8   3  -4   22.50   12.20
  -8  -3   4   -3.20   11.80
   9  -3   4  551.74   61.49
  -9   3   4  482.15   53.99
  -9   3   4  497.55   61.89
  -9  -3   4  444.66   58.29
 -10   3   4    0.30   20.90
 -10  -3   4   19.10   28.20
   0  -4   4    4.80    6.20
   0   4  -4    6.20    5.60
   0   4   4   28.10    9.00
   0   4  -4   13.60    7.50
   0  -4   4    6.00    6.40
   1   4  -4 3064.39  193.68
  -1   4   4 3487.25  194.88
   1  -4   4 3244.98  192.58
   1  -4   4 3049.69  189.98
   1   4  -4 3576.44  190.68
  -1   4   4 3471.05  188.58
  -1  -4   4 3621.14  197.68
  -1  -4   4 3486.35  187.68
  -1   4  -4 3072.29  191.38
   1   4   4 3321.07  200.18
  -1   4  -4 3550.34  192.78
   2  -4   4  104.29   21.70
   2   4  -4  142.29   19.30
   2  -4   4  143.39   20.40
  -2  -4   4  152.58   18.20
  -2   4  -4  135.39   24.50
   2   4   4  161.78   19.90
  -2  -4   4  176.98   24.50
   3  -4   4  889.41   68.99
  -3  -4  -4  914.41   62.49
   3  -4   4  898.21   65.19
   3   4   4  861.51   59.59
  -3  -4   4  816.72   57.49
  -3   4  -4  833.02   65.49
  -3  -4   4  870.11   69.49
   4  -4   4   32.60   11.30
  -4  -4  -4   13.50    7.50
  -4   4  -4   35.70   10.40
   4   4   4   19.80    7.90
  -4  -4   4   18.10    6.50
  -4  -4   4   30.10   10.80
  -5  -4  -4  353.96   33.00
   5  -4   4  349.77   42.90
   5   4   4  316.87   29.90
  -5  -4   4  359.16   41.40
  -5  -4   4  367.16   27.50
  -6   4   4   14.80   12.00
   6  -4   4   -2.70   10.20
  -6  -4  -4    0.50    7.40
   6   4   4   21.20    8.70
  -6  -4   4   -5.70    9.40
  -7   4   4  639.94   60.89
   7  -4   4  557.04   61.79
  -7  -4   4  484.35   56.29
   8  -4   4   33.00   18.10
  -8   4   4   23.10   15.20
  -8   4  -4   34.70   15.80
  -8  -4   4   42.20   19.70
   9  -4   4  363.96   51.49
  -9   4   4  289.57   50.59
  -9   4   4  349.27   51.19
  -9   4  -4  428.76   57.19
  -9  -4   4  333.97   47.70
 -10   4   4   67.29   25.10
 -10   4   4   -5.90   26.50
   0   5   4   10.00    4.50
   0  -5   4    0.60    4.40
   0  -5   4    0.80    4.40
   1  -5   4 2012.30  127.09
   1  -5   4 2026.50  124.09
  -1  -5   4 1851.91  125.89
  -1  -5   4 1889.11  118.19
   1   5   4 1898.91  111.89
  -2  -5  -4   -0.50    6.00
   2  -5   4    5.90    5.40
   2  -5   4    5.70    7.10
   2   5   4   -5.80    4.90
  -2  -5   4    4.50    7.20
  -2  -5   4    8.20    5.90
   2   5   4   -0.60    3.60
   3  -5   4  396.86   44.30
   3  -5   4  346.27   39.40
  -3  -5  -4  404.16   39.70
  -3  -5   4  439.56   35.10
   3   5   4  388.26   37.50
   3   5   4  413.36   28.10
  -3  -5   4  423.76   45.00
   4  -5   4   85.59   24.10
  -4  -5  -4   80.79   19.60
  -4  -5   4   65.99   13.00
  -4  -5   4   99.29   24.80
   4   5   4   82.19   17.30
   5  -5   4  -12.80    7.90
  -5  -5  -4    6.00   10.10
  -5  -5   4    7.40    9.30
   5   5   4   -3.30    8.30
  -6   5   4   56.29   19.40
  -6  -5  -4   21.60   12.00
   6  -5   4   34.90   15.20
   6   5   4   48.40   13.50
  -6  -5   4   71.69   21.90
  -7  -5  -4   93.19   20.30
   7  -5   4  111.59   30.60
  -7   5   4  179.88   34.70
  -7  -5   4  154.98   34.40
  -8   5   4   18.10   15.50
   8  -5   4   -7.20   24.50
  -8  -5   4  -13.00   13.80
  -9   5   4  361.76   49.00
  -9   5   4  312.37   58.69
  -9  -5   4  206.08   43.70
  -9   5  -4  264.27   42.30
   0  -6   4   17.60    8.70
   0  -6   4    8.70    7.60
   1  -6   4 1122.29   82.99
   1  -6   4 1117.79   86.09
   1   6   4 1045.40   73.09
  -1  -6   4 1070.19   86.39
  -1  -6   4 1058.99   76.29
   2  -6   4   74.59   20.50
   2  -6   4   92.19   23.40
  -2  -6  -4   89.19   22.20
  -2  -6   4   70.19   20.50
   2   6   4   96.19   16.80
  -2  -6   4   77.79   17.50
  -3  -6  -4  562.14   51.59
   3  -6   4  432.16   50.19
   3  -6   4  553.04   53.29
  -3  -6   4  500.85   52.89
   3   6   4  472.45   37.40
  -3  -6   4  547.75   42.00
  -4  -6  -4   23.50   13.80
  -4  -6   4    9.30   10.70
  -4  -6   4   25.70    8.40
   4   6   4   16.50    7.30
  -5  -6  -4   89.79   20.80
   5  -6   4   52.89   20.90
   6  -6   4   11.40   13.60
  -6  -6  -4   12.40   11.10
  -6  -6   4   -8.40   12.50
  -7  -6  -4  231.98   33.20
   7  -6   4  191.78   43.30
  -7   6   4  194.58   40.40
  -7  -6   4  251.77   47.10
   8  -6   4   36.80   19.60
  -8   6   4   11.20   16.70
  -8  -6   4    1.30   20.40
  -9  -6   4  281.97   52.09
   0  -7   4    0.70    7.00
   0  -7   4    8.60   10.30
   1  -7   4 1268.07   97.79
   1  -7   4 1160.28   99.59
  -1  -7   4 1468.05  107.49
  -1  -7   4 1473.35   95.49
   2  -7   4   -2.10    7.20
   2  -7   4    1.30    6.90
  -2  -7   4    8.80    8.90
  -2  -7   4    0.10    7.60
   3  -7   4  368.46   45.10
  -3  -7  -4  376.76   46.60
   3  -7   4  377.56   47.80
  -3  -7   4  374.76   34.60
   3   7   4  411.46   35.20
  -3  -7   4  372.76   52.19
  -4  -7  -4   73.19   20.20
   4  -7   4   54.29   19.50
  -4  -7   4   67.99   21.40
   4   7   4   57.49   12.40
   5  -7   4   -1.70   12.10
  -5  -7  -4    2.30   10.70
  -5  -7   4   16.90   14.20
   6  -7   4   30.40   18.00
  -6  -7  -4   63.89   22.50
  -6  -7   4   39.00   19.50
   7  -7   4  211.38   44.30
  -7   7   4  172.68   40.30
  -7  -7  -4  183.68   32.50
  -7  -7   4  108.19   32.40
  -8  -7   4   25.40   19.40
   0  -8   4   21.70   15.50
   0  -8   4    8.30   11.70
   1  -8   4  757.32   71.59
   1  -8   4  640.94   64.29
  -1  -8   4  645.14   58.89
  -1  -8   4  727.33   72.99
   2  -8   4   35.10   18.70
   2  -8   4   49.40   17.70
  -2  -8   4   61.89   15.30
  -2  -8   4   35.10   18.60
   3  -8   4  241.38   47.40
  -3  -8  -4  316.37   63.09
   3  -8   4  301.17   43.90
  -3  -8   4  336.47   29.40
  -3  -8   4  337.57   45.90
   4  -8   4   -5.30    9.70
  -4  -8  -4   -8.00   13.80
  -4  -8   4    5.40    8.60
  -5  -8  -4   73.99   39.00
   5  -8   4   73.29   25.60
  -5  -8   4   69.39   24.60
  -6  -8  -4  -12.50   18.80
   6  -8   4    9.90   14.70
  -6  -8   4   -8.80   17.10
  -7  -8   4  143.29   36.70
   0  -9   4   13.60   12.30
   0  -9   4   -3.50    9.80
   1  -9   4  569.94   58.49
   1  -9   4  592.74   68.09
  -1  -9   4  520.65   63.99
  -1  -9   4  564.74   52.59
   2  -9   4    5.80   10.40
   2  -9   4   30.10   16.60
  -2  -9   4    1.00   11.40
  -2  -9   4   -5.70    9.60
   3  -9   4  158.38   37.30
   3  -9   4  136.59   33.50
  -3  -9   4  102.99   32.50
   4  -9   4   -7.30   13.90
  -4  -9   4    0.70   14.10
   5  -9   4   16.30   15.40
  -5  -9   4    9.60   20.30
  -6  -9   4   -2.60   20.60
   0 -10   4   15.30   14.70
   0 -10   4  -19.30   13.60
   1 -10   4  403.46   60.39
   1 -10   4  442.66   50.39
  -1 -10   4  413.06   61.29
  -1 -10   4  431.96   46.40
   2 -10   4   25.00   15.60
   2 -10   4    3.20   17.50
  -2 -10   4  -12.00   16.90
   3 -10   4   20.60   28.30
  -3 -10   4  196.08   46.90
   4 -10   4    9.90   17.20
  -4 -10   4   18.50   23.50
   0   0  -5    1.90    2.30
   0   0   5    1.20    2.40
   1   0  -5   70.39   12.80
  -1   0   5  100.59   14.40
  -1   0   5   70.69   13.70
   1   0   5  101.69   11.40
   1   0   5   97.59   11.70
  -1   0  -5   73.69    9.40
  -2   0   5  732.23   57.89
  -2   0  -5  951.70   47.70
   2   0   5  778.62   45.90
   2   0   5  750.82   49.99
   2   0  -5  854.11   56.09
  -2   0   5  770.12   55.69
  -3   0   5 2620.24  151.98
   3   0   5 2606.74  143.59
   3   0  -5 2597.24  150.98
  -3   0   5 2673.93  157.08
  -4   0   5  364.46   39.40
   4   0   5  402.06   31.00
  -4   0   5  358.36   42.50
  -5   0   5   -2.40    4.20
   5   0   5    7.20    5.40
  -5   0   5   -0.50    6.30
  -6   0   5  206.48   26.40
   6   0   5  177.98   24.00
  -6   0   5  198.58   29.20
  -7   0   5  723.03   66.79
   7   0   5  703.43   59.39
  -7   0   5  654.73   56.69
   8   0   5  212.58   35.30
  -8   0   5  230.78   29.70
  -8   0   5  206.48   39.60
  -9   0   5   17.20   14.80
  -9   0   5  -18.40   14.00
   9   0   5   38.70   18.10
 -10   0   5    5.80   22.10
   0   1  -5 1889.11  108.49
   0   1  -5 2031.70  110.49
   0  -1   5 1952.30  109.79
   0  -1   5 1711.23  109.09
  -1   1   5  115.69   14.40
   1  -1   5  123.49   14.40
   1  -1   5   80.09   11.40
   1   1  -5  106.69   15.50
   1   1  -5   97.99   13.80
  -1   1  -5   72.29   11.00
   1   1   5  108.19   11.10
  -1  -1   5   87.19   16.70
  -1  -1   5   92.59   13.10
  -1   1  -5  109.39   13.00
   2   1  -5  294.47   27.00
  -2   1   5  223.48   25.20
   2  -1   5  292.87   21.90
   2  -1   5  279.77   24.80
  -2  -1   5  269.57   28.70
  -2   1  -5  235.58   22.40
   2   1   5  294.77   19.50
  -2  -1   5  265.67   25.70
  -2   1  -5  304.27   22.50
   2   1   5  283.57   20.30
   3   1  -5  158.98   20.60
   3  -1   5  211.98   20.90
   3  -1   5  176.28   14.90
   3   1  -5  184.48   24.20
  -3   1   5  174.68   21.90
  -3   1  -5  202.88   18.60
  -3  -1   5  169.48   23.40
  -3  -1   5  198.38   21.90
  -3   1  -5  167.78   14.70
  -4   1   5  712.63   55.79
  -4   1   5  618.44   57.59
   4  -1   5  682.13   50.59
   4   1   5  620.04   43.30
  -4  -1   5  809.02   60.59
  -4  -1   5  742.93   52.59
  -4   1  -5  683.33   44.90
   5  -1   5 1557.14  110.39
  -5   1   5 1785.92  115.79
  -5   1   5 1977.30  124.49
  -5  -1   5 1786.42  111.69
  -5  -1   5 1851.81  121.59
   5   1   5 1880.71  104.89
  -5   1  -5 1804.52  100.39
  -6   1   5  503.05   52.79
   6  -1   5  391.06   42.60
  -6   1   5  459.65   45.20
  -6  -1   5  468.15   49.50
   6   1   5  462.85   38.80
  -6  -1   5  461.55   41.10
  -7   1   5   86.49   23.20
  -7   1   5   89.79   21.10
   7  -1   5  134.79   29.10
  -7  -1   5  114.09   20.90
   7   1   5  116.49   28.30
  -7  -1   5  137.59   29.10
   8  -1   5   15.90   12.50
  -8   1   5   16.90   14.80
  -8   1   5    0.30   13.40
  -8  -1   5   28.70   19.30
   8   1   5   39.40   16.10
  -8  -1   5   62.19   16.00
  -9   1   5  -11.70   12.70
  -9   1   5   17.80   12.70
   9  -1   5   17.60   13.90
  -9  -1   5   25.50   17.40
 -10   1   5  130.19   37.80
 -10  -1   5   95.59   33.50
   0  -2   5    4.40    4.30
   0   2  -5    2.20    3.30
   0   2  -5    3.00    3.50
   0  -2   5    1.60    2.70
   1  -2   5  426.96   33.90
  -1   2   5  449.86   34.40
   1   2  -5  385.56   35.90
   1   2  -5  397.56   34.10
   1  -2   5  445.56   35.10
  -1  -2   5  403.96   34.40
  -1  -2   5  397.16   36.40
  -1   2  -5  469.25   35.30
  -1   2  -5  405.86   33.70
  -2   2   5 1496.05   94.49
   2   2  -5 1501.45   97.39
   2  -2   5 1407.66   89.09
   2   2  -5 1466.55   93.29
   2  -2   5 1731.43   95.19
  -2  -2   5 1683.23  100.69
  -2  -2   5 1517.55   93.09
  -2   2  -5 1361.26   89.39
   2   2   5 1583.84   86.59
  -2   2  -5 1477.65   91.69
  -3   2   5 1012.40   83.99
   3   2  -5 1024.70   71.89
   3  -2   5 1168.08   72.79
   3   2  -5 1050.79   76.99
   3  -2   5 1127.59   66.99
  -3  -2   5  970.40   69.49
  -3   2  -5 1118.39   67.59
  -3  -2   5 1091.29   79.19
  -3   2  -5 1039.10   69.19
   4  -2   5  376.16   68.09
  -4   2   5  495.35   47.10
  -4   2  -5  604.34   43.60
  -4  -2   5  541.55   43.30
  -4   2  -5  576.84   40.00
  -4  -2   5  558.44   51.89
  -5   2   5   34.40   13.40
   5  -2   5   22.30    9.30
  -5  -2   5   36.20   12.90
  -5   2  -5   19.70    8.30
   5   2   5   20.10    5.50
  -5   2  -5   10.90    6.80
  -6   2   5  250.37   34.80
  -6   2   5  284.07   38.90
   6  -2   5  397.26   40.80
   6   2   5  336.17   28.80
  -6   2  -5  341.27   28.80
  -6  -2   5  304.87   31.00
  -6  -2   5  329.87   32.50
  -6  -2   5  279.77   38.30
  -6   2  -5  283.97   28.90
  -7   2   5  500.45   48.80
   7  -2   5  398.56   48.00
  -7   2   5  475.95   54.29
  -7  -2   5  406.66   38.20
  -7   2  -5  468.75   36.10
  -7  -2   5  423.86   50.79
  -7  -2   5  499.65   43.20
  -7   2  -5  420.96   36.00
   7   2   5  489.35   40.50
  -8   2   5  329.47   47.10
   8  -2   5  286.47   39.70
  -8   2   5  292.77   40.00
   8   2   5  276.17   33.30
  -8  -2   5  285.27   39.60
  -8  -2   5  314.97   44.30
  -9   2   5   30.10   17.40
  -9   2   5  -11.50   17.80
   9  -2   5   -0.50   14.40
  -9  -2   5   28.00   19.10
 -10   2   5   -4.60   24.30
 -10   2   5    6.70   24.00
 -10  -2   5    2.90   21.80
   0  -3   5  807.52   60.49
   0  -3   5  884.01   60.39
   0   3  -5  842.92   59.49
   1  -3   5   95.59   18.10
   1   3  -5  111.79   16.40
   1   3  -5  144.39   20.70
   1  -3   5  127.39   17.80
  -1  -3   5  136.09   19.90
   1   3   5  123.49   16.40
  -1  -3   5  147.59   18.10
  -1   3  -5  134.29   18.00
  -1   3  -5  118.89   17.80
   2   3  -5   91.29   20.40
   2  -3   5  124.09   16.90
   2  -3   5  146.79   19.40
   2   3  -5   89.99   17.10
  -2  -3   5  110.09   23.10
  -2   3  -5  121.89   17.30
  -2   3  -5   78.29   16.50
   2   3   5  112.19   15.10
  -2  -3   5  122.89   16.30
   3  -3   5   88.99   17.00
   3  -3   5  110.89   21.90
   3   3   5  112.29   13.00
  -3  -3   5  110.79   24.20
  -3   3  -5   62.49   16.00
  -3   3  -5   96.39   18.00
  -3  -3   5  121.09   16.20
   4  -3   5  488.25   47.90
  -4   3   5  505.65   48.50
  -4   3  -5  575.84   48.50
   4   3   5  586.14   37.20
  -4   3  -5  532.85   44.60
  -4  -3   5  597.94   54.09
  -4  -3   5  534.25   42.60
  -5   3   5 1617.84  114.89
   5  -3   5 1954.20  120.79
  -5   3  -5 1605.24  106.19
  -5  -3   5 1813.72  120.59
  -5  -3   5 1642.84  102.79
   6  -3   5  279.87   37.80
  -6   3   5  266.27   36.00
  -6  -3   5  274.47   29.90
  -6  -3   5  261.37   26.70
  -6   3  -5  267.17   30.40
  -6  -3   5  269.17   38.00
  -7   3   5   84.69   21.20
  -7   3   5   69.39   23.20
   7  -3   5  112.79   28.20
  -7  -3   5   60.59   14.10
  -7  -3   5   92.29   15.10
   7   3   5   69.59   14.60
  -7   3  -5   88.19   17.80
  -7  -3   5  113.59   28.90
  -8   3   5   17.90   18.50
  -8   3   5   47.30   18.60
   8  -3   5   65.09   20.80
  -8   3  -5   75.49   17.00
  -8  -3   5   55.19   27.30
  -8   3  -5   78.59   17.20
  -9   3   5   40.60   22.30
  -9   3   5    3.10   12.80
   9  -3   5   10.60   17.70
  -9  -3   5    5.00   20.80
 -10   3   5   39.20   29.60
   0   4   5    0.20    6.00
   0   4  -5    5.10    4.20
   0  -4   5   -2.90    4.80
   0  -4   5    4.90    4.70
   1  -4   5  101.79   20.20
   1  -4   5  109.59   22.00
   1   4   5   53.69   13.40
  -1   4  -5   58.49   15.30
  -1  -4   5   61.99   13.90
  -1  -4   5   79.49   18.20
   2  -4   5  531.55   45.20
   2  -4   5  356.36   40.50
  -2  -4   5  522.95   41.10
  -2   4  -5  511.55   45.10
   2   4   5  522.15   41.50
  -2  -4   5  464.65   46.80
   3  -4   5 1577.04  102.69
   3  -4   5 1390.56   94.59
  -3  -4   5 1518.55  104.29
  -3  -4   5 1291.17   89.19
   3   4   5 1426.66   89.59
  -3   4  -5 1545.65   98.29
   4  -4   5  187.78   32.60
   4   4   5  180.88   19.80
  -4  -4   5  184.78   21.30
  -4  -4   5  167.68   32.20
  -4   4  -5  172.88   26.00
  -5   4   5   13.50    9.40
   5  -4   5   16.80    9.30
  -5   4  -5   12.40   13.30
   5   4   5    7.90    6.40
  -5  -4   5    6.50    9.40
  -5  -4   5    7.50    5.40
   6  -4   5  100.69   33.90
  -6   4   5  175.88   34.60
  -6  -4   5  192.88   20.40
  -6  -4   5  202.38   38.00
  -6  -4   5  230.48   22.20
   7  -4   5  469.25   57.69
  -7   4   5  557.94   57.79
  -7  -4   5  501.15   56.59
  -8   4   5  168.88   37.90
   8  -4   5  104.49   31.20
  -8   4   5  188.38   42.40
  -8   4  -5  205.78   31.50
  -8  -4   5  158.48   35.60
  -9   4   5   -3.80   20.20
   9  -4   5   36.60   17.60
  -9  -4   5   39.10   22.60
 -10   4   5  -11.40   22.90
 -10  -4   5   38.30   28.00
   0  -5   5  999.70   69.09
   0  -5   5  802.62   69.99
   1  -5   5   16.70   10.20
   1  -5   5   22.90    9.90
  -1  -5   5   17.20   11.00
   2  -5   5  103.99   22.00
   2  -5   5  147.79   29.00
  -2  -5   5  132.99   18.50
  -2  -5   5  130.09   28.60
   2   5   5  114.59   21.90
   3  -5   5  102.89   24.70
   3  -5   5   98.59   21.50
   3   5   5  125.89   18.40
  -3  -5   5  129.29   29.40
  -3  -5   5   71.29   15.60
   4  -5   5  489.05   52.69
   4  -5   5  531.15   48.40
  -4  -5   5  481.75   39.20
   4   5   5  458.45   41.40
  -4  -5   5  536.95   55.09
   5  -5   5  991.60   86.59
  -5  -5   5 1055.69   85.79
  -5  -5   5 1001.90   63.59
   5   5   5  917.51   67.29
   6  -5   5  387.56   48.80
  -6   5   5  309.37   41.70
   6   5   5  247.38   33.50
  -6  -5   5  248.68   45.50
  -7   5   5  140.49   33.90
   7  -5   5   95.59   28.70
  -7  -5   5   80.89   25.80
   8  -5   5   46.20   21.70
  -8  -5   5   62.19   20.90
  -9   5   5    5.50   16.30
  -9   5   5   20.30   18.30
   0  -6   5   -6.70    3.90
   0  -6   5   10.50    7.70
   1  -6   5  117.19   27.10
   1  -6   5  155.78   28.20
   1   6   5  104.19   18.70
  -1  -6   5  126.99   24.30
  -1  -6   5  129.69   29.10
   2  -6   5  496.15   54.19
   2  -6   5  655.23   58.89
  -2  -6   5  600.34   58.99
  -2  -6   5  576.34   49.10
   3  -6   5  531.65   57.69
   3  -6   5  658.53   59.39
   3   6   5  632.84   43.80
  -3  -6   5  643.14   51.79
  -3  -6   5  589.74   61.29
   4  -6   5  227.28   32.60
   4  -6   5  289.57   40.80
  -4  -6   5  258.07   26.40
  -4  -6   5  247.48   37.60
   5  -6   5   21.00   12.50
  -5  -6   5    8.80    8.20
   6  -6   5  118.79   29.70
  -6  -6   5  144.89   35.60
  -7   6   5  268.87   50.59
   7  -6   5  320.17   89.99
  -8   6   5  129.79   37.00
  -8  -6   5  148.69   38.50
  -9   6  -5    7.40   24.10
  -9  -6   5   34.30   26.20
   0  -7   5  441.36   46.40
   0  -7   5  430.06   50.99
   1  -7   5   61.29   18.50
   1  -7   5   83.89   23.90
  -1  -7   5   98.09   25.90
  -1  -7   5   91.79   20.20
   2  -7   5   69.09   21.60
   2  -7   5   69.29   21.40
  -2  -7   5   69.99   26.60
  -2  -7   5   42.40   14.90
   3  -7   5   30.70   15.80
   3  -7   5   18.40   18.20
  -3  -7   5   57.19   22.60
   3   7   5   39.50   11.60
  -3  -7   5   62.69   15.40
   4  -7   5  187.68   39.00
  -4  -7   5  209.48   22.90
  -4  -7   5  213.08   41.50
   5  -7   5  892.01   86.59
  -5  -7   5  902.71   85.49
   6  -7   5   93.09   32.50
  -6  -7   5  165.08   39.00
  -7   7   5   11.30   14.10
   7  -7   5   71.09   27.10
  -7  -7   5   34.70   24.70
  -8  -7   5    0.40   21.80
   0  -8   5    2.00   11.80
   0  -8   5  -13.20    8.80
   1  -8   5   33.90   18.00
   1  -8   5   32.30   16.60
  -1  -8   5   35.90   15.20
  -1  -8   5   51.89   20.50
   2  -8   5  256.17   48.00
   2  -8   5  287.37   41.20
  -2  -8   5  328.87   37.10
  -2  -8   5  269.07   49.40
   3  -8   5  462.55   54.99
  -3  -8   5  442.86   41.40
  -3  -8   5  513.75   59.09
   4  -8   5  127.39   32.50
  -4  -8   5  158.98   38.40
  -5  -8   5   -0.90   13.10
   6  -8   5   49.00   22.60
  -6  -8   5   25.30   23.70
  -7  -8   5  182.08   45.30
   0  -9   5  409.26   49.20
   0  -9   5  458.45   58.69
   1  -9   5   17.70   13.00
   1  -9   5   27.10   18.10
  -1  -9   5  -16.50   11.70
  -1  -9   5    9.20   11.70
   2  -9   5   75.09   24.30
   2  -9   5   80.79   26.80
  -2  -9   5   39.90   21.20
  -2  -9   5   81.89   19.20
   3  -9   5   10.40   17.00
   3  -9   5   42.90   18.70
  -3  -9   5   12.80   16.20
   4  -9   5  225.98   44.60
  -4  -9   5  226.08   55.29
   5  -9   5  285.97   56.59
  -5  -9   5  337.87   59.69
   0 -10   5   -7.80   13.00
   0 -10   5   14.80   18.00
   1 -10   5   21.60   17.60
   1 -10   5    7.50   14.30
  -1 -10   5    3.40   14.30
   2 -10   5  133.19   38.60
   2 -10   5  124.99   29.90
  -2 -10   5  147.39   38.50
  -2 -10   5  150.88   29.90
   3 -10   5  195.68   41.60
   3 -10   5  260.67   55.19
  -3 -10   5  236.68   52.39
   0 -11   5  109.49   28.00
   1 -11   5   42.10   24.60
   2 -11   5   23.10   22.10
   0   0   6  151.08   17.60
   0   0   6  127.29   16.10
   0   0  -6  165.38   16.60
  -1   0   6    7.80    4.60
   1   0   6    4.60    3.60
   1   0  -6    9.10    5.00
  -1   0   6   14.10    6.50
   1   0   6    3.30    3.30
  -1   0  -6   15.40    5.10
  -2   0   6  110.09   21.90
  -2   0  -6  105.99   10.70
   2   0   6   92.59   12.40
   2   0  -6  117.19   19.80
  -2   0   6   91.49   17.50
   2   0   6  101.29   11.10
  -3   0   6  111.09   20.10
   3   0   6  134.49   15.20
   3   0  -6  109.99   22.60
  -4   0   6  245.58   28.80
   4   0   6  261.87   24.50
  -4   0   6  244.38   31.70
   5   0   6 1701.63  102.09
  -5   0   6 1672.73  109.69
  -5   0   6 1592.84  115.19
  -6   0   6   97.49   21.80
  -6   0   6   50.79   19.70
  -7   0   6  153.28   35.10
   7   0   6  145.39   27.10
  -7   0   6  167.08   30.40
  -8   0   6   57.79   21.30
  -8   0   6   67.29   18.10
   8   0   6   83.79   20.00
  -9   0   6   19.00   19.50
   9   0   6   37.50   16.80
 -10   0   6   32.80   28.60
   0   1   6   -1.70    1.90
   0   1  -6   -4.60    2.50
   0  -1   6    6.60    3.40
   0  -1   6   -1.20    2.60
   0   1  -6   -5.60    2.40
   1   1  -6  234.68   26.80
   1   1  -6  225.48   25.20
   1  -1   6  280.17   25.00
  -1   1   6  258.77   26.20
   1  -1   6  301.37   26.50
   1   1   6  338.47   26.20
  -1  -1   6  264.07   26.50
  -1   1  -6  300.67   25.30
  -1   1  -6  283.37   25.00
  -1  -1   6  310.07   29.90
   2   1  -6  692.53   50.69
   2  -1   6  678.63   44.10
   2  -1   6  686.83   47.90
  -2   1   6  680.33   51.99
  -2   1   6  668.13   55.79
   2   1  -6  784.92   56.39
  -2   1  -6  649.34   44.00
  -2  -1   6  608.44   52.69
  -2  -1   6  726.23   51.49
   2   1   6  620.04   42.60
  -2   1  -6  730.63   46.50
   2   1   6  658.13   43.30
  -3   1   6 1500.95   95.39
  -3   1   6 1465.35  100.79
   3  -1   6 1175.28   86.39
   3   1   6 1554.84   82.69
  -3   1  -6 1432.06   84.09
  -3  -1   6 1418.76   91.79
  -3  -1   6 1521.95   98.69
  -4   1   6  399.66   39.00
   4  -1   6  408.06   34.80
  -4   1   6  475.85   46.00
  -4  -1   6  379.96   36.20
  -4  -1   6  425.56   43.10
   4   1   6  314.97   27.30
  -4   1  -6  386.46   28.80
   5  -1   6   30.90   13.60
  -5   1   6    2.50    6.60
  -5   1   6    5.40    7.40
  -5  -1   6   25.80   13.20
   5   1   6    9.60    5.60
  -5   1  -6   13.10    5.70
  -5  -1   6   11.30    8.20
  -6   1   6  229.68   31.90
  -6   1   6  234.18   35.40
   6  -1   6  246.68   30.70
  -6  -1   6  273.87   30.90
   6   1   6  254.57   25.70
  -6  -1   6  231.88   34.50
  -7   1   6  559.74   53.29
  -7   1   6  426.26   84.39
   7  -1   6  503.15   52.19
  -7  -1   6  584.54   49.80
   7   1   6  590.14   49.10
  -7  -1   6  477.75   62.69
  -8   1   6  158.18   31.10
   8  -1   6  124.09   26.60
  -8   1   6   80.49   27.40
   8   1   6  193.18   26.80
  -8  -1   6  113.89   24.90
  -8  -1   6  140.99   37.10
  -9   1   6    7.70   16.00
  -9   1   6  -17.20   13.60
   9  -1   6   20.30   14.10
  -9  -1   6    5.40   15.70
   9   1   6   12.60   15.90
  -9  -1   6   -9.60   13.00
 -10   1   6  -32.50   19.00
 -10  -1   6    8.90   23.00
   0   2   6 1689.23   95.29
   0  -2   6 1693.63  100.79
   0  -2   6 1485.75   97.39
   0   2  -6 1534.25   99.19
   1   2  -6  146.09   19.70
   1   2  -6  160.78   21.60
   1  -2   6  203.18   21.60
   1  -2   6  155.38   19.00
  -1   2   6  165.98   19.90
   1   2   6  197.38   17.60
  -1   2  -6  190.38   21.10
  -1  -2   6  169.38   20.60
  -1  -2   6  136.79   20.50
  -1   2  -6  180.88   20.70
   2   2  -6  421.86   37.20
   2  -2   6  409.26   32.80
   2  -2   6  304.17   32.90
   2   2  -6  404.86   39.20
  -2   2   6  470.45   38.70
  -2   2  -6  488.15   35.40
  -2   2  -6  312.87   32.00
  -2  -2   6  459.95   41.70
   2   2   6  406.26   29.90
  -2  -2   6  458.35   37.80
   3  -2   6  136.19   15.90
  -3   2   6   85.59   18.90
   3  -2   6  144.69   20.00
  -3   2  -6  168.28   17.90
  -3  -2   6  170.18   21.40
  -3  -2   6  116.39   23.60
  -3   2  -6  162.38   19.30
   4  -2   6  669.13   55.49
  -4   2   6  674.03   58.69
  -4   2  -6  688.23   48.10
  -4   2  -6  865.41   54.49
  -4  -2   6  697.43   54.59
  -4  -2   6  708.03   62.59
  -5   2   6 1856.21  121.69
  -5   2   6 1783.62  128.69
   5  -2   6 1753.02  118.09
  -5  -2   6 1855.71  114.29
  -5  -2   6 1844.02  126.29
   5   2   6 1878.61  101.39
  -5   2  -6 1765.42  102.99
  -5   2  -6 1742.13  107.79
  -6   2   6  392.06   47.60
   6  -2   6  480.45   47.00
  -6   2   6  379.96   43.50
  -6   2  -6  406.66   34.60
   6   2   6  397.66   32.40
  -6  -2   6  398.66   38.80
  -6  -2   6  465.25   51.09
  -7   2   6   66.29   22.60
  -7   2   6   61.99   21.70
   7  -2   6   59.39   21.10
  -7  -2   6   99.19   30.60
   7   2   6   94.89   18.70
  -7  -2   6   65.69   16.60
  -7   2  -6   65.39   13.00
   8  -2   6   46.70   17.90
  -8   2   6   58.59   19.60
  -8   2   6   46.50   20.10
  -8  -2   6   78.09   23.90
   8   2   6   41.10   14.70
  -8  -2   6   32.00   12.70
   9  -2   6  -11.50   11.60
  -9   2   6  -24.60   15.80
  -9   2   6   31.40   18.80
  -9  -2   6    9.10   16.90
 -10   2   6   86.19   29.10
  10  -2   6  144.09   33.60
 -10   2   6   95.69   34.60
 -10  -2   6   51.99   35.20
   0   3  -6    9.80    6.10
   0  -3   6   -3.00    1.90
   0  -3   6   -1.60    2.30
   0   3  -6   -4.30    3.90
   1  -3   6  140.39   20.40
   1   3  -6  143.39   22.10
   1  -3   6  188.78   23.50
   1   3  -6  194.08   22.60
  -1  -3   6  155.78   22.90
  -1   3  -6  190.48   23.10
   1   3   6  148.19   18.90
  -1  -3   6  184.38   22.00
   2  -3   6  657.73   48.80
   2  -3   6  633.14   50.49
  -2  -3   6  553.44   46.80
  -2  -3   6  558.14   52.89
  -2   3  -6  587.14   48.20
  -2   3  -6  674.13   50.69
   2   3   6  640.74   45.10
  -3   3   6 1228.68   85.69
   3  -3   6 1118.49   77.49
   3  -3   6 1199.28   83.59
   3   3   6 1259.97   73.19
  -3   3  -6 1379.46   82.29
  -3   3  -6 1199.98   81.99
  -3  -3   6 1103.59   80.59
   4  -3   6  374.86   39.80
  -4   3   6  361.56   39.90
   4  -3   6  405.36   35.00
  -4  -3   6  338.87   33.90
  -4   3  -6  373.86   35.00
  -4  -3   6  402.66   43.60
  -5   3   6   12.90    9.70
   5  -3   6    9.00    7.00
  -5   3  -6    1.40    7.00
  -5  -3   6    2.50    5.90
  -5  -3   6    6.80    7.20
  -6   3   6  139.99   40.00
   6  -3   6  192.18   38.00
  -6  -3   6  197.48   23.20
  -6  -3   6  239.38   42.30
  -6   3  -6  182.38   23.50
  -7   3   6  395.66   48.70
  -7   3   6  459.35   55.99
   7  -3   6  458.75   51.79
  -7  -3   6  453.95   37.20
  -7  -3   6  355.16   45.30
   7   3   6  358.16   33.50
  -7  -3   6  362.66   48.00
  -8   3   6  156.28   34.00
  -8   3   6  133.19   34.40
  -8   3  -6  141.69   24.60
  -8  -3   6  141.09   35.50
  -9   3   6   13.10   20.30
  -9   3   6   31.90   19.70
   9  -3   6   39.80   30.50
  -9  -3   6  -13.30   18.10
 -10   3   6   37.90   23.20
 -10  -3   6   27.70   29.90
   0  -4   6  434.66   39.90
   0   4   6  434.06   39.30
   0  -4   6  362.16   38.80
   1  -4   6   63.89   16.00
  -1  -4   6   67.09   15.40
   1   4   6   37.60   11.40
  -1   4  -6   51.29   17.70
  -1  -4   6   85.29   21.20
   2  -4   6  178.78   24.20
   2  -4   6  139.49   25.30
  -2  -4   6  146.59   24.90
  -2  -4   6  127.09   27.80
   2   4   6  181.28   21.60
  -2   4  -6  167.68   23.60
   3  -4   6  164.58   27.40
   3  -4   6  196.08   26.50
   3   4   6  130.59   17.70
  -3  -4   6  179.48   22.70
  -3   4  -6  128.49   23.80
  -3  -4   6  119.19   27.60
   4  -4   6  392.26   43.00
   4  -4   6  364.56   35.50
  -4   4   6  321.87   39.10
  -4  -4   6  294.37   40.10
  -4   4  -6  385.06   37.00
   4   4   6  287.57   27.60
  -4  -4   6  344.67   33.30
   5  -4   6  931.11   86.89
  -5   4   6 1176.28   91.59
  -5   4  -6 1173.88   83.69
  -5  -4   6 1229.38   79.09
  -5  -4   6 1278.47   96.59
  -6   4   6  177.98   34.90
   6  -4   6  111.19   28.10
  -6  -4   6  171.58   36.90
  -6   4  -6  180.78   34.10
  -7   4   6   63.99   21.40
   7  -4   6   82.49   25.70
  -7  -4   6   90.79   23.50
   8  -4   6    6.90   15.10
  -8   4   6   37.10   22.70
  -8   4   6    3.20   16.80
  -8   4  -6   -2.60   11.90
  -8  -4   6   53.49   22.50
  -9   4   6  -19.60   17.20
  -9   4   6   -3.50   16.90
   9  -4   6   13.70   19.00
  -9  -4   6  -16.40   22.20
   0  -5   6   -4.90    5.10
   1  -5   6   70.69   18.70
   1  -5   6   70.29   18.10
  -1  -5   6   74.69   16.60
  -1  -5   6   69.19   19.50
   2  -5   6  657.43   59.29
   2  -5   6  717.93   60.19
  -2  -5   6  762.02   55.29
  -2  -5   6  597.04   59.89
   2   5   6  586.94   62.19
   3  -5   6  912.01   78.79
   3  -5   6 1024.80   76.89
  -3  -5   6 1022.10   70.99
   3   5   6  995.90   71.39
  -3  -5   6 1047.60   84.59
   4  -5   6  387.56   39.90
   4  -5   6  336.27   43.80
   4   5   6  358.76   33.70
  -4  -5   6  339.77   44.60
  -4  -5   6  354.86   33.50
   5  -5   6   -1.70    8.60
   5   5   6   -9.90    7.80
  -5  -5   6   -1.80   11.90
  -6   5   6  184.48   38.10
   6  -5   6  157.88   35.60
  -6  -5   6  129.39   32.60
  -6  -5   6  206.88   21.10
   6   5   6  165.08   20.10
  -7   5   6  375.16   50.49
   7  -5   6  459.55   58.99
  -7  -5   6  332.17   49.20
   8  -5   6  123.29   34.00
  -8   5   6   91.29   27.70
  -8  -5   6  119.29   32.80
  -9  -5   6   40.70   23.70
   0  -6   6  551.14   54.29
   0  -6   6  439.46   47.00
   1  -6   6   61.19   19.50
   1  -6   6   55.89   18.40
  -1  -6   6  111.19   22.10
   1   6   6   87.79   20.80
  -1  -6   6   91.19   24.90
   2  -6   6   92.89   23.50
   2  -6   6  127.29   28.30
   2   6   6  122.09   16.40
  -2  -6   6  111.79   27.20
  -2  -6   6  136.19   23.90
   3  -6   6   42.70   16.50
   3  -6   6   58.89   20.40
  -3  -6   6   46.90   18.70
  -3  -6   6   88.59   19.30
   3   6   6   39.90    9.70
   4  -6   6  325.17   52.59
   4  -6   6  293.77   37.50
  -4  -6   6  292.47   40.90
  -4  -6   6  252.37   30.10
   5  -6   6 1056.19   92.99
  -5  -6   6  996.10   90.49
  -5  -6   6 1003.60   67.49
  -6   6   6  149.99   35.50
   6  -6   6  170.08   37.80
  -6  -6   6  156.88   37.60
  -7   6   6   83.69   26.50
   7  -6   6  -19.50   17.70
  -7  -6   6   17.20   20.30
  -8  -6   6   18.60   20.80
   0  -7   6   -9.80    5.80
   0  -7   6   -9.70    5.70
   1  -7   6   67.39   22.40
   1  -7   6   60.29   20.90
  -1  -7   6   62.79   19.40
  -1  -7   6   62.69   21.80
   2  -7   6  134.09   30.70
   2  -7   6   94.29   27.00
  -2  -7   6  159.78   28.00
  -2  -7   6  153.08   34.90
   3  -7   6  487.25   55.69
   3  -7   6  483.55   53.99
  -3  -7   6  500.25   57.19
   3   7   6  440.46   38.50
  -3  -7   6  442.76   43.30
   4  -7   6   76.49   27.40
   4  -7   6   76.79   26.70
  -4  -7   6   85.29   18.80
   4   7   6   96.09   20.70
  -4  -7   6   95.49   25.90
   5  -7   6   -0.20   10.20
  -5  -7   6   29.70   16.00
   6  -7   6   86.69   29.30
  -6   7   6   73.59   25.30
  -6  -7   6   35.40   22.00
  -7  -7   6  277.67   53.29
   0  -8   6  163.68   36.60
   0  -8   6  175.18   53.79
   1  -8   6   26.90   13.20
   1  -8   6   16.90   16.90
  -1  -8   6   31.80   12.80
  -1  -8   6   -1.70   11.90
   2  -8   6   53.29   18.60
   2  -8   6   71.49   23.20
  -2  -8   6   32.90   18.90
  -2  -8   6   44.80   17.40
   3  -8   6   31.30   18.60
   3  -8   6   45.30   20.30
  -3  -8   6   28.80   17.60
  -3  -8   6   29.80   13.10
   4  -8   6  125.99   31.30
   4  -8   6  192.78   39.50
  -4  -8   6  148.89   37.50
   5  -8   6  479.25   63.39
  -5  -8   6  517.15   67.29
  -6  -8   6  100.79   34.20
   0  -9   6   -7.40   13.40
   0  -9   6   11.90   14.40
   1  -9   6    0.20   16.20
   1  -9   6  -16.90   10.70
  -1  -9   6   26.00   17.40
  -1  -9   6   13.80   16.30
   2  -9   6  331.97   59.09
   2  -9   6  278.27   48.90
  -2  -9   6  301.37   39.50
  -2  -9   6  236.68   50.99
   3  -9   6  360.06   60.19
   3  -9   6  265.17   51.89
  -3  -9   6  283.97   35.50
   4  -9   6   58.19   24.50
  -4  -9   6   72.29   28.20
  -5  -9   6    8.60   15.80
   0 -10   6  172.68   34.40
   0 -10   6  151.88   42.00
   1 -10   6   29.30   20.50
   1 -10   6   44.20   21.50
  -1 -10   6   30.70   17.80
  -1 -10   6    1.30   16.80
   2 -10   6   -1.00   20.20
  -2 -10   6    8.20   15.10
  -2 -10   6   32.50   22.60
   3 -10   6   10.50   18.20
   3 -10   6   22.20   18.50
   0 -11   6  -11.40   18.70
   1 -11   6   12.00   19.70
   2 -11   6   30.30   28.30
   0   0   7    3.60    3.50
   0   0  -7   -5.20    2.20
   0   0   7   -0.60    2.40
  -1   0   7 2684.33  175.28
   1   0  -7 3372.86  201.78
  -1   0  -7 3503.35  171.68
  -1   0   7 3039.60  180.08
  -2   0  -7  360.36   26.00
   2   0   7  334.27   29.40
   2   0   7  366.76   26.90
  -2   0   7  329.77   35.80
   3   0   7  960.60   60.09
  -3   0   7  812.82   69.59
  -4   0   7  737.63   63.19
  -4   0   7  651.83   56.19
   4   0   7  669.93   49.10
   5   0   7   11.30    7.50
  -5   0   7   19.20    9.50
  -5   0   7    6.40    8.30
  -6   0   7  133.59   26.20
  -6   0   7  177.08   36.10
   6   0   7  160.38   22.80
  -7   0   7  290.87   37.30
   7   0   7  304.07   36.10
  -7   0   7  283.97   42.00
   8   0   7   15.10   14.50
  -8   0   7   25.50   10.90
  -8   0   7   38.20   22.30
   9   0   7  444.46   53.39
  -9   0   7  677.43   72.39
  -9   0   7  614.04   56.99
  10   0   7   -1.90   19.30
 -10   0   7    6.90   25.30
   0  -1   7   36.80   11.90
   0   1  -7   46.40   11.50
   0   1   7   50.99   11.70
   0  -1   7   30.50    9.30
   0   1   7   35.20   11.00
   0   1  -7   23.10    8.30
   1  -1   7 2247.88  133.89
   1   1  -7 2483.15  141.69
  -1   1   7 2455.75  138.19
   1  -1   7 2364.36  136.49
  -1   1   7 2337.37  142.59
  -1   1  -7 2049.70  132.59
  -1  -1   7 2642.84  140.39
   1   1   7 2274.67  132.99
   2  -1   7  386.36   33.70
   2  -1   7  359.76   29.80
  -2   1   7  445.26   42.40
   2   1  -7  330.47   37.00
  -2   1   7  450.35   40.20
   2   1  -7  352.26   35.00
  -2  -1   7  351.26   39.40
  -2   1  -7  320.57   29.90
  -2   1  -7  463.05   32.40
   2   1   7  418.06   30.60
   2   1   7  444.16   29.70
  -2  -1   7  408.56   43.70
  -3   1   7  871.41   66.99
  -3   1   7  871.91   71.59
   3  -1   7  861.11   53.69
   3  -1   7  912.21   62.29
  -3   1  -7  961.60   58.19
  -3   1  -7  915.91   54.49
   3   1   7  841.02   55.99
  -3  -1   7  928.71   66.49
  -4   1   7  150.48   27.00
  -4   1   7  120.19   27.70
   4  -1   7  126.29   22.00
  -4  -1   7   99.79   21.00
  -4   1  -7  102.19   13.70
   4   1   7  122.99   14.30
  -4  -1   7   99.99   24.10
  -5   1   7  218.18   31.00
  -5   1   7  149.88   32.40
   5  -1   7  248.28   28.10
  -5  -1   7  225.48   32.10
   5   1   7  182.08   21.00
  -5  -1   7  221.08   28.30
  -6   1   7   81.89   24.90
  -6   1   7   56.59   17.50
   6  -1   7   97.79   21.90
   6   1   7  100.59   18.40
  -6  -1   7   72.99   24.10
  -6  -1   7   52.79   16.70
   7  -1   7  525.25   52.79
  -7   1   7  480.75   59.29
  -7   1   7  581.84   56.39
   7   1   7  517.35   46.60
  -7  -1   7  568.84   61.89
  -7  -1   7  534.95   50.79
  -8   1   7   11.20   14.50
  -8   1   7   22.30   14.80
   8   1   7   45.30   16.10
  -8  -1   7   41.20   20.60
  -8  -1   7   24.50   16.30
  -9   1   7  316.67   60.69
  -9   1   7  363.36   45.50
   9  -1   7  418.46   50.29
   9   1   7  437.26   48.70
  -9  -1   7  355.26   42.90
  -9  -1   7  322.27   58.89
 -10   1   7  -16.00   19.10
 -10  -1   7   -2.70   23.10
   0   2  -7    2.40    4.10
   0  -2   7   -2.00    3.00
   0   2  -7   -0.40    3.90
   0  -2   7    2.70    3.20
   0   2   7    5.20    4.20
   1   2  -7 2153.58  148.09
   1  -2   7 2851.21  149.09
   1  -2   7 2510.05  145.89
  -1   2   7 2674.43  148.19
   1   2  -7 2291.67  146.39
  -1   2  -7 2933.11  149.29
  -1  -2   7 2510.85  148.49
   1   2   7 2410.26  139.99
  -1  -2   7 2362.96  150.58
  -2   2   7    4.10    5.60
   2  -2   7   13.20    6.40
   2  -2   7    4.50    5.00
   2   2   7   10.60    5.00
  -2   2  -7    0.90    4.70
  -2   2  -7   11.30    6.20
  -2  -2   7    8.30    5.00
  -2  -2   7    2.90    5.50
   3  -2   7  375.66   37.60
  -3   2   7  497.55   44.80
   3  -2   7  469.45   34.80
   3   2   7  451.55   30.70
  -3  -2   7  424.46   39.90
  -3  -2   7  435.86   45.80
  -3   2  -7  449.16   35.60
  -4   2   7  168.38   30.50
   4  -2   7  117.29   15.80
   4  -2   7  224.28   25.70
  -4  -2   7  157.18   32.10
  -4   2  -7  154.48   17.50
  -4  -2   7  189.18   23.80
   4   2   7  164.78   15.20
  -5   2   7   -1.10    5.20
  -5   2   7    1.60    8.60
   5  -2   7   19.00   11.30
  -5  -2   7    4.40    6.00
   5   2   7   14.00    5.00
  -5  -2   7   -6.00    7.60
  -5   2  -7   17.70    7.30
   6  -2   7  101.99   23.40
  -6   2   7   97.29   25.30
  -6   2   7   88.29   35.80
  -6  -2   7   64.99   21.00
  -6  -2   7   90.69   20.20
  -6   2  -7  141.39   17.20
   6   2   7  135.79   16.80
   7  -2   7  212.28   37.40
  -7   2   7  195.98   37.90
  -7   2   7   99.79   31.00
   7   2   7  221.78   25.20
  -7  -2   7  180.58   28.80
  -7  -2   7  218.58   45.30
  -8   2   7   15.30   16.10
   8  -2   7   27.80   15.30
  -8  -2   7   19.50   14.60
  -8  -2   7    0.50   15.10
   8   2   7   22.80   13.20
  -9   2   7  346.37   91.29
  -9   2   7  387.66   50.69
   9  -2   7  437.66   54.99
  -9  -2   7  431.86   60.09
  10  -2   7  -23.90   16.20
 -10   2   7   31.80   22.50
 -10  -2   7    8.10   30.00
   0   3  -7    4.70    6.20
   0  -3   7   15.80    7.60
   0  -3   7    5.10    5.00
  -1   3   7 1265.77   84.49
   1  -3   7 1117.29   85.29
   1  -3   7 1337.47   87.19
  -1  -3   7 1408.36   87.89
  -1  -3   7 1325.97   91.89
  -1   3  -7 1334.97   88.89
   2  -3   7  220.38   25.60
  -2   3   7  232.98   27.50
   2  -3   7  245.18   27.80
  -2  -3   7  200.18   25.20
  -2   3  -7  176.48   24.50
  -2  -3   7  196.28   29.20
   2   3   7  204.28   21.70
  -3   3   7  748.33   59.99
   3  -3   7  699.73   52.29
   3  -3   7  662.93   55.99
  -3   3  -7  725.23   53.79
   3   3   7  703.63   47.10
  -3  -3   7  628.24   53.69
  -3  -3   7  729.53   63.29
   3   3   7  696.43   43.80
   4  -3   7  102.19   22.80
  -4   3   7  108.49   24.30
   4  -3   7   88.99   17.20
  -4  -3   7  135.09   23.20
  -4   3  -7  125.29   17.80
  -4  -3   7   99.69   24.20
  -5   3   7   44.60   16.40
   5  -3   7  122.29   27.40
  -5  -3   7   88.49   23.50
  -5   3  -7   84.09   17.60
  -5  -3   7   63.39   16.90
  -6   3   7   28.50   13.30
   6  -3   7   17.00   11.10
  -6  -3   7   12.60   10.90
  -6   3  -7   53.79   13.90
  -6  -3   7   19.50   12.80
  -7   3   7  358.66   49.60
   7  -3   7  336.97   45.60
  -7   3   7  372.46   45.40
   7   3   7  312.47   30.10
  -7  -3   7  284.67   51.89
  -7  -3   7  362.96   36.30
  -8   3   7   73.19   26.30
   8  -3   7   50.99   26.00
  -8   3   7   56.19   25.70
  -8  -3   7   63.39   14.90
  -8  -3   7   25.40   20.30
  -9   3   7  261.17   53.59
   9  -3   7  256.27   48.70
  -9   3   7  184.18   40.70
  -9  -3   7  113.09   48.40
 -10   3   7   -7.60   24.80
   0  -4   7    6.60    5.00
   0  -4   7    2.70    4.50
   1  -4   7 1606.24  107.29
   1  -4   7 1579.14  107.29
  -1  -4   7 1648.04  107.19
  -1  -4   7 1665.43  112.29
   1   4   7 1629.24  103.49
   2  -4   7   29.20   12.30
   2  -4   7   53.69   15.80
  -2  -4   7   38.10   13.60
   2   4   7   35.30   11.50
  -2  -4   7   20.80    8.70
   3  -4   7  344.47   36.80
   3  -4   7  257.37   52.59
  -3   4   7  293.67   34.50
   3   4   7  244.98   26.50
  -3  -4   7  308.67   31.20
  -3  -4   7  232.88   34.70
  -3   4  -7  258.97   32.10
   4  -4   7  257.47   28.30
  -4   4   7  216.98   30.60
   4  -4   7  243.48   33.80
  -4  -4   7  190.18   36.40
  -4  -4   7  186.58   25.00
  -4   4  -7  171.08   29.40
   4   4   7  211.38   21.70
  -5   4   7    9.60    8.80
   5  -4   7  -12.50    9.20
  -5  -4   7   15.30   10.20
  -5  -4   7    6.20    6.60
  -5   4  -7   -5.20    8.60
  -6   4   7  163.88   33.50
   6  -4   7  205.58   39.80
  -6  -4   7  143.69   34.80
  -6  -4   7  143.49   24.50
  -6   4  -7  115.09   25.10
   7  -4   7  130.79   33.40
  -7   4   7  116.39   27.90
  -7  -4   7   95.49   19.00
  -7  -4   7  111.09   28.70
   8  -4   7    5.20   16.10
  -8   4   7    7.40   20.40
  -8   4   7    8.50   15.80
  -8  -4   7   15.70   17.20
  -8   4  -7  -26.30   10.70
  -9   4   7  258.47   45.10
   9  -4   7  297.77   64.09
  -9   4   7  204.08   50.29
  -9  -4   7  315.17   58.79
   0  -5   7   19.10    9.60
   0  -5   7    4.70    6.40
   1  -5   7 1101.59   81.59
   1  -5   7 1218.68   86.59
  -1  -5   7 1040.80   78.59
  -1  -5   7  999.60   84.29
   2  -5   7  107.49   24.90
   2  -5   7   91.89   21.90
  -2  -5   7   95.99   20.10
  -2  -5   7  104.89   24.70
   3  -5   7  592.64   54.99
   3  -5   7  525.65   49.00
   3   5   7  451.15   42.00
  -3  -5   7  444.26   52.49
  -3  -5   7  435.66   42.80
   4  -5   7   20.30   11.20
   4  -5   7   11.60   16.10
  -4  -5   7   25.80   12.10
  -4  -5   7    9.40   10.00
   4   5   7   28.10   11.10
   5  -5   7   70.09   22.50
  -5   5   7   72.69   24.10
   5   5   7   96.79   17.40
  -5  -5   7   83.89   25.90
  -5  -5   7   81.29   18.20
   6  -5   7  -15.00    9.50
  -6   5   7    4.20   11.90
  -6  -5   7   -0.60    8.20
  -6  -5   7  -11.10    9.50
  -7   5   7  329.87   46.70
   7  -5   7  277.67   51.49
  -7  -5   7  272.97   51.49
   8  -5   7   42.10   20.70
  -8   5   7   51.59   23.20
  -8  -5   7   38.50   36.20
   0  -6   7    4.80    6.50
   0  -6   7    6.90    6.20
   1  -6   7 1174.68   93.09
   1  -6   7 1063.39   89.09
  -1  -6   7 1343.37   90.29
  -1  -6   7 1213.78   95.89
   2  -6   7    3.00    5.80
   2  -6   7   12.10    9.60
  -2  -6   7   -1.50    7.50
  -2  -6   7   -7.00    6.80
   3  -6   7  370.86   43.00
   3  -6   7  350.76   43.60
  -3  -6   7  278.77   42.80
  -3  -6   7  363.06   36.60
   4  -6   7  105.09   28.40
   4  -6   7  140.59   28.10
  -4  -6   7  138.49   35.00
  -4  -6   7  115.49   21.00
  -5   6   7   10.90   10.60
   5  -6   7    5.80   13.50
  -5  -6   7    4.10   11.40
  -5  -6   7    6.30   11.00
  -6   6   7   58.59   21.90
   6  -6   7   36.60   23.00
  -6  -6   7   19.50   17.50
   7  -6   7  178.88   44.70
  -7   6   7  168.78   39.40
  -7  -6   7  137.49   38.60
  -8  -6   7  -18.20   17.10
   0  -7   7   54.79   18.10
   0  -7   7   37.10   18.10
   1  -7   7  976.80   78.19
   1  -7   7  703.63   79.69
  -1  -7   7  817.52   70.09
  -1  -7   7  822.42   78.79
   2  -7   7  149.19   31.90
  -2  -7   7  160.58   30.10
  -2  -7   7  191.68   41.80
   3  -7   7  331.97   60.39
   3  -7   7  309.77   44.50
  -3  -7   7  319.27   45.70
  -3  -7   7  348.57   37.80
   3   7   7  320.17   32.00
   4  -7   7  103.79   26.90
   4  -7   7   88.69   29.40
  -4  -7   7   60.99   26.60
  -4  -7   7  127.49   23.30
   5  -7   7  151.08   39.00
  -5  -7   7  116.59   31.70
  -5  -7   7  108.59   22.30
   6  -7   7   44.70   29.90
  -6   7   7   27.70   17.80
  -6  -7   7  111.19   48.70
  -7  -7   7  109.19   36.80
   0  -8   7   -9.50    7.60
   0  -8   7    0.50   11.00
   1  -8   7  713.43   69.19
   1  -8   7  588.24   68.19
  -1  -8   7  585.04  104.59
  -1  -8   7  848.52   80.29
   2  -8   7   -8.80   13.00
   2  -8   7   38.20   19.70
  -2  -8   7   34.30   15.60
  -2  -8   7   -4.20   11.80
   3  -8   7  166.88   38.30
   3  -8   7  187.28   39.00
  -3  -8   7  219.48   34.70
  -3  -8   7  182.88   42.60
   4  -8   7  115.79   30.70
   4  -8   7  129.79   38.00
  -4  -8   7  103.99   32.60
  -4  -8   7  111.79   23.20
   5  -8   7   12.50   12.80
  -5  -8   7   11.10   15.00
  -6  -8   7   17.10   17.50
   0  -9   7   19.60   14.10
   0  -9   7   26.80   16.70
   1  -9   7  329.07   47.70
   1  -9   7  329.97   59.69
  -1  -9   7  330.17   43.70
  -1  -9   7  344.17   61.59
   2  -9   7   10.30   19.90
   2  -9   7   16.50   20.90
   3  -9   7  119.99   35.70
   3  -9   7  134.89   34.60
  -3  -9   7  239.18   51.59
  -3  -9   7  147.39   29.60
   4  -9   7    0.10   15.60
  -4  -9   7   -3.80   19.00
   0 -10   7   19.00   16.40
   0 -10   7    7.10   17.60
   1 -10   7  247.28   48.30
   1 -10   7  275.07   54.49
  -1 -10   7  281.37   57.69
  -1 -10   7  372.26   48.10
   2 -10   7   -6.10   16.40
   2 -10   7    4.10   14.70
  -2 -10   7   -5.90   18.20
   3 -10   7   32.50   29.80
   0 -11   7   47.40   44.30
   1 -11   7  139.29   37.80
   0   0   8 3390.56  207.98
   0   0   8 4303.87  214.28
   0   0  -8 3652.53  206.48
   1   0   8  288.07   27.80
   1   0  -8  282.97   28.60
  -1   0   8  340.67   34.30
   1   0   8  234.68   26.50
  -1   0   8  334.47   32.20
  -1   0  -8  343.27   27.40
  -2   0   8   19.60    8.80
   2   0   8   37.10   10.10
  -2   0   8   20.00   10.50
  -2   0  -8   31.00    7.50
   2   0   8   24.10    7.20
  -3   0   8  111.19   21.70
  -3   0   8  142.99   29.10
   3   0   8  162.18   19.20
  -4   0   8  623.94   60.89
   4   0   8  638.84   48.10
  -4   0   8  682.63   58.49
  -5   0   8  806.52   67.99
   5   0   8  781.62   58.89
  -5   0   8  836.72   73.69
  -6   0   8  332.47   47.50
   6   0   8  469.45   41.80
  -6   0   8  435.46   45.80
   7   0   8   20.90   13.20
  -7   0   8   11.00   13.00
  -7   0   8   23.40   14.70
   8   0   8    0.70   11.00
  -8   0   8   12.30   13.20
  -8   0   8  -11.80   10.20
  -9   0   8    9.50   19.90
  -9   0   8  -12.70   15.20
   9   0   8  -19.70   14.40
   0  -1   8    3.50    5.30
   0   1   8    1.40    4.40
   0  -1   8   -0.10    4.50
   0   1  -8   -3.40    4.90
   0   1  -8    2.50    4.70
  -1   1   8   86.99   20.00
  -1   1   8  108.59   20.20
   1   1  -8  133.19   18.80
   1   1  -8  118.49   22.50
   1  -1   8  131.39   17.40
   1  -1   8  129.69   18.50
   1   1   8  139.59   18.20
  -1   1  -8  114.59   16.30
   1   1   8  100.19   14.60
  -1   1  -8   95.89   17.80
  -1  -1   8   79.19   19.40
  -1  -1   8   99.89   19.10
   2  -1   8 2128.29  118.09
  -2   1   8 1985.80  131.39
  -2   1   8 2133.99  128.19
   2  -1   8 1777.22  120.09
   2   1   8 1942.31  116.79
  -2   1  -8 1933.21  117.09
  -2  -1   8 1973.30  130.69
   2   1   8 2243.58  116.29
  -2   1  -8 2018.00  118.49
  -2  -1   8 2258.77  129.09
   3  -1   8  434.66   41.50
   3  -1   8  573.74   37.60
  -3   1   8  492.65   51.69
  -3   1   8  507.25   48.60
  -3   1  -8  510.05   37.10
   3   1   8  562.74   40.70
  -3  -1   8  546.15   52.89
  -3  -1   8  567.54   49.10
  -3   1  -8  672.93   42.20
  -4   1   8   -2.80    6.30
   4  -1   8    9.70    6.10
  -4   1   8    1.00    5.30
  -4   1  -8    2.30    4.40
  -4  -1   8    5.50    6.00
  -4  -1   8   -8.40    4.30
   4   1   8    8.70    4.60
  -5   1   8    1.50    9.40
  -5   1   8   -5.80    6.50
   5  -1   8   -6.70    5.90
   5   1   8    6.40    5.70
  -5  -1   8   10.10    9.00
  -5  -1   8   -4.30    7.10
   6  -1   8   40.70   14.50
  -6   1   8   17.60   14.80
  -6   1   8   27.40   20.10
   6   1   8   33.70   11.30
  -6  -1   8   29.10   16.00
  -6  -1   8   31.50   12.30
  -7   1   8  180.68   35.70
  -7   1   8  123.69   31.40
   7  -1   8  107.29   24.80
  -7  -1   8   79.69   23.80
  -7  -1   8   89.19   23.20
   7   1   8  142.79   23.40
  -8   1   8  695.23   74.89
   8  -1   8  810.92   69.69
  -8   1   8  743.53   69.29
  -8  -1   8  643.14   62.49
  -8  -1   8  678.53   74.89
   8   1   8  661.23   60.89
  -9   1   8   66.49   28.30
   9  -1   8   21.80   17.10
  -9   1   8   -1.60   17.20
   9   1   8    5.70   17.70
  -9  -1   8   19.10   19.30
  -9  -1   8    3.90   19.60
  10  -1   8   33.50   21.20
   0  -2   8 2854.21  170.08
   0   2   8 2934.61  166.38
   0   2  -8 2905.91  170.98
   0  -2   8 2911.71  171.68
   0   2  -8 2955.40  179.98
   1  -2   8    0.70    3.80
   1  -2   8    5.20    4.70
  -1   2   8    2.10    5.10
  -1  -2   8   -1.20    3.80
  -1  -2   8    3.50    5.10
  -1   2  -8    4.80    4.00
  -1   2  -8   -0.90    3.80
   1   2   8    5.80    4.00
   2  -2   8   60.89   13.90
   2  -2   8   57.79   14.80
  -2   2   8   54.99   14.40
  -2  -2   8   39.00   12.20
  -2   2  -8   54.19   12.90
  -2  -2   8   59.89   17.30
  -2   2  -8   27.90    9.00
   3  -2   8  158.68   18.60
   3  -2   8  168.98   22.50
  -3   2   8  189.78   26.10
  -3  -2   8  213.08   29.20
   3   2   8  166.18   15.70
  -3  -2   8  158.98   27.80
  -3   2  -8  168.58   19.70
   3   2   8  164.48   16.90
  -3   2  -8  153.28   20.40
   3   2   8  161.68   15.50
   4  -2   8  401.86   31.10
  -4   2   8  389.56   42.90
  -4   2   8  367.96   46.20
   4  -2   8  404.36   39.20
  -4   2  -8  444.86   42.50
  -4   2  -8  359.26   30.80
  -4  -2   8  413.06   40.50
   4   2   8  424.96   31.00
  -4  -2   8  355.76   45.10
  -5   2   8  241.38   34.70
   5  -2   8  353.86   36.60
  -5   2   8  287.87   41.10
   5   2   8  250.17   23.40
  -5  -2   8  282.57   34.40
  -5   2  -8  296.67   27.80
  -5  -2   8  258.67   38.80
  -6   2   8  301.57   43.90
  -6   2   8  296.07   38.50
   6  -2   8  298.27   37.10
  -6  -2   8  249.08   45.80
   6   2   8  251.97   24.90
  -6  -2   8  277.17   34.10
  -6   2  -8  262.27   25.00
  -7   2   8  145.19   33.20
  -7   2   8  192.18   40.80
  -7  -2   8  142.79   36.00
   7   2   8   85.89   19.00
  -7  -2   8  158.88   27.20
  -8   2   8    1.20   11.70
   8  -2   8   18.70   14.10
  -8   2   8   11.70   15.50
   8   2   8    1.60   12.80
  -8  -2   8   -5.20   15.40
  -8  -2   8   -4.20   13.20
  -9   2   8    6.50   26.90
  -9   2   8    6.40   16.90
   9  -2   8   -0.30   18.20
  -9  -2   8   17.60   21.30
 -10   2   8  404.96   57.89
   0  -3   8   -4.00    3.90
   0   3   8    2.90    4.00
   0  -3   8    8.20    6.30
   1  -3   8  202.28   25.60
   1  -3   8  223.38   27.70
  -1   3   8  206.38   25.30
  -1  -3   8  222.18   27.60
   1   3   8  218.18   22.50
  -1   3  -8  192.18   26.10
  -1  -3   8  220.58   30.00
  -2   3   8 2540.65  143.99
   2  -3   8 2442.66  138.59
   2  -3   8 2178.98  140.29
  -2   3  -8 2103.09  137.49
   2   3   8 2268.47  132.19
  -2  -3   8 2189.98  147.29
  -2  -3   8 2305.57  141.29
   3  -3   8  163.98   21.30
  -3   3   8  165.08   31.30
   3  -3   8  195.48   26.30
   3   3   8  175.68   18.70
  -3  -3   8  161.58   28.30
  -3  -3   8  151.78   32.00
  -3   3  -8  151.68   22.60
   3   3   8  146.29   15.40
   4  -3   8   59.29   14.40
   4  -3   8   40.70   13.90
  -4   3   8   52.19   17.20
  -4   3  -8   32.20   11.30
  -4  -3   8   43.10   15.20
   5  -3   8   12.70   10.50
  -5   3   8    4.40    8.10
  -5  -3   8    2.60    7.10
  -5   3  -8   12.30    7.90
  -5  -3   8    3.20    7.20
  -6   3   8   22.60   16.40
  -6   3   8   35.20   17.30
  -6   3  -8   44.00   12.30
   6   3   8   40.70    9.00
  -6  -3   8   56.59   15.10
  -6  -3   8   26.20   15.60
   7  -3   8   57.09   21.90
  -7   3   8   81.29   25.20
  -7   3   8   55.39   23.50
  -7  -3   8   53.19   15.90
   7   3   8   73.29   14.70
  -7  -3   8  102.29   28.40
   8  -3   8  706.43   74.89
  -8   3   8  835.42   80.59
  -8   3   8  816.02   88.79
  -8  -3   8  802.82   64.09
  -8  -3   8  785.32   83.29
  -9   3   8   37.50   31.40
   9  -3   8   27.50   24.40
  -9   3   8  100.49   29.40
  -9  -3   8   57.89   27.20
   0  -4   8 3289.67  203.28
   0  -4   8 3566.74  203.18
   1  -4   8    1.90    5.20
   1  -4   8    3.40    5.50
  -1  -4   8    3.20    4.30
  -1  -4   8    8.00    7.00
   1   4   8   -3.80    5.30
   2  -4   8   10.50    6.50
   2  -4   8    9.80    7.20
  -2   4   8   10.80    7.50
  -2  -4   8    2.70    7.30
  -2  -4   8   10.60    6.50
   2   4   8   -1.50    5.90
   3  -4   8   98.99   21.20
  -3   4   8  121.89   24.80
   3  -4   8   95.29   22.30
  -3  -4   8   71.09   18.80
  -3  -4   8   94.29   26.50
   3   4   8  124.09   16.80
   4  -4   8  530.15   56.79
   4  -4   8  546.45   55.19
  -4   4   8  553.34   55.89
   4   4   8  579.64   40.70
  -4  -4   8  573.44   50.79
  -4  -4   8  576.44   60.99
   5  -4   8  175.08   37.00
  -5   4   8  210.38   38.70
  -5  -4   8  196.98   40.30
  -5  -4   8  235.98   28.90
  -5   4  -8  150.28   27.40
   6  -4   8  591.84   60.89
  -6   4   8  377.86   49.90
  -6  -4   8  375.56   51.39
  -6  -4   8  466.65   43.70
  -7   4   8  103.79   31.40
   7  -4   8   62.99   23.50
  -7   4   8  126.49   30.20
  -7  -4   8  129.99   25.00
  -7  -4   8  136.19   39.10
  -8   4   8  -17.00   12.10
  -8   4   8   -6.20   16.10
   8  -4   8    7.20   32.60
  -8  -4   8   10.80   29.20
   0  -5   8   -4.30    5.90
   1  -5   8  175.18   32.70
   1  -5   8  149.88   28.30
  -1  -5   8  135.79   28.30
  -1  -5   8  102.89   23.00
   2  -5   8 1003.90   84.89
   2  -5   8 1211.88   88.19
  -2  -5   8 1177.28   94.39
  -2  -5   8 1195.38   84.79
  -3   5   8  133.09   28.20
   3  -5   8  150.18   28.80
   3  -5   8  138.49   31.40
  -3  -5   8  140.19   27.80
   3   5   8  125.19   23.30
  -3  -5   8  122.69   28.20
   4  -5   8   -2.90    6.80
  -4   5   8   18.70    9.90
   4  -5   8    8.70    9.60
   4   5   8    2.70    6.00
  -4  -5   8   11.90   11.30
  -4  -5   8   -3.90    7.20
  -5   5   8   10.10   10.80
   5  -5   8    9.00   13.60
  -5  -5   8   14.70   12.60
  -5  -5   8   -2.40    6.60
   5   5   8    4.80    7.60
  -6   5   8   20.80   14.50
   6  -5   8   25.90   16.90
  -6  -5   8   13.00   11.30
  -6  -5   8    5.70   14.50
  -7   5   8   48.20   20.70
   7  -5   8   22.10   19.40
  -7  -5   8   20.60   16.40
  -7  -5   8   21.30   20.60
  -8   5   8  328.87   69.09
   8  -5   8  483.85   63.59
  -8  -5   8  319.17   58.49
   0  -6   8 1237.18   93.99
   0  -6   8 1305.47  100.49
   1  -6   8   18.30   11.80
   1  -6   8   11.00    9.40
  -1  -6   8   13.80   10.10
  -1  -6   8   17.40    9.90
   2  -6   8   10.60   10.90
   2  -6   8   21.80   14.50
  -2  -6   8   11.60   11.00
  -2  -6   8   22.30   10.90
   3  -6   8   56.09   19.50
   3  -6   8   88.79   24.50
  -3  -6   8   77.59   23.60
  -3  -6   8   66.29   16.80
   4  -6   8  228.68   45.30
   4  -6   8  179.38   33.40
  -4   6   8  172.68   35.20
  -4  -6   8  190.48   39.70
  -4  -6   8  178.88   29.10
   5  -6   8  301.57   52.99
  -5   6   8  295.97   50.99
  -5  -6   8  227.28   46.40
  -5  -6   8  238.08   30.00
   6  -6   8  170.68   45.70
  -6  -6   8  109.59   34.20
  -6  -6   8  113.39   21.90
   7  -6   8   34.00   24.10
  -7   6   8   35.90   19.30
  -7  -6   8   -4.50   21.30
   0  -7   8    1.60    9.20
   0  -7   8    9.30   11.60
   1  -7   8   21.70   14.20
   1  -7   8   16.90   14.40
  -1  -7   8   47.00   18.70
  -1  -7   8   19.20   14.00
   2  -7   8  932.11   82.39
   2  -7   8  834.02   79.59
  -2  -7   8 1012.50   77.29
  -2  -7   8  904.31   85.99
   3  -7   8  340.87   47.30
   3  -7   8  275.37   38.80
  -3  -7   8  289.77   36.20
  -3  -7   8  330.07   49.10
   4  -7   8   -8.30   14.10
   4  -7   8   20.20   15.30
  -4  -7   8   31.00   13.80
  -4  -7   8   19.00   14.50
  -5   7   8   -0.90   15.20
   5  -7   8    5.00   23.20
  -5  -7   8    3.80   13.10
  -5  -7   8  -16.60   13.30
   6  -7   8  -31.40   13.20
  -6   7   8   14.80   15.60
  -6  -7   8   32.00   20.50
   0  -8   8 1169.18  101.29
   0  -8   8 1085.59   92.49
   1  -8   8   10.80   12.80
   1  -8   8   38.00   19.90
  -1  -8   8   19.40   16.20
  -1  -8   8    0.50   10.80
   2  -8   8    7.30    8.90
   2  -8   8   19.90   13.90
  -2  -8   8    3.90   14.90
  -2  -8   8   20.10   12.80
   3  -8   8   24.70   20.70
   3  -8   8   36.10   17.20
  -3  -8   8   38.10   19.40
  -3  -8   8   60.59   18.00
   4  -8   8  202.58   45.00
   4  -8   8  171.68   38.90
  -4  -8   8  211.88   49.60
  -4  -8   8  135.19   28.10
   5  -8   8  155.78   43.40
  -5  -8   8  146.79   38.80
   0  -9   8    1.00   16.30
   0  -9   8  -25.10    9.40
   1  -9   8   13.60   17.40
   1  -9   8   33.20   22.70
  -1  -9   8   52.79   18.60
  -1  -9   8   18.70   28.60
   2  -9   8  431.26   59.49
   2  -9   8  394.56   66.79
  -2  -9   8  473.55   67.59
  -2  -9   8  469.75   53.39
   3  -9   8   41.70   27.40
   3  -9   8   40.80   24.00
  -3  -9   8   46.30   22.70
   4  -9   8    4.40   19.70
   0 -10   8  637.64   69.69
   1 -10   8   17.40   20.30
  -1 -10   8   32.00   20.10
   2 -10   8   33.10   23.30
  -2 -10   8  -13.70   21.80
   0 -11   8  -22.70   22.90
   0   0  -9    0.90    4.60
   0   0   9   -0.40    4.00
   0   0   9   -7.40    3.00
   1   0  -9    5.00    5.70
   1   0   9   18.50    8.40
  -1   0  -9    4.50    5.20
   1   0   9   12.80    6.80
  -1   0   9   14.10    6.90
  -1   0   9    5.80    4.80
  -2   0   9   32.30   11.70
   2   0   9   30.70    9.80
  -2   0   9   38.30   14.20
  -2   0  -9   24.90    7.00
   2   0   9   17.70    8.10
   3   0   9 1028.30   68.29
   3   0   9 1000.20   58.89
  -3   0   9  905.21   74.39
  -3   0   9  937.21   78.79
   4   0   9  668.63   52.59
  -4   0   9  709.43   67.29
  -4   0   9  746.53   63.69
  -5   0   9    3.20    6.80
   5   0   9    5.40    6.30
  -5   0   9    2.70    6.40
   6   0   9  568.74   49.60
  -6   0   9  530.75   62.19
  -6   0   9  637.24   60.09
  -7   0   9  296.07   38.80
   7   0   9  225.78   32.10
  -7   0   9  293.67   55.69
  -8   0   9   12.20   15.00
   8   0   9    6.20   14.30
  -8   0   9  -27.30   11.10
  -9   0   9   28.50   18.80
  -9   0   9   -1.20   19.90
   9   0   9   16.50   18.60
   0   1  -9   23.40    9.70
   0  -1   9   35.30   11.90
   0  -1   9   29.40   10.20
   0   1   9   44.80   13.90
   0   1   9   52.79   14.60
   0   1  -9   28.00    9.50
  -1   1   9  691.13   58.69
   1  -1   9  655.53   52.19
   1  -1   9  680.53   53.99
  -1   1   9  698.73   56.09
  -1  -1   9  710.63   59.09
   1   1   9  672.73   51.29
  -1  -1   9  664.13   55.29
   1   1   9  696.03   51.79
   2  -1   9  543.75   42.30
  -2   1   9  659.93   53.19
   2  -1   9  520.15   45.40
  -2   1   9  524.15   52.29
  -2   1  -9  538.25   42.40
  -2  -1   9  488.35   47.20
   2   1   9  562.94   41.00
  -2  -1   9  557.54   52.79
  -2   1  -9  512.95   42.10
   2   1   9  585.44   43.10
   3  -1   9   15.50    8.00
   3  -1   9   18.70    6.00
  -3   1   9    4.30    5.40
  -3   1   9   14.00    9.80
   3   1   9   13.70    7.40
  -3  -1   9   11.40    7.30
  -3   1  -9    7.80    6.00
  -3  -1   9    0.70    7.10
  -4   1   9  479.65   49.90
   4  -1   9  455.45   41.80
  -4   1   9  361.46   48.40
   4   1   9  480.85   38.40
  -4   1  -9  496.55   33.70
  -4  -1   9  487.55   46.90
  -4  -1   9  386.36   48.00
  -5   1   9  970.80   90.59
   5  -1   9 1243.28   80.19
  -5   1   9 1034.30   86.69
  -5  -1   9  967.90   80.69
   5   1   9 1231.58   74.09
  -5  -1   9  891.41   86.39
  -6   1   9  194.58   38.60
  -6   1   9  137.09   34.20
   6  -1   9  154.98   29.20
   6   1   9  163.68   31.60
  -6  -1   9  174.98   38.30
  -6  -1   9  168.28   38.70
   7  -1   9   10.20   11.70
  -7   1   9    0.20   11.60
  -7   1   9    2.50   10.60
  -7  -1   9  -17.60    9.60
   7   1   9  -14.70    7.70
  -7  -1   9   13.20    9.80
   8  -1   9  143.59   32.80
  -8   1   9  167.08   38.50
  -8   1   9  110.89   29.70
   8   1   9  152.68   30.80
  -8  -1   9  111.39   28.40
  -8  -1   9  177.18   42.60
  -9   1   9   36.40   24.40
   9  -1   9   31.70   22.60
  -9   1   9   37.80   26.30
  -9  -1   9   15.70   21.70
  -9  -1   9   32.80   25.00
   0  -2   9    2.30    4.60
   0   2   9    3.30    4.50
   0  -2   9    3.40    4.40
   1  -2   9   61.99   15.60
  -1   2   9   79.59   17.90
   1  -2   9  116.19   22.40
  -1   2  -9   70.69   16.60
   1   2   9  105.79   19.60
  -1  -2   9   95.39   22.10
   1   2   9   72.39   16.60
  -1  -2   9  111.39   22.80
  -2   2   9   53.79   15.10
   2  -2   9   81.29   17.70
  -2   2   9   76.79   22.10
   2  -2   9   66.59   14.60
   2   2   9   52.39   11.80
   2   2   9   85.99   15.50
  -2  -2   9  127.69   28.10
  -2   2  -9   90.09   20.60
  -2   2  -9  105.29   19.70
  -2  -2   9   83.19   19.70
   3  -2   9 1805.12  106.99
  -3   2   9 1454.05  106.09
   3  -2   9 1529.65   94.09
  -3   2   9 1581.04  115.69
  -3  -2   9 1383.26  102.99
  -3  -2   9 1510.25  112.29
  -3   2  -9 1520.35   96.89
  -3   2  -9 1713.13   96.39
   3   2   9 1486.35   91.59
   3   2   9 1467.45   87.99
   3   2   9 1516.55   88.49
   4  -2   9  892.11   56.19
  -4   2   9  777.02   76.39
  -4   2   9  880.11   72.99
   4  -2   9  791.42   65.99
  -4  -2   9  906.31   78.99
  -4   2  -9  821.72   59.79
   4   2   9  932.31   58.09
  -4   2  -9  790.02   55.89
  -4  -2   9  942.51   71.29
   5  -2   9   13.40    8.10
  -5   2   9    8.50   12.60
  -5   2   9   25.80   16.20
  -5   2  -9   -5.70    8.00
   5   2   9   26.10    7.80
  -5  -2   9    1.30    9.00
  -5  -2   9    5.60    8.20
  -6   2   9  575.74   59.89
   6  -2   9  581.24   55.69
  -6   2   9  460.85   59.19
   6   2   9  516.75   41.00
  -6  -2   9  519.85   51.79
  -6  -2   9  480.85   58.99
   7  -2   9  342.67   46.80
  -7   2   9  392.96   50.49
  -7   2   9  418.16   56.59
  -7  -2   9  370.66   53.59
  -7  -2   9  414.16   44.30
   8  -2   9  -26.40   12.60
  -8   2   9   13.90   18.30
   8   2   9   -7.80   10.30
  -8  -2   9   -2.70   12.30
  -8  -2   9    9.50   18.40
  -9   2   9   16.00   19.20
   9  -2   9    9.60   24.80
  -9  -2   9   15.90   22.70
   0  -3   9  164.18   28.50
   0   3   9  170.68   24.40
   0  -3   9  195.98   28.00
   1  -3   9  383.36   39.50
   1  -3   9  392.56   40.90
  -1   3   9  408.96   40.10
  -1  -3   9  440.96   45.70
   1   3   9  463.25   37.90
  -1  -3   9  373.56   39.90
   2  -3   9  810.42   61.79
  -2   3   9  769.82   64.29
   2  -3   9  871.51   66.69
  -2  -3   9  817.92   71.19
   2   3   9  843.32   56.59
  -2   3  -9  704.43   60.29
   2   3   9  764.92   54.49
  -2  -3   9  823.82   65.39
   3  -3   9    0.20    5.90
  -3   3   9    8.10    9.00
   3  -3   9   -0.70    4.90
  -3   3  -9   -1.10    7.30
   3   3   9   13.30    5.70
   3   3   9   10.40    6.10
  -3  -3   9    5.00    7.90
  -3  -3   9    8.30    9.10
   4  -3   9  815.62   62.99
  -4   3   9  712.03   65.19
   4  -3   9  626.24   50.29
  -4  -3   9  725.93   60.79
   4   3   9  675.03   46.10
  -4   3  -9  699.03   64.99
  -4  -3   9  655.33   67.29
   5  -3   9  882.91   70.59
  -5   3   9  660.63   67.49
  -5   3   9  665.43   74.79
  -5  -3   9  823.42   77.19
  -5   3  -9  824.62   55.89
   5   3   9  744.73   50.09
  -5  -3   9  759.22   64.49
   6  -3   9  462.15   51.79
  -6   3   9  486.25   60.79
  -6   3   9  461.45   54.29
  -6  -3   9  466.65   57.79
   6   3   9  428.86   34.30
  -6  -3   9  477.95   47.30
  -7   3   9    9.80   16.40
  -7   3   9   -2.90   11.40
   7  -3   9    4.60   12.90
  -7  -3   9    4.60   12.30
  -7  -3   9   -1.80   12.70
   7   3   9   21.90    8.60
  -8   3   9   66.59   31.00
  -8   3   9   83.59   27.00
   8  -3   9   75.89   28.80
  -8  -3   9   68.49   28.00
   9  -3   9   73.09   27.20
   0   4   9    4.90    4.40
   0  -4   9   10.70    6.60
   0  -4   9   -4.50    5.10
   1  -4   9    7.20    8.70
  -1   4   9   16.40    8.60
   1  -4   9   20.70    9.50
   1   4   9   16.90    7.40
  -1  -4   9   17.30    9.50
  -1  -4   9   18.10   13.40
  -2   4   9  342.57   37.30
   2  -4   9  326.87   38.70
   2  -4   9  290.47   34.90
  -2  -4   9  249.18   33.40
   2   4   9  340.37   32.70
  -2  -4   9  379.96   44.60
   2   4   9  301.17   28.70
   3  -4   9  628.64   60.79
   3  -4   9  794.72   61.79
  -3   4   9  679.43   63.39
  -3  -4   9  752.22   70.89
   3   4   9  785.52   57.69
   3   4   9  769.82   50.69
  -3  -4   9  769.42   62.79
   4  -4   9  981.30   81.99
  -4   4   9 1020.80   84.59
   4  -4   9  993.40   72.59
   4   4   9  967.00   60.69
  -4  -4   9 1062.49   90.19
   4   4   9 1038.20   63.89
  -4  -4   9  988.20   76.49
   5  -4   9   14.80   10.20
  -5   4   9   16.10    8.80
  -5  -4   9    4.40   11.00
  -5   4  -9   11.10   13.80
  -5  -4   9   -0.60    9.10
   6  -4   9  477.55   57.99
  -6   4   9  543.25   59.89
  -6  -4   9  538.95   62.19
  -6  -4   9  490.65   47.80
   7  -4   9  176.28   38.80
  -7   4   9  156.28   42.50
  -7   4   9  191.68   45.00
  -7  -4   9  237.78   46.70
  -7  -4   9  209.78   33.80
  -8   4   9   52.99   24.20
   8  -4   9   27.70   22.50
  -8   4   9   45.30   22.90
  -8  -4   9   39.80   27.60
   0  -5   9    7.50    7.80
   0  -5   9   12.30   10.60
   1  -5   9  544.15   52.99
   1  -5   9  532.05   53.29
  -1  -5   9  571.54   57.79
  -1  -5   9  497.85   50.19
  -2   5   9  370.96   42.50
   2  -5   9  397.76   44.40
   2  -5   9  361.16   41.80
  -2  -5   9  455.25   45.70
  -2  -5   9  451.95   52.39
   3  -5   9   -1.40    7.60
  -3   5   9  -16.30    7.30
   3  -5   9    4.50    8.20
  -3  -5   9   14.50    9.90
  -3  -5   9   -6.20    5.60
   4  -5   9  381.96   39.50
  -4   5   9  421.96   47.70
   4  -5   9  348.17   44.80
  -4  -5   9  331.47   38.00
  -4  -5   9  277.07   51.29
   4   5   9  265.17   30.10
   5  -5   9  835.32   78.89
  -5   5   9  904.01   79.59
  -5  -5   9  722.43   78.09
  -5  -5   9  743.03   64.69
  -6   5   9  192.28   42.60
   6  -5   9  181.88   39.40
  -6  -5   9  176.08   31.10
  -6  -5   9  187.68   41.30
   7  -5   9    7.60   16.20
  -7   5   9   29.60   16.80
  -7  -5   9   -1.20   14.70
  -7  -5   9    0.00   18.60
   0  -6   9    1.30    8.80
   0  -6   9   -0.20   10.80
   1  -6   9   30.20   15.10
   1  -6   9   24.70   18.40
  -1  -6   9   25.70   11.70
  -1  -6   9   45.90   19.80
   2  -6   9   14.50   10.20
   2  -6   9   18.80   11.80
  -2  -6   9   15.30   11.10
  -2  -6   9    8.20    7.70
  -3   6   9  703.43   66.09
   3  -6   9  696.03   64.19
   3  -6   9  603.14   65.49
  -3  -6   9  625.94   58.59
  -3  -6   9  764.62   75.89
   4  -6   9  303.77   39.10
  -4   6   9  339.77   43.60
   4  -6   9  348.27   46.70
  -4  -6   9  267.47   34.70
  -4  -6   9  290.17   52.39
  -5   6   9   13.00   13.40
   5  -6   9   12.20   14.30
  -5  -6   9    8.90   11.70
  -5  -6   9    8.50   12.70
   6  -6   9  297.67   53.19
  -6   6   9  227.48   46.80
  -6  -6   9  341.07   67.19
  -6  -6   9  293.37   35.40
  -7  -6   9  219.18   49.40
   0  -7   9   15.40   14.70
   0  -7   9    2.40    8.00
   1  -7   9  134.89   31.50
   1  -7   9  132.09   32.40
  -1  -7   9  144.49   29.30
  -1  -7   9  187.68   41.70
   2  -7   9  178.88   38.30
   2  -7   9  202.08   37.90
  -2  -7   9  209.68   46.00
  -2  -7   9  197.28   35.90
   3  -7   9   -7.30   11.70
   3  -7   9    1.40    9.90
  -3  -7   9   11.30   15.40
  -3  -7   9   22.70   13.20
   4  -7   9  156.28   38.60
  -4   7   9  179.08   41.00
   4  -7   9  170.88   32.60
  -4  -7   9  196.18   43.40
  -4  -7   9  153.88   31.20
   5  -7   9  314.17   60.29
  -5   7   9  364.86   51.79
  -5  -7   9  392.96   42.30
  -5  -7   9  390.86   57.09
  -6  -7   9   88.19   30.60
   0  -8   9   -2.30   15.30
   0  -8   9   -8.70   11.20
   1  -8   9   15.00   14.60
   1  -8   9   20.60   15.50
  -1  -8   9   40.40   19.20
  -1  -8   9    5.60   15.00
   2  -8   9  -12.90   11.30
   2  -8   9    2.80   15.20
  -2  -8   9   19.40   18.30
  -2  -8   9    9.80   14.70
   3  -8   9  416.96  103.39
   3  -8   9  341.27   49.20
  -3  -8   9  430.66   47.50
  -3  -8   9  330.37   77.99
   4  -8   9  213.68   45.90
   4  -8   9  166.38   36.90
  -4  -8   9  234.98   48.50
   0  -9   9    0.90   14.40
   0  -9   9   27.30   19.40
   1  -9   9  159.28   44.50
   1  -9   9  197.28   42.20
  -1  -9   9  153.48   33.60
  -1  -9   9  142.89   40.80
   2  -9   9  100.29   35.40
   2  -9   9   98.69   27.90
  -2  -9   9  143.39   42.50
  -2  -9   9   79.59   27.50
   3  -9   9  -12.40   15.70
   3  -9   9    0.90   13.50
  -3  -9   9   -5.20   18.50
   4  -9   9  121.69   35.40
   0 -10   9    2.80   17.70
   1 -10   9   50.89   28.70
  -1 -10   9   29.80   22.50
  -2 -10   9   47.70   26.50
   0   0  10   49.40   13.70
   0   0 -10   38.60   11.20
  -1   0  10  566.64   52.99
   1   0  10  564.74   47.80
   1   0  10  583.54   47.70
  -1   0  10  576.04   50.59
  -2   0  10  518.75   52.49
  -2   0 -10  491.85   38.40
   2   0  10  603.64   47.70
   2   0  10  506.05   41.90
  -2   0  10  639.04   53.79
   3   0  10  182.78   17.80
  -3   0  10  132.09   26.10
  -3   0  10  155.58   33.60
   3   0  10  174.08   22.70
   4   0  10  602.64   47.60
  -4   0  10  520.95   54.29
  -4   0  10  557.34   59.59
  -5   0  10  354.26   49.00
   5   0  10  385.86   37.70
  -5   0  10  451.25   49.00
  -6   0  10  210.88   37.30
  -6   0  10  196.98   41.20
   6   0  10  238.08   28.90
  -7   0  10  106.49   26.40
  -7   0  10   82.09   30.50
   7   0  10   82.79   20.80
  -8   0  10  152.18   38.40
  -8   0  10  159.08   34.70
   8   0  10  146.69   33.40
  -9   0  10   -1.20   37.90
   9   0  10  126.39   31.60
   0  -1  10   -3.30    4.40
   0   1  10    9.40    6.80
   0  -1  10    0.10    6.00
  -1   1  10  558.34   53.19
   1  -1  10  514.45   46.70
   1  -1  10  494.05   47.40
  -1   1  10  615.04   52.29
   1   1  10  487.15   52.19
  -1  -1  10  633.44   52.49
  -1   1 -10  597.64   46.70
   1   1  10  627.74   48.40
  -1  -1  10  616.04   54.89
   2  -1  10   32.00    9.60
   2  -1  10   28.00   10.10
  -2   1  10   35.10   14.60
  -2   1  10   10.60    8.20
  -2  -1  10   20.40   10.10
  -2  -1  10   20.60   11.10
   2   1  10   21.70    8.50
  -2   1 -10   22.10    9.10
   2   1  10   16.80    9.20
   3  -1  10  668.83   46.70
   3  -1  10  603.34   52.59
  -3   1  10  702.63   66.39
  -3   1  10  693.33   61.59
   3   1  10  655.83   43.90
   3   1  10  656.43   50.79
  -3   1 -10  650.13   47.10
  -3  -1  10  576.24   61.79
  -3  -1  10  745.73   61.99
   4  -1  10  727.83   59.49
  -4   1  10  755.22   67.89
  -4   1  10  737.33   71.99
  -4   1 -10  713.93   47.50
  -4  -1  10  700.43   70.09
  -4  -1  10  891.51   69.59
   4   1  10  655.43   52.89
  -5   1  10   -5.40    8.10
  -5   1  10   15.90   11.50
   5  -1  10    0.60    8.10
  -5  -1  10    0.60    9.80
  -6   1  10  622.94   65.19
   6  -1  10  647.24   57.89
  -6   1  10  618.94   70.29
   6   1  10  713.73   53.59
  -6  -1  10  649.14   62.29
  -6  -1  10  611.14   69.69
  -7   1  10  310.67   57.29
  -7   1  10  252.87   45.10
   7  -1  10  309.97   65.49
   7   1  10  303.27   35.00
  -7  -1  10  333.77   42.90
  -7  -1  10  253.37   50.19
   8  -1  10   23.50   15.70
  -8   1  10    6.30   15.50
  -8   1  10  -12.60   14.40
   8   1  10    6.60   15.90
  -8  -1  10  -10.40   13.30
  -8  -1  10   14.50   18.70
   9  -1  10  177.88   35.40
  -9   1  10  119.59   33.20
  -9  -1  10  144.39   34.10
   0   2  10   72.09   16.60
   0   2  10   71.89   19.20
   0  -2  10   85.19   19.20
   0  -2  10  114.69   25.50
   1  -2  10  569.24   50.59
  -1   2  10  565.84   55.09
   1  -2  10  645.04   54.39
  -1   2  10  598.24   51.99
   1   2  10  558.04   46.80
   1   2  10  479.35   46.30
  -1  -2  10  631.34   56.79
  -1  -2  10  571.04   52.49
   2  -2  10  446.16   43.60
  -2   2  10  459.75   50.39
   2  -2  10  423.46   39.60
  -2   2  10  406.36   44.20
   2   2  10  503.45   40.40
   2   2  10  474.85   39.40
  -2  -2  10  451.15   45.40
  -2  -2  10  441.46   48.30
  -2   2 -10  463.35   41.70
  -3   2  10  176.18   32.60
   3  -2  10  214.18   28.70
   3  -2  10  189.18   22.30
  -3   2  10  191.28   38.90
  -3   2 -10  194.38   24.80
   3   2  10  212.38   20.00
  -3  -2  10  223.58   41.50
   3   2  10  201.08   22.00
  -3  -2  10  203.68   29.20
  -3   2 -10  219.08   24.20
   3   2  10  175.98   19.20
  -4   2  10  442.86   48.30
   4  -2  10  428.26   43.00
   4  -2  10  375.86   31.60
  -4   2  10  409.96   51.09
   4   2  10  371.06   34.50
  -4   2 -10  414.66   36.80
  -4  -2  10  518.95   54.89
  -4   2 -10  386.86   32.90
  -4  -2  10  356.26   43.10
   5  -2  10  308.17   37.20
  -5   2  10  423.26   48.60
  -5   2  10  421.96   52.69
  -5   2 -10  338.07   31.70
   5   2  10  345.97   31.30
  -5  -2  10  377.46   51.19
  -5  -2  10  369.06   59.79
   6  -2  10  159.48   40.60
  -6   2  10  176.48   36.60
  -6   2  10  179.08   42.90
  -6  -2  10  153.78   31.30
   6   2  10  195.28   22.60
  -6  -2  10  178.68   40.20
  -7   2  10   48.90   22.80
   7  -2  10   55.59   21.60
  -7   2  10   20.50   17.70
  -7  -2  10   44.30   19.00
  -7  -2  10   15.60   16.70
   7   2  10   34.10   14.60
  -8   2  10  122.89   30.70
  -8   2  10  138.59   37.90
   8  -2  10  167.28   39.30
  -8  -2  10  110.39   28.70
  -8  -2  10  136.09   38.80
   9  -2  10  167.38   36.20
   0  -3  10    8.00    7.30
   0   3  10   -2.50    6.20
   1  -3  10  211.18   27.90
  -1   3  10  192.78   26.90
   1  -3  10  258.57   31.30
   1   3  10  157.48   23.00
  -1  -3  10  236.28   31.70
  -1  -3  10  182.48   31.80
   2  -3  10    8.70    7.80
  -2   3  10   24.10   11.10
   2  -3  10    2.70    5.40
  -2  -3  10   -7.50    7.20
  -2  -3  10   -6.70    5.30
   2   3  10    9.30    5.00
   3  -3  10  108.49   20.70
   3  -3  10   68.99   18.50
  -3   3  10   94.29   22.30
  -3  -3  10   99.99   22.50
  -3  -3  10   69.69   22.50
   3   3  10  101.99   14.70
  -3   3 -10  116.89   21.70
   3   3  10  102.29   18.10
   3   3  10  108.19   15.70
  -4   3  10  394.26   47.10
   4  -3  10  456.95   37.00
   4  -3  10  343.37   41.50
  -4   3  10  398.46   52.69
   4   3  10  291.77   29.70
  -4  -3  10  384.36   49.90
  -4   3 -10  467.15   39.10
  -4  -3  10  403.16   43.70
  -5   3  10   22.40   15.30
  -5   3  10   19.90   13.10
   5  -3  10   21.40   13.20
   5   3  10   37.60    9.60
  -5   3 -10   16.50   10.70
  -5  -3  10   10.60    9.50
  -6   3  10  642.84   69.59
   6  -3  10  503.45   56.09
  -6   3  10  447.06   55.69
  -6  -3  10  533.05   53.59
  -6  -3  10  567.74   66.29
   6   3  10  518.55   40.60
   7  -3  10   92.89   29.20
  -7   3  10  121.99   42.70
  -7   3  10  127.29   34.10
  -7  -3  10   70.99   25.30
  -7  -3  10   96.79   24.50
  -8   3  10  -36.90   16.80
   8  -3  10   -6.00   21.30
  -8   3  10   -4.40   16.00
  -8  -3  10   13.00   22.80
  -8  -3  10   17.90   18.40
   0  -4  10  203.88   35.30
   0  -4  10  137.99   28.10
   0   4  10  177.88   29.90
   1  -4  10   90.69   20.80
  -1   4  10  108.69   23.00
   1  -4  10   98.89   23.00
  -1  -4  10   99.99   23.80
  -1  -4  10   86.89   23.70
   1   4  10   78.19   18.00
   2  -4  10  253.97   32.40
   2  -4  10  293.77   36.50
   2   4  10  284.77   29.10
  -2  -4  10  263.57   34.30
  -2  -4  10  234.48   43.20
   3  -4  10  162.18   29.70
   3  -4  10   72.79   21.60
  -3   4  10  106.59   26.60
  -3  -4  10  125.89   26.00
   3   4  10  114.89   16.30
  -3  -4  10  111.79   29.50
   3   4  10   70.29   16.60
   4  -4  10  260.47   30.70
   4  -4  10  207.58   37.80
  -4   4  10  258.07   37.60
   4   4  10  255.87   24.00
  -4  -4  10  265.27   33.80
   4   4  10  252.97   24.30
  -4  -4  10  281.77   41.10
  -5   4  10   67.29   22.10
   5  -4  10   62.19   22.20
  -5  -4  10   66.39   22.10
  -5  -4  10   32.40   19.20
   6  -4  10   75.89   26.40
  -6   4  10   87.19   30.80
  -6   4  10   65.29   25.90
  -6  -4  10   60.79   23.60
  -6  -4  10   55.09   17.20
  -7   4  10    4.30   14.20
   7  -4  10   -6.30   12.00
  -7   4  10   27.70   15.40
  -7  -4  10   14.70   14.60
  -7  -4  10   -1.20   13.80
   8  -4  10  154.78   40.20
   0  -5  10   -1.90    5.80
   0   5  10    8.00    6.00
   1  -5  10  158.48   42.80
   1  -5  10  342.77   40.40
  -1   5  10  344.97   38.30
   1   5  10  248.48   30.10
  -1  -5  10  293.47   40.60
  -1  -5  10  269.67   36.70
   2  -5  10   -2.50    9.20
  -2   5  10  -14.20    6.50
   2  -5  10   10.30    8.60
  -2  -5  10    8.10   12.20
  -2  -5  10    0.50    7.00
   2   5  10   -2.40    6.40
   3  -5  10  275.17   36.70
   3  -5  10  321.87   41.80
  -3   5  10  291.97   39.30
   3   5  10  320.67   29.10
  -3  -5  10  386.86   50.19
  -3  -5  10  292.07   53.29
   4  -5  10  373.06   47.70
  -4   5  10  400.86   47.70
   4  -5  10  377.66   41.50
   4   5  10  349.87   30.00
   4   5  10  381.16   35.40
  -4  -5  10  390.96   52.99
  -4  -5  10  356.06   50.39
   5  -5  10    0.60   13.60
  -5   5  10    1.70   11.00
   5  -5  10    5.60    8.80
  -5  -5  10    5.60   14.90
  -5  -5  10   -0.30   11.20
   6  -5  10  451.05   58.89
  -6   5  10  319.17   57.39
  -6  -5  10  481.05   65.29
  -6  -5  10  405.66   46.10
   7  -5  10  240.68   48.00
  -7   5  10  109.69   43.80
  -7   5  10  104.59   50.39
  -7  -5  10  167.48   40.40
   0  -6  10    9.70    8.60
   0  -6  10    7.30    9.20
   1  -6  10  450.95   49.90
  -1  -6  10  388.16   46.20
  -1  -6  10  372.06   50.89
   2  -6  10  324.77   40.70
   2  -6  10  305.37   42.30
  -2   6  10  263.97   36.30
  -2  -6  10  235.48   45.60
  -2  -6  10  272.77   37.70
   3  -6  10  102.29   26.00
   3  -6  10   73.49   24.70
  -3   6  10   56.79   22.60
  -3  -6  10   81.69   25.70
  -3  -6  10   99.09   25.30
   3   6  10  103.09   17.70
   4  -6  10  272.57   36.80
  -4   6  10  291.67   49.60
   4  -6  10  330.97   46.80
  -4  -6  10  272.57   37.20
   4   6  10  261.37   25.90
  -4  -6  10  192.08   43.10
   5  -6  10  271.87   37.40
   5  -6  10  237.58   46.50
  -5   6  10  358.06   65.49
  -5  -6  10  219.58   48.10
  -5  -6  10  268.57   41.70
  -6   6  10  219.98   46.10
   6  -6  10  101.89   35.10
  -6  -6  10  134.39   40.50
   0  -7  10    0.20   10.30
   0  -7  10   -9.20    8.80
   1  -7  10  178.08   37.80
   1  -7  10  127.89   30.20
  -1  -7  10  195.88   42.50
  -1  -7  10  202.18   37.90
   2  -7  10    8.60   12.00
   2  -7  10    2.10   12.70
  -2  -7  10   31.60   14.80
  -2  -7  10   21.60   19.30
   3  -7  10  231.78   45.10
   3  -7  10  241.88   45.10
  -3   7  10  249.78   46.40
  -3  -7  10  189.88   35.00
  -3  -7  10  198.78   45.00
  -4   7  10  379.66   62.29
   4  -7  10  258.17   38.80
   4  -7  10  255.07   57.39
  -4  -7  10  310.57   40.70
  -4  -7  10  267.97   72.19
   5  -7  10  -15.00   15.60
  -5   7  10    0.10   14.70
  -5  -7  10  -12.70   12.00
  -5  -7  10   19.40   15.00
   0  -8  10   38.30   16.60
   0  -8  10  -16.80    9.40
   1  -8  10  139.29   33.00
   1  -8  10  140.69   37.90
  -1  -8  10  242.98   48.30
  -1  -8  10  214.78   38.90
   2  -8  10  193.38   42.00
   2  -8  10  115.59   42.90
  -2  -8  10  105.29   44.10
  -2  -8  10  130.29   29.50
   3  -8  10   66.99   27.20
   3  -8  10   80.29   27.40
  -3  -8  10   55.29   20.10
  -3  -8  10   33.40   22.80
   4  -8  10  125.39   41.60
   4  -8  10  144.29   34.10
  -4   8  10  170.58   38.20
  -4  -8  10  188.38   37.70
  -4  -8  10  115.69   39.90
   0  -9  10   23.40   19.10
   1  -9  10   74.29   31.00
   1  -9  10   57.69   25.00
  -1  -9  10   89.69   34.50
  -1  -9  10   77.39   22.80
   2  -9  10  -20.10   14.40
   2  -9  10   -0.10   17.30
  -2  -9  10   -9.70   17.80
   3  -9  10  151.78   40.80
  -3  -9  10  172.38   35.10
   4  -9  10  166.78   40.60
   0 -10  10   17.30   24.00
  -1 -10  10   23.50   24.90
   0   0  11   22.60   11.70
   0   0  11   -2.40    5.80
   1   0  11    4.90    8.20
  -1   0  11    4.70    7.90
  -1   0  11    4.50    6.90
   1   0  11    3.90    5.10
  -1   0 -11    2.70    6.20
  -2   0 -11 1945.81  116.59
  -2   0  11 2205.18  136.59
  -2   0  11 2016.80  138.79
   2   0  11 1915.71  126.19
   2   0  11 2088.29  122.69
  -3   0  11   58.79   18.50
   3   0  11   40.30   10.30
   3   0  11   23.30   11.40
  -3   0  11   48.30   16.50
  -4   0  11   33.30   14.60
  -4   0  11    5.00   10.90
   4   0  11    4.80    7.00
  -5   0  11    5.10    8.80
   5   0  11   16.20    8.90
  -6   0  11   -2.20   12.90
  -6   0  11   24.80   13.50
   6   0  11    1.70    9.70
  -7   0  11   10.40   16.20
  -7   0  11    7.30   14.70
   7   0  11   19.40   14.00
  -8   0  11  504.25   99.09
   8   0  11  561.94   59.89
  -8   0  11  743.63   83.19
  -9   0  11    7.70   23.40
   0  -1  11 2836.12  198.58
   0  -1  11 3520.85  205.58
   0   1  11 3777.82  204.38
   0   1  11 3654.83  205.78
  -1   1  11    2.60    7.10
   1  -1  11    6.00    6.60
  -1   1  11   18.00    8.90
   1  -1  11   14.50    7.70
   1   1  11   -7.20    4.50
   1   1  11    4.50    6.90
  -2   1  11   44.40   17.30
  -2   1  11   23.30    9.50
   2  -1  11   23.70   10.20
   2  -1  11   37.80   11.50
   2   1  11   28.40   10.90
  -2   1 -11   44.00   12.80
  -2  -1  11   28.40   11.70
  -2  -1  11   63.09   19.90
   2   1  11   17.20    9.70
   3  -1  11   -8.70    4.60
  -3   1  11   -4.30    7.40
   3  -1  11   -4.20    4.30
  -3   1 -11   -0.90    6.50
  -3  -1  11   -2.60    4.90
   3   1  11    1.30    4.90
  -3  -1  11    5.20    9.80
   3   1  11    2.00    5.10
   4  -1  11  216.48   28.20
  -4   1  11  190.98   34.80
  -4   1  11  272.37   40.00
   4   1  11  199.68   25.70
  -4  -1  11  170.58   38.50
  -4   1 -11  171.18   19.30
  -4  -1  11  178.48   43.10
   5  -1  11   11.60    9.00
  -5   1  11   18.80   13.20
  -5   1  11   26.60   14.00
   5   1  11   -3.20    6.20
  -5  -1  11    4.30   12.80
  -5  -1  11   24.10   13.30
  -6   1  11  245.78   43.50
  -6   1  11  224.58   48.50
   6  -1  11  261.57   31.50
  -6  -1  11  222.78   45.50
  -6  -1  11  168.88   35.70
   6   1  11  185.78   26.60
  -7   1  11   -4.20   13.60
  -7   1  11    1.10   14.40
   7  -1  11   12.10   12.00
   7   1  11    8.50   11.40
  -7  -1  11    9.90   17.10
  -7  -1  11    0.00   13.90
   8  -1  11   49.30   17.40
  -8   1  11   14.40   16.90
  -8   1  11   38.20   27.50
  -8  -1  11   13.20   23.80
   8   1  11  -12.50   20.20
  -8  -1  11   52.09   20.30
  -9  -1  11    1.40   24.20
   0  -2  11    8.80    7.30
   0   2  11   -3.30    4.60
   0   2  11   -6.90    6.40
   1  -2  11   -5.20    5.00
  -1   2  11   -1.60    5.00
   1  -2  11   -0.10    5.70
  -1   2  11    8.50    8.30
   1   2  11    7.00    5.40
  -1  -2  11   -1.00    4.90
   1   2  11    3.40    5.40
  -1  -2  11   -7.60    5.70
   2  -2  11 2018.30  125.99
  -2   2  11 2133.89  138.29
   2  -2  11 1687.43  129.19
  -2   2  11 1787.32  127.39
   2   2  11 1899.21  118.49
  -2  -2  11 1924.81  128.69
  -2  -2  11 1895.21  134.09
   2   2  11 1970.90  118.19
  -2   2 -11 1897.41  120.49
   3  -2  11   36.10   11.20
   3  -2  11   35.20   12.50
  -3   2  11   14.30   10.60
  -3   2  11   26.00   13.70
   3   2  11   19.30    9.70
   3   2  11   39.50    9.80
   3   2  11   16.70    8.00
  -3  -2  11   44.30   20.20
  -3   2 -11   14.20    9.30
  -3  -2  11   46.10   16.60
   4  -2  11  -12.50    4.90
   4  -2  11   -3.20    5.80
  -4   2  11   25.40   14.60
  -4   2  11    2.80   10.10
   4   2  11   16.10    8.60
  -4  -2  11    9.10   12.10
  -4   2 -11   19.30   10.30
  -4  -2  11    1.80    9.00
  -5   2  11    0.40    9.60
   5  -2  11   -7.10    9.80
  -5   2  11   -2.40   10.20
  -5  -2  11    0.40    7.50
   5   2  11    0.00    6.70
  -5   2 -11   -8.60    9.30
  -5  -2  11    0.70   12.30
  -6   2  11   23.30   14.40
   6  -2  11   24.90   13.50
  -6   2  11   35.90   21.40
  -6  -2  11   44.90   17.20
  -6  -2  11    8.70   14.50
   6   2  11   27.20    9.40
  -7   2  11   19.00   15.30
  -7   2  11  -17.50   13.70
   7  -2  11    0.50   10.10
   7   2  11   29.50   10.20
  -7  -2  11    9.20   20.90
  -7  -2  11    0.00   13.40
  -8   2  11  577.34   67.99
   8  -2  11  427.36   54.49
  -8  -2  11  527.25  105.89
  -8  -2  11  548.65   58.99
   9  -2  11   28.10   23.50
   0  -3  11 3914.51  229.78
   0  -3  11 3778.12  226.28
   0   3  11 3811.52  222.08
   1  -3  11  184.88   27.30
  -1   3  11  139.09   27.40
  -1  -3  11  177.08   32.50
  -1  -3  11  202.08   37.60
   1   3  11  173.78   26.00
   1   3  11  197.18   24.60
   2  -3  11    1.40    6.20
   2  -3  11   16.60    9.00
  -2  -3  11   15.80    9.50
   2   3  11   -5.40    5.70
  -2  -3  11   -3.30    7.80
   3  -3  11   14.00    9.70
   3  -3  11   -9.70    7.10
   3   3  11   15.90    6.00
   3   3  11   10.00    6.30
  -3  -3  11   -8.50    5.70
  -3  -3  11   -5.80    8.10
   4  -3  11  193.78   50.19
  -4   3  11  185.78   36.20
   4  -3  11  273.07   27.90
  -4   3  11  240.08   46.40
  -4   3 -11  211.48   28.30
  -4  -3  11  217.48   43.50
   4   3  11  189.78   23.60
  -4  -3  11  262.77   35.10
  -5   3  11  126.39   34.10
   5  -3  11  138.39   28.80
  -5   3  11   89.59   27.60
   5   3  11  138.39   18.90
  -5  -3  11  132.89   27.40
  -5  -3  11  102.29   30.20
   6  -3  11  307.97   43.20
  -6   3  11  245.88   50.79
  -6   3  11  330.67   56.29
  -6  -3  11  283.07   51.89
  -6  -3  11  250.67   36.90
   6   3  11  291.17   29.20
  -7   3  11   24.90   19.10
  -7   3  11   30.80   16.60
   7  -3  11   13.60   17.20
  -7  -3  11  -10.40   12.20
  -7  -3  11   25.40   16.70
   8  -3  11   23.20   20.30
  -8  -3  11   27.80   20.80
   0  -4  11    1.20    6.50
   0  -4  11   -3.50    7.70
   0   4  11  -12.30    5.40
  -1   4  11   56.19   18.10
   1  -4  11   61.09   18.20
   1  -4  11   45.90   17.70
  -1  -4  11   85.19   23.40
  -1  -4  11   29.60   16.60
   1   4  11   30.60   11.70
   2  -4  11 2044.30  131.79
   2  -4  11 1960.80  138.59
  -2   4  11 2268.87  138.69
  -2  -4  11 1539.15  162.58
   2   4  11 2188.68  134.19
  -2  -4  11 1692.83  165.08
   3  -4  11  190.08   35.90
   3  -4  11  277.27   32.90
  -3  -4  11  221.38   32.00
   3   4  11  274.27   28.80
  -3  -4  11  295.27   42.70
   3   4  11  240.08   27.00
  -4   4  11   14.10   13.20
   4  -4  11    3.50    9.90
   4  -4  11   33.00   14.00
  -4  -4  11   27.30   13.50
   4   4  11   46.90   10.20
   4   4  11   50.49   11.00
  -4  -4  11   29.00   14.50
  -5   4  11   28.90   15.90
   5  -4  11   13.20   12.40
  -5   4  11    1.30    9.20
   5  -4  11   -5.80    8.20
  -5  -4  11   27.00   12.70
  -5  -4  11   32.10   20.10
   6  -4  11   36.40   18.60
  -6  -4  11    0.00   17.00
  -6  -4  11    6.20   13.20
  -7   4  11   29.80   20.00
  -7   4  11   30.70   22.20
   7  -4  11   68.49   24.50
  -7  -4  11   42.30   17.50
  -7  -4  11   64.09   21.80
   0   5  11 2301.57  144.89
   0  -5  11 2242.38  154.88
  -1   5  11   10.40    9.50
   1  -5  11   19.20   12.20
   1  -5  11   21.50   13.30
  -1  -5  11   14.30   12.70
  -1  -5  11    8.90   12.70
   2  -5  11   10.40   10.50
   2  -5  11   12.00   10.20
  -2   5  11   -3.20   10.90
  -2  -5  11   14.60    9.00
  -2  -5  11   13.50   13.00
   2   5  11   30.40   10.20
   3  -5  11  -14.80    8.80
   3  -5  11   -5.20    7.30
  -3   5  11  -14.80    8.40
  -3  -5  11   -0.30    7.70
  -3  -5  11  -12.90    9.20
   3   5  11   11.80    7.60
   4  -5  11  154.78   29.20
  -4   5  11  166.18   37.40
   4  -5  11  143.29   33.70
  -4  -5  11  194.58   44.20
  -4  -5  11  127.49   29.60
   4   5  11  161.68   20.90
  -5   5  11   25.10   15.50
   5  -5  11   81.69   27.60
   5  -5  11   -5.10   10.30
  -5  -5  11   23.50   15.90
  -5  -5  11   27.60   17.40
  -6   5  11  159.78   45.80
   6  -5  11  164.78   38.30
  -6   5  11  153.58   36.20
  -6  -5  11  134.99   36.90
  -6  -5  11  142.59   30.40
  -7  -5  11   20.00   20.90
   0  -6  11   11.30   13.60
   0   6  11   -1.80    8.00
   1  -6  11   -5.80   10.20
  -1   6  11   -8.30   15.90
   1  -6  11   -9.70    7.50
   1   6  11   16.70   10.50
  -1  -6  11    9.60    9.10
  -1  -6  11   11.60   16.50
  -2   6  11  929.31   83.59
   2  -6  11 1079.09   90.59
   2  -6  11  964.30   85.69
  -2  -6  11  957.90   84.29
  -2  -6  11 1173.38   98.99
   2   6  11  980.70   72.99
  -3   6  11    8.10   12.00
   3  -6  11   -0.40    9.80
  -3  -6  11   12.00   13.00
  -3  -6  11   13.60   11.30
   3   6  11   48.10   13.50
   4  -6  11   -3.50   11.40
  -4   6  11    4.00   12.70
   4  -6  11   11.10   14.90
  -4  -6  11    9.80   15.10
  -4  -6  11   12.90   11.90
   4   6  11   -6.50    8.50
   5  -6  11   10.10   15.10
   5  -6  11  -23.30   13.10
  -5   6  11   -0.80   11.30
  -5  -6  11    9.40   14.80
  -5  -6  11  -15.80   15.30
   6  -6  11    7.90   29.60
  -6  -6  11   20.20   18.70
   0  -7  11 1392.86  110.19
   0  -7  11 1398.36  117.09
   1  -7  11    9.90   13.60
  -1   7  11   11.00   12.60
   1  -7  11   14.80   12.20
  -1  -7  11    9.90   10.60
  -1  -7  11   31.10   19.20
  -2   7  11   17.60   14.20
   2  -7  11   25.30   17.50
   2  -7  11   21.60   14.20
   2   7  11   20.50   10.60
  -2  -7  11   32.20   21.20
  -2  -7  11   -2.80    9.30
   3  -7  11   -7.80   10.70
  -3   7  11   19.10   14.50
  -3  -7  11    2.10   10.20
  -4   7  11   89.19   34.90
   4  -7  11  105.69   30.80
   4  -7  11   62.69   21.60
  -4  -7  11   72.09   21.20
  -4  -7  11  121.89   34.00
   5  -7  11    8.50   14.50
   0  -8  11  -17.50   14.70
   0  -8  11    8.30   16.00
   1  -8  11   -8.20   17.80
  -1  -8  11   -8.90   17.80
  -1  -8  11  -23.80    9.60
   2  -8  11  651.23   71.29
  -2   8  11  569.94   65.29
   2  -8  11  608.14   68.69
  -2  -8  11  607.64   74.99
  -2  -8  11  600.54   65.99
  -3   8  11   -0.80   16.10
   3  -8  11   31.70   18.30
   3  -8  11   29.00   20.00
  -3  -8  11   -3.80   15.10
  -3  -8  11    4.90   16.60
   4  -8  11   -9.60   14.80
  -4  -8  11  -39.60   14.90
   0  -9  11  793.72   83.39
   0  -9  11  903.11  109.19
   1  -9  11   30.70   20.30
   1  -9  11   -7.20   18.80
  -1  -9  11   26.80   18.10
   2  -9  11   14.60   17.10
  -2  -9  11    9.40   39.30
   3  -9  11   18.20   22.10
  -3  -9  11   34.60   24.40
   4  -9  11   48.70   27.10
  -2 -10  11  437.16   64.79
   0   0  12  165.88   29.90
   0   0  12  121.89   27.10
  -1   0 -12  682.03   55.29
  -1   0  12  783.42   66.49
   1   0  12  803.62   63.39
   1   0  12  758.62   63.39
  -1   0  12  839.22   70.79
  -2   0  12  240.78   37.10
   2   0  12  304.77   33.80
  -2   0  12  279.27   36.50
  -2   0 -12  286.27   27.40
   2   0  12  291.87   31.10
  -3   0  12  434.36   58.39
   3   0  12  313.87   36.70
  -3   0  12  353.76   42.90
   3   0  12  332.07   31.10
   4   0  12  170.48   24.30
  -4   0  12  117.39   29.70
  -4   0  12  166.08   32.30
  -5   0  12  424.46   51.99
   5   0  12  447.06   45.70
  -5   0  12  503.35   62.49
  -6   0  12   31.50   16.00
  -6   0  12   13.10   18.30
   6   0  12   56.49   16.70
   7   0  12  114.89   24.70
  -7   0  12   68.39   26.30
  -7   0  12  152.68   38.40
   8   0  12  155.28   33.10
  -8   0  12   99.19   28.60
   0   1  12    5.20    6.30
   0  -1  12   -2.50    7.90
   0  -1  12   -5.70    5.60
   0   1  12   -8.10    4.10
   1  -1  12  607.14   53.59
  -1   1  12  618.74   57.89
   1  -1  12  622.44   54.99
  -1   1  12  584.34   58.89
  -1  -1  12  667.33   58.49
   1   1  12  472.85   49.30
   1   1  12  656.43   54.09
  -1  -1  12  628.24   60.09
   2  -1  12   21.30   10.80
  -2   1  12   46.20   17.00
  -2   1  12   16.70   12.90
   2  -1  12   17.50   12.20
   2   1  12    9.30    8.30
  -2  -1  12   39.40   14.70
  -2  -1  12   18.40   11.10
   2   1  12   22.40   11.20
   3  -1  12  504.15   45.10
   3  -1  12  400.66   35.60
  -3   1  12  334.17   44.00
   3   1  12  372.96   32.80
  -3  -1  12  387.86   45.30
   3   1  12  367.26   38.10
  -3  -1  12  296.47   71.59
  -4   1  12  261.87   50.69
   4  -1  12  305.67   36.80
  -4   1  12  362.66   46.10
  -4  -1  12  439.06   54.19
  -4  -1  12  392.26   46.10
   4   1  12  326.77   34.70
   5  -1  12    4.00    9.20
  -5   1  12    1.70    9.20
  -5   1  12    1.10   12.30
  -5  -1  12    3.60   11.40
  -5  -1  12   -0.30   12.40
   5   1  12   -5.40    6.80
  -6   1  12  353.56   63.39
  -6   1  12  411.66   50.29
   6  -1  12  306.27   37.90
   6   1  12  295.77   35.30
  -6  -1  12  295.17   55.69
  -7   1  12  293.27   54.79
   7  -1  12  316.67   42.30
  -7   1  12  279.77   47.20
   7   1  12  255.47   33.80
  -7  -1  12  182.08   47.40
  -7  -1  12  265.27   44.60
   8  -1  12   33.00   20.50
  -8   1  12    8.30   21.20
  -8  -1  12   45.30   23.50
   0   2  12   74.09   20.50
   0   2  12  143.69   27.60
   0  -2  12  130.69   28.50
   0  -2  12  123.69   25.60
   1  -2  12  375.06   43.20
   1  -2  12  407.36   43.30
  -1   2  12  376.16   45.40
   1   2  12  349.47   38.90
  -1  -2  12  383.16   46.80
  -1  -2  12  495.05   48.50
   1   2  12  537.55   47.10
   2  -2  12  301.57   34.40
  -2   2  12  283.97   38.10
   2  -2  12  322.07   37.10
  -2   2  12  390.46   46.20
  -2  -2  12  349.27   44.60
   2   2  12  283.17   32.40
   2   2  12  263.67   30.70
  -2  -2  12  350.26   46.80
  -3   2  12  291.47   52.89
   3  -2  12  296.47   31.00
   3  -2  12  303.47   37.10
  -3   2  12  272.07   39.10
  -3  -2  12  266.17   40.70
   3   2  12  309.37   32.60
   3   2  12  293.67   27.70
  -3  -2  12  258.07   36.90
  -4   2  12  161.98   37.80
   4  -2  12  106.39   18.80
   4  -2  12  139.19   29.30
  -4   2  12  218.08   40.10
  -4   2 -12  176.68   24.50
  -4  -2  12  189.88   34.40
  -4  -2  12  196.58   41.90
   4   2  12  147.59   24.10
  -5   2  12  228.78   49.50
   5  -2  12  258.87   35.50
  -5   2  12  192.98   39.00
  -5  -2  12  266.47   50.49
  -5  -2  12  201.18   37.90
   5   2  12  246.08   27.80
   6  -2  12   50.59   20.10
  -6   2  12   76.39   27.50
  -6   2  12   36.70   18.60
  -6  -2  12   26.60   21.00
   6   2  12   84.59   18.20
  -6  -2  12   55.89   20.70
  -7   2  12   43.30   17.60
  -7   2  12   62.19   24.00
   7  -2  12   41.10   18.40
  -7  -2  12   36.90   25.20
   7   2  12   68.49   27.00
  -7  -2  12   46.50   21.80
   8  -2  12   43.90   33.10
  -8  -2  12   78.89   28.00
   0   3  12   -0.60    7.10
   0  -3  12   -2.00    6.20
   0   3  12   11.90    8.10
   0  -3  12    1.90    9.20
  -1   3  12  527.35   58.59
   1  -3  12  672.13   60.29
  -1   3  12  547.55   55.49
   1  -3  12  665.73   58.29
   1   3  12  654.13   57.39
  -1  -3  12  482.55   68.49
   1   3  12  582.64   52.49
  -1  -3  12  563.54   60.29
  -2   3  12   15.80    9.50
   2  -3  12   35.90   13.70
  -2   3  12   54.29   17.40
   2   3  12   40.20   13.10
  -2  -3  12   36.70   23.10
  -2  -3  12   25.30   11.60
   2   3  12   56.69   15.50
  -3   3  12  459.95   49.60
   3  -3  12  441.36   42.70
  -3   3  12  374.06   51.29
   3  -3  12  403.16   46.70
  -3  -3  12  449.95   49.10
   3   3  12  420.26   37.30
  -3  -3  12  363.26   50.99
   3   3  12  417.06   38.80
  -4   3  12  452.25   61.29
  -4   3  12  549.74   61.49
   4  -3  12  531.55   46.80
   4  -3  12  570.54   57.89
  -4   3 -12  666.53   52.19
  -4  -3  12  591.74   59.89
   4   3  12  627.64   49.40
  -4  -3  12  605.54   67.29
  -5   3  12   20.40   16.20
   5  -3  12   -2.30   11.20
  -5   3  12    6.40   14.60
  -5  -3  12  -13.50    8.10
  -5  -3  12  -15.90    6.40
   5   3  12   21.70   15.50
   6  -3  12  322.07   44.20
  -6   3  12  233.38   64.39
  -6   3  12  386.36   72.59
  -6  -3  12  234.28   40.40
   6   3  12  314.97   31.20
   7  -3  12  264.77   49.70
  -7   3  12  218.38   70.09
  -7   3  12  269.37   52.09
  -7  -3  12  343.67   51.29
  -7  -3  12  319.17   43.10
   8  -3  12   -6.30   17.80
  -8  -3  12    5.80   21.10
   0  -4  12    3.00    9.50
   0   4  12    4.90    8.00
   0  -4  12   -2.80    8.10
  -1   4  12  572.64   55.09
   1  -4  12  491.85   55.19
   1  -4  12  589.44   56.59
  -1  -4  12  491.25   73.79
  -1  -4  12  627.04   60.09
   1   4  12  521.25   50.79
  -2   4  12  312.67   40.80
   2  -4  12  431.46   47.60
   2  -4  12  365.46   42.10
   2   4  12  340.07   35.80
  -2  -4  12  345.67   43.80
  -2  -4  12  416.66   50.89
   3  -4  12  264.17   44.10
   3  -4  12  220.38   30.30
  -3   4  12  178.68   37.20
  -3  -4  12  213.58   36.80
   3   4  12  231.18   27.90
  -3  -4  12  206.78   42.60
   3   4  12  218.58   27.80
   3   4  12  223.18   28.50
  -4   4  12  229.68   42.40
   4  -4  12  240.68   30.60
   4  -4  12  269.57   44.20
  -4   4  12  312.27   58.29
  -4  -4  12  253.77   35.70
   4   4  12  252.37   28.10
  -4  -4  12  170.98   40.00
  -5   4  12  244.28   52.79
   5  -4  12  250.07   45.30
   5  -4  12  329.37   33.60
  -5   4  12  259.67   45.30
  -5  -4  12  303.47   55.19
  -5  -4  12  243.48   40.80
  -6   4  12  230.68   45.90
  -6   4  12   59.29   30.30
   6  -4  12  142.19   36.00
  -6  -4  12  156.08   41.90
  -6  -4  12  113.69   25.50
   7  -4  12   30.60   21.20
  -7  -4  12   67.29   23.70
   0   5  12    0.90    8.30
   0  -5  12  -17.40    8.30
   0  -5  12   -9.20    7.60
   1  -5  12  348.47   46.90
   1  -5  12  409.56   58.59
  -1   5  12  418.66   69.29
   1   5  12  487.95   45.40
  -1  -5  12  423.96   52.89
  -1  -5  12  371.06   47.40
  -2   5  12   11.20   10.10
   2  -5  12   16.70   11.70
   2  -5  12  -11.80    9.20
  -2  -5  12    6.30    8.60
  -2  -5  12   13.30   13.10
   2   5  12  -10.80    6.60
   3  -5  12  238.78   31.90
  -3   5  12  240.98   44.90
  -3  -5  12  234.48   47.60
  -3  -5  12  209.48   39.70
   3   5  12  176.68   25.60
  -4   5  12  250.57   45.80
   4  -5  12  232.08   43.00
   4  -5  12  221.48   33.60
   4   5  12  256.27   28.90
   4   5  12  312.27   29.90
  -4  -5  12  249.38   49.60
  -4  -5  12  278.37   39.50
   5  -5  12   16.90   11.80
   5  -5  12  -11.50   12.50
  -5   5  12   -0.70   13.80
  -5  -5  12   17.70   13.90
  -5  -5  12    4.20   17.80
   6  -5  12  214.08   41.30
  -6  -5  12  192.28   35.80
  -6  -5  12  152.68   57.79
  -7  -5  12  179.08   37.00
   0  -6  12  113.29   27.90
   0  -6  12  115.29   30.40
   0   6  12   96.09   24.60
   1  -6  12  161.78   35.20
  -1   6  12  205.58   39.40
   1  -6  12  210.48   42.10
  -1  -6  12  307.37   40.90
   1   6  12  221.48   30.90
  -1  -6  12  221.68   46.70
  -2   6  12  107.99   30.30
   2  -6  12  174.78   37.40
   2  -6  12  121.39   30.00
  -2  -6  12  197.68   38.60
  -2  -6  12  104.99   31.50
   2   6  12  102.09   22.80
   3  -6  12  119.59   34.10
   3  -6  12  153.38   31.70
  -3   6  12  136.19   30.10
  -3  -6  12  138.89   29.80
   3   6  12  101.19   21.30
  -3  -6  12  154.88   40.30
  -4   6  12  122.59   47.20
   4  -6  12   53.99   22.30
   4  -6  12   84.89   23.10
  -4  -6  12   54.09   21.50
  -4  -6  12   39.80   27.60
   5  -6  12  151.78   38.10
  -5   6  12   74.39   27.90
   5  -6  12  148.29   35.60
  -5  -6  12  174.88   33.80
  -5  -6  12  151.28   41.40
  -6  -6  12   -9.10   18.40
   0  -7  12    8.00   18.20
   0  -7  12    9.30   11.90
   0   7  12    3.40   10.10
   1  -7  12  358.96   48.40
  -1   7  12  309.07   42.60
   1  -7  12  282.87   51.19
  -1  -7  12  272.27   46.00
  -1  -7  12  246.18   48.30
   1   7  12  285.67   37.90
  -2   7  12   19.50   15.00
   2  -7  12  -12.10   11.10
   2  -7  12   17.70   17.40
  -2  -7  12   14.10   14.60
   2   7  12    7.70   12.30
   3  -7  12  208.38   44.30
   3  -7  12  231.48   41.80
  -3  -7  12  203.28   48.70
  -3  -7  12  186.48   35.40
   3   7  12  200.88   29.20
  -4   7  12   96.69   29.10
   4  -7  12  126.19   30.90
  -4  -7  12   80.69   24.70
   5  -7  12   10.30   16.80
  -5  -7  12   32.10   20.00
   0  -8  12   58.49   26.70
   0  -8  12   27.80   21.90
   0   8  12   36.00   17.10
   1  -8  12  247.68   49.30
  -1   8  12  224.48   43.20
  -1  -8  12  216.18   43.20
  -1  -8  12  303.97   56.59
   1   8  12  212.48   39.10
   2  -8  12   83.99   30.50
  -2   8  12   60.59   29.60
  -2  -8  12   67.89   35.70
  -2  -8  12   94.09   39.60
   3  -8  12   35.60   33.20
  -3   8  12   84.89   28.00
  -3  -8  12   99.59   28.50
   4  -8  12   20.40   28.10
  -4  -8  12   56.39   25.90
   0   9  12    4.50   14.70
  -1   9  12  123.19   28.80
  -1  -9  12  142.79   35.10
   1   9  12  143.49   33.60
  -2  -9  12   29.90   25.30
  -3  -9  12  123.19   32.40
   0  10  12   21.50   25.80
   0   0  13   14.60    9.90
   0   0  13    8.50    7.60
  -1   0  13   -5.30    5.50
   1   0  13   21.60   10.40
  -1   0  13   20.60   10.00
   1   0  13    6.60    9.70
  -2   0  13   85.79   25.60
  -2   0  13   89.29   23.00
   2   0  13  148.29   27.90
   2   0  13  130.69   23.80
   3   0  13 1046.20   69.69
  -3   0  13 1087.89   94.09
   3   0  13  994.30   78.39
  -3   0  13  891.81   83.09
   4   0  13  641.04   56.09
  -4   0  13  636.04   70.99
  -4   0  13  643.04   65.99
   5   0  13    5.50   10.80
  -5   0  13   35.50   17.30
  -5   0  13    5.70   13.30
   6   0  13  249.68   58.59
  -6   0  13  270.87   59.99
  -6   0  13  336.87   56.99
   7   0  13  239.68   37.40
  -7   0  13  242.88   45.60
  -7   0  13  293.17   76.59
   8   0  13  -25.50   26.30
   0  -1  13   71.79   19.90
   0   1  13  117.19   23.50
   0   1  13  110.49   26.00
   0  -1  13  121.79   28.90
   1  -1  13  303.87   37.10
  -1   1  13  227.78   41.50
   1  -1  13  289.77   35.20
  -1   1  13  299.57   37.70
   1   1  13  364.96   38.60
   1   1  13  266.97   34.20
  -1  -1  13  286.67   40.80
   2  -1  13  541.15   47.20
  -2   1  13  497.45   55.19
  -2   1  13  430.56   50.49
   2  -1  13  462.35   48.60
   2   1  13  419.36   44.30
   2   1  13  466.55   53.09
  -2  -1  13  443.86   49.70
  -2  -1  13  543.65   68.49
  -3   1  13   30.10   15.40
  -3   1  13   10.20   10.50
   3  -1  13   28.70   11.30
   3  -1  13   10.40   10.40
  -3   1 -13   12.80   11.80
  -3  -1  13   35.90   16.30
   3   1  13   30.00    9.50
  -3  -1  13   36.80   17.10
   3   1  13   15.60   12.30
  -4   1  13  400.36   51.79
  -4   1  13  439.76   57.39
   4  -1  13  387.86   44.50
  -4  -1  13  369.86   66.19
   4   1  13  445.16   44.00
  -4  -1  13  452.65   51.79
  -5   1  13  758.52   81.29
  -5   1  13  634.44   69.09
   5  -1  13  746.63   65.39
   5   1  13  582.44   56.29
  -5  -1  13  745.63   81.39
  -6   1  13  281.27   56.29
   6  -1  13  248.48   40.40
  -6  -1  13  249.08   44.70
  -6  -1  13  406.76   59.79
   6   1  13  248.98   38.50
   7  -1  13   -1.60   13.60
  -7   1  13  -27.60   17.50
  -7  -1  13  -34.40   16.20
   8  -1  13   34.20   19.90
   0  -2  13   -4.80    5.80
   0  -2  13    5.30    6.20
   0   2  13   10.30    8.60
   0   2  13    4.00    6.10
   1  -2  13  -14.50    7.50
  -1   2  13    0.10    7.00
  -1   2  13   15.00   12.10
  -1  -2  13   -3.20    7.70
   1   2  13    3.60    9.30
  -1  -2  13    7.40   11.60
   1   2  13  -13.00    6.50
  -2   2  13  304.27   40.10
   2  -2  13  174.38   32.00
  -2   2  13  248.98   68.09
  -2  -2  13  240.28   44.80
   2   2  13  241.98   30.10
   2   2  13  310.97   33.40
  -2  -2  13  201.68   37.80
   3  -2  13  664.23   60.69
   3  -2  13  576.04   49.99
  -3   2  13  682.83   65.09
  -3   2  13  625.74   68.39
   3   2  13  625.54   47.40
  -3  -2  13  513.05   57.89
   3   2  13  546.55   50.19
  -3  -2  13  557.74   64.49
  -4   2  13  828.12   82.79
   4  -2  13  726.33   53.89
   4  -2  13  733.53   67.89
  -4  -2  13  658.73   76.19
  -4  -2  13  786.12   73.79
   4   2  13  736.63   60.09
  -5   2  13    7.00   15.30
  -5  -2  13    5.80   13.80
   5   2  13   -2.10    7.00
  -5  -2  13  -10.80   11.50
  -6   2  13  206.48   49.90
   6  -2  13  294.97   41.60
  -6  -2  13  268.67   46.70
   6   2  13  356.96   38.60
  -6  -2  13  256.97   53.89
   7  -2  13  181.68   35.30
  -7  -2  13  160.68   34.80
   8  -2  13   20.30   21.70
  -8  -2  13   26.00   24.20
   0  -3  13    3.10    7.70
   0   3  13    9.70   10.30
   0   3  13   20.30   14.60
   0  -3  13   19.00   13.20
  -1   3  13  142.89   30.10
   1  -3  13  106.79   26.50
  -1   3  13  116.99   31.10
   1  -3  13  172.58   33.30
   1   3  13  141.99   30.70
   1   3  13   93.79   23.70
  -1  -3  13   97.69   25.90
  -2   3  13  309.77   42.80
  -2   3  13  315.57   45.80
   2  -3  13  367.86   43.70
   2  -3  13  360.56   41.00
   2   3  13  405.76   40.60
   2   3  13  362.96   38.80
  -2  -3  13  373.36   45.70
  -2  -3  13  240.38   46.80
  -3   3  13   34.30   17.80
   3  -3  13   18.60   13.40
  -3   3  13   -0.60   13.70
   3   3  13   26.50   10.40
   3   3  13   23.70   10.80
  -3  -3  13   -1.90    7.70
  -3  -3  13   23.10   13.40
   3   3  13    3.00    9.00
   4  -3  13  205.58   27.10
  -4   3  13  158.58   35.40
  -4   3  13  205.78   44.70
   4  -3  13  225.38   41.30
  -4  -3  13  176.88   35.80
   4   3  13  183.98   29.40
  -4  -3  13  192.28   41.40
   5  -3  13  577.44   57.49
  -5   3  13  357.96   62.09
  -5   3  13  483.05   65.79
  -5  -3  13  421.56   53.19
   5   3  13  532.45   45.70
  -5  -3  13  435.76   60.69
  -6   3  13  127.19   39.20
   6  -3  13  176.68   38.10
  -6   3  13  135.19   37.40
  -6  -3  13  130.89   34.90
  -6  -3  13  148.89   35.00
   7  -3  13   22.20   17.70
  -7  -3  13   16.70   18.50
  -8  -3  13   -6.60   24.60
   0   4  13   -0.50   10.00
   0   4  13   -9.80    9.10
   0  -4  13    2.30   11.20
  -1   4  13   -4.10    9.10
  -1   4  13   -6.60    9.10
   1  -4  13    7.30    8.80
   1  -4  13  -12.00    8.50
   1   4  13   12.80    8.60
  -1  -4  13   14.10   11.80
  -1  -4  13   -8.50   10.40
   1   4  13   10.60    7.60
  -2   4  13   12.40   15.30
   2  -4  13   42.30   16.10
   2  -4  13   48.10   17.70
  -2   4  13   28.00   17.20
  -2  -4  13   39.80   16.50
   2   4  13   38.90   14.40
  -2  -4  13   18.60   17.80
   2   4  13   53.99   15.20
   3  -4  13  400.46   49.40
  -3   4  13  505.65   61.99
  -3   4  13  390.96   49.50
   3  -4  13  331.17   41.20
  -3  -4  13  470.05   58.49
  -3  -4  13  304.97   42.10
   3   4  13  493.95   43.20
   3   4  13  366.26   39.30
  -4   4  13  375.46   51.49
   4  -4  13  432.96   41.60
   4  -4  13  345.97   46.80
  -4   4  13  370.96   55.59
  -4  -4  13  385.66   47.10
   4   4  13  310.37   34.50
  -4  -4  13  489.95   60.79
   5  -4  13   31.30   17.20
  -5   4  13    2.70   14.80
  -5   4  13    3.60   14.70
   5  -4  13    0.40   11.20
  -5  -4  13   13.20   14.80
  -5  -4  13   12.60   15.10
   5   4  13  -11.20   10.20
   6  -4  13  218.98   45.30
  -6  -4  13  222.28   37.90
  -7  -4  13  114.09   28.20
   0  -5  13  106.89   28.80
   0  -5  13  108.29   28.40
   0   5  13  126.29   25.70
  -1   5  13   89.49   22.80
   1  -5  13  107.49   28.30
   1  -5  13   75.79   22.20
  -1  -5  13  106.19   28.70
  -1  -5  13   87.99   28.10
   1   5  13   93.99   21.20
   2  -5  13  379.96   51.79
   2  -5  13  377.86   48.90
  -2   5  13  300.37   41.80
   2   5  13  363.46   39.60
  -2  -5  13  337.37   45.40
  -2  -5  13  276.87   51.39
  -3   5  13    7.70   11.70
   3  -5  13   10.40   11.60
  -3  -5  13   -0.20   15.70
   3   5  13   -1.50    9.40
   3   5  13    0.50   10.30
  -3  -5  13    3.50   13.20
   4  -5  13  237.58   49.50
   4  -5  13  231.08   37.50
   4   5  13  206.88   27.90
  -4  -5  13  230.88   51.09
  -4  -5  13  242.18   43.80
   5  -5  13  328.47   57.09
  -5   5  13  268.47   56.29
   5  -5  13  392.46   43.50
  -5   5  13  248.58   50.59
  -5  -5  13  370.96   48.10
  -5  -5  13  424.86   61.59
  -6  -5  13  195.08   38.00
  -7  -5  13    6.90   25.10
   0  -6  13   -6.10   11.20
   0   6  13    7.00   11.70
   0  -6  13   -3.30   10.60
   1  -6  13    0.00   12.90
  -1   6  13    9.60   11.40
   1   6  13   -6.70   10.00
  -1  -6  13   -2.50   12.60
  -1  -6  13  -23.60   10.50
   2  -6  13  108.99   26.70
   2  -6  13  109.99   34.40
  -2   6  13  156.08   32.30
  -2  -6  13  104.59   32.50
  -2  -6  13  194.98   38.40
   2   6  13  129.99   27.00
  -3   6  13  378.36   53.69
   3  -6  13  306.07   46.20
   3  -6  13  474.75   57.09
   3   6  13  446.26   43.10
  -3  -6  13  383.26   49.50
  -3  -6  13  429.76   58.99
  -4   6  13  370.46   53.09
   4  -6  13  426.26   49.99
   4  -6  13  403.66   58.19
  -4  -6  13  299.97   58.09
  -4  -6  13  378.46   51.49
  -5  -6  13   -6.10   16.70
  -6  -6  13  168.58   63.69
   0  -7  13   26.70   18.00
   0   7  13   46.10   18.10
   0  -7  13   22.90   16.00
   1  -7  13  126.29   32.30
  -1   7  13  174.18   35.50
   1  -7  13  141.89   33.00
  -1  -7  13  128.79   35.50
  -1  -7  13  172.78   38.30
   1   7  13  154.88   31.10
   2  -7  13  163.78   39.60
  -2   7  13  129.09   32.90
   2  -7  13  121.29   30.20
  -2  -7  13  113.69   38.30
  -2  -7  13  171.88   44.50
   2   7  13  135.99   29.80
  -3   7  13   15.00   16.20
   3  -7  13    2.70   17.00
  -3  -7  13   20.80   18.40
  -3  -7  13   26.30   36.50
   4  -7  13  143.69   33.00
  -4  -7  13  138.19   31.40
  -5  -7  13  270.07   42.40
   0  -8  13   13.90   20.50
   0   8  13   -4.80   14.40
   0  -8  13   -7.70   13.70
   1  -8  13  -22.30   17.50
  -1   8  13   -5.90   24.10
  -1  -8  13   -1.30   17.80
   1   8  13  -19.50   12.00
  -2   8  13   74.69   27.10
   2  -8  13   52.39   24.10
   2   8  13   49.60   19.70
  -2  -8  13   46.10   23.20
   3  -8  13  304.67   54.09
  -3  -8  13  194.58   41.60
   4  -8  13  189.98   42.20
  -4  -8  13  111.89   35.00
   0   9  13   30.30   19.70
  -1   9  13  -19.80   24.50
   1   9  13   58.19   21.50
   0   0  14  770.62   69.39
   0   0  14  767.72   69.49
   1   0  14   14.20   13.90
  -1   0  14  -10.80    7.90
   1   0  14   10.80   12.10
   2   0  14   33.70   12.90
  -2   0  14   16.10   14.40
  -2   0  14   32.70   15.60
   2   0  14   22.50   10.50
  -3   0  14   59.99   20.20
  -3   0  14   57.09   23.20
   3   0  14   49.30   16.80
   3   0  14   60.99   15.60
  -4   0  14   61.99   22.80
  -4   0  14  145.89   37.40
   4   0  14  137.39   28.20
  -5   0  14  466.05   63.09
   5   0  14  349.17   43.40
  -5   0  14  278.97   50.49
  -6   0  14   81.19   31.60
   6   0  14   84.79   24.40
  -6   0  14   76.69   28.70
   7   0  14   59.79   22.40
   0   1  14    1.20    8.20
   0   1  14   -2.50    7.50
   0  -1  14  -12.40    7.40
   0  -1  14    6.50   10.40
   1  -1  14   92.19   23.90
   1  -1  14   82.49   22.10
  -1   1  14   55.29   19.30
  -1   1  14   61.89   22.30
   1   1  14  100.39   24.30
  -1  -1  14   78.79   23.30
  -1  -1  14   79.79   24.80
   1   1  14   57.99   17.70
   2  -1  14  682.63   63.19
  -2   1  14  704.63   72.89
   2  -1  14  634.14   57.99
  -2   1  14  655.63   67.09
   2   1  14  715.23   58.59
  -2  -1  14  616.84   65.79
   2   1  14  758.62   63.89
  -2  -1  14  706.13   72.59
  -3   1  14  274.97   49.60
   3  -1  14  305.77   37.90
  -3   1  14  329.27   58.09
   3   1  14  317.37   31.80
   3   1  14  272.97   34.90
  -3  -1  14  249.48   50.59
  -3  -1  14  314.47   43.80
   4  -1  14   -5.80    9.50
  -4   1  14   -0.10   10.00
  -4   1  14  -26.50   11.50
   4   1  14   -6.60    7.50
  -4  -1  14    9.50   14.20
  -4  -1  14  -11.20   11.80
   5  -1  14  -12.50   13.40
  -5   1  14  -11.10   15.10
   5   1  14   35.70   14.30
  -5  -1  14   -5.50   18.20
  -5  -1  14    8.20   13.00
  -6   1  14    9.70   18.60
  -6   1  14   -2.40   22.10
   6  -1  14  -17.50   12.50
  -6  -1  14   20.00   20.80
  -6  -1  14   10.60   17.20
   7  -1  14  156.38   32.90
  -7  -1  14  161.08   63.19
   8  -1  14  229.88   44.20
   0  -2  14 1160.58   93.29
   0   2  14 1093.59   90.69
   0  -2  14 1181.28   93.89
   0   2  14 1171.98   94.09
   1  -2  14    2.60   10.60
   1  -2  14    3.90   10.00
  -1   2  14   56.99   20.40
  -1   2  14   17.90   12.00
  -1  -2  14   20.00   12.40
  -1  -2  14   32.90   13.50
   1   2  14   -6.20    9.90
   1   2  14   18.00   12.00
   2  -2  14   -7.10    7.50
  -2   2  14   11.20   11.80
   2  -2  14   14.50   10.10
  -2   2  14   30.90   14.50
   2   2  14  -10.10    7.50
   2   2  14   -5.10    7.70
  -2  -2  14  -18.20   10.30
  -2  -2  14   -2.80    7.50
  -3   2  14    6.00   13.70
  -3   2  14   67.09   22.60
   3  -2  14   68.59   16.50
   3  -2  14   11.10   15.30
  -3  -2  14   32.30   20.80
  -3  -2  14   45.10   18.90
   3   2  14   71.99   18.70
   3   2  14   38.10   13.60
  -4   2  14  258.67   49.70
   4  -2  14  209.68   36.30
  -4   2  14  228.58   50.39
   4  -2  14  207.58   25.30
   4   2  14  210.08   29.80
  -4  -2  14  134.19   38.00
  -5   2  14  290.07   61.59
  -5   2  14  496.75   60.49
   5  -2  14  488.15   52.79
  -5  -2  14  345.27   49.60
   5   2  14  373.66   40.80
  -5  -2  14  406.36   74.59
   6  -2  14   97.69   29.70
  -6   2  14  168.88   49.90
  -6   2  14  200.18   41.90
   6   2  14  195.78   31.90
  -6  -2  14  152.98   37.10
  -6  -2  14  139.59   40.10
   7  -2  14   33.50   22.80
  -7  -2  14   52.99   26.80
   0  -3  14    2.20   11.20
   0   3  14   10.50   14.00
   0   3  14  -27.40   11.20
   0  -3  14    1.00   15.60
   1  -3  14   20.10   15.10
  -1   3  14   60.09   20.60
   1  -3  14   29.70   15.00
  -1   3  14   64.19   20.00
   1   3  14   15.00   12.70
  -1  -3  14   57.59   19.50
  -1  -3  14   39.70   17.40
   1   3  14   71.39   20.00
   2  -3  14  463.85   51.99
   2  -3  14  494.75   57.09
  -2   3  14  773.92   73.99
  -2   3  14  535.25   60.89
  -2  -3  14  617.54   67.29
   2   3  14  654.53   54.99
   2   3  14  566.14   53.39
  -2  -3  14  535.45   59.19
   3  -3  14  335.37   38.70
  -3   3  14  387.36   50.89
  -3   3  14  233.28   48.40
   3  -3  14  374.96   46.40
  -3  -3  14  282.97   49.10
   3   3  14  319.47   36.00
   3   3  14  398.56   40.10
  -3  -3  14  377.16   64.39
  -4   3  14   13.70   20.60
  -4   3  14   22.30   15.40
   4  -3  14   -8.00   10.20
   4  -3  14    2.40   10.30
   4   3  14   17.60   10.70
  -4  -3  14    5.40    9.70
  -4  -3  14    9.60   15.30
   5  -3  14  -25.50   10.20
  -5   3  14    1.60   15.50
  -5   3  14  -16.20   15.00
  -5  -3  14  -16.60   14.00
  -5  -3  14   25.10   22.60
   5   3  14    6.50   15.20
   6  -3  14   23.50   18.00
  -6  -3  14   -6.50   11.50
  -7  -3  14  124.39   35.80
   0  -4  14  696.53   67.39
   0   4  14  569.64   60.19
   0  -4  14  597.74   64.29
  -1   4  14   27.00   12.40
   1  -4  14   19.20   12.50
   1  -4  14   32.00   14.50
  -1   4  14   46.20   21.20
  -1  -4  14   18.00   12.60
   1   4  14   21.80   11.90
   1   4  14    5.30   11.00
  -1  -4  14   16.20   15.50
   2  -4  14    8.40   12.50
   2  -4  14   12.70   10.60
  -2   4  14   21.20   12.90
  -2   4  14   -4.90   10.70
  -2  -4  14    4.20   10.70
   2   4  14   37.20   12.60
  -2  -4  14    3.20   14.20
   2   4  14    2.20    9.90
  -3   4  14   24.40   18.90
  -3   4  14    6.80   15.40
   3  -4  14   16.60   15.20
   3  -4  14   41.60   18.60
   3   4  14   36.10   14.00
  -3  -4  14   16.20   19.10
  -3  -4  14   40.60   16.30
   3   4  14   24.40   13.40
  -4   4  14   83.19   32.80
   4  -4  14   88.99   22.10
   4  -4  14  114.19   29.50
   4   4  14   84.29   21.50
  -4  -4  14  141.09   41.60
  -4  -4  14   45.10   17.80
   5  -4  14  447.86   53.19
  -5   4  14  289.97   53.29
  -5   4  14  294.57   59.99
  -5  -4  14  288.77   50.59
  -5  -4  14  421.46   61.69
   6  -4  14   76.89   33.20
  -6  -4  14   81.39   23.40
  -7  -4  14   13.60   25.20
   0  -5  14   -2.30    9.60
   0  -5  14   -3.40   12.30
   0   5  14    7.20   11.50
  -1   5  14   52.19   18.40
   1  -5  14   50.69   22.70
  -1  -5  14   35.30   18.20
  -1  -5  14   69.79   25.50
   1   5  14   62.49   25.70
   2  -5  14  501.55   58.49
   2  -5  14  634.34   67.29
  -2   5  14  512.35   59.49
   2   5  14  538.15   55.39
  -2  -5  14  534.55   68.69
  -2  -5  14  588.94   64.09
   2   5  14  580.14   55.99
   3  -5  14  144.59   39.10
   3  -5  14  203.78   36.50
  -3   5  14  151.68   42.80
  -3   5  14  187.88   40.90
   3   5  14   96.79   22.20
  -3  -5  14  202.58   41.30
  -3  -5  14  181.58   60.79
   3   5  14  160.98   31.60
   4  -5  14    0.70   13.80
   4  -5  14  -12.20   11.40
  -4   5  14   -0.80   13.50
  -4   5  14    5.10   16.20
   4   5  14   -2.40   13.60
  -4  -5  14    4.90   16.40
  -4  -5  14   32.00   28.70
  -5  -5  14   14.70   17.50
  -6  -5  14   35.20   24.60
   0   6  14  677.13   62.09
   0  -6  14  516.55   65.99
   0  -6  14  540.95   66.39
  -1   6  14  -19.30   10.80
   1  -6  14   22.50   14.50
   1  -6  14   25.90   17.20
  -1  -6  14   17.70   18.20
  -1  -6  14  -10.70   13.80
   1   6  14   -0.70   12.50
  -2   6  14   45.40   17.60
   2  -6  14   17.30   13.90
   2  -6  14  -10.40   11.30
   2   6  14  -17.70   13.60
  -2  -6  14  -13.60   12.70
  -2  -6  14   14.80   16.90
   3  -6  14   18.50   19.00
  -3   6  14   31.60   19.00
   3  -6  14   34.10   17.40
   3   6  14   10.00   16.00
   3   6  14   23.40   17.00
  -3  -6  14   13.10   18.20
  -3  -6  14   13.50   23.40
   4  -6  14   96.09   26.20
  -4  -6  14  108.99   29.00
  -5  -6  14  228.78   45.50
  -6  -6  14  -19.40   31.50
   0  -7  14    2.70   14.90
   0   7  14    9.40   13.50
   0  -7  14   -7.30   11.50
   1  -7  14    7.20   17.00
  -1   7  14   32.10   20.50
  -1  -7  14    3.60   16.00
  -1  -7  14   27.80   21.60
   1   7  14   25.90   15.10
  -2   7  14  255.87   48.60
   2  -7  14  232.88   44.20
   2   7  14  139.49   30.30
  -2  -7  14  126.39   33.60
   3  -7  14   87.29   27.70
  -3  -7  14   88.09   26.70
   4  -7  14    3.90   18.60
  -4  -7  14   24.40   18.40
  -5  -7  14    2.40   36.60
   0   8  14  173.58   45.80
  -1   8  14    6.70   20.10
   1   8  14  -26.70   16.00
   2  -8  14    2.50   21.90
   3  -8  14   -1.50   21.20
   4  -8  14   67.59   28.70
   0   9  14  -24.90   23.80
   0   0  15    2.70   10.30
   0   0  15   14.30   11.80
  -1   0  15 1090.99   94.59
   1   0  15 1141.09   87.59
   1   0  15 1113.49   89.79
  -1   0  15 1053.59   91.09
   2   0  15   65.49   18.30
   2   0  15   69.49   18.50
  -2   0  15   48.00   20.50
  -2   0  15   62.29   23.30
  -3   0  15  251.17   46.90
  -3   0  15  256.07   49.99
   3   0  15  253.77   49.50
   3   0  15  325.57   39.80
   4   0  15   13.00   10.50
  -4   0  15   -5.90    9.50
  -4   0  15   23.60   17.40
  -5   0  15   22.90   20.10
  -5   0  15    3.80   17.40
   5   0  15   17.60   12.30
   6   0  15   -0.90   13.10
   7   0  15   62.39   24.50
   0   1  15   26.20   18.20
   0  -1  15   37.60   16.10
   0   1  15   45.70   16.10
   0  -1  15   36.60   17.90
  -1   1  15  692.13   71.29
   1  -1  15  851.11   75.49
  -1   1  15  993.30   83.39
   1  -1  15  790.42   69.69
  -1  -1  15  895.91   78.29
  -1  -1  15  876.91   80.39
   1   1  15  795.22   70.69
   1   1  15  665.23   66.99
  -2   1  15   28.70   13.00
   2  -1  15   27.20   12.90
  -2   1  15  -11.20   10.20
  -2  -1  15    3.90   10.90
   2   1  15    3.30   11.80
  -2  -1  15   -6.10   13.00
   2   1  15   32.90   13.00
   3  -1  15  337.57   36.90
   3  -1  15  207.78   38.10
  -3   1  15  333.37   49.70
  -3   1  15  349.17   49.50
  -3  -1  15  297.67   57.39
   3   1  15  296.27   50.49
   3   1  15  381.06   38.20
  -3  -1  15  354.86   47.90
  -4   1  15   36.00   12.50
  -4   1  15   -6.30   11.20
   4  -1  15   -2.10   11.30
  -4  -1  15   -1.30   11.60
  -4  -1  15   -5.70   13.80
   4   1  15    0.30   10.40
  -5   1  15   55.29   24.70
   5  -1  15   30.50   17.50
  -5  -1  15   40.80   28.00
  -5  -1  15   81.29   24.20
   5   1  15  -10.00   16.70
   6  -1  15   -6.00   13.00
   6   1  15   -6.70   16.40
   7  -1  15  243.88   44.10
   0  -2  15  -18.60    7.90
   0  -2  15    5.60   11.40
   0   2  15    8.90   11.20
   0   2  15    6.20    9.80
   1  -2  15  880.91   78.39
  -1   2  15  996.30   85.19
  -1   2  15  828.42   81.89
   1  -2  15 1131.59   86.39
   1   2  15  692.63   71.39
   1   2  15  958.50   79.09
  -1  -2  15  979.00   87.19
  -1  -2  15  998.30   85.69
   2  -2  15   13.20   13.10
   2  -2  15   11.70   12.60
  -2   2  15   21.00   16.70
  -2   2  15    8.10   14.40
  -2  -2  15    1.00   11.70
   2   2  15   16.40   10.40
  -3   2  15  144.39   36.20
   3  -2  15  184.88   31.10
  -3   2  15  154.78   37.90
   3  -2  15  229.58   41.60
  -3  -2  15  127.29   37.10
   3   2  15  217.58   35.80
  -3  -2  15  154.28   36.30
   4  -2  15   30.90   11.50
   4  -2  15    6.60   13.90
  -4   2  15   14.50   21.70
  -4   2  15  -12.10   12.10
  -4  -2  15   15.30   18.10
   4   2  15   14.80   14.90
   5  -2  15    5.30   13.40
  -5   2  15   -3.30   15.20
  -5   2  15  -16.40   12.70
  -5  -2  15    8.70   12.60
   5   2  15  -12.20   14.20
  -5  -2  15   12.80   19.90
   6  -2  15  -24.60   14.50
   7  -2  15   91.79   31.20
   0  -3  15  104.39   29.30
   0   3  15  137.29   31.90
   0  -3  15   97.19   25.60
   0   3  15   87.69   25.50
   1  -3  15  675.43   80.89
   1  -3  15  699.13   69.29
  -1   3  15  784.72   72.19
  -1   3  15  654.33   71.29
   1   3  15  654.93   64.99
  -1  -3  15  673.83   68.99
  -1  -3  15  750.92   73.19
   1   3  15  640.14   63.79
   2  -3  15   -5.90   10.20
  -2   3  15   20.00   14.20
  -2   3  15    1.70   15.60
   2  -3  15  -11.10   10.40
   2   3  15    7.00    9.90
   2   3  15   17.50   14.70
  -2  -3  15   -0.50   11.90
  -2  -3  15    4.30   11.60
  -3   3  15  247.78   50.99
   3  -3  15  352.96   46.60
   3  -3  15  269.57   37.50
  -3   3  15  236.78   46.20
   3   3  15  322.57   35.20
  -3  -3  15  273.07   47.50
   3   3  15  254.77   35.40
  -3  -3  15  367.36   54.49
  -4   3  15   -0.80   16.00
   4  -3  15   -0.50   12.50
   4  -3  15   25.00   13.80
  -4   3  15   14.30   16.20
  -4  -3  15  -23.80   12.90
   4   3  15    2.20   12.90
  -4  -3  15   -5.60   13.70
   5  -3  15   51.59   22.20
  -5   3  15   31.40   28.00
  -5  -3  15   42.10   22.40
   5   3  15   43.40   20.00
   6  -3  15   -5.90   16.20
   0  -4  15   -0.30   11.80
   0   4  15   10.10   11.40
   0  -4  15  -17.70   11.10
   0   4  15   -5.20   11.30
  -1   4  15  902.71   80.49
  -1   4  15  730.33   78.39
   1  -4  15  738.93   74.49
   1  -4  15  774.02   78.49
   1   4  15  728.13   72.49
  -1  -4  15  942.91   83.29
  -1  -4  15  852.41   83.49
  -2   4  15   52.99   20.90
   2  -4  15   44.80   18.90
  -2   4  15   51.39   24.60
   2  -4  15   42.20   20.00
   2   4  15   42.60   17.00
  -2  -4  15   34.00   19.10
  -2  -4  15   34.20   20.00
  -3   4  15  197.18   50.79
   3  -4  15  228.98   40.40
  -3  -4  15  190.58   42.50
  -3  -4  15  208.58   53.89
   3   4  15  233.38   32.20
   3   4  15  210.18   29.40
   4  -4  15    1.70   16.10
   4  -4  15  -14.00   10.70
  -4   4  15  -13.30   15.70
  -4   4  15  -10.70   15.50
  -4  -4  15   15.70   19.60
  -4  -4  15   -8.50   10.60
   4   4  15  -30.20   11.60
   5  -4  15    9.80   19.20
  -5  -4  15   10.00   14.70
   0  -5  15   14.40   16.00
   0   5  15   33.20   16.30
   0   5  15   13.70   17.20
   0  -5  15   13.50   14.10
   1  -5  15  494.55   60.69
  -1   5  15  489.75   60.79
   1  -5  15  446.36   58.39
   1   5  15  609.24   61.09
   1   5  15  457.05   51.99
  -1  -5  15  450.55   61.69
  -1  -5  15  393.66   55.89
  -2   5  15    9.30   13.90
  -2   5  15    8.80   17.00
   2  -5  15    2.00   14.60
   2  -5  15    2.20   15.50
   2   5  15   12.30   14.20
  -2  -5  15   11.10   17.50
  -2  -5  15   27.20   16.60
   2   5  15   18.20   15.10
  -3   5  15  198.98   48.00
   3  -5  15  151.18   37.30
  -3   5  15  119.99   34.50
   3  -5  15  230.58   40.60
  -3  -5  15  198.38   43.10
   3   5  15  191.48   33.00
  -3  -5  15  237.88   55.29
   4  -5  15    6.40   16.20
  -4  -5  15   -1.20   13.70
   0  -6  15   10.70   25.30
   0  -6  15   -8.60   13.90
   0   6  15    0.10   14.40
   1  -6  15  498.35   62.39
   1  -6  15  542.75   62.39
  -1   6  15  593.14   62.69
  -1  -6  15  393.56   58.09
  -1  -6  15  501.65   65.99
   1   6  15  465.85   53.29
   2  -6  15    7.10   14.00
  -2   6  15   19.70   15.00
   2   6  15    2.00   15.40
  -2  -6  15   10.10   18.20
  -2  -6  15    0.60   14.80
   2   6  15   39.30   17.10
   3  -6  15  166.38   33.10
  -3  -6  15   83.09   36.80
   0  -7  15   28.70   22.70
   0   7  15   37.70   20.40
   1  -7  15  448.26   59.49
  -1   7  15  297.17   57.59
   1   7  15  430.36   49.60
   2  -7  15   -3.60   17.90
   2   7  15  -15.90   16.30
   3  -7  15  237.38   42.60
   0   8  15    6.10   19.90
   0   0  16  533.85   59.89
   0   0  16  582.84   62.19
   1   0  16   19.30   14.40
  -1   0  16   23.30   22.00
   1   0  16   26.60   14.50
  -1   0  16    3.30   13.00
   2   0  16   22.10   18.80
  -2   0  16   58.39   24.20
   2   0  16   59.49   17.30
  -2   0  16   31.40   14.20
   3   0  16   94.79   24.20
   3   0  16   91.19   19.40
  -3   0  16   68.19   34.60
  -3   0  16   47.60   26.10
   4   0  16  315.97   43.70
  -4   0  16  325.77   62.29
  -4   0  16  307.07   53.99
   5   0  16  480.45   53.99
   6   0  16  248.38   44.00
   0   1  16    1.10   10.30
   0   1  16    3.80   10.60
   0  -1  16    1.40   11.50
  -1   1  16   91.19   29.70
  -1   1  16  103.99   26.60
   1  -1  16  109.69   26.60
   1  -1  16   73.49   23.30
   1   1  16  101.89   26.50
  -1  -1  16  106.89   28.80
  -1  -1  16   84.49   25.60
   1   1  16   60.09   18.50
  -2   1  16  377.36   63.49
   2  -1  16  363.46   43.80
   2  -1  16  390.46   48.00
  -2   1  16  380.76   53.29
   2   1  16  444.56   45.70
  -2  -1  16  386.56   53.49
  -2  -1  16  391.46   57.39
   2   1  16  416.46   48.70
   3  -1  16  273.37   38.70
  -3   1  16  361.06   63.69
   3  -1  16  246.88   34.20
   3   1  16  305.27   35.40
  -3  -1  16  349.57   63.79
   3   1  16  268.07   38.40
  -3  -1  16  203.18   50.19
  -4   1  16  100.89   27.00
  -4   1  16  136.99   42.10
   4  -1  16   96.59   28.20
  -4  -1  16   64.19   33.70
   4   1  16   83.99   23.70
  -4  -1  16  103.79   31.80
   5  -1  16   28.20   13.30
   5   1  16   -8.70   15.30
   6  -1  16  123.69   28.40
   6   1  16  117.99   28.50
   7  -1  16  172.08   59.59
   0  -2  16  345.57   47.60
   0   2  16  436.06   52.09
   0   2  16  358.06   46.40
   0  -2  16  342.47   46.70
  -1   2  16    7.40   14.00
   1  -2  16  -13.00    8.60
  -1   2  16   26.60   16.80
   1  -2  16    2.30   11.70
   1   2  16  -17.30    7.10
   1   2  16    5.80   10.30
  -1  -2  16    4.50   15.30
  -1  -2  16    6.30   15.00
   2  -2  16   26.40   16.10
   2  -2  16   76.49   22.90
  -2   2  16   37.80   23.40
   2   2  16   20.00   15.50
  -2  -2  16    6.00   14.00
   2   2  16    3.40   13.30
   3  -2  16   39.90   23.20
  -3   2  16   45.80   26.40
   3  -2  16   95.99   23.20
  -3   2  16   77.89   25.70
   3   2  16   55.49   22.40
   3   2  16   48.80   16.30
  -3  -2  16   46.40   23.90
  -3  -2  16   57.39   30.90
   4  -2  16  271.77   47.90
  -4   2  16  242.08   49.80
  -4   2  16  295.27   59.59
   4   2  16  197.88   36.90
  -4  -2  16  223.88   46.20
  -4  -2  16  238.48   57.39
   5  -2  16  430.46   55.19
   5   2  16  340.27   44.10
   6  -2  16   87.49   22.90
   0  -3  16   17.90   12.30
   0  -3  16   25.00   13.20
   0   3  16   -6.20   11.50
   0   3  16    5.20   13.30
  -1   3  16   35.10   19.20
  -1   3  16   48.90   25.90
   1  -3  16   23.30   15.80
   1  -3  16   62.69   19.30
   1   3  16   80.69   24.90
   1   3  16   75.29   27.30
  -1  -3  16   33.30   22.20
  -1  -3  16   50.99   22.20
  -2   3  16  378.76   58.39
   2  -3  16  352.56   51.39
  -2   3  16  462.75   60.39
   2  -3  16  458.25   65.69
   2   3  16  490.35   50.69
   2   3  16  473.65   49.40
  -2  -3  16  406.96   53.19
  -2  -3  16  461.75   61.99
  -3   3  16  257.57   64.29
   3  -3  16  397.16   45.60
   3  -3  16  271.87   65.19
  -3   3  16  256.97   51.29
  -3  -3  16  346.37   63.69
  -3  -3  16  425.86   55.69
   3   3  16  385.56   43.70
   4  -3  16  170.08   36.60
  -4   3  16  129.29   37.60
  -4   3  16   95.09   39.90
  -4  -3  16  159.28   37.30
  -4  -3  16  129.69   43.60
   4   3  16  176.08   35.40
   5  -3  16    0.00   16.20
   0  -4  16  431.06   59.49
   0   4  16  600.14   62.29
   0  -4  16  466.45   60.79
   0   4  16  542.15   62.49
  -1   4  16   20.40   18.20
   1  -4  16   24.80   17.40
  -1   4  16   24.40   16.20
   1  -4  16   21.90   16.20
  -1  -4  16   58.59   24.00
   1   4  16   -2.30   13.80
   1   4  16   23.60   16.40
  -1  -4  16   17.80   19.10
   2  -4  16   47.40   20.20
   2  -4  16   16.00   15.40
  -2   4  16   41.20   35.90
  -2   4  16   39.50   18.60
  -2  -4  16   31.70   24.50
  -2  -4  16   42.70   21.00
   2   4  16   61.09   20.70
   2   4  16   27.90   18.60
   3  -4  16   49.70   21.00
  -3   4  16   30.70   20.90
  -3   4  16    3.40   15.10
   3  -4  16   27.90   18.60
   3   4  16   48.10   17.40
  -3  -4  16   28.10   24.70
  -3  -4  16   40.60   20.70
   4   4  16  279.47   40.40
   0  -5  16   24.00   21.10
   0   5  16  -15.60   13.40
   0   5  16    2.40   14.90
   0  -5  16    4.30   13.20
   1  -5  16   51.29   24.80
  -1   5  16   52.29   23.20
  -1   5  16   59.79   27.80
   1  -5  16   37.80   20.50
  -1  -5  16   35.50   26.10
  -1  -5  16   65.79   23.40
   1   5  16   52.49   18.10
   1   5  16   62.99   24.20
  -2   5  16  257.47   47.20
   2  -5  16  316.57   46.70
  -2   5  16  261.77   52.99
   2   5  16  228.58   42.10
  -2  -5  16  222.38   55.79
   2   5  16  225.28   39.90
  -2  -5  16  240.98   49.00
   3  -5  16   85.89   30.90
   3   5  16  204.78   37.20
   0   6  16  140.89   37.50
   0   6  16  179.88   35.70
   0  -6  16  210.58   44.20
  -1   6  16   10.40   16.60
  -1   6  16    3.30   18.20
   1  -6  16   33.70   21.10
   1   6  16    3.20   11.60
  -1  -6  16   25.20   22.80
   2  -6  16   43.20   20.90
   2   6  16   -9.40   17.30
   2   6  16    6.70   17.10
   3  -6  16   15.80   21.50
   0   7  16   16.70   19.10
   2  -7  16  207.78   48.30
   3  -7  16  190.38   39.60
   0   0  17   14.70   13.70
   0   0  17    7.80   13.80
   1   0  17   51.99   17.90
   1   0  17   20.40   16.60
  -1   0  17   44.70   18.60
  -1   0  17   16.40   19.00
  -2   0  17  181.18   46.20
   2   0  17  284.47   35.00
   2   0  17  263.67   45.50
  -2   0  17  162.88   39.00
   3   0  17  427.36   51.99
  -3   0  17  478.85   68.29
  -4   0  17   71.29   53.49
   4   0  17  129.79   30.30
   5   0  17  -23.60   15.30
   6   0  17   90.79   30.40
   0   1  17  221.78   41.70
   0   1  17  161.68   37.00
   0  -1  17  165.68   35.70
   0  -1  17  185.48   38.40
  -1   1  17   44.20   28.40
   1  -1  17   38.00   20.50
  -1   1  17   64.79   23.60
   1  -1  17   86.99   26.00
   1   1  17   50.79   19.90
  -1  -1  17   78.59   28.40
   1   1  17   58.79   23.30
   2  -1  17  106.79   24.20
  -2   1  17   96.19   29.10
  -2   1  17  115.89   37.40
   2   1  17  105.79   25.30
  -2  -1  17   20.70   20.80
  -2  -1  17   62.79   24.70
   2   1  17   81.09   20.70
   3  -1  17   54.29   20.90
  -3   1  17   45.10   23.20
  -3   1  17   33.70   20.10
  -3  -1  17   -3.30   18.60
   3   1  17    6.00   16.10
  -3  -1  17   41.40   21.00
   4   1  17  126.19   30.20
   5  -1  17  574.24   62.09
   5   1  17  489.45   58.59
   0  -2  17   36.00   16.30
   0   2  17  -16.40   10.20
   0   2  17   -6.40   13.50
   0  -2  17    7.50   12.40
  -1   2  17   22.60   16.90
   1  -2  17   18.20   17.10
  -1   2  17   15.20   17.70
   1   2  17   12.80   14.30
   1   2  17   -9.90   13.40
  -1  -2  17  -16.10    9.40
  -1  -2  17   12.60   15.90
  -2   2  17   86.39   31.80
  -2   2  17  138.89   33.30
   2  -2  17  126.99   43.30
   2   2  17  148.79   31.10
  -2  -2  17  160.48   45.70
  -2  -2  17  113.69   33.70
   2   2  17  125.49   27.70
  -3   2  17  425.96   61.19
   3  -2  17  447.46   57.29
   3  -2  17  473.65   58.79
  -3   2  17  537.65   69.09
  -3  -2  17  506.15   69.09
  -3  -2  17  465.05   66.69
   3   2  17  456.75   52.29
   4  -2  17   55.19   23.90
   4   2  17  102.79   26.60
   5  -2  17   22.60   28.20
   5   2  17   21.50   16.90
   0  -3  17  125.29   30.40
   0  -3  17   79.89   23.30
   0   3  17   95.49   29.90
   0   3  17  109.49   30.20
  -1   3  17  -21.10   19.00
   1  -3  17   28.40   18.30
   1  -3  17  -29.40   12.90
  -1   3  17   10.30   16.00
  -1  -3  17    2.50   13.60
  -1  -3  17  -11.40   14.20
   1   3  17    0.20   16.10
   1   3  17   21.00   14.30
   2  -3  17   27.40   20.00
   2  -3  17   73.79   22.30
  -2   3  17   74.39   27.60
  -2   3  17   52.29   42.30
   2   3  17    0.30   18.40
  -2  -3  17  122.59   34.70
  -2  -3  17   17.60   17.80
   2   3  17  -10.10   13.90
   3  -3  17   23.20   22.50
   3  -3  17   30.00   17.70
  -3   3  17   20.30   19.70
   3   3  17   66.89   21.00
  -3  -3  17   47.10   29.50
   4   3  17  109.29   30.10
   0  -4  17    6.40   17.90
   0   4  17   37.50   21.70
   0  -4  17   -2.30   15.60
  -1   4  17   83.89   32.20
   1  -4  17   41.50   21.90
   1  -4  17   65.09   35.30
  -1   4  17   44.70   25.90
   1   4  17    4.90   22.00
  -1  -4  17   31.90   24.00
   1   4  17   52.49   19.50
  -2   4  17  103.79   28.80
  -2   4  17   81.89   34.10
   2  -4  17  102.19   29.20
  -2  -4  17  114.59   35.90
   2   4  17  130.79   38.80
   2   4  17   93.79   24.90
   3  -4  17  169.68   48.70
   3   4  17  180.68   35.00
   0   5  17   74.29   28.40
   0   5  17  107.09   29.60
   0  -5  17   94.89   30.00
  -1   5  17  107.09   32.40
   1  -5  17   26.30   26.40
  -1   5  17   55.39   26.70
   1   5  17   36.90   20.60
   1   5  17   87.19   24.40
  -1  -5  17   44.10   26.00
  -2   5  17   34.20   30.00
   2  -5  17   25.50   26.00
   2   5  17   49.50   19.80
   0   6  17  -43.00   16.80
   0   6  17  -26.00   14.70
   1  -6  17   65.09   19.50
   1   6  17   25.80   16.00
   1   6  17   80.59   24.50
   2  -6  17   76.59   30.50
   2   6  17   30.90   29.50
   1   7  17   -0.50   22.70
   0   0  18  -16.00   13.30
   0   0  18   30.40   20.60
  -1   0  18  281.97   53.89
   1   0  18  231.58   47.10
  -1   0  18  267.17   50.59
   1   0  18  316.77   43.30
  -2   0  18   29.70   25.40
   2   0  18   57.19   27.40
  -2   0  18   17.00   26.60
   2   0  18   69.69   22.40
  -3   0  18  140.59   48.90
   3   0  18  136.59   33.20
   5   0  18   47.60   23.60
   0   1  18   11.90   17.70
   0  -1  18    4.90   16.30
   0   1  18  -20.70   13.00
  -1   1  18  519.65   64.99
  -1   1  18  594.14   68.19
   1  -1  18  445.36   55.49
   1  -1  18  469.55   58.59
   1   1  18  546.45   60.89
  -1  -1  18  392.96   58.79
  -1  -1  18  489.05   62.49
  -2   1  18   -3.70   21.20
  -2   1  18    4.70   22.10
   2  -1  18  -17.60   17.10
   2  -1  18  -22.30   11.00
   2   1  18    0.80   13.50
  -2  -1  18   35.20   20.60
   2   1  18    2.30   16.10
   3  -1  18   74.49   29.60
  -3   1  18  189.08   67.69
   3   1  18   19.80   18.20
   4  -1  18   25.20   24.30
   4   1  18   30.80   34.00
   5   1  18  -11.60   18.80
   0  -2  18   -4.90   13.80
   0   2  18   17.00   15.60
   0   2  18   -5.70   17.80
   0  -2  18  -24.90   11.90
  -1   2  18  410.46   57.29
   1  -2  18  287.27   50.89
  -1   2  18  337.47   58.59
   1  -2  18  430.06   54.89
   1   2  18  397.16   89.29
   1   2  18  415.66   54.49
  -2   2  18   75.89   31.50
   2  -2  18   37.60   18.60
   2  -2  18   65.59   25.10
  -2  -2  18   91.29   31.50
   2   2  18   13.80   19.60
   3   2  18  141.29   32.20
   4   2  18   35.60   20.30
   0   3  18   18.30   18.20
   0  -3  18   26.60   19.30
   1  -3  18  373.56   50.79
  -1   3  18  253.47   49.60
  -1  -3  18  446.96   59.79
   1   3  18  448.16   54.59
  -2   3  18   59.99   28.60
   2  -3  18   20.50   18.00
  -2  -3  18   42.00   26.80
   2   3  18   20.90   18.40
   3   3  18   70.09   26.30
   0  -4  18    1.10   18.20
   0   4  18   52.19   26.20
   0   4  18   -5.50   19.50
   1  -4  18  197.88   40.70
  -1   4  18  149.49   39.40
  -1  -4  18  117.99   37.90
   1   4  18  275.77   44.10
   1   4  18  123.99   36.10
   2  -4  18   97.99   30.10
   2   4  18   51.59   30.10
   3   4  18  101.99   25.20
   0   5  18   -3.00   21.00
   0   5  18  -23.90   20.50
  -1   5  18  278.27   85.39
   1  -5  18  364.16   52.79
   1   5  18  258.07   50.69
   1   5  18  237.98   45.50
   2  -5  18    7.20   21.00
   2   5  18   31.50   19.90
   0   0  19   10.70   17.20
  -1   0  19   74.59   30.50
   1   0  19   54.69   27.30
  -2   0  19  638.54  130.99
   2   0  19  372.86   75.69
   0  -1  19  668.13   74.79
   0   1  19  770.82   77.49
  -1   1  19   29.30   23.80
   1  -1  19  -21.60   19.20
   1   1  19   -9.10   17.80
  -1  -1  19   -7.30   22.70
   1   1  19  -28.80   14.50
   2   1  19  -11.60   17.50
   3   1  19   23.70   22.70
   0  -2  19  -26.40   18.30
   0   2  19  -39.60   18.90
   1  -2  19   57.59   25.60
  -1   2  19   23.00   24.60
   1   2  19   -3.30   16.90
   1   2  19   74.69   26.60
  -1  -2  19   15.30   21.70
   2   2  19  430.46   56.59
   3   2  19   24.00   20.40
   4   2  19  -27.90   20.90
   0  -3  19  773.82   80.69
  -1   3  19   12.50   20.10
   1  -3  19  -35.70   25.70
   1   3  19   35.80   25.00
   3   3  19   17.10   22.90
   0   4  19   20.00   24.50
   1  -4  19    5.10   20.60
   2   4  19  437.86   59.29
   0   0  20   46.90   26.60
   0   1  20   12.60   22.40
   0  -1  20    3.10   23.10
   1  -1  20  116.59   40.30
   0  -2  20   28.70   24.50
   0   2  20  -25.20   26.10
   1  -2  20   92.29   30.60
   0   3  20  -33.40   23.90
   1  -3  20   38.40   32.60
   0   0   0    0.00    0.00

_computing_structure_solution     'SHELXT 2014/5 (Sheldrick, 2014)'
;
_shelx_hkl_checksum              74120
_olex2_submission_special_instructions 'No special instructions were received'
loop_
_space_group_symop_operation_xyz
'x, y, z'
'-x+1/2, -y, z+1/2'
'-x, y+1/2, -z'
'x+1/2, -y+1/2, -z+1/2'
'-x, -y, -z'
'x-1/2, y, -z-1/2'
'x, -y-1/2, z'
'-x-1/2, y-1/2, z-1/2'
loop_
_atom_site_label
_atom_site_type_symbol
_atom_site_fract_x
_atom_site_fract_y
_atom_site_fract_z
_atom_site_U_iso_or_equiv
_atom_site_adp_type
_atom_site_occupancy
_atom_site_site_symmetry_order
_atom_site_calc_flag
_atom_site_refinement_flags_posn
_atom_site_refinement_flags_adp
_atom_site_refinement_flags_occupancy
_atom_site_disorder_assembly
_atom_site_disorder_group
I1 I 0.34994(5) 0.250000 1.06639(2) 0.01456(12) Uani 1 2 d S T P . .
Rb1 Rb 0.45265(7) 0.250000 0.79675(4) 0.01488(15) Uani 1 2 d S T P . .
O2 O 0.3438(4) 0.5255(4) 0.3225(2) 0.0180(7) Uani 1 1 d . . . . .
O1 O 0.2901(5) 0.250000 0.6067(3) 0.0169(10) Uani 1 2 d S T P . .
N1 N 0.3310(5) 0.3893(5) 0.4657(3) 0.0129(7) Uani 1 1 d . . . . .
N2 N 0.3535(7) 0.250000 0.3219(3) 0.0153(11) Uani 1 2 d S T P . .
C1 C 0.3160(7) 0.250000 0.5189(4) 0.0144(13) Uani 1 2 d S T P . .
C2 C 0.3422(5) 0.3980(6) 0.3659(3) 0.0137(9) Uani 1 1 d . . . . .
H2 H 0.368(9) 0.250000 0.266(5) 0.03(2) Uiso 1 2 d S T P . .
H1 H 0.300(5) 0.470(5) 0.489(3) 0.003(11) Uiso 1 1 d . . . . .
loop_
_atom_site_aniso_label
_atom_site_aniso_U_11
_atom_site_aniso_U_22
_atom_site_aniso_U_33
_atom_site_aniso_U_23
_atom_site_aniso_U_13
_atom_site_aniso_U_12
I1 0.0164(2) 0.0168(2) 0.01052(17) 0.000 0.00024(14) 0.000
Rb1 0.0130(3) 0.0209(4) 0.0107(2) 0.000 0.0007(2) 0.000
O2 0.0244(16) 0.0116(17) 0.0181(14) 0.0042(13) 0.0031(12) -0.0003(14)
O1 0.018(2) 0.023(3) 0.0103(19) 0.000 -0.0008(16) 0.000
N1 0.0144(17) 0.009(2) 0.0149(16) -0.0023(15) -0.0001(13) 0.0019(15)
N2 0.022(3) 0.016(3) 0.008(2) 0.000 0.002(2) 0.000
C1 0.009(3) 0.020(4) 0.014(3) 0.000 -0.001(2) 0.000
C2 0.0114(19) 0.017(3) 0.0124(18) 0.0002(17) -0.0027(15) -0.0015(19)
loop_
_atom_type_symbol
_atom_type_description
_atom_type_scat_dispersion_real
_atom_type_scat_dispersion_imag
_atom_type_scat_source
C C 0.0033 0.0016 'International Tables Vol C Tables 4.2.6.8 and 6.1.1.4'
H H 0.0000 0.0000 'International Tables Vol C Tables 4.2.6.8 and 6.1.1.4'
I I -0.4742 1.8119 'International Tables Vol C Tables 4.2.6.8 and 6.1.1.4'
N N 0.0061 0.0033 'International Tables Vol C Tables 4.2.6.8 and 6.1.1.4'
O O 0.0106 0.0060 'International Tables Vol C Tables 4.2.6.8 and 6.1.1.4'
Rb Rb -0.9393 2.9676 'International Tables Vol C Tables 4.2.6.8 and 6.1.1.4'
loop_
_geom_angle_atom_site_label_1
_geom_angle_atom_site_label_2
_geom_angle_atom_site_label_3
_geom_angle
_geom_angle_site_symmetry_1
_geom_angle_site_symmetry_3
_geom_angle_publ_flag
I1 Rb1 Rb1 120.726(18) . 6_657 ?
I1 Rb1 Rb1 97.487(16) . 6_557 ?
Rb1 Rb1 Rb1 141.79(3) 6_557 6_657 ?
O2 Rb1 I1 131.24(6) 5_666 . ?
O2 Rb1 I1 131.24(6) 3_646 . ?
O2 Rb1 I1 74.17(6) 2_565 . ?
O2 Rb1 I1 74.17(6) 8_656 . ?
O2 Rb1 Rb1 47.34(6) 2_565 6_557 ?
O2 Rb1 Rb1 139.26(6) 2_565 6_657 ?
O2 Rb1 Rb1 47.33(6) 5_666 6_657 ?
O2 Rb1 Rb1 107.90(6) 3_646 6_557 ?
O2 Rb1 Rb1 47.33(6) 3_646 6_657 ?
O2 Rb1 Rb1 107.90(6) 5_666 6_557 ?
O2 Rb1 Rb1 139.26(6) 8_656 6_657 ?
O2 Rb1 Rb1 47.34(6) 8_656 6_557 ?
O2 Rb1 O2 93.26(9) 2_565 5_666 ?
O2 Rb1 O2 150.84(6) 2_565 3_646 ?
O2 Rb1 O2 93.26(9) 8_656 3_646 ?
O2 Rb1 O2 150.84(6) 8_656 5_666 ?
O2 Rb1 O2 79.43(12) 8_656 2_565 ?
O2 Rb1 O2 79.42(12) 3_646 5_666 ?
O2 Rb1 C1 118.01(8) 2_565 6_657 ?
O2 Rb1 C1 90.45(9) 5_666 6_657 ?
O2 Rb1 C1 118.01(8) 8_656 6_657 ?
O2 Rb1 C1 90.45(9) 3_646 6_657 ?
O1 Rb1 I1 143.60(8) . . ?
O1 Rb1 I1 73.70(8) 6_657 . ?
O1 Rb1 Rb1 171.18(8) 6_657 6_557 ?
O1 Rb1 Rb1 95.67(8) . 6_657 ?
O1 Rb1 Rb1 46.12(8) . 6_557 ?
O1 Rb1 Rb1 47.03(8) 6_657 6_657 ?
O1 Rb1 O2 78.72(8) 6_657 3_646 ?
O1 Rb1 O2 72.82(8) . 5_666 ?
O1 Rb1 O2 78.04(8) . 2_565 ?
O1 Rb1 O2 72.82(8) . 3_646 ?
O1 Rb1 O2 127.86(7) 6_657 2_565 ?
O1 Rb1 O2 127.86(7) 6_657 8_656 ?
O1 Rb1 O2 78.04(8) . 8_656 ?
O1 Rb1 O2 78.72(8) 6_657 5_666 ?
O1 Rb1 O1 142.70(12) 6_657 . ?
O1 Rb1 C1 15.31(12) 6_657 6_657 ?
O1 Rb1 C1 158.01(11) . 6_657 ?
C1 Rb1 I1 58.39(9) 6_657 . ?
C1 Rb1 Rb1 62.34(9) 6_657 6_657 ?
C1 Rb1 Rb1 155.87(9) 6_657 6_557 ?
Rb1 O2 Rb1 85.32(8) 2_564 5_666 ?
C2 O2 Rb1 147.2(3) . 5_666 ?
C2 O2 Rb1 127.5(3) . 2_564 ?
Rb1 O1 Rb1 86.85(11) 6_557 . ?
C1 O1 Rb1 127.0(4) . 6_557 ?
C1 O1 Rb1 146.2(4) . . ?
C1 N1 C2 125.6(4) . . ?
C2 N2 C2 126.9(5) . 7_565 ?
O1 C1 Rb1 37.7(3) . 6_557 ?
O1 C1 N1 122.7(3) . . ?
O1 C1 N1 122.7(3) . 7_565 ?
N1 C1 Rb1 115.2(3) . 6_557 ?
N1 C1 Rb1 115.2(3) 7_565 6_557 ?
N1 C1 N1 114.5(5) . 7_565 ?
O2 C2 N1 122.5(4) . . ?
O2 C2 N2 124.0(4) . . ?
N2 C2 N1 113.5(4) . . ?
loop_
_geom_bond_atom_site_label_1
_geom_bond_atom_site_label_2
_geom_bond_distance
_geom_bond_site_symmetry_2
_geom_bond_publ_flag
I1 Rb1 3.7966(6) . ?
Rb1 Rb1 3.9393(4) 6_657 ?
Rb1 Rb1 3.9392(4) 6_557 ?
Rb1 O2 2.907(3) 5_666 ?
Rb1 O2 2.906(3) 8_656 ?
Rb1 O2 2.906(3) 2_565 ?
Rb1 O2 2.907(3) 3_646 ?
Rb1 O1 2.844(4) 6_657 ?
Rb1 O1 2.887(4) . ?
Rb1 C1 3.713(6) 6_657 ?
O2 Rb1 2.906(3) 2_564 ?
O2 Rb1 2.907(3) 5_666 ?
O2 C2 1.213(5) . ?
O1 Rb1 2.843(4) 6_557 ?
O1 C1 1.227(7) . ?
N1 C1 1.370(5) . ?
N1 C2 1.381(5) . ?
N2 C2 1.369(5) . ?
N2 C2 1.369(5) 7_565 ?
C1 Rb1 3.713(6) 6_557 ?
C1 N1 1.370(5) 7_565 ?
