#------------------------------------------------------------------------------
#$Date: 2021-06-05 22:01:18 +0300 (Sat, 05 Jun 2021) $
#$Revision: 266105 $
#$URL: file:///home/coder/svn-repositories/cod/cif/7/70/72/7707221.cif $
#------------------------------------------------------------------------------
#
# This file is available in the Crystallography Open Database (COD),
# http://www.crystallography.net/
#
# All data on this site have been placed in the public domain by the
# contributors.
#
data_7707221
loop_
_publ_author_name
'Buchner, Magnus R.'
'M\"uller, Matthias'
_publ_section_title
;
 Ethylenediamine complexes of the beryllium halides and pseudo-halides.
;
_journal_issue                   21
_journal_name_full
'Dalton transactions (Cambridge, England : 2003)'
_journal_page_first              7246
_journal_page_last               7255
_journal_paper_doi               10.1039/d1dt01154e
_journal_volume                  50
_journal_year                    2021
_chemical_formula_sum            'C6 H24 Be Cl2 N6'
_chemical_formula_weight         260.22
_space_group_crystal_system      triclinic
_space_group_IT_number           2
_space_group_name_Hall           '-P 1'
_space_group_name_H-M_alt        'P -1'
_atom_sites_solution_hydrogens   difmap
_audit_creation_method           SHELXL-2014/7
_audit_update_record
;
2021-04-07 deposited with the CCDC.	2021-04-27 downloaded from the CCDC.
;
_cell_angle_alpha                101.461(2)
_cell_angle_beta                 97.088(2)
_cell_angle_gamma                90.561(2)
_cell_formula_units_Z            2
_cell_length_a                   7.3971(2)
_cell_length_b                   7.4939(2)
_cell_length_c                   12.4382(3)
_cell_measurement_reflns_used    22887
_cell_measurement_temperature    100(2)
_cell_measurement_theta_max      159.64
_cell_measurement_theta_min      7.31
_cell_volume                     670.16(3)
_computing_structure_refinement  'SHELXL-2014/7 (Sheldrick, 2014)'
_diffrn_ambient_temperature      100(2)
_diffrn_detector_area_resol_mean 5.81
_diffrn_measured_fraction_theta_full 0.988
_diffrn_measured_fraction_theta_max 0.980
_diffrn_measurement_device_type  'STOE STADIVARI'
_diffrn_measurement_method       'rotation method, \w scans'
_diffrn_radiation_type           CuK\a
_diffrn_radiation_wavelength     1.54178
_diffrn_reflns_av_R_equivalents  0.0351
_diffrn_reflns_av_unetI/netI     0.0248
_diffrn_reflns_Laue_measured_fraction_full 0.988
_diffrn_reflns_Laue_measured_fraction_max 0.980
_diffrn_reflns_limit_h_max       7
_diffrn_reflns_limit_h_min       -9
_diffrn_reflns_limit_k_max       8
_diffrn_reflns_limit_k_min       -9
_diffrn_reflns_limit_l_max       15
_diffrn_reflns_limit_l_min       -15
_diffrn_reflns_number            11859
_diffrn_reflns_point_group_measured_fraction_full 0.988
_diffrn_reflns_point_group_measured_fraction_max 0.980
_diffrn_reflns_theta_full        67.679
_diffrn_reflns_theta_max         77.319
_diffrn_reflns_theta_min         3.656
_diffrn_source                   'GeniX 3D HF Cu'
_exptl_absorpt_coefficient_mu    4.205
_exptl_absorpt_correction_type   none
_exptl_crystal_colour            colorless
_exptl_crystal_density_diffrn    1.290
_exptl_crystal_description       block
_exptl_crystal_F_000             280
_exptl_crystal_size_max          0.07
_exptl_crystal_size_mid          0.07
_exptl_crystal_size_min          0.07
_refine_diff_density_max         0.452
_refine_diff_density_min         -0.481
_refine_diff_density_rms         0.101
_refine_ls_extinction_coef       0.0122(15)
_refine_ls_extinction_expression Fc^*^=kFc[1+0.001xFc^2^\l^3^/sin(2\q)]^-1/4^
_refine_ls_extinction_method     'SHELXL-2014/7 (Sheldrick 2014'
_refine_ls_goodness_of_fit_ref   1.071
_refine_ls_hydrogen_treatment    refall
_refine_ls_matrix_type           full
_refine_ls_number_parameters     233
_refine_ls_number_reflns         2791
_refine_ls_number_restraints     0
_refine_ls_restrained_S_all      1.071
_refine_ls_R_factor_all          0.0389
_refine_ls_R_factor_gt           0.0358
_refine_ls_shift/su_max          0.001
_refine_ls_shift/su_mean         0.000
_refine_ls_structure_factor_coef Fsqd
_refine_ls_weighting_details
'w=1/[\s^2^(Fo^2^)+(0.0777P)^2^] where P=(Fo^2^+2Fc^2^)/3'
_refine_ls_weighting_scheme      calc
_refine_ls_wR_factor_gt          0.0932
_refine_ls_wR_factor_ref         0.0960
_reflns_Friedel_coverage         0.000
_reflns_number_gt                2539
_reflns_number_total             2791
_reflns_threshold_expression     'I > 2\s(I)'
_cod_data_source_file            d1dt01154e2.cif
_cod_data_source_block           5
_cod_depositor_comments
'Adding full bibliography for 7707219--7707225.cif.'
_cod_database_code               7707221
_shelx_shelxl_version_number     2014/7
_shelx_space_group_comment
;
The symmetry employed for this shelxl refinement is uniquely defined
by the following loop, which should always be used as a source of
symmetry information in preference to the above space-group names.
They are only intended as comments.
;
_shelx_res_file
;

    5.res created by SHELXL-2014/7


TITL 1_a.res in P-1
REM Old TITL 1 in P-1
REM SHELXT solution in P-1
REM R1 0.091,  Rweak 0.005,  Alpha 0.035,  Orientation as input
REM Formula found by SHELXT:  C6 Be N6 Cl2
CELL  1.54178   7.3971   7.4939  12.4382  101.461   97.088   90.561
ZERR    2.000   0.0002   0.0002   0.0003    0.002    0.002    0.002
LATT  1
SFAC C H BE N CL
UNIT 12 48 2 12 4
L.S. 10
BOND $H
LIST 4
ACTA
TEMP -173.15
FMAP 2
HTAB
EQIV $1 x-1, y, z
HTAB N1 N6_$1
HTAB N1 Cl1
HTAB C1 Cl2_$1
EQIV $2 -x+1, -y+1, -z+1
HTAB N2 Cl2_$2
HTAB N2 Cl2
EQIV $3 x+1, y, z
HTAB N3 Cl1_$3
EQIV $4 -x, -y+1, -z
HTAB N3 Cl1_$4
HTAB C3 Cl1
EQIV $5 -x, -y, -z
HTAB N4 Cl1_$5
EQIV $6 -x+1, -y+2, -z+1
HTAB N5 Cl2_$6
EQIV $7 x, y+1, z
HTAB N5 N4_$7
HTAB C5 Cl2
EQIV $8 -x+2, -y+2, -z+1
HTAB N6 Cl2_$8
EQIV $9 x+1, y+1, z
HTAB N6 Cl1_$9
HTAB N1 N6_$1
HTAB N1 Cl1
HTAB C1 Cl2_$1
HTAB N2 Cl2_$2
HTAB N2 Cl2
HTAB N3 Cl1_$3
HTAB N3 Cl1_$4
HTAB C3 Cl1
HTAB N4 Cl1_$5
HTAB N5 Cl2_$6
HTAB N5 N4_$7
HTAB C5 Cl2
HTAB N6 Cl2_$8
HTAB N6 Cl1_$9
PLAN 20
SHEL 9999999 0.79
OMIT -1   1   2
OMIT 1   1   2
OMIT 7   3   5
OMIT 1   3   1
OMIT 2   2   1
OMIT 1   1   3
WGHT    0.077700
EXTI    0.012227
FVAR       0.48030
CL1   5   -0.216238    0.409074    0.102240    11.00000    0.00994    0.00776 =
         0.01063    0.00207   -0.00204   -0.00270
CL2   5    0.716443    0.795108    0.561354    11.00000    0.01059    0.00835 =
         0.00840    0.00194   -0.00132   -0.00197
N1    4    0.082884    0.696733    0.259009    11.00000    0.00743    0.00693 =
         0.00997    0.00247   -0.00040   -0.00131
N2    4    0.366914    0.609664    0.385412    11.00000    0.00943    0.00720 =
         0.00849    0.00290   -0.00290   -0.00319
N3    4    0.357905    0.502419    0.145803    11.00000    0.00787    0.00658 =
         0.00756    0.00277   -0.00090   -0.00212
N4    4    0.228806    0.001481    0.063558    11.00000    0.01378    0.00603 =
         0.01237    0.00105   -0.00322   -0.00247
N5    4    0.422427    0.872706    0.256239    11.00000    0.00615    0.00632 =
         0.00736    0.00248   -0.00135   -0.00211
N6    4    0.895750    1.070653    0.260284    11.00000    0.00810    0.01086 =
         0.01997    0.00162    0.00007   -0.00527
C1    1    0.042593    0.644647    0.363989    11.00000    0.01135    0.01526 =
         0.01301    0.00542    0.00384   -0.00109
C2    1    0.213704    0.686581    0.445964    11.00000    0.01782    0.01146 =
         0.00745    0.00229    0.00293   -0.00174
C3    1    0.282987    0.319394    0.149637    11.00000    0.01117    0.00537 =
         0.00847    0.00139    0.00024   -0.00220
C4    1    0.286298    0.178940    0.043746    11.00000    0.01513    0.00735 =
         0.00870    0.00156   -0.00186   -0.00200
C5    1    0.625053    0.880836    0.267014    11.00000    0.00632    0.00751 =
         0.01185    0.00427   -0.00131   -0.00221
C6    1    0.695793    1.063690    0.251655    11.00000    0.00746    0.00770 =
         0.01194    0.00251   -0.00053   -0.00279
BE1   3    0.316921    0.669496    0.256571    11.00000    0.00635    0.00635 =
         0.00658    0.00261   -0.00147   -0.00197
H1A   2    0.052031    0.814352    0.261528    11.00000    0.01452
H1B   2    0.004668    0.620636    0.197151    11.00000    0.02310
H1C   2   -0.064269    0.705836    0.392832    11.00000    0.03998
H1D   2    0.012932    0.512291    0.345930    11.00000    0.02548
H2A   2    0.367385    0.486831    0.382683    11.00000    0.02287
H2B   2    0.471327    0.657243    0.424714    11.00000    0.01953
H2C   2    0.241096    0.819169    0.466432    11.00000    0.01328
H2D   2    0.205596    0.634447    0.506964    11.00000    0.02356
H3A   2    0.479059    0.492674    0.141452    11.00000    0.02258
H3B   2    0.310220    0.533163    0.084742    11.00000    0.01445
H3C   2    0.348298    0.281688    0.208654    11.00000    0.01688
H3D   2    0.153811    0.329066    0.165244    11.00000    0.01535
H4A   2    0.121258    0.007531    0.079648    11.00000    0.02846
H4B   2    0.228530   -0.086877    0.007622    11.00000    0.02090
H4C   2    0.205004    0.217973   -0.015090    11.00000    0.01946
H4D   2    0.408184    0.173258    0.026475    11.00000    0.01348
H5A   2    0.381639    0.960038    0.307117    11.00000    0.01642
H5B   2    0.381976    0.908059    0.196389    11.00000    0.02687
H5C   2    0.673618    0.864997    0.340596    11.00000    0.01225
H5D   2    0.665588    0.775443    0.213207    11.00000    0.01549
H6A   2    0.942962    1.101292    0.323947    11.00000    0.01837
H6B   2    0.933954    1.162592    0.232537    11.00000    0.02053
H6C   2    0.648574    1.156571    0.302879    11.00000    0.01431
H6D   2    0.647223    1.071508    0.178719    11.00000    0.01762
HKLF 4

REM  1_a.res in P-1
REM R1 =  0.0358 for    2539 Fo > 4sig(Fo)  and  0.0389 for all    2791 data
REM    233 parameters refined using      0 restraints

END

WGHT      0.0777      0.0000

REM Instructions for potential hydrogen bonds
HTAB N1 N6_$1
HTAB N1 Cl1
HTAB C1 Cl2_$1
HTAB N2 Cl2_$2
HTAB N2 Cl2
HTAB N3 Cl1_$3
HTAB N3 Cl1_$4
HTAB C3 Cl1
HTAB N4 Cl1_$5
HTAB N5 Cl2_$6
HTAB N5 N4_$7
HTAB C5 Cl2
HTAB N6 Cl2_$8
HTAB N6 Cl1_$9

REM Highest difference peak  0.452,  deepest hole -0.481,  1-sigma level  0.101
Q1    1   0.6571  0.9736  0.2613  11.00000  0.05    0.45
Q2    1  -0.1232  0.4736  0.1794  11.00000  0.05    0.44
Q3    1   0.2842  0.2529  0.0984  11.00000  0.05    0.41
Q4    1   0.1243  0.6580  0.4041  11.00000  0.05    0.38
Q5    1   0.8622  0.8630  0.6336  11.00000  0.05    0.37
Q6    1   0.2581  0.0845  0.0569  11.00000  0.05    0.37
Q7    1   0.7785  0.9091  0.6297  11.00000  0.05    0.36
Q8    1  -0.1539  0.6722  0.1598  11.00000  0.05    0.35
Q9    1   0.6235  0.7577  0.4840  11.00000  0.05    0.34
Q10   1   0.3808  0.7513  0.2411  11.00000  0.05    0.34
Q11   1   0.5223  1.1057  0.3878  11.00000  0.05    0.31
Q12   1  -0.0007  0.4398  0.2418  11.00000  0.05    0.30
Q13   1   0.1832  0.6809  0.2574  11.00000  0.05    0.30
Q14   1  -0.2544  0.3003  0.0437  11.00000  0.05    0.29
Q15   1  -0.0376  0.5235  0.1248  11.00000  0.05    0.29
Q16   1   0.5267  0.5358  0.2349  11.00000  0.05    0.28
Q17   1   0.5489  0.4601  0.2977  11.00000  0.05    0.27
Q18   1   0.4679  0.5577  0.2235  11.00000  0.05    0.27
Q19   1   0.5360  1.2180  0.3935  11.00000  0.05    0.27
Q20   1   0.3431  0.5775  0.2042  11.00000  0.05    0.26
;
_shelx_res_checksum              52929
_shelx_hkl_file
;
  -3   1   1    1.61    0.79   0
  -1   0  -1    0.26    0.20   0
  -3   1   2    7.27    0.88   0
  -3   1   3  568.62    2.74   0
  -2   1   4  173.81    1.39   0
  -1   0   1  159.35    0.77   0
  -4   1   0   61.40    1.15   0
  -3   2   5   44.39    1.13   0
  -2   0   1  547.76    1.82   0
  -4   1   3  150.87    1.68   0
  -2   0   2  992.89    2.54   0
  -1   0   2  253.87    1.02   0
  -3   0   2    1.61    0.66   0
  -3   1   5  522.45    2.74   0
  -2   0   3    0.33    0.32   0
  -3   0   3   31.42    0.94   0
  -4   0   0   36.18    0.92   0
  -4   0   2  628.41    3.07   0
  -3   0   4  126.90    1.44   0
  -2   1   6   22.61    0.74   0
  -4   0   3  165.84    1.75   0
  -3   0   5    7.83    0.60   0
  -1   0   4  500.18    1.69   0
  -2  -1   2   44.23    0.78   0
  -2  -1   3  246.29    1.56   0
  -2  -1   4   -1.24    0.67   0
  -1  -1   2   71.02    0.76   0
  -1   0   6    2.56    0.51   0
  -4  -2   3    5.90    0.92   0
  -3  -2   2    0.96    0.81   0
  -1  -1   0    9.08    0.38   0
  -3  -2   1    9.32    0.65   0
  -2  -2   4  144.44    1.49   0
  -3  -2   0   13.23    0.73   0
  -2  -1  -2   33.80    0.44   0
  -2  -2   1  621.16    2.33   0
  -2  -2   6   21.47    0.90   0
  -1  -1   6   29.74    0.72   0
  -2  -2   0   20.31    0.63   0
  -3  -3   4    5.45    0.91   0
  -3  -2  -1   11.89    0.67   0
  -3  -3   3    0.46    0.73   0
  -2  -2   7  100.06    1.43   0
  -1  -2   3  349.81    1.72   0
  -1  -2   4  672.14    2.53   0
  -1  -2   2   76.10    0.89   0
  -3  -1   4   32.25    1.06   0
   0   0   6  814.68    3.27   0
  -3  -1   3   61.83    1.09   0
  -2  -1   5  785.17    3.41   0
  -2  -1   2   38.12    0.72   0
  -2  -1   6    6.29    1.11   0
  -4  -1   4   48.49    1.39   0
  -1  -1   3  343.44    1.77   0
  -1  -1   5    1.22    0.69   0
  -1  -1   2   71.94    0.92   0
   0   0   8   51.11    1.55   0
   1   0   4  352.96    1.68   0
   1   0   3  293.41    1.26   0
  -3  -1   1  400.98    1.72   0
   1   0   6   -0.67    0.74   0
  -3  -2   6  125.19    2.01   0
   0  -1   3 1252.50    3.01   0
   0  -1   7   91.52    1.58   0
  -3  -2   5   33.73    1.28   0
  -3  -2   4   80.32    1.36   0
  -1  -1   1    5.26    0.41   0
  -1  -2   5   46.21    1.25   0
  -1  -2   6  451.19    2.89   0
   1   0   2  185.01    0.68   0
  -1  -2   7    7.00    0.71   0
  -2  -2   3   92.66    1.15   0
   0  -1   2   62.06    0.69   0
   0  -2   7    6.95    0.90   0
   1  -1   5   28.46    0.75   0
   0  -2   5    1.98    0.75   0
  -2  -2   2  263.56    1.43   0
   1  -1   4  116.88    0.94   0
  -3  -2   2    0.93    0.51   0
  -2  -3   6   -0.57    0.78   0
   0  -2   4  355.63    1.86   0
  -2   0  -1    8.08    0.16   0
  -1  -3   5    2.97    0.82   0
  -3  -3   4    5.29    0.61   0
   0  -2   3   23.88    0.64   0
  -1  -3   4    8.94    0.94   0
   0  -1   1   47.17    0.49   0
   0  -3   6   64.77    1.28   0
  -2  -3   3   46.06    1.01   0
   1  -2   5  160.93    1.52   0
  -3  -3   3    0.71    0.67   0
   0  -3   5    4.44    0.96   0
  -2  -2   1  554.80    1.88   0
  -1  -3   3  180.50    1.71   0
   0  -2   2 1236.46    3.10   0
   0  -3   4   68.07    1.36   0
  -2  -3   2   15.54    0.91   0
  -1  -4   5  299.86    2.67   0
   1  -3   6    0.20    0.93   0
  -2  -4   4    0.03    1.07   0
   1  -3   5  199.41    2.11   0
   2  -1   4   57.48    0.82   0
   0  -2   1  844.38    2.57   0
   0  -4   4    5.53    1.10   0
   2  -2   5  327.01    2.18   0
  -1  -4   3  323.05    2.53   0
   1  -3   3   78.62    1.34   0
   2  -2   4  101.47    1.18   0
   0  -4   3  509.67    2.93   0
  -2  -2   0   18.04    0.41   0
  -1  -4   2   31.87    0.89   0
  -1  -2   0  544.58    1.57   0
   1  -1   1   55.26    0.52   0
   0  -1   0    3.74    0.23   0
   1   3  -6  230.80    1.68   0
   4   2  -1   54.11    1.22   0
   0   1  -3 1194.89    1.86   0
   4   2   0   57.05    1.26   0
   3   1   0  298.10    1.81   0
   3   2  -3  352.81    2.36   0
   4   2   1  518.35    2.95   0
   3   3  -4    5.89    0.84   0
   2   3  -5   34.57    0.86   0
   3   2  -2    1.33    0.83   0
   1   3  -5    2.74    0.53   0
   3   3  -3    0.80    0.72   0
   2   1  -1   20.73    0.52   0
   3   2  -1  176.72    1.49   0
   0   3  -5    4.02    0.47   0
   3   2   0   21.60    0.68   0
   2   1   0  191.59    0.94   0
   3   3   0  171.64    1.41   0
   2   1   1  157.27    0.83   0
   3   3   1    1.26    0.48   0
   3   3   2   13.01    0.63   0
   1   0   2  174.36    0.45   0
   2   1   2   51.00    0.55   0
   0   3  -4   57.86    0.77   0
   2   1   3   49.72    0.60   0
   2   2   0   16.83    0.64   0
   2   3  -1    3.28    0.78   0
   0   4  -4    5.42    0.75   0
   1   4  -3  306.68    2.25   0
   2   4  -1   57.78    1.17   0
   2   3   0    6.65    0.77   0
   2   2   2   -0.45    0.68   0
   2   2   3   67.73    1.08   0
   1   1   0    8.84    0.46   0
   2   3   2  157.86    1.59   0
   2   3   3    0.10    0.65   0
   0   3  -3    0.01    0.52   0
   0   4  -3  504.54    2.46   0
   1  -1  -3  425.67    2.08   0
   3   0  -5    7.37    1.14   0
   1  -1  -4    7.27    0.89   0
   3   1  -3   60.72    1.39   0
   3   2  -2    0.42    0.73   0
   2   1  -1   -0.20    0.45   0
   2   0  -3   -0.02    0.54   0
   1   0  -1  166.44    0.93   0
   3   1  -5   44.61    1.41   0
   2   0  -4  201.16    1.84   0
  -1  -1  -4    0.87    0.53   0
   1   0  -2  271.57    1.42   0
   2   1  -5  780.06    3.78   0
   2   1  -4   -1.23    0.82   0
  -1   0  -6    0.24    0.51   0
   1   1  -5    0.65    0.35   0
   2   3  -6    0.93    0.74   0
   0   0  -3   29.01    0.63   0
   1   2  -1   -2.78   14.40   0
   1   3   1   -0.12    0.01   0
  -1   3   4  120.13    1.19   0
   3   2   1    1.98    3.58   0
   1   1   0    2.12    3.48   0
  -1   2   3  137.19    1.59   0
   3   2   2    0.06    0.01   0
   2   2   3  -16.08   31.93   0
   0   1   1   -0.97    4.13   0
  -1   1   2 9999.99   21.01   0
   3   1   2   28.46  182.50   0
  -2   0   5   67.09    0.85   0
  -2  -1   4    0.10    0.46   0
  -1   1   3  423.35    1.90   0
   0   2   3    0.25    0.50   0
   0   2   4    0.50    1.06   0
   0   1   1    0.39    0.32   0
   0   2   5  456.79    3.17   0
  -1   1   4    7.35    0.75   0
  -1   1   6   62.56    1.22   0
   2   2   1    0.47    0.34   0
   2   2   2   -0.09    0.19   0
   0   1   2  259.74    0.71   0
   2   2   3   -0.14    0.25   0
   0   1   5    0.97    0.46   0
   0   1   4  962.01    2.51   0
   1   1   4   -0.73    1.15   0
   1   1   2    0.13    0.86   0
   1   1   3    0.25    0.77   0
   0   0   5   33.04    1.14   0
   1   0   6   -1.16    0.79   0
  -1  -1   4   92.27    0.82   0
   0   0   3   29.90    0.52   0
  -1  -1   3  355.95    1.29   0
  -2   2  -2  361.89  221.68   0
   0   4  -2  122.87    0.01   0
  -2   0   0  722.24    0.56   0
   2   2   1   35.96    0.01   0
   2   2   2   -0.07  108.83   0
  -3  -1   4   33.11    1.02   0
  -1   1   4    7.45    0.93   0
   0   1   2    0.57    0.59   0
  -2   0   6  297.58    2.72   0
   0   1   6    3.62    0.98   0
   0   1   5    0.07    0.94   0
   1   1   6    0.28    0.88   0
   1   1   2    0.08    0.39   0
  -1   0   7   97.37    1.85   0
  -1   0   2  283.84    1.43   0
   1   1   3   26.24    0.76   0
   1   1   4   42.71    1.01   0
  -1   0   6    1.78    0.99   0
  -2  -1   4   -0.68    0.93   0
   0   0   5   37.17    0.88   0
   1   0   6    0.27    0.34   0
  -2  -3   6   -0.08    0.51   0
  -1  -1   5    0.84    0.45   0
   0   0   4    1.09    0.33   0
  -1  -1   4   93.07    1.31   0
   0   0   3   27.73    0.62   0
   2   0   2  249.59    1.09   0
   1   1   2    0.41    0.26   0
   4  -1  -1  754.76    3.11   0
   1   0   1    0.03    0.22   0
   3   0   1  200.47    1.60   0
   3   2   2    0.60    0.64   0
   3  -1  -1    0.70    0.60   0
   4   0   0   36.56    1.08   0
   2   2   2   -0.14    0.55   0
   3   1   1   41.18    1.02   0
   4   0  -1  100.97    1.41   0
   4   1   0  176.11    1.89   0
   3   2   1   -0.16    0.51   0
   3   0  -1   29.01    0.77   0
   2   2   1    0.16    0.49   0
   2   3   1    0.25    0.51   0
   4   0  -4   86.90    1.21   0
   4   0  -5   37.19    1.01   0
   3   1  -1  455.29    2.26   0
   1   3   1    0.04    0.37   0
   0  -1  -2    0.25    0.11   0
   3   2  -1    0.40    0.75   0
   4   1  -4   51.36    1.23   0
   2   0  -5   76.96    1.10   0
   1   0  -6    2.56    0.44   0
   3   1  -1  386.99    1.72   0
   1   0  -5   48.77    0.73   0
   3   1  -2  104.51    1.25   0
   3   1  -4   32.31    1.12   0
   3   2  -2    0.42    0.80   0
   2   1  -1    1.49    0.42   0
   3   2  -3  305.70    2.15   0
   2   1  -2   28.74    0.56   0
   2   2   1   -0.11    0.28   0
   3   3  -3    0.20    0.57   0
   1   1  -5    0.87    0.47   0
   2   2  -4  128.40    1.35   0
   2   3  -6   -0.67    0.79   0
   0   0  -2   75.86    0.45   0
   2   2  -1  577.23    2.20   0
   1   1  -4   84.08    0.85   0
   2   2  -3   98.44    1.11   0
   2   2  -2  294.87    1.67   0
  -4   2  -2  221.00    2.42   0
  -2   1  -2  239.17    1.56   0
   0   1  -1    1.83    0.29   0
  -3   0  -1  227.20    1.18   0
   1   3   0 1411.26    3.53   0
   0   4  -1   21.19    1.03   0
   1   2   0  373.57    1.34   0
  -2   0  -1    8.50    0.35   0
  -3   3  -2   53.10    1.42   0
  -2   2  -2  362.00    2.16   0
  -2   3  -2   55.46    1.42   0
   0   2  -1  639.76    2.17   0
  -4   2  -1   11.80    1.04   0
   1   3   1   14.33    0.66   0
  -3   1  -1  288.11    1.93   0
  -1   3  -1   45.94    1.22   0
  -3   2  -1    2.27    0.88   0
  -2   4   0    2.71    1.03   0
  -2   2  -1    6.65    0.71   0
  -3   3   0    0.39    0.77   0
   1   2   1    7.90    0.30   0
   1   3   2    0.53    0.53   0
  -2   3   0   11.64    0.84   0
   0   2   0    6.59    0.37   0
  -3   0   0  196.93    0.92   0
  -3   1   0  119.30    0.97   0
  -2   2   0    4.35    0.37   0
   0   1   0    3.40    0.20   0
  -3   3   2   80.29    1.83   0
  -1  -1   0    8.92    0.22   0
  -2   3   2  312.51    4.23   0
   3  -1   5   10.61    1.19   0
   3   0   4   66.05    1.18   0
   0  -3   2  156.66    1.06   0
   1  -3   4   21.43    0.94   0
   1  -2   4  253.88    1.73   0
   2  -3   5  165.10    1.84   0
   2   1   2   50.79    0.59   0
   1  -4   3   91.45    1.16   0
   2   0   3  534.62    2.06   0
   1   0   2  181.89    0.93   0
   2  -3   4   25.56    0.98   0
   2  -2   4  107.27    1.33   0
   3   1   2   27.23    0.77   0
   1  -3   3   81.54    1.14   0
   3   0   3   55.75    1.05   0
   0  -3   1   42.20    0.58   0
   3  -2   4  102.84    1.50   0
   2  -1   3  764.21    2.82   0
   0  -2   1  740.48    1.65   0
   2  -2   3   64.89    1.02   0
   1  -3   2  131.71    1.21   0
   1  -1   2   42.27    0.64   0
   3  -3   3  240.31    2.20   0
   2  -4   2   18.26    0.88   0
   2   1   1  184.23    0.90   0
   3  -2   3    1.74    0.82   0
   1  -4   1    8.69    0.62   0
   1  -2   2   92.78    0.87   0
   3   0   2  182.44    1.38   0
   3   1   1   40.89    0.63   0
   0  -3   0    2.55    0.28   0
   3  -3   2   53.56    1.06   0
   2  -4   1   74.11    1.10   0
   3  -1   2   42.68    0.92   0
   2  -2   2  361.92    1.83   0
   3  -2   2   69.76    1.13   0
   4  -2   1   11.03    0.80   0
   2  -4   0    3.13    0.65   0
   2  -3   1  600.18    2.54   0
   3  -3   1   21.44    0.72   0
   3   0   1  210.64    1.39   0
   1  -1   1   49.70    0.51   0
   2   1   0  147.15    0.34   0
   1   1   0    1.03    0.02   0
   0  -1   0    2.01    0.11   0
   3   0   0  171.16    0.92   0
   0  -3  -2  392.23    2.02   0
   2  -1   0  154.86    1.11   0
   1  -1   0   22.69    0.39   0
   1  -2  -1  385.03    1.55   0
   3  -1  -1    0.99    0.51   0
   1  -3  -3    0.34    0.52   0
   1  -3  -4  121.13    1.45   0
   1   0   0   27.15    0.30   0
   3   1  -1  401.77    1.48   0
   0  -2  -2  316.88    1.54   0
   1  -2  -2  876.87    3.02   0
   2  -2  -3  144.55    1.83   0
   1  -1  -1  131.20    0.99   0
   2  -2  -4   71.87    1.57   0
   0  -2  -3    0.06    0.60   0
   0  -1  -1    1.62    0.35   0
   2  -2  -5  398.18    3.00   0
   1  -2  -4    0.78    0.93   0
   3  -1  -4    4.88    1.05   0
   0  -2  -4   -0.00    0.77   0
   1  -2  -5  533.21    3.32   0
   2  -4  -2   37.47    1.32   0
   4  -1   0   54.92    1.39   0
   3   1   0  212.75    1.03   0
   3  -2   0  272.92    2.22   0
   1  -3  -1  130.20    1.49   0
   3  -3  -1  173.11    2.08   0
   0  -3  -2  390.08    1.92   0
   2  -3  -1   24.51    1.05   0
   2  -2   0    4.87    0.62   0
   4  -2  -1   13.17    0.99   0
   3  -1   0  139.64    1.29   0
   3   0   0  207.25    1.19   0
   2  -1   0  118.91    0.87   0
   1  -1   0   21.01    0.34   0
   1  -2  -1  374.26    1.48   0
   1  -3  -3    0.15    0.36   0
   2   0   0  747.89    1.62   0
   2   1   0  169.20    0.55   0
   0  -2  -2  305.64    1.36   0
   1   0   0   31.16    0.37   0
   2  -1  -1  793.32    2.63   0
   3  -1  -2    5.36    0.71   0
   2  -2  -3  162.98    2.01   0
   1  -1  -1  151.33    1.25   0
   3  -1  -3  581.66    3.56   0
   0  -1  -1    1.78    0.38   0
   3   0  -2    1.75    0.74   0
   4   0  -4   83.99    1.51   0
   1  -2  -4    0.96    0.63   0
   0   4   2   24.64    1.10   0
  -2   3   1   30.67    1.16   0
  -1   4   2   16.43    0.91   0
   0   2   0   10.40    0.54   0
  -3   1   1    0.71    0.44   0
  -1   3   1  128.49    1.31   0
   0   1   0    5.20    0.30   0
  -2   3   2  352.19    2.52   0
  -3   2   2  133.37    1.47   0
   1   2   1   12.68    0.57   0
   2   2   2   -0.33    0.51   0
  -2   3   3   55.34    1.39   0
   1   3   3    8.12    0.76   0
   0   2   1  320.94    1.59   0
  -3   2   3   63.06    1.24   0
  -2   3   4   40.23    1.18   0
  -1   3   3    0.74    0.57   0
   0   3   3   26.80    0.95   0
  -2   2   2   96.35    1.05   0
   1   3   4  100.45    1.32   0
  -1   3   4  131.61    1.40   0
   0   3   5    2.95    0.64   0
   1   2   2  155.89    0.96   0
  -3   0   2    1.59    0.35   0
   0   2   2  297.12    1.43   0
  -2   0   1  420.63    1.07   0
   1   2   3  258.09    1.44   0
   1   1   1  136.91    0.55   0
  -1   2   4    0.01    0.11   0
   0   1   1    0.18    0.05   0
   0  -1   3 1233.61    2.04   0
   0   0   1    4.06    0.14   0
   1   0   5  254.02    1.80   0
   3   3   1    2.01    0.66   0
   2   1   5    3.94    0.78   0
   2   2   2    0.41    0.28   0
   2  -2   6    0.29    0.19   0
   3   2   2    0.48    0.19   0
   2   1   3   28.91    0.40   0
   1  -1   4  119.98    0.76   0
   1   1   1  131.30    0.69   0
   3   1   3   39.58    0.98   0
   2   2  -1  614.65    1.80   0
   3   2   0   31.51    0.78   0
   3  -2   5   90.70    1.27   0
   3   1   2   27.48    0.79   0
   2   0   3  534.39    1.94   0
   1   1   0    4.57    0.18   0
   2   1   1  129.72    0.74   0
   3   2  -1  115.76    0.79   0
   2   2  -2  279.05    0.96   0
   4   1   1   22.34    0.81   0
   2  -1   3  770.51    2.68   0
   2   1   2   59.02    0.68   0
   1   1   1  144.16    0.58   0
   3   0   3   57.63    0.99   0
   1  -1   2   42.06    0.57   0
   2  -3   2   56.70    0.78   0
   3  -2   3    1.65    0.46   0
   4   1   2    1.15    0.55   0
   3   1   2   24.03    0.60   0
   3  -3   2   57.02    1.03   0
   2  -2   2  361.98    1.68   0
   1  -3   0  126.14    0.75   0
   2  -3   1  530.81    1.98   0
   3  -2   2   68.07    0.89   0
   3  -1   2   40.27    0.66   0
   4   1   1   17.88    0.57   0
   1   0   1   72.79    0.44   0
   2   1   1  146.71    0.71   0
   3   1   1   33.55    0.55   0
   3  -2   1    2.06    0.53   0
   2  -3   0   13.41    0.49   0
   3  -3   0    0.47    0.51   0
   3   2   0   21.12    0.45   0
   2   2   0   14.90    0.29   0
   4  -2   0   29.32    0.88   0
   4  -1   0   61.99    1.12   0
   3   1   0  180.82    1.03   0
   2   3  -6    0.66    0.86   0
   1   2  -6  397.60    2.64   0
   2   2  -4  109.25    1.42   0
  -1   1  -5   29.09    0.69   0
   0   0   1    2.52    0.10   0
   0   2  -6  129.50    1.64   0
   2   2  -2  294.75    1.73   0
   2   2  -1  580.74    2.21   0
   1   1  -2   61.70    0.84   0
   2   2   0   19.01    0.54   0
  -1   2  -6  722.52    3.48   0
   2   4  -4   -0.35    1.07   0
   2   3  -3   51.14    1.30   0
   1   2  -4  703.30    3.10   0
   2   4  -3  233.56    2.49   0
   1   1  -1    5.15    0.47   0
  -1   1  -4  190.51    1.35   0
   2   3  -1    4.11    0.77   0
   2   4  -2   61.70    1.42   0
  -1   3  -6    0.82    1.16   0
   1   2  -3  336.19    2.03   0
   1   3  -4    9.08    0.91   0
   2   3   0    5.59    0.68   0
  -2   1  -4   55.16    0.83   0
   0   3  -5    5.20    1.21   0
   1   4  -4  666.75    3.96   0
  -2   2  -5  343.07    2.34   0
   0   2  -4  445.50    2.38   0
   0   4  -5   84.14    1.82   0
   1   3  -3  182.69    1.93   0
   1   2  -2   68.62    0.90   0
  -1   3  -5  194.29    2.04   0
   0   3  -4   71.47    1.54   0
  -2   3  -5  158.59    1.99   0
   0   4  -4    5.32    1.06   0
   0   1  -2   67.70    0.69   0
   2   2   4    1.52    0.29   0
  -2  -1   4    0.39    0.28   0
   0   1   3   99.80    0.83   0
   0   1   5    0.90    0.63   0
   0   1   4 1055.68    2.81   0
   2   1   0  186.11    0.31   0
  -1   0   6    1.93    0.58   0
   1   1   6    0.22    0.45   0
   2   1   5    1.36    0.30   0
   2   1   4   52.45    0.90   0
   1   0   7  397.16    2.66   0
  -1  -1   6   29.55    0.84   0
   2   1   1  134.28    0.50   0
   2   1   2   35.28    0.36   0
  -1  -1   5    0.74    0.25   0
   1   0   6    2.31    0.44   0
   2   1   2   64.60    0.71   0
  -1  -3   4    8.42    0.63   0
   1   0   4  329.62    1.79   0
   3   0   5  421.63    2.96   0
   0  -1   4  832.88    2.96   0
   2   0   4    4.67    0.78   0
   1   0   3  267.17    1.50   0
   0  -4   5   81.77    1.34   0
   2  -2   6    1.09    0.68   0
  -1  -3   2    0.98    0.36   0
   1  -2   5  160.49    1.63   0
   1  -1   4  154.81    1.31   0
   2   0   3  521.15    2.08   0
   3   1   1   43.09    0.55   0
   0  -3   4   61.74    1.01   0
   1   0   2  184.85    0.99   0
   3   0   3   51.89    0.91   0
   0  -4   4    5.51    0.68   0
   1  -4   5   95.07    1.61   0
   2  -1   4   49.36    1.08   0
   1   1  -1    4.85    0.14   0
   0  -1   2   68.13    0.68   0
   3  -1   4   10.91    0.69   0
   2   1   0  148.75    0.36   0
  -1  -3   2    0.42    0.50   0
   0  -2   3   26.98    0.86   0
   1  -2   4  249.54    2.05   0
   1  -1   3  962.72    3.11   0
   0  -4   3  512.65    3.22   0
   1  -3   4   17.76    1.24   0
   2   0   2  276.39    1.29   0
  -1  -3   1  296.31    1.69   0
   0  -3   3    0.46    0.71   0
   1  -4   4  140.45    1.93   0
   3   0   2  179.01    1.29   0
   0  -5   2  252.07    2.70   0
   2  -1   3  750.25    3.07   0
   3  -1   3  196.18    2.15   0
   4  -3   6    0.47    1.48   0
   0  -5   5   36.47    1.30   0
   1  -5   5  217.75    2.71   0
   2  -3   2   64.33    1.35   0
   2  -2   1    8.47    0.64   0
   3  -3   3  234.32    2.26   0
  -1  -5   5    4.38    1.17   0
  -1  -4   3  272.42    2.10   0
   2  -4   3   89.63    1.70   0
   1  -5   4   20.73    1.22   0
   1  -3   1   46.00    1.04   0
   3  -5   6    3.27    1.31   0
   3  -1   1  284.92    1.59   0
   4  -3   4   28.90    1.09   0
   3  -3   2   53.52    1.25   0
   0  -4   2  135.83    1.48   0
   2  -5   4    6.26    1.17   0
   1  -6   6   14.82    1.36   0
   2  -3   1  589.19    2.91   0
   4  -4   5    6.27    1.31   0
   2  -4   2   16.45    0.88   0
   3  -2   1    2.13    0.69   0
   1  -2   0  426.94    1.82   0
   0  -5   3    6.85    0.76   0
   1  -6   5    2.21    1.12   0
   4  -4   4   84.31    1.79   0
  -1  -4   2   35.13    0.89   0
   4  -2   2  192.57    1.72   0
  -1  -3   1  303.57    1.57   0
   2  -2   0    5.92    0.52   0
  -1  -5   3    3.19    0.85   0
   1  -6   4    0.44    1.10   0
   2  -4   1   72.14    1.41   0
   3  -5   3    0.41    1.04   0
   4  -4   3    0.53    1.03   0
   4  -3   2   -0.15    0.69   0
   0  -6   4    1.70    1.06   0
   0  -4   1   20.75    0.72   0
   2  -6   4    5.71    1.13   0
   4  -5   4    1.54    1.21   0
   0  -3   0    3.46    0.42   0
   3  -4   1    2.42    0.81   0
   3  -2   0  284.78    1.80   0
   3  -1   0  177.78    1.20   0
   1  -6   3   44.56    1.49   0
   0  -6   3    1.88    1.05   0
   4  -5   3   59.81    1.72   0
   1  -4   0   67.98    1.26   0
   2  -5   1    1.20    0.95   0
   2  -4   0    3.52    0.81   0
   0  -5   1  112.82    1.59   0
   2  -2  -1  347.70    1.85   0
   0  -4   0   63.29    1.15   0
   1  -6   2    5.41    0.88   0
   2  -6   2    1.18    1.05   0
   3  -5   1   33.93    1.41   0
   3  -4   0    1.30    0.86   0
   4  -5   2   21.53    1.26   0
   1  -3  -1  138.04    1.44   0
   2  -3  -1   29.97    1.00   0
   0  -6   2   -0.01    1.04   0
   4  -2   0   27.63    0.87   0
   3  -6   2    4.78    1.22   0
   3  -2  -1   61.07    1.06   0
   4  -3   0    1.18    0.78   0
   0  -3  -1    0.83    0.62   0
   1  -4  -1  392.52    2.60   0
   2  -6   1    1.34    1.19   0
   2  -4  -1   29.19    0.96   0
   3  -5   0    4.03    1.07   0
   4  -5   1    7.42    0.93   0
  -1  -4   0  109.62    1.32   0
   3  -4  -1  160.42    1.99   0
   0  -4  -1   35.97    1.00   0
   4  -3  -1  230.64    2.14   0
   2  -5  -1   12.43    1.13   0
   2  -3  -2  326.99    2.28   0
   2  -2  -2  104.22    1.23   0
   4  -5   0  138.58    2.20   0
   4  -2  -1   13.78    0.77   0
   1  -3  -2   22.87    0.93   0
   1  -6   0    4.74    1.15   0
   1  -2  -2  924.91    2.83   0
   4  -4  -1    0.96    0.95   0
   1  -4  -2   16.26    0.94   0
   3  -4  -2   16.47    0.88   0
   0  -6   0    3.90    1.11   0
   4  -5  -1   54.76    1.61   0
   0  -3  -2  443.71    2.25   0
   2  -5  -2    1.62    1.06   0
  -1  -4  -1  335.88    2.04   0
   0  -4  -2   23.24    0.94   0
   1  -6  -1   10.20    1.16   0
   3  -1  -2    6.33    0.56   0
   4  -4  -2   20.91    1.22   0
   2  -3  -3   48.56    1.03   0
   2  -2  -3  138.64    1.45   0
   1  -4  -3  105.15    1.58   0
   3  -2  -3   62.97    1.02   0
   1  -2  -3  138.87    1.22   0
   2  -5  -3    8.51    1.12   0
   0  -3  -3   27.55    0.87   0
   2  -3  -4   41.53    1.12   0
  -1  -3  -2    1.60    0.52   0
   0  -4  -3  113.33    1.51   0
   3  -4  -4    3.59    0.74   0
   1  -3  -4  155.77    1.67   0
   2  -5  -4    1.69    0.72   0
  -1  -2  -2  178.07    1.06   0
   1  -2  -4    0.43    0.48   0
   0  -4  -4    2.37    0.81   0
   0  -3  -4  157.78    1.57   0
   3  -3  -5    2.46    0.81   0
  -1  -4  -3    5.98    0.65   0
  -1  -3  -3    7.35    0.59   0
   1  -3  -5   50.27    1.16   0
   2  -2  -5  353.14    2.32   0
   3  -1  -4    5.42    0.60   0
   0  -1  -3  100.49    0.83   0
   3  -4  -6   -0.18    0.93   0
  -1  -2  -3  264.16    1.44   0
   0  -4  -5  160.87    1.88   0
   0  -3  -5    4.06    0.70   0
   2  -2  -6   29.15    1.00   0
  -1  -3  -4   95.29    1.18   0
   0  -1  -4 1052.19    2.84   0
   1  -2  -6    2.71    0.73   0
   1  -1  -5  277.98    1.73   0
   4  -2  -6    2.78    0.88   0
   4  -1  -5    0.04    0.63   0
   3  -3  -7   19.63    1.19   0
   2  -3  -7    8.11    1.00   0
  -1  -2  -4    3.33    0.55   0
   2   0  -4  141.59    1.08   0
   0  -4  -6    8.79    0.80   0
   2  -2  -7  286.66    2.45   0
   1  -3  -7    9.58    0.96   0
   0  -1  -5    0.62    0.68   0
   1  -2  -7   16.19    0.98   0
   1   0  -4  353.56    1.59   0
   3  -3  -8    0.56    1.08   0
   2  -3  -8  115.26    1.95   0
   2   0  -5   68.07    0.98   0
  -1  -2  -5  143.73    1.44   0
   2  -1  -7   61.56    1.26   0
   0  -4  -7   10.82    1.11   0
   2  -2  -8    0.91    0.98   0
   1   0  -5   44.83    0.87   0
   0  -1  -6    4.68    0.78   0
  -1  -1  -4  252.27    1.50   0
   1  -2  -8   22.86    1.20   0
   0   0  -4    1.36    0.44   0
   2  -1  -8   70.14    1.53   0
   3  -1  -8    1.54    0.96   0
   1   0  -6    1.92    0.79   0
   0  -3  -8  144.14    2.15   0
   2  -2  -9   61.51    1.72   0
  -1  -1  -5  152.19    1.46   0
   0  -1  -7   41.64    1.16   0
   0  -2  -8    5.33    1.09   0
   0   0  -5   43.70    0.94   0
   1  -2  -9   15.99    1.26   0
   1   0  -7   82.13    1.42   0
   2  -1  -9    1.45    1.08   0
   3  -1  -9  113.18    2.04   0
  -1  -2  -7    0.58    0.96   0
   0   0  -6  755.95    3.29   0
   3   0  -8   24.40    1.27   0
   4  -1  -9    1.32    1.13   0
   0  -1  -8   19.21    1.16   0
   1  -1  -9   90.95    1.96   0
   0  -2  -9   99.10    2.04   0
   2   1  -5  708.24    2.86   0
   2   1  -4   -0.43    0.50   0
  -1  -1  -7    6.11    0.91   0
   0   0  -7  119.94    1.73   0
   2  -1 -10  157.29    2.57   0
  -1  -2  -8   20.12    1.37   0
   2   1  -6    6.30    0.85   0
   3   0  -9    3.98    1.25   0
   1   1  -5    1.25    0.68   0
   0   0  -8   48.81    1.52   0
   1   0  -9   55.36    1.49   0
   1   1  -6   28.72    1.17   0
   2   1  -7   27.13    1.16   0
  -2  -1  -4   54.09    0.97   0
   3   0 -10  204.96    2.89   0
  -2  -1  -5    2.94    0.77   0
   0   1  -5   21.90    0.99   0
   0   1  -4  796.26    2.87   0
   1   0 -10   22.78    1.44   0
   1   1  -8   10.45    1.20   0
  -2  -1  -6  108.13    1.68   0
  -1  -1  -9   32.79    1.71   0
   0   1  -6  311.09    2.35   0
   0   1  -7  101.96    1.84   0
   2   1  -9   81.69    1.82   0
   3   1  -9   30.44    1.62   0
  -2  -1  -7   58.56    1.61   0
   0   0 -10  216.92    3.06   0
   0   1  -8  117.84    2.11   0
   2   1 -10    1.41    1.06   0
   3   1 -10    1.47    1.39   0
  -1  -1 -10   35.36    1.58   0
  -1   0  -9    5.31    1.59   0
  -2  -1  -8    4.57    1.37   0
  -2   0  -5   31.72    1.06   0
  -1   1  -6   86.65    1.62   0
  -2   0  -6   71.42    1.49   0
  -2   0  -4    4.80    0.74   0
  -1   1  -7   21.15    1.24   0
   2   2  -7  103.11    1.59   0
  -2  -2   9   10.95    1.15   0
  -2  -2   6   19.52    0.97   0
   1  -2   5  174.25    1.66   0
   0  -2   4  437.66    2.27   0
   0  -2  11   84.46    2.19   0
   1  -2  10   34.55    1.75   0
  -4  -1   8   73.86    1.82   0
  -4  -1   9  264.79    3.08   0
  -1  -2   4  682.31    2.90   0
  -3  -2   7    0.97    1.05   0
  -3  -2   8   34.80    1.28   0
  -3  -2   9   13.88    1.52   0
  -3  -2  10   76.38    2.08   0
   1  -2   4  262.18    1.79   0
   2  -2   6    1.22    0.66   0
  -3  -2   6  127.15    1.91   0
   2  -2   5  344.63    2.17   0
  -3  -1   3   58.01    0.97   0
   0  -3  10    4.85    1.49   0
   0  -2   3   30.19    0.74   0
   0  -3   6   77.29    1.61   0
   1  -3   8    5.30    1.21   0
  -4  -2   8    6.41    1.43   0
  -4  -2   9   -0.36    1.48   0
   1  -3   7   13.34    1.19   0
   1  -2   3   87.11    0.98   0
  -4  -2   7    8.89    1.27   0
  -2  -3   6   -0.58    1.09   0
   1  -3   6    0.98    0.96   0
  -3  -3   8  126.31    2.36   0
  -3  -3  10    7.24    1.50   0
   2  -2   4  113.70    1.20   0
  -4  -2   6   -1.16    0.98   0
  -3  -3   7   29.05    1.46   0
  -2  -3   5   34.38    1.28   0
   1  -3   5  200.22    1.96   0
  -3  -3   6  170.75    2.17   0
  -1  -4   9   51.44    1.88   0
  -1  -3   4    9.62    1.07   0
   0  -3   4   70.69    1.40   0
  -1  -4   8   75.25    1.76   0
   0  -4   9   35.34    1.65   0
   0  -2   2 1337.67    3.25   0
  -4  -3   9    0.64    1.34   0
  -2  -4   9  113.86    2.34   0
  -1  -4   7  132.33    2.17   0
  -1  -2   2   75.02    0.86   0
  -2  -4   8    2.68    1.03   0
  -4  -3   8   35.54    1.64   0
   1  -3   4   21.57    0.94   0
  -3  -3   5  132.78    1.86   0
  -2  -4   7   32.56    1.27   0
  -1  -4   6  539.94    3.66   0
   1  -4   8  239.45    2.71   0
  -3  -4   9   27.09    1.52   0
  -3  -2   3  329.51    2.03   0
   1  -4   7    6.52    1.11   0
  -3  -4   8  110.01    2.15   0
  -2  -4   6    5.71    1.11   0
  -1  -3   3  186.95    1.62   0
   0  -3   3    0.35    0.56   0
  -3  -4   7    1.64    1.14   0
   0  -4   5   80.67    1.49   0
  -3  -3   4    5.12    0.81   0
  -2  -4   5   85.53    1.47   0
   1  -3   3   79.24    1.14   0
  -3  -4   6    1.80    1.03   0
  -1  -5   8   66.02    1.83   0
   2  -3   4   24.25    0.74   0
  -2  -5   8  129.89    2.08   0
  -1  -5   7   99.07    1.99   0
   0  -4   4    6.09    0.62   0
   0  -5   7  239.34    2.64   0
  -2  -5   7   30.89    1.42   0
  -2  -4   4    1.22    0.76   0
  -1  -3   2    1.49    0.69   0
  -1  -2   1    4.01    0.33   0
   0  -3   2  160.91    1.39   0
  -3  -2   2    1.79    0.51   0
  -3  -3   3    0.02    0.67   0
  -2  -3   2   15.42    0.77   0
   0  -4   3  493.02    2.70   0
  -2  -2   1  562.35    2.00   0
  -1  -5   5    3.78    0.73   0
   1  -3   2  117.58    1.16   0
   2  -3   3   15.31    0.60   0
  -3  -5   6    0.01    0.96   0
  -3  -5   5    0.21    0.92   0
  -1  -3   1  305.43    1.78   0
   0  -6   7    1.12    1.07   0
   0  -3   1   38.07    0.78   0
  -1  -4   2   36.49    0.89   0
   0  -4   2  128.55    1.46   0
  -2  -6   6    0.02    0.95   0
  -2  -3   1    3.68    0.60   0
  -1  -5   3    1.67    0.78   0
  -3  -2   1  182.17    1.20   0
   0  -5   3    6.41    0.81   0
   1  -3   1   44.23    0.75   0
   2  -3   2   53.46    0.75   0
   1  -6   6   13.88    1.09   0
   1  -5   3    6.12    0.78   0
  -3  -4   2    1.08    0.67   0
  -2  -2   0   17.62    0.49   0
  -1  -6   4    0.99    0.73   0
   0  -4   1   19.83    0.70   0
   1  -6   5    0.69    0.99   0
  -3  -5   3    1.28    0.91   0
  -3  -3   1  108.05    1.16   0
  -2  -6   4    5.56    1.00   0
  -1  -3   0 1455.22    3.58   0
   0  -3   0    3.15    0.54   0
   1  -6   4    1.11    0.90   0
   2  -3   1  523.36    1.95   0
   1  -3   0  133.48    1.14   0
   0  -4   0   61.00    0.95   0
  -3  -2   0   28.01    0.59   0
  -1  -2  -1   10.04    0.41   0
   0  -6   2    0.65    0.86   0
   0  -2  -1  270.89    1.27   0
   1  -5   1    2.35    0.77   0
  -3  -3   0  242.07    1.64   0
   0  -3  -1    1.36    0.41   0
   1  -6   2    5.03    0.92   0
  -3  -4   0    5.21    0.73   0
  -2  -3  -1    5.33    0.47   0
   2  -3   0   14.04    0.57   0
   1  -5   0    3.76    0.78   0
   2  -5   1    1.78    0.68   0
  -2  -4  -1    1.67    0.70   0
   2  -4   0    2.50    0.59   0
  -3  -5   0   21.30    1.04   0
   0  -6   0    4.14    0.95   0
  -3  -3  -1    1.47    0.53   0
  -1  -3  -2    1.10    0.65   0
   0  -3  -2  426.53    2.14   0
  -2  -5  -1    1.57    0.81   0
  -3  -4  -1  198.02    1.84   0
  -1  -2  -2  191.88    1.18   0
   0  -4  -2   22.17    0.89   0
   1  -5  -1    8.96    0.86   0
   2  -6   1    1.98    0.88   0
   2  -3  -1   26.04    0.67   0
  -2  -4  -2   34.60    0.99   0
  -2  -2  -2    0.29    0.47   0
   1  -2  -2  846.79    2.36   0
   2  -6   0    0.38    0.92   0
   2  -5  -1   12.60    0.92   0
  -1  -3  -3    8.54    0.75   0
   0  -3  -3   28.33    0.84   0
  -3  -3  -2   18.89    0.73   0
  -1  -4  -3    6.01    0.78   0
   0  -4  -3  117.56    1.49   0
  -2  -3  -3   -0.11    0.67   0
  -2  -4  -3  159.57    1.76   0
   0  -5  -3   11.10    0.97   0
   0  -2  -3    0.45    0.36   0
   1  -3  -3    0.19    0.70   0
  -3  -5  -2   10.70    1.04   0
   2  -5  -2    1.78    0.82   0
  -2  -2  -3   59.70    0.87   0
   1  -2  -3  134.97    1.14   0
   0  -4  -4    1.24    0.79   0
   0  -3  -4  170.83    1.61   0
   2  -2  -2   95.78    0.89   0
  -3  -4  -3    2.72    0.83   0
  -2  -4  -4    4.78    0.87   0
  -1  -5  -4    1.55    0.73   0
   1  -3  -4  155.69    1.52   0
   2  -5  -3    9.22    0.92   0
   0  -1  -3  107.74    0.84   0
  -2  -2  -4    2.58    0.55   0
   0  -4  -5  170.97    1.88   0
   0  -3  -5    3.47    0.75   0
   1  -2  -4   -0.58    0.67   0
   2  -4  -4    1.01    0.75   0
  -2  -1  -3   64.09    0.72   0
   1  -4  -5   32.66    1.12   0
   2  -5  -4    2.39    0.87   0
   2  -3  -4   36.35    0.90   0
   1  -3  -5   50.00    1.11   0
   0  -2  -5  354.93    2.05   0
  -1  -1  -4  266.50    1.48   0
   0  -1  -4 1133.77    2.90   0
   0  -4  -6    9.71    1.04   0
   0  -3  -6   10.57    0.88   0
   2  -5  -5    9.79    0.98   0
  -2  -2  -5  328.08    2.10   0
   1  -4  -6   18.56    1.04   0
   1  -3  -6  190.53    1.97   0
  -2  -1  -4   50.87    0.80   0
  -2  -3  -6    0.97    0.90   0
   0  -2  -6   41.34    1.04   0
  -1  -2  -6    0.92    0.66   0
  -1  -1  -5  155.51    1.35   0
   0  -1  -5    0.63    0.49   0
   1  -2  -6    2.93    0.76   0
   2  -2  -5  361.75    2.16   0
  -1  -4  -7   30.50    1.24   0
   0  -3  -7    3.19    0.95   0
   2  -3  -6    7.48    0.89   0
   1  -4  -7  100.19    1.73   0
  -2  -2  -6   -0.30    0.77   0
   1  -1  -5  293.91    1.83   0
  -2   3  -1  597.39    2.86   0
  -2   2  -1    9.26    0.62   0
  -2   4  -1   75.83    1.35   0
  -2   6  -4    5.06    1.17   0
  -3   3  -5  106.21    1.74   0
  -3   3  -4    1.10    0.86   0
  -3   4  -7   -0.08    1.13   0
  -1   3   1  146.47    1.24   0
  -3   5  -6    2.93    1.17   0
  -3   2  -4   93.42    1.40   0
  -2   5  -1    1.24    0.94   0
  -1   4   1  398.41    2.21   0
  -3   3  -2   59.33    1.14   0
  -3   5  -3    1.85    1.01   0
  -2   1  -1  269.15    1.47   0
  -2   6  -2    1.08    1.14   0
  -3   3  -1   20.15    1.02   0
  -3   4  -1    0.77    0.88   0
  -2   6  -1    0.70    1.09   0
  -3   1  -4   10.56    0.72   0
  -2   3   1   29.78    0.90   0
  -3   1  -3  175.24    1.54   0
  -4   4  -4   87.93    1.70   0
  -2   4   1   29.16    0.97   0
  -4   3  -6    1.48    1.08   0
  -4   4  -3    0.80    1.08   0
  -4   5  -4    2.54    1.19   0
  -3   3   0    0.71    0.72   0
  -3   6  -2    4.75    1.14   0
  -4   3  -3   99.02    1.58   0
  -3   4   0    1.62    0.65   0
  -1   3   2   23.91    0.68   0
  -4   2  -4    0.59    0.92   0
  -4   3  -2    0.62    0.89   0
  -3   2   0  313.00    2.13   0
  -4   2  -3   19.30    1.02   0
  -3   5   0    2.59    1.02   0
  -4   5  -2   20.46    1.11   0
  -4   3  -1  206.62    2.23   0
  -4   4  -1   81.30    1.67   0
  -3   4   1  156.72    1.89   0
  -4   5  -1    8.37    1.15   0
  -2   3   2  338.87    2.00   0
  -4   2  -1   12.38    0.96   0
  -4   3   0    1.03    0.89   0
  -3   2   1   64.20    1.03   0
  -2   2   2  110.82    1.12   0
  -5   4  -3   16.76    1.11   0
  -4   1  -4    2.56    0.74   0
  -4   1  -3    2.48    0.74   0
  -4   2   0   31.21    1.08   0
  -5   3  -2  116.69    1.97   0
  -4   1  -2  606.15    3.04   0
  -3   3   2   70.68    1.26   0
  -4   3   1  245.19    2.31   0
  -4   4   1    0.75    0.94   0
  -3   4   2   16.86    0.98   0
  -5   4  -1   31.42    1.46   0
  -5   2  -3    0.70    1.01   0
  -3   1   1    1.28    0.68   0
  -4   2   1   15.65    0.95   0
  -4   5   1   55.39    1.59   0
  -5   2  -1   26.50    1.16   0
  -5   3   0    7.69    1.12   0
  -5   4   0   89.21    1.72   0
  -4   1   0   57.88    1.16   0
  -2   1   2   28.85    0.60   0
  -2   3   3   47.37    0.91   0
  -4   4   2   22.39    1.18   0
  -5   2   0  183.46    2.23   0
  -3   3   3  133.17    1.59   0
  -2   2   3  150.95    1.29   0
  -5   3   1   11.73    1.18   0
  -5   4   1   65.78    1.72   0
  -4   1   1  731.26    3.36   0
  -3   1   2    6.42    0.58   0
  -3   2   3   70.88    1.16   0
  -5   2   1   68.93    1.56   0
  -4   0  -2  222.48    1.79   0
  -4   0  -1   16.92    0.84   0
  -4   4   3   58.92    1.52   0
  -4   1   2  119.77    1.58   0
  -3   0   1   26.56    0.65   0
  -6   2  -1    1.19    1.03   0
  -5   2   2  216.94    2.39   0
  -4   0   0   35.63    0.99   0
  -2   1   3  359.72    1.75   0
  -5   1   1   85.35    1.46   0
  -3   1   3  520.06    2.52   0
  -3   3   4   37.96    1.05   0
  -5   3   3  185.49    2.23   0
  -5   4   3   18.23    1.31   0
  -4   0   1   92.09    1.35   0
  -3   2   4  189.93    1.75   0
  -6   2   1   17.04    1.24   0
  -4   1   3  145.71    1.75   0
  -4   3   4   47.58    1.36   0
  -3   0   2    1.44    0.67   0
  -2   0   2  965.74    2.59   0
  -2   2   4   74.34    1.00   0
  -6   1  -1    3.30    1.16   0
  -5   0  -2   89.31    1.51   0
  -5   0  -1   25.19    1.10   0
  -5   1   2    0.37    0.69   0
  -5   2   3   97.15    1.63   0
  -6   1   0  307.23    2.85   0
  -6   2   2   88.03    1.91   0
  -5   0   0    4.45    0.91   0
  -4   0   2  608.54    3.10   0
  -5   1   3  114.46    1.85   0
  -5   3   4    0.06    1.07   0
  -3   1   4    5.40    0.70   0
  -5   2   4    0.99    0.85   0
  -4   1   4  145.19    1.81   0
  -3   0   3   32.49    0.97   0
  -6   1   2    0.85    1.10   0
  -5   0   2   16.10    1.08   0
  -4   0   3  154.67    1.75   0
  -3  -1   0  300.38    1.66   0
  -2   1   4  171.79    1.29   0
  -4  -1  -1   32.00    0.88   0
  -2   0   3    0.64    0.42   0
  -3   2   5   43.50    1.06   0
  -6   0  -1    8.36    1.19   0
  -5   1   4   13.99    0.95   0
  -6   1   3   76.06    1.67   0
  -5   3   5    2.47    1.07   0
  -5   2   5   80.02    1.87   0
  -4  -1   1   43.28    0.92   0
  -4   0   4   89.22    1.49   0
  -4   1   5   -0.60    0.90   0
  -3   0   4  115.88    1.47   0
  -3   1   5  491.16    2.73   0
  -3  -1   2  113.66    1.32   0
  -6   1   4  115.64    2.14   0
  -5  -1   0   74.71    1.44   0
  -5   0   4  137.24    2.02   0
  -6   0   3   99.64    1.97   0
  -4  -1   3  302.96    2.37   0
  -2   1   5   51.54    0.94   0
  -5   2   6   45.12    1.53   0
  -4   0   5   34.57    1.18   0
  -2  -1   2   36.12    0.60   0
  -6   1   5    0.22    1.23   0
  -6   0   4    7.20    0.98   0
  -5   0   5   16.72    1.22   0
  -4   1   6   38.46    1.15   0
  -6  -1   1    3.41    1.12   0
  -5   1   6    0.61    1.05   0
  -3   1   6   17.71    0.94   0
  -6  -1   2  408.95    3.38   0
  -4  -1   4   45.17    1.24   0
  -5  -1   4  309.29    2.87   0
  -3  -1   4   34.16    1.06   0
  -2  -1   3  216.09    1.46   0
  -6  -1   3   92.68    1.74   0
  -5   0   6    2.30    0.91   0
  -2   0   5   82.78    1.05   0
  -4  -2   1   57.21    1.21   0
  -4  -1   5  178.77    1.98   0
  -3   0   6   17.26    0.96   0
  -5  -1   5   35.93    1.21   0
  -5   1   7   35.00    1.59   0
  -4  -2   0   55.98    1.08   0
  -4  -2   2    4.31    0.87   0
  -6   0   6  291.19    3.05   0
  -5  -2   1  306.87    2.59   0
  -3  -2   1  221.87    1.67   0
  -3  -1   5   45.32    1.21   0
  -2   1   6   19.91    0.75   0
  -5  -2   2   16.51    1.12   0
  -2  -1   4   -0.46    0.47   0
  -6  -1   5    5.59    1.19   0
  -5  -1   6   19.94    1.35   0
  -5   0   7   13.37    1.03   0
  -4  -1   6   26.04    1.25   0
  -4   0   7   12.73    1.18   0
  -4  -2   4   52.14    1.33   0
  -3  -2   3  352.96    2.26   0
  -6  -2   3   -0.13    1.32   0
  -3  -1   6  160.70    1.90   0
  -3   0   7  125.69    1.71   0
  -2   0   6  250.81    1.90   0
  -3  -2   4   80.19    1.40   0
  -2  -1   5  772.38    3.16   0
  -6  -2   4    6.28    1.30   0
  -5  -2   5  117.14    2.06   0
  -4  -2   5  252.95    2.50   0
  -2  -2   1  611.41    2.23   0
  -5   0   8   38.27    1.57   0
  -4   0   8  168.91    2.33   0
  -3  -2   5   31.88    1.19   0
  -2  -2   3  100.22    1.26   0
  -1   0   5   47.87    0.80   0
  -4  -2   6    1.14    1.07   0
  -3  -1   7  489.18    3.25   0
  -2  -1   6    6.02    0.76   0
  -5  -1   8   -0.81    1.31   0
  -2  -2   4  139.35    1.56   0
  -4  -1   8   71.62    1.77   0
  -3   0   8   23.75    1.25   0
  -2   0   7    6.20    0.76   0
  -5  -2   7  189.15    2.57   0
  -4  -3   3   66.08    1.54   0
  -4  -2   7    9.82    1.27   0
  -4  -3   4  110.61    1.90   0
  -2  -2   5   24.01    1.13   0
  -3  -3   2  496.67    2.79   0
  -3  -3   3    0.53    0.82   0
  -3  -1   8    1.61    1.10   0
  -3  -2   7    0.43    1.04   0
  -2  -1   7   28.74    1.08   0
  -1  -1   5    1.53    0.62   0
  -3  -3   1  126.43    1.45   0
  -1   0   6    1.40    0.61   0
  -4  -3   6   45.00    1.43   0
  -4  -1   9  255.34    2.99   0
  -3  -3   5  133.21    1.97   0
  -2  -2   6   21.17    1.10   0
  -5  -3   7   23.80    1.59   0
  -1  -2   2   68.17    0.87   0
  -3  -3   6  168.64    2.29   0
  -1  -2   3  333.63    1.87   0
  -3  -1   9   30.03    1.48   0
  -4  -2   9    0.02    1.33   0
  -2  -3   2   14.82    0.91   0
  -2  -3   4  194.63    2.04   0
  -2  -1   8   20.20    1.21   0
  -1  -2   4  674.74    2.87   0
  -1  -1   6   28.57    0.83   0
  -4  -3   8   34.07    1.83   0
  -3  -3   7   27.80    1.26   0
  -2  -3   5   33.23    1.32   0
  -5  -4   4    2.32    1.41   0
  -2  -3   1    4.13    0.73   0
  -5  -4   5  233.18    3.10   0
  -4  -4   3  115.56    2.13   0
  -4  -4   4   31.05    1.34   0
  -2  -3   6    0.83    1.03   0
  -4  -4   6  225.18    2.93   0
  -3  -3   8  126.33    2.19   0
  -1  -1   7   97.86    1.55   0
  -4  -3   9    1.36    1.17   0
  -3  -4   3  290.94    2.82   0
  -3  -4   5  515.85    4.01   0
  -4  -4   7   44.33    1.96   0
  -2  -3   7  216.41    2.69   0
   0   2  -9    3.25    1.45   0
   1   2 -11   28.26    2.01   0
   1   3  -7   20.34    1.42   0
   0   1 -11   11.72    2.08   0
   1   3  -8   53.15    2.00   0
   2   3 -10   45.62    1.92   0
   1   3  -9  110.44    2.75   0
  -1   1  -9   74.41    2.02   0
   0   2  -3   26.20    0.92   0
  -1   1  -3  983.46    3.36   0
   1   3 -10  143.18    2.98   0
  -1   1 -10  156.48    3.26   0
  -1   2  -6  721.65    4.55   0
  -1   2  -8   49.95    2.12   0
   0   3  -6   76.08    2.14   0
   2   3  -3   47.31    1.38   0
   2   4  -9  116.36    3.05   0
   2   4  -7   31.64    2.05   0
  -1   2  -4  262.26    2.53   0
   2   4  -6    5.28    1.66   0
  -2   0  -4    4.23    0.95   0
   1   3  -3  180.48    2.03   0
  -2   1  -7   24.67    1.64   0
  -2   1  -6   88.52    1.87   0
   0   3  -4   71.18    1.84   0
   1   4  -6  555.54    4.56   0
  -2   1  -5   18.55    1.26   0
  -1   3  -8    4.24    1.79   0
  -1   3  -7   12.34    1.72   0
   2   4  -5   87.80    2.03   0
  -1   3  -6    0.94    1.51   0
  -1   2  -3   86.47    1.46   0
   0   4  -8   41.08    2.27   0
   1   4  -5  277.35    3.13   0
  -2   1  -4   57.20    1.38   0
   0   4  -7   15.92    1.51   0
  -2   2  -8  143.61    2.89   0
  -2   2  -7   19.65    1.82   0
  -1   3  -5  195.13    2.50   0
   0   4 -10  143.82    3.15   0
  -2   2  -6    0.93    0.98   0
  -2   2  -9   96.12    2.70   0
  -2   2  -5  335.89    3.07   0
   2   5  -8  131.28    2.99   0
  -1   3  -4   20.07    1.16   0
   1   3  -2    1.97    0.78   0
  -1   4  -9    9.97    1.92   0
  -1   4  -8  236.76    3.71   0
   1   5  -8   71.56    2.69   0
  -2   1  -3  781.30    3.26   0
  -1   4  -7    7.47    1.33   0
   1   5  -7   91.54    2.56   0
  -2   3  -8    0.73    1.25   0
  -1   2  -2  100.77    1.34   0
  -2   3  -9    0.28    1.31   0
   0   4  -4    4.90    1.18   0
   0   3  -2  153.55    1.70   0
  -2   4  -9    9.39    1.65   0
  -1   5  -8   39.45    1.74   0
  -1   3  -2  108.71    1.63   0
  -3   3  -7    9.73    1.67   0
  -2   4  -5    0.04    0.99   0
  -1   2  -1  419.00    2.14   0
  -3   3  -6   -0.24    1.38   0
  -2   2  -2  362.06    2.35   0
   0   3  -1   34.90    0.88   0
   0   6  -7    0.54    1.54   0
   1   4  -2   31.87    1.01   0
  -2   5  -7    4.77    1.55   0
  -3   4  -7   -0.37    1.44   0
  -3   3  -4    1.19    1.12   0
  -3   4  -6    5.23    1.45   0
  -2   3  -2   55.39    1.38   0
  -3   2  -3    1.62    0.90   0
  -1   6  -6   13.10    1.20   0
  -2   2  -1    7.27    0.77   0
  -1   5  -3    5.51    1.20   0
  -2   5  -4    5.36    1.31   0
  -1   6  -5    0.41    1.41   0
  -3   2  -2   69.54    1.37   0
  -3   5  -6    3.93    1.55   0
  -4   3  -6    0.15    1.52   0
  -3   1  -2   44.99    1.01   0
  -2   3  -1  535.76    3.14   0
  -1   2   0  404.61    1.99   0
   0   6  -4    2.61    1.36   0
  -1   6  -4    0.35    1.40   0
  -4   2  -4    0.52    1.06   0
   0   3   0    2.48    0.62   0
  -4   4  -5    4.16    1.51   0
  -3   2  -1    2.11    0.92   0
  -2   2   0    5.51    0.75   0
  -3   1  -1  282.43    1.94   0
  -2   3   0   15.62    0.85   0
  -4   4  -3    0.68    1.38   0
  -1   5  -1    1.99    0.79   0
   0   4   0   59.67    1.21   0
  -4   2  -2  198.40    2.22   0
  -4   3  -2   -0.06    1.14   0
  -3   4  -1    1.91    1.22   0
  -1   6  -2    5.09    1.41   0
  -1   2   1  592.20    2.48   0
  -3   3   0    1.48    1.08   0
  -2   6  -2    0.68    1.34   0
  -3   5  -1   33.21    1.76   0
  -3   1   0  190.08    1.66   0
  -2   2   1  348.13    2.21   0
  -2   3   1   26.43    1.25   0
  -1   5   0    5.03    1.06   0
   0   3   1    1.78    0.66   0
  -3   6  -2    5.85    1.67   0
  -5   4  -3   15.80    1.78   0
  -2   6  -1    2.25    1.46   0
  -1   4   1  378.27    2.82   0
  -4   1  -1  343.24    2.51   0
  -2   1   1  853.57    2.94   0
  -5   3  -2  115.20    2.36   0
  -3   2   1   62.72    1.48   0
  -3   3   1  181.02    2.33   0
  -4   2   0   28.89    1.39   0
  -4   5  -1    7.49    1.72   0
  -4   4   0  118.39    2.45   0
  -3   4   1  155.37    2.51   0
  -2   6   0    0.87    1.50   0
  -1   5   1    9.64    1.29   0
  -5   3  -1   46.36    1.69   0
  -3   1   1    1.46    0.81   0
  -2   3   2  335.33    2.83   0
  -1   3   2   23.55    1.13   0
  -5   4  -1   31.07    1.64   0
  -4   3   1  243.28    2.95   0
  -2   2   2  113.12    1.64   0
  -4   1   0   57.67    1.30   0
  -4   2   1   16.39    1.27   0
  -3   3   2   74.61    1.75   0
  -1   4   2   16.45    1.21   0
  -3   2   2  126.41    1.99   0
  -3   4   2   17.77    1.59   0
   0   3   2  464.65    2.56   0
  -5   2   0  189.73    2.64   0
  -4   5   1   52.81    1.95   0
  -2   1   2   29.48    0.90   0
  -2   5   2    2.29    1.44   0
  -4   3   2   57.31    1.88   0
  -5   3   1   12.97    1.63   0
  -4   1   1  746.66    3.85   0
  -4   4   2   21.28    1.88   0
  -2   3   3   51.87    1.35   0
  -3   3   3  135.66    2.37   0
  -2   2   3  158.08    2.00   0
  -2   4   3  304.10    3.25   0
  -5   2   1   72.54    2.05   0
  -3   4   3  254.28    3.31   0
  -4   5   2    2.14    1.16   0
  -3   2   3   72.46    1.57   0
  -1   4   3  107.24    2.02   0
  -5   3   2   92.84    2.43   0
  -5   4   2   26.83    2.17   0
  -4   3   3  236.90    3.20   0
  -3   0   1   28.21    0.81   0
  -4   1   2  126.96    1.98   0
  -4   4   3   65.81    2.02   0
  -3   5   3   41.58    2.12   0
  -2   5   3   10.57    1.66   0
  -5   2   2  220.52    3.04   0
  -2   1   3  373.59    2.47   0
  -3   1   3  545.44    3.27   0
  -3   3   4   39.05    1.74   0
  -2   4   4    0.99    1.35   0
   0   3   3   28.74    1.06   0
  -5   3   3  191.31    3.04   0
  -5   4   3   18.05    2.11   0
  -3   2   4  195.36    2.59   0
  -2   2   4   77.85    1.74   0
  -4   4   4   22.34    2.10   0
  -1   1   3  424.43    2.28   0
  -1   3   4  179.53    2.27   0
  -5   2   3   99.03    2.48   0
  -4   1   3  152.76    2.06   0
  -5   1   2   -0.29    1.26   0
  -4   2   4  183.68    2.56   0
  -3   5   4   35.25    1.77   0
  -2   5   4    0.57    1.71   0
   0   2   3    0.70    0.67   0
  -1   2   4   -0.54    0.96   0
  -3   3   5    1.08    1.51   0
  -2   1   4  171.88    2.12   0
  -4   0   2  615.08    3.31   0
  -4   3   5  170.02    3.12   0
  -3   4   5   38.38    1.82   0
  -2   3   5  178.35    2.61   0
  -5   1   3  115.64    2.26   0
  -5   2   4    2.20    1.58   0
  -4   1   4  153.52    2.36   0
  -4   4   5  213.14    3.47   0
  -3   2   5   45.83    1.48   0
  -2   4   5  141.38    2.73   0
  -4   2   5  184.90    2.98   0
  -3   0   3   32.27    1.22   0
  -2   2   5  458.74    3.57   0
  -6   2   3   -0.84    1.54   0
  -5   3   5    3.20    1.97   0
  -1   3   5   58.46    1.67   0
   0   3   4  185.45    2.00   0
  -1   1   4    7.47    0.67   0
  -4   0   3  160.01    2.05   0
  -3   3   6   74.45    2.42   0
  -4   3   6   12.19    1.91   0
  -3   4   6    0.48    1.64   0
  -2   1   5   57.14    1.68   0
  -1   2   5  550.64    3.57   0
  -3   2   6   41.25    1.90   0
  -2   3   6    9.80    1.54   0
  -2   4   6   75.83    2.39   0
   0  -4  -2   22.97    0.90   0
   1  -1  -4    6.83    0.51   0
   2  -5  -4    1.04    1.20   0
   1  -5  -3    4.79    1.07   0
   1  -4  -4   29.79    1.15   0
   0  -3  -3   27.74    0.86   0
   3  -4  -6    0.51    1.01   0
   1  -2  -5  519.43    2.80   0
   2  -3  -6    9.06    1.05   0
   2   0  -5   82.32    1.08   0
   4  -2  -7  238.95    2.59   0
   1  -3  -5   55.52    1.24   0
   0  -4  -3  112.45    1.43   0
   2  -1  -6   19.71    0.95   0
   3   0  -6   17.00    0.81   0
   4  -1  -7  362.49    2.79   0
   1  -1  -5  320.53    1.98   0
   2  -5  -5   10.12    0.89   0
   3  -3  -7   20.28    1.32   0
   1  -4  -5   33.52    1.16   0
   3  -1  -7   82.92    1.44   0
   0  -3  -4  164.18    1.58   0
   0  -2  -4   -0.04    0.47   0
   2  -2  -7  312.07    2.56   0
   1  -3  -6  196.45    2.01   0
   1  -2  -6    3.22    0.53   0
   2  -3  -7    7.08    0.82   0
   0  -4  -4    1.77    0.74   0
   0  -1  -4 1079.00    2.90   0
   3  -3  -8    0.47    0.64   0
  -1  -3  -2    1.14    0.42   0
   0  -3  -5    2.92    0.75   0
   3  -1  -8    0.17    0.89   0
   1  -2  -7   16.98    0.92   0
   2  -2  -8   -0.21    0.90   0
  -1  -2  -2  159.02    0.98   0
   1  -3  -7    9.36    0.74   0
   2  -3  -8  115.79    1.85   0
   0  -1  -5    1.42    0.62   0
   2   0  -7    7.11    0.55   0
   1  -4  -7   92.83    1.60   0
   3  -2  -9  144.35    1.99   0
   0  -2  -6   36.47    0.97   0
  -1  -2  -3  243.76    1.39   0
  -1  -3  -4   90.12    1.16   0
   0  -4  -6    8.18    0.94   0
   0   0  -4    1.49    0.36   0
   1  -3  -8    1.43    0.92   0
   2  -2  -9   59.08    1.40   0
   0  -1  -6    3.48    0.51   0
  -1  -2  -4    3.34    0.56   0
   0  -3  -7    2.28    0.89   0
   0   0  -5   40.58    0.79   0
   3   0  -9    4.42    0.88   0
  -1  -2  -5  134.59    1.39   0
   0  -1  -7   41.67    1.02   0
   1  -2  -9   13.19    1.06   0
   1   1  -5    1.38    0.41   0
  -1  -1  -4  234.72    1.46   0
   0  -2  -8    5.28    0.86   0
   0  -3  -8  134.33    1.92   0
  -1  -2  -6    0.19    0.72   0
  -1  -1  -5  138.76    1.37   0
   2   1  -8   19.17    0.83   0
   0   0  -7  106.32    1.40   0
  -1  -2  -7    0.48    0.90   0
  -1  -1  -6    0.60    0.46   0
   1  -1 -10    7.53    1.09   0
   2   0 -10    0.22    0.95   0
   0  -1  -9    4.70    1.02   0
  -1   0  -4  307.35    1.63   0
  -1  -3  -8    1.72    1.02   0
  -1   0  -5  206.46    1.54   0
  -2  -2  -4    2.23    0.63   0
  -2  -2  -3   51.42    0.86   0
  -1   0  -6    3.70    0.84   0
   0  -1 -10  317.58    3.02   0
   0   0  -9   12.44    0.82   0
   1   1  -9  225.66    2.23   0
  -2  -2  -5  314.99    2.23   0
  -2  -2  -2    0.07    0.43   0
   2   1 -10    0.42    0.98   0
  -1   0  -7  436.48    2.76   0
  -2  -3  -6    0.42    0.93   0
  -2  -2  -6    0.43    0.86   0
  -2  -1  -5    2.39    0.74   0
  -2  -1  -4   51.77    0.89   0
  -1   0  -8   91.08    1.64   0
   1   1 -10   86.87    1.75   0
  -2  -1  -3   60.15    0.90   0
   0   1  -9  163.56    2.12   0
  -1   0  -9    4.10    1.17   0
   1   2  -7    6.68    0.69   0
   1   2  -6  436.01    2.10   0
  -1  -1 -10   32.09    1.41   0
   1   2  -5   43.50    0.79   0
  -2  -1  -2   59.28    0.77   0
  -1   1  -6   79.19    1.34   0
  -1   1  -5   34.25    0.96   0
   1   1 -11   33.55    1.41   0
   1   2  -8    4.13    0.80   0
  -1   1  -7   20.20    0.79   0
   0   1 -10    0.39    1.07   0
  -2   0  -5   29.00    0.99   0
  -1   0 -10    0.29    1.17   0
  -1   1  -4  172.23    1.36   0
  -2   0  -4    3.69    0.82   0
  -1   1  -8    9.97    0.86   0
   1   2  -9    0.27    0.92   0
  -2   0  -8  117.61    1.99   0
  -1   1  -9   71.05    1.72   0
   0   1 -11   10.00    1.38   0
   0   2  -6  131.12    1.44   0
  -1   1  -3  938.34    2.65   0
   0   2  -5    0.74    0.59   0
  -3  -2  -6    8.85    1.14   0
  -3  -2  -5   41.15    1.24   0
  -2   0  -9   81.95    1.93   0
  -1   1 -10  146.43    2.37   0
   0   2  -9    3.06    1.06   0
  -3  -1  -6   44.94    1.45   0
   0   2 -10   64.12    1.72   0
  -2   1  -7   23.31    1.14   0
  -3  -1  -4  399.24    2.53   0
  -2   1  -5   16.26    0.99   0
   0   2  -4  400.07    1.81   0
  -3  -1  -8   74.23    1.86   0
  -1   2  -8   48.40    1.41   0
  -2   1  -9    1.13    1.21   0
  -1   2  -9  311.87    2.99   0
   0   2 -11   84.21    1.97   0
  -3  -1  -3   40.50    0.95   0
  -2   1  -4   52.86    0.98   0
  -1   2 -10   33.99    1.50   0
  -2   1 -10   74.39    1.73   0
  -3   0  -4   66.87    1.27   0
  -2   2  -7   19.82    1.18   0
  -2   2  -8  139.66    1.99   0
  -2   2  -6    2.19    0.90   0
  -3   0  -3   58.24    1.15   0
  -3   1  -8    1.76    1.17   0
  -2   2  -9   95.75    2.01   0
  -3   1  -5    9.08    0.99   0
  -3   1  -9   26.99    1.24   0
   0   3  -6   65.28    1.11   0
  -4  -1  -7  115.72    2.12   0
  -1   3  -8    4.72    1.07   0
  -4  -1  -5   10.39    1.08   0
  -3   1  -4   10.18    0.88   0
  -1   3  -9   78.35    1.79   0
  -1   3  -7   11.96    0.99   0
  -1   3 -10    7.91    1.29   0
  -4   0  -7    1.41    1.19   0
  -4   0  -6    4.29    1.17   0
  -2   1  -2  255.33    1.56   0
  -2   2  -4  102.78    1.42   0
  -1   3  -6   -0.52    0.85   0
  -4   0  -5    5.20    1.16   0
  -3   0  -2  219.11    1.67   0
  -3   2  -7   94.41    1.89   0
   0   3  -5    5.02    0.60   0
  -3   2  -6  504.27    3.46   0
  -3  -1  -1   55.21    0.86   0
  -3   1  -3  156.19    1.67   0
  -2   3  -9    0.34    1.11   0
  -2   3  -8   -0.21    1.15   0
  -4  -1  -3   -0.13    0.68   0
  -4   0  -4   22.21    1.04   0
  -2   2  -3   59.12    1.11   0
  -4   0  -3  359.54    2.48   0
  -4   1  -4    2.49    0.88   0
  -3   1  -2   48.06    1.08   0
  -1   3  -4   17.89    0.79   0
  -4   2  -7    3.01    0.91   0
  -2   1  -1  233.68    1.37   0
  -4   2  -6    2.94    0.85   0
  -3   3  -6   -0.26    1.02   0
  -5   0  -6    2.91    1.21   0
  -3   2  -3    2.22    0.80   0
  -4   1  -3    3.18    0.89   0
  -2   2  -2  362.00    2.02   0
  -1   4  -7    6.20    1.00   0
  -3   3  -5  108.10    1.79   0
  -2   4  -9    9.62    1.27   0
  -2   4  -8    5.02    1.22   0
  -4   2  -4   -0.16    0.99   0
  -3   3  -4    1.67    0.90   0
  -4   1  -2  572.79    3.07   0
  -4   3  -6    1.55    1.20   0
  -3   2  -2   74.65    1.32   0
   1  -6   2    5.64    1.28   0
   3  -4   1    1.96    1.04   0
   4  -3   2    0.15    0.96   0
   2  -4   0    2.51    0.97   0
   1  -2  -1  565.24    2.25   0
   2  -6   2    1.44    1.19   0
   0  -3  -1    0.79    0.60   0
   1  -5   0    4.54    1.03   0
   2  -3  -1   26.87    1.12   0
   2  -2  -1  334.68    2.01   0
   3  -4   0    0.76    1.05   0
   3  -6   2    5.50    1.39   0
   3  -1   0  173.68    1.49   0
   4  -5   2   21.74    1.51   0
   1  -4  -1  388.37    2.68   0
   2  -6   1    1.54    1.32   0
   5  -4   3   15.80    1.48   0
   2  -1  -1  801.16    2.67   0
   0  -4  -1   35.42    1.02   0
   3  -5   0    3.67    1.32   0
   3  -3  -1  180.86    2.18   0
   3  -2  -1   60.36    1.36   0
   4  -5   1    8.64    1.49   0
   4  -2   0   27.73    1.16   0
   3  -4  -1  159.37    2.33   0
   4  -4   0  121.71    2.29   0
   1  -5  -1   10.29    1.24   0
   2  -5  -1   13.61    1.36   0
   1  -3  -2   22.56    1.07   0
   2  -6   0   -0.80    1.07   0
   2  -3  -2  333.80    2.67   0
   1  -2  -2  953.14    3.25   0
   2  -2  -2  111.44    1.54   0
   3  -1  -1    1.17    0.52   0
   4  -5   0  145.34    2.77   0
   4  -3  -1  236.80    2.77   0
   5  -4   1   31.88    1.77   0
   3  -6   0    5.33    1.53   0
   3  -5  -1   86.93    2.22   0
   4  -1   0   55.07    1.20   0
   1  -4  -2   18.19    1.11   0
   3  -3  -2   74.48    1.73   0
   4  -4  -1    0.15    1.35   0
   4  -2  -1   15.61    1.22   0
   3  -2  -2  125.08    1.89   0
   5  -3   0    8.88    1.45   0
   0  -3  -2  478.13    2.50   0
   3  -4  -2   18.48    1.50   0
   5  -4   0   90.76    2.32   0
   2  -6  -1   41.89    1.95   0
   2  -5  -2    2.24    1.36   0
   2  -1  -2   30.07    0.84   0
   4  -3  -2   58.55    1.84   0
   1  -5  -2  195.51    2.62   0
   4  -1  -1  709.21    3.64   0
   2  -3  -3   53.95    1.31   0
   5  -3  -1   12.00    1.25   0
   2  -4  -3  325.52    3.28   0
   2  -2  -3  158.34    1.95   0
   3  -3  -3  141.20    2.25   0
   3  -4  -3  265.14    3.25   0
   5  -2  -1   67.30    1.93   0
   3  -2  -3   75.41    1.51   0
   4  -5  -2    0.84    1.26   0
   1  -4  -3  124.25    1.89   0
   2  -6  -2   90.62    2.38   0
   3   0  -1   26.53    0.77   0
   4  -3  -3  238.33    3.10   0
   4  -1  -2  125.17    1.88   0
   5  -2  -2  225.44    2.92   0
   2  -1  -3  372.74    2.40   0
   0  -3  -3   30.94    1.18   0
   3  -3  -4   40.02    1.62   0
   3  -1  -3  538.63    3.17   0
   2  -2  -4   80.30    1.75   0
   3  -2  -4  201.34    2.48   0
   5  -3  -3  191.81    2.94   0
   1  -3  -4  185.88    2.19   0
   1  -1  -3  414.69    2.19   0
   4  -4  -4   23.37    2.00   0
   0  -2  -3    0.12    0.62   0
   3   0  -2    1.63    0.72   0
   4  -1  -3  147.82    2.07   0
   5  -2  -3   97.70    2.35   0
   1  -4  -4   32.36    1.45   0
   2  -5  -4    1.70    1.60   0
   3  -5  -4   37.10    1.74   0
   4  -2  -4  180.80    2.48   0
   5  -1  -2    0.35    1.17   0
   2  -1  -4  172.34    1.94   0
   3  -1  -4    4.53    0.82   0
   2  -3  -5  182.24    2.37   0
   4  -3  -5  164.22    2.90   0
   4   0  -2  560.47    3.02   0
   2  -4  -5  146.67    2.57   0
   3  -2  -5   44.63    1.47   0
   4  -1  -4  143.70    2.19   0
   5  -2  -4    1.93    1.41   0
   5  -1  -3  106.90    2.09   0
   2  -2  -5  445.16    3.22   0
   4  -2  -5  174.38    2.70   0
   2   0  -3    0.69    0.58   0
   0  -3  -4  184.35    1.88   0
   1  -3  -5   56.19    1.54   0
   5  -3  -5    4.26    1.70   0
   6  -2  -3    0.73    1.35   0
   1  -1  -4    6.57    0.59   0
   3  -3  -6   73.52    2.17   0
   5  -1  -4   14.19    1.41   0
   1  -2  -5  528.65    3.25   0
   2  -1  -5   51.39    1.44   0
   3  -4  -6   -0.47    1.51   0
   4  -3  -6   10.60    1.63   0
   0  -2  -4   -0.00    0.76   0
   2  -3  -6    8.31    1.40   0
   3  -2  -6   39.33    1.71   0
   2  -4  -6   70.67    2.10   0
   4  -2  -6    3.17    1.50   0
   2   0  -4  173.73    1.70   0
   4   0  -4   80.50    1.58   0
   1  -1  -5  317.83    2.43   0
   3  -1  -6   17.59    1.14   0
   1  -3  -6  212.63    2.56   0
   2  -1  -6   20.39    1.23   0
   3  -2  -7   34.09    1.71   0
   1  -2  -6    2.95    0.86   0
   2  -3  -7    7.27    1.46   0
   4  -2  -7  231.33    3.08   0
   2   0  -5   76.00    1.52   0
   5  -1  -6    0.04    1.56   0
   0  -2  -5  370.22    2.44   0
   1   0  -4  400.74    2.17   0
   2  -4  -7   37.47    1.86   0
   3  -1  -7   84.38    2.02   0
   4  -1  -7  363.74    3.54   0
   1  -3  -7   10.86    1.42   0
   2  -1  -7   70.38    1.76   0
   3  -2  -8   89.72    2.34   0
   4  -2  -8   19.56    1.65   0
   5  -1  -7   33.37    1.70   0
   2   0  -6  246.20    2.46   0
   1  -2  -7   18.79    1.04   0
   1   0  -5   50.16    1.24   0
   2  -3  -8  132.67    2.70   0
   0  -1  -5    0.80    0.81   0
   2  -2  -8    0.47    1.50   0
   5   0  -6    3.38    1.36   0
   0  -2  -6   42.52    1.25   0
   3  -1  -8    0.53    1.08   0
   3   0  -7  121.61    2.19   0
   4  -1  -8  125.86    2.40   0
   1  -1  -7  211.63    2.47   0
   2  -1  -8   79.13    1.80   0
   2   0  -7    5.31    1.29   0
   1   0  -6    2.24    1.09   0
   1  -2  -8   23.90    1.61   0
   2   1  -5  712.76    3.56   0
   0  -1  -6    3.34    0.96   0
   2  -2  -9   64.84    2.23   0
   3  -1  -9  118.65    2.66   0
   3   0  -8   25.17    1.41   0
   4  -1  -9    1.44    1.14   0
   5   0  -8   36.72    1.92   0
   1  -1  -8  540.91    4.09   0
   1   0  -7   89.74    1.86   0
   2   0  -8   67.91    1.71   0
   2   1  -6    5.90    1.19   0
   4   1  -7    2.02    1.49   0
   1   1  -4   82.47    1.10   0
   3   0  -9    5.05    1.73   0
   0  -1  -7   49.69    1.58   0
   1   1  -5    1.56    0.99   0
   2   1  -7   29.02    1.52   0
   5   1  -7  216.35    3.21   0
   2   0  -9  137.84    2.77   0
   3   1  -8    1.25    1.43   0
   4   1  -8   70.28    2.23   0
   0   0  -6  790.50    3.89   0
   1   1  -6   30.82    1.13   0
   5   1  -8   -0.75    1.79   0
   0   0  -7  130.57    2.17   0
   1   1  -7  101.31    2.00   0
   3   1  -9   31.12    1.64   0
   1   0  -9   55.25    2.23   0
   2   0 -10   -1.04    1.88   0
   3   2  -5   32.37    1.32   0
   2   1  -9   81.53    2.44   0
   3   2  -6  118.69    1.97   0
   4   2  -6   -0.86    1.37   0
   1  -1 -10    6.93    1.96   0
   3   2  -7   -0.74    1.33   0
   2   2  -5   25.13    1.07   0
   2   2  -4  127.31    1.67   0
   3   1 -10   -0.85    1.74   0
   4   2  -7    9.89    1.59   0
  -1  -1  -6   -0.13    0.78   0
   0   1  -5   20.94    0.93   0
   2   2  -7   99.55    2.12   0
   4   2  -8    6.52    1.74   0
   0   1  -6  290.25    2.72   0
   1   0 -10   24.42    1.93   0
   2   1 -10    2.11    1.81   0
   2   2  -3   95.45    1.26   0
   2   2  -8  331.50    3.61   0
   4   2  -9   -1.72    1.96   0
  -1   0  -5  214.88    1.93   0
  -1   0  -4  336.76    2.01   0
   0   0  -9   12.92    1.62   0
   1   2  -6  458.71    3.41   0
   1   2  -5   45.08    1.47   0
   1   2  -7    6.63    0.96   0
   1   2  -8    3.19    0.93   0
  -1   0  -7  400.31    3.02   0
   0   1  -9  150.51    2.50   0
   1   2  -9   -0.14    1.37   0
   1   1 -11   28.72    1.74   0
   4  -1  -9    0.84    1.58   0
   4  -1  -6   37.55    1.72   0
   2  -2  -4   83.18    1.70   0
   2  -1 -12   42.98    1.87   0
   3  -1 -11   54.52    2.08   0
   5   1 -10   16.08    1.73   0
   1  -2  -9   15.33    1.70   0
   2  -2  -8    1.09    1.41   0
   2  -2  -5  445.67    3.43   0
   4   0 -11   10.40    1.56   0
   4   0  -4   85.25    1.51   0
   5   1  -9   55.78    2.06   0
   5   1  -8    0.41    1.31   0
   3  -1 -10   79.88    2.07   0
   3  -1  -4    5.26    1.08   0
   2  -1 -11    3.43    1.46   0
   3   0 -12    0.69    1.26   0
   4   0 -10    6.41    1.53   0
   1  -2  -7   21.38    1.29   0
   3  -1  -9  117.56    2.62   0
   1  -2  -5  543.74    3.36   0
   1  -1 -11   26.32    1.67   0
   4   0  -9  105.20    2.48   0
   3  -1  -8    0.70    1.43   0
   2  -1 -10  160.53    2.93   0
   3  -1  -7   87.39    1.91   0
   3  -1  -6   19.37    1.08   0
   3   0 -11   55.68    2.15   0
   2   0 -12    0.94    1.27   0
   1  -1 -10    7.92    1.53   0
   3   1 -12    6.83    1.48   0
   3   0 -10  190.61    3.10   0
   4   1  -9  258.09    3.61   0
   4   2 -11    5.45    1.52   0
   4   1  -6   26.06    1.39   0
   3   0  -9    5.62    1.64   0
   4   1  -8   71.93    2.16   0
   4   1  -7    2.97    1.37   0
   2  -1  -7   78.77    1.95   0
   2  -1  -5   55.22    1.49   0
   4   2 -10  221.92    3.50   0
   2  -1  -6   21.53    1.06   0
   3   1 -11   16.02    1.86   0
   0  -1  -9    4.24    1.42   0
   2   1 -12   78.66    2.49   0
   3   2 -12  100.41    2.63   0
   4   2  -9   -1.49    1.53   0
   1   0 -11  104.94    2.72   0
   2   0 -10   -0.72    1.59   0
   0   0 -11  120.08    2.66   0
   3   1 -10    0.39    1.60   0
   4   2  -8    4.83    1.53   0
   4   2  -7    9.31    1.45   0
   4   2  -6   -0.13    1.18   0
   4   3  -9    1.24    1.54   0
   0  -1  -8   20.64    1.42   0
   1  -1  -6   69.11    1.71   0
   1   1 -12   43.93    2.00   0
   2   1 -11  188.42    3.45   0
   3   1  -9   32.02    2.00   0
   3   2 -11    4.70    1.29   0
   1   0 -10   25.31    1.84   0
   0  -1  -7   56.51    1.56   0
   0   1 -12   52.77    2.15   0
   2   2 -12    5.90    1.74   0
   0   0 -10  209.69    3.25   0
   3   1  -8    0.62    1.33   0
   3   3 -11   20.49    1.48   0
   1   0  -9   56.39    2.06   0
   2   1 -10    2.45    1.60   0
   3   1  -6  165.96    2.41   0
   3   1  -5   44.60    1.47   0
   3   4 -11   27.21    1.90   0
   2   0  -6  280.80    2.88   0
   1   2 -12   46.95    2.16   0
   2   2 -11   27.49    2.01   0
   0   1 -11   11.50    1.69   0
   3   3 -10    5.71    1.23   0
   0   0  -9   11.64    1.49   0
   2   1  -9   75.78    2.26   0
   3   2  -8   31.88    1.83   0
   0   2 -12    2.53    1.69   0
  -1   2 -12  108.65    2.51   0
   1   1 -10   90.00    2.53   0
   3   2  -7   -0.60    1.15   0
   1   3 -12    0.15    1.49   0
   2   2 -10   77.65    2.41   0
   2   3 -11   62.40    2.28   0
   1   0  -7   94.08    1.76   0
   1   2 -11   29.31    1.92   0
   0   0  -8   48.66    1.59   0
   2   1  -7   27.85    1.41   0
  -1   0  -8   92.28    1.85   0
  -1   1 -10  130.08    2.58   0
   1   0  -6    2.30    0.75   0
   1   1  -9  225.70    2.92   0
   2   2  -9   12.10    1.54   0
   1   3 -11   52.78    2.12   0
   2   1  -6    6.23    0.74   0
  -1   2 -11    1.47    1.15   0
   0   0  -7  122.30    1.78   0
   1   2 -10   98.09    2.22   0
   1   1  -8    9.73    1.18   0
   2   5 -10    6.05    1.46   0
   0   1  -9  159.96    2.42   0
  -1   0  -7  437.93    3.13   0
   1   4 -11    2.16    1.02   0
   1   2  -9    1.08    1.28   0
   1   3 -10  118.53    2.56   0
   2   5  -9    2.43    1.33   0
  -2   3 -11    5.07    1.48   0
   1   1  -7   89.68    1.62   0
  -2   2 -10   70.06    2.02   0
   0   1  -8  103.59    1.98   0
   0   5 -11    0.82    0.94   0
   1   5 -10    2.36    1.43   0
  -2   4 -11    4.98    1.33   0
   0   3 -10    4.16    1.48   0
   1   2  -8    4.85    1.18   0
   2   4  -8    2.37    0.98   0
  -1   1  -8   11.31    1.13   0
   0   2  -9    3.20    0.90   0
  -1   3 -10    9.76    1.57   0
   2   3  -6   -0.79    0.96   0
   1   2  -7    6.20    1.13   0
   1   5  -9    7.44    1.14   0
   0   2  -8  208.75    2.74   0
   2   4  -6    5.33    1.10   0
  -2   4 -10  234.32    3.39   0
  -1   1  -7   20.53    1.19   0
  -1   5 -10   -0.48    1.15   0
   0   6  -9   26.30    1.74   0
   0   4  -9   32.96    1.98   0
   1   2  -6  463.85    3.37   0
   0   5  -9  217.95    3.50   0
   1   3  -7   22.93    1.39   0
  -2   3  -9    0.09    1.76   0
  -2   2  -8  140.01    2.58   0
   0   2  -7    8.05    1.30   0
   0   3  -8    1.19    1.43   0
  -1   4  -9   10.11    1.80   0
  -1   6  -9    2.46    1.61   0
  -3   4  -9   30.36    1.88   0
  -1   5  -9    6.60    1.81   0
   0   7  -7    5.92    1.59   0
   1   5  -7   99.82    2.53   0
  -2   5  -9   62.45    2.46   0
   0   4  -8   38.61    1.74   0
   0   5  -8  175.76    3.38   0
  -1   3  -8    3.33    1.48   0
  -3   3  -8   91.30    2.49   0
  -2   1  -6   86.30    1.73   0
  -4   4  -8   19.49    1.77   0
  -1   6  -8   75.28    2.58   0
   0   3  -7  408.34    3.90   0
  -3   2  -7  101.80    2.25   0
  -2   2  -7   21.80    1.53   0
  -1   4  -8  243.89    3.68   0
  -1   7  -7   27.34    1.93   0
   0   6  -7    0.91    1.27   0
  -2   6  -8  310.43    4.12   0
  -1   5  -8   43.66    2.28   0
   1   3  -5    3.71    0.83   0
  -1   2 -11    2.84    1.25   0
   0   4  -9   32.95    1.43   0
   1   2  -7    6.80    0.68   0
  -2  -1  -9   79.49    1.92   0
  -1  -1  -8  491.65    3.67   0
  -2   1 -11    1.44    1.22   0
  -2   4 -11    6.12    1.11   0
  -3   1 -11   -0.38    0.72   0
  -1   1 -10  146.05    2.30   0
  -1   4 -10  170.90    2.51   0
   0   2  -9    2.61    1.01   0
   0   3  -9   40.33    1.46   0
  -3   0 -10   43.24    1.62   0
  -2   2 -11  127.25    2.35   0
  -2   3 -11    5.73    1.26   0
   0   0  -7  131.05    1.76   0
  -1  -1  -7    6.33    0.84   0
  -1   2 -10   33.31    1.52   0
   0   1  -8  117.79    1.87   0
  -3   2 -11    9.27    1.09   0
  -2  -1  -8    5.91    1.12   0
  -2   1 -10   73.77    1.89   0
   0   3  -8    2.04    0.94   0
   0   2  -8  221.19    2.42   0
  -3  -1  -8   79.38    1.81   0
  -2   4 -10  246.93    2.90   0
  -1   1  -9   69.81    1.60   0
  -1   4  -9    9.99    1.21   0
  -1  -1  -6    0.17    0.69   0
   0   1  -7   97.06    1.58   0
  -3   0  -9   36.81    1.54   0
  -2   3 -10   29.11    1.52   0
  -1   2  -9  312.68    3.17   0
  -1   3  -9   80.49    1.90   0
  -3   4 -10   43.99    1.64   0
  -2  -1  -7   59.47    1.48   0
  -4   2 -10    0.21    1.11   0
  -3   2 -10   34.74    1.58   0
  -2   1  -9    1.40    1.19   0
  -1   1  -8   10.25    1.11   0
  -1   4  -8  237.08    2.70   0
  -2   0  -8  124.48    2.13   0
  -2   4  -9    9.97    1.30   0
   0   3  -6   69.25    1.28   0
  -3  -1  -7   52.23    1.47   0
  -2   2  -9  100.72    2.19   0
  -1   2  -8   50.04    1.50   0
  -4   1  -9   41.46    1.60   0
  -4   0  -8   59.61    1.82   0
  -3   0  -8   37.95    1.37   0
  -3   4  -9   29.02    1.51   0
  -2  -1  -6  112.39    1.71   0
  -1   4  -7    8.09    0.97   0
  -4   4  -9   52.08    1.63   0
  -3   2  -9  128.88    2.44   0
  -3   5  -8    2.94    1.21   0
  -1   1  -7   21.06    1.15   0
  -4   2  -9    1.93    1.15   0
  -3   3  -9   72.61    1.99   0
  -2   1  -8   93.13    1.95   0
  -2   4  -8    4.97    1.22   0
  -4   3  -9   56.47    1.81   0
  -2   0  -7  120.79    1.96   0
  -1   2  -7   53.57    1.37   0
  -1   3  -7   13.10    1.06   0
  -3  -1  -6   52.44    1.48   0
  -3   1  -8    0.45    1.19   0
  -5   0  -7  152.65    2.44   0
  -3   4  -8  396.21    3.82   0
  -1   4  -6   91.81    1.59   0
  -3   0  -7  461.40    3.69   0
  -2  -1  -5    2.43    0.78   0
  -5   2  -8   20.90    1.53   0
  -4   0  -7    3.29    1.22   0
  -4   4  -8   19.59    1.22   0
  -3   2  -8   37.22    1.75   0
  -2   4  -7   28.46    1.41   0
  -1   1  -6   89.32    1.51   0
  -4   2  -8   47.91    1.88   0
  -4   5  -7   22.65    1.45   0
  -4   3  -8   28.88    1.63   0
  -2   0  -6   76.02    1.53   0
  -1   3  -6   -0.71    0.84   0
  -1   2  -6  743.75    3.76   0
  -5   1  -7    1.10    1.13   0
  -3  -1  -5    8.54    0.86   0
  -3   1  -7    0.59    0.83   0
  -3   4  -7    2.00    1.32   0
  -5   0  -6    3.63    1.19   0
  -4   4  -7    7.18    1.30   0
  -5   3  -7    1.61    1.31   0
  -2   4  -6  153.56    2.19   0
  -6   1  -6   53.76    1.74   0
  -4   0  -6    4.53    1.24   0
  -3   2  -7  105.20    1.95   0
  -3   3  -7    9.66    1.02   0
  -2   1  -6   89.17    1.62   0
  -4   2  -7    2.69    1.06   0
  -4   3  -7   18.62    1.45   0
  -1   3  -5  192.72    1.85   0
  -6   2  -6    6.70    1.24   0
  -6   3  -6   14.18    1.30   0
  -2   0  -5   32.84    1.11   0
  -2   3  -6    8.44    1.06   0
  -2   2  -6    0.44    0.95   0
  -5   1  -6   99.03    2.20   0
  -5   5  -5  101.04    2.11   0
  -3   1  -6   60.42    1.55   0
  -4   4  -6  159.61    2.57   0
  -4   5  -5  182.85    2.58   0
  -5   0  -5  279.16    3.09   0
  -5   2  -6   16.27    1.45   0
  -5   3  -6   26.82    1.58   0
  -3  -1  -4  432.43    2.76   0
  -4  -1  -4  110.27    1.83   0
  -3   0  -5  451.54    3.13   0
  -3   2  -6  574.80    3.97   0
  -3   3  -6    1.51    1.14   0
  -4   0  -5    6.23    1.13   0
  -4   2  -6    3.70    1.28   0
  -4   3  -6    0.92    1.22   0
  -2   1  -5   19.01    0.94   0
  -6   3  -5    4.05    1.20   0
  -5   4  -5    3.35    1.17   0
  -5   5  -4    1.29    1.16   0
  -3   4  -5   10.61    1.18   0
  -2   3  -5  159.99    1.94   0
  -4   5  -4    4.06    1.14   0
  -2   2  -5  347.85    2.58   0
  -4   4  -5    5.84    1.20   0
  -5   3  -5  107.91    2.29   0
  -4   1  -5  144.46    2.18   0
  -3   1  -5    8.90    0.77   0
  -2   4  -4  160.59    1.88   0
  -5   0  -4   66.17    1.69   0
  -5   2  -5  231.21    3.02   0
  -6   1  -4    1.51    0.87   0
  -4   3  -5   85.27    1.96   0
  -3   2  -5   93.67    1.72   0
  -6   2  -4    0.61    1.19   0
  -6   3  -4  140.90    2.50   0
  -5   5  -3    8.17    1.30   0
  -4   2  -5  325.78    3.12   0
  -3   0  -4   74.15    1.36   0
  -6   0  -3   69.23    1.81   0
  -4  -1  -3    0.16    0.72   0
  -4   0  -4   22.93    1.14   0
  -3   4  -4   22.48    1.21   0
  -2   3  -4   27.37    1.02   0
  -5   3  -4   38.48    1.65   0
  -7   1  -2   24.01    1.50   0
  -5   2  -4  260.00    3.13   0
  -7   2  -2    2.42    1.25   0
  -6   1  -3    4.65    1.29   0
  -4   1  -4    2.70    0.95   0
  -6   2  -3   25.89    1.57   0
  -5   0  -3   10.58    1.18   0
  -4   2  -4    1.41    1.05   0
  -3   2  -4  107.41    1.72   0
  -7   0  -1   78.79    1.89   0
  -6   4  -2   91.93    2.12   0
  -6   0  -2   24.29    1.53   0
  -4   4  -3    0.26    1.14   0
  -3   4  -3   14.64    1.12   0
  -7   3  -1    0.81    1.00   0
  -5   5  -1   89.20    1.97   0
  -4   0  -3  412.97    3.05   0
  -7   1  -1   43.09    1.66   0
  -4  -1  -2    2.74    0.75   0
  -7   2  -1    0.13    1.24   0
  -5   2  -3    1.86    1.22   0
  -6   1  -2  323.01    3.50   0
  -6   4  -1    0.52    1.09   0
  -6   2  -2   -0.07    1.26   0
  -4   1  -3    2.77    0.89   0
  -7   3   0   51.14    1.67   0
  -5   0  -2   91.47    1.83   0
  -3   1  -3  192.34    1.98   0
  -7   1   0   79.25    1.93   0
  -6   0  -1    8.04    0.94   0
  -5  -1  -1    1.12    0.89   0
  -7   2   0   83.57    1.86   0
  -6   4   0  162.30    2.51   0
  -5   1  -2   25.75    1.39   0
  -7   0   1   40.76    1.55   0
  -7   3   1  102.70    2.07   0
  -6   2  -1    2.26    1.22   0
  -4   0  -2  229.99    2.12   0
  -4  -1  -1   27.69    0.96   0
  -4   4  -1   91.79    1.80   0
  -7   1   1    6.16    1.11   0
  -7   2   1   11.09    0.93   0
  -6   3   0   -0.47    1.09   0
  -6   4   1    8.79    0.94   0
  -4   1  -2  618.75    3.49   0
  -3   3  -2   65.71    1.20   0
  -2  -1   8   20.74    1.11   0
  -5  -2   8   -0.03    0.99   0
  -4  -2   9    0.39    1.16   0
  -3  -4  11   28.80    1.46   0
  -6  -3   7    2.22    1.20   0
  -4  -1   7    2.83    1.19   0
  -4   0   3  169.13    1.95   0
  -3   0   5    7.80    0.92   0
  -6  -2   4    6.20    1.23   0
  -5  -1   5   37.66    1.53   0
  -3  -3  10    6.46    1.26   0
  -3  -2   9   15.19    1.29   0
  -2  -3  10   45.03    1.78   0
  -6  -3   6    1.46    1.26   0
  -5  -1   4  326.38    3.10   0
  -1  -1   7   93.47    1.41   0
  -5  -1   3   15.15    1.12   0
  -4  -2   8    5.31    1.33   0
  -4  -1   6   29.39    1.35   0
  -3  -1   7  500.36    3.64   0
  -5  -3   8  349.34    3.76   0
  -2  -1   7   28.33    1.09   0
  -6  -3   5   71.17    1.74   0
  -4  -3   9    1.57    0.89   0
  -6  -4   6   34.06    1.49   0
  -6  -3   4  161.36    2.48   0
  -4  -1   5  187.20    2.28   0
  -1  -2   8    4.05    0.75   0
  -6  -4   5   16.57    1.37   0
  -5  -4   8   29.12    1.58   0
  -5  -3   7   24.70    1.55   0
  -4  -2   7    8.82    1.32   0
  -3  -3   9  140.55    2.39   0
  -3  -1   6  167.24    2.14   0
  -5  -2   5  121.06    2.24   0
  -4  -4   9   24.51    1.56   0
  -3  -5  10   69.27    1.86   0
  -2  -2   8  320.97    2.93   0
  -4  -3   8   34.84    1.68   0
  -2  -3   9   79.06    1.87   0
  -5  -2   4    0.01    1.11   0
  -4  -5   9   19.43    1.19   0
  -4  -2   6    0.18    1.05   0
  -4  -1   3  321.59    2.57   0
  -3  -2   7    0.29    0.94   0
  -3  -1   5   43.91    1.23   0
  -5  -5   7    4.96    1.14   0
  -3  -4   9   28.63    1.51   0
  -4  -4   8   48.00    1.85   0
  -4  -1   2  176.91    1.87   0
  -5  -3   5   87.95    1.87   0
  -4  -3   7  162.77    2.46   0
  -2  -4   9  111.18    2.14   0
  -4  -5   8  124.61    2.32   0
  -3  -5   9   10.52    1.29   0
  -2  -2   7  101.39    1.58   0
  -1  -2   7    7.47    0.77   0
  -4  -2   5  258.36    2.59   0
  -3  -1   4   32.50    1.13   0
  -2  -3   8   47.20    1.49   0
  -5  -3   4   45.60    1.45   0
  -3  -2   6  123.82    1.88   0
  -1  -3   8   54.60    1.37   0
  -5  -4   5  232.98    3.02   0
  -4  -4   7   45.43    1.76   0
  -2  -5   9    1.26    1.20   0
  -5  -3   3  262.52    2.89   0
  -2  -6   9  113.61    2.12   0
  -5  -5   5   88.50    1.86   0
  -5  -3   2  575.32    3.89   0
  -5  -4   4    1.07    1.25   0
  -4  -6   7   -0.37    0.78   0
  -4  -5   7   22.92    1.54   0
  -5  -5   4   64.63    1.79   0
  -5  -4   3  111.96    2.15   0
  -4  -4   6  223.16    2.94   0
  -4  -3   5   28.67    1.34   0
  -4  -2   3    5.99    0.87   0
  -3  -2   5   31.03    1.19   0
  -5  -5   3   42.94    1.58   0
  -2  -3   7  205.94    2.38   0
  -1  -4   8   72.75    1.65   0
  -4  -6   6   22.13    1.42   0
  -3  -4   7    1.94    1.19   0
  -4  -5   6  258.03    3.07   0
  -4  -2   2    4.31    0.79   0
  -3  -3   6  173.16    2.29   0
  -2  -6   8    5.30    1.19   0
  -1  -3   7   24.57    1.04   0
  -4  -4   5    4.59    1.23   0
  -4  -2   1   56.12    1.21   0
  -3  -6   7   99.48    2.20   0
  -1  -5   8   71.01    1.80   0
  -4  -6   5   81.89    2.01   0
  -3  -2   4   82.15    1.33   0
  -2  -2   5   24.17    1.03   0
  -1  -6   8   70.11    1.82   0
  -4  -5   5    0.20    1.21   0
  -2  -4   7   32.26    1.40   0
  -4  -3   3   68.11    1.55   0
  -3  -4   6    1.46    1.14   0
  -2  -7   7   21.50    1.17   0
  -3  -3   5  137.51    1.91   0
  -3  -6   6   14.57    1.43   0
  -3  -5   6    0.31    1.22   0
  -2  -6   7   89.67    2.06   0
  -2  -5   7   36.15    1.64   0
  -1  -4   7  128.19    1.97   0
  -4  -3   2   18.53    1.09   0
  -3  -2   3  335.08    2.48   0
  -1  -7   7   38.20    1.52   0
  -4  -4   3  109.10    2.08   0
  -3  -7   5   25.41    1.12   0
  -4  -3   1   11.81    0.91   0
  -1  -3   6  230.44    2.15   0
  -4  -6   2  138.72    2.33   0
  -4  -5   3  107.73    2.14   0
  -3  -4   5  493.35    3.71   0
  -3  -3   4    6.52    0.93   0
  -1  -6   7  272.54    3.12   0
  -4  -6   1    0.80    1.16   0
  -4  -4   2   15.70    1.22   0
  -3  -7   4    8.40    1.19   0
  -3  -6   5   19.15    1.47   0
  -4  -5   2    4.07    1.24   0
  -3  -5   5    0.79    0.91   0
  -2  -3   5   33.71    1.16   0
  -4  -4   1  105.01    1.89   0
  -4  -5   1   53.27    1.65   0
  -3  -7   3   87.86    1.99   0
  -2  -7   5  185.06    2.72   0
  -1  -7   6   99.91    2.10   0
  -3  -6   4  118.57    2.34   0
  -3  -4   4   40.32    1.45   0
  -3  -3   3    0.86    0.86   0
  -1  -4   6  552.51    3.58   0
  -3  -5   4  129.87    2.30   0
   0  -7   6    5.57    1.08   0
  -3  -7   2    0.55    0.79   0
  -2  -4   5   93.11    1.72   0
  -1  -6   6    5.37    1.34   0
  -2  -6   5  112.44    2.27   0
  -1  -5   6   80.60    1.76   0
  -1  -3   5    2.56    0.81   0
  -3  -6   3  140.41    2.29   0
  -2  -7   4   58.77    1.79   0
  -2  -5   5   21.13    1.33   0
  -2  -3   4  197.84    2.01   0
  -3  -5   3   -0.17    1.09   0
  -3  -4   3  274.40    2.62   0
  -3  -3   2  486.83    3.07   0
  -1  -7   5    1.05    1.08   0
   0  -6   6   26.92    1.42   0
   0  -5   6  137.71    2.01   0
  -2  -7   3    0.55    0.87   0
  -2  -6   4    5.21    1.34   0
   0  -7   5   46.57    1.72   0
  -3  -6   1   32.88    1.58   0
  -3  -3   1  125.05    1.65   0
  -2  -4   4    1.40    0.86   0
  -1  -6   5    8.02    1.01   0
  -1  -4   5  289.95    2.49   0
  -3  -6  -1    0.92    1.01   0
  -3  -6   0  107.80    2.19   0
  -2  -5   4   37.18    1.28   0
  -1  -5   5    4.64    1.07   0
  -2  -7   2    8.89    1.18   0
  -2  -3   3   50.22    1.19   0
  -3  -5   1  132.42    2.16   0
  -3  -4   1   86.42    1.62   0
  -2  -6   3  108.97    2.22   0
  -3  -3   0  272.90    2.24   0
   0  -4   5   82.77    1.42   0
  -3  -5   0   23.81    1.29   0
  -2  -7   0    8.94    1.10   0
  -1  -7   3  166.05    2.60   0
  -1  -6   4    0.24    1.16   0
   0  -5   5   38.48    1.30   0
  -3  -5  -1  227.63    2.66   0
  -3  -3  -1    2.22    0.71   0
  -2  -7  -1  218.16    2.68   0
  -2  -4   3  254.71    2.46   0
   1  -7   4  270.91    2.97   0
  -3  -4  -1  219.90    2.35   0
  -1  -5   4   35.33    1.37   0
  -1  -7   2    2.88    1.19   0
  -2  -6   1    1.39    1.24   0
  -2  -5   2   32.27    1.37   0
   0  -6   4    2.50    1.06   0
  -2  -4   2   66.52    1.40   0
  -1  -6   3  203.71    2.60   0
  -2  -6   0    4.16    1.25   0
  -1  -7   1  119.08    2.26   0
  -2  -6  -3   19.97    1.38   0
   1  -6   4   -0.09    1.11   0
  -2  -6  -2    1.80    1.15   0
  -2  -6  -1   13.70    1.09   0
  -1  -7   0   42.70    1.57   0
  -1  -5   3    1.51    1.01   0
   0  -4   4    5.88    0.80   0
  -1  -4   3  311.82    2.52   0
  -1  -7  -2   17.59    1.28   0
  -2  -5   0  211.01    2.57   0
   1  -5   4   22.56    1.11   0
  -1  -2   7    6.38    0.80   0
  -4  -4   9   24.78    1.30   0
  -4  -1   6   27.61    1.17   0
  -6  -2   5  162.68    2.52   0
  -4  -5   9   20.70    1.48   0
  -4   0   3  165.96    1.94   0
  -3  -4   9   27.96    1.51   0
  -3  -1   6  164.74    2.11   0
  -4  -2   7    9.54    1.08   0
  -3  -5   9   10.20    1.36   0
  -2  -3   8   49.52    1.47   0
  -6  -2   4    5.86    1.28   0
  -5  -3   7   24.48    1.61   0
  -5  -2   6   91.96    1.98   0
  -5  -1   4  317.94    3.11   0
  -3  -3   8  123.32    2.23   0
  -2  -2   7  103.93    1.70   0
  -6  -4   6   33.67    1.64   0
  -4  -1   5  181.02    2.29   0
  -6  -3   5   72.61    2.04   0
  -6  -2   3   -0.32    1.20   0
  -5  -1   3   15.16    1.13   0
  -4  -2   6    0.64    1.10   0
  -2  -4   8    3.81    1.14   0
  -6  -3   4  159.01    2.70   0
  -5  -3   6   99.22    2.28   0
  -5  -1   2   31.85    1.23   0
  -3  -6   8    1.90    1.14   0
  -3  -5   8  228.95    2.98   0
  -3  -2   6  126.68    1.92   0
  -6  -4   4   12.39    1.42   0
  -6  -3   3   31.77    1.60   0
  -5  -2   4    0.24    1.17   0
  -4  -4   7   45.78    1.76   0
  -2  -3   7  212.96    2.38   0
  -2  -2   6   20.12    0.83   0
  -4  -6   7    0.88    1.11   0
  -5  -5   6    1.64    1.22   0
  -5  -3   5   87.87    2.09   0
  -4  -2   5  252.49    2.75   0
  -3  -1   4   33.18    1.09   0
  -6  -4   3    4.31    1.27   0
  -6  -3   2   61.67    1.81   0
  -4  -1   3  302.82    2.56   0
  -3  -4   7    1.20    1.18   0
  -5  -2   3   26.16    1.13   0
  -3  -6   7  100.66    2.16   0
  -2  -4   7   31.66    1.41   0
  -6  -4   2   23.42    1.45   0
  -3  -5   7   23.28    1.55   0
  -3  -2   5   33.24    1.24   0
  -4  -4   6  228.62    3.03   0
  -4  -2   4   51.88    1.43   0
  -4  -1   2  165.77    1.89   0
  -1  -3   6  235.25    2.08   0
  -4  -3   5   29.05    1.44   0
  -2  -3   6    0.44    0.75   0
  -5  -4   4    1.75    1.19   0
  -5  -5   4   68.68    1.92   0
  -5  -3   3  259.03    3.05   0
  -5  -2   1  309.50    2.84   0
  -4  -1   1   42.97    1.12   0
  -4  -4   5    3.63    1.34   0
  -3  -6   6   14.44    1.18   0
  -4  -5   5    1.24    1.28   0
  -3  -3   5  140.08    2.00   0
  -3  -2   4   81.41    1.47   0
  -1  -4   6  562.13    3.37   0
  -4  -3   4  117.37    2.05   0
  -3  -7   5   24.97    1.40   0
  -2  -6   6   -0.00    1.19   0
  -2  -5   6  228.95    2.61   0
  -5  -4   2   28.71    1.49   0
  -5  -3   1   16.10    1.35   0
  -2  -3   5   35.29    1.15   0
  -4  -5   4    3.25    1.32   0
  -4  -4   4   31.55    1.36   0
  -4  -2   2    4.68    0.90   0
  -3  -4   5  514.12    3.86   0
  -2  -7   5  183.24    2.61   0
  -4  -3   3   68.61    1.63   0
  -3  -7   4    7.55    1.26   0
  -5  -5   1  100.41    2.14   0
  -5  -4   1   69.65    1.92   0
  -5  -3   0   68.56    1.73   0
  -3  -2   3  346.99    2.52   0
  -5  -5   0    0.74    1.19   0
  -4  -6   3   66.47    1.97   0
  -3  -3   4    6.20    0.72   0
  -5  -4   0   29.04    1.55   0
  -2  -6   5  113.14    2.18   0
  -5  -4  -1    0.14    1.11   0
  -4  -5   3  112.47    2.32   0
  -4  -4   3  118.41    2.04   0
  -4  -2   1   53.70    1.28   0
  -2  -7   4   59.12    1.81   0
  -2  -5   5   21.45    1.13   0
  -1  -4   5  299.50    2.46   0
  -3  -4   4   42.99    1.31   0
  -1  -5   5    4.14    1.02   0
  -4  -5   2    4.27    1.33   0
  -4  -4   2   15.01    1.28   0
  -4  -2   0   56.57    1.30   0
  -4  -6   1    0.39    0.87   0
  -3  -7   2    0.88    1.19   0
  -3  -6   3  148.48    2.39   0
  -2  -6   4    6.07    1.39   0
  -2  -7   3    0.54    0.87   0
  -4  -6  -1   12.65    1.27   0
  -4  -5   1   58.85    1.67   0
  -4  -2  -1  509.31    3.11   0
  -3  -7   1  176.42    2.56   0
  -3  -5   3    0.56    1.18   0
  -1  -6   4    0.74    1.05   0
  -4  -3   0   10.76    1.06   0
  -3  -6   2    3.83    1.29   0
  -1  -7   3  167.94    2.48   0
  -3  -3   2  519.08    3.29   0
  -2  -7   2    8.70    1.31   0
  -4  -5  -1    2.03    1.24   0
  -4  -4   0  256.76    2.80   0
  -4  -5  -3  237.26    2.86   0
  -4  -5  -2    1.75    1.12   0
  -4  -3  -1   74.49    1.64   0
  -3  -5   2   60.67    1.82   0
  -4  -4  -1    1.68    1.24   0
  -3  -4   2    0.70    0.76   0
  -4  -3  -2   63.21    1.53   0
  -4  -4  -3  271.54    2.95   0
  -4  -4  -2    4.13    1.14   0
  -3  -6   0  116.37    2.32   0
  -1  -7   2    3.22    1.11   0
  -3  -6  -1    0.36    1.12   0
  -2  -7   0    9.24    1.19   0
   0  -6   3    0.26    1.12   0
  -1  -7   1  121.73    2.26   0
  -1  -5   3    1.89    0.93   0
  -2  -6   1    1.38    1.25   0
  -3  -5  -1  249.16    3.06   0
  -3  -4   0    6.18    0.98   0
  -1  -7   0   43.18    1.65   0
   0  -5   3    8.33    0.88   0
  -3  -5  -5  200.55    2.64   0
  -3  -5  -2   12.06    1.42   0
  -2  -6   0    4.49    1.27   0
  -3  -5  -4    3.30    1.30   0
  -3  -5  -3   12.68    1.42   0
  -2  -5   1   26.75    1.35   0
  -1  -7  -1   17.14    1.39   0
   0  -6   2    1.28    1.00   0
  -2  -6  -1   13.78    1.39   0
  -1  -7  -2   17.46    1.38   0
   0  -7   0   11.42    1.26   0
  -3  -4  -2  124.12    2.06   0
  -2  -6  -2    1.42    1.17   0
  -3  -4  -5    5.75    1.09   0
  -3  -4  -3    2.50    1.11   0
  -3  -3  -2   20.58    1.06   0
  -2  -6  -3   20.90    1.38   0
   0  -6   1   50.64    1.55   0
   0  -7  -2   16.42    1.21   0
   1  -7  -1   54.14    1.62   0
  -2  -3   0    7.01    0.85   0
   0  -7  -3    7.87    0.97   0
   1  -6   1  578.94    3.81   0
  -1  -6   6    3.66    0.98   0
  -1  -5   6   79.85    1.91   0
  -2  -4   5   91.92    1.62   0
  -1  -3   5    3.42    0.60   0
   0  -6   6   26.17    1.57   0
   0  -5   6  138.06    2.28   0
   2  -4   5   -0.29    0.89   0
  -2  -6   5  109.35    2.22   0
  -1  -7   5    0.24    1.20   0
   0  -3   5    5.50    0.81   0
   1  -7   5   32.02    1.59   0
   2  -6   5  144.70    2.36   0
   0  -7   5   47.81    1.69   0
   2  -5   5   79.51    1.64   0
   2  -3   4   23.96    0.90   0
  -1  -6   5    8.27    1.23   0
  -1  -4   5  283.59    2.52   0
   2  -7   4  161.01    2.42   0
  -1  -5   5    3.38    1.06   0
   0  -4   5   81.50    1.56   0
   1  -6   5    2.03    0.95   0
  -2  -7   3   -0.55    1.09   0
  -2  -6   4    6.10    1.30   0
   0  -6   5  553.02    4.12   0
  -2  -4   4    0.53    0.83   0
   0  -5   5   36.56    1.41   0
   1  -7   4  262.35    3.05   0
   0  -7   4   24.72    1.48   0
   2  -6   4    5.33    1.27   0
   2  -4   4  157.16    1.86   0
   3  -7   2    5.21    1.08   0
   2  -7   3    4.28    0.90   0
   2  -5   4    5.19    0.84   0
   3  -5   3    1.20    0.92   0
  -2  -7   2    9.71    1.22   0
  -1  -6   4    1.30    0.93   0
   1  -6   4    0.22    1.09   0
  -2  -6   3  102.50    2.00   0
  -1  -4   4  663.95    3.55   0
   0  -6   4    1.05    1.23   0
  -1  -5   4   32.83    1.29   0
   0  -7   3   -0.29    1.18   0
   1  -7   3   24.04    1.36   0
   0  -4   4    6.10    0.92   0
   1  -5   4   21.54    0.99   0
   3  -7   1   14.67    1.18   0
  -2  -5   3   49.10    1.44   0
  -2  -4   3  243.36    2.15   0
   0  -5   4  144.42    1.95   0
   2  -7   2    9.64    1.29   0
   2  -6   3  124.42    2.18   0
   3  -6   2    6.50    1.11   0
  -2  -6   2   17.09    1.22   0
  -2  -7   0    8.26    1.11   0
   0  -7   2   38.14    1.58   0
   1  -7   2   81.37    1.96   0
   1  -6   3   53.05    1.67   0
   2  -5   3   35.27    1.31   0
   2  -4   3   86.86    1.44   0
   3  -5   2   27.53    1.23   0
   0  -6   3    0.81    1.21   0
   3  -7   0  229.22    2.57   0
   2  -7   1   41.35    1.50   0
   1  -5   3    6.39    1.01   0
   2  -6   2   -0.28    1.05   0
   3  -6   1  234.64    2.69   0
  -2  -6   1    1.56    1.13   0
   0  -5   3    7.66    1.04   0
   1  -4   3   97.21    1.57   0
   0  -7   1  113.49    2.19   0
   0  -4   3  547.86    3.13   0
   1  -7   1   12.14    1.27   0
  -2  -4   2   62.14    1.23   0
   1  -6   2    6.37    1.25   0
   2  -7   0    1.21    1.01   0
   0  -6   2    0.48    1.18   0
   2  -5   2  143.81    1.99   0
  -2  -6   0    3.92    1.11   0
  -1  -7  -1   16.12    1.23   0
   0  -7   0   11.96    1.23   0
   1  -7   0   78.04    1.87   0
   2  -6   1    2.00    1.09   0
   3  -6   0    5.32    1.10   0
   2  -7  -1    8.58    1.15   0
   2  -4   2   17.98    0.79   0
   1  -5   2  222.07    2.36   0
   3  -4   1    2.76    0.66   0
  -1  -7  -2   16.37    1.22   0
   0  -6   1   50.30    1.61   0
   0  -5   2  259.13    2.44   0
   1  -6   1  556.48    4.08   0
  -2  -6  -1   12.24    1.14   0
  -2  -4   1   57.94    1.18   0
   1  -4   2  260.17    2.19   0
   3  -6  -1   76.07    1.75   0
  -1  -6   0   28.64    1.23   0
   0  -7  -2   15.02    1.27   0
   0  -4   2  147.56    1.62   0
   1  -7  -2   52.28    1.62   0
   2  -6   0    0.58    0.83   0
   2  -5   1    1.32    0.90   0
   3  -5   0    2.54    0.93   0
  -2  -6  -2    1.63    1.01   0
  -2  -5   0  198.10    2.27   0
   0  -7  -3    7.80    1.08   0
   0  -6   0    4.53    1.21   0
   1  -7  -3  191.34    2.46   0
   1  -6   0    4.80    1.14   0
   0  -5   1  136.67    1.88   0
   1  -5   1    2.43    0.92   0
   3  -6  -2  111.45    2.00   0
  -1  -6  -1   52.26    1.59   0
   2  -4   1   79.92    1.31   0
   3  -4   0    0.42    0.67   0
  -2  -5  -1    1.11    0.90   0
   0  -6  -1  118.57    2.08   0
   2  -5   0  263.14    2.55   0
   3  -6  -3  115.41    1.98   0
   3  -5  -1   86.38    1.66   0
  -2  -4   0   16.16    0.82   0
  -1  -6  -2  276.87    2.88   0
   1  -6  -1   10.11    0.98   0
   0  -4   1   21.60    0.96   0
   1  -4   1    9.70    0.81   0
  -1  -6  -3   10.62    1.18   0
   3  -6  -4    4.11    0.76   0
  -2  -5  -2  159.22    2.04   0
   0  -5   0   53.74    1.20   0
   1  -6  -2  225.75    2.67   0
   1  -5   0    4.52    0.66   0
  -1  -5  -1  208.84    2.24   0
   2  -5  -1   14.21    1.06   0
   2  -4   0    2.99    0.66   0
   3  -5  -2  161.65    2.09   0
  -2  -5  -3   45.90    1.35   0
  -2  -4  -1    1.38    0.65   0
  -1  -4   0  114.99    1.47   0
   0  -6  -3    1.02    0.73   0
   1  -6  -3   42.08    1.47   0
   3  -4  -1  158.38    1.75   0
   0  -6  -4   35.63    1.41   0
  -2  -5  -4    3.87    0.94   0
   0  -5  -1   94.40    1.65   0
   1  -5  -1    9.88    1.01   0
   2  -6  -5    5.28    0.80   0
  -1  -5  -2   98.23    1.74   0
   1  -4   0   69.73    1.24   0
   3  -5  -3   43.33    1.32   0
   0  -4   0   68.20    1.11   0
  -2  -4  -2   34.92    0.99   0
   0  -5  -2  514.19    3.42   0
  -1  -5  -3   55.69    1.41   0
  -1  -4  -1  361.90    2.41   0
   1  -5  -2  190.24    2.21   0
   2  -4  -1   29.89    0.95   0
   3  -5  -5    4.81    1.02   0
  -1  -5  -4    1.15    1.07   0
   3  -5  -7   19.59    1.12   0
   3  -5  -6    8.76    1.00   0
  -2  -4  -3  163.93    1.80   0
  -1  -5  -5  167.27    2.28   0
   0  -5  -3   10.37    1.10   0
   1  -4  -1  412.24    2.60   0
  -1  -5  -6   25.25    1.18   0
   0  -4  -1   37.17    0.89   0
   0  -5  -4  113.14    1.92   0
  -2  -4  -4    4.91    0.90   0
  -1  -4  -2   76.43    1.33   0
   1  -5  -4   40.54    1.45   0
   2  -5  -5   10.40    1.18   0
   0  -5  -6   19.00    1.25   0
   0  -5  -5   54.49    1.54   0
   2  -5  -6  134.99    2.14   0
  -2  -4  -5  225.07    2.33   0
   1  -5  -7   36.33    1.44   0
   1  -5  -6   32.69    1.40   0
   1  -5  -5  147.19    2.11   0
   3  -3  -2   67.97    1.13   0
   1  -4  -2   19.24    0.95   0
   3  -4  -4    4.29    0.93   0
  -1  -4  -3    6.34    0.87   0
   3  -4  -5   42.01    1.44   0
  -1  -4  -4  333.21    2.81   0
  -1  -4  -8    8.78    1.09   0
   1  -4  -3  126.84    1.79   0
   3  -4  -8    8.03    1.14   0
   3  -4  -7  223.59    2.74   0
   3  -4  -6    0.55    0.82   0
  -1  -4  -7   37.15    1.47   0
  -1  -4  -5    4.40    1.00   0
   3  -3  -3  136.93    1.63   0
  -1  -4  -6    2.42    1.18   0
   2  -4  -9  118.31    2.15   0
   1  -4  -9   65.06    1.81   0
  -2  -3  -4  100.43    1.50   0
   2  -4  -8   14.17    1.34   0
  -4   2 -10    0.20    0.94   0
  -3   1 -10  297.45    3.07   0
  -3   4  -8  403.62    3.34   0
  -4   1 -10   47.73    1.44   0
  -3  -1  -9   15.22    1.20   0
  -3   3  -9   74.90    1.73   0
  -1   1  -8   10.95    0.96   0
  -2   1  -9    0.43    1.00   0
  -2   3  -8   -0.03    0.90   0
  -1   3  -6   -0.06    0.58   0
  -3   4  -7    0.22    0.92   0
  -1  -1  -7    6.16    0.73   0
  -2  -1  -8    5.90    0.96   0
  -1   2  -7   51.52    1.17   0
  -3   2  -9  123.48    2.10   0
  -4   2  -9    2.75    0.92   0
  -3   3  -8   92.13    1.63   0
  -2   2  -8  143.12    1.91   0
  -2   3  -7  133.84    1.82   0
  -1   1  -7   20.55    0.93   0
  -4   1  -9   41.88    1.46   0
  -4   3  -8   27.67    1.25   0
  -2   1  -8   89.11    1.58   0
  -1  -1  -6    0.59    0.64   0
  -4  -1  -8    1.01    0.98   0
  -3   2  -8   37.67    1.46   0
  -2  -1  -7   59.37    1.36   0
  -5   2  -8   22.24    1.28   0
  -3   3  -7   10.45    1.13   0
  -2   2  -7   21.76    1.05   0
  -2   3  -6    9.29    0.85   0
  -1   1  -6   90.07    1.36   0
  -4   2  -8   49.07    1.57   0
  -3   1  -8    1.10    1.08   0
  -5   1  -8  130.33    2.22   0
  -5   3  -7    2.13    1.01   0
  -4   3  -7   18.76    1.28   0
  -4   1  -8  181.61    2.57   0
  -2   1  -7   24.63    1.13   0
  -3  -1  -7   53.94    1.54   0
  -5  -1  -7   51.61    1.54   0
  -4  -1  -7  150.36    2.31   0
  -3  -2  -6   11.35    0.95   0
  -5   2  -7  131.20    2.28   0
  -4  -2  -6    4.45    0.99   0
  -4   3  -6    0.57    1.02   0
  -3   1  -7    1.16    1.05   0
  -5   1  -7    1.28    1.15   0
  -4   0  -7    2.49    1.10   0
  -6   3  -5    4.35    1.09   0
  -6   0  -6   13.34    1.00   0
  -6   1  -6   60.37    1.69   0
  -5  -1  -6   21.77    1.29   0
  -4  -1  -6   85.94    1.80   0
  -3   0  -6    1.68    0.82   0
  -6   3  -4  148.98    2.11   0
  -5  -2  -5  142.71    2.12   0
  -5   0  -6    3.38    1.06   0
  -6  -1  -5    4.16    0.97   0
  -6   2  -5  118.36    2.06   0
  -4  -2  -5   57.95    1.44   0
  -4   1  -6   55.27    1.54   0
  -2   1  -5   20.83    0.86   0
  -3   3  -4    1.00    0.66   0
  -2   0  -5   34.88    0.97   0
  -6  -2  -4   81.66    1.69   0
  -6   0  -5   84.11    1.73   0
  -6   1  -5   10.58    0.86   0
  -5   3  -4   38.94    1.27   0
  -4   3  -4   34.15    1.12   0
  -5  -1  -5    9.82    1.03   0
  -3  -1  -5    8.34    0.76   0
  -6   3  -3   32.60    1.22   0
  -3   1  -5    9.79    0.83   0
  -6   2  -4    0.01    0.90   0
  -5   0  -5  285.34    2.78   0
  -5   1  -5    7.95    1.06   0
  -3   0  -5  445.51    2.75   0
  -5  -2  -4    1.17    0.89   0
  -4   1  -5  145.23    1.89   0
  -3  -2  -4   62.36    1.10   0
  -3   3  -3  231.15    1.77   0
  -6  -1  -4  240.67    2.56   0
  -4   0  -5    4.64    0.68   0
  -6   1  -4    1.35    0.91   0
  -5   3  -3  233.58    2.26   0
  -4  -2  -4   14.15    0.85   0
  -3   2  -4  101.63    1.32   0
  -7   0  -3    2.84    0.79   0
  -6   0  -4   18.11    1.07   0
  -4   3  -3  104.29    1.41   0
  -7   2  -2    1.88    0.80   0
  -6  -2  -3   10.64    0.95   0
  -4   2  -4    0.67    0.70   0
  -6   2  -3   23.28    1.07   0
  -5  -1  -4   19.34    1.05   0
  -5   1  -4  109.95    1.73   0
  -3  -1  -4  410.76    2.33   0
  -4  -1  -4  102.51    1.48   0
  -3   1  -4   11.11    0.58   0
  -5  -2  -3   12.61    0.91   0
  -5   3  -2  117.88    1.57   0
  -4   1  -4    3.34    0.54   0
  -3   0  -4   71.07    1.10   0
  -7   2  -1    0.57    0.80   0
  -6   1  -3    5.08    0.66   0
  -5   2  -3    1.13    0.85   0
  -4   0  -4   22.44    0.73   0
  -4   3  -2    0.17    0.51   0
  -6   0  -3   67.13    1.47   0
  -3  -2  -3  586.03    2.62   0
  -3   2  -3    1.66    0.53   0
  -6  -2  -2   15.64    0.95   0
  -6   2  -2    0.67    0.80   0
  -4  -2  -3    0.03    0.66   0
  -4   2  -3   18.22    0.79   0
  -5   1  -3   57.34    1.27   0
  -5   0  -3   10.17    0.87   0
  -7   0  -1   77.89    1.55   0
  -3  -1  -3   41.23    0.83   0
  -3   1  -3  175.15    1.49   0
  -6   0  -2   20.94    1.08   0
  -5   2  -2   34.38    1.02   0
  -4   1  -3    2.78    0.48   0
  -7  -2   0   89.01    1.57   0
  -6   2  -1    0.98    0.63   0
  -5  -2  -2   11.68    0.70   0
  -4   0  -3  393.29    2.51   0
  -3   0  -3   63.74    1.00   0
  -7   2   1   11.01    0.87   0
  -6  -2  -1  172.23    2.09   0
  -4   2  -2  225.82    1.86   0
  -6  -3   0    0.34    0.79   0
  -4  -2  -2    2.11    0.60   0
  -7   0   0   16.84    1.06   0
  -6   1  -1    3.16    0.89   0
  -7   2   2  138.39    1.92   0
  -6  -1  -1   27.46    1.16   0
  -6   2   0  146.87    1.99   0
  -5   0  -2   92.67    1.56   0
  -5   2  -1   27.55    1.04   0
  -7  -2   1    0.99    0.86   0
  -6   0  -1    8.59    0.99   0
  -7   1   1    5.94    0.96   0
  -4   1  -2  675.04    3.21   0
  -6  -2   0   52.04    1.41   0
  -5  -2  -1  231.13    2.30   0
  -7  -1   1    9.49    0.98   0
  -7   0   1   42.87    1.41   0
  -6  -3   1   37.00    1.30   0
  -5  -3   0   70.49    1.41   0
  -4   2  -1   13.34    0.78   0
  -5   1  -1  266.06    2.43   0
  -7  -2   2   -0.01    0.86   0
  -7   1   2   67.29    1.58   0
  -5  -1  -1    1.40    0.79   0
  -6  -1   0   95.61    1.67   0
  -6   0   0   64.97    1.58   0
  -4  -2  -1  566.16    3.01   0
  -7  -1   2   52.14    1.48   0
  -7   0   2    1.84    0.91   0
  -6  -2   1    0.64    0.89   0
  -6   2   2   97.22    1.70   0
  -4   1  -1  401.36    2.47   0
  -5  -2   0   59.88    1.30   0
  -5  -3   1   15.66    0.93   0
  -7  -1   3    0.60    0.83   0
  -7   0   3    7.42    0.87   0
  -7   1   4    5.46    0.81   0
  -6  -1   1    4.25    0.86   0
  -6   0   1   16.05    1.01   0
  -5   2   1   69.67    1.26   0
  -4   0  -1   17.22    0.65   0
  -6   2   3   -0.49    0.73   0
  -5   5   1   27.07    1.34   0
  -3   2  -4   99.93    1.50   0
  -2   4  -1   79.79    1.38   0
  -5   4  -2  123.52    2.34   0
  -5   5   2   93.18    1.97   0
  -4   2  -4    1.24    0.92   0
  -4   5   1   57.56    1.63   0
  -3   4  -2  311.79    2.70   0
  -7   2  -2    2.22    1.04   0
  -6   2  -3   24.60    1.41   0
  -6   4  -1    0.62    1.11   0
  -4   1  -4    3.52    0.77   0
  -4   4  -2   38.24    1.52   0
  -3   3  -3  249.24    2.41   0
  -2   4   0    3.87    0.73   0
  -4   3  -3  115.03    1.95   0
  -6   4   0  157.38    2.49   0
  -2   3  -2   66.69    1.17   0
  -2   4   1   30.67    1.00   0
  -7   3   0   47.16    1.64   0
  -5   2  -3    1.67    1.10   0
  -7   2  -1    1.20    1.05   0
  -6   4   1    8.77    1.25   0
  -6   2  -2   -0.33    1.35   0
  -4   2  -3   21.30    1.11   0
  -3   4   0    1.12    0.86   0
  -7   3   1  100.01    1.98   0
  -6   4   2   99.26    2.06   0
  -5   1  -3   63.36    1.52   0
  -4   3  -2    0.71    0.98   0
  -6   4   3   29.29    1.44   0
  -6   4   4   36.59    1.43   0
  -6   1  -2  328.16    3.17   0
  -7   2   0   83.07    1.88   0
  -7   3   2    4.76    1.12   0
  -6   3   0    0.07    1.20   0
  -4   1  -3    3.09    0.79   0
  -4   4   1    0.22    1.03   0
  -5   4   2   28.19    1.41   0
  -3   4   2   17.73    0.99   0
  -7   3   3   28.50    1.42   0
  -6   2  -1    1.86    1.18   0
  -5   4   3   19.67    1.35   0
  -5   4   4   22.44    1.33   0
  -3   3  -1   22.97    1.03   0
  -4   3  -1  243.26    2.46   0
  -7   1   0   79.06    1.87   0
  -4   4   3   61.35    1.59   0
  -5   1  -2   26.00    1.21   0
  -5   3   0    9.48    1.25   0
  -6   1  -1    3.56    1.09   0
  -7   2   2  144.24    2.35   0
  -6   2   0  147.56    2.44   0
  -6   3   2   66.42    1.85   0
  -5   2  -1   27.43    1.27   0
  -4   3   0    2.02    0.93   0
  -3   3   0    0.86    0.87   0
  -7   1   1    6.23    1.15   0
  -6   3   3   34.57    1.55   0
  -4   1  -2  660.86    3.46   0
  -7   2   3    8.26    1.20   0
  -6   3   4  171.78    2.51   0
  -6   3   5  196.72    2.58   0
  -6   3   6    6.84    1.06   0
  -4   2  -1   13.39    0.96   0
  -7   0   1   40.07    1.49   0
  -7   2   4    5.75    1.09   0
  -6   2   1   18.96    1.12   0
  -5   3   2   92.77    1.93   0
  -4   0  -2  231.69    1.96   0
  -4   3   1  262.57    2.50   0
  -3   3   1  206.38    2.04   0
  -7   2   5    6.00    1.10   0
  -6   1   0  323.13    3.06   0
  -5   1  -1  250.55    2.53   0
  -5   3   3  192.05    2.60   0
  -6   2   2   95.73    2.09   0
  -5   3   4    0.69    1.18   0
  -4   3   2   55.67    1.46   0
  -3   3   2   78.84    1.38   0
  -6   0   0   63.09    1.63   0
  -5   3   5    2.24    1.15   0
  -7   0   2    2.59    1.00   0
  -5   0  -1   27.01    0.95   0
  -4   3   3  235.04    2.48   0
  -6   2   3    0.50    1.15   0
  -4   1  -1  397.17    2.71   0
  -3   3   3  138.32    1.74   0
  -7   1   4    6.04    1.16   0
  -4   3   4   46.94    1.39   0
  -3   3   4   37.69    1.08   0
  -6   2   7   59.85    1.66   0
  -7   0   3    7.26    1.07   0
  -7   1   6   17.25    1.19   0
  -6   0   1   16.89    1.28   0
  -6   1   2    0.41    1.06   0
  -4   2   1   15.64    1.07   0
  -4   0  -1   18.69    0.84   0
  -7  -1   3    0.74    1.06   0
  -5   2   3  101.63    1.95   0
  -6  -1   1    2.88    1.05   0
  -5   0   0    4.96    0.88   0
  -5   1   1   89.54    1.69   0
  -6   1   3   78.31    1.78   0
  -4   2   2   61.32    1.40   0
  -7   0   6    1.01    0.92   0
  -6   0   2   51.85    1.57   0
  -5   2   7   40.23    1.52   0
  -6   1   4  116.94    2.25   0
  -5   2   5   81.81    1.72   0
  -5   2   6   47.41    1.62   0
  -6   1   8   -0.75    1.06   0
  -6   1   5    1.21    0.86   0
  -6   1   6    0.21    1.08   0
  -5   1   2    0.80    0.95   0
  -6  -1   2  416.94    3.52   0
  -5   0   1  163.04    2.05   0
  -4   0   0   36.79    1.07   0
  -4   2   4  182.81    2.20   0
  -4   2   7  231.39    2.59   0
  -4   2   5  177.39    2.24   0
  -4   2   6    2.99    1.01   0
  -5   1   3  120.96    1.91   0
  -5   1   9   12.23    1.16   0
  -3   2   3   74.86    1.20   0
  -6   0   4    6.47    0.92   0
  -6   0   9   15.10    1.25   0
  -6  -1   3   94.30    1.99   0
  -5  -1   1   43.51    1.27   0
  -5   1   4   15.52    1.20   0
  -3   2   4  195.16    1.96   0
  -6   0   5   10.82    1.05   0
  -6   0   8   11.04    1.20   0
  -5   1   8    1.71    1.05   0
  -4   1   2  134.86    1.77   0
  -3   2   5   44.94    1.13   0
  -6  -2   3    1.00    1.05   0
  -6   0   6  294.06    3.19   0
  -6   0   7    0.17    1.09   0
  -5   1   5  325.70    3.20   0
  -5   1   7   35.12    1.48   0
  -6  -1   4    5.77    1.18   0
  -5   0   3    3.70    0.96   0
  -5   0  10  110.60    2.05   0
  -4   1   3  156.87    1.93   0
  -6  -2   4    6.21    1.09   0
  -6  -1   5    5.07    1.25   0
  -6  -1   9   79.49    1.86   0
  -5  -1   2   30.39    1.22   0
  -6  -1   6   19.46    1.37   0
  -6  -1   8  104.27    2.11   0
  -6  -1   7   22.54    1.39   0
  -5   0   4  141.19    2.13   0
  -5   0   9   15.38    1.30   0
  -4   1   4  150.73    1.94   0
  -4   1   8  124.02    2.06   0
  -5  -2   2   14.55    1.02   0
  -4   1   7  375.85    3.27   0
  -6  -2   9   20.61    1.21   0
  -4   0   2  641.06    3.42   0
  -4   1   6   37.42    1.33   0
  -6  -2   8   25.19    1.33   0
  -5  -1   3   14.14    1.09   0
  -5   0   6    2.23    1.15   0
  -5   0   7   13.23    1.22   0
  -4  -1   1   45.51    1.06   0
  -6  -3   6    1.91    1.09   0
  -6  -2   7   36.45    1.35   0
  -6  -3   7    2.72    1.06   0
  -6  -3   8   22.06    1.28   0
  -5  -1  10   17.82    1.18   0
  -4   0  10    8.17    1.05   0
  -5  -2   3   27.17    1.17   0
  -4   0   3  161.10    1.91   0
  -4   0   9  106.58    2.00   0
  -3   1   7   84.72    1.57   0
  -5  -1   5   35.15    1.47   0
  -3   1   5  509.89    3.08   0
  -3   1   6   18.74    0.98   0
  -5  -1   7  226.31    2.92   0
  -5  -1   8    0.42    0.89   0
  -4  -1   2  173.43    1.80   0
  -4  -1  11   64.72    1.70   0
  -5  -2   4    0.63    0.70   0
  -5  -2  10   38.63    1.55   0
  -4   0   8  173.24    2.42   0
  -5  -3   4   43.51    1.52   0
  -4   0   5   36.12    1.30   0
  -5  -2   9   32.59    1.59   0
  -4   0   6   98.41    1.70   0
  -5  -3  10   19.56    1.31   0
  -4  -2   2    4.61    0.79   0
  -4  -1  10    4.56    1.25   0
  -5  -3   5   88.72    1.98   0
  -5  -2   6   89.23    2.00   0
  -5  -2   7  195.73    2.83   0
  -5  -2   8    0.12    1.24   0
  -5  -3   9   33.77    1.56   0
  -3   0   9    4.53    1.12   0
  -5  -4   6   69.48    1.88   0
  -4  -2  11    5.80    1.25   0
  -5  -3   8  337.55    3.56   0
  -4   2   8   22.02    1.90   0
  -5   0   5   17.07    1.51   0
  -3   2   4  200.65    2.53   0
  -3   2  10   22.04    1.88   0
  -4   1   4  154.61    2.29   0
  -4   1  11    1.99    1.19   0
  -5   0   6    2.43    1.39   0
  -5   0  10  110.05    2.43   0
  -3   2   5   45.45    1.58   0
  -5   0   7   12.09    1.42   0
  -5   0   9   17.45    1.24   0
  -4   1  10   11.65    1.53   0
  -3   2   8   89.06    2.29   0
  -2   2  10    0.40    1.29   0
  -3   2   6   38.30    1.40   0
  -4   1   6   36.10    1.57   0
  -5  -1  10   16.73    1.61   0
  -4   1   7  363.07    3.84   0
  -4   1   8  125.80    2.61   0
  -2   2   4   77.05    1.57   0
  -2   2   9   61.63    2.08   0
  -5  -1   8   -1.04    1.36   0
  -5  -1   9   55.22    1.99   0
  -4   0   4   88.57    1.64   0
  -4   0  11    9.69    1.46   0
  -2   2   5  437.59    3.38   0
  -2   2   8    1.60    1.33   0
  -1   2   9   14.01    1.48   0
  -3   1  10   77.19    2.25   0
  -3   1   4    5.76    1.08   0
  -4   0   5   35.29    1.39   0
  -4   0  10    7.26    1.19   0
  -3   0  12    1.14    1.34   0
  -2   1  11    2.99    1.45   0
  -1   2   8   22.05    1.54   0
  -3   1   9  116.86    2.64   0
  -1   2   7   21.21    1.30   0
  -4   0   9  105.52    2.56   0
  -3   1   5  504.13    3.77   0
  -1   1  11   24.12    1.75   0
  -4  -1  11   64.11    2.27   0
  -4   0   6   93.61    1.92   0
  -3   1   8    1.37    1.44   0
  -3   0  11   56.63    2.21   0
  -3   1   6   18.84    1.17   0
  -2   1  10  152.43    2.77   0
  -2   0  12    0.80    1.38   0
  -4  -1   5  181.94    2.41   0
  -3  -1  12    6.15    1.45   0
  -1   1  10    8.65    1.54   0
  -4  -2  11    5.27    1.60   0
  -4  -1   9  262.47    3.83   0
  -4  -1   6   28.56    1.50   0
  -2   1   8   89.06    2.29   0
  -4  -1   7    2.67    1.47   0
  -3   0   9    4.37    1.69   0
  -4  -3  11   39.27    2.02   0
  -1   1   9   95.88    2.47   0
  -3  -1  11   16.96    1.51   0
  -3   0   8   26.32    1.84   0
   0   1   9    4.28    1.42   0
  -4  -2   9   -0.53    1.59   0
  -2  -1  12   80.70    2.51   0
  -4  -3  10  250.15    3.68   0
  -2   0  10    0.76    1.55   0
  -1   0  11   96.18    2.71   0
  -1   1   8  580.08    4.68   0
  -4  -2   6   -0.62    1.28   0
  -4  -2   8    5.45    1.62   0
  -3  -1  10   -0.46    1.70   0
  -4  -3   9    2.42    1.60   0
  -1   1   7  247.61    2.98   0
   0   1   8   20.13    1.42   0
  -3  -2  11    2.55    1.34   0
  -3  -1   9   30.52    2.01   0
  -2  -1  11  186.26    3.49   0
  -2   0   9  140.76    2.70   0
  -1   1   6   67.84    1.72   0
  -1   0  10   23.93    1.73   0
  -2  -2  12    5.87    1.74   0
  -2   0   8   72.97    2.14   0
   0  -1  12   49.27    2.04   0
   0   1   7   52.34    1.58   0
  -3  -3  11   21.92    1.84   0
  -3  -1   8    0.97    1.38   0
  -3  -4  11   30.28    1.95   0
  -3  -1   5   44.87    1.50   0
  -3  -1   6  171.25    2.49   0
  -2  -1  10    0.49    1.70   0
  -2   0   7    6.80    1.03   0
  -2   0   6  278.17    2.88   0
  -2  -3  12   17.88    1.46   0
  -2  -2  11   25.11    2.01   0
  -1  -2  12   47.68    2.17   0
  -3  -3  10    7.18    1.21   0
   0  -1  11   10.64    1.67   0
  -3  -4  10   43.06    2.08   0
  -3  -2   8   34.19    1.84   0
  -2  -1   9   72.43    2.25   0
   0  -2  12    2.09    1.66   0
  -3  -2   7    0.62    1.19   0
  -2  -3  11   65.59    2.35   0
  -2  -2  10   76.55    2.44   0
  -2  -1   8   20.39    1.56   0
  -1  -3  12   -0.33    1.57   0
  -1   0   7   92.26    1.96   0
  -3  -2   6  118.78    2.03   0
  -1  -2  11   28.05    1.88   0
  -2  -5  11   36.74    1.84   0
  -2  -1   7   27.46    1.46   0
  -1  -4  12   49.29    1.98   0
   0  -1  10    0.33    1.13   0
  -3  -4   8  103.32    2.44   0
  -3  -3   7   27.12    1.56   0
  -2  -2   9   11.64    1.62   0
   1   0   8   85.48    1.83   0
  -2  -3  10   46.08    2.03   0
   1  -3  12   45.67    1.99   0
  -2  -1   6    7.12    0.78   0
  -1  -3  11   57.43    2.27   0
  -1  -2  10   99.56    2.55   0
   0   0   7  117.10    1.94   0
   1  -2  11    2.34    1.51   0
  -2  -5  10    5.55    1.55   0
  -2  -4  10   96.26    2.29   0
  -1  -1   8    9.98    1.23   0
   0  -4  12  200.64    3.07   0
   0  -1   9  150.49    2.61   0
   1   0   7  421.57    3.22   0
   0  -3  11   53.81    2.14   0
  -2  -5   9    1.76    1.50   0
  -1  -3  10  124.20    2.82   0
  -1  -2   9    0.85    1.34   0
  -1  -1   7   91.53    1.70   0
   1  -3  11   23.10    1.77   0
   2  -3  11    4.62    1.62   0
  -2  -3   8   43.95    1.60   0
   0  -4  11   23.15    1.79   0
   0  -1   8  102.36    2.08   0
   2  -2  10   68.39    2.08   0
  -2  -2   6   19.21    1.20   0
  -1  -4  10  134.78    2.83   0
  -2  -4   8    2.34    1.48   0
  -1  -5  10    2.43    1.76   0
   0  -5  11    0.04    0.97   0
  -2  -5   8  129.46    2.65   0
  -1  -2   8    3.55    1.32   0
   0  -3  10    4.04    1.58   0
   2  -4  11    4.91    1.49   0
  -1  -3   9  102.23    2.27   0
   1  -5  11   70.84    2.18   0
  -1  -6   9   41.00    1.92   0
  -2  -5   7   30.72    1.72   0
   1  -3  10    8.51    1.68   0
  -2  -3   6    0.19    1.03   0
  -1  -4   9   47.52    2.04   0
   0  -4  10  139.25    2.98   0
   2  -3  10   28.09    1.80   0
  -1  -5   9    8.43    1.21   0
   0  -5  10   32.88    1.89   0
  -1  -3   8   51.98    1.88   0
   3  -4  10   41.86    1.87   0
  -2  -4   6    4.36    1.19   0
  -1  -6   8   64.73    2.15   0
   0  -3   9   41.31    1.92   0
   1  -4  10  172.44    3.14   0
   2  -4  10  249.84    3.55   0
   0  -6   9   27.62    1.70   0
   1  -5  10    0.11    1.17   0
  -1  -5   8   64.75    2.30   0
  -1  -2   6  427.08    3.24   0
  -1  -3   7   19.93    1.33   0
   0  -5   9  223.49    3.47   0
  -1  -6   7  242.49    3.39   0
   2  -3   9    0.67    1.47   0
  -3  -3   9  141.99    2.70   0
  -5  -5   7    3.66    1.28   0
  -4  -5   9   20.88    1.54   0
  -4  -2   6    0.47    0.84   0
   0  -2   8  209.90    2.32   0
  -5  -4   6   73.40    2.05   0
  -3  -5  10   70.38    1.86   0
  -2  -2   8  325.50    3.23   0
  -2  -1   6    5.90    0.98   0
  -3  -2   7    0.36    1.11   0
  -1  -4  10  143.61    2.55   0
   0  -3   9   39.90    1.44   0
  -5  -5   6    1.13    1.32   0
  -4  -2   5  259.53    2.76   0
  -3  -4   9   28.31    1.78   0
  -1  -3   9  109.58    2.17   0
  -3  -3   8  121.16    2.38   0
  -4  -2   4   53.13    1.38   0
  -1  -5  10    1.57    1.34   0
  -4  -3   6   44.65    1.65   0
  -3  -5   9    9.91    1.41   0
  -2  -2   7  102.10    1.84   0
  -4  -4   7   44.65    1.85   0
  -3  -2   6  122.97    1.82   0
  -2  -4   9  108.41    2.39   0
  -4  -2   3    6.18    0.85   0
  -2  -3   8   47.72    1.61   0
   0  -4   9   33.58    1.49   0
   0  -2   7    7.95    0.88   0
  -4  -6   7    0.46    1.20   0
  -4  -5   7   24.04    1.52   0
  -3  -4   8  117.76    2.45   0
  -3  -3   7   28.19    1.44   0
  -1  -4   9   50.12    1.80   0
  -1  -2   7    7.31    0.91   0
  -4  -3   5   29.10    1.35   0
  -2  -5   9    2.62    1.34   0
   0  -3   8    1.28    0.94   0
  -4  -4   6  223.60    2.92   0
  -2  -6   9  113.04    2.39   0
  -3  -6   8    3.40    1.21   0
  -3  -5   8  223.33    3.17   0
  -4  -6   6   20.65    1.40   0
  -2  -2   6   20.76    0.90   0
  -1  -6   9   45.27    1.72   0
  -1  -5   9    9.28    1.37   0
   0  -6   9   28.63    1.46   0
  -4  -5   6  247.76    3.03   0
  -4  -3   4  113.49    1.97   0
  -2  -4   8    3.28    1.26   0
  -4  -4   5    3.54    1.22   0
  -3  -4   7    2.45    1.25   0
  -3  -3   6  171.93    2.36   0
  -2  -3   7  205.95    2.53   0
  -4  -6   5   81.08    1.98   0
  -4  -3   3   66.24    1.46   0
  -3  -6   7   99.66    2.22   0
  -3  -5   7   21.92    1.59   0
  -3  -2   4   80.73    1.33   0
  -2  -6   8    6.13    1.30   0
  -1  -4   8   71.54    1.87   0
   0  -4   8   43.27    1.51   0
  -4  -5   5    1.29    0.88   0
  -4  -4   4   31.56    1.43   0
  -2  -2   5   23.93    1.05   0
   0  -3   7  387.29    2.94   0
  -4  -6   4    3.70    1.29   0
  -3  -4   6    2.18    1.15   0
  -1  -5   8   72.05    2.07   0
  -4  -5   4    2.20    1.28   0
  -2  -7   7   22.56    1.34   0
  -2  -4   7   32.66    1.50   0
   0  -5   8  183.11    2.74   0
  -2  -3   6    0.54    0.95   0
   0  -6   8   36.19    1.65   0
  -3  -7   5   23.21    1.41   0
  -3  -5   6    0.22    0.88   0
  -2  -6   7   89.72    2.23   0
  -2  -5   7   36.18    1.68   0
  -4  -5   3  102.72    2.11   0
  -1  -7   7   39.35    1.62   0
   0  -4   7   16.25    1.22   0
  -3  -7   4    7.23    1.28   0
  -3  -6   5   19.21    1.53   0
  -2  -4   6    5.85    1.17   0
  -1  -3   6  233.37    2.28   0
   0  -7   7    5.51    1.28   0
  -1  -6   7  268.75    3.21   0
   1  -5   7   61.63    1.87   0
  -2  -3   5   33.71    1.29   0
   0  -6   7    0.37    1.33   0
   0  -5   7  274.79    3.10   0
   0  -3   6   70.91    1.40   0
   1  -6   7   72.24    1.82   0
  -3  -7   3   84.90    1.98   0
  -2  -5   6  232.14    2.88   0
  -3  -6   4  121.77    2.37   0
  -3  -4   4   40.92    1.44   0
  -3  -3   3    0.85    0.82   0
  -2  -7   5  186.02    2.82   0
  -1  -7   6  103.52    2.26   0
  -3  -5   4  128.71    2.27   0
  -1  -4   6  561.25    3.85   0
  -2  -6   5  113.64    2.38   0
  -2  -4   5   93.46    1.86   0
   0  -7   6    4.95    0.94   0
   1  -7   6   93.15    2.04   0
  -3  -6   3  143.49    2.32   0
  -2  -7   4   58.15    1.85   0
  -1  -5   6   80.42    1.80   0
  -1  -3   5    3.99    0.90   0
   0  -4   6  212.04    2.38   0
   1  -4   6   94.75    1.66   0
  -3  -4   3  277.30    2.65   0
  -3  -3   2  486.13    3.01   0
  -2  -5   5   21.70    1.22   0
  -2  -3   4  196.50    2.10   0
  -1  -7   5    0.19    1.28   0
  -3  -5   3    0.99    0.84   0
   0  -6   6   29.08    1.59   0
  -3  -6   2    3.47    1.26   0
   0  -5   6  135.63    2.13   0
   1  -5   6   11.35    1.19   0
  -3  -6   1   31.86    1.52   0
  -3  -5   2   55.22    1.69   0
  -3  -4   2    1.27    0.93   0
  -2  -4   4    1.13    0.91   0
  -1  -6   5    7.72    1.42   0
  -1  -4   5  295.97    2.72   0
  -2  -5   4   36.63    1.48   0
  -1  -7   4  137.55    2.51   0
   1  -7   5   33.60    1.36   0
  -2  -7   2    8.48    1.33   0
  -1  -5   5    3.92    0.91   0
  -3  -5   1  133.54    2.15   0
  -3  -4   1   84.74    1.56   0
   0  -4   5   85.77    1.60   0
  -2  -7   1   63.44    1.85   0
   0  -7   4   26.45    1.54   0
   1  -6   5    1.69    1.20   0
   1  -4   5   98.75    1.60   0
  -1  -7   3  166.72    2.71   0
  -1  -6   4    0.25    1.32   0
   2  -7   4  163.71    2.46   0
  -2  -7   0    8.09    1.23   0
   1  -7   4  272.72    3.22   0
   1  -5   5  229.66    2.63   0
  -2  -6   2   15.91    1.47   0
  -1  -5   4   34.10    1.45   0
  -1  -7   2    2.38    0.90   0
   0  -7   3    0.88    1.21   0
   0  -6   4    2.41    1.20   0
  -2  -6   1    1.29    1.28   0
  -2  -5   2   32.52    1.38   0
  -1  -6   3  197.75    2.78   0
  -2  -4   2   63.80    1.40   0
   2  -7   3    3.29    1.27   0
   0  -5   4  145.54    2.13   0
  -2  -6   0    4.62    1.22   0
  -1  -7   0   41.06    1.56   0
  -1  -4   3  302.11    2.53   0
   0  -7   2   37.85    1.44   0
   1  -5   4   21.69    1.14   0
   2  -5   4    5.70    0.78   0
  -2  -6  -1   13.00    1.25   0
  -2  -5   1   25.15    1.21   0
  -1  -6   2   22.10    1.20   0
   0  -6   3    0.40    1.22   0
   1  -4   4  151.61    1.80   0
  -1  -7  -1   17.00    1.33   0
  -2  -4   1   56.01    1.27   0
  -1  -7  -2   16.67    1.30   0
   0  -7   1  115.32    2.27   0
   2  -7   2   10.08    1.29   0
   1  -6   3   49.75    1.51   0
   2  -6   3  123.46    2.14   0
  -1  -6   1  213.54    2.74   0
  -1  -5   2  357.71    3.04   0
   0  -5   3    7.39    1.03   0
   3  -7   1   13.69    1.20   0
   0  -7   0   11.28    1.25   0
   0  -6   2   -0.11    1.16   0
  -2  -5  -1    0.89    0.94   0
  -1  -4   2   41.63    1.16   0
   0  -4   3  546.18    3.16   0
   1  -7   1   12.60    1.06   0
   2  -7   1   41.94    1.50   0
  -2  -4   0   16.68    0.86   0
   1  -5   3    7.20    1.01   0
   2  -5   3   35.41    1.33   0
   3  -6   2    6.05    1.11   0
  -2  -5  -2  152.53    2.09   0
   1  -6   2    7.74    1.29   0
  -1  -5   1   92.31    1.70   0
   1  -7   0   79.06    1.94   0
   1  -4   3   96.31    1.44   0
   2  -6   2    0.17    1.16   0
   3  -7   0  231.46    2.69   0
  -1  -6  -1   51.05    1.62   0
   0  -7  -3    7.06    1.09   0
   0  -6   1   45.53    1.62   0
   0  -5   2  259.03    2.57   0
   2  -4   3   89.92    1.41   0
  -2  -4  -1    1.24    0.72   0
  -1  -6  -3   10.72    1.21   0
  -1  -6  -2  278.43    2.89   0
  -1  -4   1  117.63    1.62   0
   1  -6   1  558.54    4.15   0
   3  -6   1  237.86    2.77   0
   0  -4   2  147.70    1.75   0
   1  -7  -3  193.85    2.59   0
   1  -7  -2   51.72    1.49   0
   2  -6   1    1.81    1.14   0
   2  -5   2  142.01    2.03   0
  -3   2  -5   89.63    1.67   0
  -2   3  -5  155.90    2.32   0
  -5   5  -4    0.35    1.52   0
  -4   3  -5   82.62    2.31   0
  -2   6  -3  116.78    2.68   0
  -1   4  -4  146.64    2.27   0
  -3   4  -5   10.64    1.30   0
  -2   5  -4    4.90    1.49   0
  -1   5  -3    5.05    1.33   0
  -4   5  -4    2.38    1.66   0
  -5   4  -4   30.10    1.93   0
  -3   5  -4   29.97    1.66   0
  -2   6  -2   -0.12    1.69   0
  -6   4  -3    0.85    1.54   0
  -5   5  -3    7.98    1.59   0
  -2   4  -4  163.63    2.45   0
  -4   2  -4    0.44    1.22   0
  -4   4  -4  107.18    2.66   0
  -4   6  -2   43.96    2.15   0
  -3   6  -2    6.34    1.64   0
  -2   3  -4   26.90    1.35   0
  -1   5  -2  209.39    2.76   0
  -3   4  -4   21.35    1.75   0
  -2   6  -1    3.37    1.50   0
  -4   3  -4   34.55    1.76   0
  -4   5  -3   69.62    2.54   0
  -3   2  -4  100.72    1.73   0
  -3   3  -4    1.61    0.99   0
  -3   5  -3    1.97    1.16   0
  -6   4  -2   88.17    2.52   0
  -3   6  -1  234.13    3.59   0
  -2   6   0   -0.19    1.42   0
  -5   2  -3    1.48    1.41   0
  -5   5  -2    6.74    1.36   0
  -1   5  -1    2.91    1.09   0
  -5   3  -3  243.63    3.48   0
  -2   4  -3   95.71    1.88   0
  -2   5  -2  140.57    2.42   0
  -6   3  -2   15.42    1.71   0
  -4   4  -3    0.52    1.61   0
  -4   6   0   10.34    1.62   0
  -3   6   0    5.86    1.64   0
  -1   4  -2  260.03    2.65   0
  -6   5   0    1.36    1.43   0
  -3   4  -3   14.57    1.55   0
  -3   5  -2   28.52    1.82   0
  -5   5  -1   85.59    2.57   0
  -7   3   0   45.36    1.95   0
  -6   4  -1    1.30    1.46   0
  -5   4  -2  124.84    2.90   0
  -4   2  -3   19.83    1.30   0
  -4   3  -3  111.86    2.39   0
  -4   6   1    7.34    1.69   0
  -3   6   1   73.70    2.25   0
  -3   3  -3  246.38    2.89   0
  -2   5  -1    1.71    1.32   0
  -4   6   2   21.89    1.78   0
  -3   2  -3    1.60    1.00   0
  -6   3  -1  206.91    3.29   0
  -5   3  -2  129.43    2.68   0
  -4   4  -2   36.79    2.00   0
  -2   4  -2   20.14    1.15   0
  -3   4  -2  312.04    3.52   0
  -1   4  -1    8.64    0.87   0
  -6   2  -1    2.15    1.50   0
  -5   2  -2   34.67    1.70   0
  -2   5   0  267.52    3.20   0
  -5   4  -1   36.88    1.74   0
  -5   5   1   26.95    1.89   0
  -3   5   0    3.54    1.51   0
  -2   3  -2   66.19    1.61   0
  -6   4   1    7.89    1.69   0
  -4   1  -2  597.85    3.71   0
  -4   4  -1   93.30    2.41   0
  -3   3  -2   64.35    1.78   0
  -7   3   2    6.56    1.59   0
  -6   3   0   -0.59    1.27   0
  -5   3  -1   52.85    2.10   0
  -5   5   2   97.47    2.66   0
  -2   5   1   13.57    1.40   0
  -1   4   0   71.09    1.59   0
  -3   4  -1    3.16    1.27   0
  -3   5   1   90.72    2.40   0
  -7   2   2  132.66    2.63   0
  -5   2  -1   25.09    1.60   0
  -2   5   2    1.18    1.32   0
  -5   5   4   54.09    2.05   0
  -4   5   2    2.99    1.65   0
  -6   3   1   37.07    2.03   0
  -4   3  -1  235.39    3.03   0
  -3   5   2  167.22    2.95   0
  -6   4   3   30.36    1.93   0
  -4   5   3   12.14    1.76   0
  -2   4   0    3.48    0.81   0
  -1   4   1  418.89    3.10   0
  -3   4   0    0.10    0.98   0
  -3   5   3   43.61    1.96   0
  -7   2   3    8.28    1.58   0
  -6   4   4   41.06    1.89   0
  -4   5   4   21.47    1.74   0
  -4   5   5    2.16    1.46   0
  -6   2   1   17.40    1.69   0
  -5   4   2   28.07    2.02   0
  -4   2  -1   12.63    1.21   0
  -3   5   4   35.83    1.84   0
  -4   1  -1  362.85    2.97   0
  -5   2   0  197.20    2.89   0
  -5   3   1   11.23    1.69   0
  -5   4   3   19.84    1.84   0
  -6   3   3   33.60    2.12   0
  -5   1   0   96.29    1.95   0
  -6   2   2   92.62    2.50   0
  -4   4   2   21.86    1.85   0
  -5   4   4   23.82    1.50   0
  -3   3   0    0.92    0.88   0
  -6   3   4  170.10    3.16   0
  -5   4   5   18.58    1.90   0
  -3   4   2   18.53    1.53   0
  -6   1   2    1.12    1.46   0
  -5   2   1   70.46    2.12   0
  -5   3   2   91.16    2.48   0
  -5   4   6   17.50    1.46   0
  -4   4   3   66.25    2.34   0
  -6   3   5  194.16    3.32   0
  -6   2   3   -0.91    1.49   0
  -6   3   6    7.03    1.43   0
  -3   4   3  262.75    3.32   0
  -2   4   3  304.93    3.20   0
  -5   1   1   81.54    1.94   0
  -5   3   3  189.60    3.08   0
  -4   1   0   57.23    1.49   0
  -4   4   5  216.23    3.39   0
  -4   4   7   -0.82    1.46   0
  -3   3   1  205.80    2.62   0
  -3   4   4    3.74    1.47   0
  -6   1   3   73.79    2.36   0
  -4   3   2   57.61    1.74   0
  -5   3   4   -0.36    1.27   0
  -4   2   1   16.92    1.37   0
  -3   4   5   40.09    1.91   0
  -3   4   6    0.57    1.41   0
  -5   3   5    2.31    1.68   0
  -6   2   6   19.13    1.75   0
  -5   3   6   82.35    2.45   0
  -5   3   7   11.74    1.82   0
  -3   3   2   79.73    1.86   0
  -6   2   7   62.10    1.94   0
  -5   1   2    0.23    1.32   0
  -5   2   3   98.35    2.41   0
  -4   1   1  750.48    4.35   0
  -4   3   4   47.57    2.05   0
  -4   3   9   11.52    1.63   0
  -6   0   4    5.54    1.51   0
  -6   1   5    0.53    1.61   0
  -5   2   4    2.43    1.57   0
  -4   2   2   61.54    1.60   0
  -3   3   3  141.69    2.40   0
  -4   3   5  168.70    3.03   0
  -4   3   8  106.23    2.71   0
  -6   1   6   -0.55    1.55   0
  -4   3   7   26.55    1.92   0
  -6   1   8    0.52    1.51   0
  -5   1   3  114.20    2.36   0
  -5   2   5   81.17    2.51   0
  -3   3   9   -0.14    1.74   0
  -2   3   3   53.29    1.55   0
  -6   0   5   11.23    1.61   0
  -5   2   9   62.56    2.25   0
  -5   2   6   46.70    2.26   0
  -5   2   7   42.73    2.20   0
  -4   2   3  236.54    2.89   0
  -3   3   8   -0.18    1.54   0
  -3   2   2  134.87    2.14   0
  -3   3   5    1.39    1.08   0
  -2   3   4   48.28    1.53   0
  -6   0   6  284.51    3.66   0
  -5   0   3    3.04    1.28   0
  -5   1   4   14.86    1.66   0
  -4   1   2  129.23    2.14   0
  -3   3   6   74.32    2.24   0
  -3   3   7   21.45    1.76   0
  -6   0   7    0.26    1.70   0
  -6   0   9   15.24    1.55   0
  -4   2   4  187.06    2.94   0
  -4   2  10    9.80    1.57   0
  -6   0   8   12.74    1.67   0
  -2   3   5  178.72    2.47   0
  -2   3   6    8.52    1.38   0
  -2   3   7    8.15    1.43   0
  -5   1  10    6.48    1.45   0
  -6  -1   7   23.48    1.83   0
  -4   2   5  183.47    3.15   0
  -4   2   9   79.27    2.59   0
  -3   2   3   79.99    1.91   0
  -6  -1   8  101.03    2.69   0
  -6  -1   9   83.38    2.48   0
  -5   0   4  140.04    2.67   0
  -5   1   6    0.03    1.67   0
  -5   1   9   12.08    1.84   0
  -4   2   6    2.79    1.65   0
  -5   1   8    1.97    1.82   0
  -4   2   7  252.46    3.85   0
  -3   2  10   21.65    1.87   0
  -7   1   6   16.73    1.24   0
  -6   1   1   32.51    1.54   0
  -7   0   2    2.56    1.11   0
  -5   2   2  219.56    2.72   0
  -4   1  -1  380.97    2.64   0
  -5   1   0  104.72    1.84   0
  -5   2   3   97.37    2.07   0
  -5   2   6   46.06    1.53   0
  -7   0   3    6.92    1.26   0
  -6   1   2    0.07    1.30   0
  -6   1   8    1.02    1.09   0
  -5   2   4    3.38    1.25   0
  -5   2   5   82.39    1.82   0
  -5   1   9   11.72    1.32   0
  -4   2   2   62.34    1.57   0
  -7   0   4   74.66    1.98   0
  -4   2   6    2.81    0.89   0
  -3   2   2  140.75    1.80   0
  -7   0   6    0.99    1.12   0
  -4   2   4  184.65    2.45   0
  -4   2   5  177.19    2.48   0
  -6   1   5    1.65    1.33   0
  -6   1   6    0.52    0.93   0
  -3   2   5   46.07    1.33   0
  -5   1   8    2.06    1.21   0
  -3   2   4  200.04    2.18   0
  -7  -1   3   -0.35    1.21   0
  -6   0   9   15.72    1.39   0
  -5   0   0    4.13    0.96   0
  -5   1   2   -0.87    1.07   0
  -7  -1   4  199.62    2.85   0
  -6   0   2   50.50    1.85   0
  -5   0  10  111.52    2.18   0
  -5   1   7   33.44    1.67   0
  -7  -1   5   17.34    1.41   0
  -4   1   8  123.61    2.23   0
  -7  -1   6   75.01    2.04   0
  -5   1   6   -0.42    1.47   0
  -6   0   7    1.27    1.20   0
  -5   1   4   15.28    1.41   0
  -5   1   5  333.80    3.54   0
  -7  -2   4   42.36    1.71   0
  -6   0   5   12.01    1.46   0
  -5   0   9   16.36    1.40   0
  -7  -2   5   20.94    1.39   0
  -4   1   6   37.49    1.50   0
  -3   1   7   86.05    1.66   0
  -5   0   8   38.41    1.64   0
  -6  -1   8  103.88    2.25   0
  -5   0   2   18.97    1.25   0
  -4   1   4  153.69    2.02   0
  -4   0   9  103.88    2.14   0
  -6  -1   4    5.85    1.38   0
  -6  -1   7   22.88    1.59   0
  -3   1   6   19.20    0.86   0
  -6  -1   5    6.74    1.28   0
  -5   0   3    4.06    0.79   0
  -3   1   5  521.40    3.28   0
  -5  -1   1   44.54    1.37   0
  -5   0   4  144.38    2.34   0
  -5   0   5   17.11    1.35   0
  -5   0   6    3.21    0.93   0
  -6  -2   3   -0.25    1.18   0
  -4   0   1  101.86    1.46   0
  -4   0   8  174.31    2.54   0
  -6  -2   8   26.54    1.53   0
  -4  -1  10    3.91    1.19   0
  -6  -2   4    6.32    1.34   0
  -6  -2   7   36.26    1.69   0
  -5  -2  10   38.22    1.60   0
  -5  -1   2   30.85    1.35   0
  -4   0   7   13.49    1.29   0
  -6  -2   5  155.63    2.67   0
  -6  -3   8   22.05    1.38   0
  -4  -2  11    4.18    1.28   0
  -3   0   8   26.48    1.20   0
  -6  -3   4  153.66    2.51   0
  -5  -1   3   14.92    1.21   0
  -5  -1   7  226.54    3.03   0
  -4   0   3  168.18    2.07   0
  -6  -3   7    1.74    1.30   0
  -5  -1   6   19.56    1.45   0
  -4  -1   9  252.50    3.08   0
  -4   0   5   36.64    1.32   0
  -6  -3   6    1.63    1.24   0
  -5  -1   4  327.22    3.21   0
  -5  -1   5   36.46    1.58   0
  -6  -4   5   15.48    1.42   0
  -6  -4   6   30.49    1.48   0
  -6  -4   7   27.53    1.48   0
  -3   0   7  130.68    1.93   0
  -5  -2   2   15.57    1.19   0
  -5  -2   8    0.88    1.28   0
  -4  -2  10  224.56    2.98   0
  -4  -3  11   37.34    1.53   0
  -3   0   6   17.82    0.99   0
  -5  -2   3   27.63    1.44   0
  -5  -2   7  190.44    2.90   0
  -3  -1   9   29.17    1.40   0
  -2   0   7    7.42    0.81   0
  -5  -2   4    0.81    0.87   0
  -5  -2   5  121.14    2.26   0
  -5  -2   6   89.87    1.95   0
  -5  -4   9   90.05    2.04   0
  -4  -2   9    0.27    1.15   0
  -4  -1   6   28.82    1.35   0
  -4  -1   3  325.33    2.77   0
  -3  -2  10   66.14    1.80   0
  -5  -3   3  266.95    2.86   0
  -5  -3   7   25.10    1.53   0
  -4  -3  10  241.36    2.98   0
  -4  -1   4   47.16    1.39   0
  -4  -1   5  187.75    2.25   0
  -5  -4   8   28.55    1.60   0
  -4  -2   1   62.84    1.30   0
  -3  -3  11   19.33    1.42   0
  -5  -3   6   96.20    2.02   0
  -5  -4   7   36.90    1.67   0
  -5  -5   5   85.95    2.00   0
  -5  -4   5  225.56    3.04   0
  -3  -1   7  504.41    3.60   0
  -3  -2   9   13.03    1.27   0
  -4  -2   2    3.78    0.71   0
  -3  -4  11   27.51    1.47   0
  -2  -1   8   19.86    1.01   0
  -4  -2   6   -0.72    1.09   0
  -3  -3  10    6.42    1.22   0
  -4  -4   9   23.98    1.47   0
  -4  -3   8   35.39    1.66   0
  -4  -2   3    5.56    0.98   0
  -4  -2   5  262.09    2.81   0
  -4  -5   9   19.22    1.36   0
  -4  -2   4   53.52    1.31   0
  -3  -2   8   32.03    1.44   0
  -3  -1   5   45.09    1.09   0
  -4  -4   8   47.45    1.79   0
  -4  -3   2   19.81    1.09   0
  -4  -3   7  157.62    2.58   0
  -3  -4  10   44.83    1.73   0
  -2  -4  11    6.40    1.28   0
  -2  -2   9   11.86    1.19   0
  -2  -1   7   29.39    0.92   0
  -4  -6   7    0.08    1.09   0
  -4  -5   8  117.41    2.22   0
  -4  -3   6   44.44    1.63   0
  -3  -3   9  134.42    2.22   0
  -4  -3   4  114.09    2.02   0
  -4  -3   5   28.02    1.38   0
  -2  -3  10   44.32    1.60   0
  -4  -6   6   20.18    1.22   0
  -4  -5   3  102.10    2.04   0
  -4  -4   3  111.26    2.05   0
  -2  -1   6    6.86    0.87   0
  -4  -5   4    2.18    1.25   0
  -4  -5   5    0.02    1.31   0
  -4  -4   4   30.94    1.40   0
  -3  -2   6  121.66    1.88   0
  -3  -6   9   74.95    1.84   0
  -2  -2   8  313.17    2.84   0
  -3  -5   9   10.63    1.22   0
  -2  -4  10  102.34    2.13   0
  -3  -2   5   31.47    1.18   0
  -2  -3   9   74.89    1.77   0
  -3  -6   8    2.58    1.13   0
  -3  -4   8  112.61    2.27   0
  -3  -3   7   26.58    1.35   0
  -3  -2   4   82.66    1.48   0
  -2  -5  10    5.72    1.31   0
  -3  -2   3  358.78    2.50   0
  -2  -2   7   98.58    1.53   0
  -3  -4   7    2.15    1.17   0
  -2  -4   9  100.79    2.07   0
  -1  -4  10  136.52    2.27   0
  -3  -5   7   20.61    1.47   0
  -3  -3   5  125.93    1.91   0
  -2  -6   9  110.49    2.26   0
  -1  -2   8    3.98    0.73   0
  -3  -3   2  511.12    3.03   0
  -1  -3   9  102.05    1.84   0
  -3  -4   6    1.65    0.83   0
  -3   5  -5  305.14    3.94   0
  -2   7  -2    9.43    1.41   0
  -1   6  -3   40.42    1.88   0
  -4   3  -5   78.71    2.15   0
  -4   4  -5    5.38    1.64   0
  -4   6  -4   -0.03    1.16   0
  -3   6  -4    8.07    1.65   0
  -2   3  -5  150.51    2.27   0
  -1   5  -4   21.35    1.56   0
  -5   5  -4    1.28    1.47   0
  -3   3  -5  122.60    2.39   0
  -3   7  -2    5.89    1.65   0
   0   4  -3  523.05    3.56   0
  -3   4  -5   11.75    1.25   0
  -1   4  -4  149.73    2.44   0
  -1   6  -2    6.47    1.56   0
  -6   4  -3   -0.38    1.63   0
  -5   3  -4   37.07    1.93   0
  -5   4  -4   29.77    1.63   0
  -3   7  -1   13.71    1.65   0
  -2   6  -3  118.39    2.73   0
  -1   3  -4   19.59    1.07   0
  -4   6  -3  278.21    4.05   0
  -4   2  -4    1.13    1.24   0
  -3   5  -4   31.09    2.09   0
  -3   6  -3   50.35    2.38   0
  -1   5  -3    6.31    1.37   0
  -3   7   0  219.98    3.39   0
  -4   3  -4   31.53    1.95   0
  -3   2  -4   98.29    1.95   0
  -2   4  -4  166.71    2.75   0
  -3   4  -4   22.18    1.83   0
  -2   3  -4   27.19    1.20   0
  -2   6  -2    0.56    1.27   0
  -6   4  -2   87.71    2.60   0
  -4   6  -2   42.67    1.90   0
  -2   5  -3   37.91    2.00   0
  -4   5  -3   70.13    2.60   0
  -5   3  -3  241.66    3.62   0
  -3   5  -3    0.73    1.74   0
  -1   5  -2  217.14    2.82   0
  -5   5  -2    7.27    1.79   0
  -2   6  -1    1.60    1.57   0
  -4   6  -1   65.06    2.44   0
  -4   4  -3    0.26    1.59   0
  -3   6  -1  238.19    3.82   0
  -2   4  -3   94.89    2.14   0
  -4   2  -3   18.03    1.41   0
  -4   5  -2   24.80    2.12   0
  -3   4  -3   13.88    1.63   0
  -6   4  -1    0.18    1.60   0
  -5   4  -2  123.80    2.95   0
  -4   3  -3  108.33    2.42   0
  -2   6   0   -0.34    1.53   0
  -1   5  -1    2.21    1.37   0
  -5   5  -1   88.23    2.65   0
  -3   2  -3    1.54    1.11   0
  -2   3  -3   17.23    1.30   0
  -1   4  -2  261.67    2.78   0
  -6   3  -1  198.33    3.29   0
  -3   3  -3  243.51    2.98   0
  -5   2  -2   33.57    1.68   0
  -5   3  -2  126.11    2.71   0
  -2   6   1   39.09    1.95   0
  -4   6   1    6.68    1.70   0
  -6   4   0  144.16    3.03   0
  -4   4  -2   36.73    1.71   0
  -4   5  -1    8.68    1.88   0
  -3   6   1   73.36    2.37   0
  -5   5   0   13.74    1.44   0
  -4   6   2   22.31    1.87   0
  -3   4  -2  305.84    3.54   0
  -3   5  -1   35.68    1.91   0
  -2   4  -2   18.03    1.13   0
  -4   3  -2    0.47    1.32   0
  -4   6   3  176.22    3.08   0
  -1   4  -1    9.04    1.16   0
  -6   3   0    0.18    1.76   0
  -4   2  -2  223.14    2.64   0
  -4   5   0  154.71    3.17   0
  -6   4   1    6.34    1.64   0
  -5   3  -1   51.09    2.06   0
  -5   5   1   27.45    1.62   0
  -3   3  -2   64.77    1.73   0
  -2   3  -2   66.11    1.68   0
  -2   5   0  266.23    3.32   0
  -4   4  -1   90.04    2.42   0
  -5   4   0   94.55    2.57   0
  -5   5   2   95.64    2.65   0
  -3   4  -1    1.29    1.36   0
  -2   4  -1   81.38    1.76   0
  -4   5   1   62.07    2.09   0
  -2   5   1   15.13    1.52   0
  -6   3   1   35.95    1.98   0
  -5   5   3    1.49    1.45   0
  -3   5   1   89.61    2.54   0
  -1   4   0   70.64    1.58   0
  -5   3   0    9.74    1.59   0
  -5   4   1   75.01    2.49   0
  -5   5   4   55.19    2.10   0
  -4   4   0  128.77    2.74   0
  -4   5   2    1.48    1.60   0
  -2   5   2    0.96    1.42   0
  -4   2  -1   11.60    0.95   0
  -3   3  -1   22.84    1.34   0
  -3   4   0    2.14    1.32   0
  -3   5   2  171.49    2.99   0
  -6   3   2   61.78    2.33   0
  -6   4   4   38.37    2.00   0
  -5   2   0  186.42    2.80   0
  -5   4   2   27.64    1.97   0
  -2   5   3   10.92    1.66   0
  -4   4   1    0.85    1.58   0
  -4   5   4   22.49    1.54   0
  -3   5   3   44.45    2.10   0
  -1   4   1  418.78    3.27   0
  -4   3   0    1.00    1.25   0
  -4   5   5    3.47    1.20   0
  -4   5   6  111.17    2.59   0
  -2   5   4    2.20    1.27   0
  -6   2   2   88.11    2.41   0
  -6   3   3   32.59    1.98   0
  -5   4   3   19.50    1.92   0
  -3   5   4   35.02    1.93   0
  -3   5   5    7.14    1.58   0
  -4   4   2   23.55    1.90   0
  -5   2   1   71.15    2.05   0
  -5   4   4   23.03    1.98   0
  -4   2   0   32.09    1.42   0
  -3   3   0    1.48    0.80   0
  -1   4   2   18.42    1.17   0
  -5   3   2   90.77    2.58   0
  -6   2   3    0.79    1.54   0
  -6   3   5  195.09    3.39   0
  -5   4   5   18.02    1.52   0
  -5   4   6   19.34    1.76   0
  -4   3   1  262.52    3.33   0
  -5   1   1   80.21    1.87   0
  -4   4   3   64.70    2.06   0
  -2   4   2   37.61    1.56   0
  -6   3   6    7.42    1.67   0
  -6   1   3   73.54    2.22   0
  -5   3   3  192.53    3.28   0
  -1   4   3  114.06    1.97   0
  -6   2   4  141.77    3.03   0
  -4   4   8   10.53    1.63   0
  -3   3   1  211.60    2.74   0
  -5   2   2  221.62    3.00   0
  -4   3   2   58.01    2.03   0
  -2   4   3  317.73    3.44   0
  -5   3   4    0.51    1.65   0
  -6   2   5    4.45    1.55   0
  -3   4   4    3.58    1.56   0
  -3   4   8    8.17    1.53   0
  -6   1   4  113.93    2.55   0
  -2   4   4    1.50    1.22   0
  -6   2   6   18.86    1.85   0
  -5   3   5    3.18    1.33   0
  -3   4   6    0.55    1.59   0
  -5   2   3   98.95    2.49   0
  -5   3   6   82.67    2.63   0
  -5   3   7   11.67    1.79   0
  -5   3   8    6.93    1.60   0
  -4   3   3  238.41    3.37   0
  -3   3   2   81.61    2.03   0
  -2   4   5  140.54    2.62   0
  -2   4   6   72.16    2.20   0
  -4   1   1  752.20    4.30   0
  -6   1   5    1.90    1.65   0
  -4   2   2   63.32    1.92   0
  -4   3   4   50.11    2.13   0
  -6   1   6    1.03    1.55   0
  -5   1   3  114.86    2.40   0
  -4   3   5  172.96    3.20   0
  -4   3   9   10.58    1.67   0
  -6   1   7   79.05    2.47   0
  -6   1   8   -0.04    1.48   0
  -3   3  10   42.27    1.95   0
  -5   2   5   83.21    2.26   0
  -4   3   7   28.51    2.03   0
  -5   2   6   47.49    2.28   0
  -5   2   9   62.79    2.31   0
  -4   2   3  238.39    3.06   0
  -3   3   4   39.99    1.73   0
  -5   0   3    2.88    1.20   0
  -5   2   7   40.50    2.21   0
  -5   2   8   90.58    2.71   0
  -4   1   2  127.89    2.10   0
  -3   3   9    1.50    1.78   0
  -5   1   4   14.63    1.60   0
  -6   0   7    0.19    1.54   0
  -6   0   8   12.19    1.67   0
  -6   0   9   15.60    1.81   0
  -3   3   6   73.66    2.33   0
  -3   3   7   20.41    1.82   0
  -2   3   4   47.68    1.43   0
  -1   3   4  186.34    2.31   0
  -5   1   5  327.87    4.06   0
  -5   1  10    7.60    1.49   0
  -2   3   5  184.53    2.77   0
  -2   3   8  139.11    2.84   0
  -5   1  -7    0.88    1.09   0
  -5   3  -5  107.71    2.12   0
  -4   3  -5   88.89    1.86   0
  -6   3  -4  142.50    2.27   0
  -4   1  -7   60.80    1.68   0
  -3   0  -7  463.92    3.31   0
  -3   2  -6  586.09    3.81   0
  -2   1  -6   90.22    1.45   0
  -2   2  -5  348.56    2.56   0
  -5   0  -7  157.74    2.39   0
  -5   2  -6   16.31    1.30   0
  -6   1  -6   56.94    1.70   0
  -4   0  -7    3.00    1.09   0
  -4   2  -6    3.91    1.19   0
  -6   2  -5  120.16    2.22   0
  -6   3  -3   34.61    1.51   0
  -3   3  -3  255.58    2.28   0
  -2   0  -6   75.99    1.21   0
  -6   3  -2   15.54    1.35   0
  -5   3  -3  254.95    2.83   0
  -3   2  -5   95.42    1.54   0
  -4   2  -5  344.60    3.15   0
  -4   3  -3  117.09    1.88   0
  -7   1  -4  129.71    2.17   0
  -6   2  -4    0.36    1.13   0
  -6   3  -1  202.19    2.53   0
  -3   3  -1   21.65    0.82   0
  -5  -1  -6   21.34    1.24   0
  -5   0  -6    3.15    1.20   0
  -5   3  -2  129.90    2.08   0
  -3   0  -6    1.33    0.80   0
  -7   2  -2    3.82    1.08   0
  -4   0  -6    5.86    1.09   0
  -4   3  -2    0.62    0.85   0
  -4  -1  -6   83.55    1.69   0
  -6   0  -5   84.84    1.92   0
  -5   1  -5    9.22    1.25   0
  -5   2  -4  268.54    2.84   0
  -5   3  -1   52.27    1.29   0
  -4   3  -1  234.66    2.21   0
  -7   1  -3    7.97    1.08   0
  -7   2  -1    1.91    1.01   0
  -6  -1  -5    3.10    1.10   0
  -4   2  -4    0.85    0.70   0
  -6   1  -4    1.45    1.16   0
  -7   2   0   82.14    1.78   0
  -6   2  -2    0.07    1.09   0
  -5   2  -3    1.75    0.98   0
  -3   2  -3    1.83    0.80   0
  -7   0  -3    2.79    0.96   0
  -7   1  -2   25.00    1.37   0
  -6   0  -4   17.31    1.26   0
  -5  -1  -5   10.59    0.89   0
  -4   0  -5    6.42    0.99   0
  -7  -1  -3   23.18    1.26   0
  -6  -2  -4   81.67    1.69   0
  -6  -1  -4  263.74    2.84   0
  -6   2  -1    0.64    0.85   0
  -4  -1  -5   10.01    1.00   0
  -4   1  -4    3.58    0.89   0
  -3  -1  -5    8.71    0.73   0
  -7   0  -2    7.96    1.06   0
  -6   2   0  143.29    2.10   0
  -5   0  -4   71.46    1.62   0
  -6   1  -2  328.24    3.11   0
  -6   2   1   16.61    1.06   0
  -5   2  -1   25.45    1.10   0
  -5  -2  -4    1.05    0.91   0
  -5  -1  -4   21.65    1.18   0
  -4   1  -3    3.11    0.72   0
  -4   2  -1   12.89    0.74   0
  -3   1  -3  187.75    1.69   0
  -7   0  -1   80.51    1.68   0
  -6  -2  -3   12.48    1.10   0
  -5   2   0  185.44    2.00   0
  -5   1  -2   25.20    1.07   0
  -4  -2  -4   14.42    0.87   0
  -7  -1  -1    7.79    0.94   0
  -6   0  -2   22.64    1.21   0
  -5   0  -3   10.92    0.81   0
  -4   2   0   29.90    0.85   0
  -3  -1  -4  442.00    2.46   0
  -7   0   0   17.01    1.10   0
  -6  -3  -2  110.89    1.72   0
  -4   1  -2  606.37    3.06   0
  -6  -1  -2    2.62    0.90   0
  -5  -1  -3   13.25    0.99   0
  -4   0  -3  386.92    2.55   0
  -4   2   1   14.46    0.67   0
  -6  -2  -2   17.02    1.10   0
  -5  -2  -3   13.91    0.98   0
  -3   0  -3   64.68    1.06   0
  -7  -2   0   90.78    1.56   0
  -7   0   2    1.86    0.77   0
  -4  -1  -3    0.12    0.65   0
  -6   1   2    0.58    0.80   0
  -4   1  -1  349.55    2.23   0
  -7  -1   1    8.15    0.90   0
  -6  -3  -1    6.80    0.88   0
  -6  -1  -1   25.76    1.15   0
  -4  -2  -3    0.20    0.68   0
  -5  -3  -2   22.95    1.03   0
  -5  -1  -2  364.12    2.75   0
  -4   0  -2  217.54    1.89   0
  -7  -2   1    1.16    0.81   0
  -5  -2  -2   10.99    0.99   0
  -5   0  -1   25.16    0.99   0
  -3  -2  -3  643.37    2.80   0
  -4   1   0   53.24    1.02   0
  -7  -2   2   -0.47    0.83   0
  -5   1   2    0.90    0.62   0
  -6  -3   0    0.82    0.86   0
  -6  -2   0   46.30    1.35   0
  -5  -1  -1    0.57    0.80   0
  -5   0   0    4.65    0.75   0
  -4  -3  -2   64.58    1.23   0
  -4   0  -1   16.45    0.81   0
  -6  -1   1    3.22    0.96   0
  -5  -3  -1    1.54    0.81   0
  -4  -2  -2    1.84    0.68   0
  -4   1   1  708.25    3.04   0
  -5  -2  -1  222.89    2.24   0
  -6  -2   1    0.22    0.93   0
  -7  -3   4    5.41    0.89   0
  -6  -1   2  407.72    3.31   0
  -6   0   5   10.43    0.96   0
  -5  -4   0   29.34    1.23   0
  -5  -1   0   76.08    1.48   0
  -4   1   2  122.25    1.37   0
  -4  -1  -1   33.34    0.99   0
  -4   0   0   36.71    0.87   0
  -5  -2   0   62.26    1.47   0
  -6  -3   2   61.39    1.60   0
  -6  -2   2   16.39    0.99   0
  -5   0   2   17.56    0.82   0
  -4  -3  -1   83.27    1.53   0
  -4   1   3  146.44    1.52   0
  -6  -1   4    6.21    1.06   0
  -5  -1   1   44.71    1.16   0
  -6  -2   3   -0.42    1.07   0
  -5  -4   1   76.22    1.67   0
  -5   0   3    3.90    0.76   0
  -6  -3   3   31.74    1.39   0
  -6  -1   5    5.01    1.08   0
  -6  -1   6   18.42    1.20   0
  -6  -1   7   24.34    1.25   0
  -5  -5   2    5.47    1.02   0
  -4   0   1  103.80    1.38   0
  -5   0   4  143.71    1.90   0
  -4  -4   0  282.59    2.62   0
  -4  -1   0  181.02    1.82   0
  -6  -4   4   12.22    1.15   0
  -6  -2   4    6.22    1.07   0
  -5  -1   2   31.80    1.22   0
  -6  -3   4  157.37    2.43   0
  -5   0   5   15.85    1.03   0
  -4  -3   0   13.96    0.95   0
  -3  -3  -1    2.18    0.62   0
  -6  -4   5   14.96    1.16   0
  -6  -2   8   26.56    1.29   0
  -5  -4   2   28.60    1.37   0
  -6  -3   5   71.08    1.74   0
  -6  -2   6    8.14    0.87   0
  -5  -5   3   43.66    1.32   0
  -5  -2   2   15.63    1.12   0
  -5  -1   3   14.05    1.06   0
  -6  -4   6   32.25    1.32   0
  -4  -1   1   48.95    1.16   0
  -6  -4   7   27.26    1.12   0
  -6  -3   6    2.24    0.75   0
  -4  -4   1  110.39    1.74   0
  -4   0   3  161.97    1.63   0
  -5  -2   3   26.98    1.12   0
  -7   2   3    9.61    0.95   0
  -7   2   4    6.79    1.17   0
  -4   3   3  230.12    2.54   0
  -6   1  -1    3.54    1.24   0
  -6   2   7   58.37    1.58   0
  -7   1   1    6.39    1.07   0
  -6   2   1   17.75    1.13   0
  -7   0   0   17.19    1.27   0
  -6   2   6   18.60    1.21   0
  -6   2   3    0.38    1.13   0
  -6   2   5    3.37    1.10   0
  -4   1  -2  663.67    3.27   0
  -6   1   0  326.91    3.13   0
  -6   2   4  142.77    2.36   0
  -6   0  -1    9.06    1.04   0
  -5   1  -1  253.27    2.49   0
  -7   1   4    6.58    1.09   0
  -5   2   6   45.74    1.52   0
  -6   1   8    0.44    0.92   0
  -5   2   2  224.62    2.59   0
  -5   2   3   99.45    1.88   0
  -4   2   1   17.94    0.99   0
  -4   2   6    4.03    0.95   0
  -7  -1   1    9.99    1.17   0
  -4   1  -1  398.88    2.61   0
  -4   2   2   62.15    1.37   0
  -6   0   0   63.32    1.62   0
  -6   1   2    0.57    1.12   0
  -6   1   7   71.88    1.73   0
  -5   1   0  104.63    1.64   0
  -7   0   4   74.69    1.79   0
  -7   0   6    0.43    1.03   0
  -6   1   3   78.30    1.91   0
  -6   1   6   -0.38    1.09   0
  -5   0  -1   26.91    1.10   0
  -5   1   8    1.35    1.04   0
  -3   2   3   72.09    1.14   0
  -3   2   4  182.22    1.75   0
  -7  -1   2   51.54    1.62   0
  -6   1   4  117.79    2.20   0
  -6   1   5    1.56    1.05   0
  -6   0   1   17.33    1.20   0
  -5   1   1   90.35    1.68   0
  -6  -1   0   94.71    1.79   0
  -7  -2   2    0.54    1.07   0
  -7  -1   3   -0.20    1.06   0
  -6   0   8   11.55    1.15   0
  -5   1   2    0.30    0.70   0
  -5   0   0    3.87    0.91   0
  -5   1   6   -0.17    1.03   0
  -5   1   3  120.65    1.87   0
  -5   1   4   13.60    1.20   0
  -4   0  -1   18.07    0.85   0
  -6   0   3  100.67    2.07   0
  -6   0   7    0.62    0.79   0
  -4   1   7  355.60    2.97   0
  -6   0   4    6.85    1.21   0
  -6   0   6  292.32    3.19   0
  -7  -2   4   42.02    1.53   0
  -6  -1   9   77.60    1.79   0
  -6   0   5   10.51    1.27   0
  -4   1   2  134.23    1.77   0
  -5   0   1  157.83    2.08   0
  -4   1   6   38.51    1.25   0
  -7  -2   6   23.63    1.26   0
  -6  -2   1    0.77    1.03   0
  -6  -1   2  430.21    3.60   0
  -4   1   5    0.09    0.82   0
  -5  -1   0   80.88    1.51   0
  -3   1   6   18.39    0.88   0
  -5   0   7   13.25    1.21   0
  -6  -1   7   23.98    1.40   0
  -3   1   5  506.98    2.92   0
  -6  -2   2   15.36    1.29   0
  -6  -2   9   22.01    1.26   0
  -6  -1   4    7.08    0.97   0
  -6  -1   5    6.13    1.21   0
  -6  -1   6   18.72    1.37   0
  -3   1   4    5.39    0.77   0
  -5  -1   9   58.35    1.67   0
  -5   0   4  140.97    2.15   0
  -5   0   5   16.32    1.23   0
  -5  -1   1   45.53    1.32   0
  -6  -2   3   -0.03    1.16   0
  -6  -2   8   25.70    1.35   0
  -6  -2   7   38.44    1.54   0
  -5  -2  10   36.81    1.43   0
  -5  -1   8   -0.57    1.13   0
  -4   0   7   12.05    1.08   0
  -6  -3   3   31.43    1.54   0
  -6  -2   5  157.87    2.48   0
  -6  -2   6    7.98    1.24   0
  -4   0   2  665.54    3.44   0
  -6  -3   8   23.58    1.25   0
  -4  -1   0  171.78    1.76   0
  -4   0   6   95.65    1.69   0
  -6  -3   4  153.27    2.41   0
  -5  -2   1  340.29    2.89   0
  -5  -1   3   15.11    1.09   0
  -4   0   3  165.75    1.92   0
  -6  -4   4   12.27    1.24   0
  -6  -3   7    2.13    1.17   0
  -5  -2   9   33.44    1.50   0
  -5  -1   6   20.53    1.29   0
  -6  -3   6    2.39    1.04   0
  -5  -1   4  322.36    2.96   0
  -5  -1   5   37.72    1.47   0
  -6  -4   5   14.25    1.30   0
  -6  -4   7   26.65    1.39   0
  -3   0   7  127.47    1.68   0
  -5  -2   2   15.41    1.11   0
  -4  -2  10  219.39    2.69   0
  -4  -1   1   48.83    1.03   0
  -4  -1   8   72.76    1.72   0
  -3   0   6   17.69    0.87   0
  -5  -2   7  187.90    2.68   0
  -5  -3   2  608.58    4.05   0
  -5  -2   4    0.22    1.02   0
  -4  -1   7    3.15    1.03   0
  -3   0   5    7.33    0.78   0
  -5  -2   5  120.56    2.17   0
  -5  -2   6   89.53    1.84   0
  -5  -4   9   89.66    1.97   0
  -5  -3   8  325.29    3.43   0
  -4  -2   9    0.83    1.04   0
  -5  -3   3  269.62    2.95   0
  -4  -1   3  325.72    2.63   0
  -5  -4   3  114.58    2.09   0
  -5  -3   7   23.71    1.47   0
  -4  -3  10  241.01    2.89   0
  -4  -1   4   48.03    1.31   0
  -4  -1   5  186.38    2.21   0
  -5  -4   8   28.93    1.44   0
  -5  -3   6   95.89    2.12   0
  -4  -2   1   63.48    1.18   0
  -3  -1   8    0.33    0.85   0
  -5  -5   4   62.32    1.74   0
  -5  -3   5   90.34    1.82   0
  -4  -2   8    6.04    1.15   0
  -5  -5   5   84.68    1.90   0
  -5  -5   7    4.64    1.07   0
  -5  -4   4    1.01    1.19   0
  -5  -4   7   35.86    1.54   0
  -5  -5   6    0.02    0.84   0
  -4  -4  10   48.52    1.65   0
  -4  -3   1   12.59    0.95   0
  -4  -3   9    0.76    0.85   0
  -4  -2   2    4.42    0.66   0
  -3  -1   7  509.01    3.36   0
  -3  -2   9   14.09    1.16   0
  -4  -2   3    5.98    0.94   0
  -4  -2   6   -0.11    1.02   0
  -3  -4  11   28.93    1.39   0
  -4  -2   4   53.10    1.46   0
  -4  -2   5  266.03    2.73   0
  -3  -3  10    7.91    1.14   0
  -3  -1   6  172.22    1.96   0
  -4  -3   7  162.21    2.51   0
  -3  -2   8   32.92    1.34   0
  -4  -6   4    4.02    1.17   0
  -4  -5   8  124.71    2.30   0
  -4  -4   2   16.37    1.15   0
  -4  -6   5   81.85    1.99   0
  -4  -6   6   20.99    1.38   0
  -4  -3   6   45.39    1.40   0
  -3  -4  10   46.34    1.58   0
  -2  -1   7   29.57    0.97   0
  -4  -5   3  107.44    2.06   0
  -4  -4   7   42.52    1.75   0
  -3  -3   9  135.82    2.33   0
  -4  -5   7   23.13    1.26   0
  -3  -2   7    0.62    0.96   0
  -4  -5   5    1.80    1.20   0
  -4  -5   6  245.90    3.13   0
  -4  -4   4   32.85    1.46   0
  -4  -4   5    4.01    1.15   0
  -4  -4   6  216.85    2.76   0
  -3  -6   9   77.10    1.86   0
  -3  -4   9   29.39    1.58   0
  -3  -3   8  119.37    2.13   0
  -3  -2   6  128.05    1.89   0
  -1  -6   7  257.35    3.46   0
   2  -3   9    0.64    1.46   0
   0  -3   8    2.99    1.28   0
   0  -2   7    9.31    1.18   0
   1  -4   9   10.14    1.66   0
  -1  -5   7  107.15    2.45   0
  -1  -4   7  128.31    2.25   0
   0  -7   7    6.64    1.47   0
   0  -6   8   35.03    1.91   0
   1  -5   9    6.91    1.65   0
   3  -4   9   28.25    1.82   0
   0  -4   8   40.74    1.94   0
   3  -5   9   22.82    1.79   0
   2  -5   9   65.58    2.29   0
   1  -3   8    3.41    1.37   0
   3  -3   8   90.25    2.38   0
   4  -4   8   19.14    1.62   0
  -1  -5   6   79.37    2.10   0
  -1  -4   6  541.36    4.17   0
   0  -6   7    0.43    1.59   0
   0  -3   7  397.17    3.56   0
   0  -2   6  133.56    2.00   0
   2  -3   8    1.39    1.42   0
   1  -7   7   28.43    1.76   0
   1  -4   8  249.36    3.59   0
   1  -5   8   46.53    2.23   0
  -1  -3   5    3.55    0.79   0
   0  -4   7   17.20    1.60   0
   3  -4   8  383.39    4.37   0
   2  -5   8   16.21    1.85   0
  -1  -5   5    4.61    1.22   0
  -1  -4   5  288.70    2.95   0
   1  -3   7   13.77    1.40   0
   0  -6   6   29.06    1.86   0
   0  -3   6   72.84    1.82   0
   1  -7   6   94.54    2.47   0
   1  -5   7   60.70    2.33   0
   1  -4   7    7.27    1.59   0
   2  -3   7  135.19    2.58   0
   4  -5   7   23.21    1.85   0
   4  -4   7    7.91    1.68   0
   0  -5   6  138.35    2.72   0
   0  -4   6  212.92    2.89   0
   2  -6   7    7.06    1.33   0
   2  -2   6    0.97    1.13   0
   3  -2   6  511.95    3.98   0
  -1  -4   4  673.45    4.09   0
   0  -6   5  570.71    4.95   0
   2  -5   7    6.29    1.74   0
   2  -4   7   28.19    1.86   0
   3  -5   7   27.20    1.94   0
   3  -4   7    2.53    1.51   0
   1  -3   6    0.04    1.18   0
   4  -3   6   -0.38    1.39   0
   0  -3   5    5.03    0.83   0
   2  -7   5    8.46    1.54   0
   0  -5   5   37.28    1.73   0
   1  -7   4  275.63    3.68   0
   1  -5   6   12.67    1.70   0
   1  -4   6   95.04    2.26   0
   2  -6   6    2.74    1.22   0
   3  -6   6   21.64    1.99   0
   3  -3   6    0.22    1.38   0
   4  -5   6   10.02    1.61   0
   4  -4   6  156.62    2.97   0
   1  -6   5    1.31    1.57   0
   2  -5   6  315.02    4.03   0
   2  -4   6  158.65    2.83   0
   3  -5   6    2.46    1.63   0
   5  -5   5  101.45    2.45   0
   1  -7   3   23.63    1.75   0
   2  -7   4  164.77    3.05   0
   4  -6   5   25.42    1.87   0
   5  -4   5    1.19    1.58   0
   3  -2   5   82.42    1.74   0
   0  -5   4  142.39    2.29   0
   1  -3   5  187.79    2.46   0
   2  -6   5  141.72    2.74   0
   3  -6   5    2.26    1.60   0
   4  -3   5   79.62    2.13   0
   0  -4   4    6.67    1.07   0
   1  -6   4    1.26    1.26   0
   1  -4   5   98.37    1.88   0
   2  -5   5   79.96    2.36   0
   4  -4   5    5.58    1.65   0
   2  -3   5  152.92    2.35   0
   3  -5   5  330.11    4.08   0
   3  -3   5  118.87    2.22   0
   4  -6   4   -0.50    1.51   0
   5  -5   4    1.60    1.51   0
   0  -5   3    8.24    1.24   0
   2  -4   5   -0.36    1.30   0
   3  -6   4    7.73    1.72   0
   5  -4   4   30.36    1.80   0
   1  -6   3   53.22    2.00   0
   2  -7   2    9.92    1.69   0
   3  -7   2    4.26    1.41   0
   0  -4   3  535.35    3.53   0
   1  -4   4  146.69    2.25   0
   1  -3   4   17.70    1.27   0
   4  -5   4    2.09    1.68   0
   2  -7   1   42.82    2.02   0
   2  -5   4    4.93    1.50   0
   4  -6   3  281.40    3.83   0
   4  -3   4   30.76    1.51   0
   0  -5   2  251.93    2.69   0
   3  -5   4   30.10    1.59   0
   4  -4   4  104.54    2.36   0
   5  -5   3    9.03    1.15   0
   1  -6   2    7.45    1.53   0
   3  -7   1   14.23    1.58   0
   1  -5   3    6.06    1.31   0
   2  -7   0    1.45    1.42   0
   2  -3   4   24.88    1.28   0
   3  -4   4   22.25    1.51   0
   3  -3   4    1.47    1.13   0
   5  -4   3   20.14    1.63   0
   3  -7   0  236.68    3.27   0
   4  -5   3   68.42    2.27   0
   5  -6   1  141.67    2.68   0
   1  -6   1  533.00    4.40   0
   2  -6   2    0.89    1.45   0
   1  -4   3   95.50    1.86   0
   2  -5   3   36.88    1.50   0
   3  -6   2    7.06    1.20   0
   3  -5   3    1.91    1.57   0
   5  -5   2    8.34    1.24   0
   4  -4   3   -0.89    1.46   0
   1  -5   2  214.56    2.74   0
   4  -3   3   97.43    2.09   0
   6  -4   1    1.13    1.49   0
   1  -6   0    5.73    1.33   0
   2  -6   1    0.90    1.52   0
   4  -6   1   65.34    1.97   0
   5  -4   2  116.61    2.55   0
   2  -4   3   88.29    1.72   0
   3  -6   1  233.87    3.44   0
   3  -4   3   13.92    1.40   0
   4  -5   2   25.28    1.86   0
   2  -3   3   16.51    1.07   0
   5  -3   2  116.34    2.31   0
   2  -5   2  140.34    2.48   0
   3  -5   2   28.30    1.76   0
   2  -6   0    1.32    1.43   0
   4  -6   0    8.63    1.22   0
   1  -5   1    2.98    1.13   0
   5  -5   0   13.62    1.64   0
   5  -4   1   34.01    1.80   0
   2  -6  -1   41.19    1.99   0
   2  -4   2   19.45    1.31   0
   3  -4   2  308.83    3.34   0
   4  -3   2    0.52    1.10   0
   4  -2   2  202.27    2.34   0
   6  -3   0   -1.12    1.29   0
   3  -6  -1   76.07    2.28   0
   1  -5   0    4.97    1.18   0
   5  -3   1   47.96    1.84   0
   6  -4  -1    7.17    1.53   0
   2  -6  -2   91.92    2.31   0
   5  -5  -1   25.53    1.82   0
   1  -4   1    9.62    1.03   0
   2  -3   2   63.82    1.52   0
   3  -6  -2  114.08    2.41   0
   4  -5   0  156.21    2.76   0
   4  -4   1   91.30    2.30   0
   2  -6  -3  169.26    2.84   0
   5  -4   0   95.67    2.51   0
   2  -5   0  277.91    3.32   0
   3  -6  -3  123.79    2.62   0
   3  -5   0    3.00    1.52   0
   6  -3  -1   37.87    1.83   0
   1  -5  -1   10.85    1.28   0
   3  -6  -4    5.20    1.53   0
   3  -4   1    3.03    1.25   0
   5  -5  -2  100.07    2.60   0
   4  -3   1  224.85    2.87   0
   5  -3   0    8.84    1.62   0
   4  -2   1   12.16    1.06   0
   5  -5  -3    0.01    1.20   0
   6  -4  -3   29.32    1.76   0
   5  -2   0  184.07    2.61   0
   3  -3   1   23.11    1.36   0
   4  -5  -2    1.59    1.27   0
   6  -3  -2   62.09    2.23   0
   3  -4   0    1.23    1.01   0
  -1  -4   3  273.60    2.09   0
   1  -7   1   12.66    1.30   0
   1  -4   3   94.49    1.41   0
  -1  -6   2   21.76    1.34   0
   0  -4   3  531.59    3.09   0
   2  -7   0    0.60    1.03   0
   1  -6   2    7.38    0.99   0
   2  -5   2  138.91    2.09   0
   3  -6   0    6.37    1.18   0
   3  -5   1   35.38    1.41   0
   1  -7   0   77.73    1.95   0
   2  -6   1    2.51    0.89   0
   3  -4   1    1.72    0.85   0
   2  -7  -1    7.87    1.23   0
  -1  -5   2  359.91    2.95   0
  -1  -7  -1   16.48    1.26   0
  -1  -6   1  219.51    2.67   0
   1  -6   1  568.07    4.30   0
   0  -5   2  264.70    2.53   0
   1  -7  -1   51.71    1.70   0
   3  -5   0    2.20    1.12   0
   4  -5  -2    1.21    0.89   0
   1  -4   2  269.02    2.27   0
   2  -6   0    1.14    1.18   0
   2  -5   1    2.08    0.78   0
   0  -7  -2   16.17    1.37   0
   1  -7  -2   53.55    1.69   0
   3  -4   0    1.04    0.81   0
  -1  -6   0   27.82    1.49   0
   1  -6   0    4.17    1.27   0
   3  -3   0    0.61    0.67   0
   0  -7  -3    7.06    1.08   0
   1  -7  -3  193.38    2.55   0
   1  -5   1    2.69    1.03   0
   2  -6  -1   43.84    1.64   0
   3  -5  -1   92.35    1.92   0
   3  -6  -3  121.84    2.19   0
   0  -5   1  139.03    1.96   0
   2  -5   0  277.66    2.79   0
   3  -6  -4    5.12    1.07   0
  -1  -6  -1   55.21    1.66   0
   1  -4   1    8.97    0.95   0
   2  -6  -2   95.81    2.03   0
   3  -5  -2  165.11    2.34   0
   3  -4  -1  164.50    1.94   0
  -1  -4   1  115.82    1.52   0
   1  -5   0    4.84    1.01   0
  -1  -6  -2  279.35    2.92   0
  -1  -5   0   10.15    0.99   0
   2  -6  -3  164.96    2.44   0
   0  -5   0   53.43    1.35   0
   1  -6  -2  225.87    2.65   0
   2  -5  -1   13.91    0.91   0
  -2  -5  -1    0.33    0.84   0
   2  -6  -4   39.01    1.55   0
   3  -5  -3   41.32    1.48   0
   3  -3  -1  174.84    1.66   0
  -2  -4   0   16.58    0.79   0
  -1  -6  -3   11.49    1.12   0
   2  -6  -5    4.49    1.06   0
   1  -6  -3   41.63    1.39   0
   1  -5  -1    9.24    1.04   0
   2  -5  -2    1.47    0.97   0
   3  -5  -4   33.13    1.39   0
   3  -4  -2   16.36    0.97   0
  -1  -5  -1  212.26    2.28   0
   1  -6  -4   44.98    1.37   0
   1  -4   0   69.92    1.22   0
  -2  -5  -2  157.08    1.97   0
   0  -5  -1   94.71    1.65   0
   3  -5  -5    5.67    1.02   0
  -1  -4   0  116.05    1.44   0
   0  -4   0   69.36    1.22   0
   3  -5  -7   19.27    1.12   0
   3  -5  -6    7.83    1.06   0
   2  -5  -3   10.12    1.08   0
  -2  -5  -3   46.89    1.36   0
   1  -5  -2  188.96    2.27   0
  -2  -4  -1    1.55    0.62   0
  -1  -5  -2   97.25    1.65   0
   0  -5  -2  515.70    3.35   0
   2  -5  -4    1.97    1.03   0
  -2  -5  -4    4.06    0.95   0
   1  -5  -3    6.44    1.04   0
   1  -4  -1  408.05    2.64   0
  -2  -5  -5  120.76    1.88   0
  -1  -5  -3   54.80    1.49   0
   2  -5  -5   10.87    1.18   0
   3  -4  -4    4.10    0.91   0
  -1  -4  -1  362.53    2.39   0
   0  -5  -3   11.17    1.05   0
   0  -4  -1   37.40    0.94   0
   1  -5  -4   40.89    1.45   0
  -2  -4  -2   37.11    0.99   0
  -1  -5  -4    1.73    1.05   0
   3  -4  -5   36.70    1.28   0
  -1  -5  -5  175.87    2.36   0
   0  -5  -4  113.34    1.90   0
   1  -5  -5  142.29    2.21   0
   3  -4  -6    0.66    0.92   0
  -1  -5  -6   23.84    1.30   0
   1  -5  -6   31.29    1.40   0
   1  -4  -2   18.34    0.97   0
   3  -4  -8    6.29    1.03   0
   0  -5  -6   18.63    1.20   0
  -1  -4  -2   79.53    1.32   0
   2  -3  -2  332.62    2.17   0
  -2  -4  -3  171.54    1.91   0
   3  -3  -4   36.71    1.09   0
   1  -4  -3  117.05    1.70   0
  -2  -4  -4    5.44    0.92   0
  -1  -4  -3    7.92    0.87   0
   3  -3  -5    2.99    0.84   0
  -2  -4  -7   13.30    1.09   0
  -2  -4  -5  248.51    2.57   0
   1  -4  -4   31.24    1.21   0
   2  -3  -3   51.71    1.13   0
  -2  -4  -6   43.11    1.42   0
   3  -3  -9    1.24    1.01   0
  -1  -4  -4  341.61    2.86   0
   0  -4  -9   12.00    1.08   0
   1  -4  -8   11.84    1.24   0
   3  -3  -8    1.16    0.99   0
  -1  -4  -8    7.74    1.10   0
  -1  -4  -7   34.99    1.50   0
   3  -2  -4  181.20    1.73   0
   0  -4  -7   12.40    1.35   0
   2  -3  -4   47.31    1.25   0
   2  -3 -10   24.30    1.28   0
   1  -3  -3    0.58    0.79   0
  -2  -3  -3   -0.28    0.69   0
   2  -3  -9   20.67    1.38   0
   2  -3  -5  191.97    2.21   0
  -2  -3  -9    4.83    1.16   0
   3  -2  -5   44.49    1.11   0
  -1  -3 -10   26.54    1.32   0
   1  -3 -10  134.75    2.27   0
   2  -3  -8  150.25    2.25   0
  -2  -3  -4  105.68    1.58   0
   0  -3 -10    8.31    1.19   0
   3  -2  -9  181.49    2.46   0
   3  -2  -6   42.14    1.19   0
  -2  -3  -8   82.45    1.87   0
   1  -3  -9   82.46    2.02   0
  -2  -3  -7  103.87    1.99   0
  -2  -3  -5   97.14    1.72   0
  -1  -3  -9   23.31    1.45   0
   2  -2 -11   61.00    1.71   0
   3  -2  -7   32.87    1.27   0
   1  -3  -8    0.66    1.19   0
  -1  -3  -4  146.39    1.82   0
  -1  -3  -7  155.06    2.35   0
  -1  -3  -6  221.06    2.50   0
  -1  -3  -5   65.53    1.45   0
   0  -3  -7    3.82    1.16   0
   1  -2 -11  234.50    2.83   0
   0  -3  -6   13.34    0.93   0
   2  -1 -12   41.84    1.43   0
   3  -1 -10   79.51    1.69   0
   2  -2  -5  448.15    2.73   0
   1  -2 -10    6.57    1.13   0
   2  -2  -8    0.39    1.04   0
   0  -2 -10   45.01    1.46   0
   2  -1 -11    3.07    0.94   0
   3  -1  -8    0.96    0.76   0
   1  -5  -6   32.60    1.48   0
   2  -4  -7   41.84    1.52   0
   2  -4  -6   76.98    1.63   0
   2  -3 -10   22.45    1.22   0
   2  -3  -3   51.42    1.20   0
   1  -4  -2   20.36    0.99   0
   2  -3  -4   40.93    1.09   0
   0  -5  -6   18.05    1.19   0
   0  -5  -4  113.66    1.87   0
   0  -4  -1   37.64    0.95   0
   1  -4  -3  114.82    1.51   0
   2  -3  -8  124.58    1.92   0
   2  -2 -10    1.17    1.00   0
   1  -4  -8   11.00    1.02   0
   2  -3  -7    7.31    0.97   0
   1  -4  -4   27.50    1.08   0
  -1  -5  -3   55.42    1.38   0
   1  -4  -7  104.45    1.82   0
   1  -4  -5   36.38    1.19   0
   1  -4  -6   18.70    0.92   0
  -1  -5  -6   24.13    1.08   0
  -1  -5  -5  170.61    2.13   0
  -1  -5  -4    0.91    0.85   0
   0  -4  -2   23.50    0.82   0
   2  -2  -8    0.55    0.74   0
   2  -2  -5  345.86    2.14   0
   2  -2  -6   27.36    0.83   0
  -2  -5  -5  117.32    1.72   0
  -1  -4  -1  367.72    2.06   0
   0  -4  -8  204.70    2.35   0
   1  -3  -3    0.35    0.48   0
   0  -4  -7   11.81    1.01   0
   0  -4  -6    9.03    0.99   0
   0  -4  -5  185.64    2.04   0
   0  -4  -4    1.07    0.58   0
   1  -3  -7   10.89    0.89   0
   1  -3  -4  156.21    1.51   0
   1  -2 -10    4.32    0.87   0
  -1  -4  -8    7.58    0.86   0
   1  -3  -6  192.80    1.97   0
   1  -3  -5   50.88    1.07   0
  -1  -4  -2   80.03    1.15   0
   0  -3  -9   11.67    1.00   0
  -1  -4  -7   30.62    1.21   0
  -1  -4  -3    8.06    0.78   0
  -1  -4  -4  321.83    2.55   0
   1  -1 -10    6.83    0.90   0
  -3  -4  -7    0.34    0.88   0
  -2  -4  -7   12.79    1.08   0
  -2  -4  -2   40.55    0.95   0
   0  -3  -8  147.33    1.99   0
   1  -2  -8   22.17    0.93   0
   0  -3  -3   31.29    0.93   0
   0  -2 -10   43.65    1.36   0
  -2  -4  -6   44.18    1.37   0
  -2  -4  -3  194.34    1.99   0
  -1  -3  -9   20.06    1.00   0
   0  -3  -7    3.03    0.98   0
   1  -2  -7   18.18    0.84   0
  -3  -4  -6    0.41    0.99   0
  -2  -4  -5  262.01    2.70   0
   0  -3  -6   13.14    1.00   0
   0  -3  -4  208.27    1.93   0
   0  -1 -11    0.77    0.91   0
   1  -2  -5  518.77    2.69   0
  -3  -4  -5    5.62    1.03   0
  -2  -3  -9    4.03    1.07   0
   0  -3  -5    4.28    0.84   0
   1  -1  -9   90.00    1.50   0
  -3  -4  -4   63.86    1.48   0
  -1  -3  -8    3.23    1.06   0
  -1  -2 -10   26.82    1.38   0
   1  -1  -8  558.45    3.39   0
  -1  -3  -7  160.91    2.36   0
  -1   0 -12   13.05    1.13   0
   0  -2  -8    5.65    1.05   0
   1  -1  -7  246.83    2.19   0
  -2  -2 -10   59.46    1.72   0
  -1  -3  -6  236.06    2.62   0
  -1  -1 -11   26.00    1.14   0
   0   0 -11  119.06    1.96   0
  -1  -3  -3   10.16    0.83   0
   1  -1  -6   65.77    1.24   0
  -4  -3  -7  260.98    2.87   0
   1   0  -8  169.25    1.85   0
  -4  -3  -6    7.50    1.24   0
  -2  -2  -9   31.37    1.55   0
  -3  -3  -6   30.04    1.47   0
  -3  -2  -9   54.98    1.68   0
   0   0 -10  221.95    2.59   0
  -2  -3  -3   -0.26    0.75   0
  -1   0 -11  281.40    3.05   0
   1   0  -7  100.95    1.36   0
  -4  -3  -5  189.29    2.38   0
  -3  -3  -5   26.43    1.36   0
   0  -1  -8   21.83    0.98   0
  -2  -2  -8    7.10    1.25   0
  -2  -1 -10   67.88    1.85   0
  -5  -2  -7   19.19    1.20   0
  -4  -2  -8   33.11    1.21   0
  -3  -3  -4   42.46    1.33   0
  -3  -1 -10  164.09    2.48   0
  -3  -3  -3  287.81    2.44   0
  -3  -2  -8   32.74    1.45   0
  -2   0 -11   11.81    0.99   0
   0   0  -9   11.90    1.03   0
  -1  -2  -6    0.22    0.67   0
  -2  -2  -7  222.58    2.59   0
  -1   0 -10    0.83    1.07   0
  -1   1 -11   95.33    1.81   0
  -4  -2  -7  218.85    2.65   0
  -2  -1  -9   77.63    1.82   0
  -1  -2  -5  213.09    2.03   0
  -3  -2  -7   20.53    1.27   0
  -1  -2  -4    4.01    0.78   0
  -1  -1  -8  473.87    3.34   0
  -3  -1  -9   16.75    1.23   0
   0   0  -8   46.27    1.11   0
  -2  -2  -6    0.44    0.61   0
  -2   1 -11    2.12    0.95   0
  -5  -2  -5  133.81    1.91   0
  -4  -2  -6    4.08    1.09   0
  -3   0 -10   41.01    1.33   0
  -3   1 -11    0.73    0.85   0
   0   1  -9  160.20    1.77   0
  -1   0  -9    4.69    0.84   0
  -4  -1  -8   -0.31    0.84   0
  -2  -1  -8    4.92    0.74   0
  -1  -1  -7    5.41    0.58   0
   0   0  -7  108.93    1.29   0
  -4  -2  -5   49.48    1.11   0
  -3  -2  -5   40.91    1.06   0
  -1  -1  -6    0.51    0.39   0
   0   1  -8   88.19    1.11   0
  -3  -2  -4   53.22    1.02   0
  -4  -2  -3   -0.26    0.57   0
  -3  -2  -3  569.71    2.53   0
  -1  -1  -5  140.88    1.27   0
  -4   0  -8   45.14    1.26   0
  -2   2 -10   60.76    1.31   0
  -5  -1  -5   10.49    0.92   0
  -2   1  -9    0.72    0.74   0
   0   1  -7   78.74    1.00   0
  -3   1  -9   26.80    1.10   0
  -2  -1  -5    3.66    0.75   0
  -1   1  -8   10.46    0.84   0
  -1   2  -9  304.75    2.56   0
  -5   1  -8  128.85    2.18   0
  -1  -6   6    4.71    1.09   0
   0  -7   6    4.93    1.40   0
   1  -5   7   60.95    1.71   0
   3  -4   6    5.24    1.16   0
  -1  -7   5    0.27    1.25   0
  -1  -3   5    4.24    1.00   0
  -2  -6   4    7.27    1.40   0
   1  -7   6   90.10    2.31   0
   3  -6   6   20.98    1.59   0
   3  -5   6    3.65    1.24   0
   0  -4   6  204.32    2.63   0
  -2  -5   4   35.52    1.44   0
  -2  -4   4    0.58    0.64   0
   0  -6   6   25.99    1.75   0
   2  -4   6  153.12    2.37   0
  -1  -6   5    9.14    1.35   0
   0  -5   6  136.38    2.49   0
   1  -4   6   93.25    1.92   0
  -1  -7   4  123.16    2.47   0
   2  -5   6  312.82    3.54   0
  -1  -5   5    4.44    1.31   0
   0  -3   5    5.61    0.98   0
   1  -5   6   13.23    1.46   0
   1  -7   5   32.92    1.76   0
   2  -7   5    8.76    1.49   0
   2  -3   5  148.03    1.86   0
   3  -6   5    1.05    1.28   0
   3  -4   5   10.53    1.22   0
  -2  -5   3   52.61    1.52   0
  -2  -4   3  241.33    2.32   0
   0  -6   5  564.81    4.74   0
   4  -6   4    0.30    1.38   0
  -1  -6   4    2.01    1.34   0
   0  -4   5   83.97    1.74   0
   3  -5   5  320.52    3.36   0
   0  -5   5   37.03    1.64   0
   1  -6   5    1.70    1.47   0
   2  -6   5  138.14    2.67   0
  -1  -4   4  669.87    3.97   0
   2  -4   5   -0.57    1.12   0
  -1  -5   4   35.84    1.28   0
   1  -7   4  265.50    3.48   0
   1  -5   5  226.21    2.97   0
   1  -4   5   96.91    1.88   0
   2  -7   4  160.13    2.76   0
   3  -3   4    1.71    0.87   0
  -1  -6   3  192.18    2.80   0
   0  -7   3    0.38    1.34   0
   0  -6   4    0.60    1.38   0
   3  -6   4    7.80    1.49   0
   3  -7   3   76.87    1.87   0
   4  -6   3  276.14    3.30   0
   3  -5   4   29.53    1.60   0
   3  -4   4   22.92    1.38   0
   0  -5   4  146.18    2.36   0
   1  -7   3   23.88    1.65   0
   1  -6   4   -0.52    1.47   0
   2  -7   3    3.82    1.54   0
   2  -6   4    6.53    1.44   0
   2  -3   4   23.76    1.14   0
  -1  -5   3    2.56    1.08   0
   0  -4   4    6.05    0.79   0
   4  -5   3   68.98    1.95   0
  -1  -6   2   24.21    1.58   0
  -1  -4   3  292.45    2.57   0
   0  -7   2   39.51    1.58   0
   2  -4   4  162.41    2.27   0
   3  -6   3   48.42    1.89   0
   1  -7   2   79.40    2.00   0
   2  -7   2   11.38    1.54   0
   0  -7   1  112.75    2.22   0
   1  -6   3   53.07    1.98   0
   2  -6   3  123.77    2.62   0
  -1  -6   1  212.73    2.84   0
  -1  -5   2  353.42    3.16   0
   0  -5   3    8.30    1.14   0
   3  -7   1   14.69    1.54   0
   3  -5   3    1.69    1.35   0
   0  -7   0   10.56    1.51   0
   0  -6   2   -0.73    1.05   0
   1  -7   1   11.65    1.53   0
   2  -7   1   40.65    1.87   0
   3  -4   3   13.59    0.94   0
  -1  -4   2   39.71    1.25   0
   1  -5   3    5.98    1.25   0
   2  -5   3   38.24    1.58   0
   4  -6   1   65.89    1.95   0
  -1  -6   0   29.54    1.52   0
   3  -7   0  244.46    3.19   0
   1  -4   3   97.33    1.80   0
   2  -6   2    0.50    1.42   0
   2  -7   0    1.07    1.33   0
  -1  -5   1   89.75    1.63   0
   0  -6   1   45.18    1.53   0
   3  -5   2   27.66    1.60   0
   1  -7  -1   48.62    1.76   0
   3  -7  -1   11.92    1.33   0
   4  -6   0    9.64    1.46   0
   4  -5   1    8.99    1.08   0
   1  -6   1  536.69    4.48   0
   1  -5   2  214.41    2.66   0
   2  -6   1    2.48    1.41   0
   2  -5   2  138.45    2.31   0
   3  -4   2  292.51    2.82   0
  -1  -4   1  111.92    1.59   0
   0  -6   0    4.42    1.49   0
   0  -4   2  144.66    1.79   0
   1  -7  -2   51.04    1.81   0
   3  -3   2   59.09    1.27   0
  -1  -5   0    8.87    1.11   0
   4  -6  -1    7.96    1.34   0
   4  -4   1   82.44    1.78   0
   3  -6   0    5.63    1.44   0
   1  -4   2  260.56    2.47   0
   3  -5   1   34.40    1.63   0
   0  -6  -1  119.31    2.32   0
   2  -6   0   -0.61    1.38   0
   4  -5   0  148.40    2.46   0
   4  -6  -2   21.78    1.37   0
  -1  -5  -1  204.73    2.36   0
   2  -5   1    0.83    0.89   0
   3  -6  -1   73.93    2.03   0
   0  -6  -2   13.26    1.39   0
  -1  -4   0  111.11    1.57   0
   0  -5   0   51.73    1.52   0
   2  -6  -1   41.56    1.78   0
   3  -4   1    1.61    0.91   0
   4  -6  -3  177.24    2.65   0
   0  -6  -3    0.44    1.23   0
   3  -6  -2  112.11    2.33   0
   4  -5  -1   57.57    1.85   0
   4  -4   0  120.47    2.05   0
   5  -5  -3    1.32    1.13   0
   1  -5   0    4.57    1.14   0
   2  -6  -2   92.57    2.19   0
   2  -4   1   78.93    1.59   0
   2  -5   0  264.44    2.82   0
   3  -6  -3  115.91    2.36   0
   1  -6  -3   42.88    1.71   0
   2  -6  -3  166.22    2.67   0
   3  -6  -4    5.07    1.27   0
   3  -5  -1   87.87    2.02   0
   4  -5  -2    1.98    1.30   0
  -1  -4  -1  353.95    2.52   0
   1  -6  -4   46.12    1.49   0
   3  -6  -5  209.89    2.79   0
   3  -4   0    0.95    0.98   0
   1  -5  -1   10.13    1.18   0
   2  -6  -4   38.65    1.46   0
   4  -4  -1    0.86    1.06   0
   0  -5  -2  509.09    3.75   0
   2  -5  -1   14.49    1.05   0
   4  -5  -3   12.45    1.33   0
   5  -4  -3   17.95    1.27   0
   1  -4   0   70.43    1.51   0
   3  -5  -2  167.12    2.45   0
  -1  -4  -2   75.36    1.38   0
   4  -5  -4   23.90    1.51   0
   0  -5  -3   10.87    1.27   0
   1  -5  -2  195.45    2.45   0
   2  -5  -2    1.81    1.24   0
   3  -3   0    0.81    0.52   0
   4  -4  -2   20.80    1.43   0
   4  -3  -1  231.16    2.33   0
   5  -4  -4   22.61    1.35   0
   0  -4  -1   36.97    1.14   0
   3  -5  -3   42.97    1.76   0
   0  -5  -4  113.46    2.15   0
   0  -5  -6   17.74    1.39   0
   0  -5  -5   53.04    1.78   0
   2  -5  -3   11.11    1.41   0
   5  -4  -5   18.95    1.41   0
   2  -4  -1   28.84    1.25   0
   3  -5  -4   35.89    1.44   0
   5  -4  -6   17.79    1.38   0
   1  -5  -4   42.76    1.75   0
   4  -4  -3   62.20    1.85   0
   1  -5  -7   36.46    1.56   0
   2  -5  -4    2.45    1.31   0
   3  -5  -7   21.41    1.18   0
   3  -5  -6    8.30    1.37   0
   0  -4  -2   23.21    1.06   0
   1  -5  -5  149.13    2.37   0
   2  -5  -6  142.46    2.61   0
   3  -3  -1  197.79    2.12   0
   4  -4  -4   23.34    1.49   0
   4  -3  -2   54.67    1.47   0
   5  -3  -4    0.14    1.04   0
   1  -4  -2   19.09    1.14   0
   2  -4  -2   38.08    1.17   0
   3  -4  -3  261.97    2.89   0
  -1   0 -11  272.36    3.33   0
   0   2 -12    2.70    1.19   0
   1   0  -8  173.24    2.37   0
   2   2  -6   21.45    0.97   0
  -1  -1  -9   33.71    1.59   0
  -1   1 -12  109.31    2.16   0
   0   0 -10  217.29    2.87   0
  -2   0 -11   10.98    1.42   0
   0   3 -12   24.93    1.53   0
   0  -1  -7   55.58    1.41   0
   1   0  -7  102.67    1.74   0
   1   1  -9  245.08    2.89   0
  -2  -1  -9   77.60    1.88   0
  -1   2 -12  116.57    2.33   0
   0   0  -9   11.03    1.24   0
   1   0  -6    1.96    0.85   0
   1   3 -10  130.48    2.19   0
  -1  -1  -8  488.08    3.66   0
  -1   0 -10   -0.28    1.26   0
   0   2 -11   87.54    2.15   0
  -1   1 -11   91.93    2.14   0
   0   1 -10   -0.25    1.26   0
   0   4 -11   24.04    1.42   0
   1   1  -8   10.72    1.04   0
  -2   2 -12    0.79    1.09   0
  -1   3 -12   48.66    1.55   0
   0   3 -11   57.10    1.85   0
  -2   0 -10   33.23    1.55   0
   1   3  -9  102.97    1.97   0
  -3   0 -10   43.86    1.59   0
  -3   1 -11    0.72    1.08   0
  -2  -1  -8    5.12    1.09   0
   0   0  -8   48.62    1.39   0
   1   1  -7  100.45    1.61   0
  -1  -1  -7    6.28    0.86   0
   1   2  -8    4.89    0.96   0
  -1   0  -9    4.74    0.95   0
  -1   2 -11    1.36    1.27   0
   0   2 -10   62.98    1.88   0
  -1   1 -10  142.76    2.50   0
   0   4 -10  135.30    2.33   0
   1   3  -8   52.18    1.43   0
  -1   3 -11   24.93    1.51   0
  -1   4 -11    0.68    1.21   0
   0   0  -7  128.15    1.83   0
   0   3 -10    3.67    1.29   0
  -2   2 -11  122.48    2.37   0
   1   2  -7    7.48    0.83   0
  -2  -1  -7   57.79    1.45   0
  -2   0  -9   85.45    1.81   0
   1   3  -7   21.75    1.00   0
  -3   0  -9   34.59    1.54   0
  -1   5 -10    0.73    1.03   0
   0   1  -8  117.49    1.94   0
   0   2  -9    3.02    1.10   0
  -3   1 -10  265.84    3.24   0
  -2   3 -11    5.15    1.25   0
  -1   2 -10   33.71    1.68   0
  -1   1  -9   72.56    1.86   0
   0   3  -9   40.21    1.62   0
  -1   3 -10    8.82    1.35   0
  -1   4 -10  177.13    2.69   0
  -2  -1  -6  115.69    1.67   0
  -2   0  -8  123.34    2.12   0
  -2   5 -10   10.02    1.23   0
   0   1  -7   96.12    1.68   0
  -4   2 -10   -0.46    0.88   0
  -1   5  -9    5.94    1.21   0
  -3   0  -8   37.67    1.63   0
  -3   2 -10   34.36    1.50   0
  -1   2  -9  317.04    3.39   0
  -3   1  -9   29.65    1.57   0
  -2   3 -10   29.94    1.68   0
  -1   1  -8   11.11    1.18   0
   0   3  -8    2.58    0.75   0
  -3   3 -10    7.55    1.06   0
  -3   4 -10   45.21    1.76   0
  -1   3  -9   80.40    2.07   0
  -1   4  -9    9.97    1.44   0
   0   2  -7    9.23    0.84   0
  -2   0  -7  115.64    1.80   0
  -2   2  -9   99.17    2.27   0
  -2   5  -9   64.47    1.99   0
  -1   5  -8   43.17    1.66   0
  -4   2  -9    1.69    1.25   0
  -2   1  -8   90.86    1.99   0
  -1   2  -8   51.74    1.63   0
   0   3  -7  395.51    3.14   0
  -4   0  -7    1.93    1.18   0
  -3   0  -7  453.34    3.70   0
  -3   2  -9  126.90    2.51   0
  -1   1  -7   21.65    1.20   0
  -4   1  -8  169.30    2.68   0
  -3   5  -9   21.84    1.49   0
  -2   3  -9    0.76    1.05   0
  -4   3  -9   55.11    1.88   0
  -3   1  -8    0.55    0.98   0
  -1   4  -8  244.94    3.01   0
  -4   4  -9   50.98    1.74   0
  -3   3  -9   75.13    2.18   0
  -3   4  -9   29.01    1.74   0
  -5   2  -8   20.81    1.50   0
  -2   0  -6   76.82    1.56   0
  -2   5  -8   13.49    1.48   0
   0   3  -6   70.93    1.42   0
  -5   1  -7   -0.04    1.26   0
  -2   1  -7   24.09    1.33   0
  -1   2  -7   52.58    1.52   0
  -3   2  -8   37.27    1.78   0
  -2   3  -8   -0.71    1.33   0
  -1   1  -6   86.79    1.54   0
  -4   0  -6    5.26    1.15   0
  -3   0  -6    1.98    0.97   0
  -3   5  -8    2.21    1.01   0
  -1   4  -7    7.49    1.18   0
  -4   1  -7   59.42    1.96   0
  -3   1  -7    0.96    1.29   0
  -4   3  -8   28.03    1.70   0
  -4   4  -8   19.15    1.60   0
  -3   3  -8   95.02    2.35   0
  -3   4  -8  391.49    4.08   0
  -5   2  -7  119.41    2.46   0
  -2   2  -7   20.69    1.33   0
  -1   2  -6  751.20    4.04   0
  -5   1  -6   97.03    2.21   0
  -5   3  -7    2.56    1.39   0
  -4   5  -7   22.17    1.60   0
  -3   5  -7   27.78    1.69   0
  -2   1  -6   92.74    1.71   0
  -2   4  -7   28.73    1.58   0
  -5   4  -7    8.57    1.10   0
  -3   2  -7  104.47    2.08   0
  -1   4  -6   93.87    1.80   0
  -4   0  -5    5.59    1.11   0
  -3   0  -5  465.71    3.25   0
  -1   3  -6    0.19    0.72   0
  -4   1  -6   49.01    1.74   0
  -4   3  -7   19.09    1.71   0
  -4   4  -7    8.03    1.54   0
  -3   1  -6   58.36    1.66   0
  -3   3  -7    8.86    1.53   0
  -3   4  -7    1.14    1.47   0
  -2   5  -6  301.08    3.30   0
  -5   2  -6   15.72    1.51   0
  -2   2  -6    1.14    1.04   0
  -4   5  -6   11.79    1.50   0
  -4   6  -5   22.68    1.53   0
  -3   5  -6    2.84    1.41   0
  -2   4  -6  157.18    2.45   0
  -5   1  -5    8.92    1.37   0
  -5   3  -6   28.32    1.67   0
  -5   4  -6   66.18    1.84   0
  -3   2  -6  587.18    4.27   0
  -2   1  -5   18.65    1.15   0
  -2   3  -6    9.27    1.11   0
  -1   4  -5   97.41    1.71   0
  -1   3  -5  194.51    2.09   0
  -6   1  -4    1.78    1.25   0
  -4   3  -6    2.18    1.38   0
  -4   4  -6  161.68    2.95   0
  -2   5  -5   78.51    1.91   0
  -4   1  -5  144.33    2.31   0
  -3   0  -4   73.10    1.41   0
  -3   3  -6    0.59    0.95   0
  -5   2  -5  230.04    3.20   0
  -4   6  -4   -0.22    1.33   0
  -5   4  -5    1.83    1.44   0
  -4   5  -5  191.66    2.82   0
  -3   5  -5  322.46    3.44   0
  -2   2  -5  356.53    2.91   0
  -5   3  -5  111.49    2.50   0
  -2   4  -5    0.39    0.75   0
  -1   4  -4  152.24    1.89   0
  -6   4  -4   38.90    1.54   0
  -5   1  -4  115.38    2.33   0
  -4   2  -5  326.09    3.46   0
  -4   4  -5    5.46    1.52   0
  -3   2  -5   94.45    1.75   0
  -2   5  -4    6.70    1.19   0
  -6   1  -3    5.09    1.37   0
  -4   3  -5   88.08    2.28   0
  -7   2  -2    2.23    1.45   0
  -4   1  -4    3.12    1.07   0
  -3   5  -4   29.63    1.74   0
  -5   2  -4  262.33    3.42   0
  -4   0  -3  408.61    3.10   0
  -6   4  -3   -0.43    1.52   0
   2  -5  -2    1.47    0.82   0
   2  -4   0    2.68    0.65   0
   3  -4   0    1.43    0.43   0
   4  -4  -1    0.46    0.77   0
   1  -4  -1  389.87    2.86   0
   2  -5  -3    9.30    1.03   0
   4  -5  -6  110.92    2.23   0
   5  -4  -3   17.06    1.55   0
   3  -5  -4   35.28    1.84   0
   4  -2   0   28.79    1.26   0
   2  -5  -4    3.37    1.45   0
   3  -5  -7   21.51    1.60   0
   3  -3   0    0.26    1.08   0
   4  -4  -2   23.96    1.73   0
   2  -5  -5   10.18    1.62   0
   3  -5  -6    9.86    1.62   0
   5  -4  -4   24.02    1.82   0
   5  -3  -2   89.74    2.36   0
   6  -2  -3   -0.81    1.46   0
   4  -3  -1  262.61    3.13   0
   6  -3  -5  199.57    3.20   0
   1  -4  -2   20.36    1.19   0
   5  -4  -6   19.18    1.47   0
   6  -3  -6    7.18    1.45   0
   2  -4  -2   38.47    1.63   0
   6  -2  -4  138.20    2.79   0
   3  -3  -1  207.65    2.56   0
   4  -4  -4   23.26    1.57   0
   1  -4  -3  120.04    1.99   0
   4  -4  -8   11.69    1.37   0
   4  -3  -2   58.90    1.85   0
   4  -2  -1   15.81    1.15   0
   6  -2  -5    4.06    1.47   0
   4  -4  -6    1.75    1.47   0
   5  -1  -2   -0.12    1.06   0
   2  -4  -3  321.58    3.18   0
   1  -4  -4   30.75    1.41   0
   3  -4  -4    4.92    1.09   0
   5  -3  -5    2.79    1.49   0
   6  -2  -6   18.45    1.31   0
   2  -4  -4    0.27    1.15   0
   3  -4  -8    8.89    1.50   0
   4  -3  -3  229.34    3.10   0
   6  -2  -7   61.61    2.06   0
   3  -4  -7  225.29    3.34   0
   3  -4  -6    0.58    1.50   0
   3  -3  -2   78.99    1.78   0
   5  -3  -8    7.66    1.43   0
   5  -3  -7   10.60    1.65   0
   5  -3  -6   80.51    2.35   0
   6  -1  -5    1.26    1.35   0
   2  -4  -5  142.93    2.61   0
   2  -4  -7   40.48    1.90   0
   2  -4  -6   76.51    2.26   0
   4  -3  -4   49.37    1.97   0
   5  -2  -4    2.52    1.43   0
   6  -1  -6    0.42    1.51   0
   3  -3  -3  138.10    2.34   0
   4  -3  -9   12.99    1.57   0
   4  -3  -5  172.90    3.04   0
   6  -1  -8   -0.65    1.44   0
   6  -1  -7   72.94    2.20   0
   5  -2  -5   81.38    2.36   0
   3  -3 -10   46.78    2.06   0
   4  -3  -7   28.12    1.94   0
   4  -3  -6   11.70    1.78   0
   4  -1  -2  121.14    1.89   0
   3  -2  -2  137.06    2.08   0
   5  -1  -4   14.75    1.40   0
   3  -3  -9    2.08    1.51   0
   3  -3  -5    2.85    1.41   0
   2  -3  -9   21.34    1.75   0
   3  -3  -8    1.20    1.28   0
   4  -2  -4  184.39    2.61   0
   4  -2 -10    8.82    1.69   0
   5  -1 -10    6.14    1.54   0
   2  -3  -8  151.00    2.66   0
   3  -2  -3   75.45    1.75   0
   4  -2  -9   81.81    2.49   0
   4  -2  -5  180.89    2.74   0
   4  -1  -3  150.24    2.20   0
   5  -1  -6   -0.63    1.45   0
   2  -3  -7    8.46    1.65   0
   2  -3  -6    9.52    1.39   0
   5  -1  -7   34.84    1.99   0
   4  -2  -8   19.52    1.86   0
   4  -2  -7  248.16    3.67   0
   2  -2 -11   58.11    2.11   0
   3  -2 -10   21.22    1.95   0
   3  -2  -4  199.51    2.57   0
   4  -1 -11    2.38    1.32   0
   4  -1  -4  145.70    2.28   0
   5   0  -6    2.66    1.41   0
   0  -6   0    5.21    1.02   0
   1  -4   2  266.43    2.59   0
   1  -7  -3  186.46    2.78   0
   4  -6  -2   21.88    1.55   0
  -1  -5   0   10.01    1.09   0
   0  -5   1  136.64    2.00   0
   2  -6   0    1.02    1.07   0
   2  -5   1    0.55    1.30   0
   3  -4   1    2.40    1.07   0
   4  -4   0  128.79    2.23   0
   0  -6  -1  125.16    2.38   0
   5  -5  -3   -0.43    1.37   0
   3  -5   0    3.65    1.34   0
   3  -3   1   22.50    1.13   0
   4  -3   0    1.35    0.88   0
   0  -6  -2   13.85    1.49   0
   5  -5  -4   51.29    1.77   0
   1  -4   1    9.52    1.04   0
   2  -5   0  283.27    3.20   0
   3  -6  -3  123.87    2.54   0
   4  -5  -2    0.44    1.37   0
   0  -6  -3    0.75    1.34   0
   1  -6  -2  236.09    3.25   0
   1  -5   0    6.01    1.18   0
   4  -4  -1    0.39    1.28   0
   3  -6  -4    5.80    1.29   0
   3  -5  -1   92.01    1.99   0
   3  -4   0    0.41    1.07   0
   0  -6  -4   36.00    1.64   0
   1  -6  -3   43.05    1.77   0
   2  -6  -3  167.38    2.82   0
   3  -6  -5  218.28    2.92   0
   0  -5  -1   96.07    1.87   0
   4  -5  -3   11.38    1.42   0
   1  -6  -4   45.07    1.74   0
   2  -6  -4   38.92    1.70   0
   2  -5  -1   12.55    1.36   0
   5  -4  -4   22.85    1.47   0
   0  -4   0   68.39    1.32   0
   1  -5  -1   10.92    1.16   0
   2  -6  -5    4.36    1.24   0
   3  -5  -2  169.17    2.69   0
   3  -3   0    1.70    0.84   0
   4  -5  -4   23.69    1.55   0
   4  -4  -2   21.31    1.40   0
  -1  -4  -1  350.82    2.52   0
   1  -4   0   70.40    1.44   0
   4  -5  -5    2.30    1.36   0
   0  -5  -2  503.17    3.73   0
   2  -5  -2    1.78    0.94   0
   3  -5  -3   43.92    1.52   0
   0  -5  -3   10.23    1.23   0
   2  -5  -3    9.63    1.40   0
   2  -4  -1   29.10    1.26   0
   0  -4  -1   36.17    0.98   0
   3  -5  -5    7.84    1.32   0
   3  -3  -1  186.06    2.01   0
  -1  -4  -2   74.70    1.36   0
   0  -5  -4  112.16    2.19   0
   1  -4  -1  414.70    2.98   0
   3  -5  -7   20.21    1.42   0
   3  -5  -6    9.95    1.44   0
   4  -4  -4   22.85    1.53   0
   2  -5  -4    1.46    1.35   0
   0  -5  -6   18.53    1.45   0
   0  -5  -5   56.01    1.74   0
   2  -5  -7    1.41    1.28   0
   2  -5  -5   11.30    1.17   0
   3  -4  -3  259.17    2.98   0
   4  -4  -5  213.97    2.92   0
   1  -5  -6   33.80    1.67   0
   1  -5  -5  154.22    2.50   0
   2  -4  -2   38.74    1.19   0
   4  -4  -8   11.72    1.25   0
   4  -4  -6    0.99    1.28   0
   5  -3  -7   11.26    1.33   0
  -1  -4  -3    7.00    0.90   0
   4  -4  -7    1.00    1.20   0
   1  -4  -2   19.94    1.01   0
   3  -4  -4    4.21    1.30   0
   3  -3  -2   79.77    1.48   0
   4  -3  -4   49.24    1.75   0
   3  -4  -9  124.32    2.32   0
   1  -4  -3  124.79    2.01   0
   4  -2  -3  217.33    2.23   0
   2  -4  -4    0.28    1.22   0
   3  -4  -8    7.09    1.10   0
   3  -4  -7  221.83    3.09   0
   3  -4  -6    0.12    1.38   0
   4  -3  -5  159.51    2.50   0
  -1  -5  -6   25.41    1.30   0
   2  -2  -5  406.16    2.45   0
  -1  -5  -5  176.57    2.31   0
  -1  -5  -4    1.63    0.99   0
   0  -4  -2   24.49    0.94   0
   1  -3  -9   58.93    1.37   0
   2  -2  -6   27.76    0.82   0
  -2  -5  -3   45.82    1.31   0
  -3  -5  -3   10.44    0.96   0
  -2  -5  -5  113.25    1.79   0
  -2  -5  -4    3.72    0.86   0
  -2  -4   0   16.27    0.70   0
   1  -3  -3    0.04    0.64   0
  -3  -5  -4    3.67    0.85   0
  -1  -4  -1  353.18    2.16   0
   0  -4  -3  113.59    1.48   0
   1  -3  -8    1.66    0.79   0
   0  -4  -7   12.53    1.00   0
   0  -4  -6    9.11    0.98   0
   0  -4  -5  192.87    2.19   0
   0  -4  -4    1.35    0.78   0
   1  -3  -7   10.45    0.90   0
   1  -3  -4  154.37    1.51   0
   1  -3  -6  203.76    2.11   0
  -2  -4  -1    1.59    0.71   0
  -1  -4  -7   33.75    1.49   0
   0  -3  -9   13.25    0.98   0
   1  -2  -9   14.65    1.05   0
  -1  -4  -6    2.61    0.94   0
  -1  -4  -5    4.48    1.20   0
  -4  -4  -6  228.05    2.63   0
  -3  -4  -2  152.87    2.03   0
  -4  -4  -4  113.66    1.98   0
  -3  -4  -6    1.31    1.15   0
  -2  -4  -6   50.65    1.66   0
   1  -2  -7   21.09    1.05   0
   1  -2  -6    2.65    0.77   0
  -3  -4  -5    6.30    1.22   0
  -3  -4  -4   68.66    1.78   0
   0  -3  -6   13.30    0.86   0
   0  -3  -5    5.38    0.92   0
  -2  -3  -9    4.79    0.84   0
  -1  -3  -8    1.83    1.10   0
   0  -2  -9  101.17    1.93   0
  -2  -3  -8   83.33    1.91   0
  -1  -3  -7  158.12    2.33   0
  -1  -2 -10   26.67    1.13   0
   1  -1  -8  534.83    3.14   0
  -1  -3  -6  217.48    2.47   0
  -1  -3  -3    9.76    0.89   0
   0  -2  -8    6.14    0.97   0
  -2  -3  -7  101.50    2.04   0
  -1  -3  -5   65.88    1.46   0
  -1  -3  -4  142.87    1.82   0
   0  -1 -10  328.45    2.97   0
   1  -1  -7  230.15    1.96   0
  -3  -3  -7  106.74    2.06   0
  -1  -2  -9   94.67    1.96   0
  -4  -3  -6    6.34    1.19   0
  -3  -3  -1    1.74    0.67   0
   0  -2  -7  242.87    2.31   0
  -2  -3  -2  202.17    1.90   0
  -2  -1 -11   -0.17    1.06   0
  -4  -3  -5  183.28    2.53   0
  -2  -3  -5  102.20    1.84   0
  -2  -2  -9   29.78    1.46   0
  -4  -3  -4   86.69    1.87   0
  -4  -3  -3   23.87    1.24   0
  -3  -2  -9   55.23    1.71   0
  -2  -3  -3    0.19    0.64   0
   0  -2  -5  491.94    2.89   0
  -3  -3  -5   25.39    1.24   0
  -5  -2  -7   18.56    1.32   0
  -4  -2  -8   32.09    1.56   0
  -3  -3  -4   42.35    1.26   0
  -1  -2  -7    2.02    1.08   0
  -3  -2  -8   35.94    1.67   0
  -2  -1 -10   71.58    2.00   0
  -1   0 -11  286.12    3.08   0
  -5  -2  -6  233.30    2.90   0
  -3  -1 -10  174.17    2.66   0
  -1  -2  -6    0.52    0.84   0
  -4  -4  -6  222.69    2.61   0
  -2  -4  -6   49.84    1.60   0
   0  -3  -5    5.27    0.83   0
   0  -3  -4  212.94    2.01   0
   0  -2  -9   99.07    1.80   0
  -3  -4  -6    0.98    1.13   0
  -2  -4  -5  289.16    3.03   0
  -2  -3  -9    4.11    1.18   0
  -4  -4  -5    6.63    1.14   0
  -1  -2 -10   27.06    1.32   0
  -4  -4  -4  120.88    2.13   0
  -4  -4  -3  352.91    3.21   0
  -3  -4  -3    4.33    1.22   0
  -1  -3  -7  164.82    2.39   0
   0  -2  -8    6.40    1.05   0
  -2  -3  -8   85.97    1.98   0
  -2  -2 -10   59.78    1.66   0
  -3  -3  -8   57.09    1.53   0
  -1  -3  -6  235.13    2.62   0
  -1  -2  -9   98.46    2.05   0
   0  -2  -7  246.31    2.41   0
  -2  -1 -11   -1.07    1.03   0
  -1  -3  -5   69.94    1.51   0
   0  -1  -9    4.84    0.95   0
  -5  -3  -6    0.06    0.95   0
  -4  -3  -7  241.97    2.80   0
  -2  -3  -7  107.82    1.96   0
  -1  -3  -4  150.01    1.89   0
  -3  -3  -7  105.72    2.05   0
   0  -2  -6   51.57    1.10   0
  -2  -3  -6    0.57    1.08   0
  -1  -2  -8   21.48    1.23   0
  -1  -1 -10   35.75    1.38   0
  -3  -3  -6   25.34    1.35   0
  -2  -3  -5   94.30    1.72   0
   0  -1  -8   18.61    0.91   0
  -5  -3  -4   23.61    1.22   0
  -2  -3  -2  202.10    1.84   0
  -2  -3  -4  106.46    1.63   0
  -2  -2  -8    5.90    1.06   0
  -2   0 -11   10.78    1.17   0
  -4  -3  -4   82.05    1.81   0
  -3  -2  -8   29.49    1.43   0
  -1  -1  -9   32.67    1.10   0
   0  -1  -7   52.76    1.13   0
  -4  -3  -3   22.02    1.27   0
  -3  -3  -3  275.52    2.52   0
  -3  -3  -2   27.47    1.01   0
  -1   0 -10   -0.82    0.99   0
  -2  -2  -7  229.00    2.67   0
  -5  -2  -6  227.63    2.80   0
  -4  -2  -7  240.99    2.96   0
  -4  -1  -9   69.34    1.76   0
  -1  -2  -5  223.78    2.08   0
   0  -1  -6    4.43    0.77   0
  -3  -2  -7   22.05    1.45   0
  -1  -2  -4    3.69    0.83   0
  -5  -1  -8   35.55    1.40   0
  -2  -2  -6   -0.56    0.94   0
  -2   0 -10   34.03    1.47   0
  -3  -2  -6   10.10    1.01   0
  -3   0 -10   42.00    1.30   0
  -3   1 -11   -0.31    0.82   0
  -6  -1  -6    0.80    0.69   0
  -2  -2  -5  334.02    2.20   0
  -4   4  -7    7.55    1.70   0
  -4   5  -7   20.84    1.84   0
  -3   3  -7    9.68    1.49   0
  -2   3  -7  137.97    2.56   0
  -1   4  -7    6.15    1.56   0
  -1   5  -7   62.45    2.27   0
  -3   6  -7    1.58    1.44   0
  -2   6  -7    7.13    1.28   0
   0   4  -6  210.50    2.85   0
   0   5  -6  135.34    2.64   0
   1   5  -4   30.79    1.56   0
  -3   2  -6  586.35    4.27   0
  -2   2  -6    1.54    1.18   0
  -3   5  -7   26.41    2.10   0
  -2   4  -7   29.17    1.89   0
  -2   5  -7    6.91    1.76   0
  -1   7  -5   34.87    2.03   0
   0   6  -5  537.40    4.83   0
   1   4  -4  664.52    4.06   0
  -4   3  -6    0.47    1.48   0
  -1   3  -6   -0.27    1.29   0
  -2   7  -5    7.08    1.61   0
   0   3  -5    4.79    0.87   0
  -3   6  -6   21.96    1.99   0
  -2   6  -6    1.98    1.72   0
  -1   5  -6   13.15    1.78   0
   0   5  -5   38.40    1.72   0
  -4   4  -6  162.18    3.06   0
  -4   5  -6   10.25    1.67   0
  -3   3  -6    0.39    1.47   0
   0   6  -4    1.06    1.53   0
  -1   6  -5    1.59    1.61   0
  -5   5  -5  103.68    2.51   0
  -3   5  -6    2.16    1.76   0
  -2   4  -6  156.79    2.87   0
  -2   5  -6  309.28    4.05   0
  -5   4  -5    2.60    1.65   0
  -4   6  -5   23.66    1.89   0
  -2   7  -4  159.12    3.08   0
  -3   2  -5   90.58    1.90   0
  -3   7  -4   61.97    2.30   0
  -2   2  -5  342.19    2.92   0
   0   6  -3    0.56    1.54   0
  -3   6  -5   -0.09    1.71   0
  -2   6  -5  136.37    2.80   0
  -1   3  -5  196.09    2.59   0
  -1   5  -5  224.15    3.32   0
   0   5  -4  141.32    2.33   0
  -4   3  -5   85.56    2.05   0
  -1   4  -5   97.85    1.96   0
  -1   6  -4    0.83    1.32   0
   0   4  -4    6.37    1.15   0
  -4   4  -5    4.96    1.73   0
  -2   5  -5   74.24    2.30   0
  -2   7  -3    4.03    1.67   0
  -4   3  -1  231.46    2.30   0
  -4   4   1    1.13    0.87   0
  -3   3  -1   23.14    0.92   0
  -5   4   2   27.99    1.28   0
  -4   0  -2  225.78    2.06   0
  -4   1  -2  658.86    3.60   0
  -7   1   1    5.46    0.90   0
  -6   2   0  148.60    2.42   0
  -5  -1  -1    1.01    0.85   0
  -5   2  -1   26.35    1.33   0
  -7   2   2  144.58    2.29   0
  -6  -1   0   90.23    1.86   0
  -7  -1   2   53.64    1.66   0
  -7   1   2   69.74    1.86   0
  -7   2   3   10.32    1.24   0
  -4   2  -1   12.57    1.02   0
  -4   3   0    1.02    0.96   0
  -7   0   2    1.71    1.05   0
  -6   2   1   17.90    1.45   0
  -5   3   1   11.35    1.31   0
  -3   3   0    0.18    0.72   0
  -6   3   3   34.21    1.53   0
  -4  -1  -1   31.11    0.95   0
  -7   2   4    5.75    1.09   0
  -6  -1   1    3.35    1.05   0
  -6   1   1   31.32    1.40   0
  -6   3   4  163.45    2.29   0
  -4   1  -1  379.03    2.65   0
  -7  -1   3    1.10    1.02   0
  -6   2   2   92.08    1.96   0
  -5  -1   0   69.02    1.41   0
  -5   3   2   90.25    1.83   0
  -4   0  -1   17.22    0.82   0
  -6   0   1   16.48    1.26   0
  -6   3   5  186.93    2.44   0
  -5   1   0   98.16    1.74   0
  -4   3   1  256.83    2.32   0
  -7   1   4    6.39    1.14   0
  -6   3   6    7.10    1.00   0
  -5   0   0    4.84    0.95   0
  -6   2   3    1.32    1.24   0
  -7   1   5  101.41    2.21   0
  -6   1   2   -0.49    0.95   0
   5  -7   4    0.64    0.46   0
   0  -9   5    3.83    0.39   0
   4  -7   6   35.31    1.07   0
   2  -9   5    2.90    0.50   0
   2  -8   7  115.24    1.59   0
   2  -6   8  304.64    3.18   0
   3  -8   6   16.98    0.81   0
   3  -7   7    3.66    0.76   0
   3  -9   3    9.93    0.45   0
   4  -8   4   15.52    0.64   0
   4  -6   6   34.89    1.25   0
   5  -7   3   61.87    1.04   0
   3  -6   7    1.35    0.86   0
   2  -9   4    8.46    0.55   0
   2  -8   6    1.26    0.74   0
   2  -7   7    1.05    0.84   0
   4  -7   5   14.53    0.95   0
   0  -7   7    6.03    1.05   0
   3  -9   2   22.63    0.55   0
   3  -7   6  123.58    1.92   0
   5  -7   2   23.24    0.78   0
   4  -6   5   22.32    1.16   0
   3  -9   1    5.93    0.34   0
   2  -9   3   14.56    0.60   0
   4  -7   4  128.88    1.82   0
   2  -8   5   17.35    0.97   0
   2  -7   6    3.33    1.05   0
   3  -8   4   -0.03    0.68   0
   5  -7   1    0.49    0.56   0
   1  -9   3   18.98    0.70   0
   3  -7   5    0.42    0.91   0
   4  -8   2    2.84    0.56   0
   0  -9   2    2.62    0.45   0
   0  -8   5   19.97    0.99   0
   0  -7   6    5.05    1.03   0
   4  -6   4    0.05    0.97   0
   2  -9   1   36.06    0.80   0
   3  -8   3  177.70    1.97   0
   4  -7   3    0.38    0.82   0
   2  -8   4   64.28    1.36   0
   2  -7   5    8.45    1.13   0
   0  -9   0    1.21    0.40   0
   3  -7   4   63.56    1.71   0
   4  -8   0   12.22    0.66   0
   2  -9  -1    1.99    0.40   0
   4  -8  -2   45.27    0.75   0
   4  -7   2    2.61    0.80   0
   4  -6   3  265.24    2.91   0
   3  -8   2   17.00    0.92   0
   2  -8   3    7.83    0.74   0
   2  -7   4  158.97    2.45   0
   0  -8   3   23.85    1.15   0
   3  -8   1   17.82    0.92   0
   3  -7   3   75.52    1.69   0
   4  -7   1    2.77    0.79   0
   2  -8   2   33.57    1.29   0
   4  -6   2   42.48    1.30   0
   3  -8   0   34.73    1.10   0
   2  -7   3    4.47    1.15   0
   3  -7   2    6.43    0.89   0
   4  -7   0    1.79    0.87   0
   2  -8   1   90.68    1.77   0
   3  -8  -1   18.23    0.87   0
   4  -6   1   64.48    1.76   0
   0  -8   1   24.71    1.16   0
   3  -8  -3   38.44    0.96   0
   3  -8  -2    0.55    0.64   0
   4  -7  -1   25.73    1.18   0
   2  -8   0   57.40    1.46   0
  -1  -8  -1    1.16    0.79   0
   2  -7   2   12.28    1.30   0
   4  -7  -2   92.51    1.64   0
   4  -7  -5    3.31    0.65   0
   4  -6   0   10.60    1.19   0
  -1  -8  -3   26.10    0.71   0
   0  -8   0   28.38    1.20   0
   1  -8   0  167.37    2.28   0
   2  -8  -1   48.79    1.37   0
   4  -7  -3   15.63    0.93   0
   2  -8  -5   29.08    0.70   0
   0  -8  -5    8.45    0.48   0
   2  -8  -2  101.44    1.68   0
   0  -8  -1    2.11    0.83   0
   1  -8  -1    0.48    0.92   0
   2  -8  -4   71.54    1.20   0
   2  -7   1   43.38    1.41   0
   4  -6  -1    8.63    1.16   0
   0  -8  -2  110.52    1.67   0
   1  -8  -5    4.66    0.52   0
   0  -8  -4  126.98    1.45   0
   0  -8  -3    1.50    0.73   0
   1  -8  -2   17.34    1.03   0
   1  -8  -4   76.79    1.23   0
   1  -8  -3    6.91    0.82   0
   3  -7  -7   28.12    0.67   0
   2  -7   0    1.25    1.12   0
   4  -6  -2   23.23    1.33   0
   2  -7  -8   42.44    0.65   0
   2  -7  -1    8.29    1.26   0
   4  -6  -7    4.24    0.63   0
  -1  -7  -1   16.77    1.24   0
   1  -7  -8    0.71    0.42   0
   4  -6  -6    0.30    0.74   0
   4  -6  -4   24.15    1.22   0
   2  -7  -2   52.95    1.70   0
   4  -6  -5    6.50    0.97   0
   0  -7  -1   90.02    2.02   0
   1  -7  -1   53.10    1.62   0
   2  -7  -7  154.16    1.61   0
   3  -6  -9    3.51    0.42   0
  -1  -7  -2   18.89    1.24   0
   2  -7  -3   10.38    1.17   0
  -1  -7  -6   37.64    0.95   0
   1  -7  -2   58.89    1.89   0
   2  -7  -6    5.10    0.85   0
  -1  -7  -3   92.31    1.81   0
   0  -7  -7  103.21    1.34   0
   1  -7  -7    0.41    0.63   0
   2  -7  -5   20.43    1.11   0
   2  -7  -4    0.03    0.75   0
  -1  -7  -5    7.57    0.86   0
  -1  -7  -4    1.85    0.91   0
   0  -7  -3    8.37    1.16   0
   1  -7  -6   12.37    0.96   0
   1  -7  -3  212.58    2.73   0
   1  -6 -10   22.76    0.59   0
   3  -6  -8  121.26    1.56   0
   0  -7  -6   31.34    1.12   0
   1  -7  -5    1.84    0.88   0
   1  -7  -4   14.00    1.18   0
   0  -7  -5   70.96    1.61   0
   0  -7  -4    5.57    1.04   0
   3  -6  -4    4.76    1.26   0
   4  -5  -8    9.58    0.82   0
   3  -6  -7    6.59    0.93   0
   4  -5  -7    1.22    0.96   0
   2  -6  -9   12.92    0.75   0
   3  -5 -10   12.39    0.72   0
   1  -6  -9   58.69    1.26   0
   2  -6  -8    3.03    0.79   0
   0  -6  -9   35.72    0.99   0
   2  -6  -7   17.92    1.09   0
   2  -6  -6   34.85    1.54   0
   2  -6  -5    5.31    0.95   0
   3  -5  -9    5.70    1.00   0
   1  -6  -8  117.57    1.87   0
  -1  -6  -7    6.61    0.98   0
   1  -5 -11   37.83    0.87   0
  -1  -6  -6   72.48    1.68   0
  -1  -6  -4   56.95    1.78   0
   1  -6  -7    1.19    1.02   0
   1  -6  -5  170.93    2.71   0
   3  -5  -8   53.86    1.47   0
  -1  -6  -5   19.03    1.45   0
   1  -6  -6   90.41    2.03   0
   3  -4 -11   21.98    0.85   0
   2  -4 -12   73.24    1.09   0
   1  -5 -10    0.55    0.81   0
   2  -5  -9   44.68    1.43   0
  -2  -4 -11    1.76    0.48   0
   0  -5 -10   93.92    1.50   0
  -2  -5  -8    0.66    0.80   0
   2  -5  -8    7.85    1.19   0
   1  -4 -12   33.18    0.91   0
   2  -5  -7    1.36    1.23   0
   2  -3 -13   10.04    0.67   0
  -2  -5  -7   22.41    1.19   0
  -1  -5  -9   -0.56    0.89   0
   0  -4 -12  109.24    1.36   0
   1  -5  -9    0.14    0.95   0
   3  -4  -9  129.80    2.17   0
   0  -5  -9   41.61    1.38   0
   2  -2 -14    5.38    0.45   0
   1  -5  -8   33.85    1.58   0
   3  -4  -8    8.98    0.92   0
  -1  -5  -8    0.14    0.98   0
   1  -5  -7   42.79    1.71   0
  -1  -5  -7  105.37    2.12   0
   0  -5  -8   56.91    1.80   0
   0  -5  -7   17.99    1.43   0
   1  -4 -11    2.72    0.88   0
   1  -3 -13    0.19    0.63   0
  -2  -3 -12    0.67    0.57   0
   2  -4  -9  124.06    2.26   0
   2  -3 -12    0.85    0.77   0
   1  -4 -10  156.76    2.34   0
   3  -2 -12    0.09    0.73   0
  -1  -4 -10  251.32    2.71   0
   0  -2 -14   17.12    0.71   0
   3  -3  -9    1.46    1.17   0
   0  -4 -10    0.71    0.85   0
  -2  -2 -13   10.67    0.58   0
   1  -4  -9   70.28    1.95   0
   1  -3 -12   64.90    1.44   0
   2  -3 -11   -0.13    0.98   0
   2  -2 -13   59.16    1.30   0
  -2  -4  -8  224.57    2.72   0
  -1  -4  -9    8.31    1.15   0
   2  -1 -14    2.92    0.67   0
  -2  -3 -11  150.45    1.90   0
   0  -4  -9   13.25    1.31   0
   0  -3 -12    1.75    0.85   0
  -1  -4  -8    8.55    1.28   0
   1  -3 -11    1.52    1.04   0
   1  -2 -13   28.29    1.08   0
  -1  -2 -13    8.05    0.69   0
   0  -3 -11    6.41    1.09   0
   0  -2 -13  101.71    1.63   0
   1   0 -15   20.03    0.68   0
  -3  -2 -11    0.48    0.68   0
  -2  -3 -10    2.85    0.97   0
  -1   0 -15    2.31    0.36   0
  -2  -2 -12   32.30    1.10   0
  -1  -1 -14   38.11    0.93   0
   1  -3 -10  146.87    2.54   0
   0  -1 -14   10.71    0.77   0
   0   0 -15   27.15    0.75   0
   2  -1 -13    1.64    0.85   0
  -2  -3  -9    4.54    1.18   0
   0  -3 -10    9.26    1.29   0
   1  -2 -12  252.04    2.84   0
   2   0 -14    6.34    0.71   0
  -1  -2 -12  137.35    2.06   0
  -2  -1 -13   52.65    1.21   0
   0  -2 -12    7.63    1.10   0
  -2  -2 -11   33.35    1.32   0
   1  -2 -11  253.65    3.22   0
  -1  -2 -11   43.11    1.63   0
  -1  -1 -13    0.90    0.87   0
   0  -2 -11   17.77    1.40   0
   0  -1 -13    0.90    0.91   0
   0   1 -15   31.18    0.95   0
   2   0 -13    1.32    0.85   0
  -2  -2 -10   61.33    1.72   0
   0   0 -14   14.12    0.91   0
  -3   2 -14    0.30    0.34   0
   1   3 -15   81.96    0.98   0
  -2   1 -14  125.17    1.52   0
  -1  -1 -12    5.61    1.11   0
   0  -1 -12    2.49    1.21   0
   2   0 -12    0.28    1.08   0
  -3   0 -12    2.59    0.82   0
   2   1 -13    1.18    0.82   0
  -3  -1 -10  158.01    2.35   0
  -3   1 -13   81.68    1.35   0
  -2  -1 -11   -0.15    1.10   0
  -1   0 -13  161.96    2.18   0
  -1   1 -14   43.72    1.24   0
   0   0 -13   28.90    1.12   0
   0   1 -14   60.80    1.44   0
  -1  -1 -11   25.92    1.52   0
  -1   3 -15   14.83    0.60   0
   0   3 -15    8.96    0.58   0
   1   0 -12   15.42    1.36   0
   1   2 -14   13.66    0.95   0
   0   4 -14   15.33    0.65   0
   1   3 -14   40.17    0.98   0
   0   2 -15    0.93    0.44   0
   2   2 -13    7.24    0.81   0
  -2   4 -14    2.81    0.31   0
   2   3 -12   15.46    1.05   0
  -1   2 -15  158.03    1.25   0
   1   2 -14   13.69    0.81   0
   2   0 -12    0.65    0.79   0
   1   4 -12   48.81    1.26   0
   0   0 -14   14.16    0.67   0
   2   2 -12    6.68    0.92   0
   0   3 -14   15.66    0.71   0
   0   4 -13   51.10    1.12   0
   1   0 -13  258.62    2.32   0
   1   3 -13   -0.58    0.75   0
   0  -1 -13    1.64    0.52   0
   1   4 -11    2.82    0.82   0
  -1   0 -14   15.11    0.70   0
   0   1 -14   59.25    1.18   0
   0   2 -14    2.50    0.69   0
  -2   0 -14   17.24    0.54   0
  -1   3 -14   50.34    1.00   0
  -1   4 -13    4.63    0.66   0
   0   4 -12  206.44    2.26   0
  -1  -1 -13    0.64    0.48   0
   0   3 -13  192.29    2.17   0
   1   0 -12   16.28    0.99   0
  -3   1 -14   12.64    0.45   0
  -2   4 -13  100.66    1.24   0
  -1   1 -14   44.84    0.99   0
  -1   2 -14    4.90    0.69   0
  -2  -1 -13   54.44    0.86   0
   0   0 -13   28.34    0.97   0
   1   1 -12   45.05    1.40   0
   1   2 -12   49.65    1.28   0
  -4   3 -13    0.45    0.29   0
  -4   4 -12   70.20    0.73   0
  -2   1 -14  127.77    1.31   0
  -2   2 -14    6.85    0.59   0
   0  -1 -12    3.73    0.78   0
   0   4 -11   24.16    1.15   0
   0   1 -13   48.39    1.35   0
   0   2 -13   36.25    1.20   0
  -1   4 -12    6.55    0.80   0
  -2   4 -12  117.14    1.62   0
   0   0 -12   11.23    1.05   0
  -4   2 -13  107.86    1.08   0
  -3   4 -12    0.59    0.53   0
  -1  -1 -12    6.13    0.75   0
  -1   1 -13   34.45    1.16   0
  -1   2 -13   41.98    1.29   0
  -1   4 -11   -0.14    0.83   0
   0   2 -12    2.32    0.96   0
  -4  -1 -12    4.83    0.39   0
  -4   1 -13   70.22    0.86   0
  -3   0 -13  105.56    1.22   0
  -2   0 -13    5.49    0.68   0
  -2   2 -13   45.93    1.22   0
  -3   1 -13   88.18    1.30   0
  -3   2 -13  147.84    1.65   0
  -2  -1 -12  105.09    1.54   0
  -2   1 -13   11.17    0.80   0
  -5   2 -12   63.31    0.80   0
  -4   4 -11    1.02    0.45   0
  -3  -1 -12   19.70    0.82   0
  -2   4 -11    6.26    0.93   0
  -1   0 -12   14.92    1.09   0
  -5   1 -12    7.91    0.47   0
  -4   3 -12   14.88    0.69   0
  -2   3 -12   65.11    1.48   0
  -1   2 -12  129.06    2.16   0
  -3   4 -11    8.27    0.79   0
  -1   1 -12  119.18    2.09   0
  -1  -1 -11   27.01    1.26   0
  -5   3 -11    1.26    0.49   0
  -2   0 -12    1.78    0.83   0
  -2   2 -12    0.13    0.92   0
  -4   2 -12   23.06    0.87   0
  -3   0 -12    3.08    0.84   0
  -4   1 -12    5.68    0.72   0
  -3   2 -12    1.19    0.81   0
  -2   3 -11    6.55    1.13   0
  -3   1 -12   31.01    1.14   0
  -3   4 -10   49.93    1.38   0
  -2  -1 -11    0.11    0.90   0
  -4  -1 -11   20.81    0.87   0
  -4   3 -11   27.75    1.06   0
  -3  -1 -11  102.70    1.66   0
  -3   3 -11    3.08    0.92   0
  -5   0 -11  113.13    1.40   0
  -5   2 -11   26.99    0.87   0
  -2   0 -11   10.50    1.30   0
  -5   1 -11    2.08    0.66   0
  -2   1 -11    2.43    1.08   0
  -6   0 -10   60.98    0.96   0
  -5   3 -10   57.85    1.24   0
  -3   2 -11   11.19    1.18   0
  -6   3  -9    2.71    0.54   0
  -5  -1 -10    6.71    0.72   0
  -3   1 -11   -0.77    1.03   0
  -3   3 -10    8.56    1.13   0
  -5  -2  -9    1.28    0.57   0
  -7  -1  -8    6.27    0.38   0
  -5   2 -10    0.60    0.80   0
  -4  -1 -10   50.42    1.37   0
  -3  -1 -10  170.52    2.40   0
  -7   3  -7    9.08    0.48   0
  -6  -1  -9  112.79    1.34   0
  -7   2  -8   -0.08    0.51   0
  -5   3  -9   68.84    1.48   0
  -4  -2  -9   10.19    0.91   0
  -4   2 -10    0.72    1.08   0
  -6  -2  -8  158.95    1.44   0
  -6   3  -8   10.34    0.81   0
  -4   0 -10   11.77    1.16   0
  -7   0  -8   51.37    0.97   0
  -6   0  -9   42.18    1.09   0
  -7   1  -8   40.64    0.88   0
  -7   3  -6  210.15    1.72   0
  -5  -2  -8    6.63    0.86   0
  -5   3  -8  303.79    2.96   0
  -4  -1  -9   71.86    1.57   0
  -8   0  -6   64.95    0.91   0
  -6  -1  -8    0.90    0.80   0
  -6   2  -8   14.12    1.08   0
  -6   3  -7   61.49    1.34   0
  -4  -2  -8   31.10    1.31   0
  -4   0  -9  171.73    2.54   0
  -8   2  -5   26.82    0.69   0
  -6  -2  -7   36.93    1.07   0
  -7  -2  -6   61.87    1.05   0
  -6   0  -8    6.67    0.93   0
  -7   0  -7   53.77    1.19   0
  -5   3  -7    2.64    1.00   0
  -8  -1  -5   18.65    0.66   0
  -8  -2  -4   51.89    0.86   0
  -7   2  -6    0.52    0.73   0
  -5  -2  -7   18.89    1.21   0
  -5   0  -8    7.56    1.17   0
  -8   0  -5    5.47    0.71   0
  -8   2  -4    2.64    0.65   0
  -7  -1  -6    4.71    0.78   0
  -6   1  -7   -0.09    1.01   0
  -7  -3  -4    1.76    0.53   0
  -6  -2  -6   35.50    1.23   0
  -6   0  -7    7.28    0.97   0
  -7  -2  -5   10.67    0.82   0
  -9   0  -2   18.63    0.51   0
  -8  -3  -2    0.57    0.43   0
  -7   2  -5   25.95    1.09   0
  -6   2  -6    6.77    1.12   0
  -9   1  -1    3.84    0.40   0
  -8  -1  -4   45.92    0.98   0
  -5  -2  -6  222.86    2.70   0
  -8  -2  -3    0.15    0.64   0
  -8   0  -4    3.90    0.70   0
  -7  -1  -5   83.54    1.60   0
  -9  -1  -1    1.34    0.47   0
  -7   1  -5   14.48    1.14   0
  -9  -2   0   42.72    0.62   0
  -9   0  -1   59.58    0.93   0
  -7   2  -4   86.04    1.65   0
  -6  -3  -4   15.75    1.13   0
  -6  -2  -5    9.66    1.06   0
  -9   1   0    3.23    0.42   0
  -8   2  -2   -0.02    0.70   0
  -7  -3  -3   46.99    1.11   0
  -7  -2  -4   16.84    1.00   0
  -8  -1  -3  155.33    1.78   0
  -8   1  -3    1.35    0.75   0
  -8  -3  -1   12.99    0.68   0
  -9   1   1    1.72    0.42   0
  -8   0  -3   69.70    1.39   0
  -7  -1  -4   16.89    1.12   0
  -9  -2   1   26.88    0.64   0
  -9  -1   0   27.54    0.71   0
  -7   0  -4   45.92    1.31   0
  -8  -4   2   -0.01    0.22   0
  -7  -3  -2    0.11    0.91   0
  -7  -2  -3   13.47    0.97   0
  -8  -1  -2    0.56    0.77   0
  -6  -3  -3   12.17    1.00   0
  -8  -3   0    5.29    0.68   0
  -8   2   0   -0.35    0.65   0
  -9  -2   2   41.43    0.73   0
  -9  -1   1   32.53    0.78   0
  -7   1  -3    8.36    1.06   0
  -8   1  -1    0.18    0.75   0
  -7  -1  -3   27.29    1.34   0
  -7   2  -2    4.13    0.97   0
  -7   0  -3    2.05    1.02   0
  -8  -4   3    5.04    0.41   0
  -9  -2   3  127.85    1.16   0
  -9  -1   2   30.54    0.75   0
  -8  -1  -1    4.64    0.83   0
  -7  -2  -2   97.15    1.83   0
  -8  -3   1  127.08    1.53   0
  -7  -3  -1   85.35    1.58   0
  -6  -3  -2  148.72    2.18   0
  -8  -2   0   59.65    1.31   0
  -8   1   0  156.22    1.99   0
  -7   2  -1    1.17    0.88   0
  -9  -2   4   22.32    0.54   0
  -9  -1   3   14.02    0.60   0
  -9   0   4    0.64    0.46   0
  -9   0   5  166.36    1.18   0
  -9  -2   5    0.29    0.29   0
  -8  -1   0  149.67    2.02   0
  -8   0   0    3.75    0.84   0
  -9  -1   4   23.56    0.69   0
  -8   1   1    1.54    0.78   0
  -9  -1   5   17.93    0.55   0
  -8  -4   5    0.31    0.41   0
  -8  -3   2   70.58    1.27   0
  -7  -3   0   77.09    1.59   0
  -8  -1   1   12.36    0.97   0
  -8   1   2    0.29    0.74   0
  -7  -4   2  128.43    1.68   0
  -7  -1  -1    8.16    0.97   0
  -8  -3   3    1.75    0.66   0
  -8  -2   2    0.80    0.70   0
  -8   1   3   36.62    1.11   0
  -7  -3   1    0.43    0.86   0
  -8  -1   2  131.14    1.96   0
  -7  -4   3    6.27    0.78   0
  -7  -1   0  153.55    2.38   0
  -8  -2   3   33.77    1.12   0
  -8   1   5    1.26    0.61   0
  -8  -1   3    6.20    0.87   0
  -7  -3   2  178.94    2.31   0
  -8  -2   4    0.78    0.70   0
  -8   0   4   17.54    1.01   0
  -7  -4   4    3.66    0.80   0
  -8  -3   7    8.65    0.65   0
  -8  -1   4    4.65    0.79   0
  -8  -2   5   99.70    1.57   0
  -8   0   5   15.88    0.90   0
  -8   0   8   25.31    0.66   0
  -8  -1   5   10.63    0.78   0
  -8   0   6    8.09    0.72   0
  -8   0   7    4.66    0.71   0
  -7  -4   5   49.58    1.19   0
  -7  -3   3  108.04    1.87   0
  -7  -2   2    0.08    0.72   0
  -8  -2   6    7.49    0.75   0
  -8  -2   9    4.49    0.40   0
  -8  -1   6   23.73    0.90   0
  -7   1   3  116.94    1.97   0
  -8  -2   8    4.11    0.57   0
  -8  -1   7   21.95    0.84   0
  -7  -4  10   16.32    0.51   0
  -7  -3   4    6.48    0.90   0
  -7  -2   3   99.17    1.89   0
  -7   1   4    7.31    0.96   0
  -7  -1   3    0.09    0.96   0
  -7  -4   8    5.09    0.64   0
  -7   1   5  102.16    1.70   0
  -6  -4   4   13.63    0.96   0
  -7  -3   5   44.63    1.29   0
  -7  -2   4   41.86    1.36   0
  -7   0   4   82.02    1.77   0
  -7   1   6   19.22    0.94   0
  -4  -2  12    4.98    0.91   0
  -2  -3  13  300.29    2.88   0
  -1  -5  13  151.25    1.68   0
  -1  -4  13   49.00    1.25   0
  -5  -3  12    9.09    0.79   0
  -3  -3  13   20.23    1.03   0
  -2  -6  13    8.40    0.55   0
   0  -4  12  195.66    2.27   0
  -5  -2  11    8.05    0.83   0
  -4  -5  13   46.00    0.88   0
  -4  -4  13   33.06    0.93   0
  -2  -2  12    6.65    0.99   0
  -2  -7  12   14.03    0.47   0
  -2  -4  13    8.73    0.85   0
  -5  -5  12    0.83    0.50   0
  -5  -4  12    2.79    0.60   0
  -3  -4  13   11.70    0.90   0
  -3  -5  13   45.27    1.06   0
  -1  -3  12    0.46    0.73   0
  -4  -2  11    5.26    1.05   0
  -1  -6  12    4.51    0.64   0
  -5  -3  11   37.37    1.16   0
  -5  -2  10   37.33    1.40   0
  -3  -3  12    2.07    1.00   0
  -2  -3  12   16.08    1.23   0
  -1  -4  12   47.76    1.47   0
  -6  -5  10   13.50    0.55   0
  -6  -4  10    1.10    0.50   0
  -1  -5  12    4.38    0.86   0
   0  -4  11   22.09    1.20   0
  -4  -4  12   24.04    1.05   0
  -1  -7  11    3.39    0.54   0
  -4  -5  12  218.49    2.09   0
  -5  -4  11   43.88    1.19   0
  -4  -7  11    3.11    0.38   0
  -3  -6  12    7.62    0.65   0
  -3  -4  12    2.05    0.95   0
  -2  -6  12    4.02    0.71   0
  -2  -4  12  130.02    2.03   0
  -5  -5  11   10.26    0.86   0
  -4  -3  11   38.85    1.40   0
  -3  -5  12    2.31    0.83   0
  -5  -3  10   20.83    1.16   0
  -2  -7  11    4.96    0.73   0
  -3  -7  11    2.00    0.61   0
  -3  -3  11   20.90    1.14   0
  -1  -6  11    0.84    0.95   0
  -4  -6  11   52.29    1.16   0
  -4  -4  11    2.94    0.96   0
  -4  -5  11   11.14    0.89   0
  -2  -4  11    5.66    1.17   0
  -5  -4  10    9.71    0.97   0
  -4  -7  10   67.83    1.10   0
  -3  -6  11   14.32    0.89   0
  -5  -3   9   31.12    1.36   0
  -2  -8   9   20.03    0.67   0
  -6  -5   8   64.61    1.20   0
  -1  -6  10   52.71    1.49   0
  -4  -8   8   90.15    1.02   0
  -4  -6  10    7.06    0.91   0
  -1  -5  10    1.63    0.83   0
  -4  -5  10    0.39    0.96   0
  -6  -6   7    9.74    0.67   0
  -5  -5   9   19.57    1.16   0
  -2  -6  10    2.22    1.00   0
  -4  -7   9    0.78    0.69   0
  -3  -6  10    3.56    0.68   0
  -3  -5  10   69.80    1.82   0
  -1  -7   9    0.72    0.78   0
  -6  -5   7    7.24    0.87   0
  -3  -7   9   17.49    0.98   0
  -2  -7   9    0.57    0.91   0
  -5  -4   8   30.20    1.41   0
  -4  -6   9   50.47    1.47   0
  -1  -6   9   45.30    1.57   0
  -6  -6   6   51.93    1.05   0
  -5  -6   8   24.38    1.13   0
  -4  -8   7   50.41    0.94   0
  -4  -5   9   19.74    1.40   0
  -3  -5   9    8.78    1.27   0
  -2  -9   5    0.29    0.37   0
  -2  -6   9  116.55    2.22   0
  -1  -7   8    0.34    0.95   0
  -6  -6   5   72.81    1.24   0
  -3  -8   7    4.89    0.72   0
  -3  -7   8    5.65    0.92   0
  -2  -8   7  158.86    1.92   0
  -5  -6   7   61.85    1.55   0
  -4  -8   6   25.53    0.87   0
  -2  -7   8   38.89    1.40   0
  -5  -5   7    4.31    1.13   0
  -4  -5   8  125.09    2.20   0
  -4  -7   7   28.37    1.24   0
  -3  -6   8    3.64    1.13   0
  -2  -6   8    6.33    1.38   0
  -6  -6   4    0.68    0.62   0
  -1  -8   6    1.51    0.84   0
  -1  -7   7   39.78    1.52   0
  -4  -8   5    9.08    0.78   0
  -4  -6   7    0.07    1.22   0
  -3  -7   7   30.48    1.35   0
  -2  -8   6    8.80    1.00   0
  -6  -6   3   45.56    1.08   0
  -5  -5   6    0.67    1.15   0
  -4  -7   6   11.50    1.10   0
  -3  -6   7   99.70    2.23   0
  -5  -7   4   18.71    1.00   0
  -4  -8   4  108.04    1.50   0
  -3  -8   5    7.56    0.86   0
  -2  -9   2    7.89    0.55   0
  -1  -8   5   72.99    1.52   0
  -5  -6   5    4.94    1.04   0
  -1  -7   6  101.76    2.04   0
  -4  -6   6   21.64    1.49   0
  -2  -9   1   78.13    0.89   0
  -2  -8   5    3.65    0.96   0
  -5  -5   5   91.80    2.01   0
  -4  -8   3    4.01    0.72   0
  -2  -7   6   71.97    1.89   0
  -5  -7   3  196.95    2.12   0
  -3  -8   4    4.55    0.84   0
  -5  -6   4   77.12    1.73   0
  -4  -8   2    8.05    0.83   0
  -1  -8   4   16.55    1.08   0
  -5  -7   2    0.36    0.72   0
  -2  -8   4   36.83    1.39   0
  -4  -7   4   -0.10    0.91   0
  -4  -6   5   84.57    2.04   0
  -3  -7   5   24.56    1.44   0
  -1  -7   5   -0.32    1.11   0
  -4  -8   1   16.61    0.76   0
  -3  -8   3    0.65    0.83   0
  -2  -7   5  182.49    2.72   0
  -5  -7   1   23.87    0.98   0
  -5  -6   3   23.38    1.26   0
  -4  -8  -1   12.49    0.55   0
  -4  -8   0   66.62    1.05   0
  -5  -7   0   48.14    1.16   0
  -1  -8   3    6.75    1.14   0
  -5  -7  -1    9.58    0.60   0
  -2  -8   3    7.35    1.03   0
  -4  -7   3   43.13    1.45   0
  -4  -6   4    4.81    1.22   0
  -3  -7   4    8.54    1.24   0
  -5  -6   2   19.89    1.20   0
  -3  -8   1    0.21    0.84   0
  -1  -8   2  154.80    2.10   0
  -5  -6   1    0.02    0.95   0
  -5  -5   2    6.83    1.32   0
  -3  -8  -3   41.37    0.78   0
  -3  -8   0   64.89    1.35   0
  -5  -6  -4   15.91    0.57   0
  -5  -6   0  107.21    1.89   0
  -4  -7   1   84.49    1.75   0
  -3  -8  -2    1.15    0.62   0
  -3  -8  -1    2.02    0.73   0
  -1  -8   1    0.53    0.89   0
  -5  -6  -1    0.29    1.01   0
  -5  -5   1   98.94    2.05   0
  -4  -7   0    8.85    0.99   0
  -3  -7   2    0.59    1.19   0
  -5  -6  -3    2.34    0.63   0
  -5  -6  -2   66.37    1.43   0
  -4  -7  -4   27.47    0.71   0
  -4  -7  -1  164.13    2.07   0
  -2  -8  -4   34.12    0.75   0
  -1  -8   0   33.77    1.29   0
   0  -8  -1    1.67    0.89   0
  -2  -8  -1   15.73    1.03   0
  -5  -5   0    0.86    1.05   0
  -3  -7   1  176.79    2.62   0
  -2  -8  -3   17.49    0.82   0
  -2  -8  -2   84.23    1.43   0
   0  -8  -4  133.01    1.29   0
   0  -8  -3    1.31    0.65   0
  -3  -7  -6   74.90    0.88   0
  -1  -8  -4  145.78    1.43   0
  -1  -8  -2   37.57    1.14   0
  -5  -5  -1  207.83    2.57   0
  -4  -6   0    6.31    1.25   0
  -5  -5  -2   24.19    1.21   0
  -4  -6  -6    3.27    0.54   0
  -3  -7  -5   92.46    1.28   0
  -3  -7  -1   10.07    1.18   0
  -3  -7  -2    0.44    0.93   0
  -2  -7  -7  112.18    1.04   0
  -2  -7   0    8.45    1.41   0
  -3  -7  -4   15.13    0.92   0
  -3  -7  -3   54.72    1.44   0
  -4  -6  -5    0.73    0.77   0
  -4  -6  -2    5.00    1.06   0
  -1  -7   0   43.29    1.65   0
  -4  -6  -4  118.01    1.82   0
  -4  -6  -3    9.24    1.09   0
  -2  -7  -6   16.96    0.78   0
   0  -7  -1   92.33    2.00   0
  -2  -7  -2    0.35    0.87   0
  -2  -6  -9   76.73    0.87   0
  -1  -7  -7    1.08    0.52   0
  -1  -7  -1   17.24    1.18   0
  -2  -7  -5   48.65    1.26   0
  -2  -7  -4   34.60    1.29   0
  -2  -7  -3    5.25    1.02   0
  -4  -5  -7   25.85    0.86   0
  -3  -6  -2  223.37    2.97   0
  -1  -7  -3  100.10    1.97   0
  -4  -5  -3  269.17    3.09   0
  -3  -6  -6    0.94    0.80   0
   0  -7  -3    8.86    1.12   0
  -4  -5  -5   87.98    1.85   0
  -4  -5  -4   63.73    1.78   0
  -3  -6  -3   60.58    1.83   0
  -3  -5  -9    1.93    0.59   0
   0  -7  -5   73.40    1.55   0
   0  -7  -4    6.58    0.97   0
  -3  -6  -5   10.38    0.85   0
  -3  -6  -4    0.65    1.06   0
  -1  -6  -9   50.73    0.95   0
  -2  -6  -7   16.58    1.02   0
  -4  -4  -7    1.39    1.03   0
  -3  -5  -8   23.71    1.02   0
  -2  -5 -10    1.74    0.53   0
  -1  -5 -11   11.93    0.46   0
  -3  -4 -10   53.42    1.08   0
  -2  -6  -6   64.97    1.61   0
  -2  -6  -5   -0.39    1.10   0
  -2  -6  -4  174.38    2.73   0
  -4  -4  -6  220.31    2.66   0
  -4  -4  -5    5.63    1.16   0
  -1  -6  -8   90.92    1.54   0
  -3  -5  -6    0.13    1.06   0
  -1  -6  -7    5.91    0.95   0
  -3  -5  -5  248.02    3.01   0
  -3  -3 -11    6.65    0.60   0
  -2  -5  -9  111.56    1.65   0
  -1  -6  -5   21.60    1.45   0
  -3  -4  -9    1.34    0.80   0
  -2  -4 -11    1.63    0.58   0
   1  -6  -7    1.01    0.89   0
   1  -6  -5  181.97    2.53   0
  -1  -5 -10    0.66    0.69   0
  -1  -4 -12   12.09    0.56   0
  -2  -5  -8   -0.23    0.89   0
   2  -5 -10    1.51    0.60   0
  -3  -4  -8   32.23    1.35   0
  -2  -5  -6   10.23    1.40   0
  -1  -5  -9    0.01    0.88   0
  -3  -4  -7    0.24    1.12   0
  -3  -3 -10    1.68    0.76   0
   1  -5 -10    0.79    0.70   0
  -1  -5  -8    0.49    1.01   0
  -1  -4 -11   24.03    1.00   0
   0  -5  -9   44.12    1.44   0
  -1  -5  -7  108.23    2.24   0
   1  -5  -9   -0.81    0.91   0
   2  -5  -8    7.52    0.95   0
  -2  -3 -11  158.64    1.99   0
  -1  -4 -10  260.06    2.79   0
   0  -4 -11   45.54    1.30   0
   0  -3 -13   37.27    0.93   0
   1  -5  -7   46.58    1.67   0
  -1  -3 -12   10.10    0.83   0
  -6   5  -8    0.26    0.44   0
  -4   7  -7   99.37    1.42   0
  -3   7  -7    2.76    0.77   0
  -2   7  -6    3.70    0.97   0
  -6   6  -7   12.40    0.49   0
  -5   6  -8    1.33    0.53   0
  -2   6  -8  310.59    3.12   0
  -6   7  -4    3.49    0.33   0
  -5   4  -9    0.21    0.71   0
  -5   7  -6   64.76    1.05   0
  -4   5  -9   53.07    1.35   0
  -2   7  -5    8.28    1.03   0
  -4   6  -8  293.04    2.62   0
  -3   5  -9   22.19    1.02   0
  -3   6  -8   60.42    1.57   0
  -3   7  -6  123.06    1.91   0
  -6   4  -8    2.47    0.48   0
  -6   7  -3    2.03    0.35   0
  -7   5  -6    0.47    0.39   0
  -4   4  -9   50.18    1.43   0
  -3   4  -9   28.42    1.40   0
  -3   7  -5    0.95    0.83   0
  -7   6  -4   56.31    0.71   0
  -6   6  -6   89.98    1.22   0
  -5   5  -8   58.83    1.33   0
  -5   6  -7    9.50    0.86   0
  -4   7  -5   14.25    0.99   0
  -5   7  -4    0.63    0.65   0
  -3   6  -7    1.62    1.01   0
  -3   7  -4   59.99    1.51   0
  -6   5  -7    0.60    0.67   0
  -4   6  -7   10.35    1.03   0
  -3   5  -8    1.68    1.21   0
  -5   7  -3   63.29    1.20   0
  -4   7  -4  129.96    1.87   0
  -5   7  -2   23.37    0.84   0
  -4   7  -3    0.56    0.81   0
  -7   6  -3   10.08    0.51   0
  -5   6  -6    8.05    0.92   0
  -3   6  -6   19.96    1.31   0
  -6   6  -5   18.46    0.87   0
  -4   4  -8   19.42    1.19   0
  -7   5  -5   74.03    1.14   0
  -4   6  -6   36.40    1.39   0
  -7   6   0   10.69    0.48   0
  -6   5  -6   27.77    1.08   0
  -4   5  -7   22.77    1.41   0
  -7   6  -1   21.06    0.63   0
  -6   6  -4    1.69    0.76   0
  -5   6  -5    1.35    0.85   0
  -4   6  -5   24.33    1.41   0
  -8   5  -1   51.59    0.70   0
  -5   4  -7    8.42    1.12   0
  -7   5  -4   24.14    0.88   0
  -5   5  -6    5.79    1.12   0
  -5   6  -4  101.70    1.92   0
  -6   5  -5   62.38    1.50   0
  -5   3  -7    2.12    1.07   0
  -5   6  -3   40.31    1.43   0
  -4   6  -3  278.77    3.19   0
  -6   6  -1   -0.29    0.83   0
  -6   6   0   43.44    1.25   0
  -6   6   1   86.89    1.27   0
  -7   3  -5   21.01    1.01   0
  -5   4  -6   65.52    1.97   0
  -5   6  -2    7.93    1.01   0
  -4   6  -2   40.69    1.53   0
  -6   5  -4    0.53    0.92   0
  -5   6  -1  141.39    2.18   0
  -5   6   0    0.14    1.04   0
  -7   5  -2    4.45    0.78   0
  -5   5  -4    1.06    1.25   0
  -8   4  -1   63.69    1.19   0
  -7   5  -1   71.18    1.41   0
  -7   5   3    6.84    0.64   0
  -7   3  -4    2.55    0.88   0
  -7   4  -3    8.07    0.98   0
  -6   3  -5    3.67    1.16   0
  -8   4   4    1.23    0.38   0
  -7   5   2   11.28    0.86   0
  -6   4  -4   41.52    1.66   0
  -5   5  -3    7.99    1.26   0
  -8   4   0   20.94    0.87   0
  -6   5  -2    7.22    1.17   0
  -8   4   1   12.02    0.73   0
  -8   4   3    5.40    0.57   0
  -7   4  -2  113.75    2.00   0
  -6   4  -3    1.21    1.22   0
  -6   5   0    1.99    0.99   0
  -8   2  -2    0.10    0.79   0
  -8   3  -1   44.09    1.24   0
  -6   3  -4  145.03    2.53   0
  -6   5   1   28.62    1.33   0
  -6   5   2   51.89    1.42   0
  -9   2   2    5.02    0.50   0
  -7   4  -1    7.91    1.09   0
  -9   1   1    1.21    0.47   0
  -5   5   1   27.87    1.50   0
  -9   2   3   67.87    0.94   0
  -9   2   4    1.24    0.36   0
  -8   3   6   -0.08    0.42   0
  -7   2  -3  149.57    2.33   0
  -7   4   5    1.59    0.65   0
  -6   4  -2   95.66    2.17   0
  -7   4   0    8.62    1.02   0
  -8   2  -1   35.39    1.25   0
  -8   3   1   53.56    1.42   0
  -7   4   4   69.57    1.51   0
  -6   4  -1    0.33    1.23   0
  -9   1   2  110.41    1.30   0
  -8   1  -1    0.51    0.99   0
  -7   4   3    3.72    0.93   0
  -9   0   2   -0.15    0.48   0
  -8   3   2   39.25    1.28   0
  -8   3   5  191.49    1.79   0
  -8   3   3    3.63    0.76   0
  -7   2  -2    3.85    1.12   0
  -6   4   0  168.95    2.75   0
  -9   1   3    3.32    0.59   0
  -9   1   4    0.88    0.50   0
  -9   1   5   53.05    0.86   0
  -7   1  -2   26.51    1.40   0
  -7   3   0   51.37    1.73   0
  -8   1   0  140.84    2.05   0
  -8   2   1   28.35    1.21   0
  -7   2  -1    1.00    1.21   0
  -6   4   3   32.00    1.42   0
  -9   0   5  160.76    1.45   0
  -9   0   6    0.20    0.37   0
  -8   2   2   11.46    1.11   0
  -7   3   6    0.38    0.91   0
  -9  -1   5   16.16    0.60   0
  -7   3   2    6.09    1.36   0
  -8   1   1    2.43    1.06   0
  -8   2   3   24.86    1.26   0
  -8   2   6    2.60    0.72   0
  -7   1  -1   48.75    1.67   0
  -8   2   4   61.23    1.48   0
  -8   2   5   42.14    1.22   0
  -7   3   4   25.10    1.33   0
  -8   0   1   45.38    1.37   0
  -8   1   8    0.06    0.57   0
  -7   2   1   13.18    1.20   0
  -8   1   3   34.82    1.30   0
  -8   0   2    9.51    1.02   0
  -8   0   9   20.61    0.63   0
  -8   1   4   31.57    1.35   0
  -8   1   5    0.78    0.93   0
  -8   1   6   52.71    1.29   0
  -7   2   3   10.29    1.36   0
  -7   2   6   38.85    1.36   0
  -8  -1   3    5.78    0.96   0
  -8   0   4   15.87    1.17   0
  -8   0   8   24.41    0.89   0
  -7   1   9    4.14    0.71   0
  -8  -1   9   -0.31    0.53   0
  -8   0   5   15.09    1.07   0
  -8   0   6    8.06    0.97   0
  -8   0   7    5.75    0.83   0
  -8  -2   4    0.72    0.81   0
  -8  -1   4    5.02    0.97   0
  -7   1   3  118.78    2.38   0
  -7   1   8    0.59    0.87   0
  -8  -2   9    4.24    0.55   0
  -8  -1   8   69.18    1.29   0
  -7   0  10   99.28    1.39   0
  -8  -2   5   97.18    1.65   0
  -8  -1   6   24.35    1.06   0
  -8  -1   7   21.73    1.01   0
  -7   1   4    6.70    1.22   0
  -8  -3   7    7.76    0.63   0
  -7  -1  11    3.72    0.51   0
  -7   1   5  105.93    2.24   0
  -8  -2   6    6.43    0.85   0
  -8  -2   7   27.16    0.96   0
  -8  -2   8    3.49    0.62   0
  -7   0   9    7.47    0.95   0
  -7   0   4   80.69    2.04   0
  -7  -1   3   -0.36    1.03   0
  -7   0   5   51.62    1.70   0
  -6   1   8    0.06    1.02   0
  -7  -2   3   95.39    2.00   0
  -7   0   6    0.36    1.11   0
  -7   0   7   14.13    1.21   0
  -7  -3  11    9.03    0.50   0
  -7  -1   4  209.91    2.93   0
  -7  -3   4    6.05    0.97   0
  -7  -1   9   53.22    1.39   0
  -6   0  10   10.82    0.97   0
  -7  -4  10   15.77    0.59   0
  -7  -2   4   43.79    1.55   0
  -7  -2  10   66.88    1.27   0
  -7  -1   5   18.39    1.30   0
  -7  -1   6   79.66    1.90   0
  -7  -1   8  113.94    1.95   0
  -7  -3  10    1.75    0.61   0
  -7  -2   5   20.64    1.32   0
  -6  -2  12    4.65    0.73   0
  -6  -1  11   26.89    1.00   0
  -6   0   9   16.24    1.20   0
  -7  -2   9   56.67    1.40   0
  -7  -4   8    4.85    0.69   0
  -7  -2   8    1.76    0.87   0
  -7  -2   7   22.59    1.19   0
  -6   0   8   12.91    1.28   0
  -5  -2  13    7.05    0.61   0
  -7  -3   7    1.81    0.91   0
  -6  -4  12    6.23    0.55   0
  -6  -1  10    0.86    0.85   0
  -6  -5  11   14.52    0.55   0
  -6  -2  11  150.55    1.93   0
  -6  -4  11   10.29    0.76   0
  -6  -2  10   32.35    1.30   0
  -6  -1   8  105.54    2.10   0
  -5  -1  11   32.06    1.16   0
  -6  -5   7    7.51    0.81   0
  -6  -5   9    7.74    0.75   0
  -6  -3  10  152.79    2.10   0
  -6  -2   9   20.44    1.36   0
  -6  -2   8   25.66    1.36   0
  -6  -4   6   30.57    1.31   0
  -5  -1  10   18.48    1.23   0
  -6  -4   7   27.77    1.25   0
  -6  -4   8    3.40    0.95   0
  -6  -3   6    1.48    1.14   0
  -6  -3   9    9.46    1.03   0
  -5  -5  12    0.83    0.55   0
  -6  -3   8   23.97    1.36   0
  -5  -3  12    9.28    0.86   0
  -5  -2  11    7.22    0.97   0
  -5  -4  12    2.60    0.64   0
  -5  -6  10   18.28    0.73   0
  -4  -3  13  230.86    2.13   0
  -5  -6   8   23.31    0.93   0
  -5  -6   9   23.31    0.87   0
  -5  -5  11   10.55    0.79   0
  -5  -2  10   38.02    1.50   0
  -4  -2  12    4.67    0.97   0
  -3  -5  14   22.03    0.58   0
  -5  -3  11   36.10    1.15   0
  -4  -7  10   68.13    0.96   0
  -4  -5  13   46.77    0.95   0
  -3  -4  14   27.56    0.68   0
  -5  -4  11   44.18    1.32   0
  -4  -4  13   33.72    0.97   0
  -5  -5  10  170.42    2.10   0
  -4  -7   9    0.12    0.53   0
  -4  -6  12    3.02    0.51   0
  -5  -5   6   -0.06    0.91   0
  -5  -3  10   20.44    1.31   0
  -3  -7  12  128.05    1.05   0
  -5  -4  10    9.20    1.04   0
  -5  -5   7    4.40    1.04   0
  -5  -5   8  104.40    1.91   0
  -5  -3   9   33.34    1.42   0
  -4  -3  12    1.48    0.84   0
  -4  -2  11    5.12    1.09   0
  -5  -4   9   91.39    2.00   0
  -3  -6  13   31.40    0.72   0
  -4  -6  11   53.37    1.15   0
  -4  -5  12  221.72    2.15   0
  -3  -3  13   18.50    0.98   0
   0  -6   9   27.61    1.84   0
   2  -8   8    1.14    0.88   0
   2  -7   9   -0.18    1.09   0
   0  -7   8  136.02    2.51   0
   1  -6   9    2.75    1.47   0
   2  -6   9   57.12    1.88   0
   3  -8   7    0.60    0.76   0
   3  -5   9   21.99    1.33   0
   2  -5   9   61.31    2.16   0
   0  -7   7    6.32    1.31   0
   3  -7   8    9.34    1.10   0
   4  -8   6    0.67    0.61   0
   4  -6   8  291.44    3.04   0
   5  -6   7    9.83    0.91   0
   2  -7   8  140.68    2.38   0
   4  -5   8   -0.45    1.21   0
   5  -7   6   67.30    1.26   0
   1  -6   8   71.34    2.11   0
   4  -7   7  101.44    1.75   0
   3  -6   8   58.47    1.88   0
   0  -7   6    5.50    1.28   0
   2  -8   6    1.24    0.96   0
   3  -5   8    1.24    1.45   0
   3  -7   7    3.17    1.13   0
   4  -8   5   15.62    0.85   0
   2  -7   7    0.38    1.15   0
   4  -6   7    9.48    1.18   0
   5  -8   3  132.82    1.27   0
   5  -6   6    8.42    1.02   0
   6  -7   3    2.15    0.50   0
   4  -7   6   32.64    1.27   0
   2  -8   5   16.98    1.20   0
   3  -8   5   25.54    1.10   0
   5  -5   6    5.35    1.11   0
   1  -8   4    5.76    1.08   0
   3  -6   7    1.09    1.42   0
   4  -8   4   14.17    0.91   0
   6  -6   4    2.01    0.81   0
   5  -8   2    6.70    0.61   0
   2  -7   6    4.55    1.41   0
   3  -7   6  121.65    2.34   0
   2  -8   4   62.73    1.64   0
   3  -8   4    0.72    0.92   0
   5  -6   5    1.39    0.95   0
   6  -7   2   41.08    0.92   0
   4  -8   3   42.36    1.21   0
   4  -7   5   13.91    1.17   0
   5  -8   1    9.46    0.61   0
   3  -7   5    0.38    1.14   0
   3  -6   6   19.73    1.29   0
   5  -8   0   37.28    0.75   0
   6  -6   3   52.16    1.41   0
   4  -8   2    2.26    0.76   0
   4  -7   4  125.11    2.33   0
   5  -7   3   63.31    1.55   0
   2  -8   2   32.22    1.37   0
   3  -8   2   15.83    1.19   0
   4  -8   1  131.83    1.79   0
   2  -7   4  147.61    2.89   0
   3  -7   4   61.39    2.07   0
   5  -5   4    0.99    1.26   0
   6  -6   2   61.07    1.51   0
   4  -7   3    0.17    1.26   0
   5  -7   2   23.23    1.19   0
   6  -7  -1   11.95    0.68   0
   4  -6   4    0.62    1.32   0
   3  -8   0   32.66    1.30   0
   5  -6   3   38.01    1.62   0
   6  -7  -2   15.03    0.63   0
   2  -7   3    3.85    1.23   0
   3  -8  -2    0.40    0.74   0
   3  -8  -1   17.21    1.00   0
   3  -7   3   73.43    2.19   0
   5  -7   1   -0.40    1.01   0
   6  -6   1    0.40    0.94   0
   6  -5   2    6.92    1.12   0
   4  -7   2    3.08    1.30   0
   5  -5   3    7.69    1.45   0
   7  -5  -1   73.57    1.32   0
   2  -7   2   10.95    1.49   0
   3  -7   2    6.20    1.44   0
   4  -6   3  259.23    3.61   0
   5  -7   0  189.74    2.45   0
   6  -6   0   44.46    1.45   0
   4  -7   1    2.29    1.24   0
   5  -7  -1    9.04    1.09   0
   6  -5   1    0.44    1.19   0
   5  -7  -5   21.40    0.65   0
   6  -6  -1   88.25    1.83   0
   4  -7  -6   13.84    0.62   0
   4  -7   0    2.01    0.82   0
   4  -6   2   41.05    1.78   0
   5  -7  -4    3.64    0.65   0
   5  -7  -3    1.37    0.80   0
   7  -5  -3    6.08    0.83   0
   2  -7   0    0.96    1.37   0
   3  -7   0  232.75    3.26   0
   6  -5   0    1.13    1.22   0
   7  -5  -5    1.43    0.60   0
   7  -5  -4   41.95    1.07   0
   3  -7  -6    2.44    0.53   0
   6  -6  -6    0.22    0.43   0
   2  -7  -1    8.49    1.44   0
   3  -7  -1   11.48    1.40   0
   4  -7  -2   88.72    1.96   0
   5  -6   0   -0.42    1.34   0
   6  -6  -3   15.96    1.08   0
   4  -7  -5    3.13    0.74   0
   6  -6  -5    0.30    0.65   0
   6  -6  -4    4.97    0.80   0
   4  -7  -4    6.70    1.03   0
   3  -7  -2   29.21    1.52   0
   5  -6  -1   17.68    1.51   0
   6  -5  -1   25.25    1.51   0
   3  -7  -4   10.83    1.16   0
   3  -7  -3    0.66    1.12   0
   4  -6   0   10.29    1.56   0
   5  -6  -2   35.76    1.62   0
   4  -6  -1    7.87    1.54   0
   6  -4  -1    8.00    1.46   0
   4  -6  -8    0.50    0.70   0
   5  -6  -3   84.10    2.04   0
   6  -5  -8   59.47    1.02   0
   7  -4  -6    0.98    0.84   0
   7  -4  -5    1.23    0.78   0
   5  -6  -5  100.56    1.93   0
   5  -6  -4   36.62    1.56   0
   6  -5  -3   37.30    1.57   0
   4  -6  -2   23.18    1.72   0
   6  -5  -7    3.18    0.72   0
   6  -5  -6   68.26    1.52   0
   4  -6  -7    4.37    0.86   0
   4  -6  -3  183.43    3.08   0
   4  -6  -4   22.00    1.56   0
   5  -5  -2   92.46    2.49   0
   3  -6  -7    5.34    1.04   0
   3  -6  -3  118.16    2.62   0
   4  -5 -10    4.63    0.63   0
   5  -5  -9    6.15    0.70   0
   7  -3  -8    0.98    0.60   0
   7  -3  -7    3.61    0.87   0
   7  -3  -6    0.21    0.84   0
   2  -6  -5    4.08    1.28   0
   2  -6  -4   37.22    1.80   0
   3  -6  -6   20.78    1.37   0
   3  -6  -5  213.36    3.06   0
   3  -6  -4    4.17    1.39   0
   5  -5  -3    0.96    1.40   0
   5  -4 -11    0.20    0.42   0
   6  -4  -9   28.75    1.05   0
   5  -5  -8  108.62    1.81   0
   5  -5  -4   50.76    2.02   0
   6  -4  -4   36.69    1.70   0
   7  -2  -9    1.98    0.62   0
   5  -5  -7    0.32    1.06   0
   5  -5  -6    2.99    1.21   0
   5  -5  -5    5.41    1.26   0
   6  -4  -8    7.17    0.94   0
   6  -4  -6  115.66    2.26   0
   4  -5  -5    4.42    1.40   0
   4  -5  -7   -0.07    0.90   0
   4  -5  -6  116.75    2.61   0
   3  -5  -8   45.90    1.64   0
   5  -4  -9   62.35    1.59   0
   3  -5  -7   19.19    1.61   0
   3  -5  -6    8.90    1.48   0
   5  -4  -5   17.54    1.67   0
   5  -2 -13    7.73    0.47   0
   6  -3  -6    7.33    1.38   0
   2  -5  -7    1.93    1.22   0
   5  -4  -8   19.71    1.35   0
   5  -4  -7   90.30    2.20   0
   5  -4  -6   20.20    1.64   0
   6  -2 -11    7.29    0.84   0
   4  -4 -10   13.66    1.09   0
   5  -3 -11   23.00    1.09   0
   6  -1 -12   28.26    0.84   0
   4  -4  -9   55.26    1.75   0
   4  -3 -12    0.88    0.79   0
   6  -2 -10    8.90    1.01   0
   3  -4 -10   11.94    1.16   0
   6  -2  -6   17.64    1.49   0
   2  -4 -10    0.62    1.10   0
   4  -4  -8   11.22    1.56   0
   5  -3 -10   36.59    1.48   0
   6  -2  -9    3.81    0.98   0
   4  -4  -7    0.26    1.50   0
   5  -3  -9   96.10    2.13   0
   5  -2 -12   17.17    0.99   0
   6  -1 -11    0.75    0.76   0
   3  -3 -12  161.82    2.08   0
   2  -3 -12    0.52    0.80   0
   3  -4  -8    8.12    1.58   0
   4  -2 -13   29.02    0.97   0
   5  -3  -8    6.46    1.21   0
   5  -1 -13    6.77    0.75   0
   4  -1 -14   12.17    0.66   0
   5  -2 -11    4.07    1.02   0
   4  -3 -10   13.95    1.31   0
   6  -1  -8    1.37    1.25   0
   3  -3 -11   31.35    1.58   0
   5   1 -14    3.41    0.48   0
   6   0 -11    5.36    0.87   0
   3  -2 -13    4.44    0.93   0
   5  -2 -10    9.45    1.33   0
   2  -3 -11    0.42    1.31   0
   4  -3  -9   11.89    1.27   0
   4  -2 -12    5.80    1.12   0
   2  -2 -13   51.00    1.45   0
   5  -1 -12    4.32    0.97   0
   3  -3 -10   46.02    1.91   0
   5  -2  -8   86.87    2.51   0
   3   0 -15    1.53    0.52   0
   2  -3 -10   24.24    1.78   0
   2  -1 -14    3.26    0.86   0
   2   0 -15   74.34    1.22   0
   4  -2 -10    8.50    1.54   0
   5  -1 -10    6.18    1.35   0
   5   1 -13   75.99    1.64   0
   2  -2 -12   -0.74    1.36   0
   5   0 -12    2.80    1.11   0
   3  -2 -11   68.30    2.25   0
   5   2 -13    7.49    0.73   0
   3  -1 -13    5.04    0.85   0
   5   0 -11   24.40    1.55   0
   3   0 -14    9.06    1.04   0
   4   0 -13   12.79    1.27   0
   5   1 -12   -0.08    1.11   0
   2  -2 -11   58.56    1.96   0
   2  -1 -13    1.53    1.19   0
   4  -1 -11    3.10    1.05   0
   1  -2 -11  229.06    3.25   0
   1  -1 -13    0.96    1.04   0
   3  -1 -12   12.07    1.54   0
   5   2 -12  109.00    1.96   0
   2  -8   0   56.22    1.31   0
   3  -8  -4  176.82    1.43   0
   5  -6  -1   18.28    1.18   0
   2  -7   2   11.26    1.11   0
   4  -6   1   64.66    1.74   0
   5  -6  -7   10.96    0.51   0
   4  -7  -1   26.45    1.07   0
   1  -8  -1    0.63    0.69   0
   4  -7  -6   13.90    0.59   0
   4  -7  -2   93.82    1.71   0
   5  -6  -6    3.41    0.61   0
   2  -8  -4   68.28    1.02   0
   2  -8  -3   -0.59    0.77   0
   2  -7   1   43.53    1.50   0
   4  -6   0   11.00    1.14   0
   1  -8  -2   17.09    0.78   0
   4  -7  -5    3.99    0.63   0
   4  -7  -4    6.73    0.81   0
   4  -7  -3   14.66    0.99   0
   1  -8  -3    6.55    0.67   0
   5  -5  -2   94.09    2.06   0
   5  -5  -8  109.00    1.23   0
   3  -7  -1   12.62    1.21   0
   4  -6  -1    8.39    1.25   0
   2  -7   0    0.89    1.02   0
   5  -5  -3   -0.19    1.07   0
   3  -7  -7   28.30    0.71   0
   3  -7  -2   31.96    1.31   0
   2  -7  -8   40.78    0.63   0
   4  -6  -8    0.38    0.44   0
   4  -6  -2   22.89    1.40   0
   5  -5  -7    0.12    0.65   0
   5  -5  -4   52.70    1.55   0
   3  -7  -3    1.13    0.81   0
   5  -5  -6    3.17    0.80   0
   5  -5  -5    5.15    0.96   0
   2  -7  -1    7.80    1.23   0
   3  -7  -6    2.74    0.69   0
   3  -7  -5   74.34    1.45   0
   3  -7  -4   10.02    0.96   0
   1  -7  -8    1.01    0.33   0
   4  -6  -4   23.44    1.33   0
   1  -7  -1   51.40    1.60   0
   2  -7  -2   52.12    1.60   0
   4  -6  -5    7.95    0.95   0
   2  -7  -7  149.12    1.51   0
   3  -6  -9    3.37    0.50   0
   2  -7  -3   10.64    1.13   0
   2  -7  -6    4.54    0.72   0
   4  -5  -9   19.55    0.80   0
   1  -7  -2   57.92    1.64   0
   2  -7  -5   19.97    1.06   0
   0  -7  -7   97.56    1.16   0
   1  -7  -3  208.72    2.66   0
   1  -7  -6   12.63    0.89   0
   1  -7  -4   14.57    1.08   0
   1  -6 -10   22.58    0.52   0
   4  -5  -5    4.37    1.23   0
   1  -7  -5    2.42    0.88   0
   3  -6  -7    5.69    0.92   0
   3  -6  -4    4.95    0.97   0
   4  -5  -7    0.76    0.92   0
   0  -7  -5   69.25    1.41   0
   0  -7  -4    5.52    0.91   0
   2  -6  -9   12.66    0.75   0
   3  -6  -5  237.61    2.77   0
   3  -5 -10   12.50    0.75   0
   2  -5 -11   42.19    0.82   0
   4  -4  -9   53.97    1.39   0
   2  -6  -8    2.96    0.87   0
   1  -6  -9   57.03    1.12   0
   4  -4  -8   12.45    1.16   0
   2  -6  -7   17.56    1.17   0
   3  -4 -11   22.21    0.86   0
   4  -4  -7    0.03    1.08   0
   0  -6  -9   36.55    0.93   0
   2  -6  -6   32.34    1.41   0
   2  -6  -5    5.44    0.93   0
   3  -3 -12  183.25    1.68   0
   1  -6  -8  114.12    1.75   0
   1  -5 -11   36.68    0.89   0
   2  -5 -10    0.87    0.70   0
   2  -4 -12   69.84    1.06   0
   3  -5  -6    9.65    1.37   0
  -1  -6  -8   87.93    1.41   0
   0  -6  -8   25.06    1.08   0
   0  -5 -11   28.36    0.80   0
   1  -6  -7    1.32    0.95   0
   2  -3 -13    9.60    0.53   0
   3  -4 -10   13.42    1.01   0
   1  -6  -5  167.83    2.71   0
  -1  -6  -7    6.20    0.85   0
   0  -6  -7   22.80    1.23   0
   3  -4  -9  130.65    2.16   0
  -1  -6  -6   75.04    1.61   0
   0  -6  -6  230.53    2.80   0
   0  -6  -5  107.89    2.16   0
   1  -5 -10    0.78    0.81   0
   2  -5  -8    6.76    1.12   0
   3  -3 -11   33.76    1.16   0
   1  -4 -12   32.76    0.93   0
   3  -4  -8    7.87    1.40   0
   2  -5  -7    0.04    0.93   0
  -1  -5 -10    0.66    0.65   0
   0  -5 -10   95.00    1.52   0
  -1  -4 -12   11.35    0.62   0
   1  -5  -9    0.58    0.94   0
   1  -2 -14   28.11    0.67   0
   3  -3 -10   50.47    1.57   0
   0  -4 -12  111.07    1.39   0
   1  -3 -13    0.72    0.57   0
   2  -3 -12    0.17    0.81   0
  -2  -5  -9  107.90    1.45   0
   1  -5  -8   32.67    1.52   0
   2  -2 -13   59.88    1.10   0
   0  -5  -9   42.88    1.43   0
   1  -4 -11    2.58    0.83   0
   3  -3  -9    2.35    1.15   0
  -1  -5  -9    0.01    0.85   0
   1  -5  -7   43.18    1.80   0
   0  -3 -13   36.50    0.90   0
  -2  -5  -8    1.00    0.81   0
  -1  -3 -13   62.75    0.96   0
   0  -2 -14   16.86    0.64   0
  -3  -4 -10   54.88    0.93   0
  -1  -2 -14   97.00    0.98   0
   0  -4 -11   45.63    1.31   0
   2  -3 -11    0.46    0.92   0
  -1  -5  -8    1.00    0.93   0
   1  -4 -10  159.73    2.37   0
  -2  -5  -7   23.73    1.23   0
  -1  -4 -11   23.58    0.94   0
  -1  -5  -7  104.70    2.13   0
   1  -1 -14  153.20    1.51   0
   2  -3 -10   26.14    1.55   0
   2  -2 -12    0.53    0.83   0
   1  -4  -9   70.50    1.94   0
   1  -2 -13   28.48    1.10   0
   0  -4 -10   -0.06    1.01   0
  -2  -4 -10    5.21    0.86   0
   0  -3 -12    1.69    0.79   0
  -2  -3 -12    0.55    0.67   0
  -1  -4 -10  257.97    2.80   0
  -4  -3 -10    2.87    0.50   0
  -1  -3 -12   10.13    0.88   0
   2  -2 -11   64.65    1.71   0
   0  -4  -9   12.47    1.14   0
  -3  -3 -11    7.00    0.74   0
   0  -1 -14    9.75    0.77   0
  -3  -4  -8   32.31    1.21   0
  -2  -4  -9    9.43    1.02   0
  -2  -2 -13   11.25    0.70   0
  -2  -1 -14    0.58    0.40   0
   1  -2 -12  251.42    2.78   0
  -1  -2 -13    7.72    0.84   0
   0  -3 -11    7.36    1.07   0
   1  -1 -13    0.32    0.84   0
  -2  -4  -8  234.91    2.94   0
  -1  -3 -11   60.00    1.59   0
   0  -3 -10    9.70    1.26   0
   0  -2 -12    7.76    1.08   0
  -4  -2 -11    0.26    0.53   0
  -3  -3 -10    1.11    0.90   0
  -3  -1 -13    0.60    0.54   0
  -1  -2 -12  143.13    2.15   0
   0  -1 -13    2.03    0.94   0
   1  -1 -12    8.82    1.22   0
   1   0 -13  265.03    2.58   0
  -4   0 -13   -0.08    0.40   0
  -4  -1 -12    5.36    0.53   0
  -3  -3  -9  144.36    2.25   0
  -1  -1 -13    0.33    0.86   0
   0  -2 -11   17.49    1.42   0
  -2  -3  -9    4.70    1.27   0
  -3   1 -14   13.27    0.55   0
  -1  -2 -11   44.64    1.70   0
   0  -1 -12    3.39    1.09   0
   1   0 -12   15.59    1.22   0
  -3  -3  -8   61.85    1.76   0
  -2  -2 -11   38.86    1.41   0
  -3  -1 -12   19.90    1.00   0
  -3   0 -13  107.19    1.51   0
  -1  -1 -12    6.88    1.14   0
  -5   1 -12    7.44    0.41   0
  -4  -1 -11   20.49    1.01   0
  -4   1 -13   70.26    0.98   0
  -3  -2 -10   26.24    1.34   0
  -2  -1 -12  106.64    1.99   0
  -4  -2  -9   10.54    1.04   0
  -2   0 -13    5.60    0.88   0
  -1   2 -14    4.99    0.69   0
  -4   0 -12   78.16    1.32   0
  -2   2 -14    7.48    0.72   0
   0   0 -12   11.25    1.24   0
  -4  -2  -8   32.28    1.37   0
  -3  -2  -9   56.14    1.81   0
  -3  -1 -11   99.41    1.93   0
  -2   3 -14    3.95    0.54   0
  -1  -1 -11   27.55    1.34   0
  -6   1 -10   16.23    0.56   0
  -5  -1  -9   19.02    1.01   0
  -4   2 -13  114.33    1.30   0
  -2  -1 -11    0.65    1.07   0
  -1   1 -13   35.70    1.32   0
  -5   2 -12   63.31    0.92   0
  -3   0 -12    2.63    0.97   0
  -2   0 -12    1.12    0.98   0
  -4   3 -13    0.36    0.49   0
  -5   0 -10  150.64    1.93   0
  -4   1 -12    5.67    0.81   0
  -4  -1  -9   71.65    1.86   0
  -2   2 -13   46.40    1.37   0
  -3   0 -11  131.83    2.30   0
  -1   3 -13    0.66    0.84   0
  -6   2 -10    1.35    0.49   0
  -3   1 -12   31.61    1.29   0
  -2   0 -11   11.50    1.32   0
  -6   1  -9    0.41    0.65   0
  -2   1 -12    8.46    1.28   0
  -5   0  -9    1.57    0.88   0
  -4   0 -10   11.89    1.26   0
  -4   2 -12   21.98    1.03   0
  -5   2 -11   26.62    0.94   0
  -4   1 -11   49.36    1.40   0
  -6   3 -10   95.24    1.09   0
  -5   1 -10   43.97    1.34   0
  -3   2 -12    1.96    0.87   0
  -3   1 -11    1.02    1.15   0
  -2   2 -12    0.66    1.04   0
  -5   0  -8    6.90    1.12   0
  -5   3 -11    0.88    0.65   0
  -6   2  -9    1.22    0.82   0
  -4   0  -9  158.51    2.48   0
  -5   4 -11  141.92    1.47   0
  -4   2 -11  185.09    2.37   0
  -4   1 -10   48.67    1.68   0
  -2   3 -12   63.66    1.60   0
  -2   5 -12    7.65    0.64   0
  -5   1  -9   69.74    1.66   0
  -3   4 -12   -0.08    0.77   0
  -2   4 -12  121.95    1.85   0
  -7   3  -7    8.28    0.53   0
  -3   2 -11   10.99    1.27   0
  -2   2 -11  135.98    2.43   0
  -6   1  -7    0.36    0.80   0
  -6   3  -9    2.31    0.67   0
  -6   5  -9   65.29    0.79   0
  -4   3 -11   26.70    1.20   0
  -5   6   0    0.05    0.67   0
  -5   6   1   15.70    1.08   0
  -4   6   1    6.38    1.20   0
  -5   5  -3    7.15    1.07   0
  -8   4   5    0.25    0.36   0
  -7   5   0    7.94    0.74   0
  -6   5  -2    6.58    0.96   0
  -7   5   1   73.82    1.36   0
  -7   5   3    6.10    0.66   0
  -7   5   2   10.45    0.82   0
  -6   4  -3    0.78    0.90   0
  -6   5  -1    0.61    0.92   0
  -6   5   5    1.63    0.62   0
  -8   4   2  108.14    1.34   0
  -8   4   4    1.03    0.41   0
  -6   5   0    0.16    1.01   0
  -5   5   5    4.71    0.81   0
  -7   4  -1    8.07    0.87   0
  -7   4   6    1.22    0.70   0
  -6   5   1   26.70    1.10   0
  -6   5   2   48.92    1.44   0
  -8   3   0    2.74    0.64   0
  -6   4   7    0.78    0.68   0
  -5   5   3    0.28    1.07   0
  -7   3   8    0.54    0.48   0
  -7   4   1   66.40    1.58   0
  -7   4   2   13.60    1.06   0
  -7   4   4   67.63    1.42   0
  -8   3   5  180.20    1.76   0
  -7   3  -1    0.95    1.02   0
  -7   4   3    4.39    0.90   0
  -6   4   6  112.73    1.75   0
  -9   1   3    2.79    0.49   0
  -8   2   0   -0.20    0.72   0
  -8   3   3    3.44    0.78   0
  -8   3   4    8.30    0.77   0
  -6   4   0  157.29    2.51   0
  -9   1   4    0.32    0.41   0
  -7   3   7    3.06    0.89   0
  -6   4   1    7.38    1.31   0
  -6   4   5   31.59    1.29   0
  -7   3   0   47.95    1.59   0
  -9   0   3    9.80    0.47   0
  -6   4   2   99.86    2.16   0
  -6   4   3   30.50    1.53   0
  -5   4   5   16.92    1.35   0
  -7   2  -1    0.39    0.87   0
  -7   3   6    0.16    0.83   0
  -9   0   4    0.56    0.47   0
  -9   0   6    0.40    0.40   0
  -8   2   2   10.36    1.00   0
  -7   1  10    0.07    0.43   0
  -8   2   6    2.88    0.68   0
  -7   3   2    5.79    1.24   0
  -7   3   5    4.60    0.98   0
  -8   2   3   25.40    1.13   0
  -7   3   3   27.80    1.40   0
  -7   3   4   24.87    1.25   0
  -6   3   7   48.25    1.38   0
  -8   2   4   59.01    1.43   0
  -7   2   8   86.17    1.51   0
  -8   1   1    2.30    0.82   0
  -7   2   0   87.17    1.97   0
  -6   3   6    7.77    1.11   0
  -8   1   2    0.36    0.89   0
  -8   1   7   80.46    1.37   0
  -7   2   1   11.98    1.11   0
  -7   2   7   10.99    1.10   0
  -7   1   9    4.37    0.70   0
  -7   2   6   35.79    1.40   0
  -6   2   8  218.94    2.54   0
  -8   1   4   30.86    1.28   0
  -8   1   5    0.64    0.90   0
  -7   2   3    8.38    1.36   0
  -7   2   4    7.35    1.28   0
  -8   0   2    9.17    0.96   0
  -7   0  10   97.43    1.41   0
  -6   2   7   63.86    1.76   0
  -8  -1   9   -0.23    0.52   0
  -7   1   8    1.05    0.89   0
  -8   0   7    4.94    0.85   0
  -8   0   4   17.95    1.22   0
  -6   1   9   76.98    1.61   0
  -6   2   6   19.13    1.46   0
  -8   0   5   14.48    1.05   0
  -8   0   6    7.75    0.93   0
  -8  -2   9    4.61    0.57   0
  -8  -1   8   68.84    1.29   0
  -8  -3   9    0.91    0.40   0
  -8  -1   3    5.55    0.96   0
  -7   1   6   18.30    1.42   0
  -7  -2  11    2.38    0.45   0
  -7   1   4    7.42    1.23   0
  -7   1   5  101.24    2.26   0
  -8  -1   4    4.28    0.95   0
  -8  -1   7   21.95    1.05   0
  -7  -1  10    0.71    0.83   0
  -6   0  10   11.74    1.13   0
  -6   1   8    0.28    1.12   0
  -8  -1   6   23.08    1.09   0
  -8  -3   4   32.15    0.94   0
  -8  -2   8    3.48    0.71   0
  -7  -3  11    9.23    0.53   0
  -8  -2   4    0.88    0.81   0
  -6  -1  11   27.43    0.97   0
  -8  -2   7   27.39    1.01   0
  -8  -3   5   20.89    0.86   0
  -8  -2   5   98.96    1.72   0
  -7   0   7   14.60    1.34   0
  -8  -3   6    4.14    0.70   0
  -7   0   6    1.27    1.18   0
  -6  -3  12   16.44    0.60   0
  -7  -1   8  115.84    2.09   0
  -6  -1  10    0.40    0.85   0
  -6   0   8   12.85    1.39   0
  -7  -4  10   16.09    0.73   0
  -7  -3  10    1.69    0.67   0
  -7  -1   3    0.14    1.12   0
  -7  -2   9   58.79    1.42   0
  -7  -1   7   54.05    1.69   0
  -7  -5   9   11.03    0.54   0
  -7  -1   4  219.09    3.09   0
  -7  -1   5   20.41    1.46   0
  -7  -2   3  102.67    2.14   0
  -7  -2   8    1.90    1.01   0
  -7  -3   9    0.45    0.81   0
  -7  -4   9   35.06    1.01   0
  -7  -2   4   46.69    1.68   0
  -7  -2   7   22.54    1.36   0
  -7  -2   5   22.33    1.50   0
  -7  -2   6   27.47    1.55   0
  -7  -5   6    0.60    0.63   0
  -7  -4   4    3.93    0.89   0
  -7  -3   8   94.16    1.83   0
  -6  -4  11   11.21    0.77   0
  -7  -4   8    4.73    0.82   0
  -7  -3   4    5.96    1.13   0
  -7  -3   7    1.29    0.68   0
  -7  -4   6   38.14    1.32   0
  -5  -4  12    3.04    0.60   0
  -6  -6   9    0.61    0.60   0
  -6  -4  10    1.31    0.81   0
  -5  -3  11   38.16    1.32   0
  -6  -3   9    9.77    1.11   0
  -6  -6   5   71.66    1.32   0
  -6  -5   9    8.89    0.90   0
  -6  -4   9   32.23    1.26   0
  -4  -6  12    2.94    0.46   0
  -6  -6   7    9.64    0.77   0
  -5  -5  11   10.61    0.87   0
  -6  -3   7    2.60    1.23   0
  -6  -5   8   65.78    1.50   0
  -6  -4   8    3.43    1.03   0
  -5  -7   9   75.92    1.03   0
  -6  -3   6    2.73    0.89   0
  -6  -4   4   13.28    1.19   0
  -6  -4   7   28.85    1.51   0
  -5  -6  10   19.76    0.84   0
  -6  -4   5   15.16    1.33   0
  -5  -4  10   10.26    1.09   0
  -5  -7   8   34.64    0.90   0
  -5  -3   9   31.98    1.61   0
  -5  -7   5    0.14    0.51   0
  -5  -7   6    8.20    0.71   0
  -5  -7   7    0.72    0.59   0
  -4  -4  11    2.47    0.95   0
  -3  -6  12    6.87    0.63   0
  -5  -6   9   24.32    1.04   0
  -5  -4   9   93.22    2.06   0
  -4  -8   5   -0.27    0.29   0
  -4  -6  11   52.54    1.18   0
  -4  -7  10   69.16    1.10   0
  -4  -5  11   11.34    0.93   0
  -5  -5   9   20.25    0.97   0
  -4  -8   6   23.76    0.73   0
  -4  -8   7   48.32    0.83   0
  -5  -6   8   24.70    1.05   0
  -5  -4   8   28.44    1.49   0
  -3  -7  11    2.47    0.53   0
  -5  -5   8  102.88    1.99   0
  -4  -4  10   47.60    1.56   0
  -5  -6   5    4.12    0.89   0
  -5  -6   6   70.64    1.58   0
  -4  -7   9    0.15    0.67   0
  -4  -6  10    6.09    0.87   0
  -5  -5   7    3.72    1.09   0
  -4  -5  10    0.41    0.95   0
  -5  -5   4   60.85    1.73   0
  -3  -8   9    6.66    0.54   0
  -3  -6  11   14.36    0.89   0
  -3  -5  11   74.08    1.55   0
  -4  -7   8  115.15    1.68   0
  -4  -6   9   49.85    1.38   0
  -3  -7  10   50.93    1.13   0
  -2  -8  10    1.74    0.42   0
  -4  -7   4   -0.15    0.90   0
  -2  -7  11    5.32    0.64   0
  -4  -7   6   10.63    0.92   0
  -3  -8   8   91.89    1.25   0
  -4  -6   8   45.17    1.42   0
  -4  -5   8  111.74    2.16   0
  -3  -8   4    4.02    0.57   0
  -3  -5  10   63.74    1.66   0
  -2  -6  11  151.53    1.91   0
  -2  -5  11   35.16    1.24   0
  -4  -6   7    0.45    0.97   0
  -3  -8   6   55.61    1.17   0
  -3  -7   9   16.48    0.94   0
  -1  -7  11    3.50    0.56   0
  -2  -8   9   21.16    0.77   0
  -1  -8  10    2.56    0.43   0
  -4  -6   4    4.19    0.97   0
  -3  -7   8    6.46    0.93   0
  -3  -6   9   73.82    1.77   0
   0  -7  11    8.16    0.54   0
  -3  -5   9    9.19    1.21   0
  -1  -9   7    0.87    0.39   0
  -1  -6  11    0.94    0.75   0
   0  -8  10    9.58    0.54   0
  -2  -8   8   12.34    0.81   0
   0  -9   8   10.32    0.40   0
  -2  -6  10    1.33    0.86   0
  -2  -5  10    5.51    1.05   0
  -3  -6   8    2.47    1.02   0
  -1  -9   4   23.76    0.70   0
  -2  -7   9    1.04    0.83   0
  -1  -9   5  340.32    2.07   0
  -3  -7   4    7.01    1.13   0
  -3  -7   5   24.60    1.25   0
  -2  -8   7  158.56    1.93   0
  -3  -6   7   98.38    2.10   0
  -3   7  -9   28.92    1.30   0
  -2   5 -10   11.24    1.64   0
  -2   7  -9   -0.07    1.02   0
  -4   6  -9  115.25    1.98   0
   0   7  -7    5.86    1.37   0
  -2   8  -7  110.82    1.84   0
  -1   6  -9    2.37    1.60   0
  -5   7  -7    7.85    0.68   0
  -4   5  -9   54.07    1.76   0
  -4   7  -8    0.32    0.82   0
  -3   6  -9   23.07    1.36   0
  -2   6  -9   58.03    2.03   0
  -4   8  -6    0.68    0.60   0
  -3   4  -9   27.41    1.54   0
  -3   7  -8    8.44    1.20   0
  -2   5  -9   62.28    2.19   0
  -2   7  -8  139.74    2.46   0
  -2   8  -6    0.37    0.96   0
  -3   8  -6   16.43    1.05   0
  -4   7  -7   99.05    1.89   0
  -4   8  -5   16.15    1.00   0
  -5   6  -7    9.68    1.10   0
  -5   7  -6   66.33    1.35   0
  -4   5  -8   -0.11    1.27   0
  -3   6  -8   59.29    2.02   0
  -2   6  -8  299.87    3.91   0
  -2   8  -5   16.74    1.15   0
  -3   7  -7    3.53    1.12   0
  -6   7  -4    3.49    0.53   0
  -5   8  -3  130.78    1.26   0
  -5   5  -7  144.37    2.40   0
  -6   6  -5   18.55    1.16   0
  -4   6  -7    9.35    1.43   0
  -4   7  -6   32.26    1.47   0
  -5   7  -5   27.96    1.18   0
  -3   8  -4   -0.08    1.00   0
  -2   7  -6    4.10    1.10   0
  -3   6  -7    0.62    1.42   0
  -3   7  -6  123.20    2.47   0
  -4   5  -7   21.94    1.79   0
  -4   8  -3   42.44    1.26   0
  -3   8  -3  159.96    2.25   0
  -6   5  -5   58.70    1.65   0
  -2   7  -5    7.70    1.61   0
  -7   6  -2    3.54    0.56   0
  -5   5  -6    5.74    1.46   0
  -4   7  -5   13.57    1.33   0
  -4   8  -2    2.99    0.86   0
  -6   6  -4    2.29    0.95   0
  -5   7  -4    1.02    1.03   0
  -4   6  -6   34.00    1.62   0
  -3   8  -2   15.29    1.12   0
  -4   8  -1  128.98    1.80   0
  -4   8   1    8.78    0.59   0
  -3   6  -6   20.27    1.77   0
  -5   6  -5    1.33    1.27   0
  -7   6  -1   20.33    0.88   0
  -4   7  -4  129.03    2.43   0
  -6   7  -1   11.92    0.87   0
  -5   7  -3   61.42    1.72   0
  -6   5  -4    0.62    1.21   0
  -5   5  -5   98.09    2.55   0
  -4   6  -5   23.67    1.80   0
  -7   5  -2    4.18    1.09   0
  -6   7   0   13.73    0.87   0
  -5   6  -4   96.76    2.37   0
  -4   7  -3    0.24    1.28   0
  -5   7  -2   23.92    1.38   0
  -6   7   1   11.17    0.77   0
  -6   7   2   15.74    0.68   0
  -4   6  -4    1.29    1.51   0
  -2   7  -2   10.35    1.59   0
  -7   6   1    7.34    0.75   0
  -6   5  -3  164.26    2.74   0
  -6   6  -2   63.41    1.80   0
  -7   5  -1   69.30    1.65   0
  -5   5  -4    1.54    1.74   0
  -5   7  -1   -0.47    1.03   0
  -3   7  -2    4.85    1.57   0
  -7   6   3   19.38    0.72   0
  -5   7   0  187.50    2.57   0
  -6   4  -3   -0.17    1.40   0
  -6   6  -1    0.71    1.01   0
  -5   7   4    3.36    0.69   0
  -4   7  -1    1.70    1.35   0
  -3   7  -1   13.41    1.67   0
  -4   6  -3  269.99    4.01   0
  -7   4  -1    7.14    1.22   0
  -7   5   0    8.33    1.11   0
  -6   5  -2    7.31    1.45   0
  -5   6  -2    7.86    1.50   0
  -5   7   3    1.30    0.95   0
  -8   4   3    4.65    0.65   0
  -5   7   2   52.82    1.48   0
  -4   7   0    2.39    1.24   0
  -3   7   0  217.91    3.28   0
  -6   6   0   41.20    1.70   0
  -4   7   4    5.91    0.89   0
  -8   4   4    0.77    0.54   0
  -4   6  -2   42.33    2.27   0
  -3   7   1   10.97    1.44   0
  -7   5   1   76.87    1.79   0
  -5   6  -1  142.08    2.90   0
  -6   6   1   85.82    2.07   0
  -6   6   2    2.13    1.13   0
  -6   6   5    0.83    0.73   0
  -5   6   0    0.79    1.32   0
  -4   6  -1   64.21    2.35   0
  -6   6   3   16.70    1.22   0
  -6   6   4    4.12    0.92   0
  -7   5   3    7.33    1.04   0
  -8   3   4    7.74    0.75   0
  -7   4   1   66.40    1.97   0
  -7   5   4   41.47    1.27   0
  -7   5   5    1.61    0.70   0
  -6   4  -1    0.60    1.02   0
  -5   6   1   18.17    1.59   0
  -8   3   6    0.32    0.59   0
  -6   5   1   28.66    1.83   0
  -5   6   6    3.17    0.87   0
  -7   4   2   13.30    1.31   0
  -4   6   1    7.00    1.70   0
  -6   4   0  148.37    2.99   0
  -5   6   4   35.33    1.59   0
  -5   6   5   97.27    1.93   0
  -6   5   2   50.41    1.89   0
  -4   6   2   22.63    1.83   0
  -7   4   3    4.10    1.29   0
  -7   4   8    0.92    0.48   0
  -5   5   9    5.91    0.55   0
  -4   6   3  180.40    3.06   0
  -4   6   5    6.81    1.21   0
  -7   3   2    5.46    1.38   0
  -6   5   3   37.70    1.76   0
  -7   4   7   59.80    1.27   0
  -6   4   1    7.24    1.73   0
  -6   5   4   52.03    1.87   0
  -7   4   5    1.44    1.02   0
  -6   5   5    0.78    1.16   0
  -6   5   6   67.37    1.65   0
  -5   5   2  100.66    2.45   0
  -7   3   4   23.48    1.51   0
  -7   3   9   17.72    0.79   0
  -6   4   9   28.70    1.12   0
  -6   4   3   31.10    1.87   0
  -5   5   4   53.59    2.18   0
  -5   5   7    0.11    1.04   0
  -6   3  11    0.02    0.52   0
  -5   5   5    4.94    1.56   0
  -4   5   8    8.13    1.03   0
  -7   3   5    4.38    1.29   0
  -7   3   6    0.44    1.15   0
  -6   4   4   39.44    1.66   0
  -6   4   8    8.07    1.02   0
  -5   4  10   -0.01    0.70   0
  -7   2   4    5.73    1.34   0
  -6   4   5   32.15    1.76   0
  -6   4   7   -0.39    1.16   0
  -4   5   7   -0.30    1.13   0
  -4   5   5    2.53    1.56   0
  -4   5   6  112.12    2.52   0
  -7   1  11   69.10    0.95   0
  -7   2   5    4.74    1.31   0
  -6   2  12   -0.24    0.40   0
  -6   3  10   92.05    1.59   0
  -4   4  10   12.69    0.98   0
  -7   2   7   11.30    1.24   0
  -5   4   5   16.74    1.75   0
  -4   3  12    0.70    0.52   0
  -7   0  11    7.22    0.64   0
  -6   3   9    0.80    1.00   0
  -5   4   6   18.98    1.68   0
  -5   4   7   89.09    2.28   0
  -6   3   8   39.85    1.59   0
  -6   2  11    7.23    0.79   0
  -6   3   6    6.21    1.26   0
  -7   1   7   14.84    1.28   0
  -7   1   8    1.19    1.22   0
  -6   0  13    2.07    0.48   0
  -4   4   7    0.00    1.52   0
  -6   1  12   28.36    0.92   0
  -6   2  10    8.35    1.10   0
  -7   0   9    7.44    0.94   0
  -5   2  12   15.98    1.01   0
  -4   3  11    8.05    0.96   0
  -3   4   8    6.26    1.40   0
  -6   2   6   16.98    1.72   0
  -6   2   9    2.35    1.07   0
  -6  -1  13   48.34    0.88   0
  -5   0  14   17.23    0.63   0
  -5   3   7   11.32    1.51   0
  -5   3   8    6.34    1.49   0
  -3   2  13    3.82    0.62   0
  -6   1  11    0.09    0.83   0
  -5   1  13    7.22    0.68   0
  -4   3  10   14.60    1.25   0
  -5   2  11    5.18    0.94   0
  -6   0  12   97.38    1.60   0
  -6   1  10   55.41    1.69   0
  -4   3   9   11.46    1.48   0
  -6   1   7   68.99    2.21   0
  -5   2  10    9.90    1.22   0
  -6  -1  12    8.31    0.98   0
  -6   1   8   -0.40    1.08   0
  -5   1  12    2.92    0.99   0
  -5  -1  14    3.53    0.55   0
  -3   3   9    1.69    1.35   0
  -4   2  11  116.54    2.33   0
  -3   2  12   -0.44    0.97   0
  -5   0  13   11.38    0.93   0
  -6   0   9   16.47    1.42   0
  -5   1  11  148.59    2.53   0
  -4   0  14   31.01    1.09   0
  -6   0   8   11.19    1.45   0
  -4  -2  15    7.21    0.45   0
  -6  -1  10    1.05    1.00   0
  -5   1  10    6.99    1.31   0
  -3   1  13    5.13    1.13   0
  -6  -1   9   76.68    2.09   0
  -5   0  12    2.74    1.03   0
  -4   1  12   77.74    1.97   0
  -5  -1  13   75.65    1.53   0
  -3   0  14    6.76    0.85   0
  -2   1  13    0.67    0.97   0
  -4   0  13   11.63    1.06   0
  -3   2  10   20.10    1.56   0
  -5  -3  13   58.78    1.28   0
  -4  -1  14   19.17    1.02   0
  -4   1  11    0.76    1.34   0
  -2  -1  15    4.39    0.61   0
  -5  -1  12   -0.17    1.09   0
  -5   0  10  113.51    2.68   0
  -3   1  12   11.73    1.31   0
  -2   0  14    5.70    0.86   0
  -4   1  10   11.41    1.69   0
   4  -3 -11    8.44    0.65   0
   2  -7  -6    4.55    0.57   0
   2  -7  -4    0.28    0.81   0
   4  -5  -8   10.20    0.84   0
   4  -4 -10   13.17    0.80   0
   2  -7  -5   19.19    0.85   0
   3  -6  -8  116.75    1.44   0
   4  -5  -7   -0.25    0.91   0
   4  -5  -5    2.81    1.09   0
   1  -7  -7    0.99    0.47   0
   1  -6 -10   22.79    0.51   0
   3  -6  -7    6.92    0.82   0
   3  -5 -10   12.53    0.66   0
   3  -6  -4    5.25    1.05   0
   3  -3 -12  175.71    1.58   0
   4  -3 -10   15.19    0.92   0
   2  -6  -9   12.55    0.64   0
   2  -5 -11   41.92    0.78   0
   1  -7  -6   13.13    0.71   0
   3  -4 -11   21.41    0.85   0
   1  -7  -5    1.21    0.70   0
   2  -4 -12   71.96    1.04   0
   3  -5  -9    5.47    0.83   0
   4  -4  -7    1.07    0.93   0
   4  -3  -9   11.37    1.12   0
   2  -6  -8    3.33    0.76   0
   0  -7  -6   31.76    0.82   0
   3  -5  -8   53.85    1.50   0
   3  -3 -11   33.57    1.13   0
   1  -6  -9   57.91    1.09   0
   2  -5 -10    0.89    0.71   0
   2  -6  -6   35.10    1.37   0
   2  -6  -5    4.94    1.04   0
   3  -5  -6   10.53    1.22   0
   1  -3 -13    0.58    0.42   0
   3  -4  -9  130.23    2.08   0
   2  -5  -9   45.19    1.36   0
   3  -3 -10   49.78    1.52   0
   0  -5 -11   29.24    0.74   0
   3  -4  -8    8.67    1.26   0
  -1  -6  -9   48.30    0.85   0
  -1  -5 -11   11.65    0.49   0
   1  -6  -7    1.48    0.92   0
   1  -5 -10    1.09    0.73   0
   2  -5  -8    7.36    1.01   0
   2  -2 -12    0.08    0.89   0
   3  -3  -9    1.37    1.10   0
   0  -3 -13   36.25    0.79   0
   1  -6  -6   90.47    1.88   0
   1  -2 -13   28.59    0.89   0
   0  -6  -8   26.64    1.06   0
   1  -6  -5  171.89    2.48   0
   2  -5  -7    1.34    1.17   0
   2  -4 -10    2.50    0.73   0
   2  -3 -11   -0.26    0.85   0
  -1  -3 -13   62.14    0.84   0
   1  -4 -11    3.03    0.82   0
  -2  -6  -8   10.78    0.60   0
  -1  -4 -12   11.81    0.54   0
   0  -6  -7   24.32    1.13   0
   1  -5  -9    0.37    0.96   0
   1  -3 -12   63.03    1.38   0
   2  -4  -9  122.81    2.27   0
   0  -5 -10   94.77    1.56   0
   2  -2 -11   63.83    1.65   0
   0  -6  -6  237.33    2.75   0
   0  -6  -5  113.60    2.07   0
   1  -5  -8   34.51    1.58   0
  -1  -6  -7    6.02    0.96   0
  -1  -5 -10    0.57    0.64   0
  -2  -5 -10    2.04    0.55   0
   0  -4 -11   45.82    1.25   0
   1  -5  -7   42.82    1.64   0
   1  -4 -10  160.98    2.30   0
   1  -2 -12  250.32    2.53   0
   0  -5  -9   42.98    1.36   0
  -1  -6  -6   78.48    1.69   0
   1  -3 -11    1.24    0.93   0
  -3  -4 -11    3.83    0.42   0
  -2  -6  -6   65.89    1.48   0
  -1  -2 -13    7.72    0.71   0
   1  -4  -9   69.11    1.96   0
  -3  -5  -9    1.84    0.63   0
  -1  -4 -11   23.83    0.94   0
   0  -5  -8   58.86    1.83   0
  -3  -3 -12    0.40    0.41   0
  -2  -4 -11    1.87    0.77   0
  -2  -2 -13   11.21    0.60   0
   0  -4 -10   -0.20    1.20   0
  -4  -5  -8   43.68    0.82   0
   1  -3 -10  140.30    2.31   0
   1  -2 -11  253.62    2.91   0
  -2  -3 -12    0.84    0.78   0
   0  -2 -12    7.96    0.97   0
  -1  -1 -13    0.45    0.63   0
  -3  -1 -13    0.01    0.51   0
  -1  -4 -10  261.54    2.87   0
   0  -4  -9   13.47    1.46   0
  -3  -5  -8   23.04    1.18   0
  -2  -5  -8    0.56    1.29   0
  -4  -3 -11   91.49    1.08   0
  -1  -5  -7  104.41    2.30   0
  -4  -5  -7   31.65    1.01   0
  -2  -4 -10    5.46    1.25   0
  -1  -3 -11   60.57    1.69   0
  -1  -2 -12  139.87    2.10   0
   0  -3 -10    9.48    1.53   0
   0  -2 -11   17.49    1.29   0
  -2  -5  -7   22.79    1.63   0
  -1  -4  -9    8.86    1.49   0
  -3  -5  -7  170.84    2.28   0
  -3  -3 -11    6.96    0.99   0
  -2  -3 -11  159.60    2.16   0
  -5  -4  -8   35.62    0.90   0
  -4  -5  -6    6.51    1.01   0
  -2  -5  -6   11.23    1.43   0
  -2  -4  -9    9.48    1.31   0
  -1  -1 -12    7.11    1.03   0
  -3  -4  -9    1.22    1.12   0
  -1  -3 -10   29.18    1.74   0
  -3  -5  -6    0.94    1.22   0
  -1  -2 -11   45.98    1.63   0
  -4  -1 -12    4.91    0.67   0
  -2  -1 -12  107.88    1.82   0
  -3  -1 -12   20.17    1.16   0
  -2  -4  -8  237.11    3.14   0
  -2  -3 -10    3.27    0.90   0
  -6  -3  -8   18.18    0.65   0
  -4  -4  -8   58.96    1.48   0
  -4  -2 -11    0.00    0.73   0
  -3  -3 -10    2.06    1.10   0
  -5  -4  -7   25.24    0.96   0
  -5  -3  -9  212.62    1.96   0
  -1  -1 -11   27.61    1.39   0
  -4   0 -12   82.77    1.26   0
  -3  -2 -11    0.02    0.69   0
  -5  -1 -11   42.70    0.91   0
  -6  -1 -10    9.09    0.52   0
  -5  -2 -10    0.48    0.66   0
  -3   0 -12    2.40    0.81   0
  -2  -3  -9    4.63    1.24   0
  -6  -2  -9    3.33    0.53   0
  -4  -4  -7    2.72    0.96   0
  -3  -4  -7    0.10    1.14   0
  -4  -3  -9   42.69    1.32   0
  -3  -3  -9  144.62    2.32   0
  -2  -1 -11   -0.11    1.11   0
  -5  -4  -6    6.90    0.90   0
  -7  -3  -5   -0.03    0.27   0
  -4  -2 -10  143.11    2.04   0
  -6  -3  -7  118.33    1.52   0
  -3  -2 -10   26.03    1.39   0
  -3  -1 -11  101.43    1.90   0
  -7  -2  -7    1.15    0.46   0
  -5   0 -11  115.08    1.40   0
  -5  -4  -5    2.90    0.92   0
  -2   0 -11   11.63    1.18   0
  -4  -3  -8    1.29    1.01   0
  -3  -3  -8   61.61    1.83   0
  -7  -1  -8    6.98    0.49   0
  -5  -2  -9    0.76    0.81   0
  -5  -1 -10    7.51    0.78   0
  -5   1 -11    2.51    0.55   0
  -4  -4  -5    6.34    1.19   0
  -6  -2  -8  163.26    1.82   0
  -4   0 -11    4.27    0.84   0
  -6  -3  -6    3.94    0.84   0
  -5  -3  -7    5.99    1.04   0
  -6  -1  -9  117.18    1.50   0
  -4  -2  -9   10.36    0.96   0
  -6   2 -10    2.01    0.42   0
  -7  -2  -6   65.89    1.21   0
  -6  -3  -5  190.46    2.24   0
  -5  -2  -8    7.72    0.95   0
  -5  -1  -9   19.96    1.13   0
  -8  -1  -5   19.25    0.64   0
  -7  -1  -7    9.65    0.69   0
  -7   0  -8   51.07    0.98   0
  -4  -2  -8   32.16    1.56   0
  -4   0 -10   11.60    1.08   0
  -6   0  -9   43.21    1.10   0
  -8   0  -6   62.51    0.89   0
  -6  -1  -8    1.73    0.85   0
  -4  -1  -9   71.63    1.73   0
  -7  -2  -5   11.09    0.84   0
  -6  -3  -4   17.14    1.11   0
  -5  -3  -5   25.54    1.33   0
  -5   2 -10    0.26    0.70   0
  -6  -2  -6   36.68    1.32   0
  -7   1  -8   41.77    0.94   0
  -8  -1  -4   44.97    0.91   0
  -6   3  -9    2.90    0.56   0
  -5  -1  -8   39.73    1.38   0
  -7  -2  -4   15.22    1.00   0
  -7   2  -8    0.69    0.49   0
  -6   2  -9    0.97    0.80   0
  -4   0  -9  167.60    2.63   0
  -8   1  -6   50.50    0.85   0
  -7   0  -7   54.01    1.21   0
  -6  -1  -7   90.36    1.75   0
  -6   0  -8    7.26    0.90   0
  -6  -2  -5   10.12    1.12   0
  -8   2  -6   11.62    0.52   0
  -8  -1  -3  153.93    1.63   0
  -7  -2  -3   12.77    0.97   0
  -5  -1  -7   56.66    1.78   0
  -7  -1  -5   79.58    1.63   0
  -5   0  -8    7.13    1.21   0
  -6  -1  -6    1.13    1.06   0
  -7   0  -6    5.17    0.90   0
  -6  -2  -4   94.10    1.80   0
  -6   0  -7    5.47    1.04   0
  -8  -1  -2    0.81    0.65   0
  -7   3  -7    9.33    0.70   0
  -6   2  -8   14.65    1.02   0
  -6   3  -8    9.85    0.93   0
  -9   1  -1    3.86    0.41   0
  -8   3  -5   29.86    0.69   0
  -7   0  -5   71.77    1.58   0
  -7   1  -6   38.47    1.28   0
  -6   1  -7    0.26    1.02   0
  -8   0  -3   64.82    1.32   0
  -6   0  -6   12.22    1.26   0
  -5   2  -8   23.16    1.29   0
  -9   1   0    3.38    0.42   0
  -8   1  -4   28.08    0.96   0
  -7  -1  -3   24.70    1.26   0
  -7   4  -6   43.16    0.93   0
  -5   3  -8  308.74    2.89   0
  -7   2  -6    1.05    0.72   0
  -6   2  -7   37.62    1.33   0
  -8   0  -2    0.20    0.77   0
  -7   3  -6  220.79    2.16   0
  -6   3  -7   62.84    1.56   0
  -8   2  -4    3.17    0.71   0
  -7   1  -5   13.10    1.07   0
  -8   1  -3    1.52    0.77   0
  -7  -1  -2  105.12    1.98   0
  -6   0  -5   91.04    2.05   0
  -9   2   1   27.59    0.61   0
  -8   0  -1   31.44    1.25   0
  -8   4  -3    6.13    0.56   0
  -7  -1  -1    9.15    1.08   0
  -7   0  -3    1.56    1.05   0
  -7   2  -5   26.67    1.22   0
  -5   3  -7    2.76    1.06   0
  -8   2  -3  105.88    1.64   0
  -7   1  10    0.01    0.47   0
  -6   4   1    9.03    1.19   0
  -6   4   4   38.93    1.53   0
  -5   3   8    5.47    1.02   0
  -8   2   7    7.53    0.64   0
  -6   4   2   97.88    1.96   0
  -6   4   3   32.15    1.41   0
  -5   4   5   18.37    1.13   0
  -9   1   4    0.64    0.34   0
  -7   3   6    0.67    0.87   0
  -6   2   9    3.49    0.86   0
  -6   3   7   48.82    1.53   0
  -8   2   6    2.05    0.72   0
  -7   2   8   86.78    1.56   0
  -7   3   5    4.44    0.89   0
  -5   3   7    9.83    1.28   0
  -8   1   8    0.15    0.51   0
  -6   1  10   56.17    1.27   0
  -9   0   6    0.21    0.36   0
  -7   3   2    6.18    1.10   0
  -6   3   6    6.91    1.22   0
  -8   2   2   11.29    0.89   0
  -8   2   5   42.10    1.17   0
  -7   3   3   29.80    1.33   0
  -8   2   3   24.54    1.14   0
  -8   2   4   62.24    1.46   0
  -7   0  10  101.06    1.41   0
  -7   1   9    4.15    0.79   0
  -6   2   8  220.37    2.76   0
  -9   0   4    0.06    0.45   0
  -8   1   7   81.40    1.46   0
  -5   2   8   84.00    1.98   0
  -9  -1   6   82.73    0.93   0
  -7   2   6   35.83    1.25   0
  -6   1   9   75.84    1.70   0
  -8   0   8   24.12    0.86   0
  -7   1   8    0.62    0.99   0
  -6   2   7   64.86    1.94   0
  -9  -1   5   16.80    0.57   0
  -7   2   5    5.94    1.32   0
  -6   0  10   11.91    0.97   0
  -5   1   9   12.60    1.22   0
  -9  -1   4   21.50    0.63   0
  -8   1   5    1.98    0.86   0
  -7  -1  10    0.72    0.65   0
  -8  -2   9    4.17    0.52   0
  -8   1   2    0.51    0.86   0
  -7   0   9    7.40    0.97   0
  -8   1   3   34.52    1.32   0
  -8   1   4   31.02    1.30   0
  -7   2   3    9.08    1.28   0
  -8   0   7    5.42    0.88   0
  -7   1   7   16.09    1.16   0
  -6   1   8    0.33    1.14   0
  -8  -1   8   70.16    1.26   0
  -8   0   6    8.08    0.94   0
  -6   0   9   16.15    1.33   0
  -6  -1  10    0.23    0.90   0
  -7  -3  10    2.00    0.52   0
  -7  -1   9   53.45    1.42   0
  -8  -2   8    4.15    0.64   0
  -8  -1   7   21.66    1.06   0
  -8   0   5   15.49    1.11   0
  -7   1   5  103.52    2.22   0
  -8   0   2    9.77    0.97   0
  -8   0   4   16.25    1.24   0
  -8   0   3   78.47    1.71   0
  -7   0   7   14.11    1.30   0
  -8  -3   8   66.16    1.04   0
  -7   1   3  114.51    2.34   0
  -8  -1   6   23.19    1.18   0
  -6   0   8   12.53    1.13   0
  -8  -2   7   27.45    1.05   0
  -7   0   6    0.44    1.18   0
  -8  -4   7    5.49    0.50   0
  -8  -3   7    7.64    0.76   0
  -8  -1   2  126.85    1.97   0
  -8  -1   4    5.24    1.05   0
  -8  -2   6    6.92    0.92   0
  -8  -1   3    5.65    0.95   0
  -7   0   5   48.41    1.81   0
  -7  -4   9   34.72    0.93   0
  -7  -1   7   51.60    1.81   0
  -8  -4   6   12.90    0.66   0
  -8  -3   6    4.85    0.81   0
  -8  -2   5  100.25    1.73   0
  -8  -2   2    0.80    0.82   0
  -8  -4   2   -0.11    0.50   0
  -8  -2   3   33.74    1.28   0
  -7  -1   6   76.25    2.10   0
  -8  -3   5   20.50    0.97   0
  -8  -4   3    5.27    0.70   0
  -8  -3   2   68.68    1.31   0
  -7  -5   8  111.93    1.27   0
  -7  -2   7   24.17    1.33   0
  -7  -1   5   19.63    1.44   0
  -6  -3   9   10.06    1.04   0
  -7  -1   3    0.27    1.26   0
  -6  -5   9    8.83    0.86   0
  -7  -6   6    1.89    0.39   0
  -7  -3   7    1.76    0.72   0
  -6  -4   9   33.65    1.21   0
  -7  -5   7   71.95    1.31   0
  -7  -4   7   64.63    1.48   0
  -7  -2   5   22.29    1.50   0
  -7  -3   6  282.52    3.16   0
  -7  -6   5    0.29    0.47   0
  -7  -2   4   46.07    1.79   0
  -6  -6   8   57.33    1.05   0
  -7  -6   4  105.47    1.24   0
  -7  -5   6    1.58    0.77   0
  -7  -2   1    1.94    1.08   0
  -7  -2   2   -0.53    1.19   0
  -7  -2   3  100.07    2.23   0
  -6  -4   8    3.87    1.02   0
  -7  -3   5   45.40    1.43   0
  -5  -7   8   37.49    0.74   0
  -6  -7   6   14.79    0.55   0
  -5  -5   9   21.15    1.09   0
  -7  -5   1   97.10    1.37   0
  -7  -5   5   44.03    1.25   0
  -7  -4   5   47.39    1.52   0
  -7  -3   4    5.87    1.32   0
  -7  -3   2  177.17    2.59   0
  -7  -3   3  104.26    2.16   0
  -7  -5   2    6.11    0.86   0
  -7  -5   4   19.74    0.98   0
  -7  -4   1    1.30    0.93   0
  -7  -4   4    4.03    1.05   0
  -7  -4   2  117.72    1.98   0
  -6  -7   5   93.31    1.13   0
  -6  -3   6    1.34    1.20   0
  -6  -7   4    1.57    0.52   0
  -6  -7   3   20.58    0.69   0
  -5  -7   7    0.70    0.67   0
  -6  -5   6   81.83    1.85   0
  -5  -8   4   64.42    0.83   0
  -5  -8   3    0.59    0.40   0
  -6  -6   0   79.11    1.25   0
  -6  -4   5   15.62    1.32   0
  -6  -6   4    0.77    0.86   0
  -6  -6   1   35.86    1.11   0
  -5  -5   7    4.20    1.22   0
  -6  -6   3   46.97    1.32   0
  -6  -4   4   13.17    1.43   0
  -6  -5   0   13.39    1.06   0
  -6  -5   4   54.45    1.50   0
  -5  -7  -1    9.93    0.56   0
  -6  -5   3   93.20    2.06   0
  -6  -4   0  122.14    2.22   0
  -6  -4   3    3.84    1.26   0
  -6  -5   1   38.91    1.39   0
  -6  -5   2   43.15    1.59   0
  -6  -4   1   53.12    1.78   0
  -6  -4   2   25.19    1.52   0
  -5  -7   5    0.81    0.70   0
  -5  -7   0   48.20    1.11   0
  -5  -7   4   19.53    1.05   0
  -5  -6   5    4.89    1.08   0
  -4  -6   7   -0.03    1.03   0
  -5  -7   3  201.57    2.28   0
  -4  -8   4  113.63    1.49   0
  -4  -7   6   11.08    1.04   0
  -4  -8   0   67.47    0.98   0
  -5  -6  -1    0.37    0.83   0
  -4  -8   3    3.25    0.68   0
  -5  -6   3   24.15    1.30   0
  -4  -8   1   17.04    0.82   0
  -4  -8   2    7.99    0.76   0
  -5  -6   0  103.27    1.87   0
  -5  -6   1    0.06    0.96   0
  -5  -5  -1  214.14    2.69   0
  -2  -9   4    0.90    0.49   0
  -4  -7  -2   98.88    1.38   0
  -3  -8   5    8.30    0.83   0
  -5  -5   0    0.36    1.08   0
  -5  -5   1  100.06    2.21   0
  -3  -8  -2    1.27    0.51   0
  -4  -7   4   -0.31    0.96   0
  -2  -8   6   10.20    0.78   0
  -4  -7  -1  163.29    2.02   0
  -4  -7   3   45.53    1.46   0
  -2  -9   0   58.63    0.82   0
  -2  -9   2    8.37    0.57   0
  -4  -7   0    8.61    0.99   0
  -4  -7   1   83.28    1.75   0
  -4  -7   2    0.81    0.93   0
  -4  -6   4    5.75    1.12   0
  -3  -8  -1    2.56    0.73   0
  -2  -9   1   81.75    1.05   0
  -3  -8   3    0.19    0.71   0
  -3  -7   5   25.06    1.31   0
  -4  -6  -2    3.76    0.92   0
  -4  -6   3   66.10    1.79   0
  -2  -8   5    3.56    0.87   0
  -3  -8   0   65.18    1.27   0
  -3  -8   1    0.39    0.76   0
  -3  -8   2   90.74    1.64   0
  -2  -7   6   70.66    1.69   0
   0  -9   4   17.32    0.60   0
  -4  -6  -1   13.50    1.24   0
  -4  -6   2  141.50    2.50   0
  -2  -8  -3   17.83    0.71   0
  -4  -6   0    5.77    1.11   0
  -4  -6   1    1.09    1.04   0
  -1  -9  -1  110.44    1.10   0
  -2  -8   4   37.28    1.28   0
  -3  -7  -2    1.48    0.99   0
  -3  -7   3   88.60    2.01   0
  -1  -9   0    5.40    0.53   0
  -1  -8   5   72.94    1.48   0
  -2  -7   5  183.81    2.58   0
  -1  -9   1    0.50    0.51   0
   0  -9   3   66.76    1.08   0
  -3  -7   2    1.58    1.08   0
  -2  -8  -2   82.55    1.35   0
  -1  -8  -4  142.68    1.30   0
   0  -9  -2   12.60    0.47   0
  -3  -7   1  168.89    2.52   0
   1  -9   3   21.42    0.62   0
  -3  -7   0    7.93    1.08   0
  -2  -8  -1   16.20    0.91   0
  -2  -8   2   70.68    1.54   0
  -2  -8   0   51.21    1.32   0
  -1  -8   4   16.94    1.06   0
   0  -9   2    3.18    0.57   0
  -2  -7   4   57.14    1.74   0
   0  -9  -1   11.92    0.57   0
   0  -9   0    1.37    0.49   0
   0  -9   1  145.76    1.58   0
  -1  -7   5    0.33    1.03   0
   1  -9  -2    0.55    0.29   0
   1  -9   2    7.81    0.53   0
  -1  -8   3    6.65    0.96   0
  -2  -7  -3    5.01    0.89   0
   0  -8   4   22.85    1.06   0
   1  -9  -1   72.07    0.96   0
  -2  -7  -2    1.13    0.90   0
  -2  -7   2    9.52    1.19   0
  -1  -7  -5    6.52    0.66   0
   1  -9   0   -0.13    0.50   0
  -2  -7   1   63.74    1.84   0
   0  -8  -4  133.70    1.46   0
   2  -9  -1    2.31    0.35   0
  -1  -8   1    0.03    0.61   0
  -5  -2  11    6.79    0.93   0
  -4  -3  13  227.53    2.28   0
  -4  -1  11   65.64    1.69   0
  -2  -2  13    7.13    0.95   0
  -5  -5  12    0.97    0.52   0
  -2  -5  14    9.67    0.55   0
  -2  -4  14    0.79    0.57   0
  -5  -4  12    2.86    0.66   0
  -4  -2  12    4.27    0.72   0
  -4  -4  13   32.59    1.01   0
  -4  -5  13   44.78    0.90   0
  -3  -3  13   18.47    1.01   0
  -1  -3  13   -0.52    0.82   0
  -5  -3  11   37.85    1.23   0
  -5  -2  10   38.64    1.47   0
  -3  -2  12   95.32    1.88   0
  -2  -3  13  295.62    2.93   0
  -4  -3  12    2.35    0.88   0
  -3  -6  13   29.74    0.71   0
  -3  -4  13   10.85    0.91   0
  -5  -5  11    9.85    0.89   0
  -5  -4  11   42.65    1.24   0
  -1  -6  13   39.98    0.86   0
  -4  -6  12    3.23    0.55   0
  -3  -5  13   46.28    1.13   0
  -2  -4  13    8.82    1.00   0
  -5  -3  10   19.21    1.24   0
  -4  -4  12   24.45    1.08   0
  -3  -7  12  125.86    1.09   0
  -1  -5  13  157.41    1.82   0
  -4  -5  12  217.02    2.14   0
  -3  -3  12    1.41    1.02   0
  -5  -6  10   17.31    0.66   0
  -4  -3  11   38.47    1.54   0
  -1  -3  12   -0.34    1.01   0
  -5  -4  10    9.78    1.13   0
  -5  -3   9   31.10    1.36   0
  -5  -5  10  165.05    1.96   0
  -3  -4  12    1.87    0.97   0
  -2  -7  12   13.94    0.68   0
  -4  -4  11    1.96    0.99   0
  -3  -6  12    7.35    0.74   0
  -3  -5  12    2.83    0.92   0
  -3  -3  11   20.38    1.48   0
  -1  -4  12   47.87    1.58   0
  -5  -4   9   88.99    1.99   0
  -4  -5  11   10.21    1.01   0
  -5  -5   9   20.20    1.06   0
  -2  -6  12    3.51    0.79   0
  -1  -6  12    3.44    0.82   0
  -1  -5  12    5.66    0.95   0
  -3  -7  11    2.59    0.61   0
  -3  -4  11   29.98    1.43   0
  -5  -6   8   24.48    0.91   0
   0  -7  11    8.24    0.57   0
  -3  -6  11   13.54    1.02   0
  -3  -5  11   76.23    1.79   0
  -5  -5   8  102.07    1.79   0
  -2  -7  11    4.58    0.69   0
  -2  -4  11    6.14    1.12   0
  -1  -4  11    2.97    1.03   0
  -4  -7   9    0.64    0.62   0
  -2  -8  10    1.89    0.48   0
  -1  -7  11    3.75    0.70   0
   0  -5  11    0.62    0.95   0
   0  -6  11  240.76    2.40   0
  -3  -7  10   52.88    1.21   0
  -2  -6  11  153.83    2.17   0
  -2  -5  11   36.43    1.35   0
  -1  -8  10    2.00    0.54   0
  -1  -5  11   41.38    1.57   0
  -1  -6  11    0.84    0.89   0
  -4  -6   9   48.55    1.45   0
  -4  -5   9   18.70    1.32   0
  -3  -6  10    2.58    0.92   0
  -3  -5  10   65.11    1.85   0
  -4  -7   8  113.88    1.62   0
  -2  -7  10  116.29    1.82   0
   0  -7  10   59.29    1.29   0
  -3  -8   8   90.75    1.34   0
  -2  -9   7   83.79    0.89   0
  -2  -8   9   21.30    0.84   0
  -4  -6   8   46.47    1.43   0
  -3  -7   9   16.40    0.98   0
  -2  -6  10    1.12    1.04   0
  -2  -5  10    5.00    1.28   0
   0  -5  10   30.76    1.52   0
  -4  -5   8  114.07    2.18   0
   0  -8   9   46.35    1.03   0
   0  -6  10   97.99    1.89   0
  -4  -7   7   25.92    1.07   0
  -3  -5   9    9.97    1.24   0
  -1  -8   9  101.17    1.53   0
  -3  -6   9   73.63    1.70   0
  -4  -6   7    0.95    1.07   0
  -2  -9   6    0.30    0.43   0
  -2  -7   9   -0.08    0.98   0
  -1  -9   7    0.65    0.46   0
   0  -9   7   45.24    0.77   0
   1  -8   8   12.69    0.67   0
  -4  -7   6    9.93    0.95   0
  -3  -7   8    6.36    0.99   0
  -2  -8   8   12.11    0.88   0
  -2  -6   9  113.11    2.25   0
   0  -7   9    1.98    0.92   0
  -3  -6   8    2.96    1.19   0
   1  -9   6    5.37    0.45   0
  -3  -8   6   57.67    1.33   0
  -1  -8   8   89.90    1.54   0
   0  -8   8    4.25    0.77   0
   0  -6   9   27.70    1.49   0
  -4  -7   5  119.59    1.78   0
  -4  -6   6   21.15    1.26   0
  -2  -9   5    0.64    0.50   0
  -2  -7   8   37.63    1.48   0
  -1  -9   6    0.09    0.57   0
  -2  -8   7  155.72    2.06   0
   1  -7   8   50.83    1.39   0
  -4  -6   5   77.06    1.81   0
  -3  -8   5    7.84    0.81   0
  -2  -6   8    5.81    1.21   0
  -1  -7   8    0.59    1.05   0
   1  -8   7    0.86    0.79   0
   0  -7   8  134.90    2.20   0
  -3  -7   6   61.95    1.71   0
  -2  -9   3  170.23    1.46   0
  -1  -9   5  336.25    2.33   0
  -1  -8   7   31.48    1.25   0
   0  -8   7  146.07    2.04   0
   1  -9   5   48.48    0.91   0
  -3  -8   4    3.81    0.81   0
  -2  -9   2    7.66    0.53   0
  -2  -8   6   10.03    0.94   0
  -2  -7   7   22.63    1.38   0
  -3  -8   3    0.57    0.71   0
  -1  -9   4   24.62    0.97   0
   1  -7   7   28.49    1.36   0
  -3  -8   2   87.17    1.41   0
  -3  -7   5   23.52    1.32   0
  -1  -8   6    2.98    0.89   0
  -1  -7   7   38.53    1.69   0
   1  -8   6   33.48    1.36   0
   2  -9   3   14.91    0.56   0
  -2  -8   5    3.08    0.96   0
   0  -7   7    6.64    1.27   0
   1  -9   4   29.77    0.84   0
  -2  -7   6   72.67    1.98   0
   0  -9   4   17.05    0.79   0
   2  -8   5   18.28    1.03   0
  -1  -9   3    1.73    0.59   0
  -3  -7   4    6.70    1.23   0
  -1  -9   2   30.50    0.93   0
  -1  -7   6  102.65    2.24   0
   0  -9   3   65.26    1.24   0
   2  -9   2    0.62    0.45   0
  -2  -7   5  181.73    2.76   0
  -1  -9   0    5.41    0.54   0
   1  -8   5   56.76    1.49   0
   1  -7   6   93.52    2.06   0
  -2  -8   3    7.01    1.01   0
   0  -8   5   21.20    1.24   0
  -3  -7   2    1.60    1.00   0
  -1  -8   4   17.66    1.25   0
   0  -9   2    2.10    0.71   0
   1  -9   2    7.62    0.71   0
   2  -9   1   38.09    0.78   0
  -2  -8   2   68.12    1.59   0
  -1  -7   5    0.32    1.20   0
   0  -9   1  142.58    1.63   0
   2  -9   0   23.91    0.63   0
  -2  -8  -2   79.79    1.10   0
  -2  -8   1    1.83    0.86   0
   0  -9  -1   11.85    0.64   0
   0  -9   0    0.99    0.64   0
   0  -8   4   22.98    1.34   0
   1  -9   1   11.00    0.73   0
   1  -8   4    5.05    1.05   0
  -1  -8   3    6.47    1.00   0
   1  -7   5   34.48    1.55   0
  -2  -8  -1   16.40    0.80   0
  -2  -8   0   51.30    1.25   0
   1  -9  -2    0.67    0.33   0
   1  -9   0    0.13    0.53   0
  -2  -7   3    0.05    1.28   0
   1  -9  -1   70.54    1.01   0
   2  -8   3    8.08    0.95   0
   0  -8   3   25.91    1.33   0
  -1  -8   2  151.85    2.27   0
   2  -7   4  169.32    2.46   0
  -1  -8  -4  136.99    1.19   0
  -2  -7   2    8.44    1.27   0
   3  -8   1   18.09    0.84   0
  -1  -8   1    0.88    1.03   0
   0  -8   2   53.58    1.58   0
   2  -8   2   37.27    1.25   0
  -2  -7   1   63.43    1.75   0
  -1  -8  -3   26.15    0.85   0
  -1  -8  -1    1.22    0.89   0
   0  -8  -5    8.42    0.49   0
   2  -7   3    4.35    1.12   0
   3  -8   0   35.78    1.05   0
  -2  -7   0    9.10    1.24   0
   0  -8   1   25.65    1.30   0
   2  -8   1   94.02    1.77   0
   1  -8   1    0.92    0.99   0
  -2  -7  -1  216.58    2.68   0
   3  -8  -1   17.96    0.85   0
  -2  -7  -2    1.61    0.82   0
   0  -8   0   28.77    1.15   0
   0  -8  -4  128.27    1.50   0
   0  -8  -1    1.80    0.87   0
   1  -8   0  171.63    2.31   0
   3  -8  -4  182.98    1.43   0
   3  -8  -2    0.09    0.68   0
   0  -8  -2  108.62    1.75   0
   2  -7   2   10.78    1.22   0
   3  -8  -3   39.77    0.92   0
   2  -8  -5   28.69    0.69   0
   3  -7   1   14.84    1.18   0
   1  -8  -1   -0.13    0.94   0
  -1  -7   0   40.85    1.66   0
   1  -8  -4   74.11    1.25   0
   1  -8  -2   18.01    1.06   0
   2  -8  -4   73.00    1.25   0
   2  -8  -2  101.62    1.64   0
   1  -8  -3    6.15    0.86   0
   2  -8  -3   -0.28    0.65   0
  -1  -7  -5    7.26    0.78   0
   0  -7  -7   92.83    1.13   0
   4  -7  -2   94.92    1.57   0
  -1  -7  -4    1.24    0.83   0
  -1  -7  -2   16.94    1.28   0
   4  -7  -6   14.65    0.50   0
   2  -7   0    0.88    1.23   0
   4  -7  -3   15.82    0.85   0
   0  -7  -1   87.19    2.00   0
   3  -7  -1   12.68    1.18   0
   4  -7  -4    6.51    0.72   0
   0  -7  -2   15.80    1.33   0
   3  -7  -7   29.48    0.73   0
   1  -7  -1   51.97    1.75   0
   3  -7  -2   32.48    1.33   0
   0  -7  -4    5.23    1.07   0
   2  -7  -7  151.40    1.59   0
   1  -7  -6   13.13    0.87   0
   1  -7  -2   60.42    1.82   0
   3  -7  -6    2.99    0.66   0
   3  -7  -3    1.86    0.96   0
   5  -6  -6    3.83    0.47   0
   2  -7  -2   52.41    1.58   0
   1  -7  -5    1.37    0.86   0
   1  -7  -4   14.60    1.12   0
   1  -7  -3  214.79    2.78   0
   2  -7  -6    4.05    0.86   0
   2  -7  -3   10.19    1.20   0
  -1  -6  -5   17.43    1.24   0
   2  -7  -5   20.69    1.16   0
   2  -7  -4   -0.05    0.90   0
  -1  -6  -4   52.78    1.68   0
   1  -6  -9   56.41    1.03   0
   2  -6  -9   13.09    0.87   0
   4  -6  -7    4.40    0.78   0
   0  -6  -6  234.67    2.90   0
   0  -6  -5  111.05    2.32   0
   1  -6  -8  119.66    1.86   0
   3  -5 -11   86.24    0.99   0
   4  -6  -5    8.15    1.08   0
  -1   1 -15   -0.08    0.43   0
   0  -1 -13    0.76    0.69   0
   3   3 -11   20.47    1.17   0
   0   0 -14   14.67    0.90   0
   1   4 -14    1.24    0.54   0
   0   2 -15    1.36    0.53   0
   0   3 -15    8.52    0.58   0
   1  -1 -12    8.36    1.06   0
   2   0 -12   -0.39    1.03   0
  -1   0 -14   14.03    0.75   0
   1   1 -14   48.44    1.21   0
   2   3 -13  299.19    2.80   0
   2   4 -12  125.86    1.87   0
   1   0 -13  257.26    2.67   0
   2   2 -13    6.70    0.98   0
  -1   2 -15  156.18    1.34   0
  -1   3 -15   14.15    0.53   0
   1   2 -14   12.35    0.96   0
   2   1 -12   77.36    1.70   0
   2   3 -12   16.76    1.17   0
   0  -1 -12    3.02    0.91   0
   0   1 -14   59.71    1.33   0
   0   4 -14   16.24    0.76   0
   1   4 -13   48.60    1.27   0
   2   2 -12    6.49    1.10   0
   1   1 -13   69.99    1.67   0
   1   0 -12   15.38    1.27   0
   0   2 -14    1.46    0.83   0
   0   3 -14   16.00    0.91   0
  -2   1 -14  121.88    1.36   0
   1   2 -13   13.20    1.11   0
   1   3 -13    0.04    0.65   0
  -1   0 -13  162.44    2.01   0
  -1   4 -14   60.97    1.08   0
   1   4 -12   49.98    1.44   0
  -2   0 -13    4.90    0.68   0
  -1   5 -13   66.06    1.04   0
  -3   3 -14   64.79    0.81   0
  -1   2 -14    4.65    0.79   0
   0   1 -13   47.67    1.46   0
   1   1 -12   42.95    1.56   0
  -2   2 -14    7.83    0.73   0
  -1   3 -14   50.45    1.17   0
   0   0 -12   10.87    1.13   0
  -2   3 -14    3.52    0.72   0
  -2   5 -13   19.49    0.65   0
   1   2 -12   49.66    1.67   0
   1   3 -12   -0.19    1.05   0
   0   2 -13   36.66    1.38   0
   0   3 -13  187.00    2.34   0
  -1   0 -12   13.88    1.19   0
  -1   4 -13    5.65    0.86   0
  -2   1 -13   10.87    0.94   0
  -1   5 -12    0.98    0.77   0
   0   1 -12   55.30    1.57   0
  -4   3 -13    0.23    0.35   0
  -3   0 -12    2.51    0.72   0
  -2   0 -12    1.82    0.82   0
  -1   2 -13   40.99    1.41   0
  -3   4 -13   19.67    0.84   0
  -1   3 -13    0.92    0.83   0
   0   2 -12    1.78    1.08   0
  -3   2 -13  143.35    1.73   0
  -2   2 -13   43.50    1.26   0
  -2   5 -12    7.45    0.76   0
  -5   3 -12   12.41    0.43   0
  -3   3 -13    0.83    0.65   0
  -3   5 -12   11.48    0.76   0
  -2   3 -13   26.60    1.13   0
  -1   4 -12    6.91    1.01   0
  -4   0 -11    3.82    0.72   0
  -2   1 -12    8.42    1.10   0
  -1   2 -12  126.61    2.34   0
  -3   1 -12   30.46    1.23   0
  -2   0 -11   10.29    1.15   0
  -4   4 -12   78.32    1.20   0
  -3   0 -11  125.37    2.02   0
  -2   4 -12  119.77    1.99   0
  -5   1 -11    2.20    0.60   0
  -2   2 -12    0.93    1.04   0
  -4   3 -12   16.27    0.86   0
  -2   3 -12   63.77    1.64   0
  -2   5 -11   14.11    0.98   0
  -1   4 -11    0.73    1.03   0
  -4   5 -11   40.86    0.99   0
  -3   2 -12    1.87    0.94   0
  -3   3 -12   98.57    1.84   0
  -3   5 -11  134.59    1.83   0
  -6   4 -10    2.75    0.41   0
  -5   4 -11  139.29    1.40   0
  -2   1 -11    3.06    1.38   0
  -4   1 -11   48.36    1.40   0
  -5   3 -11    0.90    0.63   0
  -5   5 -10    4.29    0.56   0
  -3   1 -11   -0.07    0.99   0
  -2   4 -11    6.68    1.09   0
  -6   2 -10    1.39    0.52   0
  -4   0 -10   10.52    1.04   0
  -3   0 -10   51.69    1.63   0
  -2   5 -10   11.63    1.13   0
  -6   3 -10   97.17    1.19   0
  -4   4 -11    0.46    0.75   0
  -2   3 -11    6.59    1.27   0
  -4   2 -11  183.15    2.35   0
  -5   1 -10   44.17    1.28   0
  -4   3 -11   26.39    1.24   0
  -4   5 -10    6.09    0.86   0
  -3   2 -11   10.41    1.03   0
  -3   5 -10    5.52    0.95   0
  -6   1  -9    0.41    0.65   0
  -5   4 -10   14.45    0.86   0
  -4   1 -10   52.42    1.61   0
  -6   4  -9   26.73    0.86   0
  -5   3 -10   54.65    1.44   0
  -5   5  -9    9.15    0.78   0
  -4   0  -9  158.33    2.41   0
  -7   2  -8    0.18    0.52   0
  -4   4 -10   22.87    1.27   0
  -3   4 -10   51.07    1.51   0
  -7   3  -8  111.03    1.26   0
  -6   5  -8    0.36    0.56   0
  -4   2 -10    0.18    1.20   0
  -6   3  -9    2.14    0.73   0
  -4   3 -10   78.27    1.89   0
  -4   5  -9   58.53    1.52   0
  -3   3 -10    8.76    1.13   0
  -5   1  -9   70.71    1.71   0
  -7   5  -6   -0.01    0.46   0
  -5   4  -9    0.05    0.86   0
  -7   1  -7   55.45    1.14   0
  -6   1  -8  146.09    2.03   0
  -4   1  -9   45.89    1.53   0
  -3   4  -9   30.01    1.59   0
  -7   4  -7   39.94    0.88   0
  -5   2  -9   95.13    2.04   0
  -5   3  -9   68.82    1.75   0
  -5   5  -8   62.73    1.48   0
  -3   5  -8    2.44    1.12   0
  -6   4  -8    2.54    0.80   0
  -4   5  -8   -1.17    1.28   0
  -8   1  -5   26.58    0.71   0
  -6   5  -7   -0.12    0.70   0
  -4   2  -9    2.56    1.14   0
  -7   2  -7   34.45    1.11   0
  -7   3  -7    8.46    0.79   0
  -6   3  -8   10.08    0.81   0
  -5   1  -8  132.09    2.31   0
  -8   3  -5   29.38    0.74   0
  -7   5  -5   79.73    1.14   0
  -5   4  -8   75.50    1.65   0
  -8   2  -5   26.17    0.79   0
  -4   4  -8   20.63    1.61   0
  -8   4  -4   71.23    1.00   0
  -7   4  -6   41.92    1.09   0
  -6   1  -7   -0.44    1.02   0
  -6   4  -7   41.92    1.30   0
  -5   2  -8   22.31    1.32   0
  -5   3  -8  304.95    3.41   0
  -7   3  -6  213.44    2.33   0
  -6   3  -7   62.24    1.71   0
  -8   1  -4   27.97    0.94   0
  -7   5  -4   24.35    0.89   0
  -5   5  -6    6.47    1.15   0
  -8   3  -4   64.89    1.20   0
  -4   5  -6   11.44    1.29   0
  -8   4  -3    5.91    0.60   0
  -7   4  -5   15.79    0.96   0
  -6   4  -6   63.28    1.65   0
  -5   3  -7    2.50    1.20   0
  -7   1  -5   11.68    1.09   0
  -6   1  -6   56.84    1.71   0
  -9   2  -1   52.96    0.75   0
  -7   3  -5   22.02    1.20   0
  -7   5  -3   10.63    0.81   0
  -6   2  -6    5.87    1.32   0
  -6   3  -6   15.94    1.32   0
  -8   1  -3    0.78    0.79   0
  -9   1   0    2.90    0.48   0
  -8   3  -3    8.63    0.82   0
  -8   4  -2    1.39    0.64   0
  -7   4  -4   12.96    0.96   0
  -6   5  -4    0.44    0.92   0
  -7   1  -4  135.00    2.24   0
  -6   1  -5   10.09    1.01   0
  -6   3  -5    4.45    1.28   0
  -5   5  -4    2.63    1.08   0
  -7   0  -3    2.32    1.09   0
  -7   2  -4   80.41    1.94   0
  -6   2  -5  122.44    2.20   0
  -9   1   1    1.54    0.54   0
  -8   1  -2  109.38    1.78   0
  -8   3  -2    3.33    0.65   0
  -7   4  -3    8.71    0.99   0
  -8   4   0   22.03    0.94   0
  -5   5  -3    9.56    1.23   0
  -7   1  -3    7.29    1.17   0
  -7   3  -3  106.38    2.09   0
  -7   5   0    8.74    0.79   0
  -6   5  -2    8.18    1.03   0
  -9   1   2  107.96    1.20   0
  -9   2   2    4.73    0.49   0
  -8   3  -1   45.21    1.28   0
  -7   2  -3  152.11    2.50   0
  -8   1  -1    0.68    0.84   0
  -6   4  -3    2.04    1.15   0
  -8   2  -1   36.56    1.27   0
  -7   0  -2    6.70    1.07   0
  -9   1   3    3.51    0.55   0
  -8   0   0    3.08    0.85   0
  -9   2   4    1.05    0.39   0
  -8   3   0    2.54    0.84   0
  -7   5   2   11.91    0.76   0
  -6   5  -1    0.37    0.96   0
  -7   3  -2   58.74    1.53   0
  -9   1   4    0.36    0.43   0
  -8   4   3    5.27    0.57   0
  -8   4   4    1.27    0.44   0
  -7   1  -2   25.28    1.38   0
  -7   2  -2    3.24    1.18   0
  -9   1   5   50.73    0.71   0
  -8   1   0  129.11    1.98   0
  -8   2   0    0.70    0.82   0
  -6   4  -2   96.43    2.17   0
  -6   5   0    0.57    0.90   0
  -8   3   1   54.39    1.22   0
  -7   0  -1   84.51    1.94   0
  -7   3  -1    0.27    1.06   0
  -8   1   1    2.10    0.88   0
  -8   2   1   27.60    1.12   0
  -8   3   2   38.50    1.16   0
  -7   1  -1   46.07    1.63   0
  -7   2  -1    0.67    1.07   0
  -6   4  -1   -0.17    1.14   0
  -7   4   1   72.85    1.65   0
  -8   3   3    4.03    0.75   0
  -7   3   0   48.97    1.64   0
  -8   2   2   10.41    0.91   0
  -7   4   2   14.18    1.05   0
  -8   1   2   -0.03    0.89   0
  -8   3   4    8.24    0.73   0
  -6   4   0  163.25    2.49   0
  -8   3   6   -0.26    0.48   0
  -7   1   0   79.80    1.91   0
  -7   2   0   85.07    1.81   0
  -7   4   7   59.35    0.82   0
  -7   3   1  103.16    2.04   0
  -7   4   3    4.23    0.87   0
  -7   4   5    0.70    0.65   0
  -7   4   6    1.35    0.53   0
  -6   4   1    8.81    1.04   0
  -8   2   8   44.16    0.72   0
  -7   2   1   12.43    0.92   0
  -7   3   2    5.58    1.11   0
  -7   2  10    4.47    0.49   0
  -7   3   6    0.52    0.88   0
  -5   5   7   -0.41    0.85   0
  -6   3  11    0.22    0.40   0
  -5   5   5    5.00    1.11   0
  -5   5   6    2.61    0.93   0
  -6   4   5   31.63    1.58   0
  -6   4   8    6.83    0.92   0
  -6   4   6  115.38    2.19   0
  -6   4   7    0.54    0.92   0
  -4   5   8    8.30    1.06   0
  -5   4  10    0.59    0.70   0
  -4   4  11   40.48    0.93   0
  -7   2   9    1.45    0.71   0
  -5   3  12  149.10    1.34   0
  -4   5   7    1.27    1.06   0
  -7   2   7   10.82    1.24   0
  -7   2   8   84.55    1.67   0
  -4   5   6  115.48    2.38   0
  -6   3  10   94.25    1.54   0
  -7   1  10   -0.07    0.50   0
  -5   4   9   63.47    1.56   0
  -3   5   7   19.52    1.47   0
  -3   5   6    9.16    1.06   0
  -6   3   5  190.06    3.18   0
  -6   3   9    1.01    0.91   0
  -5   4   5   18.76    1.69   0
  -7   1   8    1.19    1.03   0
  -7   1   9    4.25    0.79   0
  -5   4   6   19.43    1.64   0
  -5   4   8   19.58    1.08   0
  -4   4  10   13.07    1.05   0
  -6   3   6    7.41    1.37   0
  -5   4   7   92.14    2.07   0
  -6   2  11    7.46    0.79   0
  -5   3  11   23.14    1.02   0
  -4   3  12    0.37    0.70   0
  -6   2  10    9.81    1.04   0
  -5   3  10   34.74    1.41   0
  -6   2   6   17.35    1.50   0
  -5   2  12   16.71    0.97   0
  -5   3   9   96.99    2.24   0
  -6   2   7   61.01    2.03   0
  -6   2   8  221.86    3.10   0
  -4   3  11    7.49    1.14   0
  -3   4   8    7.83    1.36   0
  -5   0  14   17.30    0.58   0
  -5   3   7   12.04    1.61   0
  -5   1  13    7.24    0.74   0
  -4   1  14   12.34    0.65   0
  -6   0  12   99.98    1.51   0
  -6   1  10   54.87    1.67   0
  -5   2  11    5.50    1.04   0
  -3   2  13    3.66    0.74   0
  -6  -1  12    8.10    0.81   0
  -6   1   7   70.41    2.06   0
  -6   1   8    0.54    1.22   0
  -6   1   9   72.43    1.91   0
  -4   2  12    6.03    0.96   0
  -4   3   9   10.41    1.39   0
  -6   0  11    5.25    1.01   0
  -5   2  10    9.69    1.28   0
  -5   1  12    3.82    0.97   0
  -3   1  14   77.63    1.27   0
  -3   3  10   42.37    1.74   0
  -5   2   9   61.43    2.08   0
  -6   0  10   11.05    1.12   0
  -5  -2  14    0.75    0.46   0
  -5   0  13   12.04    0.89   0
  -2   1  14    3.32    0.65   0
  -6  -1  11   23.77    1.12   0
  -6   0   9   14.37    1.42   0
  -4   1  13    3.83    0.80   0
  -4   2  11  121.61    2.33   0
  -3   2  12    0.33    0.95   0
  -3   3   9    0.09    1.39   0
  -5   1  11  149.86    2.45   0
  -6  -1  10    0.98    0.95   0
  -4   0  14   31.29    1.03   0
  -4   2  10    8.05    1.44   0
  -2   2  12    0.11    0.90   0
  -5   1  10    5.65    1.31   0
  -5   0  12    2.82    0.74   0
  -4   1  12   79.34    1.75   0
  -3   1  13    4.45    1.04   0
  -5  -3  13   59.77    1.09   0
  -3  -1  15   18.20    0.79   0
  -5  -2  13    7.28    0.87   0
  -4  -1  14   18.26    0.99   0
  -4   0  13   12.29    1.15   0
  -3   2  10   19.76    1.72   0
  -2   1  13    2.35    0.94   0
  -5  -1  12    0.35    1.03   0
  -4   1  11    2.15    0.97   0
  -5   0  10  109.64    2.53   0
  -2  -1  15    4.32    0.76   0
  -4   1  10   12.58    1.55   0
  -2   0  14    5.59    0.92   0
  -1  -1  15    6.86    0.62   0
  -5  -2  12  108.46    1.98   0
  -4  -2  14   42.47    1.16   0
  -3  -2  15   45.32    1.04   0
  -1   0  14    9.18    0.83   0
  -5  -3  12    9.10    0.84   0
  -5  -1  11   29.57    1.34   0
  -4   0  12   23.04    1.49   0
  -4  -3  14   19.79    0.89   0
  -4  -1  13    0.12    1.04   0
  -3   0  13  127.09    2.30   0
  -3  -3  15   41.58    0.93   0
  -3  -1  14    2.94    0.90   0
  -4   0  11    8.37    1.17   0
  -2  -2  15    4.60    0.86   0
   0  -2  15    1.09    0.51   0
  -4  -1  12    3.95    1.28   0
  -2   0  13    0.77    1.13   0
  -4  -4  13   32.46    1.18   0
  -3   0  12    0.24    1.10   0
  -4  -3  13  232.86    2.66   0
  -3  -2  14   23.52    1.25   0
  -3  -1  13  105.39    2.29   0
  -4  -2  12    4.96    1.38   0
  -3  -3  14    9.27    0.94   0
  -2   0  12    0.37    1.38   0
  -4  -4  12   23.28    1.38   0
   0  -3  15    8.74    0.65   0
  -4  -3  12    1.12    1.14   0
  -3  -1  12    5.71    1.51   0
  -2  -2  14   41.66    1.45   0
  -4  -2  11    4.31    1.44   0
  -3  -2  13    8.21    1.03   0
  -1  -4  15   11.70    0.73   0
  -3  -5  13   45.81    1.23   0
  -1  -2  14   12.39    1.23   0
  -4  -4  11    2.55    1.14   0
  -4  -3  11   38.39    1.92   0
  -3  -3  13   19.76    1.37   0
  -2  -3  14   10.13    1.20   0
   0  -2  14    2.09    0.95   0
  -3  -4  13   11.74    1.19   0
  -3  -2  12   97.60    2.53   0
  -2  -4  14    0.16    0.91   0
  -2  -2  13    7.27    1.34   0
  -1  -3  14   38.94    1.44   0
  -3  -5  12    2.70    1.05   0
  -3  -4  12    2.75    1.22   0
  -2  -3  13  306.52    3.70   0
  -1  -5  14    1.24    0.79   0
  -1  -4  14    0.85    0.96   0
   0  -3  14   14.54    1.18   0
  -2  -2  12    6.44    1.53   0
   1  -4  14   60.15    1.34   0
  -3  -3  11   20.11    1.86   0
  -2  -4  13    9.03    1.18   0
   0  -5  14    1.01    0.74   0
   0  -4  14   15.49    1.10   0
  -3  -5  11   75.81    1.89   0
  -3  -4  11   27.23    1.80   0
  -2  -6  12    4.42    0.89   0
  -1  -7  12   54.38    1.07   0
  -1  -3  13    0.28    1.22   0
  -2  -3  12   15.93    1.71   0
  -1  -4  13   50.65    1.77   0
   1  -3  13    1.64    1.26   0
  -2  -4  12  133.58    2.75   0
   0  -6  13    8.50    0.80   0
   0  -2  12    0.96    1.41   0
   2  -4  13   96.96    1.65   0
  -2  -6  11  154.42    2.31   0
   1  -6  13    5.18    0.69   0
   2  -5  13   19.28    0.88   0
  -1  -3  12    0.65    1.44   0
   0  -4  13   51.70    1.73   0
  -1  -7  11    3.00    0.95   0
  -1  -6  12    3.96    1.03   0
   0  -5  13    0.71    1.02   0
   1  -4  13    5.54    1.12   0
  -2  -5  11   34.23    1.72   0
  -2  -4  11    5.57    1.57   0
  -1  -4  12   49.04    1.90   0
   3  -4  12    0.08    0.67   0
  -2  -6  10    1.63    1.05   0
   1  -3  12   44.30    1.78   0
   3  -5  12   10.25    0.74   0
   0  -6  12   82.85    1.74   0
   0  -4  12  199.49    3.10   0
  -2  -5  10    5.14    1.00   0
  -1  -7  10   42.59    1.35   0
  -1  -6  11    1.17    1.13   0
   0  -5  12    1.83    1.26   0
   1  -8  10    3.78    0.57   0
   2  -6  12   71.19    1.36   0
   1  -6  12   80.68    1.67   0
   2  -5  12    6.22    1.03   0
   1  -5  12    0.77    1.01   0
   1  -7  11    0.06    0.67   0
   2  -7  11   76.35    1.29   0
  -1  -7   9    0.21    0.96   0
   2  -3  11    5.20    1.19   0
  -1  -6  10   49.10    1.74   0
   0  -6  11  228.95    2.88   0
   0  -4  11   21.31    1.73   0
   3  -6  11   13.79    0.88   0
   0  -7  10   55.95    1.51   0
   0  -8   8    4.61    0.73   0
   1  -8   9   37.12    1.09   0
   1  -6  11   61.56    1.72   0
   2  -6  11   17.11    1.08   0
   2  -4  11    5.26    1.22   0
   4  -6  10    0.44    0.60   0
   3  -7  10    0.18    0.56   0
  -1  -6   9   39.49    1.70   0
   1  -7  10   92.60    1.75   0
   0  -7   9    2.01    1.00   0
   2  -7  10   24.45    1.08   0
   1  -8   8   11.64    0.89   0
   3  -4  10   39.53    1.62   0
   1  -6  10   47.32    1.68   0
   3  -8   8    4.24    0.60   0
   1  -5  10    0.54    1.29   0
   2  -6  10   58.12    1.72   0
   3  -5  10    4.45    1.04   0
   0  -6   9   27.52    1.68   0
   4  -8   7  171.84    1.41   0
   3  -7   9   27.93    1.15   0
   5  -6   8    1.34    0.66   0
   1  -8   7    0.99    0.84   0
   2  -7   9    0.74    0.98   0
   5  -7   7    7.25    0.57   0
   2   2 -15    4.31    0.78   0
   3   2 -14   23.52    1.10   0
   4   2 -12    4.32    1.18   0
   4   3 -12    2.12    1.01   0
   3   3 -14    8.80    0.99   0
   1  -1 -12    7.80    1.36   0
   2   1 -14   29.93    1.28   0
   4   2 -11    4.67    1.33   0
   4   3 -11   36.54    1.60   0
   1   2 -15  117.49    1.64   0
   3   4 -13   12.60    1.16   0
   3   2 -13    8.21    1.23   0
   1   0 -13  256.70    3.09   0
   1   4 -15   12.13    0.67   0
   3   1 -12    4.92    1.41   0
   3   3 -13   18.60    1.32   0
   1   3 -15   81.14    1.45   0
   2   2 -14   43.27    1.49   0
   2   1 -13    0.46    1.19   0
   2   4 -14    0.66    0.83   0
   2   3 -14    9.91    0.95   0
   0   1 -14   60.32    1.53   0
   0   3 -15    8.39    0.82   0
   3   4 -12    2.64    0.97   0
   0   4 -15   45.82    0.92   0
   2   5 -13    6.87    0.79   0
   3   3 -12    1.26    1.23   0
   1   0 -12   15.67    1.54   0
   1   5 -14    0.86    0.67   0
   1   2 -14   12.59    1.18   0
   2   2 -13    6.96    1.30   0
   2   1 -12   81.91    2.07   0
  -2   2 -14    7.35    0.61   0
   2   3 -13  303.35    3.48   0
   2   4 -13    7.48    1.11   0
   3   3 -11   20.22    1.54   0
   0   0 -12    9.72    1.36   0
   1   3 -14   40.60    1.49   0
  -1   2 -14    4.15    0.90   0
   0   1 -13   45.18    1.67   0
   2   2 -12    6.89    1.38   0
   0   3 -14   15.64    1.17   0
   0   6 -13    7.92    0.72   0
   1   2 -13   11.07    1.09   0
  -2   3 -14    3.30    0.71   0
  -1   5 -14   18.70    0.83   0
   0   4 -14   15.90    1.05   0
   1   5 -13  153.56    2.12   0
   2   4 -12  125.49    2.43   0
  -1   3 -14   49.81    1.34   0
   1   3 -13    0.72    1.10   0
  -1   4 -14   59.64    1.34   0
   0   2 -13   33.38    1.65   0
  -2   6 -13    4.26    0.48   0
  -1   6 -13    5.15    0.59   0
   0   1 -12   49.58    2.01   0
   1   2 -12   48.04    1.97   0
   2   4 -11    7.12    1.29   0
  -2   1 -12    8.61    1.36   0
  -1   1 -12  105.87    2.33   0
  -1   2 -13   37.24    1.58   0
   1   5 -12    4.54    1.10   0
  -3   3 -13    0.45    0.78   0
   0   3 -13  177.75    2.77   0
  -3   5 -13   34.81    0.80   0
   0   4 -13   50.29    1.60   0
   0   6 -12   80.30    1.53   0
   1   3 -12   -0.03    1.39   0
   1   4 -12   50.75    1.81   0
  -1   3 -13    0.96    1.13   0
  -1   5 -13   68.55    1.49   0
  -1   7 -11   -0.29    0.60   0
   0   2 -12    0.48    1.42   0
  -2   5 -13   19.70    0.93   0
  -3   2 -12    1.50    1.13   0
  -1   4 -13    5.11    1.13   0
   1   5 -11   40.25    1.68   0
  -4   5 -12   44.63    0.85   0
  -2   4 -13   97.09    1.76   0
  -2   7 -11   74.90    1.11   0
  -1   2 -12  117.54    2.52   0
   0   5 -12    2.13    1.22   0
  -3   6 -12   82.18    1.10   0
  -2   2 -12    0.05    1.26   0
   0   3 -12   24.58    1.41   0
  -4   4 -12   71.34    1.21   0
  -2   1 -11    2.83    1.39   0
   0   6 -11  234.37    2.70   0
  -1   5 -12    1.76    1.07   0
  -1   7 -10   93.13    1.50   0
  -4   6 -11   26.36    0.72   0
  -1   4 -12    6.71    1.29   0
  -3   5 -12   10.32    0.95   0
  -2   5 -12    6.18    1.14   0
   0   5 -11    1.51    1.33   0
  -2   4 -12  112.54    2.20   0
   0   6 -10   93.71    2.08   0
  -3   2 -11    9.64    1.35   0
  -2   2 -11  124.01    2.53   0
  -3   7 -10   -0.25    0.64   0
  -2   7 -10   25.17    1.02   0
  -3   6 -11   14.04    0.94   0
  -4   5 -11   39.42    1.14   0
   0   5 -10   32.57    1.70   0
  -4   4 -11    0.45    0.96   0
  -1   4 -11   -0.30    1.47   0
  -3   3 -11    3.30    1.26   0
  -3   5 -11  132.93    2.29   0
  -2   5 -11   13.94    1.37   0
  -3   4 -11    6.27    1.35   0
  -4   6 -10    0.47    0.82   0
  -3   2 -10   34.65    1.84   0
  -2   7  -9   -0.18    0.94   0
  -3   7  -9   29.05    1.13   0
  -1   5 -10   -0.59    1.64   0
  -5   6  -9    1.30    0.64   0
  -3   6 -10   45.51    1.48   0
  -1   6  -9    2.56    1.41   0
  -4   5 -10    6.04    1.16   0
  -3   3 -10    8.48    1.78   0
  -2   5 -10   10.25    1.74   0
  -3   5 -10    4.98    1.35   0
  -2   7  -8  143.42    2.30   0
  -6   5  -8    0.09    0.69   0
  -5   5  -9    8.95    1.01   0
  -4   7  -8    0.66    0.85   0
  -3   4 -10   46.46    2.12   0
  -5   4  -9    0.33    1.12   0
  -5   7  -7    7.66    0.71   0
  -4   6  -9  116.32    2.10   0
  -3   7  -8    9.94    1.11   0
  -6   4  -8    2.17    0.86   0
  -6   6  -7   13.56    0.80   0
  -3   6  -9   23.02    1.53   0
  -1   6  -8   72.59    2.25   0
  -7   5  -6    0.44    0.46   0
  -5   6  -8    1.46    0.91   0
  -4   3  -9   56.72    2.07   0
  -2   7  -7    0.31    1.09   0
  -4   5  -9   55.91    1.94   0
  -2   5  -9   66.28    2.13   0
  -3   5  -9   23.71    1.74   0
  -3   7  -7    3.19    1.11   0
  -2   6  -8  318.30    3.97   0
  -5   5  -8   60.22    1.73   0
  -4   6  -8  300.42    3.40   0
  -7   6  -4   56.62    0.93   0
  -6   6  -6   90.74    1.57   0
  -5   6  -7   10.32    1.20   0
  -7   5  -5   74.60    1.37   0
  -4   5  -8    1.25    1.36   0
  -4   7  -6   35.31    1.43   0
  -3   5  -8    1.18    1.66   0
  -4   6  -7   10.16    1.13   0
  -3   6  -7    0.08    1.52   0
  -6   5  -6   27.22    1.39   0
  -5   3  -7    2.13    1.43   0
  -5   5  -7  155.03    2.69   0
  -6   6  -5   19.32    1.16   0
  -5   4  -7    8.12    1.49   0
  -7   6  -3    9.87    0.65   0
  -6   3  -6   15.13    1.50   0
  -5   6  -6    9.26    1.28   0
  -4   7  -5   14.17    1.37   0
  -3   7  -5    0.62    1.13   0
  -4   5  -7   22.21    1.88   0
  -5   7  -4    0.55    0.98   0
  -8   4  -2    1.59    0.61   0
  -4   6  -6   36.17    1.92   0
  -3   6  -6   20.17    1.85   0
  -3   7  -4   60.73    1.90   0
  -7   3  -4    2.87    1.25   0
  -7   6  -2    3.69    0.71   0
  -6   5  -5   62.18    1.79   0
  -6   6  -4    1.42    1.07   0
  -5   5  -6    5.28    1.13   0
  -4   7  -4  131.64    2.32   0
  -6   7  -1   12.57    0.83   0
  -5   6  -5    1.81    1.14   0
  -5   7  -3   64.38    1.56   0
  -7   5  -3   10.01    1.01   0
  -6   3  -5    2.81    1.50   0
  -6   4  -5    5.83    1.35   0
  -6   7   0   13.91    0.76   0
  -6   7   1   11.57    0.61   0
  -4   7  -3    1.70    1.09   0
  -7   6  -1   20.80    0.91   0
  -5   7  -2   23.34    1.23   0
  -6   6  -3   52.73    1.65   0
  -5   5  -5   99.08    2.47   0
  -5   6  -4   96.52    2.23   0
  -7   4  -3    8.44    1.16   0
  -6   5  -4    0.09    1.07   0
  -4   7  -2    2.24    1.11   0
  -7   5  -2    3.82    0.93   0
  -5   7  -1   -0.55    0.90   0
  -4   6  -4    0.31    1.46   0
  -6   6  -2   61.52    1.69   0
  -7   6   1    7.56    0.67   0
  -5   6  -3   37.90    1.81   0
  -4   7  -1    2.29    1.04   0
  -7   6   2   25.06    0.77   0
  -6   5  -3  161.46    2.69   0
  -5   5  -4    0.76    1.50   0
  -8   3   0    2.35    0.78   0
  -5   7   1    8.41    0.86   0
  -6   6  -1    0.75    0.96   0
  -8   4   2  104.96    1.50   0
  -6   5  -2    6.74    1.31   0
  -6   6   0   40.99    1.48   0
  -5   5  -3    8.23    1.58   0
  -7   3  -1    0.27    1.27   0
  -8   4   5   -0.27    0.44   0
  -7   5   1   74.51    1.70   0
  -6   5  -1    1.56    0.94   0
  -6   6   5    0.87    0.55   0
  -5   6   0   -0.37    1.24   0
  -7   5   2   10.96    1.09   0
  -7   5   6   -0.42    0.52   0
  -6   6   3   16.44    1.02   0
  -6   6   4    5.41    0.76   0
  -7   5   3    5.85    0.97   0
  -6   5   0    0.60    1.28   0
  -5   6   1   17.18    1.43   0
  -4   6   0    9.14    1.42   0
  -7   4   1   65.55    1.99   0
  -7   5   4   39.95    1.19   0
  -7   5   5    1.25    0.64   0
  -6   4  -1   -0.54    1.43   0
  -5   6   6    3.08    0.66   0
  -8   3   4    7.67    0.94   0
  -2  -1  13    0.27    0.80   0
  -4   0  11    8.23    0.96   0
  -5  -3  13   59.30    1.14   0
  -6  -3  11   13.24    0.82   0
  -5  -1  11   30.85    1.32   0
  -4  -4  14   55.11    0.92   0
  -6  -2  10   31.43    1.15   0
  -5  -4  13    4.91    0.56   0
  -4  -2  13    6.25    0.88   0
  -4  -1  12    4.60    0.99   0
  -2  -3  14   10.43    0.82   0
  -1  -2  13   10.86    0.96   0
  -3  -2  13    8.49    1.03   0
  -3  -1  12    5.94    1.18   0
  -5  -1  10   17.54    1.11   0
  -2  -4  14    0.90    0.73   0
  -2  -2  13    6.70    0.94   0
  -6  -3  10  146.46    1.88   0
  -4  -3  13  232.11    2.44   0
  -4  -1  11   66.09    1.89   0
  -2  -5  14    9.88    0.53   0
  -6  -4  10    0.78    0.53   0
  -4  -2  12    5.29    0.97   0
  -1  -3  13    0.32    0.85   0
  -4  -5  13   46.78    1.00   0
  -4  -4  13   33.96    1.11   0
  -3  -3  13   19.94    1.12   0
  -3  -2  12   99.34    2.15   0
  -2  -3  13  295.70    2.96   0
  -5  -6  11    6.84    0.51   0
  -5  -3  11   36.77    1.40   0
  -4  -3  12    1.49    0.99   0
  -3  -6  13   30.44    0.79   0
  -2  -2  12    5.96    1.00   0
  -1  -6  13   39.90    0.77   0
  -4  -2  11    6.02    1.26   0
  -3  -4  13   11.18    0.91   0
  -1  -4  13   49.93    1.31   0
  -5  -5  11    9.58    0.93   0
  -5  -4  11   43.31    1.35   0
  -3  -5  13   47.16    1.12   0
  -2  -6  13    8.01    0.63   0
  -1  -5  13  156.23    1.77   0
  -4  -6  12    3.18    0.52   0
  -4  -4  12   23.09    1.16   0
  -3  -7  12  126.38    1.12   0
  -5  -3  10   20.64    1.29   0
  -4  -7  11    3.04    0.44   0
  -3  -3  12    2.49    0.91   0
  -2  -5  13    6.44    0.80   0
  -1  -3  12    1.02    0.98   0
  -4  -5  12  220.09    2.25   0
  -2  -3  12   16.01    1.26   0
  -5  -6  10   17.42    0.75   0
  -4  -3  11   39.17    1.58   0
  -1  -7  12   53.57    0.84   0
  -5  -4  10    9.21    1.02   0
  -5  -3   9   32.49    1.48   0
  -3  -4  12    2.20    0.93   0
  -5  -5  10  164.98    2.06   0
  -3  -6  12    7.01    0.76   0
  -1  -4  12   46.89    1.51   0
  -4  -4  11    2.73    0.97   0
  -3  -5  12    2.77    0.86   0
  -3  -3  11   20.73    1.51   0
  -2  -4  12  129.35    2.22   0
  -4  -6  11   50.56    1.16   0
  -4  -5  11    9.70    0.94   0
  -1  -6  12    4.91    0.71   0
  -1  -5  12    5.48    0.90   0
  -2  -5  12   62.29    1.58   0
  -3  -4  11   29.53    1.43   0
  -4  -4  10   47.17    1.71   0
  -5  -4   8   28.03    1.40   0
  -3  -6  11   13.59    0.99   0
  -3  -5  11   75.46    1.79   0
  -4  -6  10    6.90    0.91   0
  -4  -5  10   -0.12    0.99   0
  -2  -7  11    5.28    0.72   0
  -1  -4  11    3.56    1.23   0
  -5  -5   8  102.18    1.85   0
  -2  -8  10    2.12    0.52   0
  -1  -7  11    2.90    0.76   0
   0  -6  11  237.45    2.34   0
  -4  -7   9    0.57    0.69   0
  -3  -8   9    6.54    0.57   0
  -2  -6  11  150.74    2.19   0
  -1  -5  11   40.40    1.55   0
  -3  -7  10   49.90    1.23   0
  -1  -6  11    0.72    0.89   0
  -4  -8   6   22.67    0.60   0
  -3  -6  10    3.08    1.00   0
  -3  -5  10   63.99    1.87   0
  -4  -7   8  112.75    1.67   0
  -2  -7  10  115.07    1.77   0
  -4  -8   5   -0.23    0.26   0
  -3  -8   8   91.25    1.34   0
  -2  -9   7   84.99    0.93   0
  -2  -8   9   20.73    0.82   0
  -3  -7   9   16.61    1.01   0
  -2  -6  10    1.18    1.04   0
  -2  -5  10    5.86    1.23   0
  -1  -7  10   45.28    1.31   0
  -4  -6   8   46.09    1.48   0
  -4  -5   8  109.77    2.32   0
  -1  -5  10    1.96    1.15   0
   0  -8   9   46.48    0.99   0
   0  -6  10   97.12    1.86   0
  -3  -5   9    9.28    1.36   0
  -1  -6  10   52.05    1.59   0
  -3  -6   9   74.43    1.89   0
  -2  -9   6    0.09    0.51   0
  -2  -7   9    0.60    0.90   0
  -1  -9   7    0.75    0.46   0
   0  -9   7   45.67    0.76   0
   1  -8   8   12.36    0.67   0
  -4  -7   6   10.68    0.95   0
  -4  -6   7   -0.04    1.06   0
  -3  -7   8    5.76    1.04   0
  -2  -8   8   11.62    0.90   0
  -2  -6   9  112.12    2.32   0
   0  -7   9    2.13    0.86   0
  -3  -6   8    3.33    0.96   0
  -1  -8   8   91.30    1.61   0
   0  -8   8    4.75    0.83   0
   0  -6   9   28.27    1.38   0
  -4  -7   5  120.57    1.86   0
  -4  -6   6   20.18    1.35   0
  -3  -8   6   57.31    1.30   0
  -2  -9   5    0.49    0.51   0
  -1  -6   9   45.29    1.78   0
  -1  -9   6   -0.03    0.53   0
  -2  -8   7  153.84    2.08   0
  -2  -7   8   39.43    1.54   0
   1  -7   8   51.42    1.53   0
  -4  -7   4    0.43    0.80   0
  -3  -8   5    7.64    0.96   0
  -4  -6   5   77.94    1.86   0
  -2  -6   8    5.79    1.33   0
   1  -8   7    0.67    0.89   0
   0  -7   8  134.68    2.27   0
  -3  -7   6   61.68    1.74   0
  -2  -9   3  170.18    1.49   0
  -1  -9   5  342.92    2.39   0
  -1  -8   7   33.73    1.24   0
   1  -9   5   47.55    0.94   0
  -3  -8   4    4.35    0.85   0
  -2  -9   2    7.98    0.51   0
  -2  -8   6   10.34    1.04   0
  -2  -7   7   21.94    1.45   0
   0  -8   7  145.41    2.08   0
   0  -9   5    4.05    0.80   0
  -3  -8   3    0.93    0.72   0
  -1  -9   4   23.95    0.99   0
  -3  -7   5   24.13    1.17   0
  -1  -7   7   39.83    1.72   0
   1  -7   7   28.61    1.37   0
  -2  -8   5    3.94    0.93   0
  -1  -8   6    2.38    0.72   0
   0  -7   7    5.43    1.18   0
   1  -8   6   34.52    1.29   0
   2  -9   3   15.34    0.58   0
  -2  -7   6   72.35    1.95   0
   0  -9   4   17.45    0.93   0
   1  -9   4   29.03    0.87   0
  -3  -7   4    8.32    1.21   0
  -1  -9   3    1.74    0.63   0
  -1  -9   2   31.01    0.96   0
  -1  -8   5   73.91    1.77   0
  -3  -7   3   86.91    1.97   0
  -2  -7   5  181.24    2.82   0
  -1  -9   0    5.30    0.51   0
   2  -9   2    0.68    0.47   0
  -2  -8   3    7.85    1.10   0
   0  -8   5   22.57    1.37   0
   0  -7   6    5.25    1.30   0
   1  -8   5   59.30    1.52   0
   1  -7   6   95.26    2.03   0
  -3  -7   2    0.69    1.06   0
  -1  -8   4   16.47    1.25   0
   0  -9   2    2.69    0.73   0
  -2  -8   2   71.07    1.62   0
   1  -9   2    7.03    0.77   0
   2  -9   1   38.40    0.81   0
  -1  -7   5    0.21    1.25   0
   0  -9   1  144.86    1.67   0
  -2  -8  -1   16.70    0.93   0
  -2  -8   1    1.87    0.83   0
   0  -9  -1   11.29    0.58   0
   0  -9   0    1.24    0.54   0
   0  -8   4   23.02    1.32   0
  -2  -8   0   50.19    1.27   0
  -1  -8   3    6.48    1.03   0
   1  -9   1    9.87    0.71   0
   1  -8   4    5.53    1.11   0
   1  -9  -2    0.69    0.31   0
   1  -7   5   32.44    1.39   0
  -2  -7   3   -0.17    1.02   0
   1  -9  -1   70.38    1.03   0
   1  -9   0    0.08    0.56   0
   2  -8   3    8.01    0.97   0
  -1  -8   2  153.34    2.34   0
   2  -7   4  169.80    2.50   0
   3  -8   1   18.12    0.90   0
  -2  -7   1   65.85    1.82   0
  -1  -8  -3   26.22    0.90   0
   0  -8   2   54.07    1.66   0
   2  -8   2   36.60    1.26   0
  -1  -8  -2   36.98    1.27   0
  -1  -8  -1    1.22    0.89   0
   0  -8  -5    8.15    0.48   0
  -2  -7   0    9.15    1.23   0
   0  -8   1   24.97    1.36   0
   2  -7   3    4.66    1.09   0
  -2  -7  -2    1.27    0.89   0
  -2  -7  -1  217.77    2.67   0
   0  -8   0   29.13    1.24   0
   1  -8   1    0.70    0.95   0
   0  -8  -4  128.89    1.48   0
   0  -8  -1    1.47    0.89   0
   0  -8  -2  107.78    1.78   0
   1  -8   0  175.55    2.35   0
   2  -8  -5   29.03    0.70   0
   2  -7   2   12.13    1.22   0
   3  -8  -3   39.56    0.93   0
   3  -8  -2    0.60    0.62   0
  -1  -7   0   43.26    1.66   0
   1  -8  -1    0.08    0.97   0
   2  -8  -1   49.31    1.36   0
  -1  -7  -5    6.90    0.70   0
   0  -7  -7   92.13    1.01   0
   1  -8  -4   76.52    1.25   0
   1  -8  -2   16.99    1.09   0
  -1  -7  -1   15.85    1.29   0
   1  -8  -3    6.51    0.87   0
   2  -8  -4   71.61    1.22   0
   2  -8  -3   -0.25    0.70   0
   2  -8  -2  101.96    1.63   0
  -1  -7  -2   18.47    1.26   0
   0  -7  -1   89.05    2.10   0
   2  -7   0    0.54    1.17   0
   4  -7  -6   14.29    0.58   0
   1  -7  -7    0.47    0.57   0
   3  -7  -1   11.91    1.21   0
   4  -7  -3   15.04    0.91   0
   4  -7  -4    7.61    0.74   0
   0  -7  -4    4.62    1.05   0
   1  -7  -1   53.23    1.84   0
   2  -7  -7  154.54    1.59   0
   3  -7  -2   32.83    1.36   0
  -1   3 -12   47.11    1.37   0
  -1   5 -11   70.24    1.53   0
  -1   6  -9    2.01    0.92   0
  -5   6  -9    1.17    0.41   0
  -4   3 -12   14.14    0.68   0
  -1   6  -8   69.95    1.55   0
  -2   5 -11   14.14    1.01   0
  -1   4 -11    0.33    0.92   0
  -1   5 -10    1.17    0.94   0
  -4   5 -11   39.54    0.91   0
  -3   3 -12   92.24    1.46   0
  -2   6  -9   57.59    1.43   0
  -3   5 -11  130.15    1.73   0
  -6   4 -10    2.71    0.29   0
  -6   5  -9   63.47    0.73   0
  -4   6  -9  115.31    1.50   0
  -3   6  -9   23.36    1.07   0
  -2   6  -8  319.05    3.04   0
  -2   4 -11    6.13    1.07   0
  -2   5 -10   10.74    1.07   0
  -5   3 -11    0.51    0.54   0
  -5   6  -8    0.95    0.54   0
  -4   4 -11   -0.00    0.69   0
  -3   4 -11    7.61    0.89   0
  -2   2 -11  132.45    2.07   0
  -2   3 -11    6.65    1.14   0
  -6   2 -10    1.77    0.33   0
  -6   3 -10   93.03    1.01   0
  -4   5 -10    6.18    0.83   0
  -4   2 -11  178.09    1.93   0
  -4   3 -11   26.33    1.03   0
  -3   2 -11   10.67    0.99   0
  -3   3 -11    3.28    0.91   0
  -3   6  -7    1.26    1.01   0
  -7   5  -6    0.33    0.32   0
  -6   5  -8   -0.19    0.53   0
  -5   4 -10   13.74    0.83   0
  -5   5  -9    8.28    0.73   0
  -4   6  -7    9.88    0.91   0
  -6   4  -9   26.83    0.80   0
  -5   6  -6    8.27    0.75   0
  -4   4 -10   21.84    1.10   0
  -4   5  -9   58.85    1.43   0
  -3   4 -10   50.94    1.57   0
  -4   6  -6   35.30    1.25   0
  -5   3 -10   54.26    1.28   0
  -5   2 -10   -0.12    0.70   0
  -3   3 -10    9.58    1.28   0
  -7   3  -8  109.97    1.15   0
  -7   5  -5   77.51    1.01   0
  -5   5  -8   63.06    1.43   0
  -4   3 -10   79.99    1.73   0
  -6   1  -9    0.65    0.48   0
  -5   4  -9    0.42    0.89   0
  -4   2 -10    1.28    0.93   0
  -7   4  -7   38.72    0.82   0
  -7   2  -8    0.07    0.47   0
  -6   5  -6   29.60    1.07   0
  -5   5  -7  161.75    2.11   0
  -5   1  -9   69.57    1.59   0
  -8   1  -6   44.63    0.71   0
  -8   2  -6   10.78    0.50   0
  -7   4  -6   41.95    1.01   0
  -5   2  -9   96.51    1.80   0
  -5   4  -8   75.97    1.61   0
  -4   4  -8   20.74    1.46   0
  -8   4  -3    6.02    0.47   0
  -7   3  -7    8.73    0.75   0
  -6   3  -8   10.23    0.92   0
  -6   5  -5   65.72    1.44   0
  -5   5  -6    6.58    1.03   0
  -4   2  -9    2.09    1.00   0
  -6   4  -7   41.34    1.32   0
  -8   3  -5   28.51    0.71   0
  -8   4  -2    1.69    0.45   0
  -6   1  -8  147.25    1.91   0
  -6   2  -8   14.36    1.06   0
  -6   5  -4    0.67    0.82   0
  -7   1  -7   56.42    1.24   0
  -5   3  -8  304.15    3.31   0
  -5   4  -7    9.41    1.24   0
  -5   5  -4    1.89    1.01   0
  -7   3  -6  211.78    2.26   0
  -6   3  -7   61.91    1.58   0
  -5   2  -8   23.85    1.38   0
  -8   0  -5    5.90    0.51   0
  -8   3  -4   66.64    1.13   0
  -5   1  -8  132.05    2.21   0
  -7   4  -4   13.05    0.99   0
  -8   1  -5   27.26    0.85   0
  -5   3  -7    3.12    1.17   0
  -7   2  -6    0.34    0.84   0
  -7   0  -6    5.87    0.81   0
  -7   4  -3    8.62    1.13   0
  -6   1  -7   -0.15    0.97   0
  -7   1  -6   39.91    1.28   0
  -6   3  -6   16.07    1.26   0
  -9   1  -2    8.24    0.46   0
  -8   2  -4    3.68    0.74   0
  -7   4  -2  122.89    1.86   0
  -9   2   0   75.57    0.93   0
  -8   3  -2    3.27    0.75   0
  -7   4  -1    8.32    0.88   0
  -9   2   1   26.26    0.62   0
  -8   0  -4    3.47    0.76   0
  -7   2  -5   27.17    1.26   0
  -7   3  -4    3.77    0.96   0
  -6   2  -6    5.91    1.05   0
  -6   3  -5    4.63    1.26   0
  -6   4  -3    1.29    1.16   0
  -9   1  -1    4.24    0.62   0
  -8   2  -3  103.72    1.70   0
  -8   3  -1   47.80    1.22   0
  -6   0  -6   13.96    1.18   0
  -7   0  -5   74.77    1.60   0
  -8   3   0    3.02    0.73   0
  -9   0  -1   57.69    0.95   0
  -8  -1  -3  151.75    1.71   0
  -8   1  -3    0.86    0.81   0
  -7   2  -4   86.07    1.89   0
  -9   1   0    3.32    0.56   0
  -8   2  -2    0.60    0.81   0
  -8   0  -3   69.22    1.44   0
  -7  -1  -4   17.42    1.05   0
  -9   0   0    0.15    0.52   0
  -9   1   1    1.77    0.58   0
  -9   1   4    0.46    0.37   0
  -7   0  -4   44.86    1.46   0
  -7   3  -1    1.26    1.04   0
  -9   1   3    3.38    0.52   0
  -8  -1  -2    0.70    0.91   0
  -9   0   1   59.06    1.08   0
  -8   2   0    0.02    0.98   0
  -9  -1   1   31.17    0.80   0
  -7   1  -3    8.28    1.18   0
  -9  -2   2   38.52    0.74   0
  -8   1  -1    0.86    0.89   0
  -7   2  -2    4.35    0.99   0
  -8  -2  -1   67.13    1.28   0
  -7  -1  -3   27.65    1.28   0
  -9   0   2   -0.46    0.60   0
  -8   2   2   11.92    0.97   0
  -7   0  -3    2.26    1.09   0
  -9  -1   2   31.11    0.81   0
  -8   2   3   25.85    1.02   0
  -9   0   3    9.93    0.70   0
  -8  -1  -1    3.11    0.92   0
  -8   0  -1   33.42    1.25   0
  -8   1   0  157.99    2.19   0
  -9  -2   3  123.24    1.20   0
  -9  -1   3   14.00    0.69   0
  -7  -2  -2   92.03    1.76   0
  -9  -2   4   21.13    0.61   0
  -9  -1   4   23.75    0.73   0
  -8  -3   1  122.19    1.50   0
  -8  -2   0   58.60    1.33   0
  -8   0   0    3.53    1.02   0
  -8   1   1    1.40    0.99   0
  -7  -1  -2  112.51    2.11   0
  -9  -2   5    0.04    0.33   0
  -8   1   6   52.80    1.00   0
  -8   1   4   33.09    1.17   0
  -8   1   5    0.81    0.75   0
  -7  -2  -1    7.96    1.09   0
  -8  -2   1   14.11    0.96   0
  -8  -1   1   11.69    1.01   0
  -7   2   3    9.61    1.06   0
  -8  -3   2   67.36    1.27   0
  -8  -4   4  104.12    1.13   0
  -8   0   2    9.88    0.99   0
  -8  -1   2  133.77    2.06   0
  -8   0   3   78.81    1.69   0
  -8  -3   3    1.94    0.80   0
  -8  -4   5    0.71    0.43   0
  -7  -2   0  123.98    2.16   0
  -8   0   5   16.33    1.01   0
  -8   0   6    8.86    0.83   0
  -8  -4   6   13.53    0.58   0
  -8  -2   3   34.61    1.18   0
  -8  -1   3    5.88    0.76   0
  -7  -3   1    0.77    0.93   0
  -7   1   3  121.49    2.22   0
  -8  -3   9    1.09    0.30   0
  -8  -2   9    4.27    0.43   0
  -8  -1   4    5.28    0.86   0
  -7   1   4    6.52    1.08   0
  -8  -2   4    0.92    0.77   0
  -7   1   5  109.33    1.96   0
  -8  -3   5   20.57    0.90   0
  -8  -1   5   10.94    0.71   0
  -8  -1   7   22.75    0.91   0
  -7  -2   1    1.42    0.88   0
  -8  -3   8   68.58    0.99   0
  -8  -2   5  101.25    1.67   0
  -8  -2   8    4.38    0.61   0
  -8  -3   6    5.31    0.66   0
  -8  -3   7    8.21    0.60   0
  -8  -2   6    7.28    0.83   0
  -7  -3   2  178.41    2.38   0
  -7  -5   6    0.78    0.58   0
  -7  -2  11    2.52    0.40   0
  -7  -1  10    0.61    0.52   0
  -7   0   4   86.85    1.85   0
  -7  -5   7   71.73    1.08   0
  -7  -4   4    3.73    0.84   0
  -7  -3   3  105.70    1.94   0
  -7  -1   3    0.67    1.09   0
  -7   0   5   50.07    1.61   0
  -7   0   7   14.52    1.09   0
  -7  -5   8  112.15    1.16   0
  -7  -3  11    9.11    0.48   0
  -7  -2   3  105.47    2.06   0
  -7   0   6    0.70    1.00   0
  -7  -1   4  220.68    2.87   0
  -7  -1   9   52.86    1.19   0
  -7  -4   5   45.06    1.28   0
  -7  -3   4    6.03    0.97   0
  -7  -4  10   16.42    0.59   0
  -7  -2  10   70.51    1.21   0
  -7  -1   5   20.34    1.29   0
  -6  -6   7   10.72    0.61   0
  -7  -4   6   37.90    1.18   0
  -7  -1   8  118.31    1.81   0
  -6  -6   8   56.14    0.85   0
  -6  -6   9    1.07    0.38   0
  -7  -4   9   35.83    0.92   0
  -7  -3   5   43.42    1.49   0
  -7  -3  10    1.76    0.61   0
  -7  -2   5   21.37    1.32   0
  -7  -4   7   61.15    1.32   0
  -7  -4   8    5.10    0.67   0
  -7  -2   9   58.57    1.32   0
  -6  -4   3    4.42    1.00   0
  -7  -3   6  282.37    2.88   0
  -7  -3   9    0.01    0.63   0
  -7  -2   6   26.38    1.28   0
  -7  -2   8    2.20    0.81   0
  -7  -3   7    2.01    0.82   0
  -7  -3   8   95.01    1.65   0
  -7  -2   7   24.13    1.16   0
  -6  -5   5   73.45    1.47   0
  -6  -4  12    6.46    0.47   0
   4  -5  -8    7.97    0.95   0
   6  -4  -7    0.18    0.88   0
   4  -4 -11   43.30    0.88   0
   5  -4 -10    0.39    0.65   0
   3  -5  -8   44.50    1.51   0
   4  -5  -7    0.02    1.05   0
   5  -3 -12  152.54    1.28   0
   4  -5  -6  113.29    2.24   0
   6  -3 -10   95.92    1.45   0
   7  -2  -7   11.08    0.97   0
   3  -5  -7   20.27    1.38   0
   5  -4  -9   61.52    1.47   0
   7  -1 -10   -0.00    0.47   0
   3  -5  -6    8.25    1.31   0
   5  -4  -5   18.51    1.63   0
   6  -3  -9    0.81    0.85   0
   4  -4 -10   14.65    0.99   0
   5  -4  -8   19.54    1.23   0
   5  -4  -6   19.02    1.58   0
   7  -1  -9    3.68    0.72   0
   7  -1  -8    1.37    0.93   0
   5  -4  -7   91.55    1.97   0
   6  -3  -8   41.88    1.51   0
   6  -3  -6    6.86    1.21   0
   4  -3 -12    0.63    0.66   0
   5  -3 -11   22.00    0.97   0
   3  -4 -10   11.79    1.03   0
   4  -4  -9   52.87    1.71   0
   3  -3 -12  159.83    1.83   0
   5  -3 -10   35.81    1.41   0
   6  -2 -10    9.31    1.00   0
   5  -2 -12   17.30    0.92   0
   3  -4  -8    7.94    1.34   0
   5  -3  -9   94.92    1.96   0
   6  -2  -7   57.83    1.92   0
   5  -3  -8    6.73    1.37   0
   5  -3  -7   12.04    1.51   0
   5   0 -14   16.84    0.61   0
   4  -1 -14   12.20    0.63   0
   5  -1 -13    6.68    0.73   0
   6   0 -12   96.27    1.45   0
   3  -3 -11   29.70    1.34   0
   3  -2 -13    4.36    0.75   0
   5  -2 -11    4.91    1.01   0
   2  -2 -13   48.35    1.15   0
   4  -3  -9   10.35    1.50   0
   6  -1  -8   -0.04    1.32   0
   4  -2 -12    6.22    0.99   0
   5  -2 -10    8.65    1.33   0
   6   0 -11    4.91    0.97   0
   3  -3 -10   44.14    1.74   0
   3  -1 -14   81.34    1.34   0
   3   0 -15    1.29    0.38   0
   5  -1 -12    3.68    0.95   0
   5  -2  -9   61.15    2.04   0
   2  -3 -10   22.65    1.43   0
   2  -1 -14    3.18    0.65   0
   5   0 -13   11.04    0.87   0
   5   2 -14    0.36    0.45   0
   3  -3  -9    1.72    1.34   0
   3  -2 -12    0.55    0.92   0
   4  -2 -11  127.77    2.34   0
   4  -1 -13    3.36    0.81   0
   5  -1 -11  152.72    2.43   0
   4   0 -14   30.95    1.02   0
   6   1 -10    0.37    0.91   0
   2  -2 -12    0.72    0.93   0
   4  -2 -10    7.92    1.48   0
   3  -2 -11   64.17    1.90   0
   5   0 -12    2.24    0.99   0
   3  -1 -13    4.11    1.08   0
   4  -1 -12   83.98    1.92   0
   3   1 -15   18.23    0.78   0
   2  -1 -13    2.05    0.99   0
   3  -2 -10   21.20    1.85   0
   4   0 -13   12.60    1.13   0
   4   1 -14   18.15    1.02   0
   4  -1 -11    1.66    0.95   0
   5   1 -12   -0.12    1.05   0
   5   0 -10  112.43    2.52   0
   1   1 -15    7.13    0.71   0
   2   0 -14    6.11    0.98   0
   2   1 -15    4.78    0.67   0
   1   0 -14   10.45    0.88   0
   3   2 -15   44.28    1.04   0
   4  -1 -10   14.24    1.33   0
   4   2 -14   41.30    1.18   0
   5   2 -12  105.81    1.97   0
   4   0 -12   23.81    1.57   0
   5   1 -11   31.19    1.52   0
   5   3 -12    8.52    0.83   0
   2  -1 -12   42.44    1.78   0
   4   1 -13    1.41    0.97   0
   4   3 -14   18.36    0.88   0
   3   1 -14    2.92    1.00   0
   3   3 -15   39.64    0.94   0
   5   1 -10   18.03    1.51   0
   1  -1 -12    7.56    1.32   0
   5   2 -11    6.31    1.15   0
   4   0 -11    8.97    1.32   0
   2   2 -15    3.71    0.88   0
   2   0 -13    2.42    1.19   0
   4   1 -12    3.98    1.35   0
   3   0 -12    0.59    1.50   0
   2   3 -15   29.17    1.05   0
   3   1 -13  110.51    2.41   0
   2   4 -15   34.21    0.88   0
   3   3 -14    8.70    0.97   0
   4   2 -12    4.38    1.34   0
   2   0 -12    0.15    1.54   0
   0   3 -15    8.31    0.65   0
   4   4 -12   22.33    1.37   0
   2   1 -13    1.58    1.44   0
   3   1 -12    5.55    1.50   0
   4   3 -12    2.08    1.16   0
   3   2 -13    8.01    1.04   0
   4   2 -11    5.32    1.60   0
   0   2 -14    1.84    1.06   0
   1   1 -13   64.64    2.06   0
   1   2 -14   12.33    1.33   0
   2   3 -14    9.72    1.28   0
   3   3 -13   19.19    1.51   0
   4   3 -11   37.86    1.97   0
   4   4 -11    3.81    1.13   0
   3   4 -13   10.53    1.26   0
   2   1 -12   79.64    2.47   0
   2   4 -14    0.82    0.97   0
   3   2 -12   98.66    2.62   0
   2   2 -13    7.67    1.41   0
   2   6 -13    8.14    0.72   0
  -1   3 -14   48.32    1.32   0
   1   3 -14   40.19    1.54   0
   1   1 -12   43.78    2.17   0
   3   5 -12    2.79    1.08   0
   0   3 -14   14.90    1.29   0
   1   4 -14    0.47    1.07   0
   2   3 -13  304.91    3.82   0
   3   4 -12    1.51    1.33   0
   0   1 -12   51.17    2.00   0
  -1   4 -14   60.03    1.40   0
   0   2 -13   34.22    1.76   0
   2   2 -12    6.99    1.66   0
   0   5 -14    1.18    0.79   0
   1   3 -13   -1.07    1.34   0
   2   6 -12    4.69    0.96   0
   0   3 -13  182.34    3.09   0
   1   4 -13   51.23    1.90   0
  -1   3 -13   -0.04    1.26   0
   1   5 -13  160.56    2.49   0
   2   5 -12   60.80    2.01   0
  -2   4 -13   98.69    1.78   0
  -1   2 -12  117.40    2.56   0
   0   2 -12    1.80    1.65   0
   0   6 -13    8.67    0.88   0
  -2   5 -13   18.70    1.06   0
  -1   6 -13    4.74    0.76   0
   0   4 -13   50.41    1.86   0
   1   3 -12   -0.76    1.66   0
  -1   4 -13    5.65    1.19   0
   0   5 -13    1.14    1.13   0
   1   6 -12    3.49    1.13   0
   1   7 -11    2.65    1.03   0
  -1   5 -13   68.37    1.69   0
   2   4 -11    4.94    1.78   0
   2   5 -11   35.31    1.81   0
  -3   4 -12    0.62    0.78   0
  -1   7 -12   13.91    0.75   0
   1   4 -12   48.88    2.09   0
   1   5 -12    4.82    1.33   0
   2   6 -10    1.74    1.35   0
  -3   5 -12   10.86    0.83   0
  -1   3 -12   47.92    1.99   0
   0   4 -12  202.99    3.33   0
   0   6 -12   82.60    1.83   0
  -2   6 -12   70.99    1.48   0
  -1   8 -10    3.66    0.64   0
   0   5 -12    2.84    1.30   0
   0   7 -11    9.05    1.12   0
   1   6 -11    1.39    1.28   0
   2   5 -10    5.50    1.07   0
  -1   6 -12   78.40    1.77   0
  -2   5 -12    6.03    1.14   0
  -1   5 -12    2.00    1.08   0
  -2   7 -11   73.77    1.41   0
  -1   7 -11    0.01    0.74   0
  -2   3 -11    4.52    1.47   0
   1   7  -9    0.24    1.01   0
  -3   4 -11    7.16    1.14   0
  -3   6 -11   13.70    1.00   0
   0   4 -11   21.52    1.97   0
   0   5 -11    0.60    1.43   0
  -4   6 -10    0.22    0.65   0
  -2   4 -11    5.97    1.45   0
  -2   6 -11   16.99    1.21   0
  -1   6 -11   61.94    1.83   0
  -1   8  -9   36.38    1.10   0
  -3   7 -10    0.44    0.65   0
  -1   5 -11   68.08    2.15   0
  -1   7 -10   92.50    1.88   0
  -2   7 -10   24.76    1.21   0
   0   7  -9    1.46    1.14   0
  -3   4 -10   42.18    1.81   0
  -1   8  -8   11.84    0.97   0
  -3   8  -8    4.22    0.66   0
  -1   6 -10   48.54    1.84   0
  -2   4 -10  237.98    3.60   0
  -1   5 -10    1.27    1.46   0
  -4   8  -7  171.46    1.47   0
  -5   6  -8    1.61    0.71   0
  -2   5 -10    9.08    1.31   0
  -2   7  -9   -0.19    1.09   0
  -1   8  -7    0.95    1.13   0
  -5   7  -7    7.37    0.62   0
   1  -2 -12  230.74    2.32   0
   3   1 -13  110.55    1.87   0
   3   0 -12    0.38    0.96   0
   3   2 -13    7.91    0.97   0
   1   1 -15    7.56    0.67   0
   3   3 -12    1.00    0.91   0
   2   1 -14   29.32    1.13   0
   2   3 -14   10.09    0.86   0
   1  -1 -13   -0.05    0.78   0
   1   2 -15  117.41    1.42   0
   2  -1 -12   43.95    1.36   0
   3   1 -12    4.67    1.11   0
   2   0 -13    1.93    0.89   0
   2   2 -14   43.77    1.24   0
   3   2 -12   97.22    2.01   0
   0   1 -15   30.06    0.83   0
   1  -2 -11  244.48    2.73   0
   1   4 -14    1.44    0.60   0
   0  -1 -13    1.05    0.82   0
   0   2 -15    0.94    0.70   0
   2   1 -13    1.30    0.91   0
   2   3 -13  302.32    2.89   0
  -2   0 -14   16.72    0.55   0
   0   0 -14   14.18    0.91   0
   1   1 -14   48.13    1.39   0
   2   0 -12    0.75    1.11   0
  -1  -1 -13    0.77    0.63   0
  -1   0 -14   14.34    0.82   0
  -1   2 -15  158.38    1.47   0
  -1   3 -15   14.54    0.57   0
   1   3 -14   40.69    1.22   0
   0   4 -14   16.45    0.78   0
   1   4 -13   49.57    1.31   0
   2   3 -12   16.68    1.24   0
   2   2 -12    6.49    1.34   0
   0   1 -14   60.36    1.42   0
   0   0 -13   28.23    1.32   0
   0   2 -14    2.16    0.91   0
   1   0 -12   16.21    1.06   0
   1   3 -13   -0.54    0.98   0
  -3   0 -13   98.15    1.17   0
  -1   1 -14   43.18    1.19   0
   1   2 -13   13.23    1.25   0
  -2   4 -14    2.55    0.54   0
  -1  -1 -12    6.93    0.93   0
   1   4 -12   49.94    1.48   0
  -3   2 -14    0.14    0.41   0
  -1   0 -13  167.56    2.20   0
  -3   3 -14   66.07    0.84   0
  -2   5 -13   19.82    0.62   0
  -1   2 -14    4.97    0.83   0
   1   1 -12   46.07    1.69   0
   0   1 -13   47.82    1.55   0
   1   3 -12   -0.13    1.02   0
  -2   2 -14    7.59    0.73   0
  -2   3 -14    3.98    0.72   0
   0   0 -12   10.94    1.30   0
   1   2 -12   50.10    1.76   0
   0   3 -13  191.47    2.55   0
  -1  -1 -11   24.65    1.42   0
  -1   1 -13   34.41    1.33   0
  -1   4 -13    5.20    0.88   0
  -3   1 -13   83.49    1.38   0
  -1   0 -12   14.01    1.10   0
   0   1 -12   55.16    1.80   0
  -4   3 -13    0.37    0.40   0
  -1   2 -13   41.76    1.49   0
  -3   0 -12    2.59    0.79   0
  -2   0 -12    1.75    0.93   0
  -1   3 -13    1.25    0.96   0
   0   2 -12    2.04    1.24   0
  -3   2 -13  144.82    1.81   0
  -2   2 -13   44.14    1.39   0
  -2   5 -12    7.48    0.74   0
  -5   3 -12   12.41    0.52   0
  -3   3 -13    0.92    0.71   0
  -3   5 -12   11.63    0.65   0
  -2   3 -13   27.32    1.11   0
  -1   1 -12  116.43    2.31   0
  -1   4 -12    6.16    1.02   0
  -4   1 -12    4.88    0.72   0
  -4   0 -11    3.92    0.80   0
  -3   1 -12   31.46    1.27   0
  -4   4 -12   77.75    1.24   0
  -2   0 -11   10.33    1.19   0
  -6   1 -10   15.54    0.59   0
  -5   1 -11    2.05    0.61   0
  -4   2 -12   22.40    0.92   0
  -3   0 -11  124.44    2.10   0
  -2   5 -11   14.86    1.17   0
  -4   3 -12   15.65    0.89   0
  -2   2 -12    0.58    1.03   0
  -2   3 -12   65.92    1.72   0
  -1   4 -11    0.21    1.12   0
  -3   2 -12    1.65    0.95   0
  -3   3 -12   97.76    1.81   0
  -5   4 -11  139.35    1.43   0
  -4   1 -11   48.05    1.45   0
  -5   3 -11    0.81    0.80   0
  -5   5 -10    4.17    0.61   0
  -3   1 -11    0.37    1.03   0
  -2   4 -11    6.96    1.19   0
  -6   2 -10    2.15    0.54   0
  -4   0 -10   10.43    1.16   0
  -6   3 -10   97.00    1.19   0
  -3   0 -10   48.42    1.62   0
  -2   2 -11  137.67    2.36   0
  -2   3 -11    6.85    1.28   0
  -4   2 -11  183.46    2.40   0
  -7   1  -8   27.59    0.61   0
  -5   1 -10   43.90    1.31   0
  -4   3 -11   27.29    1.28   0
  -3   2 -11   11.09    1.32   0
  -3   5 -10    5.02    0.94   0
  -4   5 -10    6.42    0.87   0
  -3   3 -11    3.18    0.93   0
  -5   0  -9    1.68    0.88   0
  -6   1  -9    0.46    0.68   0
  -4   1 -10   51.02    1.60   0
  -5   2 -10    0.27    0.92   0
  -4   0  -9  162.15    2.52   0
  -7   2  -8    0.24    0.50   0
  -6   4  -9   27.01    0.86   0
  -5   3 -10   58.16    1.48   0
  -5   5  -9    9.23    0.81   0
  -7   3  -8  109.99    1.29   0
  -6   5  -8    0.47    0.57   0
  -4   2 -10    0.96    1.20   0
  -3   5  -9   24.26    1.34   0
  -6   3  -9    2.59    0.78   0
  -4   3 -10   80.70    1.93   0
  -4   5  -9   58.81    1.49   0
  -3   3 -10    8.09    1.39   0
  -5   1  -9   71.27    1.74   0
  -7   1  -7   54.96    1.25   0
  -5   0  -8    6.42    1.14   0
  -4   1  -9   45.43    1.79   0
  -7   5  -6    0.41    0.44   0
  -6   1  -8  146.42    2.14   0
  -5   4  -9    0.47    0.67   0
  -7   4  -7   40.16    0.91   0
  -5   2  -9   98.15    2.04   0
  -3   4  -9   30.71    1.35   0
  -8   1  -5   25.98    0.73   0
  -6   4  -8    2.97    0.78   0
  -5   3  -9   68.33    1.63   0
  -6   5  -7    0.45    0.69   0
  -4   2  -9    1.44    1.34   0
  -4   5  -8    1.03    1.00   0
  -6   3  -8    9.70    1.08   0
  -5   1  -8  132.35    2.44   0
  -8   2  -5   26.63    0.87   0
  -8   3  -5   29.42    0.77   0
  -7   1  -6   39.51    1.37   0
  -6   1  -7   -0.04    1.01   0
  -5   2  -8   23.91    1.61   0
  -5   5  -7  164.67    2.31   0
  -4   4  -8   18.76    1.50   0
  -7   4  -6   42.73    1.11   0
  -5   3  -8  307.41    3.46   0
  -8   4  -4   71.04    0.98   0
  -6   4  -7   41.98    1.32   0
  -4   5  -7   23.87    1.43   0
  -8   1  -4   28.85    0.90   0
  -7   3  -6  213.47    2.38   0
  -6   2  -7   37.63    1.53   0
  -6   3  -7   61.89    1.70   0
  -8   2  -4    2.23    0.88   0
  -8   3  -4   64.69    1.20   0
  -7   5  -4   23.69    0.93   0
  -5   5  -6    7.01    1.15   0
  -7   4  -5   16.08    0.96   0
  -6   1  -6   56.89    1.80   0
  -5   3  -7    3.08    1.31   0
  -8   4  -3    5.62    0.59   0
  -7   1  -5   13.21    1.13   0
  -6   4  -6   62.53    1.56   0
  -7   3  -5   22.34    1.20   0
  -6   2  -6    7.18    1.35   0
  -6   3  -6   15.15    1.34   0
  -8   1  -3    0.93    0.74   0
  -7   5  -3   10.51    0.98   0
  -8   4  -2    1.59    0.70   0
  -7   4  -4   13.73    0.97   0
  -9   2   0   72.48    0.96   0
  -6   5  -4    0.03    0.92   0
  -7   1  -4  132.51    2.29   0
  -7   5  -2    4.63    0.96   0
  -9   1   1    1.24    0.50   0
  -7   3  -4    2.96    1.10   0
  -6   2  -5  120.70    2.42   0
  -6   3  -5    4.06    1.21   0
  -8   1  -2  108.51    1.79   0
  -8   4  -1   66.90    1.17   0
  -5   5  -4    2.60    1.11   0
  -8   3  -2    3.54    0.67   0
  -7   4  -3    8.65    1.02   0
  -9   1   2  106.40    1.19   0
  -7   1  -3    6.68    1.21   0
  -7   3  -3  106.31    2.11   0
  -8   1  -1    0.41    0.85   0
  -8   3  -1   47.88    1.27   0
  -7   0  -2    6.31    1.24   0
  -7   2  -3  150.11    2.51   0
  -6   3  -4  155.01    2.55   0
  -5   5  -3    9.04    1.25   0
  -7   4  -2  120.36    1.93   0
  -9   1   3    3.54    0.48   0
  -8   0   0    3.37    0.83   0
  -9   1   4    0.70    0.44   0
  -8   3   0    2.36    0.88   0
  -7   1  -2   25.08    1.53   0
  -7   3  -2   57.76    1.74   0
  -6   5  -1    0.75    0.99   0
  -8   1   0  128.58    2.01   0
  -7   2  -2    3.24    1.24   0
  -7   5   2   11.82    0.87   0
  -8   0   1   41.62    1.40   0
  -8   2   0   -0.03    0.92   0
  -7   0  -1   86.54    1.95   0
  -6   4  -2   95.96    2.23   0
  -8   3   1   55.06    1.39   0
  -6   5   0    1.25    0.97   0
  -7   3  -1    0.58    1.14   0
  -8   1   1    2.33    0.91   0
  -8   2   1   28.43    1.25   0
  -7   1  -1   47.85    1.71   0
  -7   2  -1   -0.24    1.25   0
  -5  -4  12    2.44    0.63   0
  -5  -3  12    8.89    0.99   0
  -5  -1  10   16.87    1.28   0
  -4  -2  13    6.11    0.90   0
  -4  -1  12    4.17    1.11   0
  -2   0  12    0.88    1.15   0
  -5  -2  11    6.51    1.05   0
  -2  -4  15   33.97    0.82   0
  -1  -4  15   11.25    0.54   0
  -1  -2  14   12.73    1.12   0
  -5  -3  11   35.51    1.39   0
  -5  -2  10   37.50    1.71   0
  -4  -5  13   46.96    1.00   0
  -4  -3  13  231.63    2.60   0
  -4  -1  11   63.36    2.09   0
  -3  -3  14    9.21    0.96   0
  -5  -4  11   42.45    1.26   0
  -4  -4  13   34.06    1.21   0
  -4  -2  12    4.96    1.20   0
  -3  -5  14   21.73    0.75   0
  -3  -1  12    5.14    1.41   0
  -3  -4  14   28.09    1.04   0
  -3  -2  13    7.97    1.23   0
  -5  -3  10   18.53    1.42   0
   0  -3  14   14.20    0.87   0
  -2  -3  14   11.08    1.04   0
  -1  -3  14   39.12    1.37   0
  -4  -5  12  219.08    2.30   0
  -3  -3  13   18.83    1.35   0
  -2  -4  14    1.01    0.85   0
  -1  -2  13   11.25    1.33   0
  -4  -6  11   50.89    1.11   0
  -4  -4  12   23.02    1.30   0
  -3  -2  12   99.42    2.44   0
  -2  -5  14    9.64    0.83   0
   0  -4  14   15.07    0.87   0
  -1  -4  14    0.68    0.85   0
   0  -5  14    0.73    0.57   0
  -4  -3  11   40.16    1.77   0
  -3  -5  13   46.62    1.30   0
  -3  -4  13   12.68    1.16   0
  -2  -3  13  296.83    3.32   0
  -2  -2  12    6.74    1.38   0
  -4  -5  11   10.29    1.09   0
  -4  -4  11    2.70    1.12   0
  -3  -3  12    1.57    1.29   0
  -3  -7  11    2.60    0.58   0
  -1  -3  13   -0.38    1.08   0
   0  -2  12    2.02    1.17   0
  -3  -6  12    6.92    0.83   0
   1  -6  13    4.99    0.52   0
  -3  -4  12    1.62    1.15   0
  -2  -5  13    7.04    1.04   0
   1  -5  13   67.54    1.30   0
  -4  -5  10    0.50    1.00   0
  -3  -3  11   20.65    1.31   0
  -1  -6  13   41.49    1.15   0
   0  -4  13   50.28    1.54   0
  -1  -5  13  154.38    2.18   0
  -1  -3  12    0.60    1.43   0
   0  -5  13    1.47    0.88   0
  -3  -7  10   50.89    1.09   0
  -2  -4  12  128.83    2.59   0
  -2  -6  12    2.94    0.90   0
   1  -7  12   14.09    0.66   0
  -3  -5  11   72.45    1.74   0
  -2  -5  12   60.55    1.80   0
  -1  -7  12   54.17    1.15   0
  -1  -4  12   48.28    1.84   0
   0  -8  11   17.84    0.54   0
   0  -7  12    8.25    0.73   0
   1  -4  12    5.50    1.04   0
  -3  -7   9   15.77    0.90   0
   0  -4  12  193.36    2.87   0
  -3  -6  10    3.03    1.10   0
  -1  -6  12    4.13    1.02   0
  -1  -5  12    5.04    1.06   0
  -2  -4  11    4.80    1.49   0
   1  -6  12   81.58    1.52   0
   1  -5  12    1.04    0.95   0
   2  -7  11   74.14    1.06   0
  -2  -6  11  147.65    2.37   0
   0  -6  12   82.69    1.70   0
   0  -5  12    1.92    1.18   0
  -2  -5  11   33.73    1.73   0
  -1  -7  11    2.49    0.89   0
  -2  -7  10  109.62    1.86   0
  -3  -5   9    8.84    1.36   0
  -1  -6  11    1.45    1.07   0
   0  -7  11    8.75    0.93   0
   0  -4  11   22.41    1.61   0
   1  -4  11    0.53    1.19   0
   0  -8  10    9.49    0.75   0
   1  -8  10    3.80    0.59   0
  -3  -6   8    2.08    1.20   0
  -2  -5  10    5.43    1.37   0
  -1  -8   9   99.02    1.62   0
   0  -6  11  237.54    3.01   0
   1  -6  11   63.46    1.70   0
   1  -5  11   68.09    1.96   0
  -1  -7  10   43.79    1.44   0
  -1  -6  10   49.99    1.98   0
   0  -8   9   46.86    1.30   0
   0  -7  10   57.92    1.70   0
   2  -6  10   58.53    1.61   0
   2  -5  10   10.12    1.28   0
   3  -8   8    3.90    0.48   0
   3  -7   9   26.68    0.92   0
  -1  -7   9    1.25    1.29   0
   0  -6  10   93.73    2.39   0
   1  -9   7   11.53    0.67   0
   1  -5  10    1.02    1.30   0
  -2  -6   8    5.21    1.32   0
   0  -9   6   10.24    0.65   0
  -2  -7   7   21.48    1.49   0
  -1  -6   9   42.00    1.96   0
   0  -8   8    4.13    0.92   0
   0  -7   9    1.47    1.16   0
   2  -7   9    0.25    0.99   0
  -1  -7   8    0.71    1.35   0
   0  -9   5    3.70    0.73   0
   1  -9   6    5.41    0.72   0
   1  -7   9    0.11    1.05   0
   2  -9   6   97.38    1.17   0
   2  -8   8    1.36    0.76   0
   0  -6   9   27.25    1.74   0
   1  -8   8   12.93    1.08   0
   2  -6   9   56.32    1.90   0
   2  -5   9   58.64    1.78   0
   3  -7   8    7.82    1.18   0
   4  -7   7   99.14    1.51   0
   0  -9   4   17.34    0.78   0
   3  -8   7    0.99    0.71   0
   2  -9   5    2.57    0.59   0
   3  -9   4   50.29    0.85   0
   3  -6   8   57.57    1.79   0
   1  -8   7    0.34    1.04   0
   1  -7   8   51.43    1.83   0
   2  -8   7  114.84    1.96   0
   0  -8   6   20.76    1.45   0
   2  -6   8  308.32    3.87   0
   0  -7   7    5.52    1.56   0
   3  -7   7    2.24    1.05   0
   3  -9   3    9.90    0.56   0
   1  -8   6   32.62    1.48   0
   0  -8   5   19.73    1.48   0
   1  -7   7   27.92    1.73   0
   2  -8   6   -0.21    1.03   0
   2  -7   7    0.73    1.26   0
   1  -9   1   10.05    0.68   0
   1  -9   2    7.22    0.67   0
   2  -9   3   14.45    0.84   0
   3  -9   2   23.11    0.73   0
   3  -6   7    2.03    1.35   0
  -1  -7   5   -0.09    1.33   0
   3  -9   1    6.80    0.53   0
   3  -8   5   27.80    1.25   0
   4  -8   4   15.60    0.91   0
   5  -7   4    0.99    0.66   0
   0  -8   4   22.85    1.43   0
   1  -8   5   54.41    1.80   0
   2  -9   0   23.24    0.70   0
   2  -9   1   36.02    0.97   0
   2  -8   5   17.75    1.38   0
   1  -7   6   87.04    2.41   0
   4  -7   5   14.68    1.20   0
   2  -7   6    3.65    1.61   0
   3  -8   4    0.74    0.94   0
   3  -6   6   20.53    1.66   0
   2  -8   4   67.83    1.89   0
   5  -7   3   63.65    1.40   0
   4  -6   5   23.35    1.61   0
   3  -8   3  178.86    2.52   0
   4  -8   2    3.13    0.83   0
   4  -7   4  133.07    2.26   0
   2  -8   3    8.01    1.17   0
   5  -7   2   22.16    1.10   0
   3  -8   2   16.97    1.28   0
   4  -8   1  137.37    1.88   0
   2  -8   2   33.49    1.53   0
   2  -7   4  156.41    2.87   0
   1  -8   1    1.32    1.05   0
   4  -7   3    1.65    0.85   0
   4  -6   4    0.63    0.88   0
   4  -8   0   12.24    0.99   0
   1  -8  -1    0.08    1.13   0
   3  -8   1   17.94    1.25   0
   5  -7   1    0.44    0.91   0
   3  -7   3   76.58    2.26   0
   4  -8  -3    0.50    0.50   0
   4  -8  -1    9.24    0.82   0
   2  -7   3    2.97    1.35   0
   4  -8  -2   46.04    1.07   0
   2  -8  -3   -0.16    0.71   0
   3  -8  -1   16.94    1.08   0
   4  -6   3  262.98    3.45   0
   5  -7   0  193.69    2.41   0
   3  -8  -2   -0.27    0.81   0
   3  -7   2    5.88    1.48   0
   2  -7   2   10.83    1.20   0
   6  -6  -1   87.41    1.55   0
   5  -6   1  139.30    2.43   0
   3  -7   1   12.64    1.41   0
   5  -7  -5   22.74    0.68   0
   2  -7   1   41.78    1.70   0
   4  -7   0    2.00    1.15   0
   5  -7  -4    3.29    0.76   0
   5  -7  -3    1.10    0.76   0
   6  -6  -2    1.89    0.94   0
   1  -7  -1   48.73    1.89   0
   2  -7   0    1.18    1.46   0
   3  -7   0  237.30    3.42   0
   4  -7  -6   14.31    0.74   0
   4  -7  -1   26.46    1.44   0
   5  -6   0   -0.26    1.31   0
   6  -6  -3   16.90    0.98   0
   1  -7  -2   53.17    2.00   0
   1  -7  10   93.96    1.46   0
   2  -8   8    1.11    0.54   0
   2  -7   9    0.30    0.68   0
   0  -9   8    8.90    0.37   0
   1  -6  10   49.44    1.42   0
   1  -5  10    0.88    0.73   0
  -2  -8   9   19.46    0.74   0
   1  -9   7   10.56    0.42   0
  -2  -5  10    6.42    1.02   0
   0  -7  10   57.18    1.36   0
  -2  -6  10    0.99    0.89   0
  -1  -7  10   43.99    1.23   0
   0  -8   9   46.26    1.10   0
   0  -6  10   95.63    1.92   0
  -1  -8   9  103.37    1.40   0
   1  -7   9    0.26    0.89   0
   2  -8   7  113.24    1.44   0
   2  -7   8  138.90    1.91   0
  -1  -9   7    0.51    0.49   0
   0  -9   7   45.48    0.81   0
   1  -6   9    3.41    1.16   0
  -2  -7   9    0.37    0.85   0
   2  -6   8  311.43    3.21   0
  -3  -8   7    4.18    0.59   0
  -2  -9   6    0.05    0.42   0
  -2  -8   8   12.25    0.91   0
   0  -7   9    1.90    1.00   0
  -3  -7   8    5.59    0.81   0
  -1  -7   9    1.31    0.94   0
  -2  -6   9  113.69    2.09   0
   0  -8   8    3.97    0.86   0
   0  -6   9   28.29    1.44   0
  -1  -8   8   90.02    1.53   0
   2  -8   6    0.35    0.71   0
   2  -7   7    0.12    0.91   0
   0  -9   6   11.22    0.74   0
   1  -9   5   47.31    0.90   0
  -3  -8   6   57.46    1.14   0
  -2  -9   5    0.65    0.44   0
  -2  -8   7  162.95    2.01   0
  -2  -7   8   39.50    1.34   0
   0  -7   8  137.98    2.32   0
  -1  -7   8   -0.15    1.04   0
  -3  -7   7   28.70    1.15   0
  -2  -6   8    5.76    1.13   0
   0  -8   7  149.47    1.98   0
   2  -8   5   17.75    0.97   0
  -1  -8   7   33.59    1.21   0
   0  -9   5    4.21    0.65   0
   1  -9   4   28.72    0.83   0
   2  -7   6    4.19    1.17   0
  -1  -9   5  340.83    2.29   0
  -2  -9   4    0.73    0.47   0
  -2  -8   6    9.00    1.00   0
   0  -7   7    5.36    1.25   0
   1  -9   3   20.79    0.84   0
   2  -8   4   68.93    1.47   0
  -1  -7   7   39.81    1.66   0
   0  -9   4   17.24    0.84   0
  -3  -7   6   62.49    1.50   0
  -1  -9   4   23.10    0.87   0
  -1  -8   6    2.14    0.89   0
   2  -7   5    9.01    1.26   0
   1  -9   2    7.41    0.68   0
  -3  -8   4    4.20    0.75   0
   0  -9   3   65.58    1.23   0
   2  -8   3    8.37    0.96   0
  -2  -8   5    3.50    0.95   0
  -2  -7   6   71.68    1.86   0
  -1  -9   3    1.25    0.64   0
   0  -7   6    5.55    1.24   0
  -1  -8   5   72.72    1.66   0
   1  -9   1   10.53    0.65   0
   2  -7   4  169.88    2.51   0
  -1  -7   6  102.17    2.02   0
   1  -9   0    0.33    0.44   0
   1  -8   4    5.33    0.83   0
   1  -7   5   33.93    1.64   0
  -1  -9   2   31.62    0.93   0
   0  -9   2    2.60    0.62   0
   2  -8   2   37.33    1.34   0
  -3  -8   3   -0.03    0.76   0
  -2  -8   4   37.51    1.32   0
   0  -9   1  142.84    1.58   0
  -2  -7   5  184.03    2.72   0
  -1  -9   1    0.38    0.57   0
   0  -7   5   48.50    1.84   0
   1  -8   3  134.01    2.16   0
  -1  -8   4   17.43    0.95   0
   0  -9   0    0.79    0.60   0
   2  -8   1   92.65    1.63   0
   2  -7   3    5.27    1.09   0
  -3  -8   2   89.32    1.46   0
  -3  -7   4    7.31    1.18   0
  -1  -9  -1  106.40    1.09   0
  -1  -7   5    0.62    1.18   0
   0  -9  -1   11.84    0.59   0
   0  -8   3   24.70    1.28   0
   2  -8   0   58.61    1.32   0
  -3  -8   1   -0.06    0.66   0
   1  -8   2   26.27    1.34   0
  -2  -7   4   58.30    1.94   0
   2  -8  -1   49.84    1.25   0
   2  -7   2   12.26    1.29   0
  -3  -7   3   84.95    1.89   0
   2  -8  -2  100.93    1.40   0
  -3  -8   0   63.00    1.18   0
   0  -8   2   53.79    1.60   0
   1  -8   1    0.68    0.97   0
  -3  -8  -1    2.72    0.62   0
  -1  -8   2  151.19    2.27   0
  -3  -7   2    1.36    1.07   0
  -2  -7   3   -0.49    1.23   0
   0  -8   1   24.81    1.35   0
   1  -8  -5    4.46    0.47   0
   1  -8   0  174.49    2.33   0
  -1  -8   1    0.44    1.00   0
   1  -8  -1   -0.12    0.93   0
  -2  -8  -4   32.92    0.72   0
   1  -8  -4   77.12    1.24   0
   2  -7   0    0.19    1.10   0
  -1  -8   0   34.05    1.33   0
   1  -8  -3    6.50    0.80   0
   1  -8  -2   17.49    1.02   0
  -3  -7   1  174.59    2.43   0
  -2  -8  -3   16.88    0.85   0
  -2  -8  -2   83.73    1.42   0
  -2  -7   2    9.19    1.40   0
  -1  -8  -5    9.28    0.51   0
  -1  -8  -1    1.00    0.99   0
   0  -8  -1    2.21    0.94   0
   2  -7  -1    8.94    1.10   0
  -3  -7   0    7.47    1.11   0
  -1  -8  -4  145.10    1.61   0
  -1  -8  -3   27.35    1.05   0
  -1  -8  -2   37.98    1.26   0
   0  -8  -4  132.52    1.63   0
   0  -8  -3    1.40    0.77   0
   2  -7  -2   53.11    1.54   0
  -3  -7  -1   10.09    1.07   0
   2  -7  -3    9.70    0.99   0
  -3  -7  -5   89.95    1.16   0
  -2  -7  -7  111.05    1.04   0
   2  -7  -4    0.10    0.87   0
  -3  -7  -2    0.81    0.89   0
  -3  -7  -4   13.72    0.89   0
  -3  -7  -3   55.70    1.37   0
   1  -7  -7    0.80    0.61   0
  -2  -7  -6   17.28    0.88   0
   0  -7  -1   93.13    2.13   0
  -1  -7  -7    1.11    0.58   0
  -1  -7  -1   18.34    1.19   0
   1  -7  -6   13.80    0.93   0
   0  -7  -2   17.43    1.51   0
   1  -7  -5    2.30    0.91   0
   1  -7  -4   14.90    1.12   0
  -2  -7  -5   47.06    1.23   0
  -2  -7  -4   34.52    1.28   0
  -2  -7  -3    5.03    1.15   0
  -1  -7  -6   41.24    1.17   0
   0  -7  -6   31.93    1.10   0
   0  -7  -3    8.10    1.34   0
  -1  -7  -3   98.63    2.08   0
   0  -7  -5   72.30    1.62   0
  -3  -6  -7    1.25    0.63   0
  -1  -7  -5    6.53    1.05   0
  -1  -7  -4    1.94    1.03   0
  -3  -6  -2  214.73    2.81   0
   1  -6  -9   56.10    1.00   0
  -3  -6  -6    0.30    0.82   0
  -3  -6  -3   61.52    1.81   0
  -3  -6  -5    9.55    1.05   0
  -3  -6  -4    0.80    0.97   0
  -2  -6  -8   10.84    0.75   0
  -1  -6  -9   49.31    0.99   0
   1  -6  -8  116.95    1.71   0
  -1  -5 -11   11.71    0.48   0
  -2  -6  -7   16.61    0.98   0
  -1  -6  -8   88.93    1.57   0
   1  -6  -7    0.26    0.95   0
  -2  -6  -6   64.00    1.63   0
   1  -6  -6   90.20    1.94   0
   1  -6  -5  171.82    2.62   0
  -2  -6  -5    0.50    1.22   0
  -2  -5 -10    1.86    0.56   0
  -1  -6  -7    5.65    1.07   0
   0  -6  -7   24.09    1.27   0
  -1  -6  -6   76.07    1.90   0
  -1  -6  -5   21.29    1.56   0
  -1  -6  -4   61.42    1.72   0
   0  -6  -6  240.94    3.01   0
   0  -6  -5  111.31    2.32   0
   1  -5 -10    1.03    0.67   0
  -3  -5  -7  165.05    2.18   0
  -1  -5 -10    0.36    0.70   0
  -3  -5  -6    0.28    1.09   0
  -2  -5  -9  112.18    1.65   0
  -1  -4 -12   12.20    0.64   0
  -3  -4 -10   53.13    1.09   0
   1  -5  -9    0.11    1.08   0
  -2  -5  -8   -0.09    0.98   0
  -2  -4 -11    1.08    0.72   0
  -1  -5  -9    0.03    0.93   0
   1  -5  -8   34.85    1.47   0
  -2  -5  -7   22.67    1.37   0
   1  -5  -7   45.17    1.59   0
  -3  -4  -9    0.64    0.85   0
  -1  -5  -8    0.00    1.04   0
   1  -3 -13    0.75    0.56   0
  -1  -3 -13   62.25    0.92   0
   0  -5  -8   59.61    1.63   0
   1  -4 -11    2.38    0.85   0
  -1  -5  -7  108.91    2.29   0
  -1  -4 -11   23.77    1.01   0
   0  -5  -7   18.99    1.37   0
  -3  -4  -8   31.16    1.31   0
  -3  -3 -11    7.17    0.73   0
  -1  -2 -14   98.70    0.98   0
   1  -2 -14   28.87    0.65   0
  -3  -4  -7    0.40    1.13   0
  -2  -3 -12    0.35    0.62   0
   1  -4 -10  163.72    2.24   0
  -2  -4  -9    9.43    1.14   0
  -1  -4 -10  260.20    2.76   0
  -3  -2 -12   50.48    0.98   0
  -3  -3 -10    0.97    0.82   0
  -2  -2 -13   11.07    0.66   0
   1  -4  -9   68.96    1.75   0
  -3  -1 -13    0.21    0.46   0
  -2  -4  -8  225.18    2.85   0
  -1  -4  -9    9.30    1.24   0
  -1  -3 -12   10.08    0.85   0
  -2  -1 -14    0.72    0.37   0
   0  -4  -9   12.64    1.41   0
  -1  -4  -8    8.44    1.01   0
  -7   4   8    1.59    0.44   0
  -8   3   4    8.03    0.80   0
  -7   4   2   12.42    1.30   0
  -6   5   2   52.16    1.54   0
  -8   3   5  183.20    1.87   0
  -6   4   0  154.94    2.78   0
  -7   3   1  100.23    2.12   0
  -6   5   4   51.95    1.63   0
  -6   5   5    1.28    0.91   0
  -7   4   7   60.47    1.21   0
  -7   4   4   68.91    1.68   0
  -7   4   6    0.87    0.83   0
  -6   4   9   27.74    0.83   0
  -5   5   2  100.98    2.26   0
  -4   5   7    0.67    0.76   0
  -7   3   2    5.80    1.35   0
  -5   5   3    0.48    0.99   0
  -5   5   6    3.44    1.00   0
  -6   4   2   98.22    2.40   0
  -5   5   5    5.58    1.25   0
  -8   2   7    7.14    0.70   0
  -7   3   9   18.92    0.72   0
  -4   5   6  111.70    2.30   0
  -7   3   3   26.94    1.45   0
  -4   5   5    3.28    1.25   0
  -6   4   3   31.27    1.71   0
  -8   1   5    1.31    0.70   0
  -7   3   4   23.96    1.51   0
  -7   3   8    0.46    0.74   0
  -6   4   4   40.71    1.77   0
  -6   4   7    0.55    0.98   0
  -8   1   8   -0.23    0.68   0
  -6   3  10   91.76    1.45   0
  -6   4   5   33.11    1.59   0
  -7   3   5    5.18    1.27   0
  -7   3   6   -0.14    0.96   0
  -7   3   7    3.14    0.98   0
  -7   2  10    4.27    0.59   0
  -5   4   8   19.02    1.28   0
  -5   4   7   89.49    2.08   0
  -8   0   7    4.39    0.63   0
  -5   4   5   18.36    1.61   0
  -4   4   8   10.77    1.24   0
  -7   1  11   70.98    1.07   0
  -7   2   4    6.03    1.36   0
  -7   2   9    2.05    0.83   0
  -4   4   7   -0.04    1.18   0
  -7   2   5    5.46    1.22   0
  -6   3   8   41.45    1.45   0
  -7   2   7   11.67    1.15   0
  -6   3   5  192.01    3.12   0
  -6   3   6    6.51    1.38   0
  -6   3   7   49.34    1.71   0
  -7   1   4    5.67    1.26   0
  -5   1  13    6.76    0.58   0
  -7   1  10    0.01    0.70   0
  -6   0  13    1.67    0.45   0
  -6   2  10    9.07    1.02   0
  -7   0  11    7.22    0.64   0
  -7   1   9    4.68    0.87   0
  -5   3   8    6.75    1.30   0
  -7   1   6   17.74    1.41   0
  -6   2   9    3.12    1.03   0
  -5   2  11    4.93    0.93   0
  -4   3   9   11.04    1.34   0
  -7   1   7   16.24    1.09   0
  -6   2   8  218.28    3.12   0
  -4   1  13    3.46    0.61   0
  -6   1  11    0.44    0.76   0
  -6   2   6   19.04    1.57   0
  -6   2   7   64.93    2.16   0
  -4   0  14   30.57    0.73   0
  -5   2  10   10.54    1.15   0
  -7  -2  11    2.68    0.64   0
  -7   0   6    0.36    1.26   0
  -6  -1  13   51.29    0.92   0
  -5   1  12    3.82    0.83   0
  -7   0   8   52.45    1.66   0
  -6   0  12   99.54    1.59   0
  -7  -1  10    0.31    0.80   0
  -6   1  10   54.35    1.64   0
  -5  -1  14    3.30    0.47   0
  -5   0  13   11.68    0.85   0
  -6   1   9   74.00    2.03   0
  -4   2  10    7.20    1.34   0
  -6  -2  13    2.25    0.48   0
  -5   2   8   85.88    2.12   0
  -6   0  11    5.42    1.06   0
  -6   1   7   77.68    2.26   0
  -6   1   8    0.41    1.34   0
  -4   1  12   77.68    1.73   0
  -6  -1  12    8.14    0.96   0
  -5  -2  14    0.81    0.58   0
  -6   0  10   11.48    1.31   0
  -5   1  10    4.72    1.44   0
  -4  -1  14   18.39    0.93   0
  -5  -3  14   73.02    1.01   0
  -6  -2  12    4.41    0.75   0
  -6  -1  11   25.47    1.31   0
  -6   0   9   14.71    1.27   0
  -5  -1  13   77.04    1.54   0
  -5   1   9   12.10    1.48   0
  -4   1  11    1.09    1.33   0
  -3   0  13  124.74    1.98   0
  -6  -1  10    0.15    1.13   0
  -5   0  11   24.11    1.48   0
  -3  -1  14    3.36    0.78   0
  -6  -2  11  137.49    2.23   0
  -5  -2  13    7.51    0.94   0
  -6  -3  11   13.21    1.09   0
  -5  -1  12   -0.21    1.01   0
  -5   0  10  116.42    2.62   0
  -4  -2  14   42.89    1.21   0
  -6  -4  10    0.77    0.88   0
  -6  -2  10   31.00    1.58   0
  -4  -1  13    0.62    1.03   0
  -6  -3  10  145.65    2.35   0
  -5  -4  13    4.82    0.69   0
  -5  -3  13   60.72    1.42   0
  -6  -2   8   24.86    1.62   0
  -5  -1  11   30.49    1.71   0
  -4   0  11   10.12    1.51   0
  -3   0  12   -0.69    1.25   0
  -5  -5  12    0.79    0.67   0
  -5  -2  12  111.61    2.22   0
  -4  -4  14   56.43    1.10   0
  -3  -2  14   21.64    1.12   0
  -5  -1  10   17.79    1.63   0
  -3  -1  13  104.65    2.07   0
  -4  -2  13    6.98    1.12   0
  -5  -3  12    9.44    0.87   0
  -5  -2  11    7.52    1.24   0
  -5  -5  11    9.49    0.93   0
  -4  -1  11   63.85    2.20   0
  -3  -3  14    9.82    0.97   0
  -5  -3  11   36.71    1.71   0
  -5  -2  10   36.97    2.00   0
  -4  -5  13   45.05    1.18   0
  -4  -3  13  225.83    2.67   0
  -3  -1  12    4.37    1.40   0
  -5  -4  11   43.58    1.62   0
  -4  -6  12    2.66    0.63   0
  -4  -4  13   32.78    1.30   0
  -4  -2  12    5.49    1.25   0
  -5  -5  10  163.22    2.21   0
  -3  -4  14   27.14    1.11   0
  -3  -2  13    7.50    1.01   0
  -5  -3  10   19.21    1.53   0
  -5  -4  10    8.71    1.29   0
  -2  -3  14   10.00    1.03   0
  -5  -3   9   31.70    1.82   0
  -5  -4   9   89.07    2.24   0
  -4  -2  11    5.37    1.16   0
  -3  -6  13   30.35    0.90   0
  -2  -2  13    6.93    1.22   0
  -4  -6  11   51.75    1.29   0
  -4  -4  12   22.96    1.36   0
  -2  -5  14    9.68    0.83   0
  -2  -4  14    0.64    0.86   0
  -4  -3  11   39.21    1.88   0
  -3  -5  13   46.00    1.43   0
  -4  -6  10    6.53    0.99   0
  -1  -4  14    1.17    0.81   0
  -4  -5  11   11.04    1.29   0
  -4  -4  11    2.36    1.35   0
  -2  -3  13  296.74    3.45   0
  -1  -5  14    1.06    0.72   0
   0  -5  14    0.76    0.55   0
  -3  -3  12    1.85    1.54   0
  -2  -2  12    6.52    1.50   0
  -4  -6   9   48.38    1.49   0
  -3  -6  12    6.48    0.97   0
  -4  -5  10   -0.43    1.16   0
  -2  -6  13    7.88    0.82   0
  -3  -4  12    2.03    1.31   0
  -2  -7  12   14.33    0.77   0
  -1  -3  13   -0.06    1.13   0
  -3  -7  10   51.71    1.22   0
  -3  -5  12    2.80    0.94   0
  -2  -5  13    6.67    1.06   0
  -4  -5   9   18.08    1.55   0
  -3  -3  11   21.95    1.80   0
  -2  -3  12   17.69    1.57   0
  -4  -5   8  110.14    2.54   0
  -3  -7   9   17.13    1.11   0
  -1  -4  13   50.24    1.62   0
  -3  -4  11   28.64    1.76   0
   1  -6  13    5.48    0.63   0
  -2  -6  12    3.39    1.06   0
   0  -4  13   48.91    1.53   0
  -2  -4  12  130.13    2.72   0
   1  -5  13   67.89    1.35   0
  -3  -6  10    2.87    1.17   0
  -2  -5  12   62.85    1.91   0
  -1  -3  12    0.89    1.30   0
   0  -5  13    1.53    1.14   0
  -1  -8  10    2.57    0.69   0
   0  -7  12    7.89    0.74   0
  -2  -7  10  109.74    1.94   0
  -2  -6  11  149.46    2.45   0
  -2  -4  11    5.61    1.43   0
  -1  -6  12    3.81    0.90   0
  -3  -6   8    1.92    1.25   0
  -2  -5  11   36.24    1.69   0
  -1  -7  11    2.89    0.87   0
   0  -4  12  192.47    2.91   0
   2  -6  12   72.12    1.12   0
  -1  -8   9   98.66    1.53   0
   0  -6  12   80.15    1.71   0
   1  -4  12    5.39    1.06   0
  -2  -7   9    1.42    1.10   0
   0  -5  12    3.11    1.18   0
   1  -6  12   77.24    1.56   0
  -1  -7   8   -0.66    1.05   0
   1  -8   7    0.44    0.88   0
  -1  -9   5  335.30    2.16   0
  -1  -8   7   31.35    1.23   0
   0  -7   8  135.05    2.34   0
   2  -9   4    9.32    0.53   0
   2  -7   7    0.49    1.02   0
   0  -8   7  143.13    2.09   0
   1  -9   5   47.41    1.00   0
   2  -8   6    0.42    0.82   0
  -2  -7   7   22.91    1.36   0
   3  -6   6   19.97    1.29   0
   0  -9   5    3.71    0.64   0
   3  -8   4    0.86    0.81   0
  -1  -9   4   23.73    0.86   0
   1  -7   7   28.49    1.26   0
   3  -7   5   -0.02    0.91   0
  -1  -8   6    2.03    0.98   0
  -1  -7   7   40.26    1.58   0
   1  -9   4   29.01    0.91   0
  -2  -8   5    3.83    0.82   0
   0  -8   6   21.72    1.14   0
   0  -7   7    6.99    1.03   0
   2  -8   5   18.20    1.12   0
   2  -7   6    3.57    0.90   0
   2  -9   2    0.36    0.48   0
  -1  -9   3    0.66    0.60   0
   1  -9   3   20.28    0.87   0
   1  -8   5   58.81    1.53   0
   1  -7   6   93.25    2.13   0
   2  -9   1   36.61    0.81   0
   0  -9   3   64.95    1.20   0
   2  -8   4   70.25    1.65   0
  -1  -9   2   30.64    0.84   0
   0  -8   5   21.03    1.22   0
   0  -7   6    4.78    1.26   0
   2  -9   0   24.03    0.67   0
   2  -7   5    8.67    1.28   0
  -1  -9   1    0.65    0.52   0
   0  -9   2    2.44    0.69   0
  -2  -8   3    6.73    0.93   0
  -1  -8   4   16.55    1.18   0
   1  -9   1   10.25    0.68   0
   1  -8   4    5.85    1.01   0
   1  -7   5   32.90    1.62   0
   2  -8   3    8.17    1.09   0
   3  -8   1   17.96    1.02   0
   3  -7   3   78.16    1.85   0
  -1  -7   5   -0.07    1.20   0
   0  -8   4   21.66    1.19   0
   0  -7   5   48.23    1.79   0
   1  -9   0    0.36    0.61   0
   2  -7   4  167.66    2.64   0
   0  -9  -2   11.82    0.48   0
   1  -9  -2    0.47    0.34   0
   0  -9   0    1.31    0.54   0
   3  -8   0   35.89    1.02   0
  -1  -8   3    7.46    1.10   0
   0  -9  -1   11.37    0.60   0
   1  -8   3  129.54    2.13   0
   2  -8   2   33.80    1.37   0
   3  -7   2    5.89    1.10   0
   0  -8   3   25.16    1.25   0
   3  -8  -1   17.34    0.79   0
   2  -7   3    4.16    1.25   0
   3  -8  -3   38.20    0.77   0
   3  -8  -2    0.12    0.58   0
  -2  -8   1    1.38    0.84   0
  -2  -7   3    0.22    1.00   0
   1  -8   2   24.08    1.25   0
   2  -8   1   91.86    1.81   0
   3  -7   1   13.51    1.22   0
   0  -8   2   51.69    1.40   0
  -2  -8  -3   16.67    0.61   0
   2  -8   0   56.48    1.54   0
  -2  -8  -1   15.59    0.83   0
  -1  -8   1   -0.41    1.07   0
   2  -7   2   12.09    1.39   0
  -2  -7   2    8.45    1.18   0
   0  -8   1   24.83    1.23   0
   2  -8  -5   27.90    0.66   0
   2  -8  -1   49.22    1.37   0
  -1  -8  -5    7.33    0.40   0
  -1  -8   0   32.81    1.30   0
   1  -8   0  169.45    2.31   0
   2  -8  -4   69.93    1.12   0
   2  -8  -3    0.37    0.83   0
   2  -8  -2  100.87    1.63   0
  -1  -8  -1    0.85    0.92   0
   0  -8   0   27.55    1.23   0
   2  -7   1   43.77    1.56   0
   3  -7  -1   12.13    1.16   0
  -2  -7   1   63.98    1.73   0
  -1  -8  -4  140.82    1.48   0
   1  -8  -1    0.29    0.93   0
  -1  -8  -3   26.39    1.10   0
  -1  -8  -2   36.55    1.19   0
   0  -8  -1    0.99    0.93   0
   1  -8  -5    4.48    0.53   0
   0  -8  -5    8.48    0.58   0
   1  -8  -2   16.10    1.05   0
   3  -7  -2   30.25    1.25   0
   0  -8  -2  109.65    1.85   0
   1  -8  -4   76.26    1.33   0
   1  -8  -3    6.74    0.87   0
   2  -7   0    0.75    1.37   0
   3  -7  -6    2.68    0.49   0
  -2  -7   0    8.76    1.22   0
   0  -8  -4  130.61    1.61   0
   0  -8  -3    0.88    0.82   0
   3  -7  -3    0.87    0.83   0
   3  -7  -5   71.49    1.24   0
   3  -7  -4   10.61    0.90   0
   2  -7  -1    9.43    1.21   0
  -2  -7  -1  227.05    2.74   0
  -1  -7   0   42.66    1.51   0
  -2  -7  -2    0.38    1.08   0
   0  -7  -8   16.89    0.57   0
   1  -7  -8    0.56    0.41   0
   2  -7  -2   53.57    1.67   0
   2  -7  -7  148.25    1.47   0
  -2  -7  -4   32.85    1.17   0
  -2  -7  -3    4.65    0.97   0
  -1  -7  -7    0.99    0.50   0
  -1  -7  -1   18.26    1.53   0
   1  -7  -1   54.69    1.63   0
   0  -7  -1   92.92    2.21   0
   2  -7  -6    4.27    0.78   0
   2  -7  -3   10.88    1.18   0
   2  -7  -5   19.69    1.12   0
   1  -7  -7    0.24    0.65   0
   3  -6  -8  120.53    1.38   0
  -1  -7  -3   97.21    1.99   0
   0  -7  -2   18.01    1.38   0
  -1  -7  -4    1.97    1.04   0
   1  -7  -3  215.81    2.75   0
   1  -6 -10   23.18    0.55   0
   0  -7  -6   31.81    1.16   0
   0  -7  -3    9.15    1.29   0
   1  -7  -6   12.07    0.83   0
   1  -7  -5    1.04    0.90   0
   1  -7  -4   14.30    1.19   0
   3  -6  -4    5.10    1.13   0
   0  -7  -5   71.45    1.66   0
   0  -7  -4    5.40    1.06   0
   3  -6  -7    6.25    0.83   0
   2  -6  -9   12.78    0.74   0
  -2  -5 -10    1.35    0.39   0
  -2  -6  -3   23.00    1.44   0
   1  -6  -9   59.54    1.22   0
   2  -6  -8    3.36    0.81   0
   2  -5 -11   42.69    0.79   0
  -2  -6  -4  158.44    2.46   0
  -2  -6  -5    0.07    1.02   0
   2  -6  -7   17.43    1.20   0
   2  -6  -6   33.67    1.41   0
   2  -6  -5    6.35    1.30   0
   1  -6  -8  116.21    1.79   0
   3  -5  -9    5.40    0.75   0
  -1  -6  -4   57.85    1.91   0
   0  -6  -8   25.28    1.13   0
   0  -5 -11   28.87    0.80   0
   1  -5 -11   37.41    0.94   0
  -1  -6  -5   19.80    1.34   0
   1  -6  -7    0.78    0.95   0
   1  -6  -5  176.61    2.76   0
   0  -6  -7   23.62    1.28   0
   1  -6  -6   89.94    2.10   0
   3  -5  -8   55.22    1.41   0
   0  -6  -6  235.28    2.94   0
   0  -6  -5  112.50    2.33   0
   3  -4 -11   22.31    0.81   0
  -2  -4 -11    1.20    0.51   0
   2  -4 -12   72.03    1.07   0
  -2  -5  -8   -0.09    0.86   0
   2  -5  -9   45.79    1.36   0
   0  -5 -10   95.20    1.58   0
   1  -5 -10    1.00    0.74   0
  -2  -5  -7   21.31    1.29   0
  -2  -5  -6   10.21    1.22   0
   1  -4 -12   32.47    0.98   0
   2  -5  -8    6.97    1.10   0
   0  -4 -12  111.02    1.38   0
   1  -5  -9   -0.42    0.85   0
   2  -5  -7    0.69    1.17   0
  -2  -4 -10    4.93    0.79   0
   1  -5  -8   34.81    1.58   0
   2  -4 -11   10.74    0.86   0
   2  -3 -13    9.62    0.58   0
   3  -4  -9  130.13    2.04   0
  -2  -3 -12    0.42    0.52   0
   0  -5  -8   58.30    1.65   0
   1  -5  -7   40.30    1.63   0
   0  -5  -7   17.67    1.47   0
   2  -2 -14    5.51    0.47   0
   1  -4 -11    2.98    0.80   0
   1  -3 -13    0.94    0.61   0
   2  -4 -10    1.45    0.92   0
  -2  -4  -9    9.01    1.00   0
  -2  -4  -8  214.34    2.75   0
   2  -4  -9  123.92    2.22   0
   0  -4 -10    0.77    0.96   0
   1  -4 -10  157.12    2.31   0
   1  -2 -14   29.00    0.80   0
   2  -3 -12    0.63    0.71   0
   3  -3 -10   50.22    1.47   0
   0  -4  -9   12.85    1.19   0
   1  -4  -9   67.75    1.89   0
   1  -3 -12   62.25    1.37   0
   3  -2 -12   -0.16    0.70   0
   2  -3 -11    0.59    0.82   0
   2  -2 -13   58.78    1.29   0
  -2  -2 -12   32.35    1.03   0
   2   0 -15   82.01    0.92   0
   1  -3 -11    1.00    0.94   0
  -2  -3  -9    4.59    1.07   0
  -1  -1 -14   36.66    0.87   0
   0  -3 -11    6.62    1.03   0
   0  -2 -13   97.55    1.56   0
   1  -2 -13   27.56    1.01   0
   2  -1 -14    3.35    0.63   0
   3  -1 -13    5.52    0.65   0
   1  -3 -10  142.07    2.41   0
   2  -2 -12    0.13    0.82   0
   0  -3 -10    9.45    0.91   0
   0  -1 -14   10.88    0.76   0
   0   0 -15   25.77    0.72   0
   1  -1 -14  147.90    1.70   0
   1   0 -15   19.30    0.71   0
   1  -2 -12  242.06    2.70   0
   0  -2 -12    7.06    0.88   0
   2  -2 -11   64.08    1.69   0
  -6   3  -9    1.92    0.66   0
  -6   5  -8    0.20    0.54   0
  -6   6  -6   91.29    1.17   0
  -3   3 -10    8.79    1.13   0
  -3   5  -9   23.55    1.26   0
  -5   6  -7   10.85    0.82   0
  -4   5  -9   56.49    1.47   0
  -3   6  -7    1.21    1.01   0
  -4   6  -7   10.58    1.02   0
  -7   5  -6    0.48    0.42   0
  -5   4  -9    0.89    0.80   0
  -5   5  -8   60.85    1.47   0
  -3   5  -8    3.60    1.15   0
  -3   6  -6   21.76    1.23   0
  -5   3  -9   67.25    1.49   0
  -5   6  -6    8.72    0.89   0
  -4   4  -9   52.87    1.67   0
  -4   5  -8   -0.00    1.05   0
  -6   4  -8    2.53    0.69   0
  -4   6  -6   36.47    1.41   0
  -6   6  -4    2.38    0.74   0
  -4   2  -9    1.63    1.10   0
  -4   3  -9   58.19    1.72   0
  -5   6  -5    1.27    0.83   0
  -7   3  -7    8.97    0.70   0
  -7   5  -5   76.19    1.17   0
  -6   2  -8   13.76    1.03   0
  -6   3  -8   10.58    0.94   0
  -7   2  -7   32.57    0.88   0
  -5   4  -8   74.67    1.74   0
  -5   5  -7  162.69    2.25   0
  -6   5  -6   27.72    1.08   0
  -5   6  -4  102.27    1.72   0
  -4   4  -8   18.57    1.37   0
  -4   5  -7   23.65    1.48   0
  -6   4  -7   39.87    1.27   0
  -5   3  -8  294.84    3.11   0
  -5   2  -8   22.02    1.33   0
  -5   5  -6    5.90    1.19   0
  -7   4  -5   15.47    0.94   0
  -7   2  -6    0.67    0.96   0
  -6   4  -6   61.12    1.61   0
  -5   5  -5  107.91    2.09   0
  -7   5  -2    5.14    0.74   0
  -6   5  -4   -0.02    0.67   0
  -8   4  -2    0.99    0.60   0
  -5   4  -6   66.80    1.85   0
  -7   5  -1   70.76    1.24   0
  -5   5  -4    1.66    1.16   0
  -8   2  -4    2.95    0.72   0
  -7   3  -5   21.86    1.07   0
  -7   4  -4   12.49    1.00   0
  -7   5   0    9.16    0.64   0
  -6   3  -6   14.72    1.31   0
  -6   4  -5    5.34    1.05   0
  -6   5  -3  173.64    2.30   0
  -9   2  -1   52.77    0.83   0
  -8   3  -3    8.73    0.82   0
  -8   4  -1   62.42    1.14   0
  -6   1  -6   56.44    1.64   0
  -6   2  -6    5.68    1.14   0
  -7   2  -5   26.15    1.20   0
  -6   5  -2    8.00    1.04   0
  -5   5  -3    8.64    1.15   0
  -8   4   0   22.09    0.83   0
  -7   4  -3    7.61    0.99   0
  -9   1  -1    3.57    0.50   0
  -8   4   1   12.62    0.64   0
  -6   4  -4   40.15    1.65   0
  -6   5  -1    0.79    0.85   0
  -7   3  -4    2.80    0.92   0
  -6   3  -5    3.53    1.20   0
  -9   2   0   72.05    1.02   0
  -8   1  -3    1.33    0.77   0
  -6   2  -5  117.78    2.26   0
  -8   3  -1   43.99    1.22   0
  -7   3  -3  105.46    1.99   0
  -7   4  -1    7.21    1.06   0
  -6   1  -5    9.90    1.29   0
  -9   0   0    0.20    0.41   0
  -7   1  -4  133.52    2.14   0
  -6   3  -4  150.70    2.55   0
  -9   2   2    4.33    0.48   0
  -8   2  -2    0.49    0.77   0
  -9   2   3   66.92    0.92   0
  -7   4   0    7.31    0.97   0
  -6   4  -2   89.99    2.10   0
  -8   0  -2    0.05    0.70   0
  -8   1  -2  113.75    1.78   0
  -8   3   0    2.49    0.80   0
  -9   1   1    1.13    0.54   0
  -7   2  -3  154.81    2.47   0
  -7   3  -2   59.77    1.63   0
  -7   4   2   13.40    0.96   0
  -6   4  -1   -0.02    1.05   0
  -9   0   1   52.76    0.93   0
  -8   2  -1   37.25    1.28   0
  -8   3   2   39.71    1.15   0
  -7   0  -3    2.37    1.03   0
  -7   1  -3    8.51    1.14   0
  -9   1   2  114.01    1.35   0
  -7   3  -1    0.68    1.21   0
  -6   4   0  168.13    2.49   0
  -9   1   3    3.15    0.58   0
  -8   0  -1   30.17    1.25   0
  -8   2   0   -0.23    0.87   0
  -7   2  -2    2.75    1.17   0
  -6   4   1    8.78    1.16   0
  -9   1   5   52.40    0.79   0
  -9   0   3   10.79    0.66   0
  -8   1   0  145.59    2.17   0
  -7   0  -2    8.09    1.16   0
  -8  -1   0  133.00    1.85   0
  -7   2  -1    1.16    0.87   0
  -9   0   4    0.22    0.51   0
  -9   0   6    0.30    0.35   0
  -8   0   0    3.89    0.99   0
  -8   2   2   11.47    1.00   0
  -9   0   5  165.96    1.46   0
  -8   2   6    2.62    0.57   0
  -7   3   2    6.94    1.10   0
  -9  -1   5   17.49    0.59   0
  -9  -1   6   85.85    0.94   0
  -8   1   1    1.94    0.90   0
  -8   2   5   44.02    1.14   0
  -8  -1   1   11.46    0.99   0
  -8   1   8    0.56    0.47   0
  -8   1   2   -0.58    0.95   0
  -8  -2   2    0.29    0.89   0
  -8   1   3   36.07    1.36   0
  -8   0   2    9.84    1.03   0
  -8   0   9   21.52    0.62   0
  -8   1   4   32.21    1.23   0
  -8  -3   4   32.52    0.91   0
  -8   1   5    1.17    0.87   0
  -8   1   6   53.59    1.29   0
  -7  -1   0  149.42    2.43   0
  -8   0   3   80.49    1.69   0
  -7   2   3    9.60    1.22   0
  -8  -2   3   33.71    1.15   0
  -7   2   6   38.88    1.26   0
  -8  -1   3    5.76    1.02   0
  -7   2   5    7.13    1.16   0
  -8   0   4   17.30    1.18   0
  -8  -3   5   20.83    0.81   0
  -7   1   9    3.97    0.67   0
  -8  -2   4    1.31    0.81   0
  -8   0   5   15.58    1.05   0
  -8   0   6    9.00    0.91   0
  -8   0   7    4.67    0.78   0
  -7  -1   1   10.73    1.18   0
  -8  -3   6    5.04    0.74   0
  -7   1   3  122.63    2.37   0
  -8  -3   7    7.90    0.63   0
  -8  -2   5   99.42    1.65   0
  -8  -2   9    4.43    0.51   0
  -8  -1   5   10.96    0.93   0
  -8  -1   6   24.09    1.12   0
  -8  -1   7   22.35    1.00   0
  -7  -2   2   -0.30    1.00   0
  -7   1   4    6.90    1.22   0
  -7   1   8    0.81    0.79   0
  -8  -2   7   26.72    0.93   0
  -8  -2   8    3.66    0.65   0
  -7  -1  11    3.41    0.47   0
  -7  -2   3  100.18    2.03   0
  -7   0   4   83.37    2.02   0
  -7  -3   4    5.84    0.96   0
  -7   0   5   52.21    1.72   0
  -7   0   8   61.09    1.50   0
  -7  -4   6   38.13    1.08   0
  -7  -3  11    9.32    0.52   0
  -7  -2   4   45.83    1.61   0
  -7  -2  11    2.50    0.52   0
  -7  -1   4  217.07    2.79   0
  -7  -1  10    0.26    0.69   0
  -7   0   6    0.29    1.09   0
  -7  -4   7   59.77    1.23   0
  -7  -3   5   42.60    1.37   0
  -7  -1   5   19.62    1.33   0
  -6   1   8    0.41    0.88   0
  -7  -4   8    4.09    0.72   0
  -7  -4   9   34.06    0.86   0
  -7  -2   5   21.59    1.28   0
  -7  -3  10    1.67    0.60   0
  -7  -2  10   69.47    1.28   0
  -7  -1   6   79.13    1.90   0
  -7  -1   8  114.84    1.91   0
  -7  -2   6   25.99    1.33   0
  -7  -1   7   53.15    1.39   0
  -7  -3   7    2.10    0.89   0
  -7  -3   9    0.06    0.65   0
  -7  -2   9   57.65    1.35   0
  -6   0  10   12.32    0.88   0
  -7  -2   7   22.05    1.18   0
  -7  -2   8    1.83    0.84   0
  -6  -5  11   14.74    0.54   0
  -6  -2  12    4.20    0.58   0
  -6  -1  11   26.53    1.01   0
  -6   0   9   16.59    1.16   0
  -6  -4  12    6.40    0.47   0
  -6   0   8   12.07    1.18   0
  -6  -5  10   13.98    0.69   0
  -6  -5   8   65.26    1.22   0
  -6  -5   9    7.88    0.64   0
  -6  -3  12   15.23    0.66   0
  -6  -1  10   -0.39    0.83   0
  -6  -4   6   30.24    1.26   0
  -6  -4  11   10.17    0.66   0
  -5  -2  13    7.88    0.56   0
  -6  -3  11   13.22    0.83   0
  -6  -1   8  102.58    2.00   0
  -5  -6  10   18.90    0.62   0
  -5  -1  12    0.10    0.62   0
  -5   0  10  116.91    1.86   0
  -4  -2  14   42.67    0.74   0
  -6  -4   7   27.66    1.23   0
  -6  -4  10    0.64    0.68   0
  -6  -2  10   32.18    1.21   0
   2  -7  -4    0.27    0.80   0
   6  -5  -7    3.23    0.60   0
   5  -6  -6    2.93    0.72   0
   5  -6  -5   97.71    1.66   0
   6  -5  -5    1.00    0.81   0
   3  -6  -9    3.22    0.45   0
   4  -6  -2   21.53    1.19   0
   4  -6  -8    0.14    0.58   0
   4  -6  -3  188.29    2.82   0
   6  -4  -9   28.62    0.81   0
   4  -6  -7    3.24    0.74   0
   4  -6  -4   24.13    1.40   0
   5  -5  -9    6.22    0.59   0
   5  -5  -3    0.66    1.37   0
   4  -6  -6    1.17    0.79   0
   4  -6  -5    6.70    1.01   0
   6  -4  -8    8.13    0.92   0
   6  -4  -5   31.81    1.40   0
   5  -5  -4   53.14    1.86   0
   5  -4 -11    0.14    0.37   0
   6  -4  -6  118.27    1.98   0
   3  -6  -3  120.75    2.50   0
   5  -5  -8  111.56    1.67   0
   6  -4  -7    0.58    0.86   0
   2  -6  -8    3.13    0.71   0
   4  -5 -10    4.51    0.60   0
   5  -5  -5    5.18    1.20   0
   6  -3 -10   92.72    1.21   0
   3  -6  -7    6.05    1.00   0
   5  -5  -7    0.33    0.85   0
   5  -5  -6    3.94    0.94   0
   3  -6  -6   22.19    1.41   0
   3  -6  -5  226.22    2.96   0
   2  -6  -4   39.95    1.71   0
   2  -6  -5    6.26    1.19   0
   6  -3  -6    6.82    1.13   0
   4  -5  -9   17.84    1.00   0
   5  -4 -10    0.40    0.65   0
   6  -3  -8   40.06    1.32   0
   4  -5  -8    9.10    1.05   0
   4  -5  -7    1.42    1.15   0
   4  -5  -5    3.20    1.04   0
   5  -4  -9   64.02    1.50   0
   5  -4  -5   18.54    1.60   0
   6  -2 -10    8.40    0.70   0
   2  -5 -10    1.16    0.69   0
   3  -4 -12   12.47    0.69   0
   5  -4  -8   19.66    1.26   0
   1  -5  -9    0.62    1.00   0
   4  -4 -10   14.47    1.06   0
   5  -1 -13    6.45    0.52   0
   5  -3 -10   36.65    1.30   0
   5  -2 -12   17.14    0.81   0
   2  -5  -8    5.89    1.18   0
   3  -4 -11   21.32    0.96   0
   4  -3 -12    0.30    0.81   0
   2  -5  -7    1.01    1.12   0
   3  -3 -13   12.91    0.67   0
   4  -4  -9   55.95    1.68   0
   5  -3  -9   92.11    2.01   0
   4  -4  -8   10.98    1.34   0
   5  -3  -8    5.76    1.28   0
   5  -3  -7   12.23    1.41   0
   4  -4  -7    0.47    1.05   0
   2  -4 -11    8.71    0.94   0
   3  -2 -14   36.72    0.77   0
   5  -2 -11    4.67    0.97   0
   1  -4 -11    2.44    0.79   0
   1  -3 -13    0.49    0.60   0
   3  -4 -10   12.97    1.14   0
   4  -3 -11    8.12    1.03   0
   4  -2 -13   29.23    0.93   0
   4  -1 -14   12.43    0.58   0
   5  -1 -12    3.63    0.76   0
   3  -4  -9  119.32    2.37   0
   5  -2 -10    8.64    1.11   0
   3  -3 -12  165.97    2.14   0
   5  -2  -9   62.37    1.85   0
   2  -4 -10    1.66    1.12   0
   3  -4  -8    7.50    1.10   0
   5  -2  -8   82.66    2.16   0
   2  -2 -14    5.32    0.62   0
   2  -1 -15    0.85    0.42   0
   5  -1 -11  152.42    2.20   0
   4  -3  -9   12.10    1.19   0
   0  -3 -12    1.46    0.77   0
   3  -3 -11   30.32    1.24   0
   3  -2 -13    4.95    0.85   0
   4  -1 -13    3.78    0.85   0
   5  -1 -10    5.82    1.14   0
   3  -3 -10   48.27    1.79   0
   4   1 -14   17.88    0.75   0
   2  -2 -13   54.03    1.41   0
   3  -2 -12    0.57    1.10   0
   3   1 -15   19.56    0.76   0
   1  -3 -11    0.53    1.12   0
   4   0 -13   13.20    1.05   0
   2   0 -15   79.41    1.32   0
   3   2 -15   43.10    0.81   0
   2  -1 -14    3.93    0.84   0
   3  -1 -13    5.75    1.02   0
   4  -1 -11    1.91    1.22   0
   3  -2 -11   67.62    1.87   0
   0  -3 -10    8.64    1.36   0
   2  -2 -12    1.01    1.12   0
   4   1 -13    0.40    0.87   0
   4  -1 -10   12.57    1.47   0
   4   0 -12   23.97    1.42   0
   0  -2 -12    7.26    1.11   0
   2  -2 -11   63.36    2.15   0
   4   0 -11   10.24    1.40   0
   2  -1 -13    1.12    0.95   0
   2   1 -15    4.71    0.76   0
   3   1 -14    2.59    0.99   0
   4   1 -12    4.85    1.06   0
  -1  -1 -13    0.81    0.82   0
  -1   1 -15   -0.19    0.50   0
   3  -1 -11   55.80    2.06   0
   1  -2 -11  239.77    3.47   0
   1  -1 -13   -0.08    1.09   0
   3   3 -14    8.27    0.81   0
   0  -2 -11   16.83    1.60   0
   0  -1 -13    1.38    1.06   0
   1   1 -15    7.54    0.84   0
  -1   0 -14   14.05    0.92   0
   2   3 -15   30.47    0.92   0
   2   0 -13    1.79    1.16   0
   2   1 -14   29.35    1.37   0
   1  -1 -12    8.18    1.65   0
  -1  -1 -12    6.20    1.20   0
   1   2 -15  119.62    1.79   0
   1   0 -13  255.01    3.37   0
   3   1 -12    4.67    1.08   0
   1   1 -14   49.40    1.70   0
   2   0 -12   -0.20    1.50   0
   2   2 -14   43.85    1.56   0
   2   4 -14    0.14    0.77   0
   2   3 -14   11.09    1.16   0
  -1   3 -15   13.51    0.76   0
   0   1 -14   58.44    1.69   0
   0   3 -15    8.83    0.83   0
   3   2 -12   99.73    2.43   0
   0   4 -15   47.01    0.95   0
   1   0 -12   14.96    1.74   0
  -2   2 -14    6.93    0.88   0
   1   2 -14   13.91    1.25   0
   1   5 -14    0.84    0.61   0
   2   2 -13    7.62    1.36   0
   1   1 -13   68.13    2.18   0
  -1   0 -12   12.86    1.62   0
  -1   2 -14    4.28    1.03   0
   0   2 -14    2.60    1.16   0
   0   1 -13   46.29    1.99   0
   1   4 -14    1.32    0.93   0
   2   4 -13    8.83    1.18   0
   2   2 -12    6.28    1.70   0
   0   3 -14   15.38    1.21   0
   0   5 -14    0.75    0.81   0
   1   1 -12   45.10    2.11   0
   1   2 -13   12.04    1.54   0
  -1   3 -14   49.27    1.50   0
  -1   5 -14   18.74    0.89   0
   0   4 -14   15.64    1.10   0
   2   3 -12   16.37    1.64   0
  -2   1 -12    8.73    1.38   0
   0   1 -12   51.29    1.90   0
   0   2 -13   33.83    1.52   0
   1   5 -13  157.24    2.21   0
   2   4 -12  128.27    2.38   0
  -4   3 -12   13.59    0.75   0
  -1   1 -12  106.27    2.65   0
  -1   2 -13   37.80    1.77   0
   0   6 -13    7.89    0.73   0
  -3   4 -13   18.48    0.96   0
  -3   5 -13   35.67    0.79   0
  -2   6 -13    4.33    0.56   0
  -3   2 -12    2.33    1.09   0
   0   3 -13  186.02    2.93   0
  -1   6 -13    5.11    0.65   0
  -1   3 -13    0.78    1.24   0
   0   2 -12    2.89    1.34   0
   0   5 -13    0.35    0.99   0
   1   3 -12    0.51    1.44   0
   0   4 -13   50.36    1.54   0
  -2   2 -12    0.38    1.24   0
  -2   4 -13   96.83    1.86   0
  -2   5 -13   19.19    1.13   0
  -1   2 -12  119.18    2.72   0
   1   4 -12   49.04    1.90   0
   1   5 -12    5.09    1.07   0
  -1   4 -13    4.61    1.17   0
  -1   5 -13   68.97    1.55   0
  -3   6 -12   83.33    1.20   0
   0   3 -12   24.07    1.81   0
   0   6 -12   81.22    1.62   0
  -4   6 -11   24.84    0.68   0
  -1   3 -12   47.82    1.71   0
   0   5 -12    2.90    1.19   0
  -3   5 -12   10.74    0.86   0
  -2   6 -12   70.12    1.38   0
  -1   6 -12   78.79    1.64   0
   1   5 -11   38.72    1.71   0
  -6   7  -4    3.78    0.49   0
  -5   5  -7  144.64    2.44   0
  -3   6  -8   58.89    2.22   0
  -2   6  -8  303.74    4.11   0
  -4   8  -5   15.15    0.93   0
  -3   7  -7    4.16    1.33   0
  -2   7  -7    0.58    1.44   0
  -6   6  -5   17.92    0.97   0
  -3   5  -8    2.50    1.40   0
  -5   8  -3  127.82    1.34   0
  -2   8  -5   16.35    1.31   0
  -5   6  -6    7.19    1.25   0
  -5   7  -5   28.20    1.15   0
  -4   7  -6   33.05    1.53   0
  -6   5  -5   57.91    1.68   0
  -4   8  -4   13.81    0.93   0
  -5   8  -2    6.81    0.61   0
  -3   6  -7    0.91    1.16   0
  -3   7  -6  123.98    2.53   0
  -5   5  -6    5.95    1.35   0
  -3   8  -4    1.04    1.03   0
  -1   7  -5   32.95    1.86   0
  -6   6  -4    2.07    1.01   0
  -4   8  -3   44.02    1.36   0
  -5   7  -4    1.16    1.01   0
  -4   7  -5   14.47    1.44   0
  -7   6  -1   20.33    0.75   0
  -6   7  -2   40.86    1.09   0
  -5   6  -5    0.14    1.37   0
  -2   7  -5    8.11    1.62   0
  -3   6  -6   18.35    1.83   0
  -3   7  -5   -0.52    1.44   0
  -6   5  -4   -0.57    1.32   0
  -6   6  -3   53.37    1.58   0
  -5   5  -5   97.17    2.50   0
  -4   7  -4  126.01    2.52   0
  -7   6   0   10.42    0.74   0
  -5   7  -3   63.53    1.75   0
  -4   6  -5   23.65    1.96   0
  -3   7  -4   60.85    2.28   0
  -4   8   1    8.68    0.77   0
  -6   7   0   14.33    0.82   0
  -7   5  -1   67.66    1.55   0
  -7   6   1    7.05    0.75   0
  -5   7  -2   22.21    1.41   0
  -4   7  -3    0.11    1.34   0
  -2   7  -3    4.17    1.55   0
  -6   5  -3  164.13    2.69   0
  -6   6  -2   62.15    1.76   0
  -6   7   1   12.08    0.78   0
  -6   7   2   15.53    0.74   0
  -5   5  -4    1.64    1.54   0
  -4   6  -4    0.67    1.53   0
  -7   6   2   25.67    0.74   0
  -5   6  -3   39.04    1.95   0
  -5   7  -1   -0.53    1.19   0
  -4   7  -2    3.39    1.02   0
  -2   7  -2    9.17    1.19   0
  -7   5   0    7.57    1.04   0
  -3   7  -2    5.69    1.56   0
  -5   7   0  184.73    2.62   0
  -5   5  -3    8.49    1.60   0
  -4   6  -3  268.38    4.01   0
  -5   6  -2    8.16    1.20   0
  -7   5   1   76.39    1.75   0
  -6   6   0   44.44    1.64   0
  -5   7   1    8.13    1.17   0
  -3   7  -1   13.78    1.68   0
  -5   7   2   51.50    1.44   0
  -2   7   0   -0.17    1.46   0
  -5   6  -1  137.64    2.83   0
  -4   6  -2   43.64    2.13   0
  -4   7   5    3.15    0.70   0
  -7   5   2   11.22    1.03   0
  -6   6   1   87.38    1.91   0
  -6   6   6   -0.03    0.58   0
  -7   4   1   61.50    1.74   0
  -4   7   3   13.28    1.33   0
  -4   7   4    6.12    0.97   0
  -7   5   3    6.42    0.94   0
  -7   5   6   -0.02    0.49   0
  -6   4  -1    1.23    1.54   0
  -5   6   0    0.43    1.31   0
  -3   7   3    0.96    1.32   0
  -7   5   4   41.05    1.28   0
  -6   5   0    1.61    1.00   0
  -6   6   3   16.37    1.16   0
  -6   6   5    0.49    0.77   0
  -6   6   4    4.67    0.94   0
  -5   6   1   17.05    1.58   0
  -4   6   0   10.03    1.70   0
  -6   5   1   26.62    1.69   0
  -5   6   2   36.10    1.73   0
  -7   4   3    3.93    1.14   0
  -5   6   3   82.75    2.08   0
  -4   6   1    7.23    1.60   0
  -7   4   4   66.00    1.74   0
  -5   6   4   35.52    1.32   0
  -5   6   5   98.01    1.93   0
  -4   6   7    3.29    0.98   0
  -6   4   1    7.37    1.56   0
  -6   5   3   38.07    1.76   0
  -7   4   5    1.31    1.05   0
  -7   4   6    0.78    0.95   0
  -6   5   4   52.42    1.77   0
  -6   5   7    2.77    0.90   0
  -4   6   6    0.24    1.12   0
  -6   5   5    0.82    1.20   0
  -6   5   6   71.22    1.76   0
  -5   5   9    6.11    0.67   0
  -4   6   4   22.95    1.65   0
  -4   6   5    6.98    1.34   0
  -3   6   3  118.18    2.72   0
  -6   4   2   98.26    2.75   0
  -3   6   6   20.56    1.40   0
  -7   3   4   24.67    1.50   0
  -3   6   4    5.87    1.48   0
  -3   6   5  215.04    3.20   0
   2  -6   8  308.15    3.95   0
   3  -6   8   59.20    1.98   0
   2  -7   7    0.07    1.27   0
   3  -7   7    3.09    1.22   0
   3  -5   8    1.79    1.23   0
   6  -6   5   18.05    0.89   0
   5  -8   3  131.12    1.27   0
   4  -7   6   30.97    1.38   0
   3  -6   7    2.34    1.39   0
   4  -8   4   14.68    0.87   0
   4  -5   7   20.53    1.49   0
   2  -8   4   62.96    1.60   0
   5  -8   2    7.05    0.55   0
   3  -8   4   -0.06    0.93   0
   2  -8   3    6.92    1.00   0
   4  -8   3   43.78    1.21   0
   5  -8   1    9.04    0.53   0
   5  -7   4    0.66    0.86   0
   2  -7   5    7.25    1.44   0
   3  -8   3  164.07    2.25   0
   5  -6   5    0.66    1.20   0
   6  -7   2   40.10    0.99   0
   7  -6   1   19.60    0.68   0
   2  -8   2   30.22    1.28   0
   3  -7   5    1.04    1.23   0
   6  -5   4    0.85    1.14   0
   3  -8   2   16.85    1.17   0
   4  -8   1  133.54    1.76   0
   4  -7   4  126.11    2.35   0
   5  -5   5   93.56    2.27   0
   4  -6   5   23.16    1.72   0
   7  -6   0   10.59    0.65   0
   4  -8   0   12.49    0.86   0
   3  -8   0   32.88    1.28   0
   4  -8  -1    8.48    0.71   0
   6  -7   0   13.92    0.75   0
   4  -7   3    1.21    1.16   0
   6  -5   3  162.20    2.58   0
   2  -7   3    4.16    1.03   0
   6  -7  -1   11.58    0.72   0
   6  -6   2   62.16    1.61   0
   4  -6   4    1.29    1.44   0
   5  -5   4    3.17    1.29   0
   6  -7  -2   16.17    0.67   0
   7  -6  -2   25.49    0.74   0
   5  -6   3   38.58    1.76   0
   5  -7   1    0.07    1.02   0
   2  -7   2    9.88    1.45   0
   4  -7   2    3.56    0.92   0
   3  -7   2    5.40    1.40   0
   7  -5   0    8.14    0.90   0
   5  -7   0  190.33    2.47   0
   6  -5   2    6.74    1.25   0
   4  -7   1    2.70    1.18   0
   4  -6   3  259.64    3.52   0
   5  -5   3    8.12    1.49   0
   5  -6   2    7.81    1.08   0
   3  -7   1   13.09    1.50   0
   5  -7  -1    9.04    1.05   0
   6  -6   0   41.94    1.47   0
   7  -5  -1   73.90    1.58   0
   2  -7   0    1.29    1.24   0
   5  -7  -2   55.02    1.33   0
   3  -7   0  226.69    3.16   0
   4  -6   2   40.87    1.91   0
   6  -5   1    0.78    0.86   0
   4  -7  -5    3.39    0.57   0
   6  -6  -1   85.13    1.62   0
   7  -5  -2   11.33    1.00   0
   3  -7  -1   11.84    1.45   0
   4  -7  -4    6.69    0.90   0
   4  -7  -2   86.40    1.90   0
   6  -6  -6    0.47    0.44   0
   6  -6  -2    2.89    0.93   0
   3  -7  -4    9.04    0.94   0
   3  -7  -3    0.71    1.17   0
   3  -7  -2   27.62    1.39   0
   5  -6   0    0.56    1.17   0
   6  -5   0    1.49    1.15   0
   6  -4   1    1.35    1.27   0
   7  -5  -6    0.21    0.41   0
   7  -5  -3    6.06    0.80   0
   6  -6  -3   16.91    1.07   0
   6  -6  -4    4.69    0.80   0
   4  -6  -8   -0.01    0.30   0
   4  -6   0   10.48    1.49   0
   5  -6  -1   16.41    1.43   0
   5  -6  -7   10.36    0.64   0
   6  -5  -1   25.00    1.54   0
   5  -6  -2   35.94    1.59   0
   4  -6  -1    7.24    1.45   0
   5  -6  -3   84.29    1.93   0
   5  -6  -4   35.58    1.42   0
   6  -5  -8   59.28    0.96   0
   4  -6  -7    3.14    0.90   0
   5  -6  -5  102.55    1.83   0
   6  -5  -3   36.36    1.59   0
   6  -4  -1    8.07    1.35   0
   7  -4  -5    1.48    0.89   0
   4  -6  -6    0.10    1.03   0
   6  -5  -7    3.45    0.79   0
   6  -5  -4   50.65    1.63   0
   7  -4  -6    0.98    0.78   0
   3  -6  -3  117.91    2.56   0
   4  -6  -5    7.15    1.25   0
   4  -6  -4   22.36    1.52   0
   5  -5  -9    6.61    0.62   0
   6  -5  -6   71.44    1.63   0
   6  -5  -5    0.97    1.08   0
   3  -6  -6   21.56    1.30   0
   6  -4  -2   94.71    2.48   0
   3  -6  -5  222.95    3.04   0
   3  -6  -4    4.36    1.31   0
   5  -5  -2  101.61    2.40   0
   7  -3  -4   23.27    1.33   0
  -8  -1   2  132.44    2.27   0
  -8  -3   7    8.16    0.65   0
  -8  -1   3    6.20    1.07   0
  -8  -2   1   13.70    1.16   0
  -7  -2  -2  102.14    2.06   0
  -7   0   5   50.44    1.71   0
  -8  -2   2   -0.19    1.04   0
  -7  -1  -1    8.97    1.42   0
  -7   0   4   88.70    2.10   0
  -8  -3   6    4.81    0.74   0
  -8  -2   4    1.58    0.92   0
  -7  -5   0    3.58    0.56   0
  -7  -4  -1   10.64    0.93   0
  -8  -3   2   71.80    1.52   0
  -8  -4   3    4.94    0.67   0
  -8  -4   5    0.15    0.59   0
  -8  -3   3    1.11    0.89   0
  -8  -3   5   21.13    1.02   0
  -7  -2  -1    7.86    1.28   0
  -7  -1   0  169.77    2.84   0
  -8  -4   4  103.24    1.48   0
  -7  -3  -1   87.49    1.82   0
  -7  -1   6   79.36    1.92   0
  -7  -2   7   23.35    1.17   0
  -7  -6   3    5.11    0.52   0
  -7  -5   1   99.67    1.50   0
  -7  -4   0   21.87    1.13   0
  -7  -3   8   96.42    1.53   0
  -7  -1   3   -0.01    1.23   0
  -7  -1   4  221.83    3.09   0
  -7  -5   8  115.45    1.21   0
  -7  -3   0   79.73    1.81   0
  -7  -2   1    1.43    1.20   0
  -7  -6   4  105.40    1.19   0
  -7  -6   6    2.12    0.39   0
  -7  -4   8    4.75    0.71   0
  -7  -2   6   25.62    1.45   0
  -7  -6   5    0.65    0.43   0
  -7  -4   1    1.37    0.98   0
  -7  -2   2    0.18    1.21   0
  -7  -5   2    7.58    0.86   0
  -7  -3   7    1.40    0.91   0
  -7  -2   3  104.85    2.32   0
  -7  -2   5   21.59    1.42   0
  -6  -7   3   19.51    0.58   0
  -7  -4   7   62.50    1.40   0
  -7  -3   2  183.01    2.75   0
  -7  -5   3   38.59    1.20   0
  -7  -3   6  283.48    2.90   0
  -7  -5   4   18.59    1.01   0
  -7  -3   3  108.79    2.24   0
  -7  -3   4    6.20    1.24   0
  -6  -6   1   37.23    1.05   0
  -7  -5   5   43.09    1.21   0
  -7  -4   3    6.40    0.99   0
  -6  -5   0   13.40    1.18   0
  -7  -4   4    4.15    0.98   0
  -7  -4   5   47.82    1.41   0
  -6  -7   5   91.03    1.09   0
  -6  -7   6   14.98    0.56   0
  -6  -4   0  125.86    2.25   0
  -6  -6   2   89.09    1.61   0
  -6  -6   8   56.73    1.09   0
  -6  -5   1   40.83    1.43   0
  -6  -4   1   57.66    1.77   0
  -6  -3   7    3.52    1.07   0
  -5  -7   9   78.65    0.92   0
  -6  -6   7   10.86    0.77   0
  -6  -5   2   44.65    1.49   0
  -6  -6   4    0.19    0.76   0
  -6  -6   5   73.42    1.52   0
  -6  -6   6   54.41    1.33   0
  -6  -3   6    2.12    0.85   0
  -5  -7   2    0.32    0.72   0
  -6  -5   3   94.32    1.98   0
  -6  -4   3    4.15    1.27   0
  -6  -5   4   54.14    1.58   0
  -6  -5   5   73.55    1.77   0
  -6  -5   6   78.67    1.78   0
  -6  -4   4   13.08    1.27   0
  -5  -7   3  199.32    2.15   0
  -5  -6   1   -0.06    0.83   0
  -5  -6   9   24.41    1.03   0
  -5  -5   0    0.40    1.00   0
  -5  -7   7    0.35    0.64   0
  -4  -8   3    3.74    0.56   0
  -4  -8   8   95.57    1.05   0
  -5  -7   5    0.65    0.69   0
  -5  -7   6    7.88    0.80   0
  -5  -6   2   20.06    1.14   0
  -5  -5   1  103.44    1.95   0
  -5  -4   8   29.25    1.36   0
  -4  -7   1   81.39    1.53   0
  -4  -8   4  109.89    1.37   0
  -4  -8   5    8.96    0.69   0
  -4  -8   6   26.28    0.80   0
  -4  -6  10    7.10    0.67   0
  -5  -6   7   59.16    1.48   0
  -4  -7   9   -0.09    0.61   0
  -5  -6   4   71.47    1.69   0
  -5  -6   6   73.43    1.64   0
  -5  -5   7    4.41    1.03   0
  -5  -6   5    4.42    0.78   0
  -4  -7   2    0.91    0.75   0
  -3  -6  -6   -0.02    1.03   0
  -3  -6  -2  225.69    2.86   0
  -3  -4 -11    3.16    0.42   0
  -2  -6  -6   65.05    1.86   0
  -1  -6  -5   19.48    1.55   0
  -1  -6  -4   60.24    2.10   0
  -5  -5  -6    4.00    0.77   0
  -3  -6  -3   65.33    1.96   0
  -3  -5  -9    1.87    0.78   0
  -1  -4 -11   23.78    1.07   0
   0  -5  -8   57.85    1.78   0
  -4  -5  -8   44.88    1.11   0
  -2  -6  -5    0.71    1.38   0
  -1  -5  -9    0.07    1.09   0
  -4  -4 -10   19.28    0.68   0
  -2  -4 -11    1.83    0.69   0
  -5  -5  -5   46.73    1.19   0
   0  -5  -7   18.57    1.70   0
   0  -4 -10    0.00    0.99   0
  -1  -3 -12   10.72    0.79   0
  -3  -5  -8   24.20    1.21   0
  -2  -3 -12    0.30    0.67   0
  -2  -5  -8    0.44    1.06   0
  -5  -4  -8   34.96    0.85   0
  -1  -5  -7  105.74    2.38   0
  -1  -4 -10  261.14    2.70   0
   0  -4  -9   13.39    1.28   0
  -4  -5  -6    6.38    1.08   0
  -4  -3 -11   87.97    1.02   0
  -3  -5  -7  169.28    2.33   0
  -4  -5  -5  103.10    1.92   0
  -4  -5  -4   69.77    1.86   0
  -4  -4  -9   11.62    0.84   0
  -3  -5  -6   -0.30    1.21   0
  -2  -5  -6   10.46    1.36   0
  -5  -4  -7   21.69    1.00   0
  -1  -4  -9    9.20    1.17   0
  -3  -4  -9    1.41    0.86   0
  -3  -3 -11    7.72    0.75   0
  -2  -4  -9    9.57    1.09   0
  -6  -3  -7  112.95    1.30   0
  -5  -4  -6    5.34    0.96   0
  -4  -4  -8   55.54    1.37   0
  -2  -3 -11  156.81    1.98   0
  -6  -2  -9    3.23    0.46   0
  -5  -3  -9  198.67    1.82   0
  -1  -4  -8    9.26    1.02   0
  -5  -4  -5    2.95    0.89   0
  -4  -3 -10    3.39    0.74   0
  -3  -2 -12   54.84    1.12   0
  -3  -1 -13    0.30    0.45   0
  -3  -4  -8   32.75    1.46   0
  -2  -4  -8  238.18    3.00   0
  -6  -3  -6    2.59    0.70   0
  -2  -2 -12   35.76    1.06   0
  -2  -1 -13   54.68    0.97   0
  -1  -3 -10   28.67    1.44   0
  -3  -4  -7    0.07    1.16   0
  -3  -3 -10    2.48    0.81   0
  -2  -3 -10    3.72    1.02   0
  -5  -2 -10    0.42    0.70   0
  -4  -4  -5    6.68    1.17   0
  -4  -3  -9   41.12    1.42   0
  -6  -2  -8  161.29    1.78   0
  -5  -3  -7    6.58    1.12   0
  -5  -1 -11   42.28    0.93   0
  -2  -2 -11   39.39    1.40   0
  -5  -3  -6    0.09    1.14   0
  -4  -3  -8    1.81    0.80   0
  -3   0 -13  112.33    1.41   0
  -6  -2  -7   42.28    1.28   0
  -5  -2  -9    0.91    0.79   0
  -4  -2 -10  147.35    2.14   0
  -2   0 -13    5.36    0.69   0
  -6  -1  -9  115.99    1.52   0
  -5  -3  -5   28.00    1.48   0
  -6   0 -10   61.89    1.07   0
  -3  -2 -10   26.88    1.39   0
  -4  -2  -9   10.72    1.20   0
  -6  -1  -8    1.03    0.84   0
  -5   0 -11  115.43    1.51   0
  -4   2 -13  114.31    1.08   0
  -3   1 -13   89.62    1.31   0
  -2  -1 -11    0.20    1.08   0
  -3   0 -12    3.21    0.83   0
  -7   1  -8   36.20    0.76   0
  -4  -2  -8   31.41    1.58   0
  -2   0 -12    1.73    0.82   0
  -6  -1  -7   87.52    1.66   0
  -5   2 -12   62.27    0.86   0
  -4  -1 -10   48.88    1.55   0
  -6   1 -10   16.04    0.75   0
  -5  -2  -6  235.07    2.87   0
  -5   0 -10  152.49    2.05   0
;
_shelx_hkl_checksum              51018
loop_
_space_group_symop_operation_xyz
'x, y, z'
'-x, -y, -z'
loop_
_atom_site_label
_atom_site_type_symbol
_atom_site_fract_x
_atom_site_fract_y
_atom_site_fract_z
_atom_site_U_iso_or_equiv
_atom_site_adp_type
_atom_site_occupancy
_atom_site_site_symmetry_order
_atom_site_calc_flag
_atom_site_refinement_flags_posn
_atom_site_refinement_flags_adp
_atom_site_refinement_flags_occupancy
_atom_site_disorder_assembly
_atom_site_disorder_group
Cl1 Cl -0.21624(4) 0.40907(4) 0.10224(2) 0.00972(13) Uani 1 1 d . . . . .
Cl2 Cl 0.71644(4) 0.79511(4) 0.56135(2) 0.00931(13) Uani 1 1 d . . . . .
N1 N 0.08288(15) 0.69673(15) 0.25901(9) 0.0081(2) Uani 1 1 d . . . . .
N2 N 0.36691(16) 0.60966(15) 0.38541(9) 0.0086(2) Uani 1 1 d . . . . .
N3 N 0.35790(16) 0.50242(15) 0.14580(9) 0.0073(2) Uani 1 1 d . . . . .
N4 N 0.22881(17) 0.00148(16) 0.06356(10) 0.0113(2) Uani 1 1 d . . . . .
N5 N 0.42243(15) 0.87271(15) 0.25624(9) 0.0067(2) Uani 1 1 d . . . . .
N6 N 0.89575(17) 1.07065(17) 0.26028(11) 0.0134(3) Uani 1 1 d . . . . .
C1 C 0.04259(19) 0.6446(2) 0.36399(12) 0.0127(3) Uani 1 1 d . . . . .
C2 C 0.2137(2) 0.68658(19) 0.44596(11) 0.0121(3) Uani 1 1 d . . . . .
C3 C 0.28299(18) 0.31939(17) 0.14964(11) 0.0084(3) Uani 1 1 d . . . . .
C4 C 0.2863(2) 0.17894(18) 0.04375(11) 0.0107(3) Uani 1 1 d . . . . .
C5 C 0.62505(18) 0.88084(17) 0.26701(11) 0.0085(3) Uani 1 1 d . . . . .
C6 C 0.69579(18) 1.06369(18) 0.25166(11) 0.0091(3) Uani 1 1 d . . . . .
Be1 Be 0.3169(2) 0.6695(2) 0.25657(13) 0.0065(3) Uani 1 1 d . . . . .
H1A H 0.052(3) 0.814(3) 0.2615(15) 0.015(5) Uiso 1 1 d . . . . .
H1B H 0.005(3) 0.621(3) 0.1972(18) 0.023(5) Uiso 1 1 d . . . . .
H1C H -0.064(4) 0.706(4) 0.393(2) 0.040(7) Uiso 1 1 d . . . . .
H1D H 0.013(3) 0.512(3) 0.3459(18) 0.025(5) Uiso 1 1 d . . . . .
H2A H 0.367(3) 0.487(3) 0.3827(18) 0.023(5) Uiso 1 1 d . . . . .
H2B H 0.471(3) 0.657(3) 0.4247(17) 0.020(5) Uiso 1 1 d . . . . .
H2C H 0.241(3) 0.819(3) 0.4664(16) 0.013(4) Uiso 1 1 d . . . . .
H2D H 0.206(3) 0.634(3) 0.5070(19) 0.024(5) Uiso 1 1 d . . . . .
H3A H 0.479(3) 0.493(3) 0.1415(17) 0.023(5) Uiso 1 1 d . . . . .
H3B H 0.310(3) 0.533(3) 0.0847(17) 0.014(4) Uiso 1 1 d . . . . .
H3C H 0.348(3) 0.282(3) 0.2087(17) 0.017(5) Uiso 1 1 d . . . . .
H3D H 0.154(3) 0.329(3) 0.1652(16) 0.015(5) Uiso 1 1 d . . . . .
H4A H 0.121(3) 0.008(3) 0.0796(19) 0.028(6) Uiso 1 1 d . . . . .
H4B H 0.229(3) -0.087(3) 0.0076(19) 0.021(5) Uiso 1 1 d . . . . .
H4C H 0.205(3) 0.218(3) -0.0151(18) 0.019(5) Uiso 1 1 d . . . . .
H4D H 0.408(3) 0.173(3) 0.0265(16) 0.013(4) Uiso 1 1 d . . . . .
H5A H 0.382(3) 0.960(3) 0.3071(17) 0.016(5) Uiso 1 1 d . . . . .
H5B H 0.382(3) 0.908(3) 0.196(2) 0.027(6) Uiso 1 1 d . . . . .
H5C H 0.674(3) 0.865(3) 0.3406(16) 0.012(4) Uiso 1 1 d . . . . .
H5D H 0.666(3) 0.775(3) 0.2132(16) 0.015(5) Uiso 1 1 d . . . . .
H6A H 0.943(3) 1.101(3) 0.3239(19) 0.018(5) Uiso 1 1 d . . . . .
H6B H 0.934(3) 1.163(3) 0.2325(17) 0.021(5) Uiso 1 1 d . . . . .
H6C H 0.649(3) 1.157(3) 0.3029(16) 0.014(4) Uiso 1 1 d . . . . .
H6D H 0.647(3) 1.072(3) 0.1787(17) 0.018(5) Uiso 1 1 d . . . . .
loop_
_atom_site_aniso_label
_atom_site_aniso_U_11
_atom_site_aniso_U_22
_atom_site_aniso_U_33
_atom_site_aniso_U_23
_atom_site_aniso_U_13
_atom_site_aniso_U_12
Cl1 0.00994(19) 0.00776(19) 0.01063(19) 0.00207(12) -0.00204(12) -0.00270(12)
Cl2 0.01059(19) 0.00835(19) 0.00840(18) 0.00194(12) -0.00132(12) -0.00197(12)
N1 0.0074(5) 0.0069(5) 0.0100(5) 0.0025(4) -0.0004(4) -0.0013(4)
N2 0.0094(5) 0.0072(5) 0.0085(5) 0.0029(4) -0.0029(4) -0.0032(4)
N3 0.0079(5) 0.0066(5) 0.0076(5) 0.0028(4) -0.0009(4) -0.0021(4)
N4 0.0138(6) 0.0060(5) 0.0124(6) 0.0010(4) -0.0032(4) -0.0025(5)
N5 0.0061(5) 0.0063(5) 0.0074(5) 0.0025(4) -0.0013(4) -0.0021(4)
N6 0.0081(6) 0.0109(5) 0.0200(7) 0.0016(5) 0.0001(5) -0.0053(4)
C1 0.0113(7) 0.0153(7) 0.0130(6) 0.0054(5) 0.0038(5) -0.0011(5)
C2 0.0178(7) 0.0115(6) 0.0074(6) 0.0023(5) 0.0029(5) -0.0017(5)
C3 0.0112(6) 0.0054(6) 0.0085(6) 0.0014(5) 0.0002(5) -0.0022(5)
C4 0.0151(7) 0.0073(6) 0.0087(6) 0.0016(5) -0.0019(5) -0.0020(5)
C5 0.0063(6) 0.0075(6) 0.0118(6) 0.0043(5) -0.0013(5) -0.0022(5)
C6 0.0075(6) 0.0077(6) 0.0119(6) 0.0025(5) -0.0005(5) -0.0028(5)
Be1 0.0063(7) 0.0063(7) 0.0066(7) 0.0026(6) -0.0015(6) -0.0020(6)
loop_
_atom_type_symbol
_atom_type_description
_atom_type_scat_dispersion_real
_atom_type_scat_dispersion_imag
_atom_type_scat_source
C C 0.0181 0.0091 'International Tables Vol C Tables 4.2.6.8 and 6.1.1.4'
H H 0.0000 0.0000 'International Tables Vol C Tables 4.2.6.8 and 6.1.1.4'
Be Be 0.0038 0.0014 'International Tables Vol C Tables 4.2.6.8 and 6.1.1.4'
N N 0.0311 0.0180 'International Tables Vol C Tables 4.2.6.8 and 6.1.1.4'
Cl Cl 0.3639 0.7018 'International Tables Vol C Tables 4.2.6.8 and 6.1.1.4'
loop_
_geom_angle_atom_site_label_1
_geom_angle_atom_site_label_2
_geom_angle_atom_site_label_3
_geom_angle
_geom_angle_site_symmetry_1
_geom_angle_site_symmetry_3
_geom_angle_publ_flag
C1 N1 Be1 105.49(10) . . ?
C1 N1 H1A 108.1(12) . . ?
Be1 N1 H1A 111.9(12) . . ?
C1 N1 H1B 108.3(13) . . ?
Be1 N1 H1B 115.1(13) . . ?
H1A N1 H1B 107.8(17) . . ?
C2 N2 Be1 103.19(10) . . ?
C2 N2 H2A 108.5(14) . . ?
Be1 N2 H2A 114.2(14) . . ?
C2 N2 H2B 108.1(13) . . ?
Be1 N2 H2B 115.3(13) . . ?
H2A N2 H2B 107.1(19) . . ?
C3 N3 Be1 113.45(10) . . ?
C3 N3 H3A 107.7(14) . . ?
Be1 N3 H3A 111.3(14) . . ?
C3 N3 H3B 108.9(13) . . ?
Be1 N3 H3B 108.9(13) . . ?
H3A N3 H3B 106.2(18) . . ?
C4 N4 H4A 109.0(16) . . ?
C4 N4 H4B 114.3(14) . . ?
H4A N4 H4B 107(2) . . ?
C5 N5 Be1 117.88(10) . . ?
C5 N5 H5A 110.8(13) . . ?
Be1 N5 H5A 109.3(13) . . ?
C5 N5 H5B 107.8(16) . . ?
Be1 N5 H5B 108.8(16) . . ?
H5A N5 H5B 100.9(19) . . ?
C6 N6 H6A 112.0(15) . . ?
C6 N6 H6B 110.4(14) . . ?
H6A N6 H6B 100(2) . . ?
N1 C1 C2 107.17(11) . . ?
N1 C1 H1C 112.8(15) . . ?
C2 C1 H1C 112.3(15) . . ?
N1 C1 H1D 106.6(13) . . ?
C2 C1 H1D 110.7(13) . . ?
H1C C1 H1D 107(2) . . ?
N2 C2 C1 106.13(11) . . ?
N2 C2 H2C 105.1(11) . . ?
C1 C2 H2C 110.9(11) . . ?
N2 C2 H2D 110.8(14) . . ?
C1 C2 H2D 110.9(14) . . ?
H2C C2 H2D 112.7(18) . . ?
N3 C3 C4 114.16(10) . . ?
N3 C3 H3C 107.4(13) . . ?
C4 C3 H3C 110.8(12) . . ?
N3 C3 H3D 109.6(11) . . ?
C4 C3 H3D 107.7(12) . . ?
H3C C3 H3D 106.9(16) . . ?
N4 C4 C3 108.17(10) . . ?
N4 C4 H4C 112.4(12) . . ?
C3 C4 H4C 108.1(12) . . ?
N4 C4 H4D 109.3(11) . . ?
C3 C4 H4D 108.2(12) . . ?
H4C C4 H4D 110.6(17) . . ?
N5 C5 C6 111.14(10) . . ?
N5 C5 H5C 109.1(11) . . ?
C6 C5 H5C 108.1(12) . . ?
N5 C5 H5D 108.4(12) . . ?
C6 C5 H5D 113.0(11) . . ?
H5C C5 H5D 107.0(15) . . ?
N6 C6 C5 111.18(10) . . ?
N6 C6 H6C 113.5(12) . . ?
C5 C6 H6C 108.4(12) . . ?
N6 C6 H6D 108.8(12) . . ?
C5 C6 H6D 104.9(13) . . ?
H6C C6 H6D 109.7(16) . . ?
N5 Be1 N3 112.15(10) . . ?
N5 Be1 N2 110.49(11) . . ?
N3 Be1 N2 114.48(10) . . ?
N5 Be1 N1 110.19(10) . . ?
N3 Be1 N1 110.88(10) . . ?
N2 Be1 N1 97.77(9) . . ?
loop_
_geom_bond_atom_site_label_1
_geom_bond_atom_site_label_2
_geom_bond_distance
_geom_bond_site_symmetry_2
_geom_bond_publ_flag
N1 C1 1.4975(16) . ?
N1 Be1 1.7484(19) . ?
N1 H1A 0.908(19) . ?
N1 H1B 0.98(2) . ?
N2 C2 1.4949(17) . ?
N2 Be1 1.7460(19) . ?
N2 H2A 0.91(2) . ?
N2 H2B 0.89(2) . ?
N3 C3 1.4860(16) . ?
N3 Be1 1.727(2) . ?
N3 H3A 0.91(2) . ?
N3 H3B 0.87(2) . ?
N4 C4 1.4680(16) . ?
N4 H4A 0.84(2) . ?
N4 H4B 0.86(2) . ?
N5 C5 1.4878(16) . ?
N5 Be1 1.7053(19) . ?
N5 H5A 0.90(2) . ?
N5 H5B 0.86(2) . ?
N6 C6 1.4694(17) . ?
N6 H6A 0.81(2) . ?
N6 H6B 0.89(2) . ?
C1 C2 1.512(2) . ?
C1 H1C 0.99(3) . ?
C1 H1D 0.99(2) . ?
C2 H2C 0.99(2) . ?
C2 H2D 0.93(2) . ?
C3 C4 1.5168(17) . ?
C3 H3C 0.92(2) . ?
C3 H3D 1.00(2) . ?
C4 H4C 0.98(2) . ?
C4 H4D 0.95(2) . ?
C5 C6 1.5174(17) . ?
C5 H5C 0.971(19) . ?
C5 H5D 1.00(2) . ?
C6 H6C 0.946(19) . ?
C6 H6D 0.95(2) . ?
loop_
_geom_hbond_atom_site_label_D
_geom_hbond_atom_site_label_H
_geom_hbond_atom_site_label_A
_geom_hbond_distance_DH
_geom_hbond_distance_HA
_geom_hbond_distance_DA
_geom_hbond_angle_DHA
_geom_hbond_site_symmetry_A
N1 H1A N6 0.908(19) 2.253(19) 3.1356(16) 163.8(17) 1_455
N1 H1B Cl1 0.98(2) 2.30(2) 3.2429(12) 160.1(17) .
C1 H1C Cl2 0.99(3) 2.79(3) 3.6787(13) 150(2) 1_455
N2 H2A Cl2 0.91(2) 2.45(2) 3.2988(12) 154.6(18) 2_666
N2 H2B Cl2 0.89(2) 2.40(2) 3.2756(12) 168.3(18) .
N3 H3A Cl1 0.91(2) 2.43(2) 3.3196(11) 168.1(19) 1_655
N3 H3B Cl1 0.87(2) 2.47(2) 3.3295(11) 170.4(17) 2_565
C3 H3D Cl1 1.00(2) 2.86(2) 3.7556(13) 150.2(15) .
N4 H4B Cl1 0.86(2) 2.52(2) 3.3396(12) 159.3(18) 2
N5 H5A Cl2 0.90(2) 2.39(2) 3.2834(11) 176.6(18) 2_676
N5 H5B N4 0.86(2) 2.13(2) 2.9707(16) 168(2) 1_565
C5 H5C Cl2 0.971(19) 2.877(19) 3.8217(13) 164.6(15) .
N6 H6A Cl2 0.81(2) 2.76(2) 3.4131(13) 138.7(19) 2_776
N6 H6B Cl1 0.89(2) 2.84(2) 3.5500(13) 138.2(17) 1_665
N1 H1A N6 0.908(19) 2.253(19) 3.1356(16) 163.8(17) 1_455
N1 H1B Cl1 0.98(2) 2.30(2) 3.2429(12) 160.1(17) .
C1 H1C Cl2 0.99(3) 2.79(3) 3.6787(13) 150(2) 1_455
N2 H2A Cl2 0.91(2) 2.45(2) 3.2988(12) 154.6(18) 2_666
N2 H2B Cl2 0.89(2) 2.40(2) 3.2756(12) 168.3(18) .
N3 H3A Cl1 0.91(2) 2.43(2) 3.3196(11) 168.1(19) 1_655
N3 H3B Cl1 0.87(2) 2.47(2) 3.3295(11) 170.4(17) 2_565
C3 H3D Cl1 1.00(2) 2.86(2) 3.7556(13) 150.2(15) .
N4 H4B Cl1 0.86(2) 2.52(2) 3.3396(12) 159.3(18) 2
N5 H5A Cl2 0.90(2) 2.39(2) 3.2834(11) 176.6(18) 2_676
N5 H5B N4 0.86(2) 2.13(2) 2.9707(16) 168(2) 1_565
C5 H5C Cl2 0.971(19) 2.877(19) 3.8217(13) 164.6(15) .
N6 H6A Cl2 0.81(2) 2.76(2) 3.4131(13) 138.7(19) 2_776
N6 H6B Cl1 0.89(2) 2.84(2) 3.5500(13) 138.2(17) 1_665
