#------------------------------------------------------------------------------
#$Date: 2021-06-05 21:35:52 +0300 (Sat, 05 Jun 2021) $
#$Revision: 266021 $
#$URL: file:///home/coder/svn-repositories/cod/cif/7/70/70/7707083.cif $
#------------------------------------------------------------------------------
#
# This file is available in the Crystallography Open Database (COD),
# http://www.crystallography.net/
#
# All data on this site have been placed in the public domain by the
# contributors.
#
data_7707083
loop_
_publ_author_name
'Akopov, Georgiy'
'Mark, Justin'
'Viswanathan, Gayatri'
'Lee, Shannon J.'
'McBride, Brennan C.'
'Won, Juyeon'
'Perras, Fr\'ed\'eric A'
'Paterson, Alexander L.'
'Yuan, Bing'
'Sen, Sabyasachi'
'Adeyemi, Adedoyin N.'
'Zhang, Feng'
'Wang, Cai-Zhuang'
'Ho, Kai-Ming'
'Miller, Gordon J.'
'Kovnir, Kirill'
_publ_section_title
;
 Third time's the charm: intricate non-centrosymmetric polymorphism in
 <i>Ln</i>SiP<sub>3</sub> (<i>Ln</i> = La and Ce) induced by distortions
 of phosphorus square layers.
;
_journal_issue                   19
_journal_name_full
'Dalton transactions (Cambridge, England : 2003)'
_journal_page_first              6463
_journal_page_last               6476
_journal_paper_doi               10.1039/d1dt00845e
_journal_volume                  50
_journal_year                    2021
_chemical_formula_sum            'La P3 Si'
_chemical_formula_weight         259.91
_space_group_crystal_system      monoclinic
_space_group_IT_number           14
_space_group_name_Hall           '-P 2ybc'
_space_group_name_H-M_alt        'P 1 21/c 1'
_audit_creation_method           SHELXL-2014/7
_audit_update_record
;
2021-03-28 deposited with the CCDC.	2021-04-09 downloaded from the CCDC.
;
_cell_angle_alpha                90
_cell_angle_beta                 93.671(2)
_cell_angle_gamma                90
_cell_formula_units_Z            4
_cell_length_a                   4.3162(2)
_cell_length_b                   12.8090(7)
_cell_length_c                   7.8719(5)
_cell_measurement_reflns_used    13620
_cell_measurement_temperature    293(2)
_cell_measurement_theta_max      27.48
_cell_measurement_theta_min      4.11
_cell_volume                     434.31(4)
_computing_structure_refinement  'SHELXL-2014/7 (Sheldrick, 2014)'
_diffrn_ambient_temperature      293(2)
_diffrn_measured_fraction_theta_full 0.997
_diffrn_measured_fraction_theta_max 0.996
_diffrn_measurement_device_type  'Bruker Venture area-detector'
_diffrn_measurement_method       'profile data from \w scans'
_diffrn_radiation_type           MoK\a
_diffrn_radiation_wavelength     0.71073
_diffrn_reflns_av_R_equivalents  0.0625
_diffrn_reflns_av_unetI/netI     0.0204
_diffrn_reflns_Laue_measured_fraction_full 0.997
_diffrn_reflns_Laue_measured_fraction_max 0.996
_diffrn_reflns_limit_h_max       5
_diffrn_reflns_limit_h_min       -5
_diffrn_reflns_limit_k_max       16
_diffrn_reflns_limit_k_min       -16
_diffrn_reflns_limit_l_max       10
_diffrn_reflns_limit_l_min       -10
_diffrn_reflns_number            13620
_diffrn_reflns_point_group_measured_fraction_full 0.997
_diffrn_reflns_point_group_measured_fraction_max 0.996
_diffrn_reflns_theta_full        25.242
_diffrn_reflns_theta_max         27.484
_diffrn_reflns_theta_min         4.105
_diffrn_source                   'fine-focus sealed tube'
_exptl_absorpt_coefficient_mu    10.997
_exptl_absorpt_correction_T_max  0.75
_exptl_absorpt_correction_T_min  0.53
_exptl_absorpt_correction_type   multi-scan
_exptl_absorpt_process_details   SADABS
_exptl_crystal_colour            silver
_exptl_crystal_density_diffrn    3.975
_exptl_crystal_description       plate
_exptl_crystal_F_000             464
_exptl_crystal_size_max          0.176
_exptl_crystal_size_mid          0.107
_exptl_crystal_size_min          0.075
_refine_diff_density_max         1.157
_refine_diff_density_min         -0.929
_refine_diff_density_rms         0.189
_refine_ls_extinction_method     none
_refine_ls_goodness_of_fit_ref   1.101
_refine_ls_hydrogen_treatment    undef
_refine_ls_matrix_type           full
_refine_ls_number_parameters     46
_refine_ls_number_reflns         997
_refine_ls_number_restraints     0
_refine_ls_restrained_S_all      1.101
_refine_ls_R_factor_all          0.0191
_refine_ls_R_factor_gt           0.0157
_refine_ls_shift/su_max          0.000
_refine_ls_shift/su_mean         0.000
_refine_ls_structure_factor_coef Fsqd
_refine_ls_weighting_details
'w=1/[\s^2^(Fo^2^)+(0.0215P)^2^] where P=(Fo^2^+2Fc^2^)/3'
_refine_ls_weighting_scheme      calc
_refine_ls_wR_factor_gt          0.0384
_refine_ls_wR_factor_ref         0.0389
_reflns_Friedel_coverage         0.000
_reflns_number_gt                921
_reflns_number_total             997
_reflns_threshold_expression     'I > 2\s(I)'
_cod_data_source_file            d1dt00845e2.cif
_cod_data_source_block           LaSiP3_P21c
_cod_depositor_comments
'Adding full bibliography for 7707082--7707086.cif.'
_cod_original_sg_symbol_H-M      'P 21/c'
_cod_database_code               7707083
_shelx_shelxl_version_number     2014/7
_shelx_space_group_comment
;
The symmetry employed for this shelxl refinement is uniquely defined
by the following loop, which should always be used as a source of
symmetry information in preference to the above space-group names.
They are only intended as comments.
;
_shelx_estimated_absorpt_t_min   0.248
_shelx_estimated_absorpt_t_max   0.493
_shelx_res_file
;

    BM42_0m.res created by SHELXL-2014/7


TITL BM42_0m in P2(1)/c
CELL 0.71073   4.31620  12.80900   7.87190  90.0000  93.6710  90.0000
ZERR    4.00   0.00020   0.00070   0.00050   0.0000   0.0021   0.0000
LATT  1
SYMM -X, 0.5+Y, 0.5-Z
SFAC SI P LA
UNIT 4 12 4

L.S. 8
BOND
FMAP 2
PLAN -20
size .075 .107 .176
acta

WGHT    0.021500
FVAR       0.15897
LA1   3    0.324810    0.188271    0.958754    11.00000    0.00593    0.01034 =
         0.00945    0.00119   -0.00038    0.00002
P1    2   -0.182737    0.210403    1.241227    11.00000    0.00704    0.01034 =
         0.01043   -0.00097   -0.00097    0.00143
P2    2    0.342229    0.440568    1.046079    11.00000    0.00655    0.01152 =
         0.01057   -0.00046    0.00016    0.00011
P3    2   -0.173017    0.025531    0.898345    11.00000    0.00882    0.01136 =
         0.00915   -0.00013    0.00146    0.00235
SI1   1    0.028963   -0.054026    0.680521    11.00000    0.00748    0.01054 =
         0.00830    0.00026    0.00095    0.00075
HKLF 4

REM  BM42_0m in P2(1)/c
REM R1 =  0.0157 for     921 Fo > 4sig(Fo)  and  0.0191 for all     997 data
REM     46 parameters refined using      0 restraints

END

WGHT      0.0215      0.0000

REM Highest difference peak  1.157,  deepest hole -0.929,  1-sigma level  0.189
Q1    1   0.3213  0.1238  0.9606  11.00000  0.05    1.16
Q2    1   0.3220  0.2542  0.9731  11.00000  0.05    1.05
Q3    1   0.3933  0.1361  0.8537  11.00000  0.05    0.52
Q4    1   0.3632  0.3124  1.0811  11.00000  0.05    0.51
Q5    1   0.6503  0.3794  0.8239  11.00000  0.05    0.51
Q6    1   0.7419  0.1078  0.8795  11.00000  0.05    0.49
Q7    1   0.2668  0.0044  0.6355  11.00000  0.05    0.48
Q8    1   0.7526 -0.0445  0.9978  11.00000  0.05    0.48
Q9    1   0.2464  0.3743  0.7866  11.00000  0.05    0.47
Q10   1   0.3205  0.3812  1.1187  11.00000  0.05    0.47
Q11   1   0.6426  0.2591  0.6507  11.00000  0.05    0.46
Q12   1   0.7222  0.3761  1.0422  11.00000  0.05    0.46
Q13   1   0.1531  0.5279  1.1019  11.00000  0.05    0.45
Q14   1  -0.0872 -0.0205  0.7972  11.00000  0.05    0.45
Q15   1   0.3077  0.5133  1.0043  11.00000  0.05    0.45
Q16   1   0.6587  0.1289  0.9844  11.00000  0.05    0.44
Q17   1   0.1512  0.0396  1.1993  11.00000  0.05    0.44
Q18   1   0.1001  0.2978  1.2610  11.00000  0.05    0.43
Q19   1  -0.0226  0.5063  0.8479  11.00000  0.05    0.43
Q20   1   0.1147  0.3756  0.8747  11.00000  0.05    0.43
;
_shelx_res_checksum              76532
_shelx_hkl_file
;
  -1   0   0   23.50    0.99
  -1   0   0   22.93    0.93
   1   0   0   22.37    2.10
   1   0   0   21.24    1.81
   1   0   0   20.05    1.51
   1   0   0   20.84    1.41
   1   0   0   24.66    0.92
   1   0   0   22.49    0.92
  -1   0   0   20.21    1.41
  -1   0   0   20.18    2.01
  -1   0   0   19.85    1.79
  -1   0   0   20.78    1.52
  -1   0   0   25.86    0.93
  -2   0   0  416.23   18.27
  -2   0   0  474.93   16.48
   2   0   0  423.09   18.98
   2   0   0  419.20   18.31
   2   0   0  432.73   17.74
   2   0   0  422.39   17.48
   2   0   0  418.21   16.46
  -2   0   0  425.44   18.89
  -2   0   0  455.15   16.46
  -2   0   0  440.80   16.57
  -2   0   0  453.03   16.61
  -2   0   0  422.49   17.45
  -2   0   0  423.39   17.68
  -3   0   0  463.10   17.52
  -3   0   0  466.75   18.95
  -3   0   0  460.51   19.26
   3   0   0  448.32   19.19
   3   0   0  445.00   18.85
  -3   0   0  459.53   20.21
  -3   0   0  465.78   21.25
   3   0   0  443.40   21.12
   3   0   0  452.44   20.13
   4   0   0   56.31    5.49
  -4   0   0   56.66    2.49
   4   0   0   45.59    6.71
  -4   0   0   49.91    5.24
   4   0   0   52.56    4.70
  -4   0   0   45.12    6.78
   4   0   0   41.98    8.80
  -4   0   0   59.75    8.63
  -4   0   0   53.94    4.63
  -5   0   0   25.80    1.73
   1  -1   0  436.24   15.66
   1  -1   0  403.37   16.72
   1  -1   0  404.47   15.66
   1  -1   0  399.63   17.20
   1  -1   0  405.67   16.54
  -1  -1   0  460.18   15.69
  -1  -1   0  435.98   15.68
   1  -1   0  438.40   15.66
   1  -1   0  399.04   17.68
   1  -1   0  446.83   15.74
  -1   1   0  397.29   17.59
  -1   1   0  423.04   15.66
  -1   1   0  397.65   16.51
   1   1   0  395.45   15.91
  -1   1   0  401.99   17.17
   1   1   0  398.37   15.68
  -1   1   0  394.39   16.67
   1   1   0  395.62   15.86
  -1   1   0  438.25   15.73
  -1   1   0  409.97   15.68
   1   1   0  404.55   16.06
   1   1   0  399.42   16.18
  -2  -1   0  876.62   29.30
   2  -1   0  774.60   32.76
   2  -1   0  759.24   30.69
   2  -1   0  770.43   31.03
  -2  -1   0  750.70   30.43
  -2  -1   0  768.14   30.87
   2  -1   0  799.85   29.41
  -2  -1   0  762.26   29.38
   2  -1   0  759.16   31.86
  -2  -1   0  747.46   30.02
  -2  -1   0  741.60   29.87
  -2   1   0  826.48   29.39
  -2   1   0  795.44   29.25
   2   1   0  751.30   30.05
  -2   1   0  841.30   29.31
   2   1   0  741.11   29.29
   2   1   0  748.88   30.46
  -2   1   0  764.60   30.96
  -2   1   0  772.01   29.26
   2   1   0  746.87   29.90
   2   1   0  773.39   30.93
  -2   1   0  753.69   32.49
  -2   1   0  766.98   31.82
  -2   1   0  764.37   29.25
  -2   1   0  754.55   30.64
   3  -1   0    5.36    2.35
  -3  -1   0    8.69    2.01
  -3  -1   0    9.41    2.67
   3  -1   0   11.08    4.95
  -3  -1   0    4.52    0.68
   3  -1   0    5.09    3.14
  -3  -1   0    8.07    2.00
  -3  -1   0    6.33    3.16
   3  -1   0    4.43    2.02
  -3   1   0    7.72    3.63
   3   1   0    5.57    0.46
   3   1   0   11.78    3.64
  -3   1   0    6.77    0.53
   3   1   0    6.96    1.63
  -3   1   0    7.00    2.33
  -3   1   0    8.06    2.77
  -3   1   0    3.48    4.35
   3   1   0    9.70    2.59
   3   1   0    8.04    1.96
  -3   1   0    5.44    0.66
   4  -1   0  405.02   17.99
  -4  -1   0  433.75   15.76
   4  -1   0  404.70   18.62
   4  -1   0  408.21   22.12
   4  -1   0  382.92   20.05
  -4   1   0  394.83   20.18
   4   1   0  408.12   17.78
   4   1   0  417.24   18.86
   4   1   0  410.22   16.67
  -4   1   0  391.83   18.62
  -4   1   0  412.59   22.03
  -4   1   0  413.49   15.76
   4   1   0  398.22   16.91
  -4   1   0  404.69   18.09
  -5  -1   0   91.55    4.05
  -5   1   0   90.87    4.03
  -1  -2   0  163.62    7.39
  -1  -2   0  175.95    6.61
   1  -2   0  186.17    6.61
  -1  -2   0  157.38    7.17
   1  -2   0  171.82    9.33
   1  -2   0  168.04    7.79
   1  -2   0  186.25    6.60
  -1  -2   0  164.94    6.99
  -1  -2   0  191.75    6.63
   1  -2   0  175.19    8.74
  -1  -2   0  159.79    6.90
   1  -2   0  166.07    6.62
   1  -2   0  165.28    8.01
   1  -2   0  184.29    6.67
  -1   2   0  167.73    6.59
   1   2   0  177.13    6.62
  -1   2   0  165.66    8.01
   1   2   0  171.98    7.12
   1   2   0  173.56    6.61
  -1   2   0  172.43    8.69
   1   2   0  176.82    6.96
  -1   2   0  176.01    6.60
   1   2   0  177.66    7.36
   1   2   0  171.93    6.87
  -1   2   0  180.14    6.66
  -1   2   0  166.45    7.76
  -1   2   0  176.20    9.27
   2  -2   0  196.63    7.43
   2  -2   0  187.23    9.18
   2  -2   0  189.53    7.60
   2  -2   0  185.19   11.54
  -2  -2   0  220.37    7.50
   2  -2   0  191.32    7.44
   2  -2   0  188.13    9.56
   2  -2   0  191.77   10.62
   2   2   0  197.17    7.47
  -2   2   0  201.20    7.50
  -2   2   0  185.43    9.13
  -2   2   0  197.54    7.45
  -2   2   0  183.82   11.18
  -2   2   0  176.32    9.42
  -2   2   0  182.85   10.38
  -2   2   0  189.97    7.42
   2   2   0  209.62    7.49
  -2   2   0  201.56    7.44
  -2   2   0  205.54    7.57
  -3  -2   0   93.65    3.71
   3  -2   0   88.90    7.75
   3  -2   0   82.71    5.79
   3  -2   0   92.14    9.48
   3  -2   0   73.25    6.12
  -3   2   0   91.10    3.69
   3   2   0   92.71    3.56
  -3   2   0   99.55    8.12
  -3   2   0   87.90    3.49
  -3   2   0   84.02    3.48
   3   2   0   92.59    3.55
  -3   2   0   87.27    9.39
  -3   2   0   93.20    6.64
  -3   2   0   88.57    5.97
   4  -2   0    9.22    3.54
  -4  -2   0   11.20    1.04
   4  -2   0    9.48    4.09
   4  -2   0    5.87    7.86
   4  -2   0    7.45    5.47
  -4   2   0   10.74    1.02
  -4   2   0   15.60    4.63
  -4   2   0    3.57    5.20
  -4   2   0   10.81    0.76
   4   2   0   10.45    0.71
  -4   2   0    3.48    7.02
  -4   2   0   15.27    4.02
  -5  -2   0   65.99    3.07
  -5   2   0   64.54    2.73
  -5   2   0   58.84    2.99
   0  -3   0   -0.21    0.09
   0  -3   0    0.24    0.80
   0  -3   0   -0.29    0.60
   0  -3   0   -1.05    1.00
   0  -3   0   -0.19    0.08
   0  -3   0    3.85    2.28
   0  -3   0   -0.25    0.10
   0   3   0   -0.22    0.09
   0   3   0    0.09    0.67
   0   3   0   -0.19    0.08
   0   3   0    0.10    1.33
   0   3   0    2.08    1.67
   0   3   0    0.88    1.02
   1  -3   0   18.08    2.10
   1  -3   0   16.28    2.34
  -1  -3   0   17.77    2.02
  -1  -3   0   18.45    0.80
   1  -3   0   17.97    0.79
  -1  -3   0   16.52    2.48
   1  -3   0   16.83    0.78
   1  -3   0   18.92    0.80
   1  -3   0   13.55    3.63
   1  -3   0   18.99    0.88
  -1  -3   0   18.18    0.77
   1  -3   0   19.85    3.04
  -1  -3   0   17.85    1.64
  -1  -3   0   16.93    1.45
  -1  -3   0   19.14    0.78
  -1   3   0   16.90    2.90
   1   3   0   17.68    0.78
  -1   3   0   16.98    0.78
   1   3   0   17.40    0.79
  -1   3   0   18.84    0.84
  -1   3   0   18.49    0.79
  -1   3   0   17.26    0.79
   1   3   0   19.09    1.43
  -1   3   0   17.20    2.06
  -1   3   0   18.25    3.50
   1   3   0   18.78    2.42
  -1   3   0   18.24    0.72
   1   3   0   19.14    1.58
   1   3   0   17.61    1.93
   2  -3   0    7.88    4.21
   2  -3   0    8.49    0.52
   2  -3   0    9.88    3.23
   2  -3   0   10.35    2.52
   2  -3   0    7.53    1.92
   2  -3   0    9.09    0.50
   2  -3   0    7.67    0.51
  -2   3   0   13.49    3.58
   2   3   0    9.82    0.51
  -2   3   0    9.51    2.23
  -2   3   0    7.96    3.12
   2   3   0    8.49    0.49
  -2   3   0    8.75    0.62
  -2   3   0    7.88    0.40
  -2   3   0    7.87    0.48
  -2   3   0    9.84    2.62
   3  -3   0   -0.70    2.45
   3  -3   0    6.40    5.65
  -3  -3   0    0.95    0.41
   3  -3   0    2.77    2.19
   3  -3   0    0.05    3.59
   3   3   0    0.60    0.25
  -3   3   0    0.88    0.22
  -3   3   0    8.33    5.58
  -3   3   0   -1.52    3.68
   3   3   0    0.74    0.27
  -3   3   0    1.87    2.32
  -3   3   0    1.32    2.80
  -3   3   0    0.39    0.23
  -4  -3   0   55.55    2.58
   4  -3   0   55.04    7.27
   4  -3   0   55.73   12.72
   4  -3   0   43.70    9.20
  -4   3   0   53.07    2.34
  -4   3   0   58.76   12.56
  -4   3   0   51.91    6.44
  -4   3   0   56.12    2.29
   4   3   0   56.75    2.32
  -4   3   0   64.14    7.66
  -4   3   0   52.03    9.80
  -4   3   0   51.74    2.52
  -5  -3   0   -0.78    0.73
  -5   3   0    0.54    0.49
  -5   3   0    0.84    0.66
   0  -4   0  158.96    5.90
   0  -4   0  146.48    8.25
   0  -4   0  149.29    7.52
   0  -4   0  147.48    7.24
   0  -4   0  147.35    5.85
   0  -4   0  153.26    5.86
   0  -4   0  153.68    5.86
   0  -4   0  154.01    9.13
   0  -4   0  146.88    5.86
   0   4   0  148.38    7.26
   0   4   0  163.15    9.14
   0   4   0  148.51    5.89
   0   4   0  155.63    5.87
   0   4   0  152.60    5.86
   0   4   0  151.26    7.56
   0   4   0  155.68    8.34
  -1  -4   0   23.70    2.23
   1  -4   0   30.27    4.91
   1  -4   0   22.31    0.99
  -1  -4   0   24.07    0.97
   1  -4   0   23.21    0.99
   1  -4   0   19.46    4.35
  -1  -4   0   22.78    2.78
   1  -4   0   29.43    3.21
  -1  -4   0   22.75    1.00
  -1  -4   0   21.77    3.48
   1  -4   0   22.59    1.09
  -1  -4   0   22.89    0.98
   1  -4   0   21.03    3.41
   1  -4   0   21.50    0.99
  -1  -4   0   21.40    1.99
  -1  -4   0   23.49    1.01
   1   4   0   25.31    2.74
  -1   4   0   26.60    4.44
   1   4   0   22.29    0.98
   1   4   0   23.87    1.97
   1   4   0   26.89    3.40
  -1   4   0   22.14    0.97
  -1   4   0   22.93    1.01
  -1   4   0   26.49    4.44
  -1   4   0   22.47    0.92
   1   4   0   24.66    1.02
  -1   4   0   21.97    1.00
   1   4   0   22.47    0.99
   1   4   0   23.61    2.19
  -1   4   0   24.66    2.93
  -1   4   0   23.29    1.04
  -1   4   0   17.76    2.41
   2  -4   0   15.28    0.74
   2  -4   0   13.26    0.74
   2  -4   0   14.21    3.43
  -2  -4   0   15.70    0.76
   2  -4   0   12.74    2.88
   2  -4   0   14.46    0.76
   2  -4   0   14.23    4.80
   2  -4   0   17.66    4.69
   2   4   0   16.11    0.76
  -2   4   0   14.22    0.72
  -2   4   0   14.30    3.37
  -2   4   0   14.73    0.84
  -2   4   0   19.52    4.62
  -2   4   0   16.36    4.43
  -2   4   0   11.31    2.81
   2   4   0   15.33    0.74
   3  -4   0   20.59    1.05
   3  -4   0   20.93    6.21
   3  -4   0   23.16    4.23
   3  -4   0   33.60    8.91
   3  -4   0   19.14    4.86
   3  -4   0   21.09    0.99
  -3   4   0   16.90    5.46
   3   4   0   20.96    1.01
  -3   4   0   18.85    1.19
  -3   4   0   17.23    4.21
  -3   4   0   20.66    1.00
  -3   4   0   21.64    4.94
  -3   4   0   15.00    5.97
   3   4   0   20.85    1.06
   4  -4   0   13.74    9.29
   4  -4   0    2.95    6.01
  -4  -4   0    0.15    0.56
   4  -4   0    2.25    4.36
   4  -4   0    5.41    3.68
  -4   4   0    5.70    6.92
  -4   4   0    0.44    0.46
  -4   4   0   -5.17    4.58
  -4   4   0    0.72    3.82
   4   4   0    2.27    0.42
  -4   4   0    1.40    0.41
  -4   4   0   -5.86    9.02
  -5  -4   0   11.76    1.49
   5   4   0    9.48    0.90
  -5   4   0    9.18    1.28
  -5   4   0   10.05    1.04
   0  -5   0   -0.35    1.57
   0  -5   0    0.05    0.14
   0  -5   0   -0.30    0.78
   0  -5   0   -0.02    0.16
   0  -5   0   -0.06    0.11
   0  -5   0    0.31    0.19
   0  -5   0    0.66    2.43
   0  -5   0    0.28    1.04
   0  -5   0    0.06    0.14
   0   5   0   -0.39    1.10
   0   5   0   -2.62    2.35
   0   5   0   -0.19    0.11
   0   5   0    3.49    2.48
   0   5   0   -0.15    0.15
   0   5   0    0.11    1.43
   0   5   0   -0.03    0.12
  -1  -5   0  106.05    4.01
   1  -5   0   94.89    7.50
   1  -5   0  106.69    4.04
   1  -5   0   98.96    6.48
   1  -5   0  104.34    4.14
  -1  -5   0  101.63    4.06
   1  -5   0  100.46    4.05
   1  -5   0  101.00    6.11
  -1  -5   0  107.52    3.99
  -1  -5   0  107.87    5.78
  -1  -5   0  100.99    7.34
  -1  -5   0  114.57    5.54
  -1  -5   0   99.21    4.06
  -1  -5   0  105.97    6.54
   1   5   0  108.49    7.19
  -1   5   0   98.98    6.09
  -1   5   0   95.93    3.97
  -1   5   0   98.56    7.53
   1   5   0  107.01    5.68
  -1   5   0  104.60    4.03
   1   5   0  101.13    4.05
  -1   5   0  105.78    4.09
   1   5   0  108.95    4.05
   1   5   0  109.60    5.43
  -1   5   0   98.33    6.52
   1   5   0  107.28    6.39
   1   5   0   99.07    4.03
  -1   5   0  101.17    4.05
   2  -5   0   14.48    0.75
  -2  -5   0   15.92    0.73
   2  -5   0   37.04   11.49
   2  -5   0   14.04    3.33
   2  -5   0   12.25    0.74
  -2  -5   0   16.41    2.21
   2   5   0   13.28    2.02
  -2   5   0   10.02    2.54
   2   5   0   13.22    2.64
  -2   5   0   15.15    5.84
   2   5   0   14.32    0.76
   2   5   0   15.16    1.74
  -2   5   0   13.40    0.83
  -2   5   0   13.24    0.72
   2   5   0   13.67    0.72
  -2   5   0   14.68    4.22
   2   5   0   17.99    3.48
  -2   5   0   10.63    3.13
   3  -5   0   -0.29    2.90
   3  -5   0    0.05    0.30
   3  -5   0    0.48    4.01
   3  -5   0    2.94    6.45
  -3  -5   0    0.75    0.33
   3  -5   0    0.05    0.35
   3  -5   0    2.72    2.58
  -3   5   0    0.62    3.25
  -3   5   0   -1.55    4.64
  -3   5   0   -0.16    0.25
  -3   5   0    0.53    0.36
  -3   5   0    9.89    6.40
   3   5   0    0.25    0.26
   3   5   0    0.39    0.25
  -3   5   0    0.68    3.72
   4  -5   0   -9.56    9.91
  -4  -5   0    6.75    1.14
  -4  -5   0    3.71    0.65
   4  -5   0    8.09    7.35
   4  -5   0    4.21    4.02
   4  -5   0    2.52    4.90
   4   5   0    5.29    0.62
   4   5   0    4.55    0.66
  -4   5   0    3.15    8.04
  -4   5   0    6.17   10.93
  -4   5   0    2.63    0.60
  -4   5   0    9.84    6.40
  -4   5   0    4.25    0.71
  -4   5   0    2.62    5.02
  -5  -5   0    0.48    0.84
  -5  -5   0    0.91    0.80
   5   5   0    0.52    0.49
  -5   5   0    0.82    0.55
  -5   5   0    0.85    0.67
   0  -6   0  200.57    9.86
   0  -6   0  204.64    7.77
   0  -6   0  212.38    7.86
   0  -6   0  202.51    7.76
   0  -6   0  206.09    7.76
   0  -6   0  192.71   10.22
   0  -6   0  195.38    7.76
   0  -6   0  201.30   11.41
   0   6   0  197.17    7.76
   0   6   0  214.07    7.79
   0   6   0  197.32    7.81
   1  -6   0   48.08    4.30
  -1  -6   0   45.79    3.73
   1  -6   0   64.24    7.54
  -1  -6   0   51.64    6.26
  -1  -6   0   50.46    1.95
   1  -6   0   50.26    1.99
   1  -6   0   46.89    1.99
  -1  -6   0   48.87    1.93
   1  -6   0   70.93    9.79
  -1  -6   0   49.26    5.09
   1  -6   0   45.24    4.71
  -1  -6   0   50.68    4.17
   1   6   0   49.89    4.88
  -1   6   0   52.14    4.92
   1   6   0   51.23    5.98
  -1   6   0   45.26    2.03
   1   6   0   51.87    4.09
   1   6   0   47.80    1.99
   1   6   0   46.23    1.97
   1   6   0   51.50    3.72
  -1   6   0   44.06    6.87
   1   6   0   49.59    2.00
  -1   6   0   47.82    4.35
  -1   6   0   44.75    1.91
  -2  -6   0  126.84    4.89
  -2  -6   0  132.23    6.57
  -2  -6   0  128.53    6.95
   2  -6   0  119.02    4.92
   2  -6   0  118.90    4.95
   2  -6   0  119.83   12.12
   2  -6   0  122.41   10.28
  -2  -6   0  130.78    9.10
   2  -6   0  121.62    7.97
  -2  -6   0  129.71    7.87
   2  -6   0  127.96    8.68
   2   6   0  123.97    4.96
   2   6   0  121.72    4.93
  -2   6   0  111.98    9.89
  -2   6   0  149.66   10.14
  -2   6   0  117.13    7.94
  -2   6   0  110.23   11.52
   2   6   0  130.29    6.15
   2   6   0  135.22    6.53
   2   6   0  132.24    8.21
  -2   6   0  125.11    5.02
   2   6   0  136.16    7.35
  -2   6   0  124.68    4.91
   3  -6   0   48.24    2.01
   3  -6   0   48.24    6.87
   3  -6   0   49.50    5.98
   3  -6   0   47.20   12.09
  -3  -6   0   45.04    2.00
   3  -6   0   44.82    8.95
   3  -6   0   48.10    2.03
  -3   6   0   43.68    2.15
  -3   6   0   51.28    6.25
  -3   6   0   49.03   11.14
   3   6   0   46.67    2.03
  -3   6   0   46.86    2.02
  -3   6   0   52.32    7.32
  -3   6   0   41.79    9.16
   3   6   0   48.61    2.07
   4  -6   0    7.22    6.53
   4  -6   0   10.25    8.78
  -4  -6   0   13.72    1.04
  -4  -6   0   13.43    1.40
   4  -6   0   11.92   13.34
   4  -6   0   12.53    1.06
   4  -6   0   12.42    5.47
   4   6   0   14.45    0.95
  -4   6   0    7.13   12.75
  -4   6   0   13.33    0.95
  -4   6   0   12.51    9.77
  -4   6   0    6.39    7.41
   4   6   0   11.69    0.90
  -4   6   0   11.30    1.10
  -4   6   0   25.09    7.05
  -5  -6   0   36.49    2.03
  -5  -6   0   36.13    2.40
  -5   6   0   32.05    2.13
   5   6   0   34.25    1.79
  -5   6   0   35.76    1.87
   0  -7   0    0.89    1.70
   0  -7   0    0.83    3.39
   0  -7   0    0.21    0.22
   0  -7   0    2.01    2.10
   0  -7   0    0.17    0.20
   0  -7   0   -0.33    2.68
   0  -7   0    0.22    0.16
   0   7   0   -0.18    0.17
   0   7   0   -0.07    0.26
   0   7   0    0.83    2.94
   0   7   0    2.16    2.14
   0   7   0    1.26    3.80
   0   7   0   -1.27    2.07
   0   7   0    0.31    0.17
   1  -7   0  237.04   16.19
  -1  -7   0  246.91   13.43
  -1  -7   0  250.66    9.40
  -1  -7   0  239.51    9.38
   1  -7   0  235.78   12.32
   1  -7   0  236.10    9.44
  -1  -7   0  256.67   11.77
  -1  -7   0  251.85   12.23
  -1  -7   0  232.48   14.53
   1  -7   0  295.09   14.53
   1  -7   0  242.14    9.44
   1   7   0  249.42    9.44
   1   7   0  233.89    9.43
  -1   7   0  239.08    9.49
  -1   7   0  231.02   14.27
   1   7   0  245.44   11.59
   1   7   0  264.42   14.69
  -1   7   0  240.11   12.98
   1   7   0  235.54    9.45
   1   7   0  237.41   13.16
  -1   7   0  289.86   13.65
  -1   7   0  241.60    9.37
   1   7   0  241.07   12.01
   2  -7   0  499.58   28.17
  -2  -7   0  509.23   23.93
  -2  -7   0  503.80   19.14
   2  -7   0  589.80   25.62
  -2  -7   0  517.07   21.64
   2  -7   0  480.56   19.20
   2  -7   0  479.45   19.22
   2  -7   0  477.47   22.78
  -2  -7   0  528.64   22.95
  -2  -7   0  522.67   21.19
   2   7   0  525.35   22.15
   2   7   0  543.13   21.22
  -2   7   0  497.23   22.96
   2   7   0  529.56   20.79
  -2   7   0  481.00   27.50
   2   7   0  479.01   19.20
  -2   7   0  498.07   19.29
   2   7   0  526.91   23.14
   2   7   0  461.88   19.22
  -2   7   0  443.92   19.24
   3  -7   0    7.26    3.38
   3  -7   0   10.19    0.79
  -3  -7   0    9.01    0.70
   3  -7   0    9.45    0.76
   3  -7   0    4.47    4.08
   3  -7   0    7.55    6.10
   3  -7   0    1.50    8.74
  -3   7   0   22.27    6.76
  -3   7   0   10.22    0.89
  -3   7   0    9.69    4.95
  -3   7   0    5.98    8.85
  -3   7   0    9.86    0.75
  -3   7   0    7.44    7.09
   3   7   0    9.78    0.73
   3   7   0    9.96    0.70
   4  -7   0  254.75   10.82
   4  -7   0  328.42   33.98
   4  -7   0  324.74   21.70
   4  -7   0  275.38   10.82
   4  -7   0  298.49   29.87
   4  -7   0  298.53   23.87
   4   7   0  276.34   10.90
  -4   7   0  281.23   10.86
  -4   7   0  276.31   11.07
   4   7   0  280.76   10.95
  -5  -7   0   85.34    4.08
   5  -7   0   78.17    3.55
  -5   7   0   82.77    3.79
   5   7   0   82.74    3.56
   0  -8   0  947.44   40.74
   0  -8   0  920.68   35.17
   0  -8   0  928.23   35.17
   0  -8   0  938.02   42.49
   0  -8   0  952.25   38.99
   0  -8   0  952.97   38.30
   0   8   0  869.56   35.17
   0   8   0  894.76   35.23
   0   8   0  910.75   40.60
   0   8   0  966.70   39.08
   1  -8   0   87.29   10.27
  -1  -8   0   65.09    7.38
  -1  -8   0   67.08    5.95
  -1  -8   0   66.42    9.12
   1  -8   0   63.78    2.62
  -1  -8   0   66.24    2.56
   1  -8   0   87.91    8.15
   1  -8   0   68.09   10.28
   1  -8   0   63.08    2.56
  -1  -8   0   61.14    5.24
   1  -8   0   60.76    2.62
  -1  -8   0   64.53    2.56
   1  -8   0   64.08    5.80
   1   8   0   61.04    2.62
   1   8   0   66.47    5.17
  -1   8   0   62.84    2.69
   1   8   0   64.89    2.65
  -1   8   0   60.92    9.32
   1   8   0   65.02    7.06
   1   8   0   62.40    2.60
  -1   8   0   62.68    2.54
  -1   8   0   63.46    5.76
  -1   8   0   61.37    6.36
   1   8   0   57.11    8.44
   1   8   0   66.75    5.72
   2  -8   0  104.45    4.27
   2  -8   0  102.31    9.12
  -2  -8   0  115.73   11.02
   2  -8   0  122.56   17.39
  -2  -8   0  101.46    7.55
   2  -8   0  114.76   11.50
  -2  -8   0  119.36    9.31
   2  -8   0  106.88    4.25
  -2  -8   0  108.89    6.91
  -2  -8   0  109.44    4.17
   2  -8   0  103.53    8.23
   2   8   0  104.29    4.28
  -2   8   0  101.30    8.17
   2   8   0  114.58    6.45
   2   8   0   98.76    4.23
  -2   8   0   94.82   10.87
   2   8   0  111.33    8.20
  -2   8   0  126.83   16.64
   2   8   0  109.58    9.78
  -2   8   0  102.09    9.09
  -2   8   0   99.60    4.31
   2   8   0  112.26    6.95
   3  -8   0  551.10   19.83
   3  -8   0  501.17   28.64
   3  -8   0  514.41   24.84
   3  -8   0  531.32   32.24
   3  -8   0  506.40   25.94
  -3   8   0  508.39   31.44
  -3   8   0  530.90   19.81
   3   8   0  509.82   19.85
  -3   8   0  525.75   19.96
  -3   8   0  501.55   24.80
  -3   8   0  518.12   26.08
   3   8   0  529.56   19.89
  -3   8   0  492.48   28.70
   4  -8   0   17.12    1.32
   4  -8   0   23.12    1.36
  -4   8   0   22.44    1.32
   4   8   0   20.84    1.25
  -4   8   0   20.44    1.45
   4   8   0   22.41    1.28
   0  -9   0    2.41    6.44
   0  -9   0   -1.81    2.46
   0  -9   0    1.18    0.30
   0  -9   0    3.69    4.56
   0  -9   0    3.52    4.05
   0   9   0    3.16    2.67
   0   9   0    4.28    3.20
   0   9   0   -1.84    3.79
   0   9   0   -8.35    4.35
  -1  -9   0  366.67   13.88
   1  -9   0  354.76   18.53
  -1  -9   0  398.41   22.22
   1  -9   0  453.94   27.11
  -1  -9   0  390.80   17.36
   1  -9   0  340.14   13.94
  -1  -9   0  335.77   13.87
  -1  -9   0  374.21   19.88
   1  -9   0  359.91   17.77
  -1  -9   0  383.44   18.03
   1  -9   0  350.77   13.93
   1   9   0  368.86   19.29
   1   9   0  377.59   17.68
  -1   9   0  350.23   22.32
  -1   9   0  348.17   13.85
   1   9   0  351.93   13.92
  -1   9   0  353.12   13.99
   1   9   0  361.23   20.85
  -1   9   0  366.74   17.84
  -1   9   0  370.66   18.70
   1   9   0  341.84   13.93
   1   9   0  377.05   16.99
   2  -9   0  181.40   17.89
  -2  -9   0  181.29   12.73
   2  -9   0  173.41    6.90
  -2  -9   0  166.95   10.78
  -2  -9   0  178.25    6.81
  -2  -9   0  183.46   10.09
  -2  -9   0  172.44   14.74
  -2  -9   0  183.04    6.82
   2  -9   0  170.95    6.92
   2   9   0  171.27   13.34
  -2   9   0  165.60    6.97
   2   9   0  183.45    9.48
   2   9   0  186.03   11.65
  -2   9   0  173.76    6.75
   2   9   0  176.67    6.90
   2   9   0  171.60    6.93
   2   9   0  186.38   10.12
   3  -9   0   11.86   13.30
   3  -9   0    3.09    0.52
   3  -9   0   -3.96    8.50
   3  -9   0    6.26    6.86
   3  -9   0    5.81    5.62
  -3   9   0   13.08    6.61
   3   9   0    3.13    0.62
  -3   9   0   15.74    7.15
   3   9   0    4.39    3.52
   3   9   0    7.31    2.63
  -3   9   0    4.33    0.73
  -3   9   0    6.01    8.37
   3   9   0    9.53    5.21
  -3   9   0  -19.42    8.98
   3   9   0    3.13    0.58
   4  -9   0  166.34    6.27
   4  -9   0  150.81    6.21
  -4   9   0  153.22    6.45
   4   9   0  157.77    6.34
   4   9   0  154.63    6.29
   0 -10   0   96.26   13.46
   0 -10   0  101.37   10.70
   0 -10   0  105.68    7.83
   0 -10   0   97.03    3.93
   0 -10   0  100.54    3.90
   0 -10   0   92.21    8.49
   0  10   0   97.31   10.51
   0  10   0   98.39    3.90
   0  10   0   92.46    8.59
   0  10   0   96.78    3.97
   0  10   0   92.92    7.65
   0  10   0  107.37   12.81
   1 -10   0   58.26   12.17
  -1 -10   0   46.08    6.11
   1 -10   0   50.49    7.46
   1 -10   0   51.10    6.54
  -1 -10   0   58.75    7.39
  -1 -10   0   50.67   12.26
   1 -10   0   48.40    2.15
  -1 -10   0   50.80    2.10
   1 -10   0   48.40    2.12
   1 -10   0   81.92   17.35
  -1 -10   0   49.77    2.06
  -1 -10   0   33.44    8.99
  -1  10   0   57.20   12.03
  -1  10   0   47.46    2.03
   1  10   0   55.72    8.18
   1  10   0   44.51    5.41
   1  10   0   55.75   10.41
   1  10   0   49.99    6.31
   1  10   0   49.27    2.10
  -1  10   0   47.94    2.18
  -1  10   0   51.85    9.35
  -1  10   0   64.08    9.35
   1  10   0   49.01    2.12
   2 -10   0  131.93   11.23
  -2 -10   0  159.64   13.12
  -2 -10   0  132.02    5.48
   2 -10   0  147.25   12.79
   2 -10   0  134.82    5.60
  -2 -10   0  139.98   10.55
  -2 -10   0  144.50   15.51
  -2 -10   0  140.37    5.47
   2 -10   0  141.12    5.59
  -2 -10   0  145.83    9.53
   2 -10   0  170.25   22.90
   2 -10   0  146.87   15.69
   2  10   0  131.50    5.60
  -2  10   0  187.59   22.53
  -2  10   0  115.07   13.91
   2  10   0  143.18    8.58
  -2  10   0  172.77   14.14
   2  10   0  145.94    9.36
  -2  10   0  135.28    5.66
  -2  10   0  135.69    5.42
   2  10   0  154.24   11.32
   2  10   0  143.75   13.39
   2  10   0  133.03    5.56
  -2  10   0  167.34   12.51
   3 -10   0   16.21    5.89
   3 -10   0   13.99    7.08
   3 -10   0   -7.60    8.72
   3 -10   0   13.87    1.06
   3 -10   0   -8.73   13.73
   3  10   0   13.42    6.79
   3  10   0   15.13    3.91
  -3  10   0   13.01    1.05
   3  10   0   12.98    0.96
  -3  10   0   27.28    7.78
   3  10   0   24.77    6.71
  -3  10   0   17.73   10.86
  -3  10   0   15.16    9.00
  -3  10   0   25.83   13.78
   3  10   0   19.02    3.76
   3  10   0   12.96    0.97
   4 -10   0   10.93    1.19
   4 -10   0    9.66    1.24
   4  10   0    8.81    1.02
  -4  10   0   12.01    1.22
   4  10   0    8.66    0.99
   0 -11   0    5.11    9.22
   0 -11   0    6.07    6.49
   0 -11   0   -1.95    3.54
   0 -11   0    3.42    4.67
   0  11   0    4.73    7.40
   0  11   0   -0.88    3.24
   0  11   0   -3.20    2.80
   0  11   0    1.37    4.37
   1 -11   0    5.08    0.71
   1 -11   0    1.74    7.52
   1 -11   0    4.14    5.89
  -1 -11   0    1.33    5.32
   1 -11   0   11.70    5.41
   1 -11   0   -1.88   13.74
   1 -11   0    5.56    0.59
  -1 -11   0   23.58   10.83
  -1 -11   0    8.56    4.75
  -1 -11   0    5.85    0.72
  -1 -11   0    4.12    0.53
  -1 -11   0   -1.15    6.92
  -1  11   0   -0.67    2.78
  -1  11   0    1.17    7.29
   1  11   0    4.28    0.57
   1  11   0   15.88    4.79
  -1  11   0    5.44    0.49
  -1  11   0   10.63   13.03
   1  11   0    5.29    0.53
  -1  11   0    1.96    3.27
   1  11   0    3.07    3.60
  -1  11   0    4.88    0.61
   1  11   0    0.73    7.50
   1  11   0    3.78    5.70
  -2 -11   0   74.92    9.23
   2 -11   0   51.08   14.70
  -2 -11   0   56.53   11.84
  -2 -11   0   54.69    2.43
  -2 -11   0   56.86    7.55
  -2 -11   0   65.38   15.52
   2 -11   0   50.61    8.68
   2 -11   0   39.57    9.87
   2 -11   0   59.06    2.53
  -2 -11   0   61.06    2.38
   2 -11   0   56.56   10.45
   2 -11   0   54.63    2.51
  -2  11   0   57.13    2.31
   2  11   0   57.20    2.52
  -2  11   0   51.56    8.35
  -2  11   0  101.39   24.11
   2  11   0   60.43    2.49
   2  11   0   56.17    7.39
  -2  11   0   56.10    9.69
   2  11   0   65.12   12.85
   2  11   0   57.49    6.35
  -2  11   0   34.52   11.38
  -2  11   0   57.88    2.59
   2  11   0   63.03    9.82
  -3 -11   0    6.30    8.79
   3 -11   0    1.42    0.54
   3 -11   0    1.47   20.75
  -3 -11   0   14.26    6.69
  -3 -11   0   -0.83    5.22
   3 -11   0  -18.69   14.24
  -3 -11   0   12.89   11.57
   3 -11   0    2.85   16.08
   3 -11   0    1.76    5.29
   3  11   0    1.86    6.07
   3  11   0    0.63    0.43
   3  11   0    3.00    8.25
   3  11   0    6.20    3.51
  -3  11   0    4.63    7.85
   3  11   0    2.80    4.40
   3  11   0    0.10    0.42
  -3  11   0    5.83   10.72
  -3  11   0   -9.42   18.56
  -3  11   0   -0.79    6.12
  -3  11   0    0.46    0.49
   4 -11   0   77.51    3.64
   4 -11   0   90.15    3.74
  -4  11   0   84.62    3.82
   4  11   0   84.44    3.72
   4  11   0   88.14    3.70
   0 -12   0   84.62   10.19
   0 -12   0   71.12    8.62
   0 -12   0   75.64    3.23
   0 -12   0   78.79   12.81
   0 -12   0   84.50   16.91
   0 -12   0   76.64    3.18
   0  12   0   95.65   15.87
   0  12   0   98.09   12.57
   0  12   0   78.44    3.27
   0  12   0   68.17    8.00
   0  12   0   77.72    3.18
  -1 -12   0    7.77    5.94
  -1 -12   0    4.64   11.54
  -1 -12   0    5.87    8.44
   1 -12   0    3.40    6.71
   1 -12   0    9.96    0.78
  -1 -12   0    7.92    0.85
   1 -12   0   12.85   13.72
   1 -12   0   15.86   10.20
   1 -12   0    9.75    0.90
  -1 -12   0   11.62    5.18
   1 -12   0   14.13    6.25
  -1 -12   0    9.11    0.86
  -1  12   0   10.38    0.82
  -1  12   0    8.80    7.51
   1  12   0   10.71    0.72
  -1  12   0   10.49    0.68
   1  12   0   16.73    5.18
  -1  12   0    3.31    5.18
   1  12   0    9.23    0.74
   1  12   0   25.19   10.21
  -1  12   0    7.93    3.95
   1  12   0   16.55    6.18
  -1  12   0   17.22   13.96
   1  12   0   18.86    7.99
  -2 -12   0   -1.89   11.87
  -2 -12   0   -6.80    8.44
   2 -12   0    2.77    0.51
   2 -12   0   -2.84    6.01
  -2 -12   0    8.28    6.87
  -2 -12   0    5.22    0.83
   2 -12   0  -10.77    8.34
  -2 -12   0    9.39    5.43
   2 -12   0    3.12    0.56
   2 -12   0   16.37   14.25
   2 -12   0   -7.92   10.94
  -2 -12   0    3.77    0.59
   2  12   0    2.45    3.99
  -2  12   0    5.15    8.48
   2  12   0    3.80    0.67
   2  12   0    3.40    0.62
  -2  12   0    5.16   10.47
   2  12   0    0.89    4.83
   2  12   0   -2.50    6.52
  -2  12   0    3.06    0.59
  -2  12   0   11.91    6.81
  -2  12   0  -15.61   15.42
   2  12   0    9.20    9.75
  -2  12   0    3.21    0.51
  -3 -12   0   12.44    8.22
  -3 -12   0   11.53   10.91
   3 -12   0   -8.77   12.28
  -3 -12   0    3.04    6.44
   3 -12   0   13.12   17.96
   3 -12   0   -3.59    7.59
   3 -12   0    0.65    0.56
   3 -12   0    7.34    9.49
  -3 -12   0    6.85   14.44
   3  12   0   -0.66    5.19
  -3  12   0    1.18    0.55
  -3  12   0   11.03    6.90
   3  12   0   -1.98    4.18
  -3  12   0   -6.88    7.27
   3  12   0    5.15   10.13
   3  12   0    1.24    0.52
   3  12   0    1.33    7.27
   3  12   0    1.60    0.51
  -3  12   0  -16.13   12.81
  -3  12   0   -1.28    9.28
   0 -13   0    3.25    6.57
   0 -13   0    1.89    9.01
   0 -13   0   -0.45    0.43
   0 -13   0    0.34    0.33
   0 -13   0    6.72   12.90
   0 -13   0    1.08    5.36
   0  13   0   -7.80   11.12
   0  13   0   -5.74    4.26
   0  13   0    0.46    0.35
   0  13   0   -1.01    3.11
   0  13   0    0.22    0.34
   0  13   0   -2.36    6.74
   1 -13   0   20.54   15.50
   1 -13   0    7.42    0.89
  -1 -13   0   -4.61    6.59
  -1 -13   0   -4.24   12.94
  -1 -13   0    6.43    0.87
   1 -13   0   16.77    8.59
  -1 -13   0    5.99    0.67
   1 -13   0   13.10    8.38
  -1 -13   0    6.42    9.80
   1 -13   0    6.88    0.74
  -1 -13   0    9.28    5.87
   1 -13   0   14.62   11.43
  -1  13   0   -0.55    7.51
   1  13   0    6.61    0.65
   1  13   0    6.40   17.25
  -1  13   0   17.43   10.87
  -1  13   0    7.16    0.76
  -1  13   0  -12.71   16.06
  -1  13   0    7.53    0.71
   1  13   0    5.98    0.70
  -1  13   0    4.66    5.77
   2 -13   0   62.69   35.05
   2 -13   0   18.56   22.66
   2 -13   0   23.86   14.77
   2 -13   0   -5.45   16.20
  -2  13   0    2.95    7.29
  -2  13   0   24.50   31.39
  -2  13   0    4.11    6.45
  -2  13   0    5.49    8.96
   3 -13   0   13.90   10.63
   3 -13   0   30.35   29.90
   3 -13   0    6.38   16.06
   3 -13   0   34.99   22.72
  -3  13   0  -15.45   17.20
  -3  13   0   -1.83   12.27
  -3  13   0   24.45   22.74
  -3  13   0   -2.39   11.53
   0 -14   0   42.65    2.13
   0 -14   0   46.97    2.04
   0  14   0   42.26    2.01
   0  14   0   45.64    2.15
   1 -14   0   15.31    1.06
  -1 -14   0   15.24    1.17
   1 -14   0   14.39    1.20
  -1 -14   0   15.46    0.97
   1  14   0   15.40    0.99
   1  14   0   15.11    1.04
  -1  14   0   15.41    1.11
  -1  14   0   13.87    0.93
  -2 -14   0   15.23    1.29
  -2 -14   0   14.61    0.99
   2 -14   0   15.48    1.18
   2 -14   0   13.73    1.28
   2  14   0   16.19    1.15
  -2  14   0   13.99    1.18
  -2  14   0   14.57    0.92
   2  14   0   14.35    1.05
   3 -14   0   51.61    2.67
  -3 -14   0   57.11    2.66
   3  14   0   53.66    2.56
   3  14   0   55.25    2.63
  -3  14   0   52.20    2.70
   0 -15   0    0.57    0.56
   0 -15   0   -0.57    0.42
   0  15   0    0.06    0.42
   0  15   0    0.86    0.46
   1 -15   0  243.23    9.35
  -1 -15   0  237.26    9.23
  -1 -15   0  234.99    9.32
   1 -15   0  235.71    9.38
   1  15   0  241.66    9.29
   1  15   0  234.82    9.34
  -1  15   0  237.73    9.43
  -1  15   0  232.41    9.22
   2 -15   0   64.46    3.06
  -2 -15   0   69.16    2.87
  -2 -15   0   66.96    3.11
   2 -15   0   67.73    3.15
   2  15   0   67.89    2.99
   2  15   0   66.46    3.05
  -2  15   0   69.49    3.13
   0 -16   0  161.84    6.30
   0 -16   0  150.31    6.40
   0  16   0  158.45    6.31
  -1 -16   0   51.52    2.30
  -1 -16   0   48.54    2.50
   1 -16   0   49.07    2.55
   1 -16   0   51.82    2.43
  -1  16   0   48.66    2.28
   1  16   0   49.46    2.39
  -1  16   0   51.34    2.49
   1  16   0   51.91    2.33
  -5   0   1   -0.27    0.65
  -4   0   1    1.68    6.05
   4   0  -1   -3.43    6.18
  -4   0   1    0.16    0.44
  -4   0   1    4.80    4.52
   4   0  -1    2.99    3.25
   4   0  -1   -1.04    2.51
   4   0  -1    1.06    4.49
  -4   0   1    2.88    3.26
  -4   0   1    0.87    2.69
   3   0  -1   -0.02    1.59
  -3   0   1   -0.20    2.05
  -3   0   1    0.63    1.70
   3   0  -1    1.51    2.10
  -3   0   1    3.66    3.06
   3   0  -1   -1.40    3.77
   3   0  -1   -1.85    2.76
  -3   0   1    0.95    3.87
  -3   0   1    0.63    0.35
   2   0  -1   -3.14    1.54
  -2   0   1   -0.13    0.16
  -2   0   1   -0.20    0.14
   2   0  -1   -1.28    2.25
  -2   0   1    0.06    0.25
  -2   0   1    0.80    1.18
   2   0  -1    0.69    1.02
  -2   0   1   -0.14    0.15
  -2   0   1    0.98    1.83
   2   0  -1   -0.74    1.20
  -2   0   1   -0.06    1.30
  -2   0   1    0.10    2.38
  -1   0   1    0.65    0.77
   1   0  -1   -0.94    1.28
  -1   0   1    0.32    1.01
   1   0  -1    0.28    1.00
  -1   0   1    0.81    1.33
   1   0  -1    0.68    0.78
  -1   0   1    0.11    0.09
  -1   0   1   -0.04    0.13
   1   0  -1    0.75    0.67
  -1   0   1    0.06    0.10
   1   0  -1    0.29    0.11
  -1   0   1    0.68    0.10
  -1   0   1    0.59    0.63
   0   0  -1   -0.67    0.08
   0   0   1   -0.73    0.06
   0   0  -1   -0.87    0.38
   0   0  -1   -0.79    0.05
   0   0  -1   -0.54    0.49
   0   0  -1   -1.00    0.59
   0   0  -1   -2.36    0.92
   1   0   1   -0.57    0.95
   1   0   1   -1.04    0.07
  -1   0  -1    0.02    0.75
  -1   0  -1   -1.00    0.07
  -1   0  -1   -1.28    1.14
   1   0   1   -1.07    0.08
   1   0   1   -1.54    1.25
  -1   0  -1   -1.14    0.08
   1   0   1   -1.20    0.61
  -1   0  -1   -1.13    0.14
  -1   0  -1    0.04    0.97
   1   0   1   -1.25    0.65
  -1   0  -1   -0.93    0.10
  -1   0  -1   -0.36    0.61
   1   0   1   -1.26    0.12
   2   0   1    0.11    0.13
  -2   0  -1    0.65    1.19
  -2   0  -1   -0.14    0.18
   2   0   1    0.65    1.17
   2   0   1    1.79    1.76
   2   0   1    1.07    0.22
  -2   0  -1   -1.05    1.45
  -2   0  -1    0.04    0.14
   2   0   1   -2.12    2.20
   2   0   1    0.48    1.02
  -2   0  -1   -0.65    0.93
  -2   0  -1    2.08    2.14
  -2   0  -1    0.19    0.19
  -3   0  -1   -4.69    3.42
   3   0   1    0.98    3.56
  -3   0  -1    0.43    0.29
   3   0   1   -2.23    1.89
   3   0   1    0.48    2.80
  -3   0  -1    0.57    0.30
  -3   0  -1    0.81    2.71
   3   0   1   -0.12    0.18
   3   0   1    0.10    1.58
  -3   0  -1    0.65    2.06
  -3   0  -1   -0.47    1.61
   3   0   1   -0.24    0.31
   4   0   1    3.27    3.87
   4   0   1   -1.01    2.87
  -4   0  -1    3.85    2.35
   4   0   1    1.14    5.30
  -4   0  -1    2.52    4.69
  -4   0  -1   -0.11    2.67
   4   0   1   -2.64    2.19
  -4   0  -1    3.02    3.84
  -5   0  -1    0.60    0.62
  -5  -1   1   13.26    1.40
  -5   1   1    9.54    1.05
  -5   1   1   11.44    1.34
   4  -1  -1   48.14    8.21
   4  -1  -1   53.86    5.48
   4  -1  -1   54.99    6.15
   4  -1  -1   56.77   10.97
  -4  -1   1   56.05    2.64
   4   1  -1   54.80    9.21
   4   1  -1   53.53    5.38
  -4   1   1   53.92    6.54
  -4   1   1   54.92   10.43
  -4   1   1   58.24    2.32
   4   1  -1   58.43    4.81
   4   1  -1   54.57    7.04
  -4   1   1   56.13    2.63
  -4   1   1   54.18    8.17
  -4   1   1   65.48    5.83
  -3  -1   1   14.69    0.97
   3  -1  -1   19.03    5.68
   3  -1  -1   15.55    3.58
   3  -1  -1   10.59    3.92
   3  -1  -1   14.10    3.00
   3   1  -1   10.73    2.47
   3   1  -1   14.86    4.45
  -3   1   1   13.67    3.62
  -3   1   1   14.58    3.17
  -3   1   1   14.94    4.15
  -3   1   1   13.76    0.70
  -3   1   1   12.07    1.00
   3   1  -1   15.62    3.02
  -3   1   1   14.93    4.92
   3   1  -1   13.41    3.42
   2  -1  -1   24.50    1.03
  -2  -1   1   25.89    1.00
  -2  -1   1   22.04    3.65
  -2  -1   1   21.14    2.13
  -2  -1   1   23.50    3.04
  -2  -1   1   24.08    1.19
   2  -1  -1   23.58    3.59
   2  -1  -1   22.65    4.44
   2  -1  -1   21.10    2.74
  -2  -1   1   20.92    2.45
  -2  -1   1   25.30    1.06
   2  -1  -1   22.10    2.46
  -2   1   1   24.01    1.01
  -2   1   1   25.17    4.47
  -2   1   1   26.08    1.03
   2   1  -1   23.77    1.02
  -2   1   1   21.55    3.57
  -2   1   1   21.85    2.81
   2   1  -1   26.93    4.07
   2   1  -1   22.28    2.49
   2   1  -1   22.81    3.15
   2   1  -1   22.53    2.17
  -2   1   1   22.06    2.51
  -2   1   1   24.81    1.19
  -1  -1   1   22.09    0.90
   1  -1  -1   22.39    2.66
   1  -1  -1   19.24    1.85
   1  -1  -1   23.95    0.91
  -1  -1   1   21.59    0.92
   1  -1  -1   22.99    1.01
  -1  -1   1   23.97    0.90
   1  -1  -1   21.54    2.12
   1  -1  -1   24.02    0.92
   1  -1  -1   18.82    3.07
  -1   1   1   22.05    0.99
  -1   1   1   21.32    1.89
   1   1  -1   20.39    1.70
  -1   1   1   23.73    0.92
   1   1  -1   18.58    2.29
  -1   1   1   19.97    2.03
  -1   1   1   22.72    0.91
  -1   1   1   19.22    2.47
   1   1  -1   22.59    0.90
   1   1  -1   23.35    2.80
  -1   1   1   20.14    3.00
   1   1  -1   19.89    1.89
   1  -1   1    3.77    1.76
  -1  -1  -1    3.59    0.28
   1  -1   1    4.01    0.29
   1  -1   1    3.91    0.25
  -1  -1  -1    3.92    0.93
  -1  -1  -1    3.16    0.77
   1  -1   1    4.80    0.24
  -1  -1  -1    5.21    1.20
   1  -1   1    3.50    0.20
   1  -1   1    4.87    1.19
   1  -1   1    4.40    1.05
  -1  -1  -1    4.61    0.24
  -1  -1  -1    4.51    1.28
  -1  -1  -1    3.63    0.27
  -1  -1  -1    4.57    0.26
   1  -1   1    4.25    0.31
   1  -1   1    4.33    1.45
  -1   1  -1    4.15    0.20
   1   1   1    4.05    0.24
  -1   1  -1    3.66    0.23
  -1   1  -1    3.94    1.08
  -1   1  -1    3.68    0.29
  -1   1  -1    4.22    1.87
  -1   1  -1    4.45    0.28
   1   1   1    4.60    0.26
  -1   1  -1    4.24    1.55
   1   1   1    3.68    0.28
  -1   1  -1    4.48    0.28
  -1   1  -1    4.12    1.20
   2  -1   1  145.55    8.19
   2  -1   1  139.14    9.02
   2  -1   1  143.44    5.65
   2  -1   1  141.49    5.62
  -2  -1  -1  142.17    7.07
  -2  -1  -1  167.89    5.67
   2  -1   1  138.87    7.01
  -2  -1  -1  142.47    6.33
  -2  -1  -1  153.31    5.73
   2  -1   1  138.12    7.29
  -2  -1  -1  143.21    6.20
   2  -1   1  153.79    5.77
  -2  -1  -1  140.32    6.68
  -2   1  -1  154.32    5.63
  -2   1  -1  143.12    7.43
   2   1   1  140.19    6.38
  -2   1  -1  145.14    8.27
   2   1   1  146.33    5.66
   2   1   1  151.55    5.67
   2   1   1  140.07    6.78
  -2   1  -1  153.17    5.64
   2   1   1  140.81    5.64
  -2   1  -1  151.11    5.66
   2   1   1  138.33    7.19
  -2   1  -1  146.33    7.15
  -2   1  -1  164.39    5.63
  -2   1  -1  147.40    9.06
   2   1   1  142.51    6.24
  -2   1  -1  155.73    5.73
   3  -1   1   -8.89    3.99
  -3  -1  -1    0.52    1.21
  -3  -1  -1    0.48    0.32
  -3  -1  -1    4.02    2.79
  -3  -1  -1    1.59    1.52
   3  -1   1   -0.34    2.17
   3  -1   1    0.89    3.00
   3  -1   1    0.58    1.76
  -3  -1  -1    1.70    1.98
  -3   1  -1    1.12    2.26
   3   1   1    0.67    0.23
  -3   1  -1    2.39    1.90
  -3   1  -1    1.97    3.06
  -3   1  -1    0.84    0.32
   3   1   1   -1.77    2.55
   3   1   1   -0.88    1.43
   3   1   1   -0.18    0.20
  -3   1  -1    0.44    0.23
  -3   1  -1    1.08    4.04
   3   1   1    0.74    1.24
   3   1   1    2.39    2.06
   4  -1   1    9.66    6.84
  -4  -1  -1   16.85    1.15
   4  -1   1   13.19    3.31
   4  -1   1   13.55    5.36
   4  -1   1   11.89    3.95
  -4   1  -1   15.49    6.77
  -4   1  -1   14.84    1.10
  -4   1  -1   15.47    4.29
  -4   1  -1   14.97    5.21
  -4   1  -1   20.36    4.31
  -5  -1  -1    0.71    0.67
  -5   1  -1    1.79    0.63
  -5  -2   1   58.57    2.95
  -5   2   1   58.56    2.91
  -5   2   1   59.24    2.56
   4  -2  -1   52.26    9.07
   4  -2  -1   50.15    5.95
   4  -2  -1   59.63    7.00
   4  -2  -1   55.62   11.91
  -4  -2   1   62.01    2.92
   4   2  -1   68.88    6.14
  -4   2   1   63.26    6.47
  -4   2   1   67.93    7.47
  -4   2   1   67.14    2.61
   4   2  -1   60.15    4.32
  -4   2   1   52.40    9.19
  -4   2   1   66.94    2.92
   4   2  -1   73.14    5.59
   4   2  -1   62.53    6.78
   4   2  -1   59.77    4.86
   4   2  -1   58.46    7.92
   4   2  -1   69.87    4.98
  -4   2   1   57.39   11.46
   4   2  -1   70.81    8.61
   3  -2  -1    5.86    3.44
  -3  -2   1    2.58    0.45
   3  -2  -1    0.06    2.31
   3  -2  -1    1.86    2.05
  -3  -2   1    2.42    0.48
   3  -2  -1   -2.76    4.32
   3   2  -1    4.32    1.80
  -3   2   1    3.00    0.56
   3   2  -1    3.03    2.37
  -3   2   1    3.50    0.48
  -3   2   1    5.20    2.38
  -3   2   1    4.93    2.74
   3   2  -1    3.66    1.50
   3   2  -1    3.09    0.41
  -3   2   1    0.49    4.35
  -3   2   1    3.45    0.40
  -3   2   1    3.86    3.48
   3   2  -1    4.32    3.36
   2  -2  -1  295.04   10.87
   2  -2  -1  272.08   15.28
   2  -2  -1  320.53   10.87
  -2  -2   1  313.65   10.81
   2  -2  -1  284.28   10.83
   2  -2  -1  273.92   14.26
   2  -2  -1  283.22   12.82
   2  -2  -1  278.31   13.21
   2   2  -1  282.59   12.76
  -2   2   1  283.35   13.20
   2   2  -1  280.24   13.00
   2   2  -1  276.19   12.09
  -2   2   1  283.02   14.30
   2   2  -1  286.31   13.44
   2   2  -1  285.96   12.36
   2   2  -1  279.81   11.88
   2   2  -1  283.29   12.06
  -2   2   1  279.64   15.27
  -2   2   1  263.68   10.83
  -2   2   1  286.18   10.99
  -2   2   1  276.47   12.75
   2   2  -1  271.42   13.62
   2   2  -1  283.69   10.85
  -2   2   1  288.09   10.87
   1  -2  -1   26.26    1.05
  -1  -2   1   25.48    1.03
   1  -2  -1   25.41    2.26
   1  -2  -1   24.07    2.45
   1  -2  -1   25.53    1.05
   1  -2  -1   25.79    1.14
  -1  -2   1   27.20    1.06
   1  -2  -1   27.33    3.14
   1  -2  -1   22.37    3.62
   1   2  -1   22.97    1.92
  -1   2   1   25.07    1.04
   1   2  -1   18.27    3.06
   1   2  -1   25.52    1.03
   1   2  -1   23.57    2.16
  -1   2   1   27.86    1.06
  -1   2   1   26.59    3.69
   1   2  -1   26.74    2.70
  -1   2   1   21.39    3.00
  -1   2   1   24.70    2.27
  -1   2   1   24.48    1.11
  -1   2   1   25.27    2.51
   0  -2   1    0.32    0.53
   0  -2   1    0.31    1.85
   0  -2  -1    1.07    1.28
   0  -2  -1    0.48    0.58
   0  -2  -1    1.13    0.15
   0  -2   1    0.55    0.10
   0  -2   1    0.08    0.64
   0  -2   1    0.48    0.10
   0  -2  -1   -0.48    0.93
   0  -2   1   -0.03    1.10
   0  -2  -1    0.63    0.11
   0  -2  -1    1.24    0.73
   0  -2  -1    0.39    0.08
   0  -2   1    0.88    0.15
   0   2   1    0.65    0.12
   0   2   1   -0.35    1.10
   0   2   1    0.56    0.13
   0   2  -1    0.75    0.68
   0   2  -1    0.49    2.22
   0   2  -1    0.64    0.11
   0   2   1    0.21    0.95
   0   2  -1    0.61    0.94
   0   2  -1    0.50    0.09
   0   2  -1    0.48    0.07
   0   2   1    0.16    0.63
   0   2  -1    0.53    0.75
   0   2   1    0.61    0.09
   0   2   1    0.67    0.12
   0   2   1   -0.01    0.66
   1  -2   1  444.57   16.07
   1  -2   1  418.88   16.11
  -1  -2  -1  455.54   16.09
   1  -2   1  409.76   16.07
  -1  -2  -1  411.39   16.06
  -1  -2  -1  424.35   16.46
   1  -2   1  413.99   18.40
   1  -2   1  417.06   17.39
   1  -2   1  418.73   17.67
  -1  -2  -1  430.96   16.82
  -1  -2  -1  431.45   16.07
   1  -2   1  431.84   16.06
  -1  -2  -1  426.97   16.55
  -1  -2  -1  429.50   17.06
   1  -2   1  412.62   19.11
  -1   2  -1  404.08   18.31
  -1   2  -1  469.05   16.11
  -1   2  -1  411.16   19.06
   1   2   1  434.75   16.09
   1   2   1  401.97   16.06
  -1   2  -1  432.68   16.07
  -1   2  -1  399.46   17.32
   1   2   1  427.57   16.08
  -1   2  -1  401.87   17.59
   2  -2   1   47.00    5.98
   2  -2   1   43.73    4.84
   2  -2   1   44.52    3.99
   2  -2   1   46.13    1.88
  -2  -2  -1   45.24    1.95
  -2  -2  -1   50.47    1.91
   2  -2   1   45.21    2.03
   2  -2   1   42.09    3.54
  -2   2  -1   46.86    4.93
  -2   2  -1   47.08    1.90
  -2   2  -1   49.19    1.86
   2   2   1   46.09    1.88
  -2   2  -1   45.43    4.01
  -2   2  -1   51.23    1.97
   2   2   1   46.97    1.89
  -2   2  -1   44.47    1.88
   2   2   1   49.80    1.91
  -2   2  -1   45.24    5.84
  -2   2  -1   40.42    3.56
   3  -2   1   41.33    6.09
   3  -2   1   31.53    4.55
   3  -2   1   32.66    4.01
  -3  -2  -1   35.62    1.68
   3  -2   1   34.21    6.99
  -3   2  -1   35.94    1.68
   3   2   1   36.27    1.56
  -3   2  -1   31.31    4.44
   3   2   1   34.03    1.55
  -3   2  -1   38.70    1.51
  -3   2  -1   32.31    5.71
  -3   2  -1   31.72    3.95
  -3   2  -1   34.90    7.42
  -3   2  -1   38.58    1.48
   4  -2   1  194.94   11.68
   4  -2   1  207.99   16.22
   4  -2   1  206.39   13.91
  -4  -2  -1  213.53    8.06
   4  -2   1  192.62   10.98
   4  -2   1  208.26    7.89
  -4   2  -1  190.83   16.21
   4   2   1  208.54    7.92
  -4   2  -1  215.91    7.85
  -4   2  -1  213.33    8.08
  -4   2  -1  182.01    7.82
   4   2   1  217.00    7.94
  -4   2  -1  194.87   11.14
  -4   2  -1  197.21   11.90
  -4   2  -1  189.66   13.94
  -5  -2  -1    0.10    0.72
  -5   2  -1    0.56    0.63
  -5  -3   1   25.09    1.94
  -5   3   1   24.97    1.77
  -5   3   1   26.77    1.46
   4  -3  -1   11.85    8.48
  -4  -3   1    4.69    0.78
   4  -3  -1    1.21    3.78
   4  -3  -1    4.25    3.10
   4  -3  -1    7.56    5.94
  -4   3   1   18.12    7.98
  -4   3   1    1.04    4.57
  -4   3   1    6.59    3.96
  -4   3   1    5.22    0.92
  -4   3   1    9.75    6.37
   4   3  -1    5.59    0.58
   3  -3  -1  687.97   30.92
   3  -3  -1  690.17   33.13
  -3  -3   1  786.10   28.07
   3  -3  -1  688.41   34.81
   3  -3  -1  685.79   31.50
   3   3  -1  745.99   29.32
   3   3  -1  774.40   30.27
   3   3  -1  721.21   30.51
  -3   3   1  678.31   28.08
   3   3  -1  761.81   30.98
   3   3  -1  745.84   29.07
   3   3  -1  740.00   29.98
  -3   3   1  756.05   31.85
   3   3  -1  777.74   29.53
  -3   3   1  764.34   31.23
   3   3  -1  757.02   28.15
  -3   3   1  728.37   35.10
   3   3  -1  772.62   29.25
  -3   3   1  751.62   33.63
  -3   3   1  750.85   28.11
  -3   3   1  768.26   28.32
   2  -3  -1  134.27    5.04
   2  -3  -1  127.49    7.74
   2  -3  -1  122.79   10.05
   2  -3  -1  126.61    8.92
   2  -3  -1  128.55    5.07
   2  -3  -1  129.42    7.28
   2  -3  -1  145.66    5.17
   2   3  -1  127.35    6.16
   2   3  -1  130.91    5.05
   2   3  -1  142.27    5.09
   2   3  -1  132.69    6.44
   2   3  -1  125.63    7.78
   2   3  -1  120.78    7.02
   2   3  -1  124.94    7.78
   2   3  -1  129.59    7.10
  -2   3   1  124.08    8.71
   2   3  -1  129.84    6.14
  -2   3   1  125.53    7.63
  -2   3   1  128.85    9.89
  -2   3   1  130.04    5.04
  -2   3   1  134.95    5.18
  -2   3   1  125.99    7.18
   2   3  -1  128.81    6.45
  -1  -3   1  668.17   26.93
   1  -3  -1  687.44   28.61
   1  -3  -1  686.45   25.44
  -1  -3   1  601.25   25.45
   1  -3  -1  690.68   25.52
  -1  -3   1  657.57   27.62
   1  -3  -1  687.11   27.61
   1  -3  -1  680.80   27.22
  -1  -3   1  673.49   28.36
  -1  -3   1  699.02   25.43
  -1  -3   1  661.62   26.64
  -1   3   1  676.38   28.51
  -1   3   1  656.27   25.46
  -1   3   1  671.31   25.50
   1   3  -1  653.75   27.40
  -1   3   1  689.33   27.19
   1   3  -1  643.90   25.43
   1   3  -1  674.06   26.56
   1   3  -1  680.71   26.81
   1   3  -1  668.64   28.09
  -1   3   1  695.43   27.56
   0  -3   1  683.01   26.72
   0  -3   1  675.19   26.96
   0  -3   1  664.41   27.71
   0  -3   1  663.66   28.45
   0  -3   1  688.59   25.37
   0  -3  -1  695.41   25.36
   0  -3  -1  685.28   28.21
   0   3  -1  692.35   26.70
   0   3   1  635.09   26.49
   0   3   1  642.28   28.05
   0   3  -1  690.03   27.74
   0   3   1  660.22   27.49
   0   3  -1  610.55   25.33
   0   3  -1  695.07   26.99
   0   3  -1  681.44   28.47
   0   3   1  642.12   26.74
   1  -3   1    2.64    1.54
  -1  -3  -1    4.81    1.65
   1  -3   1    2.55    0.29
   1  -3   1    3.09    2.54
  -1  -3  -1    2.71    0.27
   1  -3   1    3.15    0.30
  -1  -3  -1    4.54    1.17
   1  -3   1    2.97    0.37
  -1  -3  -1    4.60    1.29
   1  -3   1    7.31    3.14
  -1  -3  -1    2.78    0.33
  -1  -3  -1    3.26    0.96
   1  -3   1    2.95    1.32
  -1  -3  -1    2.72    0.25
   1   3   1    2.61    0.26
  -1   3  -1    2.97    0.29
   1   3   1    5.16    1.71
   1   3   1    3.69    0.86
  -1   3  -1    2.20    0.32
   1   3   1    2.53    0.26
  -1   3  -1    4.31    1.97
  -1   3  -1    3.29    1.49
  -1   3  -1    1.41    2.32
  -1   3  -1    2.94    0.30
   1   3   1    2.73    0.24
  -1   3  -1    2.17    1.90
   1   3   1    3.77    1.00
   1   3   1    4.23    1.34
   2  -3   1  129.53    4.75
   2  -3   1  122.72    4.76
   2  -3   1  117.27    6.85
   2  -3   1  115.23    7.32
   2  -3   1  113.97    9.61
   2  -3   1  126.15    4.76
   2  -3   1  110.40    8.32
  -2   3  -1  133.78    4.86
  -2   3  -1  120.75    6.93
  -2   3  -1  126.71    4.76
   2   3   1  120.53    4.75
   2   3   1  121.97    4.79
  -2   3  -1  119.24    8.42
   2   3   1  131.48    4.81
  -2   3  -1  107.47    9.31
  -2   3  -1  127.75    7.47
   3  -3   1  416.69   23.43
   3  -3   1  440.13   16.82
   3  -3   1  421.33   19.58
   3  -3   1  421.41   20.21
   3  -3   1  413.58   21.63
  -3  -3  -1  463.94   16.96
  -3   3  -1  463.95   16.97
   3   3   1  471.10   16.88
  -3   3  -1  457.50   16.80
  -3   3  -1  423.67   23.44
   3   3   1  448.79   16.86
  -3   3  -1  443.04   20.42
  -3   3  -1  436.03   19.76
  -3   3  -1  432.04   21.99
   4  -3   1   36.54    9.86
   4  -3   1   40.41    1.85
   4  -3   1   38.20    5.90
   4  -3   1   43.19    6.94
  -4  -3  -1   39.64    2.03
   4  -3   1   34.65    9.05
   4   3   1   40.37    1.83
  -4   3  -1   43.49    6.26
   4   3   1   42.20    1.85
  -4   3  -1   40.68    2.02
  -4   3  -1   57.07   12.32
  -4   3  -1   42.15    1.80
  -4   3  -1   39.46    9.50
  -4   3  -1   37.67    7.17
  -5  -3  -1  263.43   10.10
   5  -3   1  255.98    9.86
  -5   3  -1  240.12   10.03
  -5  -4   1  340.34   12.69
  -5   4   1  291.78   12.51
  -5   4   1  319.34   12.24
   4  -4  -1  323.97   16.92
   4  -4  -1  310.95   20.23
   4  -4  -1  342.39   23.59
  -4  -4   1  346.06   13.12
   4  -4  -1  318.13   17.82
  -4   4   1  325.55   13.02
  -4   4   1  327.40   23.26
   4   4  -1  354.70   12.82
  -4   4   1  328.35   17.22
  -4   4   1  327.61   18.08
  -4   4   1  346.22   12.78
  -4   4   1  321.71   20.57
   3  -4  -1   81.62    7.29
   3  -4  -1   70.14   10.86
   3  -4  -1   70.41    8.80
   3  -4  -1   77.86    6.50
   3  -4  -1   74.22    3.20
   3  -4  -1   83.20    3.15
   3   4  -1   77.31    4.46
   3   4  -1   78.92    5.40
  -3   4   1   77.66    3.11
   3   4  -1   73.62    6.06
   3   4  -1   80.31    3.17
   3   4  -1   83.10    5.28
   3   4  -1   81.30    4.29
   3   4  -1   78.49    4.16
  -3   4   1   72.10    9.05
  -3   4   1   81.17    7.34
  -3   4   1   79.38    6.58
  -3   4   1   78.52    3.35
   3   4  -1   86.50    6.47
  -3   4   1   71.87   10.78
   3   4  -1   78.79    4.58
  -3   4   1   78.72    3.15
   2  -4  -1  298.98   14.65
   2  -4  -1  309.45   11.41
   2  -4  -1  277.68   17.17
   2  -4  -1  290.27   16.03
   2  -4  -1  280.19   11.43
   2  -4  -1  297.85   14.09
   2   4  -1  307.03   12.61
   2   4  -1  299.66   11.41
  -2   4   1  296.45   14.00
   2   4  -1  317.06   13.68
  -2   4   1  300.35   11.41
  -2   4   1  294.88   11.53
   2   4  -1  304.77   11.45
  -2   4   1  281.35   17.00
  -2   4   1  297.40   15.96
   2   4  -1  306.42   12.86
   2   4  -1  302.69   14.39
  -2   4   1  297.62   14.52
  -1  -4   1  838.19   33.74
   1  -4  -1  898.42   33.80
  -1  -4   1  900.08   35.60
   1  -4  -1  913.87   36.37
  -1  -4   1  941.28   33.72
   1  -4  -1  917.23   37.61
  -1  -4   1  868.74   36.41
  -1  -4   1  861.02   37.18
   1  -4  -1  875.94   33.72
   1  -4  -1  900.17   35.85
  -1  -4   1  903.00   35.26
   1  -4  -1  842.89   33.74
   1   4  -1  907.23   35.39
  -1   4   1  892.26   36.18
  -1   4   1  874.77   37.29
   1   4  -1  899.42   36.19
   1   4  -1  950.16   37.15
  -1   4   1  907.05   35.77
  -1   4   1  823.95   33.74
   1   4  -1  892.11   35.09
   1   4  -1  884.54   33.74
  -1   4   1  916.82   33.79
  -1   4   1  875.48   33.72
   0  -4   1    8.33    0.49
   0  -4  -1    8.66    0.43
   0  -4  -1    9.93    2.65
   0  -4   1    9.76    2.07
   0  -4   1    7.14    0.40
   0  -4   1    7.39    0.45
   0  -4   1   10.60    2.72
   0  -4  -1    7.28    0.42
   0  -4   1    9.13    3.79
   0  -4  -1    6.56    1.67
   0  -4  -1    8.68    0.47
   0  -4  -1    7.61    0.44
   0  -4   1    7.69    1.87
   0  -4   1    7.43    0.40
   0  -4  -1    7.85    1.99
   0  -4  -1    8.87    3.22
   0   4  -1    9.16    2.10
   0   4  -1   12.21    3.23
   0   4  -1    7.54    0.40
   0   4  -1   13.71    3.63
   0   4   1    7.55    0.41
   0   4   1   11.86    2.69
   0   4  -1    7.45    0.44
   0   4  -1    6.49    1.75
   0   4  -1    6.90    0.39
   0   4   1    7.02    1.62
   0   4   1    8.17    1.86
   0   4   1    7.93    2.61
   0   4   1    7.77    0.43
   0   4   1    7.22    0.42
   1  -4   1  909.29   36.65
   1  -4   1  838.50   34.61
   1  -4   1  901.08   38.23
  -1  -4  -1  878.05   34.58
   1  -4   1  864.05   34.60
   1  -4   1  936.85   37.18
  -1  -4  -1  951.29   35.86
  -1  -4  -1  894.20   34.65
   1  -4   1  915.89   34.67
   1  -4   1  919.48   39.50
  -1  -4  -1  947.17   36.48
  -1  -4  -1  967.73   35.66
  -1  -4  -1  868.67   34.62
  -1  -4  -1  970.01   37.15
   1   4   1  924.76   35.74
   1   4   1  949.74   36.38
   1   4   1  965.37   36.98
   1   4   1  966.92   34.68
   1   4   1  912.98   35.52
  -1   4  -1  872.21   34.62
  -1   4  -1  896.52   38.24
  -1   4  -1  854.46   34.61
  -1   4  -1  914.76   39.46
   2  -4   1  746.50   27.81
   2  -4   1  749.67   32.58
   2  -4   1  727.24   34.02
  -2  -4  -1  720.79   27.90
   2  -4   1  691.37   27.80
   2  -4   1  715.08   30.38
   2  -4   1  784.64   27.83
   2  -4   1  732.88   31.03
   2   4   1  748.00   27.87
  -2   4  -1  744.16   27.91
  -2   4  -1  732.92   32.66
  -2   4  -1  727.95   31.10
   2   4   1  713.54   27.79
  -2   4  -1  742.11   27.82
  -2   4  -1  740.34   34.13
  -2   4  -1  719.38   30.50
   2   4   1  731.40   27.86
   3  -4   1  236.03   17.48
   3  -4   1  255.61    9.61
  -3  -4  -1  255.66    9.77
   3  -4   1  247.78   12.94
   3  -4   1  243.22   15.41
   3  -4   1  244.51   13.69
  -3   4  -1  238.11    9.85
  -3   4  -1  239.81   15.42
   3   4   1  261.26    9.67
  -3   4  -1  235.51   17.23
  -3   4  -1  248.00   13.75
  -3   4  -1  248.99   13.05
  -3   4  -1  261.31    9.61
   3   4   1  262.94    9.71
   4  -4   1  168.65   17.52
  -4  -4  -1  187.96    7.20
   4  -4   1  151.31   10.95
   4  -4   1  171.51   12.14
   4  -4   1  165.63   14.47
   4  -4   1  185.83    7.00
  -4   4  -1  169.18   12.63
   4   4   1  188.48    7.06
  -4   4  -1  186.71    7.18
  -4   4  -1  162.84   11.43
   4   4   1  194.02    7.07
  -4   4  -1  159.79   15.23
  -4   4  -1  190.63    6.98
  -4   4  -1  153.37   17.78
   5  -4   1  113.52    4.70
  -5  -4  -1  117.75    4.93
  -5   4  -1  113.33    4.91
   5   4   1  115.69    4.71
  -5  -5   1   23.63    2.04
  -5   5   1   23.18    1.44
  -5   5   1   23.00    1.74
   5   5  -1   25.40    1.37
  -4  -5   1   49.48    2.54
   4  -5  -1   29.23    6.64
   4  -5  -1   50.59    8.27
   4  -5  -1   47.67   12.04
  -4   5   1   50.68    2.13
   4   5  -1   53.01    2.14
  -4   5   1   35.69    9.01
  -4   5   1   45.74    2.36
  -4   5   1   44.22    7.96
  -4   5   1   54.02   13.31
  -4   5   1   46.09   12.29
   3  -5  -1  329.73   16.86
   3  -5  -1  372.60   13.21
   3  -5  -1  317.07   19.52
   3  -5  -1  326.23   13.24
   3  -5  -1  330.84   17.68
   3  -5  -1  312.53   21.80
  -3   5   1  338.58   17.76
  -3   5   1  348.23   19.97
   3   5  -1  352.27   14.01
  -3   5   1  333.11   13.35
   3   5  -1  344.31   14.83
   3   5  -1  343.26   14.21
  -3   5   1  331.44   21.98
   3   5  -1  359.59   15.67
   3   5  -1  350.10   14.01
  -3   5   1  346.85   17.04
   3   5  -1  354.97   14.26
   3   5  -1  356.14   14.88
   3   5  -1  344.73   13.19
   3   5  -1  351.29   15.57
   3   5  -1  354.35   13.24
   2  -5  -1  186.02   13.13
   2  -5  -1  149.48    8.71
   2  -5  -1  154.14    5.79
   2  -5  -1  141.86    5.82
   2  -5  -1  147.40   12.43
   2  -5  -1  147.51    9.23
  -2   5   1  134.23   10.49
  -2   5   1  144.08    5.89
   2   5  -1  150.26    7.54
   2   5  -1  157.48    7.24
   2   5  -1  145.48    5.78
  -2   5   1  144.85    9.20
   2   5  -1  155.15    8.39
   2   5  -1  161.10    9.45
   2   5  -1  147.02    5.82
  -2   5   1  144.56    5.78
  -2   5   1  143.49   12.02
  -1  -5   1  309.40   15.37
  -1  -5   1  334.74   12.24
   1  -5  -1  296.86   12.18
  -1  -5   1  316.02   13.99
   1  -5  -1  329.00   12.21
   1  -5  -1  298.89   12.16
  -1  -5   1  319.55   16.46
  -1  -5   1  327.91   14.48
   1  -5  -1  338.25   12.36
  -1  -5   1  299.25   12.13
  -1   5   1  309.07   12.16
  -1   5   1  367.63   16.16
   1   5  -1  289.11   12.17
   1   5  -1  317.37   15.04
  -1   5   1  387.77   19.68
  -1   5   1  293.85   15.93
   1   5  -1  309.20   12.15
  -1   5   1  366.19   15.44
   1   5  -1  323.32   16.09
  -1   5   1  308.79   12.23
   1   5  -1  325.69   14.19
   1   5  -1  325.65   13.81
  -1   5   1  295.55   12.13
   0  -5   1  744.84   32.06
   0  -5  -1  848.32   36.59
   0  -5   1  887.19   34.24
   0  -5  -1  869.79   34.06
   0  -5   1  821.71   32.07
   0  -5   1  841.99   32.14
   0  -5  -1  790.63   32.08
   0  -5   1  872.85   34.62
   0  -5  -1  894.14   32.12
   0  -5  -1  855.75   35.58
   0  -5  -1  870.54   34.49
   0  -5  -1  800.48   32.07
   0   5  -1  840.91   35.55
   0   5  -1  842.59   36.66
   0   5  -1  846.72   34.45
   0   5  -1  803.84   32.07
   0   5   1  866.60   34.39
   0   5  -1  844.50   32.08
   0   5  -1  846.04   34.05
   0   5   1  884.98   32.13
   0   5   1  873.47   36.45
   0   5   1  897.87   35.62
   1  -5   1    3.25    2.76
   1  -5   1    2.87    0.30
   1  -5   1    6.52    4.45
  -1  -5  -1    0.76    1.36
  -1  -5  -1    2.87    0.33
  -1  -5  -1    1.53    2.46
  -1  -5  -1    2.92    1.23
   1  -5   1    3.92    0.64
  -1  -5  -1    3.45    0.34
  -1  -5  -1    2.34    1.78
   1  -5   1    2.69    0.43
   1  -5   1    8.29    2.64
   1  -5   1    0.65    2.66
   1  -5   1    2.31    0.36
  -1   5  -1    2.67    0.43
  -1   5  -1    6.03    3.66
  -1   5  -1    4.11    2.03
   1   5   1    4.03    1.30
   1   5   1    2.95    0.32
   1   5   1    2.61    1.45
   1   5   1    3.08    0.30
   1   5   1    3.15    0.49
   1   5   1    2.76    1.91
  -1   5  -1    3.10    0.35
  -1   5  -1    2.98    3.11
  -1   5  -1    5.74    2.90
   1   5   1    1.41    2.54
   2  -5   1  284.34   17.90
   2  -5   1  286.62   16.04
   2  -5   1  277.14   10.73
   2  -5   1  285.33   10.76
   2  -5   1  279.34   14.39
  -2  -5  -1  286.52   10.82
   2  -5   1  278.33   13.69
   2   5   1  267.62   10.80
  -2   5  -1  277.03   14.40
  -2   5  -1  280.75   10.83
  -2   5  -1  285.95   16.08
  -2   5  -1  280.32   13.82
   2   5   1  278.73   10.79
  -2   5  -1  296.55   17.75
   3  -5   1  203.20   11.80
  -3  -5  -1  211.88    8.22
   3  -5   1  213.66    8.10
   3  -5   1  203.41   12.67
   3  -5   1  194.59   14.57
   3  -5   1  218.29   17.24
   3  -5   1  215.78    8.11
  -3   5  -1  183.88   16.39
  -3   5  -1  209.75    8.24
  -3   5  -1  201.90   12.72
  -3   5  -1  214.43   12.04
   3   5   1  222.90    8.19
   3   5   1  214.90    8.16
  -3   5  -1  196.79   14.51
  -3   5  -1  213.85    8.11
   4  -5   1   19.66    8.97
   4  -5   1   31.53    8.30
   4  -5   1   19.46    1.25
   4  -5   1   31.17   12.03
  -4  -5  -1   18.75    1.44
  -4  -5  -1   21.66    1.45
   4  -5   1   20.75    5.84
  -4   5  -1   20.36    1.35
   4   5   1   22.13    1.21
  -4   5  -1   36.66    8.80
  -4   5  -1   20.38    8.21
   4   5   1   22.78    1.18
  -4   5  -1   24.10    6.01
  -4   5  -1   23.08   10.48
   5  -5   1  118.55    4.80
  -5  -5  -1  119.41    5.09
  -5  -5  -1  111.58    5.00
  -5   5  -1  112.67    4.99
   5   5   1  121.47    4.80
  -5  -6   1   52.72    2.97
  -5   6   1   50.47    2.35
   5   6  -1   50.55    2.30
  -5   6   1   44.64    2.59
   4  -6  -1   41.57   10.47
   4  -6  -1   61.17    8.28
   4  -6  -1   57.32    9.72
  -4   6   1   36.05   12.86
   4   6  -1   68.11    2.75
  -4   6   1   67.70    2.74
  -4   6   1   79.53   14.80
  -4   6   1   62.39    9.30
  -4   6   1   65.35    2.97
  -4   6   1   51.31   10.61
   3  -6  -1    3.80    0.57
   3  -6  -1    3.90    6.12
   3  -6  -1    8.45    4.24
   3  -6  -1    6.01    8.93
   3  -6  -1    6.20    0.66
   3  -6  -1    4.65    4.67
   3   6  -1    4.01    0.53
   3   6  -1    4.29    2.09
  -3   6   1    4.74    0.71
   3   6  -1    4.91    0.52
   3   6  -1    6.91    1.86
   3   6  -1    4.59    1.86
  -3   6   1    4.20    3.60
   3   6  -1    5.18    3.02
  -3   6   1    4.62    6.84
  -3   6   1    4.97    5.92
   3   6  -1    3.91    4.05
  -3   6   1    4.44    0.61
  -3   6   1    2.57    4.40
   3   6  -1    1.62    3.73
   3   6  -1    7.95    2.99
   3   6  -1    5.66    2.26
  -2  -6   1  261.83   11.95
   2  -6  -1  242.05   15.48
  -2  -6   1  264.49   12.53
  -2  -6   1  260.32   13.76
  -2  -6   1  269.42   15.16
   2  -6  -1  248.29   13.09
   2  -6  -1  255.66   13.88
   2  -6  -1  241.83   17.40
   2  -6  -1  257.73    9.73
   2  -6  -1  245.56    9.76
  -2   6   1  243.83    9.85
   2   6  -1  265.27   11.81
  -2   6   1  237.71    9.65
   2   6  -1  257.88   12.74
   2   6  -1  269.86   11.44
   2   6  -1  260.53   13.87
  -2   6   1  254.89    9.72
  -2   6   1  250.78   13.67
   2   6  -1  244.33    9.77
  -2   6   1  250.62   15.43
  -2   6   1  249.27   12.96
   2   6  -1  243.37    9.72
   1  -6  -1    2.26    0.33
  -1  -6   1   -3.03    3.52
   1  -6  -1    4.70    4.50
  -1  -6   1    1.96    0.33
  -1  -6   1    4.03    2.30
   1  -6  -1    4.10    3.67
  -1  -6   1    4.12    2.90
   1  -6  -1   -2.00    2.57
  -1  -6   1    2.56    1.69
   1  -6  -1    3.48    5.91
   1  -6  -1    1.96    0.28
  -1   6   1    7.33    4.10
   1   6  -1    1.69    0.27
  -1   6   1    1.96    0.39
   1   6  -1    0.80    1.55
   1   6  -1    2.01    0.33
   1   6  -1    0.69    1.27
  -1   6   1   11.80    4.87
   1   6  -1   -1.60    2.82
  -1   6   1    6.70    2.93
   1   6  -1    1.36    2.20
  -1   6   1    4.85    1.84
  -1   6   1    1.82    0.24
  -1   6   1    2.19    0.34
   1   6  -1    1.66    0.30
   0  -6   1    2.31    0.26
   0  -6   1    2.13    0.33
   0  -6  -1    1.20    2.67
   0  -6   1    0.44    1.60
   0  -6  -1    2.04    0.42
   0  -6   1    4.26    2.18
   0  -6  -1    1.92    0.31
   0  -6   1    1.25    2.62
   0  -6  -1    1.06    1.58
   0  -6  -1    1.78    0.30
   0  -6   1    2.60    3.52
   0  -6   1    2.04    0.34
   0  -6  -1    0.40    1.11
   0  -6  -1    1.89    1.27
   0   6   1    2.27    0.32
   0   6   1    2.48    0.45
   0   6   1    0.36    2.07
   0   6  -1    2.18    0.31
   0   6   1    1.99    2.54
   0   6   1    2.61    1.76
   0   6  -1    2.68    1.75
   0   6   1    2.16    0.29
   0   6  -1    2.93    0.34
   0   6  -1    4.04    2.22
   0   6  -1    2.10    0.25
   0   6  -1    3.02    3.15
   0   6  -1    2.71    0.45
   0   6  -1    7.71    6.02
   0   6   1    1.63    1.42
  -1  -6  -1  274.77   10.56
   1  -6   1  275.95   15.36
   1  -6   1  277.71   16.93
  -1  -6  -1  269.90   10.62
  -1  -6  -1  279.26   12.35
   1  -6   1  276.97   10.63
  -1  -6  -1  281.48   10.64
  -1  -6  -1  281.68   14.75
   1  -6   1  249.52   10.53
  -1  -6  -1  273.21   13.65
   1  -6   1  275.37   10.63
  -1  -6  -1  282.55   12.74
   1   6   1  255.31   10.62
  -1   6  -1  329.62   15.31
   1   6   1  276.69   10.64
  -1   6  -1  270.58   13.29
   1   6   1  299.00   13.75
   1   6   1  285.66   10.72
  -1   6  -1  259.24   10.65
   1   6   1  292.86   12.32
   1   6   1  279.82   14.44
  -1   6  -1  260.70   10.53
   1   6   1  289.48   12.68
  -1   6  -1  266.12   16.51
  -1   6  -1  304.60   16.87
  -2  -6  -1   54.36    4.61
   2  -6   1   48.67   10.08
   2  -6   1   51.94    5.38
  -2  -6  -1   49.60    3.69
   2  -6   1   49.19    6.03
  -2  -6  -1   47.90    2.07
   2  -6   1   50.00    2.06
  -2  -6  -1   49.37    3.35
  -2  -6  -1   56.93    5.75
   2  -6   1   48.67    7.94
   2   6   1   53.21    4.94
  -2   6  -1   41.37    5.14
  -2   6  -1   45.06    7.32
   2   6   1   48.09    3.98
   2   6   1   45.66    2.07
  -2   6  -1   45.52    5.96
  -2   6  -1   46.15    2.10
  -2   6  -1   53.89    9.40
   2   6   1   52.45    3.06
   2   6   1   51.92    3.33
   3  -6   1   25.88    8.70
  -3  -6  -1   27.38    1.39
   3  -6   1   17.42    6.55
   3  -6   1   33.74    5.74
   3  -6   1   27.54    1.32
   3  -6   1   21.47    5.66
   3  -6   1   26.99    1.29
  -3   6  -1   13.74    6.04
  -3   6  -1   27.39    1.41
  -3   6  -1   24.68    5.70
  -3   6  -1   28.09    7.81
   3   6   1   25.81    1.32
   3   6   1   28.33    1.31
  -3   6  -1   25.71    5.61
  -4  -6  -1  240.20    9.61
   4  -6   1  230.63   16.50
   4  -6   1  233.52   24.22
   4  -6   1  232.90    9.35
  -4  -6  -1  242.31    9.49
   4  -6   1  215.51   19.68
   4  -6   1  263.54   16.66
  -4   6  -1  242.74    9.54
   4   6   1  244.00    9.42
  -4   6  -1  245.09   20.36
   4   6   1  250.63    9.47
   5  -6   1    7.26    0.90
  -5  -6  -1    5.82    1.10
  -5  -6  -1    6.00    1.00
  -5   6  -1    7.06    1.30
   5   6   1    5.15    0.98
  -5  -7   1    5.21    1.19
   5   7  -1    3.07    0.65
  -5   7   1    3.94    0.69
  -5   7   1    3.46    0.91
   4  -7  -1   13.14   11.67
   4  -7  -1  -15.44   16.37
   4  -7  -1    0.03    0.46
   4  -7  -1   -3.65    7.03
   4  -7  -1    4.14    6.30
  -4   7   1   -0.25    0.42
  -4   7   1   -0.74    0.51
   4   7  -1    0.20    0.38
   3  -7  -1   23.36    6.78
   3  -7  -1   24.17    5.72
   3  -7  -1   24.20   10.05
   3  -7  -1   20.66    1.07
   3  -7  -1   45.72   12.30
   3  -7  -1   17.64    1.06
   3   7  -1   17.18    3.76
  -3   7   1   25.37    8.18
   3   7  -1   18.48    1.03
  -3   7   1   18.17    0.84
  -3   7   1   24.86   10.75
   3   7  -1   18.20    5.36
  -3   7   1   27.12    5.78
   3   7  -1   15.83    3.09
  -3   7   1   25.07    6.50
   3   7  -1   18.47    1.00
  -3   7   1   18.05    1.18
  -3   7   1   17.71    1.04
   3   7  -1   21.84    4.27
   2  -7  -1   41.42    1.74
  -2  -7   1   45.92    6.88
  -2  -7   1   41.83    4.66
   2  -7  -1   41.39    5.39
  -2  -7   1   45.12    8.75
   2  -7  -1   44.85    9.88
   2  -7  -1   38.79    1.76
   2  -7  -1   62.93   13.18
  -2  -7   1   43.18    5.36
   2  -7  -1   38.53    6.22
   2   7  -1   35.76    1.76
  -2   7   1   39.40    1.84
   2   7  -1   42.34    5.66
   2   7  -1   40.23    7.42
   2   7  -1   39.18    1.76
   2   7  -1   40.18    3.90
  -2   7   1   62.69   10.12
  -2   7   1   38.02    9.44
  -2   7   1   39.44    1.62
   2   7  -1   42.53    4.42
  -2   7   1   39.43    5.94
  -2   7   1   38.10    1.72
  -2   7   1   41.82    5.31
  -1  -7   1  175.54   10.11
   1  -7  -1  182.21   10.72
  -1  -7   1  185.00    6.96
   1  -7  -1  178.52   10.02
  -1  -7   1  183.68    6.91
  -1  -7   1  182.67   13.02
   1  -7  -1  177.89   12.19
   1  -7  -1  170.62   13.73
  -1  -7   1  171.24    9.51
  -1  -7   1  176.68   11.54
   1  -7  -1  171.49    6.99
   1  -7  -1  180.76    7.01
   1   7  -1  181.69    9.28
   1   7  -1  173.88    6.97
  -1   7   1  176.19    6.95
   1   7  -1  181.58    6.95
  -1   7   1  226.68   16.23
  -1   7   1  210.14   11.09
  -1   7   1  179.35    6.97
  -1   7   1  213.72   11.98
   1   7  -1  192.65   11.12
   1   7  -1  179.69   12.30
   1   7  -1  169.14    6.99
   1   7  -1  185.15    9.76
  -1   7   1  162.02   11.75
  -1   7   1  177.42    7.05
   0  -7  -1    4.94    0.42
   0  -7  -1    1.14    1.68
   0  -7   1    6.13    5.00
   0  -7  -1    3.97    2.49
   0  -7  -1    7.47    3.90
   0  -7   1    7.03    2.58
   0  -7   1    4.99    0.37
   0  -7   1    7.19    4.78
   0  -7   1    5.20    0.46
   0  -7  -1    4.11    1.58
   0  -7   1    8.77    3.25
   0   7   1    4.74    0.40
   0   7  -1    6.38    4.93
   0   7  -1    5.54    0.51
   0   7  -1    4.82    0.44
   0   7   1    4.29    0.43
   0   7  -1    4.16    2.08
   0   7  -1    5.52    0.38
   0   7  -1    7.08    2.91
   0   7   1    8.76    4.36
   0   7   1    5.05    2.85
   0   7   1    3.45    1.73
   0   7   1    3.06    1.37
   0   7  -1    8.13    4.41
   1  -7   1   28.28    1.29
   1  -7   1   35.39    6.12
   1  -7   1   24.75    1.16
   1  -7   1   27.47    4.10
  -1  -7  -1   32.89    3.90
  -1  -7  -1   26.36    4.73
   1  -7   1   33.27    7.84
  -1  -7  -1   31.29    3.44
  -1  -7  -1   32.30    6.31
  -1  -7  -1   28.20    1.26
   1  -7   1   37.90    8.22
   1  -7   1   26.87    1.25
  -1   7  -1   26.36    5.84
   1   7   1   26.59    1.24
   1   7   1   27.73    1.27
   1   7   1   30.78    3.34
   1   7   1   34.89    6.25
   1   7   1   29.88    3.79
  -1   7  -1   28.57    4.07
  -1   7  -1   34.51    4.86
  -1   7  -1   34.39    8.11
  -1   7  -1   28.19    1.30
   1   7   1   30.45    4.93
  -1   7  -1   26.37    1.15
   2  -7   1   -2.11    2.16
  -2  -7  -1    1.75    0.32
  -2  -7  -1    2.00    2.34
   2  -7   1    1.91    0.40
   2  -7   1    1.60    6.36
  -2  -7  -1    7.48    4.32
   2  -7   1    3.74    5.54
   2  -7   1    4.27    8.54
  -2  -7  -1    4.58    1.99
  -2  -7  -1    0.89    3.10
  -2   7  -1   12.86   10.27
   2   7   1    3.29    3.77
   2   7   1    2.38    0.42
  -2   7  -1    8.59    4.38
   2   7   1    4.18    2.76
   2   7   1    2.59    1.58
   2   7   1    0.70    1.89
   2   7   1    2.00    0.36
  -2   7  -1    1.44    3.43
  -2   7  -1    2.62    0.51
  -2   7  -1    3.55    5.46
   3  -7   1    3.99    6.14
  -3  -7  -1   14.93    0.95
   3  -7   1   11.12    4.25
   3  -7   1    7.73    7.92
   3  -7   1   14.53    0.93
   3  -7   1   13.28    0.91
   3  -7   1    2.58    4.54
   3   7   1   15.00    0.88
  -3   7  -1   16.04    7.17
  -3   7  -1   22.70    5.67
   3   7   1   14.67    0.90
  -3   7  -1   14.47    6.03
  -3   7  -1    4.85    7.91
  -3   7  -1   13.44    0.98
  -4  -7  -1    0.97    0.59
  -4  -7  -1    0.88    0.75
   4  -7   1    0.65    0.60
   4   7   1    1.14    0.45
   4   7   1    0.97    0.45
  -4   7  -1    1.21    0.54
  -5  -7  -1   42.11    2.56
   5  -7   1   37.25    2.12
  -5  -7  -1   39.00    2.17
  -5   7  -1   37.68    2.19
   5   7   1   40.38    2.04
   4  -8  -1    0.41    0.53
   4  -8  -1   -0.05    0.54
  -4   8   1    0.27    0.54
  -4   8   1    0.71    0.46
   4   8  -1    0.62    0.41
   3  -8  -1   36.65    6.92
   3  -8  -1   41.98   11.47
   3  -8  -1   54.69   14.15
   3  -8  -1   45.45    9.67
   3  -8  -1   32.85    1.64
   3  -8  -1   37.18    1.65
  -3   8   1   19.44    7.61
  -3   8   1   26.94    9.05
  -3   8   1   37.75    7.22
   3   8  -1   35.15    7.83
   3   8  -1   32.20    1.61
   3   8  -1   41.63   10.37
  -3   8   1   35.98    8.36
   3   8  -1   33.65    1.58
  -3   8   1   34.99    1.61
  -3   8   1   32.84    1.73
   2  -8  -1   42.83    1.91
   2  -8  -1   45.89    6.22
   2  -8  -1   36.56    7.13
  -2  -8   1   39.76    5.20
   2  -8  -1   83.35   21.12
  -2  -8   1   41.96    1.81
  -2  -8   1   42.92    7.92
   2  -8  -1   42.57    9.43
  -2  -8   1   43.30   10.06
  -2  -8   1   45.35    6.11
   2  -8  -1   44.88    1.90
  -2   8   1   55.12   11.30
  -2   8   1   64.87   11.55
  -2   8   1   45.34    1.78
   2   8  -1   46.56    6.71
   2   8  -1   52.01    8.73
  -2   8   1   42.95    1.87
   2   8  -1   48.99    5.27
   2   8  -1   42.64    1.86
  -2   8   1   39.05    6.51
   2   8  -1   41.69    1.90
  -2   8   1   41.78    1.98
   2   8  -1   44.89    4.59
  -2   8   1   41.09    5.78
  -1  -8   1    6.30    5.90
  -1  -8   1   14.90    3.96
  -1  -8   1    7.04    0.56
  -1  -8   1    7.52    0.44
   1  -8  -1    7.60    0.55
   1  -8  -1   10.10    7.54
   1  -8  -1    6.21    0.61
  -1  -8   1    9.45    4.85
   1  -8  -1   12.79    5.80
   1  -8  -1    1.85    4.45
   1  -8  -1   10.95    4.11
  -1  -8   1    6.73    2.88
   1   8  -1    7.47    0.55
   1   8  -1    6.80    2.27
  -1   8   1    9.32    5.04
  -1   8   1    8.48    0.50
  -1   8   1    7.63    3.38
  -1   8   1    9.74    6.81
   1   8  -1   13.84    5.35
  -1   8   1    7.94    0.62
  -1   8   1   14.15    4.31
   1   8  -1    7.74    0.50
  -1   8   1    7.25    0.60
   1   8  -1    7.06    2.67
   1   8  -1    8.69    0.62
   1   8  -1   10.75    4.07
   0  -8  -1   29.00    1.32
   0  -8   1   33.70    6.58
   0  -8   1   35.07    8.03
   0  -8  -1   28.19    4.59
   0  -8  -1   36.05    6.31
   0  -8   1   31.34    1.30
   0  -8  -1   30.12    1.33
   0  -8   1   29.07    1.34
   0  -8  -1   17.55    5.70
   0  -8   1   34.58    4.39
   0  -8   1   45.30    6.49
   0  -8  -1   28.93    4.00
   0   8   1   28.97    5.96
   0   8   1   28.32    1.34
   0   8  -1   28.40    1.28
   0   8  -1   27.22    6.13
   0   8   1   31.75    7.43
   0   8   1   31.94    4.04
   0   8  -1   27.90    1.35
   0   8  -1   25.12    4.67
   0   8   1   35.12    4.78
   0   8   1   28.83    1.32
   0   8  -1   30.03    7.75
   0   8  -1   33.73    5.41
   1  -8   1   29.13    1.30
   1  -8   1   29.61    4.82
  -1  -8  -1   29.49    1.28
  -1  -8  -1   26.69    4.48
  -1  -8  -1   31.11    3.97
  -1  -8  -1   27.17    5.81
  -1  -8  -1   28.34    7.41
   1  -8   1   26.76    1.21
   1  -8   1   47.87   11.57
   1  -8   1   36.77    8.54
   1  -8   1   43.44   14.46
  -1   8  -1   17.32    4.53
   1   8   1   28.43    1.32
   1   8   1   25.41    4.27
  -1   8  -1   33.96    8.39
   1   8   1   32.24    3.89
   1   8   1   23.97    5.96
  -1   8  -1   46.93    8.84
   1   8   1   30.76    5.72
  -1   8  -1   27.59    1.18
  -2  -8  -1   24.59    3.85
   2  -8   1   18.54    1.04
  -2  -8  -1   27.98    5.59
  -2  -8  -1   20.02    6.47
   2  -8   1   22.48    5.91
  -2  -8  -1   19.76    4.43
   2  -8   1   24.22    5.62
   2  -8   1   22.47   11.95
  -2  -8  -1   19.46    1.01
   2  -8   1   25.02    8.87
  -2   8  -1   19.04    1.07
   2   8   1   18.89    1.03
  -2   8  -1   11.66    9.44
   2   8   1   26.63    6.02
  -2   8  -1   12.53    8.95
   2   8   1   18.80    3.19
  -2   8  -1   27.25    8.95
   2   8   1   20.97    5.12
   2   8   1   22.50    3.84
   2   8   1   17.51    0.99
  -3  -8  -1   49.72    2.16
   3  -8   1   51.51   13.66
   3  -8   1   52.98    8.03
   3  -8   1   57.20   12.42
   3  -8   1   50.32    2.16
   3  -8   1   41.97    9.27
   3  -8   1   48.69    2.12
  -3   8  -1   67.37   15.69
  -3   8  -1   40.14    8.55
   3   8   1   47.96    2.18
   3   8   1   47.63    2.15
  -3   8  -1   47.88    7.44
  -3   8  -1   52.23   11.21
  -3   8  -1   47.57    2.24
   4  -8   1   10.44    1.03
   4  -8   1   12.57    1.10
  -4  -8  -1   12.09    1.20
   4   8   1   11.04    0.98
  -4   8  -1   10.71    1.13
   4   8   1   12.86    1.04
   4  -9  -1   35.47    1.81
   4   9  -1   32.79    1.72
  -4   9   1   34.81    1.98
  -4   9   1   33.54    1.77
   3  -9  -1   10.68    9.15
   3  -9  -1    1.25    0.48
   3  -9  -1    1.88    6.21
   3  -9  -1   -9.54   11.33
   3  -9  -1    1.52    0.43
   3  -9  -1   -3.87    6.83
  -3   9   1    5.20   11.33
   3   9  -1   -0.97    6.63
  -3   9   1    0.78    0.42
   3   9  -1    0.66    0.34
   3   9  -1    0.96    3.44
   3   9  -1    1.23    0.36
  -3   9   1   -3.42    6.80
   3   9  -1    3.06    3.00
  -3   9   1   -4.19    4.39
   3   9  -1    0.03    4.62
  -3   9   1    5.78   11.16
  -3   9   1    0.86    0.38
   2  -9  -1   10.56    8.65
  -2  -9   1    7.46    7.54
   2  -9  -1   -0.52    2.66
   2  -9  -1    0.36    0.27
  -2  -9   1   -0.83    3.94
   2  -9  -1    0.07    0.31
  -2  -9   1   -0.32    5.40
   2  -9  -1   -4.38    3.40
   2  -9  -1    4.59    5.52
  -2  -9   1    0.31    0.32
  -2  -9   1    2.61    3.38
  -2   9   1   -7.47    7.13
   2   9  -1   -0.19    0.25
   2   9  -1   -0.15    0.24
  -2   9   1   -0.06    4.28
   2   9  -1   -4.81    4.08
  -2   9   1   -5.61    5.52
  -2   9   1    2.64    7.71
  -2   9   1    0.25    0.28
  -2   9   1    0.14    0.22
   2   9  -1    0.39    2.59
   2   9  -1   -1.91    2.94
  -2   9   1    0.64    0.35
   2   9  -1   -0.38    6.02
  -1  -9   1   10.45    0.56
  -1  -9   1    8.95    3.33
  -1  -9   1   15.34    5.62
   1  -9  -1    8.20   13.79
  -1  -9   1    8.94    6.92
   1  -9  -1    7.82    2.93
  -1  -9   1    7.97    3.91
   1  -9  -1    9.38    0.73
   1  -9  -1   10.65    4.50
   1  -9  -1    2.08    2.95
   1  -9  -1   10.78    0.70
  -1  -9   1   10.30    0.72
   1   9  -1   14.49    3.87
   1   9  -1    5.31    2.62
  -1   9   1    6.89    6.81
  -1   9   1   16.91    5.48
   1   9  -1    9.72    0.81
  -1   9   1   15.42    4.07
  -1   9   1   10.18    0.75
   1   9  -1    9.30    0.65
   1   9  -1   18.13    6.66
   1   9  -1    9.37    4.61
  -1   9   1   10.73    0.60
  -1   9   1   13.67    7.87
   0  -9   1    4.86    3.43
   0  -9  -1    2.35    4.12
   0  -9   1    4.45    5.80
   0  -9  -1    0.13    0.22
   0  -9  -1    0.34    0.28
   0  -9  -1   -0.58    2.18
   0  -9   1    0.44    0.22
   0  -9  -1    2.56    3.03
   0  -9  -1   -0.16    5.95
   0  -9   1   -2.41    4.19
   0  -9   1    0.59    2.54
   0  -9   1    0.19    0.26
   0   9   1   -0.67    2.40
   0   9  -1    1.23    2.23
   0   9   1    0.35    0.23
   0   9   1   -0.34    3.19
   0   9  -1    0.07    0.22
   0   9  -1    0.53    0.22
   0   9   1   -0.77    2.04
   0   9  -1    3.58    3.04
   0   9   1    3.87    4.75
   0   9   1    0.22    0.24
   0   9  -1   -2.54    5.58
   0   9  -1   -0.79    3.96
  -1  -9  -1    9.70    4.91
   1  -9   1    5.09    0.48
  -1  -9  -1    4.78    3.50
  -1  -9  -1    6.79    0.54
  -1  -9  -1    5.11    0.52
   1  -9   1    4.58    0.64
  -1  -9  -1    7.23    3.02
   1  -9   1    3.84    5.84
   1  -9   1    5.21    0.62
   1  -9   1   10.44    5.65
   1  -9   1    6.49    8.31
  -1  -9  -1    1.41    6.57
   1  -9   1   11.38    4.80
  -1   9  -1    4.86    9.82
   1   9   1    8.29    3.02
  -1   9  -1   -0.18    2.25
   1   9   1    4.92    0.56
   1   9   1    4.91    0.50
  -1   9  -1   10.87    7.47
   1   9   1    4.49    5.50
  -1   9  -1    5.26    0.39
  -1   9  -1    6.35    6.11
  -1   9  -1    5.36    0.56
   1   9   1    8.60    3.59
   1   9   1    8.48    4.60
   2  -9   1   24.59    7.50
  -2  -9  -1   41.28    8.01
  -2  -9  -1   47.36    5.93
   2  -9   1   41.63    1.91
  -2  -9  -1   48.79    5.22
  -2  -9  -1   64.51   10.52
   2  -9   1   25.58    8.76
  -2  -9  -1   45.14    1.87
   2  -9   1   54.59    8.55
   2  -9   1   38.60    6.75
  -2   9  -1   38.11   10.24
  -2   9  -1   30.69    8.81
  -2   9  -1   40.89    1.95
   2   9   1   48.84    5.32
   2   9   1   46.88    4.60
  -2   9  -1   47.58    6.86
   2   9   1   34.92    8.64
   2   9   1   42.35    1.92
  -2   9  -1   41.49    7.96
   2   9   1   41.85    1.89
   2   9   1   40.02    6.77
   3  -9   1    3.63    9.07
   3  -9   1   14.46    7.71
   3  -9   1   21.51    6.93
   3  -9   1   11.52    0.97
   3  -9   1   17.63   13.79
   3  -9   1   10.20    0.95
  -3  -9  -1   13.20    0.92
  -3   9  -1   11.27    0.96
  -3   9  -1   13.37    8.51
   3   9   1   12.12    0.89
  -3   9  -1    6.76    6.07
   3   9   1   13.10    0.91
  -3   9  -1   13.01   13.27
  -3   9  -1    8.43    4.76
   4  -9   1   27.62    1.57
  -4  -9  -1   26.91    1.56
   4  -9   1   26.76    1.64
   4   9   1   28.43    1.57
  -4   9  -1   26.61    1.68
   4   9   1   26.29    1.54
   4 -10  -1   15.51    1.32
   4 -10  -1   16.29    1.31
  -4  10   1   15.59    1.37
   4  10  -1   15.88    1.14
  -4  10   1   13.86    1.25
   3 -10  -1    8.76   10.49
   3 -10  -1    0.09    0.46
   3 -10  -1    3.87    7.27
   3 -10  -1   18.89   15.68
   3 -10  -1   -7.20    7.94
   3 -10  -1    0.18    0.39
  -3  10   1   -8.94    8.37
  -3  10   1   -0.03    0.41
   3  10  -1    2.28    3.68
   3  10  -1   -1.09    7.32
   3  10  -1    0.41    0.38
   3  10  -1    0.97    0.39
  -3  10   1   -3.31    5.98
  -3  10   1   -5.78   11.83
  -3  10   1    0.56    0.40
   3  10  -1    1.80    4.93
   3  10  -1   -1.59    3.02
  -3  10   1   15.42   13.53
  -2 -10   1   38.59    7.81
   2 -10  -1   91.68   27.62
  -2 -10   1   57.47    2.33
  -2 -10   1   60.65   10.76
   2 -10  -1   55.13    2.39
  -2 -10   1   42.23   10.49
   2 -10  -1   56.81    2.41
  -2 -10   1   62.45    7.08
  -2  10   1   54.81    8.99
   2  10  -1   53.69    8.92
  -2  10   1   53.81    2.36
  -2  10   1   54.38    2.47
  -2  10   1   49.68    7.81
   2  10  -1   66.14   11.83
   2  10  -1   54.54    5.99
   2  10  -1   51.27    6.89
   2  10  -1   55.86    2.40
  -2  10   1   43.23   11.42
  -2  10   1   53.06   14.17
   2  10  -1   55.11    2.34
  -2  10   1   54.51    2.23
  -1 -10   1   97.73   13.97
   1 -10  -1   86.21    3.49
   1 -10  -1   87.64    3.50
  -1 -10   1   87.51    3.39
  -1 -10   1   90.48    8.04
  -1 -10   1   87.05    8.95
   1 -10  -1   87.75    7.95
   1 -10  -1   86.01   11.29
   1 -10  -1   95.07    9.17
  -1 -10   1   86.78    3.47
  -1 -10   1   91.14   11.25
   1 -10  -1  128.81   18.88
  -1  10   1   81.43    7.61
  -1  10   1   66.34   10.39
  -1  10   1   82.51    3.42
   1  10  -1   84.86    3.44
   1  10  -1   84.80    9.59
   1  10  -1   93.14    7.96
  -1  10   1   82.47    3.54
   1  10  -1   81.58    3.47
  -1  10   1   84.29    8.62
   1  10  -1   88.07   12.08
   1  10  -1   85.24    7.09
  -1  10   1   82.05   12.74
   0 -10  -1   10.36    0.70
   0 -10   1   17.25    4.91
   0 -10   1   10.62    3.80
   0 -10   1    9.60    5.95
   0 -10   1   23.73    9.19
   0 -10  -1   11.31    4.19
   0 -10   1    8.62    0.75
   0 -10  -1   10.72    0.78
   0 -10  -1    9.96    3.74
   0 -10  -1    6.85    5.18
   0 -10  -1    3.68    6.86
   0 -10   1   11.42    0.67
   0  10   1    6.36    6.57
   0  10  -1   -2.83    4.94
   0  10   1    9.42    5.92
   0  10   1    9.00    0.95
   0  10   1   15.91    4.56
   0  10   1   22.15    5.54
   0  10  -1   14.31    3.98
   0  10  -1    9.22    0.64
   0  10  -1    6.22    4.68
   0  10  -1    9.02    4.07
   0  10  -1   10.73    0.72
   0  10   1    9.66    0.73
  -1 -10  -1  206.89   17.44
  -1 -10  -1  226.51   12.25
  -1 -10  -1  218.31    8.45
   1 -10   1  221.50    8.48
   1 -10   1  215.16    8.49
  -1 -10  -1  212.59    8.42
  -1 -10  -1  232.85   15.33
   1 -10   1  208.96   12.94
  -1 -10  -1  225.87   13.15
   1  10   1  230.97   12.73
   1  10   1  210.11    8.47
   1  10   1  224.56   14.62
  -1  10  -1  210.33   18.48
  -1  10  -1  204.80   12.83
   1  10   1  232.72   11.97
  -1  10  -1  223.68    8.38
  -1  10  -1  216.73    8.54
   1  10   1  235.94   16.71
  -1  10  -1  197.63   13.64
   1  10   1  213.10    8.50
  -2 -10  -1    0.29    3.56
   2 -10   1    4.25    7.25
  -2 -10  -1    2.33    8.19
   2 -10   1    9.25   10.69
   2 -10   1    6.29    4.80
   2 -10   1   -8.83   14.13
   2 -10   1    1.87    0.45
  -2 -10  -1    5.85    6.43
  -2 -10  -1    4.45    4.35
  -2 -10  -1    2.51    0.39
  -2 -10  -1    2.85    0.53
  -2  10  -1    4.31    3.65
   2  10   1    6.62    4.91
  -2  10  -1  -12.40    6.30
  -2  10  -1    1.26    4.71
   2  10   1    0.82    6.82
  -2  10  -1  -14.80   11.57
   2  10   1    0.48    3.58
   2  10   1    2.32    0.41
  -2  10  -1    3.26    0.63
   2  10   1    2.64    0.55
   2  10   1    1.52    3.01
  -3 -10  -1   20.76    1.18
   3 -10   1   15.24   13.86
   3 -10   1   12.50    5.45
   3 -10   1    8.86   12.33
   3 -10   1   36.59   19.97
   3 -10   1   21.60    1.30
   3  10   1   20.54    1.20
   3  10   1   20.54    1.23
  -3  10  -1   18.94    1.26
  -3  10  -1   21.70    7.43
  -3  10  -1   -0.45    7.94
  -3  10  -1    0.08    8.89
  -3  10  -1   23.49    6.67
   4 -10   1   39.90    2.07
   4 -10   1   41.71    2.16
  -4 -10  -1   42.36    2.06
   4  10   1   41.25    2.07
  -4  10  -1   40.83    2.19
   4  10   1   41.04    2.13
   4 -11  -1   27.67    1.76
   4 -11  -1   30.58    1.83
  -4  11   1   28.73    1.90
   4  11  -1   31.78    1.68
   3 -11  -1  341.13   23.76
  -3 -11   1  292.35   10.91
  -3 -11   1  268.68   17.99
   3 -11  -1  290.93   30.73
  -3 -11   1  266.86   16.38
   3 -11  -1  282.71   11.00
  -3 -11   1  253.71   21.47
   3 -11  -1  293.33   24.60
   3 -11  -1  290.80   11.07
   3  11  -1  278.83   14.09
  -3  11   1  230.82   23.62
   3  11  -1  274.63   11.04
  -3  11   1  330.20   29.68
  -3  11   1  283.84   11.14
   3  11  -1  284.23   14.99
   3  11  -1  270.31   20.10
   3  11  -1  285.94   10.99
   3  11  -1  286.68   17.11
  -2 -11   1   19.34    5.45
   2 -11  -1   11.66    0.98
   2 -11  -1   12.82    0.92
  -2 -11   1   13.33    6.38
  -2 -11   1   10.97   10.91
   2 -11  -1   23.30    8.43
   2 -11  -1   37.72   18.33
   2 -11  -1   21.91    7.05
  -2 -11   1    2.98    7.86
   2 -11  -1   30.46   12.67
   2  11  -1   10.81    4.97
   2  11  -1   26.71    7.82
  -2  11   1   13.66    6.82
   2  11  -1   12.29    0.90
   2  11  -1   20.41    9.44
  -2  11   1   13.44    1.00
  -2  11   1   22.86   14.29
  -2  11   1   12.27    5.59
  -2  11   1   11.79    0.75
  -2  11   1   25.18   12.12
   2  11  -1   13.21    0.84
   2  11  -1   10.23    4.04
  -1 -11   1   74.83    3.05
   1 -11  -1   74.43    3.06
   1 -11  -1   87.16   14.71
  -1 -11   1   78.18    9.57
   1 -11  -1   69.54    3.04
   1 -11  -1   91.80   11.44
   1 -11  -1   75.42   16.30
  -1 -11   1   74.67    2.94
  -1 -11   1   90.44   15.61
   1 -11  -1   63.61    7.93
  -1 -11   1   90.64   12.65
  -1 -11   1   77.14    8.35
  -1  11   1   76.82   11.69
  -1  11   1   67.64    7.84
   1  11  -1   57.83   13.41
   1  11  -1   74.10    3.00
  -1  11   1   72.70    2.98
   1  11  -1   63.12   10.32
  -1  11   1   73.12    3.11
  -1  11   1   77.10   14.42
  -1  11   1   73.38    9.03
   1  11  -1   69.91    7.24
   1  11  -1   70.91    3.03
   1  11  -1   71.34    8.24
   0 -11  -1  334.84   12.58
   0 -11   1  321.80   21.23
   0 -11   1  322.55   24.31
   0 -11  -1  369.32   23.97
   0 -11  -1  322.79   20.40
   0 -11  -1  334.23   18.10
   0 -11  -1  325.92   12.56
   0 -11   1  323.17   12.58
   0 -11   1  324.14   18.44
   0 -11   1  318.38   17.39
   0 -11  -1  333.97   17.08
   0  11  -1  330.12   18.14
   0  11  -1  333.87   20.62
   0  11   1  335.27   18.11
   0  11  -1  296.06   22.42
   0  11  -1  316.71   17.05
   0  11   1  315.61   16.86
   0  11   1  322.96   12.62
   0  11  -1  318.35   12.63
   0  11   1  316.59   20.41
   0  11   1  346.64   23.13
   0  11   1  332.46   12.58
   1 -11   1   43.51    8.48
   1 -11   1   52.19   13.58
   1 -11   1   34.15    6.97
  -1 -11  -1   23.02    9.77
  -1 -11  -1   29.14    6.19
  -1 -11  -1   30.98    1.43
   1 -11   1   52.57   17.17
  -1 -11  -1   30.91    1.51
  -1 -11  -1   32.41    7.57
   1 -11   1   31.33    1.53
   1 -11   1   30.12    1.45
  -1 -11  -1   21.84    7.24
   1  11   1   30.83    1.46
   1  11   1   30.22    8.58
  -1  11  -1   15.61    5.03
  -1  11  -1    9.12    7.45
  -1  11  -1   30.09    1.50
   1  11   1   42.85   11.46
   1  11   1   30.50    1.43
   1  11   1   23.41    5.34
  -1  11  -1   15.38    6.02
  -1  11  -1   31.23    1.34
  -1  11  -1   32.26    6.60
   2 -11   1  115.07   12.92
  -2 -11  -1  141.62    5.60
  -2 -11  -1  147.79   17.34
   2 -11   1  128.13   11.65
   2 -11   1  194.67   25.33
  -2 -11  -1  142.85   11.16
  -2 -11  -1  140.13   13.98
  -2 -11  -1  147.68   10.22
   2 -11   1  231.65   34.42
   2 -11   1  143.36    5.72
   2  11   1  141.12    5.74
   2  11   1  123.40   15.19
  -2  11  -1  156.75   15.39
   2  11   1  148.33    9.35
  -2  11  -1  202.38   26.41
  -2  11  -1  171.75   13.87
   2  11   1  142.91   10.28
   2  11   1  139.41    5.70
   2  11   1  132.89   12.45
  -2  11  -1  150.24   16.16
  -2  11  -1  137.17    5.77
  -3 -11  -1  160.56   10.44
   3 -11   1  215.74   36.00
   3 -11   1  196.22    7.42
  -3 -11  -1  164.06   17.23
  -3 -11  -1  155.90   11.62
   3 -11   1  182.39   16.98
   3 -11   1  190.24   15.31
   3 -11   1  194.54   21.29
  -3 -11  -1  201.15    7.34
  -3 -11  -1  165.55   14.01
  -3  11  -1  234.59   25.10
   3  11   1  193.65    9.98
  -3  11  -1  195.10    7.51
   3  11   1  199.74    7.45
  -3  11  -1  188.34   14.81
   3  11   1  191.61    9.29
  -3  11  -1  184.04   25.00
   3  11   1  194.59    7.48
   3  11   1  175.44   11.35
   3  11   1  163.26   13.52
  -3  11  -1  176.03   16.45
   4 -11   1    1.15    0.80
  -4 -11  -1    2.34    0.89
   4 -11   1    1.38    0.74
  -4  11  -1    1.86    0.69
   4  11   1    2.23    0.69
   4  11   1    2.47    0.65
   3 -12  -1    0.28    0.55
   3 -12  -1  -17.65   12.94
   3 -12  -1    6.09   11.61
   3 -12  -1    3.52   18.53
   3 -12  -1    2.18    9.62
  -3 -12   1    1.87    0.72
   3 -12  -1    0.28    0.49
  -3  12   1  -17.85   10.37
   3  12  -1    1.24    0.46
  -3  12   1    0.69    0.55
  -3  12   1    4.29    7.33
  -3  12   1  -10.98   35.06
  -3  12   1   -8.88    8.05
   3  12  -1    0.08    0.44
  -2 -12   1  290.99   19.08
  -2 -12   1  274.04   25.99
  -2 -12   1  273.65   17.42
  -2 -12   1  342.00   12.14
   2 -12  -1  306.82   18.77
  -2 -12   1  292.40   22.55
   2 -12  -1  323.59   12.23
   2 -12  -1  298.00   29.33
   2 -12  -1  313.78   12.19
   2 -12  -1  291.15   24.12
   2 -12  -1  306.23   20.35
  -2  12   1  327.52   12.05
  -2  12   1  279.96   27.66
   2  12  -1  325.51   12.23
   2  12  -1  335.05   16.69
  -2  12   1  298.20   18.52
   2  12  -1  315.96   23.70
  -2  12   1  323.63   12.30
   2  12  -1  311.89   20.32
   2  12  -1  326.23   12.16
   2  12  -1  335.18   17.88
  -1 -12   1  265.21   17.38
   1 -12  -1  233.41   20.29
  -1 -12   1  305.44   24.84
  -1 -12   1  279.09   10.29
  -1 -12   1  269.41   10.37
  -1 -12   1  296.20   21.17
   1 -12  -1  241.86   15.81
   1 -12  -1  229.06   16.95
   1 -12  -1  207.04   23.88
   1 -12  -1  261.85   10.39
  -1 -12   1  294.19   16.50
   1 -12  -1  275.39   10.41
  -1  12   1  243.68   22.57
   1  12  -1  265.13   10.39
  -1  12   1  280.57   17.48
   1  12  -1  260.57   16.24
   1  12  -1  276.20   19.21
  -1  12   1  259.73   10.32
  -1  12   1  273.09   16.06
  -1  12   1  322.41   24.24
   1  12  -1  267.77   15.26
  -1  12   1  270.79   10.47
   1  12  -1  265.42   10.34
   1  12  -1  284.47   22.45
   0 -12   1   76.71   17.81
   0 -12  -1   63.78   15.93
   0 -12  -1   60.79   11.92
   0 -12   1   76.77   13.88
   0 -12  -1   69.77    2.96
   0 -12   1   78.05   10.51
   0 -12  -1   73.46    2.98
   0 -12   1   78.89    9.29
   0 -12   1   69.03    2.99
   0 -12   1   71.99    2.92
   0 -12  -1   69.37    8.21
   0 -12  -1   72.40    9.33
   0  12   1   75.85    8.13
   0  12  -1   70.51    2.93
   0  12   1   68.76    2.95
   0  12   1   68.67    9.18
   0  12   1   71.15    3.02
   0  12  -1   75.81    9.53
   0  12   1   62.68   11.80
   0  12  -1   65.90    8.06
   0  12  -1   70.99    3.04
   0  12  -1   72.11   15.24
   0  12  -1   67.59   12.21
   1 -12   1  145.02    5.62
   1 -12   1  135.96   11.94
  -1 -12  -1  117.88   18.68
   1 -12   1  155.41   21.92
  -1 -12  -1  140.05    5.57
   1 -12   1  131.65   16.86
  -1 -12  -1  146.89   10.97
  -1 -12  -1  139.95   15.31
  -1 -12  -1  130.56   12.19
  -1 -12  -1  137.03    5.57
   1 -12   1  152.00   13.73
   1 -12   1  140.69    5.66
  -1  12  -1  199.77   31.70
  -1  12  -1  145.01    5.52
  -1  12  -1  129.53   12.59
   1  12   1  151.42   10.35
   1  12   1  138.82    5.63
   1  12   1  157.58   14.11
  -1  12  -1  142.82    5.69
   1  12   1  138.26    5.61
  -1  12  -1  132.26   15.67
   1  12   1  167.30   17.32
  -1  12  -1  132.95   11.27
   1  12   1  129.16   11.05
   2 -12   1  351.68   36.10
   2 -12   1  300.60   22.66
  -2 -12  -1  233.82   14.54
  -2 -12  -1  226.49   18.79
  -2 -12  -1  252.90    9.69
  -2 -12  -1  222.82   15.67
  -2 -12  -1  252.19    9.65
   2 -12   1  249.36    9.74
   2 -12   1  236.53   16.52
  -2 -12  -1  233.00   22.72
   2 -12   1  329.93   28.55
   2  12   1  244.10    9.73
   2  12   1  245.45    9.77
  -2  12  -1  298.12   21.77
   2  12   1  256.15   13.91
  -2  12  -1  219.03   15.99
  -2  12  -1  236.61   21.05
   2  12   1  245.59   20.72
   2  12   1  247.61   14.87
  -2  12  -1  249.04    9.81
  -2  12  -1  239.50   25.60
   2  12   1  250.96   17.58
  -3 -12  -1   29.22    7.86
  -3 -12  -1   16.43    6.18
   3 -12   1   19.28   13.15
   3 -12   1   16.52    1.33
   3 -12   1   20.63   18.21
   3 -12   1    2.55   15.64
  -3 -12  -1    5.85    9.82
  -3 -12  -1   17.81    1.15
   3 -12   1   13.93    9.27
  -3 -12  -1   17.79   13.57
   3  12   1    8.72    8.95
  -3  12  -1   24.44    8.46
  -3  12  -1   16.10    1.29
   3  12   1   14.87    1.17
   3  12   1   19.00    4.41
   3  12   1   22.60    7.07
  -3  12  -1   21.04    9.65
   3  12   1   16.82    1.20
   3  12   1   36.09    6.78
  -3  12  -1   20.44   11.74
  -3  12  -1  -13.82   37.38
   3 -13  -1  122.37    5.05
   3 -13  -1  130.64   22.92
   3 -13  -1  177.50   20.35
   3 -13  -1  130.86   23.27
   3 -13  -1  115.14    5.01
   3 -13  -1  137.22   29.66
  -3 -13   1  119.60    4.96
   3  13  -1  122.91    5.03
  -3  13   1  105.10   15.35
   3  13  -1  117.55    4.95
  -3  13   1  165.14   35.14
  -3  13   1  116.99   18.30
  -3  13   1  117.10    5.11
   2 -13  -1   30.52    1.65
  -2 -13   1   32.83    1.69
   2 -13  -1   19.22    7.24
   2 -13  -1    3.78   14.60
   2 -13  -1   18.58   10.90
   2 -13  -1   34.21    1.76
   2 -13  -1   19.22    8.34
  -2  13   1   26.80   10.49
  -2  13   1   37.59    9.55
  -2  13   1   13.84   13.80
   2  13  -1   33.40    1.68
  -2  13   1   33.01    1.77
   2  13  -1   32.13    1.58
  -2  13   1   40.14   17.03
   1 -13  -1   64.41   16.11
  -1 -13   1   66.03    3.25
   1 -13  -1   94.93   10.95
  -1 -13   1  102.64   21.16
  -1 -13   1   92.78   11.09
  -1 -13   1  111.06   17.04
  -1 -13   1   87.48   12.47
   1 -13  -1   61.79   16.54
   1 -13  -1   83.96   12.48
  -1 -13   1   80.89    3.31
   1 -13  -1   78.80    3.33
   1 -13  -1   78.88    3.29
  -1  13   1   75.39    3.20
  -1  13   1   67.52   11.31
  -1  13   1   80.14    3.38
  -1  13   1   72.95    9.83
  -1  13   1   93.76   30.23
   1  13  -1   78.26    3.28
   1  13  -1   79.79    3.22
   0 -13   1  200.04   15.38
   0 -13  -1  234.93   16.66
   0 -13   1  234.72    8.95
   0 -13   1  196.19   20.70
   0 -13   1  228.35   17.05
   0 -13   1  223.88   25.82
   0 -13  -1  232.05    8.92
   0 -13  -1  237.54    8.91
   0 -13  -1  206.35   24.93
   0 -13  -1  240.92   15.08
   0 -13   1  239.47    8.88
   0 -13  -1  229.28   19.96
   0  13  -1  215.32   16.07
   0  13  -1  212.53   19.28
   0  13  -1  235.60    9.01
   0  13  -1  236.77    8.88
   0  13   1  237.84    8.91
   0  13   1  210.80   19.23
   0  13  -1  206.36   22.46
   0  13   1  237.58   22.97
   0  13   1  211.24   15.78
   0  13   1  206.09   14.37
   0  13   1  239.17    8.99
   0  13  -1  223.89   14.75
   1 -13   1   12.52    7.12
   1 -13   1  -16.42   27.08
  -1 -13  -1   25.83    9.52
   1 -13   1    9.95    5.57
  -1 -13  -1   20.57   12.83
   1 -13   1   11.32    9.28
   1 -13   1   11.33    1.07
  -1 -13  -1   11.35    0.98
  -1 -13  -1   13.39    0.90
  -1 -13  -1   10.07    6.67
   1 -13   1   14.11    0.95
  -1 -13  -1   10.69    5.49
  -1  13  -1    1.27   24.83
  -1  13  -1   16.79    6.22
  -1  13  -1    3.52    6.37
   1  13   1   12.84    0.93
  -1  13  -1    2.01    8.02
   1  13   1   12.50    0.87
  -1  13  -1   12.96    0.97
  -1  13  -1   12.11    0.95
   2 -13   1  124.91   20.97
   2 -13   1  113.97   27.21
  -2 -13  -1  138.44    5.46
   2 -13   1  133.74   14.21
   2 -13   1  136.92    5.56
  -2 -13  -1  140.35    5.43
   2 -13   1  141.17   16.53
  -2  13  -1  122.43   13.29
   2  13   1  136.74    5.53
  -2  13  -1  142.79    5.63
  -2  13  -1  242.31   42.43
   2  13   1  130.56    5.56
  -2  13  -1  119.80   15.27
   3 -13   1  131.77   33.06
   3 -13   1  139.96   21.48
   3 -13   1   98.20   34.59
   3 -13   1  153.78   24.87
   3 -13   1  102.55    4.62
  -3 -13  -1  112.96    4.47
  -3  13  -1  105.49    4.69
   3  13   1  109.48    4.62
   3  13   1  113.09    4.68
   3 -14  -1    2.63    0.77
  -3  14   1    2.06    0.69
   3  14  -1    3.68    0.66
   2 -14  -1   37.98    2.07
  -2 -14   1   37.84    2.00
   2 -14  -1   39.37    1.99
   2  14  -1   41.65    2.00
   2  14  -1   38.54    1.87
  -2  14   1   38.76    1.78
  -2  14   1   39.58    2.08
  -1 -14   1   14.35    1.19
   1 -14  -1   13.87    1.05
  -1 -14   1   13.85    0.92
   1 -14  -1   14.77    1.22
   1  14  -1   14.71    0.93
  -1  14   1   13.83    1.06
   1  14  -1   14.65    1.04
  -1  14   1   14.26    0.95
   0 -14   1    3.01    0.49
   0 -14  -1    4.35    0.73
   0 -14  -1    3.30    0.63
   0 -14   1    3.37    0.63
   0  14  -1    1.94    0.49
   0  14   1    3.09    0.65
   0  14  -1    2.89    0.48
   0  14   1    2.61    0.53
   1 -14   1  191.46    7.90
  -1 -14  -1  206.95    7.83
  -1 -14  -1  188.11    7.84
   1 -14   1  209.16    7.88
   1  14   1  200.74    7.86
  -1  14  -1  200.55    7.97
  -1  14  -1  197.78    7.76
   1  14   1  199.01    7.89
  -2 -14  -1    2.54    0.56
  -2 -14  -1    2.29    0.68
   2 -14   1    2.41    0.65
  -2  14  -1    1.90    0.55
   2  14   1    2.84    0.58
   2  14   1    2.34    0.63
  -2 -15   1    7.05    0.91
   2 -15  -1    6.91    1.05
   2 -15  -1    7.55    0.93
  -2  15   1    4.87    0.82
  -2  15   1    7.32    1.07
   2  15  -1    6.82    0.88
   2  15  -1    7.48    0.96
  -1 -15   1   45.55    2.42
   1 -15  -1   48.25    2.45
  -1 -15   1   53.09    2.26
   1 -15  -1   52.70    2.38
  -1  15   1   52.13    2.46
  -1  15   1   51.06    2.26
   1  15  -1   49.12    2.26
   1  15  -1   50.51    2.36
   0 -15  -1    2.97    0.73
   0 -15  -1    2.35    0.53
   0 -15   1    3.40    0.58
   0 -15   1    1.85    0.66
   0  15   1    1.52    0.52
   0  15  -1    2.65    0.56
   0  15   1    3.14    0.56
   1 -15   1    2.58    0.68
  -1 -15  -1    3.36    0.75
   1 -15   1    4.22    0.63
  -1 -15  -1    3.55    0.59
   1  15   1    2.83    0.61
  -1  15  -1    3.82    0.65
  -1  15  -1    3.47    0.54
   1  15   1    4.35    0.71
   2 -15   1    1.99    0.77
  -2 -15  -1    1.63    0.75
  -2 -15  -1    2.10    0.59
  -2  15  -1    2.40    0.64
   2  15   1    1.91    0.59
   2  15   1    1.96    0.58
  -1 -16   1    2.67    0.62
   1 -16  -1    0.92    0.75
  -1 -16   1    2.17    0.76
   1 -16  -1    1.68    0.65
  -1  16   1    2.34    0.61
  -1  16   1    1.24    0.55
   1  16  -1    2.11    0.63
   1  16  -1    1.96    0.50
   0 -16  -1   -0.79    0.70
   0 -16  -1    0.14    0.51
   0 -16   1   -0.13    0.53
   0 -16   1   -0.50    0.66
   0  16   1    0.62    0.52
   0  16  -1    0.66    0.45
   0  16  -1   -0.32    0.50
   0  16   1    1.17    0.56
  -1 -16  -1    0.62    0.60
   1 -16   1    0.21    0.74
  -1 -16  -1   -0.42    0.73
   1 -16   1    0.49    0.53
  -1  16  -1    1.70    0.54
  -1  16  -1    1.16    0.55
   1  16   1    1.63    0.61
   1  16   1    1.43    0.55
  -5   0   2   95.40    4.33
  -5   0   2   96.56    3.91
   4   0  -2  246.37   15.49
   4   0  -2  238.54   13.51
  -4   0   2  274.82   10.13
  -4   0   2  268.13    9.77
   4   0  -2  244.31   12.80
   4   0  -2  234.94   17.49
  -3   0   2  704.77   29.22
   3   0  -2  652.56   31.63
   3   0  -2  688.59   29.16
  -3   0   2  690.29   31.86
   3   0  -2  678.40   30.55
  -3   0   2  695.63   26.47
  -3   0   2  691.21   28.58
  -3   0   2  697.65   30.54
   3   0  -2  688.17   28.61
  -3   0   2  711.60   26.21
  -2   0   2   11.37    4.05
  -2   0   2    6.90    2.85
   2   0  -2    8.00    0.42
  -2   0   2    6.04    0.64
  -2   0   2    6.65    2.35
   2   0  -2    7.86    2.16
  -2   0   2    8.29    2.02
  -2   0   2    6.86    0.48
   2   0  -2   14.53    4.07
   2   0  -2    5.76    2.51
   2   0  -2   10.49    2.60
  -1   0   2  591.43   24.20
  -1   0   2  587.31   22.66
   1   0  -2  618.92   22.67
   1   0  -2  601.22   24.62
   1   0  -2  603.90   26.49
   1   0  -2  615.13   25.60
   1   0  -2  599.12   24.26
  -1   0   2  596.67   24.57
  -1   0   2  567.18   25.27
   0   0   2  520.41   19.49
   0   0  -2  517.19   20.93
   0   0  -2  519.00   22.69
   0   0  -2  520.97   21.24
   0   0  -2  506.35   19.50
   0   0  -2  501.55   19.54
   1   0   2  273.90   10.85
   1   0   2  281.42   12.19
   1   0   2  285.46   12.51
   1   0   2  307.08   10.88
   1   0   2  284.64   13.22
  -1   0  -2  293.36   10.87
  -1   0  -2  275.38   13.14
  -1   0  -2  284.53   12.47
  -1   0  -2  278.59   12.16
  -1   0  -2  278.05   13.80
  -1   0  -2  285.42   10.85
   1   0   2  297.35   10.87
   1   0   2  279.33   13.88
   2   0   2  777.02   32.94
  -2   0  -2  743.50   31.86
   2   0   2  781.39   32.08
  -2   0  -2  752.29   30.75
   2   0   2  770.07   29.38
  -2   0  -2  749.02   31.06
   2   0   2  776.60   29.37
   2   0   2  735.44   29.37
  -2   0  -2  806.25   29.40
  -2   0  -2  816.84   29.38
   2   0   2  771.91   30.84
  -2   0  -2  765.08   32.79
  -2   0  -2  827.89   29.37
   2   0   2  771.24   31.16
   3   0   2  388.61   14.49
  -3   0  -2  410.75   14.49
  -3   0  -2  419.51   14.58
  -3   0  -2  380.14   16.24
   3   0   2  358.93   18.66
   3   0   2  369.29   14.49
   3   0   2  359.62   17.58
   3   0   2  364.49   16.54
  -3   0  -2  382.39   16.66
   3   0   2  363.12   16.14
  -3   0  -2  380.74   18.78
  -3   0  -2  369.38   17.63
   4   0   2   10.11    6.27
  -4   0  -2   -4.23    5.86
  -4   0  -2   -3.51    4.09
   4   0   2   -5.16    4.27
  -4   0  -2   -0.70    2.46
   4   0   2   -1.24    3.09
   4   0   2    0.77    2.68
  -4   0  -2    0.29    0.46
  -4   0  -2    1.42    3.15
   4   0   2    0.37    0.42
  -5   0  -2  267.87   10.47
   5   0   2  263.44   10.32
  -5  -1   2  206.52    8.24
  -5   1   2  200.07    8.23
  -5   1   2  196.30    7.83
  -4  -1   2  102.47    4.17
   4  -1  -2   96.69   12.92
  -4  -1   2  101.46    3.79
   4  -1  -2   87.77   10.16
   4  -1  -2   98.73    8.32
   4  -1  -2   84.13    7.24
   4   1  -2   89.26    9.50
   4   1  -2   81.34   11.61
  -4   1   2  102.05    4.15
  -4   1   2   99.76    7.49
  -4   1   2   93.00   10.37
   4   1  -2   82.94    7.50
  -4   1   2   92.73    8.37
  -4   1   2   98.82    3.81
   4   1  -2   85.28    6.67
  -4   1   2   96.43   12.63
  -3  -1   2   42.09    1.67
   3  -1  -2   39.10    4.29
   3  -1  -2   36.57    4.76
  -3  -1   2   41.37    1.65
  -3  -1   2   39.97    1.96
   3  -1  -2   35.10    7.94
   3  -1  -2   27.47    5.97
   3   1  -2   37.13    5.82
  -3   1   2   39.34    1.95
   3   1  -2   40.91    4.58
  -3   1   2   35.56    7.10
  -3   1   2   38.86    6.19
  -3   1   2   42.09    4.96
   3   1  -2   35.93    7.27
   3   1  -2   36.39    3.93
  -3   1   2   38.49    1.65
  -3   1   2   42.92    4.35
   2  -1  -2  403.13   14.49
   2  -1  -2  386.30   14.48
  -2  -1   2  424.88   14.47
   2  -1  -2  359.38   18.13
  -2  -1   2  389.72   14.48
   2  -1  -2  367.18   19.34
   2  -1  -2  353.08   16.48
   2  -1  -2  363.64   16.97
   2   1  -2  368.90   18.76
  -2   1   2  388.23   19.50
  -2   1   2  377.68   14.65
   2   1  -2  368.07   16.30
  -2   1   2  374.49   16.57
   2   1  -2  372.91   16.69
   2   1  -2  366.67   17.70
  -2   1   2  378.64   14.49
   2   1  -2  392.42   14.45
  -2   1   2  381.32   17.06
  -2   1   2  401.14   14.50
  -2   1   2  373.43   18.17
   1  -1  -2  664.55   24.38
   1  -1  -2  660.04   26.12
   1  -1  -2  644.90   28.31
   1  -1  -2  659.18   26.46
   1  -1  -2  657.13   27.43
   1  -1  -2  658.52   24.39
  -1  -1   2  630.29   24.38
   1   1  -2  671.72   24.38
   1   1  -2  626.76   25.97
  -1   1   2  643.11   24.39
   1   1  -2  642.71   26.39
  -1   1   2  640.02   24.46
  -1   1   2  616.91   27.22
  -1   1   2  627.73   28.15
  -1   1   2  669.71   24.39
  -1   1   2  618.99   25.96
  -1   1   2  635.60   26.36
   1   1  -2  618.34   28.01
   1   1  -2  627.57   27.22
   0  -1  -2  198.85    9.49
   0  -1   2  210.41   11.24
   0  -1  -2  202.76   10.85
   0  -1  -2  203.09   10.22
   0  -1  -2  225.87    7.98
   0  -1   2  209.67    9.46
   0  -1   2  214.94    7.99
   0  -1  -2  207.99    8.04
   0  -1   2  210.67    9.79
   0   1  -2  216.07   10.56
   0   1   2  209.04   10.84
   0   1   2  206.50    9.26
   0   1  -2  201.09   11.13
   0   1  -2  217.40    9.79
   0   1  -2  210.86    7.99
   0   1   2  197.75    7.97
   0   1   2  206.91    9.54
   0   1   2  210.53    7.98
   0   1  -2  206.81    9.41
  -1  -1  -2  898.68   36.83
  -1  -1  -2  932.46   38.50
   1  -1   2  950.33   37.28
   1  -1   2  959.67   39.43
  -1  -1  -2  922.67   37.81
  -1  -1  -2  935.62   35.68
  -1  -1  -2  904.81   37.10
   1  -1   2  934.54   38.48
   1  -1   2  948.26   37.59
   1   1   2  919.68   35.69
  -1   1  -2  956.99   37.25
  -1   1  -2  950.94   37.54
  -1   1  -2  962.75   38.45
  -1   1  -2  958.25   39.30
  -1   1  -2 1000.00   35.71
  -1   1  -2  946.73   35.69
  -2  -1  -2   78.63    3.02
   2  -1   2   67.25    6.89
  -2  -1  -2   74.52    4.45
   2  -1   2   73.92    3.01
   2  -1   2   75.19    3.08
  -2  -1  -2   68.73    5.94
  -2  -1  -2   72.59    5.06
   2  -1   2   75.49    5.19
   2  -1   2   71.24    6.03
  -2  -1  -2   88.51    3.02
   2  -1   2   73.24    4.75
  -2  -1  -2   73.45    4.14
  -2   1  -2   74.91    5.06
  -2   1  -2   81.47    2.96
   2   1   2   81.99    3.02
  -2   1  -2   77.01    4.74
  -2   1  -2   73.71    2.99
   2   1   2   75.22    3.00
  -2   1  -2   83.03    3.04
  -2   1  -2   68.95    5.85
   2   1   2   73.33    3.01
  -2   1  -2   72.07    6.97
   3  -1   2  165.04    9.31
  -3  -1  -2  165.32    9.55
  -3  -1  -2  170.45    8.71
   3  -1   2  168.80   12.21
   3  -1   2  159.50    6.51
  -3  -1  -2  168.54    7.64
   3  -1   2  154.69    8.69
  -3  -1  -2  175.50    6.59
   3  -1   2  171.12   10.74
   3  -1   2  172.27    6.47
  -3  -1  -2  170.51    7.96
  -3   1  -2  167.31    9.38
   3   1   2  164.23    6.51
  -3   1  -2  178.90    6.47
   3   1   2  161.32    6.53
  -3   1  -2  172.81    6.58
  -3   1  -2  174.22   10.80
  -3   1  -2  164.80   12.09
   3   1   2  171.11    6.52
  -3   1  -2  164.12    8.80
   4  -1   2  148.61    8.82
  -4  -1  -2  153.32    6.34
   4  -1   2  152.28   11.37
   4  -1   2  161.27    6.12
   4  -1   2  139.32    9.47
   4  -1   2  162.35   13.58
  -4   1  -2  154.50    8.98
  -4   1  -2  153.36   11.65
  -4   1  -2  145.72    9.64
   4   1   2  161.31    6.13
  -4   1  -2  151.69   13.48
  -4   1  -2  171.12    6.26
   4   1   2  159.78    6.13
   5  -1   2   35.67    1.93
  -5  -1  -2   36.25    2.04
   5   1   2   36.62    1.86
  -5   1  -2   35.85    2.00
  -5  -2   2    4.60    0.97
  -5   2   2    3.40    0.86
   5   2  -2    4.13    4.35
   5   2  -2    1.50    5.21
  -5   2   2    4.96    0.65
   5   2  -2    7.63    7.26
   5   2  -2   13.42    9.98
   4  -2  -2   28.13    9.65
   4  -2  -2   24.62    5.78
   4  -2  -2   29.62    5.34
  -4  -2   2   18.48    1.40
   4  -2  -2   36.77    8.65
  -4   2   2   16.16    1.40
   4   2  -2   22.33    5.54
  -4   2   2   31.44    9.70
  -4   2   2   26.72    7.28
   4   2  -2   18.76    4.96
  -4   2   2   18.55    1.36
  -4   2   2   20.55    5.48
   4   2  -2   23.95    5.09
  -4   2   2   16.74    5.41
   4   2  -2   34.88    8.78
   4   2  -2   19.08    4.16
   4   2  -2   13.75    6.81
   4   2  -2   22.07    5.94
   4   2  -2   20.85    6.13
  -3  -2   2  322.31   11.43
  -3  -2   2  300.07   11.72
   3  -2  -2  273.31   14.87
   3  -2  -2  270.92   16.42
   3  -2  -2  284.16   18.41
   3  -2  -2  287.66   14.38
   3  -2  -2  305.23   11.49
  -3  -2   2  337.63   11.42
  -3   2   2  292.92   11.67
   3   2  -2  289.55   17.10
  -3   2   2  301.67   14.46
   3   2  -2  308.09   14.51
   3   2  -2  306.84   15.89
   3   2  -2  307.80   14.06
  -3   2   2  289.43   18.30
  -3   2   2  299.98   11.45
   3   2  -2  301.70   11.46
   3   2  -2  291.48   13.48
   3   2  -2  309.64   13.95
   3   2  -2  295.30   15.27
  -3   2   2  293.36   16.66
   3   2  -2  290.72   16.52
  -3   2   2  288.88   15.01
  -2  -2   2    7.05    0.42
   2  -2  -2    6.47    2.53
   2  -2  -2    3.87    3.17
   2  -2  -2    5.11    4.20
   2  -2  -2    5.41    0.49
   2  -2  -2    5.62    0.39
   2  -2  -2    6.01    2.15
   2   2  -2    5.29    1.91
   2   2  -2    7.07    2.09
   2   2  -2    5.24    3.72
   2   2  -2    7.10    2.54
   2   2  -2    8.60    4.08
  -2   2   2    1.82    3.79
  -2   2   2    4.99    0.41
   2   2  -2    6.82    3.04
  -2   2   2    4.57    0.57
   2   2  -2    9.00    2.95
  -2   2   2    5.13    0.48
  -2   2   2    6.76    3.06
   2   2  -2    5.16    0.37
  -2   2   2    4.35    2.20
  -2   2   2    5.42    1.99
   2   2  -2    6.39    2.28
  -1  -2   2  549.73   21.70
   1  -2  -2  556.82   23.90
   1  -2  -2  546.34   24.89
   1  -2  -2  607.76   21.82
   1  -2  -2  588.79   21.74
  -1  -2   2  596.10   21.73
   1  -2  -2  542.31   25.81
   1  -2  -2  573.41   21.75
  -1   2   2  554.82   23.89
  -1   2   2  569.08   25.99
  -1   2   2  613.36   21.77
   1   2  -2  612.97   21.72
  -1   2   2  548.03   21.73
  -1   2   2  565.30   21.80
  -1   2   2  572.24   23.57
  -1   2   2  558.93   24.91
   0  -2  -2   74.51    6.03
   0  -2   2   85.53    3.25
   0  -2   2   77.88    5.71
   0  -2  -2   78.31    4.52
   0  -2  -2   80.17    3.23
   0  -2  -2   84.65    3.29
   0  -2   2  101.23    5.55
   0  -2   2   99.54    7.77
   0  -2  -2   77.04    3.22
   0  -2   2   86.07    3.25
   0  -2   2   80.68    5.01
   0   2   2   83.24    5.48
   0   2   2   82.86    4.81
   0   2   2   85.62    6.11
   0   2  -2  107.00    7.82
   0   2  -2   95.09    5.24
   0   2   2   74.78    3.22
   0   2   2   86.23    3.30
   0   2   2   83.09    3.22
   0   2   2   77.38    4.48
   0   2  -2   81.12    3.23
   0   2  -2   74.41    5.61
   0   2  -2   95.55    5.67
  -1  -2  -2  142.89    7.97
  -1  -2  -2  137.29    6.72
  -1  -2  -2  142.05    7.35
  -1  -2  -2  136.77    5.50
   1  -2   2  148.12    7.67
   1  -2   2  155.52    5.53
   1  -2   2  140.10    7.22
   1  -2   2  144.90    5.48
  -1  -2  -2  137.11    6.49
  -1  -2  -2  144.09    5.60
  -1  -2  -2  149.63    5.48
   1  -2   2  143.06    9.35
   1  -2   2  141.45    5.50
   1  -2   2  138.53    8.48
  -1   2  -2  137.27    7.43
  -1   2  -2  139.15    7.15
   1   2   2  143.09    5.49
  -1   2  -2  139.28    9.14
  -1   2  -2  158.93    5.50
  -1   2  -2  138.45    8.29
  -1   2  -2  137.73    5.45
  -1   2  -2  142.53    5.47
  -1   2  -2  152.77    5.51
   1   2   2  141.98    5.51
   1   2   2  136.99    5.47
   2  -2   2   25.02    4.66
  -2  -2  -2   25.49    2.38
  -2  -2  -2   23.62    3.29
   2  -2   2   23.86    1.21
   2  -2   2   26.27    6.09
   2  -2   2   23.20    3.14
  -2  -2  -2   24.47    1.93
  -2  -2  -2   27.31    3.77
  -2  -2  -2   24.37    1.09
   2  -2   2   23.10    1.08
  -2  -2  -2   25.90    1.10
  -2  -2  -2   24.02    2.17
  -2  -2  -2   22.01    2.97
   2  -2   2   23.10    3.63
  -2  -2  -2   25.34    2.11
  -2  -2  -2   26.97    2.77
   2   2   2   23.29    1.07
  -2   2  -2   27.08    1.11
   2   2   2   25.57    1.09
  -2   2  -2   25.18    3.45
  -2   2  -2   25.99    4.32
  -2   2  -2   22.52    3.01
  -2   2  -2   22.89    1.05
  -2   2  -2   24.43    5.61
   2   2   2   24.34    1.08
  -2   2  -2   24.45    1.13
   3  -2   2  269.36   15.63
   3  -2   2  270.50   13.49
   3  -2   2  272.77   14.12
   3  -2   2  278.18   10.89
  -3  -2  -2  298.73   10.96
   3  -2   2  255.97   17.01
  -3   2  -2  309.87   10.99
  -3   2  -2  275.16   17.32
   3   2   2  283.45   10.89
  -3   2  -2  284.23   14.30
   3   2   2  312.07   10.95
  -3   2  -2  276.62   15.79
  -3   2  -2  274.53   13.63
   3   2   2  289.79   10.92
   4  -2   2   29.68    1.48
   4  -2   2   22.80    6.67
   4  -2   2   28.00    5.32
   4  -2   2    9.60    8.43
   4  -2   2   23.84    6.40
   4   2   2   30.97    1.45
  -4   2  -2   26.96    7.31
   4   2   2   30.29    1.47
  -4   2  -2   23.39    8.86
  -4   2  -2   31.38    6.55
   4   2   2   28.72    1.40
  -4   2  -2   29.24    1.54
  -4   2  -2   34.03    5.58
   5  -2   2  181.71    7.40
  -5  -2  -2  190.57    7.55
  -5   2  -2  191.07    7.56
  -5  -3   2   69.32    3.47
  -5   3   2   70.43    3.37
  -5   3   2   70.23    3.00
   4  -3  -2   14.86    7.10
   4  -3  -2   20.28    6.03
  -4  -3   2   17.36    1.39
   4  -3  -2   24.81    5.87
   4  -3  -2   20.13   10.08
  -4   3   2   14.10    8.93
   4   3  -2   23.47    5.29
  -4   3   2   13.09    6.86
  -4   3   2   19.46    1.33
   4   3  -2   22.05    4.78
   4   3  -2   32.91    7.63
   4   3  -2   20.01    3.58
   4   3  -2   23.59    6.16
  -4   3   2   18.40    1.09
   4   3  -2   12.25    7.02
  -4   3   2   14.53    5.11
  -4   3   2   16.78    4.56
   3  -3  -2    4.14    2.71
   3  -3  -2    4.55    0.50
   3  -3  -2    1.62    3.08
   3  -3  -2   -0.75    6.05
   3  -3  -2    3.69    0.48
   3  -3  -2    5.14    0.67
   3  -3  -2    2.93    4.55
   3   3  -2    5.05    0.46
  -3   3   2    7.59    6.71
   3   3  -2    8.49    4.16
   3   3  -2    5.30    5.28
   3   3  -2    2.60    2.94
   3   3  -2    6.82    2.80
  -3   3   2    4.67    0.53
  -3   3   2    4.72    0.72
   3   3  -2    7.37    2.42
   3   3  -2    9.52    3.79
  -3   3   2    8.77    3.77
   3   3  -2    3.05    2.37
  -3   3   2    5.39    4.71
   3   3  -2    5.49    4.85
  -3   3   2    6.67    3.00
   2  -3  -2   35.49    4.38
   2  -3  -2   37.84    5.74
   2  -3  -2   36.27    1.88
   2  -3  -2   32.26    6.79
  -2  -3   2   39.64    1.55
   2  -3  -2   34.90    3.92
   2  -3  -2   37.55    1.58
   2   3  -2   37.18    3.95
   2   3  -2   35.74    3.42
   2   3  -2   33.94    3.90
   2   3  -2   38.06    1.55
  -2   3   2   37.65    1.73
   2   3  -2   42.30    6.22
  -2   3   2   36.78    1.57
   2   3  -2   38.47    3.50
   2   3  -2   37.14    4.88
  -2   3   2   31.39    5.43
  -2   3   2   35.99    6.79
   2   3  -2   36.65    6.12
  -2   3   2   40.79    4.54
  -2   3   2   36.36    3.97
   2   3  -2   40.82    5.00
   1  -3  -2    0.07    1.19
  -1  -3   2    0.72    0.18
   1  -3  -2    0.73    0.29
   1  -3  -2    0.31    1.93
   1  -3  -2   -0.15    1.36
   1  -3  -2    0.16    0.19
   1  -3  -2    3.46    5.67
   1  -3  -2    0.74    0.17
  -1  -3   2    1.25    1.55
  -1  -3   2    2.59    2.35
  -1  -3   2    2.52    1.52
  -1  -3   2    0.72    0.14
  -1  -3   2    2.08    2.78
  -1  -3   2    0.47    0.18
  -1   3   2    1.39    1.69
  -1   3   2   -1.45    2.02
  -1   3   2    0.90    0.22
  -1   3   2    0.60    0.17
   1   3  -2    0.58    0.19
  -1   3   2    0.90    0.23
  -1   3   2   -0.53    1.37
  -1   3   2    0.63    3.13
   1   3  -2    0.94    0.16
   0  -3  -2    1.05    0.18
   0  -3   2    1.32    0.21
   0  -3   2    1.53    2.19
   0  -3   2    1.25    1.62
   0  -3  -2    1.19    1.38
   0  -3   2    0.66    1.09
   0  -3  -2    1.52    0.20
   0  -3  -2    1.61    0.20
   0  -3  -2    2.35    0.28
   0  -3   2    1.26    0.26
   0  -3  -2   -1.06    2.23
   0  -3  -2    2.60    1.25
   0  -3   2    2.32    2.41
   0  -3  -2    2.58    1.92
   0   3   2    3.04    1.48
   0   3   2    0.48    1.10
   0   3   2    1.30    0.19
   0   3   2    1.37    0.16
   0   3  -2    1.28    2.24
   0   3   2    1.23    1.71
   0   3   2    0.63    2.26
   0   3  -2    1.64    1.58
   0   3  -2    0.28    2.28
   0   3  -2    2.00    2.64
   0   3  -2    1.12    0.21
   1  -3   2  331.72   17.18
  -1  -3  -2  336.92   12.44
  -1  -3  -2  327.04   13.55
  -1  -3  -2  320.60   14.45
   1  -3   2  350.52   12.40
  -1  -3  -2  326.42   12.40
  -1  -3  -2  325.01   12.53
   1  -3   2  331.42   12.46
  -1  -3  -2  326.47   13.79
  -1  -3  -2  322.89   15.11
   1  -3   2  331.02   14.52
   1  -3   2  333.97   14.98
   1  -3   2  313.13   12.43
  -1   3  -2  354.82   12.44
   1   3   2  318.60   12.42
   1   3   2  322.40   14.43
   1   3   2  322.02   13.53
   1   3   2  324.77   13.81
   1   3   2  311.21   12.39
  -1   3  -2  309.95   14.73
   1   3   2  317.99   12.45
  -1   3  -2  325.89   16.96
  -1   3  -2  312.87   14.33
   1   3   2  324.78   15.06
   2  -3   2   18.16    3.89
   2  -3   2   24.31    1.06
  -2  -3  -2   22.01    2.41
   2  -3   2   21.79    5.42
   2  -3   2   22.93    1.03
   2  -3   2   20.44    3.47
   2  -3   2   21.56    1.23
  -2  -3  -2   24.47    1.96
  -2  -3  -2   24.51    2.21
  -2  -3  -2   26.12    3.60
  -2  -3  -2   24.29    2.81
  -2  -3  -2   22.23    2.93
   2  -3   2   21.32    5.80
  -2  -3  -2   22.99    1.92
  -2  -3  -2   23.66    1.75
  -2   3  -2   23.78    4.88
   2   3   2   23.39    1.04
   2   3   2   22.26    1.03
   2   3   2   23.92    1.06
  -2   3  -2   21.82    3.29
  -2   3  -2   20.31    1.01
  -2   3  -2   24.68    1.07
  -2   3  -2   20.52    5.03
  -2   3  -2   23.79    3.77
   3  -3   2   92.80    7.71
  -3  -3  -2  101.44    4.01
   3  -3   2   99.59    3.94
   3  -3   2   92.13    9.50
   3  -3   2   92.19   11.69
   3  -3   2   98.02    7.12
   3   3   2  104.35    3.97
  -3   3  -2   93.01   11.40
   3   3   2   96.59    3.93
   3   3   2  104.61    3.99
  -3   3  -2  100.17    7.94
  -3   3  -2   91.54    9.59
  -3   3  -2  102.88    7.27
  -3   3  -2  101.50    4.03
   4  -3   2    6.20    0.84
   4  -3   2    7.80    5.12
   4  -3   2   12.80    9.06
   4  -3   2   17.83    7.11
   4  -3   2    1.94    3.92
  -4   3  -2   -0.03    6.39
  -4   3  -2    3.01    3.97
   4   3   2    5.57    0.69
  -4   3  -2    3.98    4.71
   4   3   2    6.21    0.61
  -4   3  -2    6.27    0.86
   4   3   2    6.61    0.69
  -4   3  -2   14.73    8.96
   5  -3   2    0.73    0.69
  -5  -3  -2   -0.09    0.70
  -5   3  -2    1.59    0.70
  -5  -4   2    6.15    1.17
  -5   4   2    6.57    1.00
  -5   4   2    5.68    0.96
   4  -4  -2    2.71    6.52
  -4  -4   2    7.68    1.19
   4  -4  -2   12.99    9.79
   4  -4  -2    8.66    5.33
   4  -4  -2   16.58    5.08
   4   4  -2    2.64    3.88
   4   4  -2    8.27    3.02
  -4   4   2   -1.07    9.33
  -4   4   2    7.75    0.78
   4   4  -2   12.99    5.57
   4   4  -2    9.78    3.05
  -4   4   2   14.70    5.60
   4   4  -2    8.70    4.75
   4   4  -2    8.06    2.59
  -4   4   2   10.23    7.23
   4   4  -2   12.75    6.31
  -4   4   2    9.84    4.60
   4   4  -2    8.07    0.65
  -4   4   2    7.56    1.01
   4   4  -2   12.11    3.61
   3  -4  -2    2.26    0.38
   3  -4  -2    2.35    0.39
   3  -4  -2    7.27    6.20
   3  -4  -2    2.48    3.24
   3  -4  -2   -4.00    3.98
   3  -4  -2    1.37    2.51
  -3   4   2    3.47    3.04
   3   4  -2    5.27    4.80
   3   4  -2    2.44    3.52
  -3   4   2    6.31    4.02
  -3   4   2   -6.33    6.03
   3   4  -2    2.07    0.34
   3   4  -2    2.11    2.19
   3   4  -2    7.16    2.85
   3   4  -2    4.52    3.64
  -3   4   2    2.67    0.52
  -3   4   2    2.37    0.36
   3   4  -2    0.18    2.10
   3   4  -2    2.02    2.62
  -3   4   2   -1.32    4.49
   3   4  -2    9.73    5.05
   2  -4  -2    6.91    2.38
   2  -4  -2   13.86    3.26
   2  -4  -2    9.56    9.88
  -2  -4   2   13.04    0.65
   2  -4  -2   11.40    0.66
   2  -4  -2    5.87    2.71
  -2   4   2   14.08    3.76
   2   4  -2   10.79    0.61
  -2   4   2   10.79    0.65
   2   4  -2   10.24    2.63
  -2   4   2   21.03    6.24
   2   4  -2   11.99    3.48
  -2   4   2   12.74    3.24
   2   4  -2   14.09    3.14
  -2   4   2   11.84    0.81
   2   4  -2   12.33    4.30
  -2   4   2   11.93    5.22
  -1  -4   2    5.91    1.88
  -1  -4   2    7.03    2.23
  -1  -4   2    4.52    0.35
   1  -4  -2    4.13    0.46
  -1  -4   2    4.34    0.42
   1  -4  -2    4.66    0.37
  -1  -4   2    5.15    2.83
   1  -4  -2    8.82    2.40
   1  -4  -2    9.77    5.17
   1  -4  -2    3.33    0.59
   1  -4  -2    3.68    2.31
  -1  -4   2    4.87    0.33
  -1  -4   2   -0.67    3.22
   1  -4  -2   13.87    4.73
  -1   4   2    4.71    0.48
  -1   4   2    5.35    2.92
   1   4  -2    4.77    0.29
   1   4  -2    4.76    0.41
  -1   4   2    8.05    2.05
  -1   4   2    4.36    0.36
  -1   4   2    5.38    2.11
  -1   4   2    4.26    0.42
  -1   4   2    6.97    4.34
   0  -4  -2    3.68    0.38
   0  -4  -2    6.80    2.26
   0  -4   2    1.26    2.74
   0  -4  -2    2.71    0.33
   0  -4   2    3.51    2.72
   0  -4  -2    3.55    0.34
   0  -4   2    3.71    0.38
   0  -4  -2    1.58    2.53
   0  -4   2    3.05    0.34
   0  -4  -2    4.47    2.09
   0  -4   2    2.95    0.30
   0  -4   2    2.18    1.88
   0  -4   2    9.52    3.62
   0  -4  -2    2.48    3.13
   0   4   2    3.67    0.45
   0   4  -2    3.54    0.29
   0   4   2    1.06    1.20
   0   4   2    3.26    0.29
   0   4  -2    4.28    1.81
   0   4  -2    3.62    2.08
   0   4   2    3.56    1.64
   0   4   2    6.67    2.95
   0   4   2    4.93    2.19
   0   4   2    2.90    0.28
   0   4   2    3.57    0.30
   0   4  -2    3.75    0.41
   0   4  -2    6.46    2.20
   0   4  -2    1.86    2.56
  -1  -4  -2   33.72    1.52
  -1  -4  -2   35.59    4.39
   1  -4   2   31.83    1.44
   1  -4   2   37.30    1.53
  -1  -4  -2   33.80    2.68
   1  -4   2   32.14    6.41
   1  -4   2   33.98    3.58
   1  -4   2   33.48    4.02
  -1  -4  -2   30.50    2.92
  -1  -4  -2   36.10    1.39
  -1  -4  -2   31.58    3.62
   1  -4   2   35.20    1.40
   1   4   2   28.07    4.49
   1   4   2   35.43    3.09
   1   4   2   34.72    1.42
  -1   4  -2   36.23    1.45
   1   4   2   32.03    1.59
  -1   4  -2   30.05    3.32
   1   4   2   33.47    1.39
   1   4   2   33.64    1.44
  -1   4  -2   32.16    1.44
  -1   4  -2   33.37    4.68
   1   4   2   35.19    3.78
   1   4   2   34.81    2.76
  -1   4  -2   33.25    5.96
  -1   4  -2   35.62    3.89
  -2  -4  -2   12.74    2.57
  -2  -4  -2    8.43    2.27
   2  -4   2   16.80    5.94
   2  -4   2    5.76    2.44
  -2  -4  -2   10.43    2.08
  -2  -4  -2   10.80    2.35
   2  -4   2    9.05    0.62
  -2  -4  -2   10.26    1.74
   2  -4   2   11.91    4.45
   2  -4   2    9.39    3.16
  -2  -4  -2    8.63    1.46
  -2  -4  -2    9.81    0.74
  -2  -4  -2   12.12    3.04
   2  -4   2    9.49    0.62
  -2  -4  -2   10.11    1.76
  -2   4  -2   13.40    4.33
  -2   4  -2    9.64    0.63
   2   4   2    9.79    0.60
  -2   4  -2    4.21    4.61
  -2   4  -2   14.66    3.30
   2   4   2    9.88    0.62
   2   4   2    9.19    0.61
  -2   4  -2   12.64    3.45
   3  -4   2   -7.52    6.67
  -3  -4  -2    1.18    0.38
   3  -4   2    9.87    5.73
   3  -4   2    2.49    0.42
   3  -4   2   -0.25    3.14
   3  -4   2    2.52    4.04
  -3  -4  -2    2.27    0.55
   3   4   2    1.95    0.35
   3   4   2    2.46    0.38
  -3   4  -2    6.18    4.22
  -3   4  -2    2.36    0.45
  -3   4  -2    3.71    3.48
  -3   4  -2    3.18    5.14
   3   4   2    2.54    0.40
  -3   4  -2   -2.17    6.56
   4  -4   2    2.06    7.46
   4  -4   2    2.61    0.52
  -4  -4  -2    2.36    0.74
   4  -4   2    8.72    4.47
   4  -4   2   10.30   10.99
   4  -4   2    6.55    5.62
   4   4   2    1.98    0.44
  -4   4  -2   -4.44    3.82
  -4   4  -2   -4.11    6.52
  -4   4  -2    3.30    5.16
   4   4   2    2.65    0.49
  -4   4  -2    1.89    0.50
  -4   4  -2    8.92    9.70
   4   4   2    2.38    0.48
  -5  -4  -2   -0.18    0.77
   5  -4   2   -0.18    0.73
  -5  -4  -2    1.07    0.88
  -5   4  -2   -0.21    0.65
   5   4   2    1.06    0.50
   5   4   2    0.42    0.60
  -5  -5   2   41.86    2.63
  -5   5   2   38.66    2.33
  -5   5   2   40.50    2.01
   4  -5  -2    3.76    5.69
   4  -5  -2  -11.03    6.80
   4  -5  -2    7.13    5.07
  -4  -5   2    1.60    0.73
   4  -5  -2    1.07   10.52
  -4   5   2    0.86    6.17
   4   5  -2   -7.57    5.17
   4   5  -2   13.21    5.93
   4   5  -2    0.74    2.75
   4   5  -2    7.17    3.89
  -4   5   2    4.49    8.66
  -4   5   2    2.35    0.44
  -4   5   2    2.55    0.65
  -4   5   2   -3.64    9.69
   4   5  -2    1.11    2.87
   4   5  -2    1.42    2.39
   4   5  -2    5.73    4.09
  -4   5   2    1.23    5.21
   4   5  -2    6.36    2.49
   4   5  -2    2.25    0.42
   3  -5  -2   11.33    8.41
   3  -5  -2   10.11    0.74
   3  -5  -2   14.84    5.22
   3  -5  -2   10.66    4.32
   3  -5  -2    9.73    0.73
   3  -5  -2    7.06    6.21
   3   5  -2   10.15    0.66
  -3   5   2   16.34    7.20
  -3   5   2   10.00    0.76
   3   5  -2   13.78    2.94
   3   5  -2   16.04    4.48
   3   5  -2   26.14    6.47
   3   5  -2   14.77    3.44
   3   5  -2   13.39    3.34
  -3   5   2    9.55    0.91
  -3   5   2    7.89    3.08
   3   5  -2    8.55    5.45
   3   5  -2   18.30    4.14
  -3   5   2   10.05    5.11
  -3   5   2    3.18    3.18
   3   5  -2   15.07    4.66
   2  -5  -2   79.58    8.53
   2  -5  -2   69.01    6.67
   2  -5  -2   74.68    2.93
   2  -5  -2   75.77   10.13
   2  -5  -2   74.50    6.10
  -2  -5   2   72.07    2.88
   2  -5  -2   70.86    2.95
  -2   5   2   72.01    3.05
  -2   5   2   73.54    6.62
   2   5  -2   75.87    5.06
  -2   5   2   66.16    5.82
   2   5  -2   69.49    8.03
   2   5  -2   78.64    5.54
  -2   5   2   70.73    8.06
  -2   5   2   78.88    9.81
  -2   5   2   70.42    2.92
   2   5  -2   73.86    2.90
   2   5  -2   71.28    6.68
  -1  -5   2   57.89    2.28
   1  -5  -2   52.91    7.47
  -1  -5   2   50.44    5.90
  -1  -5   2   50.51    4.37
  -1  -5   2   51.30    4.85
   1  -5  -2   66.92    6.16
   1  -5  -2   70.04    7.81
   1  -5  -2   54.62    2.31
   1  -5  -2   73.87    5.77
  -1  -5   2   44.02    6.96
   1   5  -2   62.27    2.29
  -1   5   2   53.09    6.26
   1   5  -2   54.20    2.24
  -1   5   2   60.95    4.79
  -1   5   2   52.33    5.08
  -1   5   2   66.47    9.17
  -1   5   2   55.11    2.27
  -1   5   2   57.13    2.35
  -1   5   2   53.79    2.26
   0  -5  -2    0.20    0.18
   0  -5   2    1.16    1.59
   0  -5   2   -2.07    4.33
   0  -5   2   -1.65    6.10
   0  -5  -2    1.26    1.96
   0  -5  -2   -1.48    2.36
   0  -5  -2    0.94    1.57
   0  -5  -2    0.30    0.22
   0  -5   2   -0.14    0.27
   0  -5   2    0.17    0.19
   0  -5  -2    3.42    3.39
   0  -5  -2    0.12    0.18
   0  -5   2    0.81    1.31
   0   5  -2    0.01    0.28
   0   5  -2   -0.80    1.60
   0   5   2    0.10    0.14
   0   5   2    0.09    0.13
   0   5  -2   -1.07    2.31
   0   5  -2    4.21    4.49
   0   5  -2    1.10    1.49
   0   5  -2    0.09    0.15
   0   5   2    0.11    0.16
   0   5  -2    0.37    0.16
   0   5   2    0.59    0.33
  -1  -5  -2  137.10    7.85
   1  -5   2  122.69    4.97
  -1  -5  -2  128.93    5.03
  -1  -5  -2  133.08    4.92
   1  -5   2  125.51    9.43
  -1  -5  -2  127.98    8.62
  -1  -5  -2  139.51    6.65
  -1  -5  -2  133.80    6.95
   1  -5   2  110.96   10.48
  -1  -5  -2  117.26    4.89
   1   5   2  125.46    7.59
   1   5   2  130.62    8.57
   1   5   2  128.72    6.49
   1   5   2  122.89    4.97
   1   5   2  124.67    4.95
  -1   5  -2  131.21    7.97
  -1   5  -2  118.15    8.92
  -1   5  -2  125.69    4.97
   1   5   2  125.88    6.77
  -1   5  -2  129.67   10.35
  -2  -5  -2    4.22    1.38
   2  -5   2    3.76    5.92
  -2  -5  -2    2.22    0.42
   2  -5   2    0.87    2.24
   2  -5   2    2.20    0.34
  -2  -5  -2    2.22    2.86
   2  -5   2    3.09    4.36
   2  -5   2    2.53    0.36
  -2  -5  -2    3.51    2.10
  -2  -5  -2    4.10    1.69
  -2  -5  -2    3.21    0.40
   2  -5   2    2.86    2.87
  -2   5  -2    1.67    2.69
   2   5   2    2.70    0.43
   2   5   2    3.08    0.40
   2   5   2    2.01    0.40
  -2   5  -2    0.80    3.79
  -2   5  -2    0.25    2.99
  -2   5  -2   -0.71    5.48
  -2   5  -2    3.06    0.44
   3  -5   2   67.99    2.78
   3  -5   2   82.72   13.52
   3  -5   2   68.30    2.79
   3  -5   2   60.48    6.87
   3  -5   2   63.42    7.80
   3  -5   2   68.31   10.36
  -3   5  -2   65.32    7.81
  -3   5  -2   70.56   10.03
   3   5   2   70.00    2.83
  -3   5  -2   69.12    7.02
  -3   5  -2   66.52    2.87
   3   5   2   66.95    2.77
   3   5   2   70.21    2.85
  -3   5  -2   81.92   12.80
   4  -5   2   25.38    1.41
   4  -5   2   18.12    8.96
   4  -5   2   18.60    7.89
  -4  -5  -2   24.23    1.60
  -4  -5  -2   25.46    1.63
   4   5   2   26.23    1.35
   4   5   2   25.40    1.35
   4   5   2   24.72    1.35
  -4   5  -2   23.99    1.43
   5  -5   2    5.56    0.86
  -5  -5  -2    6.13    1.02
  -5  -5  -2    7.57    1.15
  -5   5  -2    6.51    1.22
   5   5   2    6.71    1.05
   5   5   2    5.83    0.93
  -5  -6   2    3.65    1.10
  -5   6   2    5.12    0.92
  -5   6   2    3.55    0.70
   5   6  -2    3.53    0.62
   4  -6  -2   96.79   11.80
   4  -6  -2  108.94   20.51
   4  -6  -2   93.57    3.78
   4  -6  -2   86.70   15.11
   4  -6  -2   91.47   10.14
  -4   6   2   92.94    4.09
   4   6  -2   95.19    3.81
   4   6  -2   79.08    9.28
  -4   6   2   74.80   10.18
  -4   6   2  100.99   12.37
   4   6  -2   94.48    7.25
   4   6  -2   91.73    6.01
  -4   6   2  107.77   15.64
   4   6  -2   88.05    8.97
  -4   6   2   99.02   19.75
   4   6  -2  101.90    7.38
   4   6  -2   90.98    5.98
  -4   6   2   95.41    3.81
   4   6  -2   92.84    5.37
   3  -6  -2   64.66    7.24
   3  -6  -2   71.34   13.71
   3  -6  -2   70.33    3.00
   3  -6  -2   57.48    8.14
   3  -6  -2   74.20    2.96
   3  -6  -2   64.58   10.60
   3   6  -2   70.68    5.41
   3   6  -2   63.19    6.03
  -3   6   2   54.94    9.78
  -3   6   2   68.69   15.27
  -3   6   2  134.31   27.20
   3   6  -2   73.38    7.70
  -3   6   2   73.13    2.97
  -3   6   2   81.71   11.99
   3   6  -2   78.45    9.60
   3   6  -2   77.58    5.47
  -3   6   2   72.85    3.17
   3   6  -2   82.15    7.67
   3   6  -2   90.36    9.80
   3   6  -2   73.16    2.94
   3   6  -2   71.80    5.95
  -2  -6   2   12.91    6.15
   2  -6  -2    9.34    4.70
   2  -6  -2    9.28    2.74
  -2  -6   2   10.92    0.62
  -2  -6   2   14.79    3.51
   2  -6  -2    8.14    3.27
  -2  -6   2    9.66    3.90
  -2  -6   2    3.69    4.67
   2  -6  -2   10.19    6.68
   2   6  -2    8.15    5.08
  -2   6   2    8.72    5.12
  -2   6   2    6.83    5.66
   2   6  -2   13.00    2.99
  -2   6   2    9.91    0.78
  -2   6   2   16.44    4.49
   2   6  -2   16.57    3.57
   2   6  -2    9.18    0.58
   2   6  -2   10.63    3.95
  -2   6   2   10.96    3.70
  -1  -6   2   80.29    7.69
  -1  -6   2   88.11    3.40
  -1  -6   2   91.72    6.13
  -1  -6   2   71.57    8.91
   1  -6  -2   90.56    6.92
   1  -6  -2   81.86    3.44
  -1  -6   2   88.17    6.57
   1  -6  -2  115.03   12.41
   1  -6  -2   91.53    6.33
  -1   6   2   85.86    3.48
   1   6  -2   80.16    3.40
  -1   6   2   82.75    9.17
   1   6  -2   91.63    3.38
  -1   6   2   86.00    3.40
  -1   6   2   88.76    3.39
  -1   6   2   83.77    6.02
  -1   6   2   80.54    6.47
   1   6  -2   84.31    3.36
   0  -6  -2  210.85   11.13
   0  -6  -2  213.96    8.24
   0  -6   2  216.29   10.96
   0  -6   2  210.82   11.45
   0  -6  -2  213.14    8.24
   0  -6  -2  215.08   13.73
   0  -6  -2  215.06   10.66
   0  -6   2  212.60    8.21
   0  -6  -2  202.91   12.29
   0  -6   2  198.45   14.04
   0   6  -2  254.69   14.34
   0   6  -2  200.94   13.80
   0   6   2  216.66    8.17
   0   6  -2  214.82   10.76
   0   6   2  210.99   12.29
   0   6   2  205.01   13.36
   0   6   2  207.74    8.21
   0   6  -2  205.10   11.20
   0   6   2  226.60    8.22
   0   6   2  216.45   10.58
   0   6  -2  202.07    8.23
   0   6  -2  229.07    8.19
   0   6   2  202.67   10.92
   1  -6   2   15.68    9.67
  -1  -6  -2   18.28    3.12
   1  -6   2   11.36    0.56
   1  -6   2   12.42    0.72
  -1  -6  -2   12.04    0.73
  -1  -6  -2   17.82    4.08
  -1  -6  -2    9.61    0.66
  -1  -6  -2   12.93    4.12
   1  -6   2    3.97    2.71
  -1  -6  -2   11.54    2.49
   1  -6   2    5.13    3.64
  -1  -6  -2   12.62    0.66
   1  -6   2    8.05    2.56
  -1   6  -2    7.22    3.03
  -1   6  -2   16.06    3.78
   1   6   2   13.45    3.79
   1   6   2   11.85    0.64
  -1   6  -2   11.54    0.66
   1   6   2   16.75    4.75
   1   6   2   12.43    0.68
  -1   6  -2    7.84    3.86
   1   6   2   13.50    2.88
  -1   6  -2   11.19    3.00
   1   6   2   12.00    2.44
  -2  -6  -2  216.77    8.55
  -2  -6  -2  219.32    8.68
  -2  -6  -2  236.56    9.90
   2  -6   2  232.14    8.61
  -2  -6  -2  233.40   10.18
  -2  -6  -2  226.51   11.94
  -2  -6  -2  231.64   11.01
   2  -6   2  226.38    8.56
   2  -6   2  240.58   18.39
   2  -6   2  216.17   12.29
   2  -6   2  210.30   12.88
   2   6   2  227.94   10.07
   2   6   2  217.01    8.64
   2   6   2  224.80   10.84
   2   6   2  230.84    9.76
   2   6   2  217.06   11.66
   2   6   2  208.42    8.54
   2   6   2  213.87    8.61
  -2   6  -2  213.24    8.64
   3  -6   2   76.54    9.01
   3  -6   2   71.62   14.78
   3  -6   2   86.77   12.07
   3  -6   2   79.76    3.22
   3  -6   2   75.26    3.22
   3  -6   2   76.11    7.94
  -3   6  -2   92.32    9.35
  -3   6  -2   74.32   14.37
  -3   6  -2   85.10   11.54
   3   6   2   79.35    3.27
   3   6   2   80.65    3.29
  -3   6  -2   78.05    7.99
   3   6   2   82.20    3.20
  -3   6  -2   76.51    3.30
   4  -6   2   50.95    2.34
  -4  -6  -2   50.14    2.53
  -4  -6  -2   51.81    2.51
   4   6   2   53.50    2.29
   4   6   2   53.45    2.34
   4   6   2   52.17    2.36
  -4   6  -2   51.68    2.42
   5  -6   2   41.71    2.31
  -5  -6  -2   45.57    2.55
  -5  -6  -2   45.45    2.57
   5   6   2   44.39    2.22
  -5   6  -2   42.41    2.36
   5   6   2   46.47    2.25
   5   6   2   50.46    2.32
  -5  -7   2   72.96    3.93
   5   7  -2   74.06    3.15
  -5   7   2   70.84    3.52
  -5   7   2   71.65    3.21
   4  -7  -2  211.18   28.77
   4  -7  -2  178.84   15.25
   4  -7  -2  154.38    6.01
   4  -7  -2  143.05   16.18
   4  -7  -2  131.10   20.94
  -4   7   2  150.16    6.03
   4   7  -2  153.12    6.03
  -4   7   2  142.21    6.27
   3  -7  -2   16.50    1.00
   3  -7  -2   10.95    7.76
   3  -7  -2   17.32    0.99
   3  -7  -2   22.61    5.76
   3  -7  -2   19.06    6.40
   3  -7  -2   22.51   11.67
  -3   7   2   16.06    0.99
  -3   7   2   15.83    4.66
   3   7  -2   17.78    3.63
   3   7  -2   19.40    4.02
  -3   7   2   16.21    1.14
   3   7  -2   14.26    4.12
  -3   7   2   21.45    6.01
   3   7  -2   22.40    7.41
   3   7  -2   26.89    7.14
   3   7  -2    8.10    6.75
  -3   7   2   30.45   10.90
   3   7  -2   18.55    4.02
   3   7  -2   21.04    5.39
  -3   7   2   17.20    7.66
   3   7  -2   15.94    0.92
  -2  -7   2  393.45   14.30
   2  -7  -2  350.95   14.36
  -2  -7   2  372.15   22.20
   2  -7  -2  359.51   21.39
   2  -7  -2  374.20   14.34
  -2  -7   2  364.04   17.60
   2  -7  -2  355.31   23.43
  -2  -7   2  394.22   20.49
  -2  -7   2  382.16   18.56
  -2   7   2  384.03   23.42
   2   7  -2  376.11   14.36
   2   7  -2  371.39   18.84
  -2   7   2  376.37   21.25
  -2   7   2  384.28   14.29
   2   7  -2  387.07   16.91
  -2   7   2  369.67   14.33
   2   7  -2  365.52   20.42
  -2   7   2  367.17   14.46
   2   7  -2  380.59   17.47
  -1  -7   2  301.84   17.18
  -1  -7   2  301.39   11.75
  -1  -7   2  311.10   14.90
  -1  -7   2  300.99   18.68
  -1  -7   2  316.23   15.60
   1  -7  -2  309.21   19.57
   1  -7  -2  305.41   11.82
   1   7  -2  297.13   11.78
  -1   7   2  313.85   11.76
   1   7  -2  317.48   11.73
  -1   7   2  317.02   11.85
  -1   7   2  305.14   14.95
  -1   7   2  309.87   15.65
  -1   7   2  305.48   17.36
   1   7  -2  311.30   11.73
  -1   7   2  291.38   11.75
   0  -7  -2  240.37   12.65
   0  -7   2  253.05    9.26
   0  -7  -2  245.68   15.65
   0  -7   2  255.58   14.93
   0  -7  -2  243.65   14.21
   0  -7  -2  243.32   12.08
   0  -7   2  237.55    9.23
   0  -7   2  261.11   16.86
   0  -7  -2  247.98    9.30
   0   7  -2  234.47    9.21
   0   7  -2  239.07   12.09
   0   7   2  240.10    9.26
   0   7  -2  232.92    9.29
   0   7  -2  251.22    9.22
   0   7   2  240.20    9.21
   0   7   2  239.59   12.00
   0   7   2  232.52   15.36
   0   7   2  247.29   14.20
   0   7  -2  224.51   12.51
   0   7  -2  222.31   13.82
   0   7   2  236.88    9.26
   0   7   2  230.27   12.48
  -1  -7  -2  279.10   12.95
  -1  -7  -2  276.42   16.11
   1  -7   2  276.51   18.60
  -1  -7  -2  277.69   10.64
   1  -7   2  260.93   10.53
  -1  -7  -2  287.24   14.81
   1  -7   2  288.70   10.66
  -1  -7  -2  276.20   10.69
  -1  -7  -2  276.53   13.43
   1   7   2  293.78   14.73
   1   7   2  290.36   16.04
   1   7   2  267.18   10.64
   1   7   2  285.67   12.85
  -1   7  -2  276.86   18.11
  -1   7  -2  259.12   10.66
   1   7   2  283.61   13.31
   1   7   2  276.97   10.66
  -1   7  -2  262.95   16.09
   2  -7   2   87.82    3.53
   2  -7   2  105.57   14.98
  -2  -7  -2   88.85    3.67
  -2  -7  -2   88.79    5.43
  -2  -7  -2   92.48    5.94
   2  -7   2   78.92   11.72
  -2  -7  -2   90.38    8.52
   2  -7   2   98.21    9.76
   2  -7   2   90.22    3.62
   2  -7   2   83.31    8.53
  -2  -7  -2   96.57    7.18
  -2   7  -2   83.41    3.62
   2   7   2   87.75    3.63
   2   7   2   90.96    5.27
  -2   7  -2   74.89    8.06
   2   7   2   85.57    3.59
   2   7   2   97.20    5.79
  -2   7  -2  109.63   13.97
   2   7   2   91.00    8.14
  -2   7  -2   91.11    7.62
   2   7   2   95.03    6.84
  -2   7  -2   74.87   12.36
   3  -7   2   30.86    7.21
   3  -7   2   43.47    1.88
   3  -7   2   36.07    8.30
  -3  -7  -2   42.34    2.03
   3  -7   2   42.60   11.63
   3  -7   2   30.44   10.43
   3  -7   2   43.40    1.92
  -3   7  -2   58.33    8.82
   3   7   2   44.31    1.84
  -3   7  -2   42.17   12.14
   3   7   2   40.85    1.89
   3   7   2   42.42    1.94
  -3   7  -2   37.40    7.05
  -3   7  -2   55.37   11.57
  -3   7  -2   40.76    1.94
   4  -7   2  207.32    8.36
  -4  -7  -2  214.48    8.55
  -4  -7  -2  218.89    8.52
  -4   7  -2  207.96    8.48
   4   7   2  216.48    8.43
   4   7   2  219.22    8.48
   4  -8  -2  102.47    4.12
   4  -8  -2  100.46    4.21
   4   8  -2   96.88    4.10
  -4   8   2  102.73    3.96
  -4   8   2   99.86    4.14
  -4   8   2   98.46    4.39
   3  -8  -2  400.38   21.38
   3  -8  -2  427.45   15.93
   3  -8  -2  371.56   28.88
   3  -8  -2  372.32   22.29
   3  -8  -2  401.74   15.98
   3  -8  -2  384.39   25.56
  -3   8   2  438.25   15.83
   3   8  -2  429.74   18.42
   3   8  -2  429.83   19.00
   3   8  -2  419.97   15.91
  -3   8   2  410.77   28.69
   3   8  -2  433.59   22.62
   3   8  -2  438.03   20.64
  -3   8   2  388.99   25.24
  -3   8   2  429.61   15.93
  -3   8   2  418.91   22.65
  -3   8   2  411.03   21.35
  -3   8   2  412.63   16.11
   2  -8  -2   40.70    6.26
  -2  -8   2   40.40    9.36
   2  -8  -2   40.47    7.11
   2  -8  -2   38.76    9.50
   2  -8  -2   42.59    1.94
  -2  -8   2   50.65   11.05
  -2  -8   2   45.62    1.89
   2  -8  -2   27.26    9.05
  -2  -8   2   47.01    7.26
   2  -8  -2   43.25    1.93
  -2  -8   2   56.97    6.36
   2   8  -2   42.44    1.86
   2   8  -2   49.22    4.98
   2   8  -2   40.74    5.54
   2   8  -2   44.61    1.92
   2   8  -2   36.08    9.55
  -2   8   2   45.11    1.91
  -2   8   2   43.92    1.84
  -2   8   2   49.81   11.11
  -2   8   2   51.24   12.50
   2   8  -2   38.23    7.10
  -2   8   2   42.35    2.02
  -2   8   2   46.54    6.35
  -2   8   2   62.94   14.43
  -1  -8   2  464.55   23.65
   1  -8  -2  455.51   21.04
  -1  -8   2  449.30   21.46
  -1  -8   2  440.49   25.16
  -1  -8   2  464.87   20.76
  -1  -8   2  438.76   17.08
   1  -8  -2  448.14   17.15
   1  -8  -2  452.63   21.85
   1  -8  -2  434.85   25.98
   1  -8  -2  438.92   23.86
  -1   8   2  468.50   23.78
  -1   8   2  455.75   17.08
  -1   8   2  432.47   17.18
   1   8  -2  421.31   17.09
  -1   8   2  445.31   17.08
   1   8  -2  456.52   17.05
   1   8  -2  422.52   17.05
  -1   8   2  466.86   25.57
  -1   8   2  467.25   21.67
   0  -8  -2  313.78   14.69
   0  -8  -2  307.52   17.01
   0  -8  -2  304.06   18.75
   0  -8   2  303.91   19.77
   0  -8   2  306.40   15.74
   0  -8   2  316.23   11.35
   0  -8  -2  301.87   11.38
   0  -8   2  294.72   14.91
   0  -8   2  301.84   17.72
   0  -8  -2  313.34   15.35
   0   8   2  293.70   11.35
   0   8   2  289.94   15.11
   0   8   2  304.20   16.98
   0   8  -2  252.35   11.44
   0   8   2  289.81   18.36
   0   8  -2  265.81   16.48
   0   8   2  296.55   11.34
   0   8  -2  291.31   11.29
   0   8  -2  278.10   15.03
   0   8  -2  275.22   18.44
   0   8   2  304.32   14.55
   1  -8   2   32.77    1.37
  -1  -8  -2   34.97    4.30
   1  -8   2   35.24    1.52
  -1  -8  -2   37.03    6.38
   1  -8   2   35.26    8.38
  -1  -8  -2   28.61    4.85
   1  -8   2   25.68    5.15
   1  -8   2   31.85    6.06
  -1  -8  -2   31.68    1.50
   1  -8   2   34.12    9.11
  -1  -8  -2   30.59    8.17
  -1   8  -2   33.82    7.46
  -1   8  -2   44.79   11.51
   1   8   2   32.51    7.93
  -1   8  -2   26.53    5.36
   1   8   2   37.40    4.74
  -1   8  -2   37.92    4.97
  -1   8  -2   31.31    1.49
   1   8   2   33.33    4.09
   1   8   2   30.87    1.46
   1   8   2   33.01    1.50
   1   8   2   33.62    6.13
  -2  -8  -2  298.95   11.70
  -2  -8  -2  323.56   15.71
   2  -8   2  309.55   20.01
   2  -8   2  294.90   17.15
  -2  -8  -2  311.92   13.75
   2  -8   2  296.92   22.53
   2  -8   2  300.42   11.67
  -2  -8  -2  294.69   17.03
  -2  -8  -2  311.48   14.30
   2  -8   2  296.67   16.28
   2   8   2  311.50   13.55
   2   8   2  309.15   16.68
  -2   8  -2  302.48   21.84
  -2   8  -2  300.95   17.07
   2   8   2  314.62   14.05
   2   8   2  293.38   11.70
  -2   8  -2  296.03   16.15
   2   8   2  297.64   11.67
   2   8   2  309.43   15.20
  -2   8  -2  284.18   11.69
   3  -8   2  192.76    7.55
  -3  -8  -2  205.51    7.69
   3  -8   2  193.01    7.59
   3  -8   2  191.91   14.62
   3  -8   2  174.74   21.61
   3  -8   2  187.23   13.43
   3  -8   2  198.19   18.08
  -3   8  -2  202.83   13.52
  -3   8  -2  165.01   20.72
  -3   8  -2  174.89   14.49
   3   8   2  199.70    7.67
  -3   8  -2  192.51    7.67
   3   8   2  197.24    7.64
  -3   8  -2  194.61   17.89
  -4  -8  -2   11.34    1.52
   4  -8   2    8.95    1.14
  -4  -8  -2   12.49    1.19
   4  -8   2   10.42    1.11
   4   8   2   10.81    0.99
  -4   8  -2    9.19    1.07
   4   8   2   10.74    1.02
   4  -9  -2   55.35    2.60
   4  -9  -2   59.87    2.58
   4   9  -2   56.31    2.51
  -4   9   2   51.45    2.77
  -4   9   2   57.47    2.56
  -3  -9   2   57.63    2.33
   3  -9  -2   55.47    8.88
   3  -9  -2   49.24    2.36
   3  -9  -2   40.66   10.34
   3  -9  -2   38.16   13.64
   3  -9  -2   56.11    2.37
   3  -9  -2   30.28    9.22
  -3   9   2   56.51   10.64
  -3   9   2   50.62    9.04
   3   9  -2   51.34    6.88
  -3   9   2   78.27   17.57
  -3   9   2   93.89   17.92
   3   9  -2   53.14    2.29
  -3   9   2   53.06    2.20
  -3   9   2   52.87    2.51
   3   9  -2   53.35    6.08
   3   9  -2   61.00   12.37
   3   9  -2   53.38    9.22
  -3   9   2   51.53    2.32
   2  -9  -2  202.63   23.58
  -2  -9   2  152.54   17.46
  -2  -9   2  166.69   11.94
  -2  -9   2  158.91   10.70
   2  -9  -2  159.78    6.29
   2  -9  -2  157.38    6.33
   2  -9  -2  197.57   18.81
  -2  -9   2  163.19   14.23
   2  -9  -2  189.81   15.06
   2  -9  -2  148.41   11.19
  -2  -9   2  160.47    6.25
   2   9  -2  149.49   14.33
   2   9  -2  149.55    6.29
   2   9  -2  156.96    6.24
  -2   9   2  154.17    6.20
  -2   9   2  156.51    6.40
  -2   9   2  149.82   11.04
  -2   9   2  156.63    6.27
  -2   9   2  166.08   17.48
  -2   9   2  194.42   17.68
   2   9  -2  165.24   10.29
   2   9  -2  163.91    9.59
   2   9  -2  159.42   12.06
   1  -9  -2  150.02   15.74
  -1  -9   2  145.64   10.90
  -1  -9   2  143.82   12.93
   1  -9  -2  186.80   15.93
  -1  -9   2  143.99   15.46
  -1  -9   2  148.04    5.83
   1  -9  -2  189.83   13.12
  -1  -9   2  145.07    5.92
  -1  -9   2  146.05    9.90
   1  -9  -2  145.39    5.97
   1  -9  -2  143.28    5.94
  -1   9   2  185.23   11.52
   1   9  -2  140.18    5.93
  -1   9   2  150.87    6.01
  -1   9   2  150.91    5.92
  -1   9   2  190.79   18.81
  -1   9   2  147.69   12.45
   1   9  -2  153.86    5.88
  -1   9   2  177.40   12.31
  -1   9   2  151.01    5.92
   1   9  -2  145.17    5.88
   0  -9   2    7.45    5.31
   0  -9   2   10.20    3.48
   0  -9   2   15.24    0.92
   0  -9  -2   14.71    0.88
   0  -9   2   15.10    4.37
   0  -9  -2   12.37    4.36
   0  -9  -2   17.78    4.24
   0  -9  -2   19.61    6.34
   0  -9   2   10.95    7.16
   0  -9  -2   15.98    7.70
   0   9   2   16.15    6.96
   0   9  -2   11.42    3.91
   0   9   2   17.87    5.49
   0   9  -2    4.51    5.02
   0   9   2   21.49    4.72
   0   9   2   15.38    0.86
   0   9  -2   19.73    4.37
   0   9   2   16.18    4.13
   0   9  -2   16.33    0.81
   0   9  -2   15.26    0.88
   1  -9   2  571.06   32.44
  -1  -9  -2  625.30   25.41
  -1  -9  -2  582.32   29.71
  -1  -9  -2  607.24   28.03
  -1  -9  -2  613.90   26.09
   1  -9   2  591.62   21.98
   1  -9   2  578.05   26.49
   1  -9   2  520.34   21.85
   1  -9   2  557.91   29.80
   1  -9   2  541.83   27.07
  -1  -9  -2  536.53   22.02
   1   9   2  565.06   21.98
  -1   9  -2  543.25   21.99
   1   9   2  621.33   25.79
  -1   9  -2  584.77   32.11
   1   9   2  538.49   21.96
   1   9   2  605.55   25.03
   1   9   2  613.60   27.65
  -1   9  -2  553.69   29.35
   1   9   2  587.61   29.12
  -2  -9  -2   53.57    6.34
  -2  -9  -2   49.60    7.98
   2  -9   2   50.48   11.90
  -2  -9  -2   41.67    2.27
   2  -9   2   66.67   14.31
   2  -9   2   50.20    8.79
   2  -9   2   49.46    7.67
  -2  -9  -2   52.72   10.75
  -2  -9  -2   60.27    5.52
   2  -9   2   51.38    2.21
   2   9   2   50.66    5.67
   2   9   2   48.37    2.21
  -2   9  -2   51.34    7.23
   2   9   2   55.45    9.70
  -2   9  -2   52.95   13.77
  -2   9  -2   50.27    2.23
  -2   9  -2   54.34    8.34
   2   9   2   42.39    7.19
   2   9   2   50.73    4.99
  -2   9  -2   62.80   14.36
   2   9   2   51.35    2.18
   3  -9   2  204.83   24.17
  -3  -9  -2  162.13    6.64
   3  -9   2  173.75   14.91
   3  -9   2  150.39   18.67
   3  -9   2  155.79   13.25
   3  -9   2  164.97    6.62
   3  -9   2  165.54    6.57
   3   9   2  165.24    6.65
  -3   9  -2  161.32   21.61
  -3   9  -2  194.61   15.18
  -3   9  -2  176.54   14.71
   3   9   2  169.49    6.69
  -3   9  -2  166.44    6.69
  -3   9  -2  163.94   17.64
  -4  -9  -2   88.48    3.66
   4  -9   2   80.09    3.56
   4  -9   2   82.37    3.58
   4   9   2   83.60    3.64
  -4   9  -2   83.73    3.67
   4   9   2   83.44    3.60
   4 -10  -2   39.01    1.98
   4 -10  -2   41.65    2.02
  -4  10   2   36.38    2.14
  -4  10   2   36.91    1.94
   4  10  -2   35.30    1.86
   3 -10  -2  120.89    4.99
   3 -10  -2  179.81   24.02
   3 -10  -2  117.49   11.97
   3 -10  -2  153.22   17.53
   3 -10  -2  118.32    5.03
   3 -10  -2  140.89   30.03
  -3  10   2  119.06    5.13
   3  10  -2  135.13   11.01
   3  10  -2  142.35   17.24
  -3  10   2  154.45   18.27
  -3  10   2  117.22    4.96
   3  10  -2  117.42    4.93
  -3  10   2  133.48   22.74
  -3  10   2  171.88   24.44
   3  10  -2  120.78    9.40
   3  10  -2  130.74   13.57
  -3  10   2  109.65   11.78
  -3  10   2  124.07    4.84
   2 -10  -2   11.80    5.87
   2 -10  -2   12.49    5.22
  -2 -10   2   19.34    5.62
  -2 -10   2   16.48    6.50
  -2 -10   2   13.91   10.77
   2 -10  -2   14.44    0.92
   2 -10  -2   13.53    0.94
   2 -10  -2   17.25   10.23
  -2 -10   2   19.59    8.42
  -2 -10   2   13.86    0.97
   2 -10  -2    3.26    7.00
   2  10  -2    9.30    5.85
   2  10  -2   13.29    0.81
  -2  10   2   14.90    0.81
  -2  10   2    0.48    9.39
  -2  10   2   15.26    0.92
   2  10  -2   11.53    8.28
   2  10  -2    8.24    3.64
   2  10  -2   10.18    4.28
   2  10  -2   13.22    0.88
  -2  10   2   13.92    1.01
  -2  10   2   30.60   16.40
  -2  10   2   25.31    8.86
  -2  10   2   11.99   14.30
   1 -10  -2  159.36   13.57
   1 -10  -2  121.98    4.86
   1 -10  -2  134.77    9.88
  -1 -10   2  128.21   11.37
  -1 -10   2  119.19    4.80
   1 -10  -2  167.72   17.27
  -1 -10   2  133.31   17.06
  -1 -10   2  116.52    4.69
   1 -10  -2  116.72    4.83
  -1 -10   2  140.82   14.31
  -1 -10   2  132.01    9.88
  -1  10   2  118.26    4.79
   1  10  -2  114.96    4.75
  -1  10   2  117.59    4.87
  -1  10   2  118.76    9.19
  -1  10   2  113.38    9.95
  -1  10   2  113.86   14.22
   1  10  -2  114.37    4.80
   0 -10   2   68.37    2.80
   0 -10   2   62.23    7.43
   0 -10  -2   76.61    7.09
   0 -10  -2   53.15   12.38
   0 -10  -2   70.51    2.89
   0 -10   2   66.34    2.87
   0 -10  -2   70.84    7.91
   0 -10   2   69.72    8.66
   0 -10   2   92.00   14.42
   0 -10   2   72.53   11.24
   0 -10  -2   73.42   10.07
   0  10   2   73.33    8.10
   0  10   2   71.15    7.09
   0  10   2   68.69    2.86
   0  10   2   69.65    2.90
   0  10  -2   65.63    2.90
   0  10  -2   69.15    6.97
   0  10  -2   67.75    2.81
   0  10   2   64.40   11.84
   0  10   2   79.44   10.34
   0  10  -2   72.76    9.94
   0  10  -2   78.18   13.06
  -1 -10  -2   33.65    6.34
  -1 -10  -2   39.01    8.10
  -1 -10  -2   46.01   10.74
  -1 -10  -2   32.32    1.48
   1 -10   2   27.33    6.45
   1 -10   2   26.05    1.36
   1 -10   2   81.15   19.97
   1 -10   2   53.14   14.69
   1 -10   2   29.09    1.46
  -1 -10  -2   25.26    5.22
   1 -10   2   38.48   10.14
  -1  10  -2   30.11    1.46
   1  10   2   31.18    5.11
   1  10   2   29.69    8.27
   1  10   2   28.97    1.40
  -1  10  -2   39.71    9.20
  -1  10  -2   48.10    8.65
   1  10   2   39.37    6.18
   1  10   2   30.47    7.95
  -1  10  -2   17.65    7.62
  -1  10  -2   30.35    7.82
   1  10   2   29.69    1.45
   2 -10   2   40.10    1.96
  -2 -10  -2   35.29    9.59
   2 -10   2   54.43   10.38
  -2 -10  -2   47.72    5.96
   2 -10   2   59.39   12.72
   2 -10   2   35.91    9.50
  -2 -10  -2   43.96    1.95
  -2 -10  -2   42.20    7.06
  -2 -10  -2   40.11    9.12
   2 -10   2   55.91   16.06
   2  10   2   47.66   10.89
   2  10   2   53.52    8.42
   2  10   2   41.33    5.39
  -2  10  -2   40.00    1.95
   2  10   2   40.08    1.95
  -2  10  -2   46.32    8.97
  -2  10  -2   65.17   14.09
   2  10   2   48.63    6.28
  -2  10  -2   34.00   11.62
  -2  10  -2   38.80    7.64
   2  10   2   41.40    1.92
   3 -10   2  138.08    5.64
   3 -10   2  147.65   19.80
   3 -10   2  120.10   14.65
  -3 -10  -2  142.17    5.70
   3 -10   2  155.42    5.74
   3 -10   2  129.24   25.08
   3 -10   2  120.70   13.12
  -3  10  -2  151.14   13.47
   3  10   2  141.98    5.76
   3  10   2  145.29    5.73
  -3  10  -2  119.90   18.50
  -3  10  -2  202.38   38.05
  -3  10  -2  139.08   15.07
  -3  10  -2  140.10    5.76
  -4 -10  -2   47.03    2.27
   4 -10   2   40.99    2.23
   4 -10   2   41.46    2.15
   4  10   2   41.20    2.14
   4  10   2   42.81    2.12
  -4  10  -2   40.03    2.21
   4 -11  -2    5.15    1.01
   4 -11  -2    4.48    0.84
  -4  11   2    6.95    1.24
  -4  11   2    6.74    0.82
   4  11  -2    5.74    0.92
   3 -11  -2  -25.04   22.25
   3 -11  -2   -1.34    7.95
  -3 -11   2    3.51    0.75
   3 -11  -2    4.50    0.81
   3 -11  -2   22.06   15.46
   3 -11  -2    8.57    9.96
   3 -11  -2    4.03    0.68
  -3  11   2    6.75   13.94
  -3  11   2    5.20    8.20
  -3  11   2    2.27    0.61
  -3  11   2    2.78   10.88
  -3  11   2    3.95    0.49
  -3  11   2    3.66    0.57
  -3  11   2   14.61    7.50
   3  11  -2    3.70    0.67
  -2 -11   2   39.29    8.64
  -2 -11   2   70.99   14.25
   2 -11  -2   44.87   10.29
  -2 -11   2   51.80   10.50
  -2 -11   2   51.08    2.20
   2 -11  -2   57.10    9.11
  -2 -11   2   31.22   13.31
   2 -11  -2   48.93    2.21
   2 -11  -2   48.32    2.21
   2 -11  -2   57.46   19.17
   2 -11  -2   56.55   14.54
   2  11  -2   38.01   10.73
   2  11  -2   55.09    8.47
   2  11  -2   32.05    6.84
  -2  11   2   48.72    2.29
  -2  11   2   50.34    2.20
   2  11  -2   49.00    2.13
  -2  11   2   43.53    8.78
  -2  11   2   50.20   13.46
   2  11  -2   77.62   15.11
  -2  11   2   81.48   20.22
  -2  11   2   59.11   10.77
   2  11  -2   47.43    2.19
   1 -11  -2    9.67    0.81
  -1 -11   2    5.11    8.91
  -1 -11   2    6.98    4.67
   1 -11  -2   15.96   14.76
  -1 -11   2   14.18   12.60
  -1 -11   2    9.01    0.58
   1 -11  -2    6.80    3.51
   1 -11  -2    4.33    8.47
  -1 -11   2    9.30    6.19
  -1 -11   2    9.42    0.81
   1 -11  -2   24.77   11.93
   1 -11  -2    9.47    0.76
  -1  11   2    7.70    0.68
  -1  11   2    8.26    7.37
  -1  11   2    8.39    0.82
  -1  11   2   13.41    5.25
  -1  11   2   15.18    6.32
   1  11  -2    9.11    0.64
   1  11  -2    9.31    0.70
  -1  11   2    7.57    9.05
   0 -11  -2   46.90    2.09
   0 -11   2   48.02    2.12
   0 -11  -2   47.29    2.11
   0 -11   2   46.24    2.02
   0 -11   2   83.03   21.51
   0 -11   2   28.33    8.13
   0 -11  -2   46.64    7.82
   0 -11   2   46.35    8.75
   0 -11  -2   58.07   10.70
   0 -11  -2   66.13   14.52
   0 -11  -2   54.20    6.83
   0 -11   2   50.58    7.63
   0  11   2   48.93    2.10
   0  11   2   46.33    8.32
   0  11  -2   45.05    2.12
   0  11  -2   54.57    8.25
   0  11   2   47.71    2.12
   0  11   2   63.69   13.71
   0  11  -2   47.88   10.42
   0  11   2   43.45    6.96
   0  11   2   42.93   10.79
   0  11  -2   52.63    7.07
   0  11  -2   51.84   13.27
  -1 -11  -2   71.11    7.45
   1 -11   2   67.20    8.58
   1 -11   2   73.98   17.35
   1 -11   2   85.98   12.70
  -1 -11  -2   66.38    2.79
  -1 -11  -2   55.98   14.21
  -1 -11  -2   75.56    8.60
  -1 -11  -2   65.86    2.82
   1 -11   2   97.24   23.63
   1 -11   2   66.46    2.84
  -1 -11  -2   68.39   10.98
   1  11   2   65.07    2.84
  -1  11  -2   67.20   11.82
   1  11   2   57.60   10.23
  -1  11  -2   63.67    8.27
   1  11   2   77.12   13.46
   1  11   2   65.29    2.80
  -1  11  -2   64.52    2.85
  -1  11  -2   80.97   11.22
   1  11   2   68.07    7.97
  -1  11  -2   75.33   15.03
   1  11   2   59.87    6.87
   2 -11   2   15.07    6.36
  -2 -11  -2   17.06    1.07
  -2 -11  -2   16.40    1.04
   2 -11   2   16.60   10.04
  -2 -11  -2   16.87    5.02
   2 -11   2   12.48   13.57
   2 -11   2   16.94    1.18
  -2 -11  -2   24.55    6.32
  -2 -11  -2   30.17   10.99
  -2 -11  -2   21.79    7.83
   2 -11   2   20.11    7.64
   2  11   2   19.39    4.58
  -2  11  -2   17.33    1.09
   2  11   2   13.17    8.80
  -2  11  -2   12.80    9.54
  -2  11  -2   33.73   12.51
  -2  11  -2   25.82    7.63
   2  11   2   15.69    1.04
   2  11   2   16.21    1.02
   2  11   2   18.07    5.07
   2  11   2   13.99    6.31
  -2  11  -2   -2.12   11.16
   3 -11   2    9.28   18.68
  -3 -11  -2   10.71    1.01
   3 -11   2    5.40    8.47
   3 -11   2   10.34    1.15
   3 -11   2   12.50   12.88
   3 -11   2   -0.32    6.28
   3 -11   2    9.96    1.13
  -3  11  -2   10.43    1.08
  -3  11  -2   17.89   18.95
   3  11   2   10.71    0.97
  -3  11  -2   10.11    6.20
   3  11   2    9.41    0.98
  -3  11  -2   18.82   12.71
  -3  11  -2    2.51    8.11
  -3 -12   2   15.97    1.36
   3 -12  -2   15.95    1.26
   3 -12  -2   25.97   13.83
   3 -12  -2   14.03    1.18
   3 -12  -2    2.34    7.81
   3 -12  -2   -2.42   18.45
   3 -12  -2   24.31   10.15
  -3  12   2   14.78    1.25
  -3  12   2   13.18    0.92
  -3  12   2   13.67    1.23
   3  12  -2   14.27    1.02
  -3  12   2   15.42   11.85
  -3  12   2   16.54   10.14
  -3  12   2   16.01   13.21
  -3  12   2   11.39   16.04
  -2 -12   2    1.27    0.51
  -2 -12   2   -7.35    6.59
   2 -12  -2    1.34    0.49
  -2 -12   2   10.47   11.72
   2 -12  -2    9.93    9.38
  -2 -12   2    6.43    8.71
  -2 -12   2  -11.71   15.28
   2 -12  -2   -0.33   12.78
   2 -12  -2   10.17   15.92
   2 -12  -2    3.55    7.78
   2 -12  -2    2.03    0.49
  -2  12   2    9.62   11.25
  -2  12   2    1.49    0.50
  -2  12   2    2.88    8.41
   2  12  -2    1.53    0.42
  -2  12   2  -18.84   19.02
  -2  12   2   -3.58    7.58
  -2  12   2    1.62    0.41
   2  12  -2    1.90    0.41
  -1 -12   2    4.24    0.52
   1 -12  -2    2.37    5.79
  -1 -12   2    5.15    0.78
  -1 -12   2    3.70    7.39
   1 -12  -2    4.71    0.78
  -1 -12   2    1.98    5.12
  -1 -12   2   -2.76    9.70
   1 -12  -2   12.03   10.11
   1 -12  -2   33.26   18.67
  -1 -12   2   10.40   14.58
   1 -12  -2    4.65    7.23
   1 -12  -2    4.63    0.65
  -1  12   2    4.45    9.69
  -1  12   2    5.54    0.67
  -1  12   2    5.14    0.78
   1  12  -2    5.49    0.63
  -1  12   2    8.88    5.40
   1  12  -2    5.11    0.57
  -1  12   2    7.61   12.07
  -1  12   2   13.58    6.97
   0 -12  -2   10.63    5.96
   0 -12  -2    9.62    0.85
   0 -12  -2    8.14    5.16
   0 -12  -2    7.72    0.74
   0 -12   2    4.87    4.72
   0 -12   2    3.76    9.35
   0 -12   2    8.05    0.88
   0 -12  -2   16.18    8.19
   0 -12   2   19.77    6.90
   0 -12  -2   -0.68   10.92
   0 -12   2   -0.07   12.39
   0  12  -2    1.63    5.71
   0  12  -2    7.68    0.68
   0  12  -2   -0.03    4.79
   0  12  -2    5.31    8.70
   0  12   2    3.19    4.46
   0  12   2   11.85    5.31
   0  12   2    8.69    7.35
   0  12   2    8.37    0.75
   0  12  -2   11.61    4.84
   0  12   2   16.60   10.81
   0  12   2    8.16    0.77
  -1 -12  -2    7.63    4.45
  -1 -12  -2   18.45    1.07
   1 -12   2   36.73   23.98
  -1 -12  -2   12.96    5.65
   1 -12   2   16.29   16.85
   1 -12   2   38.47   13.98
   1 -12   2   11.91    5.00
  -1 -12  -2   14.67   10.66
  -1 -12  -2   18.74    1.10
  -1 -12  -2    8.95    7.45
   1 -12   2   17.30    1.14
   1  12   2   11.98   10.39
  -1  12  -2   -4.73   12.07
   1  12   2   17.95    1.09
  -1  12  -2   16.76    1.08
   1  12   2   17.58    1.03
  -1  12  -2   15.91    8.93
   1  12   2   10.09    4.37
   1  12   2    7.01    7.39
  -1  12  -2   33.89   12.44
   1  12   2   19.78    5.92
  -1  12  -2   16.71    6.17
  -2 -12  -2    4.85    6.56
  -2 -12  -2   -3.25    5.14
   2 -12   2    7.37   15.64
   2 -12   2   -3.87    6.92
   2 -12   2    7.37   10.94
   2 -12   2    1.17    0.54
  -2 -12  -2    0.63    0.53
  -2 -12  -2   -0.26    8.84
  -2 -12  -2    1.03    0.45
  -2 -12  -2   -7.77   11.84
   2 -12   2   -4.56    5.41
   2  12   2    0.10    5.11
  -2  12  -2   -1.39    6.89
   2  12   2   -1.22    9.93
   2  12   2    5.87    7.56
   2  12   2    0.62    0.44
  -2  12  -2   33.71   14.37
  -2  12  -2    0.56    0.42
   2  12   2    1.16    0.44
   2  12   2    4.74    4.42
  -2  12  -2   -4.33    8.46
  -2  12  -2  -14.43   12.85
   3 -12   2   25.10   24.86
  -3 -12  -2    4.33    7.08
   3 -12   2   28.91   18.49
  -3 -12  -2    5.79    0.71
  -3 -12  -2   16.76    9.68
   3 -12   2    4.17    0.78
   3 -12   2   21.83   14.09
  -3 -12  -2  -14.23   12.74
  -3 -12  -2    0.63    5.83
   3 -12   2    2.81    0.76
   3 -12   2    2.56   12.71
  -3  12  -2    4.14    0.72
   3  12   2    3.82    0.66
   3  12   2    4.79    0.86
   3 -13  -2    2.67    0.73
  -3 -13   2    1.24    0.85
   3 -13  -2    1.18    0.60
   3 -13  -2    1.53    8.86
   3 -13  -2    7.99    7.48
   3  13  -2    1.82    0.55
  -3  13   2    1.90    0.77
  -3  13   2    2.31    0.66
   2 -13  -2  102.58    4.26
   2 -13  -2   97.33    4.23
   2 -13  -2  150.40   34.25
  -2 -13   2  104.16    4.22
   2 -13  -2  172.67   26.62
  -2  13   2  117.17   23.08
   2  13  -2  102.81    4.22
  -2  13   2  101.42   14.51
   2  13  -2   97.21    4.13
  -2  13   2  100.21    4.31
  -2  13   2   80.30   16.71
  -2  13   2  100.32    4.09
  -2  13   2  115.35   25.86
   1 -13  -2   34.87   16.85
   1 -13  -2   41.15   21.90
   1 -13  -2   28.18    1.57
  -1 -13   2   27.75    1.60
   1 -13  -2   57.31   31.34
   1 -13  -2   31.70    1.57
  -1  13   2   61.35   18.15
  -1  13   2   37.01   15.57
   1  13  -2   31.63    1.52
  -1  13   2   30.74    1.49
   1  13  -2   30.22    1.44
  -1  13   2   59.43   15.85
  -1  13   2   28.48    1.59
  -1  13   2   31.54   10.82
   0 -13  -2   13.44   14.51
   0 -13   2   26.45    1.46
   0 -13  -2   31.94    8.45
   0 -13   2   71.94   24.62
   0 -13  -2   22.50   10.28
   0 -13   2   52.90   11.43
   0 -13  -2   23.24    1.44
   0 -13   2   38.91   13.62
   0 -13  -2   26.46    1.40
   0 -13   2   41.22    9.73
   0 -13  -2   28.93    8.13
   0  13  -2   18.12   17.03
   0  13   2   26.28    1.43
   0  13   2   27.06    1.39
   0  13  -2   33.67    9.41
   0  13  -2   25.84    1.32
   0  13  -2   31.21    7.73
   0  13  -2   32.06   11.80
   1 -13   2   -8.69   12.18
  -1 -13  -2    0.82    0.44
   1 -13   2   -0.19   16.72
   1 -13   2   -0.14    0.48
   1 -13   2    3.29   10.92
  -1 -13  -2    0.08    0.49
   1 -13   2    9.31    9.53
   1  13   2    0.61    0.37
  -1  13  -2    0.33   19.38
  -1  13  -2   -6.95   10.86
  -1  13  -2    0.39    0.38
   1  13   2   -0.07    0.41
  -1  13  -2    0.01    5.17
  -1  13  -2   -5.11    5.52
   2 -13   2   11.10   25.58
   2 -13   2  -36.79   17.98
   2 -13   2   -7.96    8.50
  -2 -13  -2    2.62    0.57
   2 -13   2    1.97    0.63
  -2 -13  -2    2.10    0.58
   2 -13   2   18.01   13.24
   2  13   2    2.55    0.56
  -2  13  -2    1.78    0.51
  -2  13  -2    9.87    8.83
  -2  13  -2   22.42   13.26
  -2  13  -2   19.16   16.83
   2  13   2    1.46    0.50
  -2  13  -2  -13.54   15.78
   3 -13   2    0.19    0.74
  -3 -13  -2    0.64    0.63
   3 -13   2    0.61    0.72
   3  13   2   -0.25    0.55
   3  13   2    0.18    0.53
  -3  13  -2    0.98    0.55
  -2 -14   2   -1.03    0.61
   2 -14  -2    0.61    0.54
   2 -14  -2   -0.14    0.60
  -2  14   2    0.03    0.53
   2  14  -2    0.11    0.44
  -2  14   2    0.50    0.45
   2  14  -2    0.03    0.43
   1 -14  -2   20.11    1.22
  -1 -14   2   17.97    1.33
   1 -14  -2   18.18    1.31
  -1  14   2   18.27    1.15
   1  14  -2   17.51    1.12
  -1  14   2   17.72    1.26
   1  14  -2   18.39    1.06
   0 -14  -2  107.66    4.38
   0 -14   2   98.27    4.37
   0 -14  -2  103.67    4.37
   0  14   2  106.73    4.36
   0  14  -2  106.54    4.28
   0  14  -2  108.43    4.26
   0  14   2  107.45    4.40
  -1 -14  -2    2.14    0.54
   1 -14   2    2.05    0.63
  -1 -14  -2    2.53    0.57
   1  14   2    2.10    0.48
   1  14   2    2.19    0.50
  -1  14  -2    1.72    0.51
  -2 -14  -2  131.37    5.40
   2 -14   2  128.38    5.53
  -2 -14  -2  134.06    5.40
   2  14   2  131.44    5.47
   2  14   2  138.48    5.55
  -2  14  -2  138.80    5.57
   2 -15  -2  103.58    4.36
  -2 -15   2   96.87    4.36
   2 -15  -2  102.15    4.37
  -2  15   2  100.79    4.39
   2  15  -2  103.44    4.19
   2  15  -2   98.23    4.27
  -2  15   2  101.49    4.15
   1 -15  -2   59.08    2.79
  -1 -15   2   54.04    2.83
   1 -15  -2   61.86    2.75
   1  15  -2   60.02    2.60
  -1  15   2   61.15    2.78
   1  15  -2   60.57    2.69
  -1  15   2   60.33    2.66
   0 -15  -2   26.10    1.64
   0 -15  -2   27.00    1.58
   0 -15   2   27.15    1.69
   0  15  -2   31.47    1.45
   0  15  -2   25.91    1.46
   0  15   2   29.09    1.56
   0  15   2   29.00    1.61
  -1 -15  -2   94.46    3.98
   1 -15   2   90.64    4.05
  -1 -15  -2   93.32    3.94
  -1  15  -2   94.48    4.04
   1  15   2   93.36    3.99
   1  15   2   94.88    3.93
  -2 -15  -2   84.75    3.63
   2 -15   2   76.38    3.70
  -2 -15  -2   82.40    3.53
   2  15   2   82.37    3.60
   2  15   2   86.25    3.69
  -2  15  -2   81.72    3.67
   1 -16  -2  145.65    5.89
   1 -16  -2  138.63    5.93
  -1 -16   2  140.17    5.94
   1  16  -2  143.57    5.76
  -1  16   2  149.01    5.96
   1  16  -2  144.49    5.84
  -1  16   2  143.05    5.80
   0 -16   2  151.81    6.58
   0 -16  -2  159.01    6.51
   0 -16  -2  155.56    6.55
   0  16   2  169.44    6.61
   0  16  -2  168.28    6.41
   0  16   2  162.77    6.51
   1 -16   2    0.75    0.72
  -1 -16  -2    0.71    0.73
  -1  16  -2    0.90    0.57
  -5   0   3    1.50    0.55
  -5   0   3   -0.46    0.73
   4   0  -3    6.01    7.69
   4   0  -3    2.75    4.20
   4   0  -3    3.46    5.70
   4   0  -3   -0.37    3.41
   3   0  -3    3.71    3.49
   3   0  -3    0.02    4.37
  -3   0   3    3.12    4.33
  -3   0   3    4.01    3.12
   3   0  -3   -0.35    2.46
  -3   0   3    0.67    5.41
   3   0  -3    4.09    5.98
  -3   0   3   -0.46    2.36
  -2   0   3   -0.30    0.29
  -2   0   3    1.45    2.13
   2   0  -3   -1.25    3.48
   2   0  -3   -0.18    0.30
   2   0  -3   -0.07    0.15
  -2   0   3   -2.99    3.94
  -2   0   3    0.37    1.83
  -2   0   3    0.11    0.20
   2   0  -3    2.22    2.17
   2   0  -3    1.39    1.83
  -2   0   3    0.37    0.24
   2   0  -3    0.61    2.73
  -2   0   3   -2.95    2.84
  -1   0   3    0.07    0.21
   1   0  -3    0.17    2.88
   1   0  -3   -0.33    0.24
   1   0  -3   -0.54    0.13
   1   0  -3    1.65    2.52
  -1   0   3   -0.27    0.17
   1   0  -3   -2.41    1.98
   1   0  -3   -3.54    2.87
   0   0  -3   -0.68    2.32
   0   0  -3   -0.60    1.29
   0   0   3    0.18    0.15
   0   0  -3    2.31    2.82
   0   0  -3   -0.85    2.63
   0   0  -3   -0.89    2.38
   0   0  -3    0.13    1.45
   0   0  -3    2.86    3.12
   0   0  -3   -0.04    0.21
   0   0  -3    0.25    0.19
   0   0  -3   -0.90    1.92
   1   0   3    1.90    2.39
  -1   0  -3   -0.15    1.35
   1   0   3   -1.45    2.84
  -1   0  -3    1.03    2.22
   1   0   3   -0.09    0.11
  -1   0  -3    0.80    3.11
  -1   0  -3    0.72    0.27
  -1   0  -3   -0.04    1.63
   1   0   3    0.75    1.72
   1   0   3   -0.15    0.15
   1   0   3   -0.02    0.18
   1   0   3    0.11    0.10
   1   0   3   -1.28    1.38
  -1   0  -3    0.20    0.10
  -1   0  -3   -0.01    0.22
   2   0   3    0.29    0.25
   2   0   3    2.43    1.92
  -2   0  -3    0.27    0.22
   2   0   3    0.20    0.17
   2   0   3   -2.09    3.87
  -2   0  -3   -3.21    3.70
  -2   0  -3   -0.03    0.32
  -2   0  -3    1.64    1.93
   2   0   3    0.73    2.16
  -2   0  -3   -0.79    2.88
   2   0   3   -3.83    2.72
  -2   0  -3   -0.05    2.03
   3   0   3    1.55    4.05
   3   0   3   -3.22    2.97
  -3   0  -3    0.72    2.87
  -3   0  -3    0.89    5.15
  -3   0  -3    2.03    3.90
   3   0   3   -0.16    0.22
  -3   0  -3   -2.09    2.18
   3   0   3    0.12    0.35
   3   0   3   -0.82    2.55
  -3   0  -3    0.31    0.28
   3   0   3   -5.79    5.19
  -4   0  -3    1.98    4.97
  -4   0  -3    1.29    2.98
   4   0   3    0.12    0.49
  -4   0  -3    4.06    3.81
  -4   0  -3    3.82    6.50
   5   0   3    0.91    0.65
  -5   0  -3    0.67    0.67
  -5  -1   3    2.39    0.59
  -5  -1   3    3.65    0.96
  -5   1   3    1.81    0.80
  -5   1   3    2.45    0.55
  -4  -1   3   46.60    2.33
   4  -1  -3   41.07    6.21
   4  -1  -3   34.70    9.29
   4  -1  -3   35.03    7.21
   4  -1  -3   48.51   13.00
  -4  -1   3   48.14    1.94
  -4   1   3   34.65    9.57
  -4   1   3   37.39    7.42
  -4   1   3   44.26    1.95
   4   1  -3   43.40    9.37
  -4   1   3   44.19    6.26
   4   1  -3   40.44    5.96
  -4   1   3   45.47    2.27
  -4   1   3   40.08   10.12
   4   1  -3   34.41    9.22
   4   1  -3   41.50    6.96
   3  -1  -3   64.49    6.70
   3  -1  -3   69.06    6.02
  -3  -1   3   61.45    2.59
  -3  -1   3   61.12    2.85
   3  -1  -3   66.45   10.55
  -3  -1   3   68.37    2.58
   3  -1  -3   52.01    8.36
   3  -1  -3   67.53    2.59
  -3   1   3   57.40    6.46
  -3   1   3   61.90    2.85
   3   1  -3   64.38    6.42
   3   1  -3   59.20    5.59
  -3   1   3   58.41    9.84
  -3   1   3   61.62    5.81
  -3   1   3   62.49    2.59
   3   1  -3   61.67   10.40
  -3   1   3   77.62    8.61
   3   1  -3   60.76    8.23
   2  -1  -3  283.46   17.52
   2  -1  -3  286.90   16.11
   2  -1  -3  287.07   14.11
  -2  -1   3  295.14   11.50
  -2  -1   3  323.51   11.46
   2  -1  -3  317.77   11.49
   2  -1  -3  280.33   14.56
   2  -1  -3  304.31   11.50
  -2   1   3  293.49   11.50
   2   1  -3  307.13   11.44
  -2   1   3  289.83   11.66
   2   1  -3  324.97   11.48
   2   1  -3  303.54   14.66
  -2   1   3  323.98   11.52
  -2   1   3  283.29   15.91
  -2   1   3  302.90   14.75
   2   1  -3  320.14   17.83
   2   1  -3  292.25   15.96
  -2   1   3  286.42   14.02
  -2   1   3  283.13   17.27
   2   1  -3  292.22   14.04
   1  -1  -3    1.95    2.03
   1  -1  -3   -0.45    2.20
   1  -1  -3    0.34    0.17
  -1  -1   3    0.23    0.19
   1  -1  -3    0.55    0.27
   1  -1  -3   -0.23    1.60
   1  -1  -3    0.94    3.00
   1   1  -3    0.84    0.16
  -1   1   3    0.51    0.23
   1   1  -3   -0.10    0.24
  -1   1   3   -2.39    2.65
   1   1  -3    0.50    1.39
  -1   1   3    0.21    0.23
  -1   1   3    2.65    3.08
   1   1  -3    2.16    1.67
   1   1  -3   -0.13    1.73
   1   1  -3    0.76    1.80
   1   1  -3   -0.54    3.55
  -1   1   3    0.32    0.18
  -1   1   3   -0.25    1.47
   1   1  -3   -1.05    2.53
   1   1  -3   -1.28    2.31
  -1   1   3    0.95    1.90
   1   1  -3    2.77    3.61
   0  -1   3   43.26    1.77
   0  -1  -3   42.69    3.51
   0  -1   3   41.62    4.03
   0  -1  -3   55.21    7.23
   0  -1   3   51.50    7.60
   0  -1   3   40.80    3.64
   0  -1  -3   44.26    1.79
   0  -1  -3   39.88    4.73
   0  -1  -3   43.70    1.85
   0  -1   3   51.19    6.03
   0  -1  -3   48.11    4.03
   0   1  -3   55.29    6.14
   0   1  -3   44.88    3.75
   0   1  -3   42.56    4.08
   0   1   3   43.81    1.76
   0   1   3   40.68    1.75
   0   1  -3   39.76    5.74
  -1  -1  -3   42.41    4.78
   1  -1   3   36.35    1.51
   1  -1   3   35.78    4.05
   1  -1   3   36.21    1.53
  -1  -1  -3   38.05    3.42
  -1  -1  -3   39.33    5.70
   1  -1   3   31.18    5.01
  -1  -1  -3   39.74    3.83
   1  -1   3   40.82    6.38
   1  -1   3   33.36    3.50
  -1   1  -3   36.34    3.90
   1   1   3   37.77    1.51
  -1   1  -3   29.16    5.53
   1   1   3   41.17    1.54
  -1   1  -3   39.65    4.84
  -1   1  -3   36.14    1.58
   1   1   3   36.24    1.49
   1   1   3   36.66    1.49
  -1   1  -3   33.56    3.37
   2  -1   3  120.53    7.64
   2  -1   3  105.90    8.72
  -2  -1  -3  120.26    7.30
   2  -1   3  117.23    4.63
  -2  -1  -3  126.44    6.93
  -2  -1  -3  134.09    4.65
  -2  -1  -3  116.78    9.77
   2  -1   3  120.64    4.66
   2  -1   3  121.70   10.69
  -2  -1  -3  118.14    8.48
   2  -1   3  107.36    4.59
   2  -1   3  114.44    7.02
  -2   1  -3  113.01    7.42
   2   1   3  122.70    4.64
   2   1   3  117.38    4.63
   2   1   3  115.71    4.61
  -2   1  -3  136.16    4.62
  -2   1  -3  112.58   10.42
  -2   1  -3  117.93   12.25
  -2   1  -3   98.09    8.43
  -2   1  -3  118.14    4.60
  -3  -1  -3   58.91    6.46
   3  -1   3   57.69    2.42
   3  -1   3   55.97    7.76
   3  -1   3   63.15   10.09
   3  -1   3   55.75    2.34
   3  -1   3   55.74    5.39
  -3  -1  -3   59.75    4.59
   3  -1   3   51.65    6.10
  -3  -1  -3   62.71    2.40
  -3  -1  -3   60.72    8.14
  -3  -1  -3   59.97    5.15
   3   1   3   56.27    2.39
  -3   1  -3   61.03    2.42
  -3   1  -3   53.21    9.70
  -3   1  -3   58.55    7.76
  -3   1  -3   53.93    5.31
  -3   1  -3   60.67    6.13
   3   1   3   61.89    2.41
   3   1   3   55.25    2.41
   4  -1   3  140.62   10.08
   4  -1   3  137.84    9.16
   4  -1   3  145.54    5.67
   4  -1   3  134.32   15.21
   4  -1   3  155.13    5.77
   4  -1   3  136.95   12.20
  -4  -1  -3  168.65    5.82
  -4   1  -3  132.33    9.10
  -4   1  -3  121.42   11.94
  -4   1  -3  141.09   10.05
   4   1   3  152.73    5.75
  -4   1  -3  132.99   14.62
   5  -1   3   20.08    1.50
  -5  -1  -3   21.38    1.50
  -5   1  -3   20.98    2.00
   5   1   3   18.58    1.43
  -5  -2   3   75.81    3.09
  -5  -2   3   72.82    3.61
  -5   2   3   69.52    3.49
  -5   2   3   70.45    3.08
   4  -2  -3    0.25    4.76
   4  -2  -3   -3.07    6.07
  -4  -2   3    0.15    0.56
   4  -2  -3   -4.52    8.36
   4  -2  -3    3.33    4.13
  -4  -2   3    0.98    0.40
   4   2  -3    4.68    6.67
   4   2  -3   -5.96    5.12
  -4   2   3    2.23    8.75
   4   2  -3    6.05    4.34
  -4   2   3   -2.89    6.45
   4   2  -3    9.10    9.49
  -4   2   3    1.07    0.54
   4   2  -3    7.04    4.05
   4   2  -3  -10.61    7.00
  -4   2   3    3.98    5.13
   4   2  -3   -1.59    5.08
  -4   2   3   -5.39    3.70
  -4   2   3    0.94    0.38
   4   2  -3    2.46    3.26
  -3  -2   3   36.66    1.90
   3  -2  -3   39.25    2.00
   3  -2  -3   44.65    6.03
   3  -2  -3   37.00    1.58
   3  -2  -3   39.11    8.97
   3  -2  -3   29.84    7.66
   3  -2  -3   36.25    5.05
  -3  -2   3   35.85    1.58
  -3   2   3   41.43    9.43
  -3   2   3   36.06    4.97
  -3   2   3   36.19    1.60
   3   2  -3   39.12    9.09
   3   2  -3   35.43    8.54
   3   2  -3   35.19    4.60
  -3   2   3   43.51    7.62
   3   2  -3   34.89    5.80
   3   2  -3   32.68    6.84
  -3   2   3   33.35    5.71
  -3   2   3   33.78    1.81
   3   2  -3   35.46    5.32
   3   2  -3   37.61    5.13
   3   2  -3   27.73    6.55
   2  -2  -3  307.14   14.63
   2  -2  -3  294.93   15.12
   2  -2  -3  297.31   18.29
   2  -2  -3  317.49   11.74
   2  -2  -3  296.50   16.74
  -2  -2   3  311.62   11.73
  -2   2   3  302.72   11.73
   2   2  -3  323.34   11.70
   2   2  -3  304.72   15.10
   2   2  -3  305.83   14.39
   2   2  -3  297.63   14.46
   2   2  -3  315.46   18.13
   2   2  -3  306.89   18.07
   2   2  -3  306.09   15.00
   2   2  -3  312.43   16.59
  -2   2   3  300.61   18.06
  -2   2   3  299.10   14.50
   2   2  -3  313.84   16.68
  -2   2   3  299.54   16.58
  -2   2   3  304.91   11.89
  -2   2   3  315.45   15.28
   1  -2  -3   29.09    5.80
   1  -2  -3   27.16    1.18
   1  -2  -3   25.51    3.14
   1  -2  -3   23.21    3.53
   1  -2  -3   25.40    4.53
  -1  -2   3   26.38    1.10
   1  -2  -3   25.01    1.19
  -1  -2   3   27.72    1.18
  -1   2   3   27.15    5.45
  -1   2   3   26.28    1.17
  -1   2   3   35.09    4.01
   1   2  -3   25.52    3.96
  -1   2   3   37.19    4.75
  -1   2   3   27.45    1.25
   1   2  -3   36.15    6.94
   1   2  -3   27.45    1.12
   1   2  -3   29.09    3.56
   1   2  -3   34.92    6.51
  -1   2   3   28.15    4.52
   0  -2  -3  500.30   18.71
   0  -2  -3  498.02   22.34
   0  -2   3  471.90   23.76
   0  -2  -3  502.85   23.55
   0  -2  -3  492.67   20.74
   0  -2   3  534.95   18.72
   0  -2   3  477.15   21.46
   0  -2   3  511.36   18.73
   0  -2  -3  499.69   21.20
   0  -2  -3  475.53   18.79
   0  -2   3  462.34   22.57
   0   2   3  500.53   23.26
   0   2  -3  489.67   20.97
   0   2   3  514.54   18.81
   0   2   3  499.09   21.18
   0   2   3  491.54   20.69
   0   2  -3  485.86   23.83
   0   2   3  493.24   18.70
   0   2   3  462.96   18.68
   0   2   3  478.71   22.11
  -1  -2  -3  195.01   11.67
  -1  -2  -3  197.85   11.04
   1  -2   3  215.94    7.80
  -1  -2  -3  196.45    9.86
   1  -2   3  209.07   10.75
  -1  -2  -3  190.33   10.01
  -1  -2  -3  199.29   10.85
  -1  -2  -3  199.23   11.93
   1  -2   3  219.19   10.32
  -1  -2  -3  204.94    7.97
  -1  -2  -3  199.17    9.49
  -1  -2  -3  207.69    7.80
   1  -2   3  210.19    7.83
  -1  -2  -3  192.07    9.62
   1  -2   3  207.01   11.97
   1  -2   3  213.63   13.36
  -1   2  -3  201.85   12.89
  -1   2  -3  209.00    7.80
   1   2   3  202.24    7.84
  -1   2  -3  210.05   11.81
  -1   2  -3  201.06    7.79
  -1   2  -3  206.39   10.11
  -1   2  -3  202.68   10.53
   1   2   3  205.77    7.80
   1   2   3  201.97    7.80
   2  -2   3   -0.26    4.99
   2  -2   3    5.62    2.92
   2  -2   3    3.69    0.29
   2  -2   3    2.96    3.68
  -2  -2  -3    5.07    3.42
  -2  -2  -3    5.68    2.71
   2  -2   3    3.95    0.64
   2  -2   3    3.56    0.47
  -2  -2  -3    3.44    1.98
   2  -2   3    2.54    2.23
  -2  -2  -3    4.31    1.63
  -2   2  -3    4.21    0.37
   2   2   3    3.53    0.39
  -2   2  -3    3.00    0.37
   2   2   3    3.36    0.35
   2   2   3    2.93    0.45
   3  -2   3  158.71    6.25
   3  -2   3  159.50   14.15
  -3  -2  -3  170.48    7.98
  -3  -2  -3  153.83    7.55
   3  -2   3  149.27    9.34
  -3  -2  -3  174.90    8.99
   3  -2   3  155.31   10.16
  -3  -2  -3  162.14    8.86
  -3  -2  -3  162.64    9.68
  -3  -2  -3  170.47    7.63
   3  -2   3  145.77   11.74
  -3  -2  -3  170.03   10.17
  -3  -2  -3  158.90    7.94
  -3   2  -3  144.85   13.89
   3   2   3  164.43    6.26
  -3   2  -3  163.87    6.27
   3   2   3  164.79    6.28
   3   2   3  160.51    6.25
  -3   2  -3  153.70   11.92
  -3   2  -3  152.80    9.43
  -3   2  -3  154.24   10.22
   4  -2   3   76.26   14.96
   4  -2   3   77.19    3.21
   4  -2   3   64.04    8.63
  -4  -2  -3   82.32    3.24
   4  -2   3   61.58   11.20
   4  -2   3   77.17    7.70
   4   2   3   77.55    3.17
  -4   2  -3   57.71    9.05
  -4   2  -3   64.41    7.98
   4   2   3   77.49    3.20
  -4   2  -3   66.85   15.15
  -4   2  -3   82.76    3.28
   4   2   3   82.22    3.22
  -4   2  -3   71.53   11.89
  -5  -2  -3    4.28    0.81
   5  -2   3    3.69    0.75
  -5   2  -3    2.80    0.75
   5   2   3    2.80    0.68
  -5  -3   3    1.28    0.94
  -5   3   3    2.12    0.55
  -5   3   3    1.32    0.76
  -4  -3   3  223.95    8.65
  -4  -3   3  233.32    8.22
   4  -3  -3  203.85   12.89
   4  -3  -3  194.93   19.66
   4  -3  -3  203.77   14.09
   4  -3  -3  173.77   16.29
  -4   3   3  194.57   14.28
   4   3  -3  240.81   15.76
  -4   3   3  207.88    8.22
   4   3  -3  208.30   16.70
  -4   3   3  217.67    8.55
  -4   3   3  183.05   20.20
   4   3  -3  219.91   12.09
   4   3  -3  217.26   18.61
   4   3  -3  205.13   12.17
   4   3  -3  195.23   11.29
   4   3  -3  222.29   13.12
  -4   3   3  208.84   13.23
   4   3  -3  228.21   14.56
  -4   3   3  200.86   17.40
   3  -3  -3  152.55   15.32
   3  -3  -3  184.01    6.69
   3  -3  -3  170.62   10.40
  -3  -3   3  175.96    6.52
   3  -3  -3  173.04    6.56
   3  -3  -3  161.71   13.15
   3  -3  -3  160.32   11.07
   3   3  -3  160.99   14.59
   3   3  -3  178.90   12.48
   3   3  -3  158.93   11.67
   3   3  -3  171.18    6.50
   3   3  -3  164.51    9.70
   3   3  -3  159.06   10.03
   3   3  -3  164.98   13.71
   3   3  -3  167.27    9.48
  -3   3   3  165.98    6.77
  -3   3   3  170.00   13.13
  -3   3   3  166.51   11.15
   3   3  -3  170.36   10.50
  -3   3   3  163.44   10.22
  -3   3   3  138.17   14.62
  -2  -3   3    8.25    0.57
   2  -3  -3   12.33    3.51
   2  -3  -3    9.19    2.96
   2  -3  -3    8.61    0.56
   2  -3  -3    4.49    3.91
   2  -3  -3    7.80    4.67
   2   3  -3   12.33    3.10
  -2   3   3    8.40    0.59
   2   3  -3   15.29    3.78
   2   3  -3    6.89    2.92
  -2   3   3    4.18    2.45
   2   3  -3    2.11    4.80
   2   3  -3    8.00    2.54
   2   3  -3   13.29    5.91
  -2   3   3    4.54    3.19
   2   3  -3    9.52    4.37
   2   3  -3    9.96    4.04
  -2   3   3    4.88    4.31
   2   3  -3    8.29    0.49
  -2   3   3    8.54    0.74
  -2   3   3    3.79    2.17
  -1  -3   3  575.22   24.99
  -1  -3   3  555.51   28.05
   1  -3  -3  558.67   22.45
  -1  -3   3  612.38   22.38
   1  -3  -3  618.34   25.65
   1  -3  -3  600.59   28.48
  -1  -3   3  567.09   25.49
   1  -3  -3  628.93   27.30
   1  -3  -3  616.42   25.08
   1  -3  -3  558.10   22.39
  -1  -3   3  571.47   26.92
   1   3  -3  579.28   22.30
   1   3  -3  597.76   22.35
  -1   3   3  611.91   28.47
  -1   3   3  627.93   22.52
  -1   3   3  571.26   22.37
  -1   3   3  584.60   22.43
   1   3  -3  544.96   26.51
  -1   3   3  616.99   25.02
   1   3  -3  559.61   25.24
   1   3  -3  572.21   28.03
  -1   3   3  626.82   27.11
   1   3  -3  559.56   24.76
  -1   3   3  619.24   25.59
   0  -3  -3  308.84   13.45
   0  -3   3  283.99   16.70
   0  -3   3  291.75   11.26
   0  -3  -3  315.27   13.92
   0  -3  -3  296.49   11.34
   0  -3  -3  299.70   14.96
   0  -3   3  298.54   11.26
   0  -3  -3  290.67   15.99
   0  -3  -3  284.74   11.24
   0   3   3  313.18   13.41
   0   3   3  293.65   11.22
   0   3   3  311.00   15.04
   0   3  -3  288.59   16.41
   0   3  -3  284.71   11.25
   0   3   3  306.07   13.85
   0   3   3  280.21   11.22
   0   3  -3  278.79   13.99
   0   3   3  300.55   11.35
   0   3  -3  274.27   13.47
   1  -3   3    9.87    0.62
  -1  -3  -3   11.14    0.63
   1  -3   3    8.96    2.51
  -1  -3  -3   10.75    0.74
  -1  -3  -3   12.99    3.57
  -1  -3  -3   12.67    3.58
   1  -3   3    8.83    3.09
  -1  -3  -3   11.09    2.70
   1  -3   3   11.77    0.61
   1  -3   3   31.73    9.89
  -1  -3  -3   14.00    2.41
   1  -3   3    6.62    2.06
  -1   3  -3   15.20    3.50
  -1   3  -3   12.87    4.36
   1   3   3   11.61    0.61
   1   3   3   11.00    0.60
   1   3   3   10.95    0.56
  -1   3  -3   20.90    6.15
  -1   3  -3   12.64    2.81
  -1   3  -3   11.65    0.57
  -2  -3  -3  446.84   16.99
  -2  -3  -3  436.43   20.05
  -2  -3  -3  447.03   21.11
   2  -3   3  456.50   16.79
   2  -3   3  434.66   16.79
  -2  -3  -3  454.72   18.59
  -2  -3  -3  444.56   18.96
   2  -3   3  420.95   16.86
  -2  -3  -3  422.98   19.15
   2  -3   3  440.44   16.77
  -2  -3  -3  435.79   18.11
  -2  -3  -3  440.28   18.42
  -2  -3  -3  426.91   19.96
   2   3   3  439.02   16.84
  -2   3  -3  441.96   22.44
  -2   3  -3  448.38   20.09
   2   3   3  445.69   16.79
  -2   3  -3  460.96   20.90
  -2   3  -3  447.85   24.59
  -2   3  -3  411.31   16.74
  -2   3  -3  460.44   16.81
   2   3   3  446.70   16.81
   3  -3   3   91.73    7.39
   3  -3   3   93.21    3.71
   3  -3   3   96.45    8.42
   3  -3   3   87.03   12.41
   3  -3   3   77.66   10.19
  -3   3  -3   90.75   12.61
  -3   3  -3   97.25   10.54
  -3   3  -3   94.37    7.54
   3   3   3   92.34    3.70
  -3   3  -3   96.82    3.75
   3   3   3   95.32    3.72
  -3   3  -3   84.44    8.26
   4  -3   3   15.34    1.10
  -4  -3  -3   14.09    1.11
   4   3   3   14.82    1.04
  -4   3  -3   13.68    1.03
   4   3   3   16.95    1.04
   4   3   3   14.09    0.97
   5  -3   3  161.37    6.76
  -5  -3  -3  179.39    6.83
  -5   3  -3  163.44    6.81
   5   3   3  173.80    6.80
   5   3   3  170.32    6.75
  -5  -4   3  147.18    6.18
  -5   4   3  131.78    5.96
  -5   4   3  139.18    5.60
   4  -4  -3  168.32   12.11
   4  -4  -3  179.75   16.77
   4  -4  -3  180.77    6.80
   4  -4  -3  167.21   13.54
  -4  -4   3  187.86    6.73
  -4  -4   3  187.20    7.22
   4  -4  -3  170.17   20.24
   4   4  -3  181.91   16.48
   4   4  -3  180.28   13.79
  -4   4   3  143.57   13.59
   4   4  -3  158.59    9.87
   4   4  -3  160.73   12.84
  -4   4   3  168.89    7.03
   4   4  -3  194.28   11.57
  -4   4   3  145.98   16.79
   4   4  -3  160.94   10.73
   4   4  -3  164.18   15.70
  -4   4   3  139.42   20.51
  -4   4   3  155.67   12.42
   4   4  -3  183.14   10.56
  -4   4   3  167.82    6.73
   3  -4  -3   75.96   12.73
   3  -4  -3   71.52    2.92
   3  -4  -3   68.55    6.97
   3  -4  -3   72.66    2.95
  -3  -4   3   75.57    2.91
   3  -4  -3   71.61    9.97
   3  -4  -3   65.32    7.67
   3   4  -3   71.60    6.97
  -3   4   3   79.17   12.26
   3   4  -3   73.07    2.88
   3   4  -3   63.37   10.60
  -3   4   3   70.00    2.93
   3   4  -3   70.09    8.90
  -3   4   3   71.92   10.07
  -3   4   3   71.44    7.94
   3   4  -3   62.92    5.88
   3   4  -3   71.07    8.42
  -3   4   3   72.13    7.07
  -3   4   3   70.73    3.14
   3   4  -3   65.71    6.15
   3   4  -3   75.29    6.86
   3   4  -3   80.81   11.42
   2  -4  -3  575.36   25.62
   2  -4  -3  557.18   29.80
   2  -4  -3  586.49   26.42
   2  -4  -3  594.63   28.45
  -2  -4   3  622.91   22.28
   2  -4  -3  562.96   22.31
   2   4  -3  574.58   25.00
  -2   4   3  577.26   22.42
  -2   4   3  626.77   26.56
   2   4  -3  595.68   28.99
  -2   4   3  600.05   25.72
  -2   4   3  572.47   29.76
   2   4  -3  581.40   22.25
  -2   4   3  585.66   28.13
  -2   4   3  584.57   22.30
   2   4  -3  571.26   25.56
   2   4  -3  587.95   27.27
  -1  -4   3  151.06    8.90
   1  -4  -3  159.84    9.51
   1  -4  -3  161.78    6.28
  -1  -4   3  167.49    6.25
  -1  -4   3  167.20    6.18
   1  -4  -3  163.28    8.97
  -1  -4   3  164.45    9.70
  -1  -4   3  157.18   10.98
  -1  -4   3  168.51   12.48
   1  -4  -3  173.52   12.60
   1  -4  -3  165.13   11.02
   1  -4  -3  162.34    6.43
  -1   4   3  161.94   11.03
   1   4  -3  163.68    6.17
   1   4  -3  149.98    9.18
  -1   4   3  164.82    9.67
  -1   4   3  158.70    9.02
  -1   4   3  165.12    6.24
   1   4  -3  158.41   10.59
   1   4  -3  158.46   11.73
  -1   4   3  153.03    6.29
   1   4  -3  151.07    8.67
   0  -4  -3  192.75    9.92
   0  -4   3  176.35   12.95
   0  -4  -3  210.28   12.68
   0  -4   3  190.91   11.75
   0  -4  -3  177.25    7.18
   0  -4  -3  174.42    7.11
   0  -4  -3  197.18   11.31
   0  -4   3  194.99    7.14
   0   4  -3  182.26    9.57
   0   4   3  182.24    7.09
   0   4   3  177.53    7.08
   0   4   3  186.38    9.86
   0   4   3  184.51   11.01
   0   4   3  178.05    7.12
   0   4  -3  182.76   11.30
   0   4   3  179.54    9.30
   0   4  -3  195.95   12.84
  -1  -4  -3  610.53   26.59
   1  -4   3  630.73   26.95
   1  -4   3  622.56   28.62
  -1  -4  -3  606.39   25.05
  -1  -4  -3  537.55   23.15
   1  -4   3  639.64   26.32
   1  -4   3  653.68   23.16
   1  -4   3  605.44   23.22
  -1  -4  -3  578.71   23.32
  -1  -4  -3  614.54   25.48
  -1  -4  -3  613.27   27.66
   1   4   3  572.66   23.18
   1   4   3  601.69   23.16
  -1   4  -3  580.07   23.19
  -1   4  -3  599.51   26.52
   1   4   3  639.16   26.70
  -1   4  -3  613.72   29.67
   1   4   3  639.73   25.15
   1   4   3  648.55   25.65
   1   4   3  598.30   23.23
   1   4   3  640.41   27.77
  -1   4  -3  610.25   28.12
   2  -4   3   23.78    6.77
   2  -4   3   18.73    1.21
   2  -4   3   27.35    8.13
   2  -4   3   22.09    4.42
  -2  -4  -3   20.71    3.19
  -2  -4  -3   19.46    3.78
  -2  -4  -3   25.14    4.60
  -2  -4  -3   22.82    5.42
  -2  -4  -3   18.02    1.12
  -2  -4  -3   20.32    4.02
  -2  -4  -3   19.13    2.58
  -2  -4  -3   24.60    5.14
   2  -4   3   17.61    0.96
  -2  -4  -3   19.23    3.00
   2  -4   3   18.84    4.92
  -2   4  -3   20.13    7.10
   2   4   3   20.26    0.97
  -2   4  -3   19.28    0.92
  -2   4  -3   16.50    0.87
  -2   4  -3   21.67    5.74
   2   4   3   16.93    0.96
  -2   4  -3   19.62    4.72
   2   4   3   18.46    0.92
  -2   4  -3   16.60    3.93
   3  -4   3   66.88   12.82
   3  -4   3   60.66    7.91
   3  -4   3   58.89    6.85
  -3  -4  -3   63.49    2.89
   3  -4   3   64.97    2.65
   3  -4   3   67.31   10.34
  -3   4  -3   62.05    6.91
  -3   4  -3   65.33    2.69
  -3   4  -3   59.18    7.78
  -3   4  -3   68.14   12.89
   3   4   3   61.93    2.69
   3   4   3   65.24    2.66
  -3   4  -3   68.85   10.05
   3   4   3   65.02    2.63
  -4  -4  -3  284.38   11.33
   4  -4   3  283.69   11.04
   4   4   3  278.95   11.02
   4   4   3  295.87   11.12
  -4   4  -3  276.13   11.10
   4   4   3  295.67   11.09
  -5  -4  -3    0.14    1.02
  -5  -4  -3    1.15    0.81
   5  -4   3    1.38    0.76
   5   4   3    1.39    0.57
  -5   4  -3    2.02    0.70
   5   4   3    1.35    0.70
   5   4   3    1.34    0.69
  -5  -5   3   18.82    2.12
  -5   5   3   20.47    1.43
  -5   5   3   21.16    1.75
   4  -5  -3  291.89   19.09
   4  -5  -3  256.70   25.73
   4  -5  -3  314.67   12.29
   4  -5  -3  290.19   17.76
   4  -5  -3  336.47   12.20
   4   5  -3  288.50   23.34
  -4   5   3  305.40   19.68
   4   5  -3  322.52   16.46
   4   5  -3  337.11   18.30
   4   5  -3  330.29   12.22
  -4   5   3  311.27   12.52
  -4   5   3  338.83   23.49
  -4   5   3  325.83   12.23
  -4   5   3  328.81   18.51
  -4   5   3  311.42   27.13
   4   5  -3  321.59   15.57
   4   5  -3  342.31   25.03
   4   5  -3  310.11   20.97
   4   5  -3  311.21   18.48
   4   5  -3  318.28   19.87
   3  -5  -3  195.72   15.71
   3  -5  -3  212.09   18.81
   3  -5  -3  220.35   12.73
   3  -5  -3  201.30   13.44
  -3  -5   3  233.22    8.09
   3  -5  -3  208.41    8.15
   3  -5  -3  217.13    8.11
   3   5  -3  200.39   11.85
   3   5  -3  208.79   13.70
  -3   5   3  183.35   21.13
   3   5  -3  209.35   15.94
  -3   5   3  210.98    8.33
  -3   5   3  215.37    8.11
  -3   5   3  182.61   15.24
   3   5  -3  204.14   13.79
   3   5  -3  219.07   11.26
   3   5  -3  215.26   11.98
   3   5  -3  200.94   11.16
  -3   5   3  185.18   18.06
   3   5  -3  217.87    8.08
   3   5  -3  209.07   15.56
  -3   5   3  174.66   13.80
   2  -5  -3   65.04    6.12
  -2  -5   3   64.17    2.52
   2  -5  -3   98.12   18.12
   2  -5  -3   54.48    6.64
   2  -5  -3   59.11    2.55
   2  -5  -3   94.05   14.32
  -2   5   3   66.34    6.04
   2   5  -3   64.02    5.97
   2   5  -3   58.70    8.72
  -2   5   3   60.32    6.59
  -2   5   3   50.64    7.96
  -2   5   3   60.87    9.84
   2   5  -3   64.45    5.35
   2   5  -3   57.83    2.46
   2   5  -3   64.56    7.35
   1  -5  -3  210.79   14.90
  -1  -5   3  199.69   10.98
   1  -5  -3  206.23    7.99
  -1  -5   3  207.07   13.38
  -1  -5   3  202.30   15.05
  -1  -5   3  208.52    7.95
  -1  -5   3  209.01   11.76
   1   5  -3  192.65   12.42
  -1   5   3  215.79    8.01
  -1   5   3  222.91   14.61
  -1   5   3  207.07    7.94
   1   5  -3  200.02    7.87
   1   5  -3  204.64   13.99
  -1   5   3  226.65   13.20
  -1   5   3  219.81   11.61
   1   5  -3  188.15   10.48
   1   5  -3  190.42   11.06
   0  -5   3  193.94   10.63
   0  -5   3  178.70   13.82
   0  -5  -3  191.68   13.28
   0  -5  -3  218.48   10.49
   0  -5   3  208.95    7.82
   0  -5   3  201.50   12.84
   0  -5  -3  204.78    7.89
   0  -5  -3  214.26   10.97
   0  -5  -3  218.26   12.44
   0  -5   3  202.34   11.34
   0   5   3  199.86    7.78
   0   5   3  206.49   10.28
   0   5  -3  187.81   13.51
   0   5   3  203.71    7.82
   0   5   3  200.96   10.77
   0   5   3  204.25    7.77
   0   5  -3  205.07    7.76
   0   5   3  205.54   12.08
   0   5  -3  194.24   10.44
   0   5   3  192.45   13.12
   1  -5   3    9.12    3.99
   1  -5   3   12.74    0.64
  -1  -5  -3   14.32    3.15
   1  -5   3   11.69    3.53
   1  -5   3   15.33    0.72
  -1  -5  -3   12.28    2.71
   1  -5   3    8.75    5.00
  -1  -5  -3   17.33    4.32
   1  -5   3   12.87    0.80
  -1  -5  -3   20.66    5.49
   1  -5   3   16.65    3.70
  -1  -5  -3   12.62    0.86
   1   5   3   12.69    3.15
   1   5   3   14.92    2.71
  -1   5  -3   15.42    3.71
  -1   5  -3   13.54    0.71
   1   5   3   12.90    0.74
   1   5   3   20.73    4.45
   1   5   3   12.69    0.68
  -1   5  -3   16.70    6.13
  -1   5  -3   14.54    4.76
  -1   5  -3   11.98    2.86
   1   5   3   16.66    5.04
   2  -5   3  569.52   29.99
  -2  -5  -3  592.97   22.51
  -2  -5  -3  591.12   22.87
   2  -5   3  538.37   25.50
   2  -5   3  565.63   20.95
   2  -5   3  546.57   24.74
  -2  -5  -3  567.53   24.62
   2  -5   3  562.68   21.00
   2  -5   3  544.58   27.64
  -2  -5  -3  550.65   21.15
  -2  -5  -3  538.60   22.67
  -2  -5  -3  588.86   23.85
  -2   5  -3  531.91   24.52
  -2   5  -3  564.72   21.01
   2   5   3  487.91   21.08
  -2   5  -3  547.10   27.33
  -2   5  -3  557.29   29.59
   2   5   3  501.71   21.09
   2   5   3  531.50   20.93
  -2   5  -3  550.51   25.36
  -3  -5  -3  175.72    7.10
   3  -5   3  168.78   17.99
   3  -5   3  165.65   15.06
   3  -5   3  163.04   11.31
   3  -5   3  183.22    6.88
   3  -5   3  173.30   12.64
   3  -5   3  181.37    6.88
  -3   5  -3  173.25   11.64
  -3   5  -3  168.17   12.58
   3   5   3  186.88    6.88
  -3   5  -3  173.38   15.20
   3   5   3  186.71    6.94
  -3   5  -3  171.43    6.93
  -3   5  -3  199.12   18.54
   3   5   3  170.03    6.95
  -4  -5  -3  118.72    5.08
  -4  -5  -3  122.00    4.85
   4  -5   3  118.45    4.80
   4   5   3  120.70    4.89
   4   5   3  121.52    4.80
   4   5   3  122.97    4.85
  -4   5  -3  113.05    4.86
  -5  -6   3   52.12    3.07
  -5   6   3   44.62    2.69
  -5   6   3   44.85    2.29
   4  -6  -3   -0.03    5.59
   4  -6  -3   -2.68    6.88
   4  -6  -3    0.77    9.84
   4  -6  -3    1.79    0.54
   4  -6  -3   -6.09   14.58
   4   6  -3   -1.23    8.92
  -4   6   3   -6.37    7.88
   4   6  -3   -0.61    4.64
   4   6  -3    6.36    6.49
  -4   6   3    2.62    0.69
   4   6  -3    4.93    3.94
  -4   6   3    2.94   10.37
  -3  -6   3    1.48    0.40
   3  -6  -3    2.79    0.46
   3  -6  -3   -2.59    3.85
   3  -6  -3    2.19    0.41
   3  -6  -3    8.09    5.45
   3  -6  -3   25.56   13.27
   3  -6  -3   12.62    7.43
  -3   6   3    6.87    6.30
  -3   6   3    2.63    0.57
   3   6  -3    1.11    3.93
   3   6  -3    0.78    5.49
   3   6  -3    4.60    5.39
   3   6  -3    2.30    0.36
   3   6  -3    3.38    7.34
  -3   6   3    7.24    4.61
  -3   6   3   15.98    9.63
  -3   6   3    2.35    0.40
  -3   6   3    4.28    3.63
   3   6  -3    6.05    3.32
   3   6  -3    4.76    3.87
   3   6  -3    2.68    3.13
   3   6  -3    2.02    7.37
  -2  -6   3  309.10   15.51
   2  -6  -3  298.10   15.70
  -2  -6   3  312.66   11.67
   2  -6  -3  297.59   20.99
   2  -6  -3  307.31   11.73
   2  -6  -3  295.41   16.49
   2  -6  -3  305.23   18.76
   2   6  -3  306.98   15.24
   2   6  -3  300.38   14.59
   2   6  -3  296.23   18.65
   2   6  -3  289.00   11.62
  -2   6   3  303.83   11.68
  -2   6   3  289.10   20.30
  -2   6   3  376.49   21.88
   2   6  -3  300.13   16.88
  -2   6   3  297.07   11.81
  -1  -6   3   67.65    6.79
  -1  -6   3   59.20    8.52
   1  -6  -3   50.23    7.59
   1  -6  -3   54.96    5.40
  -1  -6   3   70.61   10.59
   1  -6  -3  103.24   16.52
  -1  -6   3   55.82    2.35
  -1  -6   3   55.79    5.72
   1  -6  -3   64.43    6.34
   1  -6  -3   56.81    2.39
  -1   6   3   59.06    2.42
  -1   6   3   62.36    5.37
   1   6  -3   53.82    5.18
   1   6  -3   52.98    8.51
   1   6  -3   53.90    5.64
  -1   6   3   56.65    2.34
   1   6  -3   54.29    7.09
  -1   6   3   55.91    7.22
   1   6  -3   55.75    2.26
  -1   6   3   66.93    9.00
  -1   6   3   54.28    2.33
  -1   6   3   55.26    5.76
   0  -6  -3  560.58   21.97
   0  -6   3  584.17   29.64
   0  -6  -3  605.59   24.87
   0  -6   3  594.53   26.13
   0  -6  -3  593.15   28.62
   0  -6   3  541.88   21.86
   0  -6  -3  604.36   25.52
   0  -6  -3  556.28   21.91
   0  -6   3  607.65   28.20
   0  -6   3  602.18   25.41
   0  -6   3  580.29   21.91
   0  -6  -3  601.25   27.23
   0   6  -3  550.78   28.69
   0   6   3  575.80   21.91
   0   6   3  557.26   21.88
   0   6  -3  560.41   24.90
   0   6  -3  545.59   21.84
   0   6   3  557.02   24.61
   0   6   3  567.75   25.22
   0   6   3  562.48   26.74
   0   6   3  578.54   21.85
   0   6   3  596.33   28.51
   1  -6   3  131.95    4.90
   1  -6   3  162.88   16.54
   1  -6   3  122.24    9.12
  -1  -6  -3  124.28    5.07
  -1  -6  -3  103.92    9.94
   1  -6   3  128.99    8.45
   1  -6   3  124.31   10.90
  -1  -6  -3  121.24    8.87
   1  -6   3  116.50    4.86
  -1  -6  -3  123.62    7.17
  -1  -6  -3  125.65    4.91
  -1  -6  -3  117.25    7.57
   1  -6   3  129.68    4.99
   1   6   3  134.55    7.28
   1   6   3  149.36   10.80
   1   6   3  133.93    7.80
   1   6   3  129.05    4.99
  -1   6  -3  131.74   12.63
  -1   6  -3  124.06    4.96
   1   6   3  133.33    9.13
  -1   6  -3  122.75    8.05
   1   6   3  125.04    4.95
   2  -6   3   18.81    5.73
   2  -6   3   23.47    1.10
  -2  -6  -3   18.63    1.38
   2  -6   3   15.49    4.17
   2  -6   3   28.45    5.46
  -2  -6  -3   22.53    5.09
  -2  -6  -3   21.41    3.27
  -2  -6  -3   26.30    5.72
   2  -6   3   22.20    1.19
  -2  -6  -3   28.36    3.97
   2  -6   3   14.24    7.43
  -2   6  -3   28.56    5.91
  -2   6  -3   25.17    7.22
  -2   6  -3   23.27    1.13
   2   6   3   22.41    1.14
   2   6   3   22.42    1.09
  -2   6  -3   25.25    5.05
   2   6   3   21.99    1.06
  -2   6  -3   28.86    8.79
  -3  -6  -3   78.63    3.41
   3  -6   3   81.74    3.21
   3  -6   3   70.94   12.79
   3  -6   3   78.50    3.22
   3  -6   3   75.04    9.95
   3  -6   3   84.81   16.48
   3  -6   3   66.96    8.44
  -3   6  -3   75.28    3.25
   3   6   3   79.76    3.24
   3   6   3   79.71    3.19
  -3   6  -3   83.78    8.66
   3   6   3   77.36    3.28
  -3   6  -3   72.46   15.15
  -3   6  -3   80.34    9.68
  -3   6  -3   78.18   12.00
  -4  -6  -3   62.88    2.91
   4  -6   3   57.43    2.65
   4   6   3   61.25    2.61
   4   6   3   60.09    2.70
  -4   6  -3   56.80    2.67
   4   6   3   62.29    2.65
   4  -7  -3   31.96    1.66
   4  -7  -3   31.09    1.64
   4   7  -3   31.77    6.35
   4   7  -3   29.49    7.48
   4   7  -3   59.49   13.85
   4   7  -3   30.02    1.52
  -4   7   3   31.07    1.88
  -4   7   3   30.81    1.63
   4   7  -3   22.03    7.64
   3  -7  -3   26.65    1.35
   3  -7  -3   12.54    4.85
   3  -7  -3   43.00   17.98
   3  -7  -3   25.39    1.35
   3  -7  -3   11.26    9.60
  -3  -7   3   28.38    1.36
   3   7  -3   25.96    5.24
   3   7  -3   31.04    7.83
  -3   7   3   27.29    1.35
  -3   7   3   31.64    7.29
  -3   7   3   43.31   14.80
   3   7  -3   26.66    6.74
   3   7  -3   29.84    9.98
   3   7  -3   32.33    7.30
  -3   7   3   30.41    9.27
   3   7  -3   25.55    6.17
  -3   7   3   24.22    1.49
   3   7  -3   26.30    1.25
   3   7  -3   22.69    5.52
   3   7  -3   36.36    9.63
  -3   7   3   27.74    7.12
  -2  -7   3  104.39   14.28
   2  -7  -3  125.85   18.03
   2  -7  -3   79.07    7.94
  -2  -7   3   82.68    9.07
   2  -7  -3   91.18    9.20
  -2  -7   3   89.45    8.11
  -2  -7   3   95.10    3.59
   2  -7  -3   99.31   11.77
  -2  -7   3   87.07   11.66
   2  -7  -3   85.90    3.61
  -2   7   3   88.21    3.71
   2   7  -3   86.77    7.50
  -2   7   3   74.69   10.31
   2   7  -3   97.22    6.96
  -2   7   3   80.45   12.58
  -2   7   3   90.17    8.64
   2   7  -3   86.73    9.21
   2   7  -3   83.91    3.51
   2   7  -3   89.47   11.27
  -2   7   3   91.98    7.79
  -2   7   3   89.02    3.58
   1  -7  -3   16.93    4.42
  -1  -7   3   20.99    5.27
   1  -7  -3   16.57    5.06
  -1  -7   3   17.90    4.32
   1  -7  -3   12.53    0.80
  -1  -7   3   13.91    0.83
   1  -7  -3   17.96    8.39
  -1  -7   3   20.96    6.58
  -1  -7   3   23.70    8.70
   1  -7  -3   13.71    6.25
   1   7  -3   13.42    4.34
  -1   7   3   30.80    8.09
   1   7  -3    8.36    2.77
  -1   7   3   14.15    0.74
   1   7  -3   12.91    0.65
   1   7  -3   19.80    6.46
  -1   7   3    3.43    5.39
  -1   7   3   13.54    0.81
  -1   7   3   13.40    0.82
  -1   7   3   10.77    4.07
  -1   7   3   27.44    7.00
   1   7  -3    9.63    3.38
   0  -7  -3   47.94    2.09
   0  -7  -3   56.55    7.23
   0  -7   3   46.40    6.34
   0  -7  -3   48.94    4.85
   0  -7  -3   45.35    5.32
   0  -7   3   50.79    2.06
   0  -7  -3   34.93    8.64
   0  -7   3   85.18   16.39
   0  -7   3   46.06    5.53
   0  -7   3   47.86    8.30
   0   7  -3   50.44    9.04
   0   7   3   48.37    4.93
   0   7   3   46.98    6.89
   0   7   3   47.71    8.47
   0   7  -3   42.99    4.98
   0   7   3   46.31    2.01
   0   7  -3   47.68    1.91
   0   7   3   47.88    5.56
   0   7   3   48.75    1.98
   0   7   3   48.97    2.03
   1  -7   3   51.71    8.65
   1  -7   3   62.14    7.47
   1  -7   3   42.58    1.83
  -1  -7  -3   52.90    8.37
   1  -7   3   47.93    2.01
  -1  -7  -3   44.35    1.95
  -1  -7  -3   45.72    6.55
   1  -7   3   61.21   11.75
  -1  -7  -3   51.95    5.32
  -1  -7  -3   45.97    4.61
  -1  -7  -3   44.33    2.02
   1  -7   3   37.90    9.45
   1   7   3   44.41    4.99
  -1   7  -3   38.91    8.08
   1   7   3   41.79    6.33
  -1   7  -3   71.91   12.06
   1   7   3   47.33    4.53
   1   7   3   36.43    7.71
  -1   7  -3   43.88    1.94
   1   7   3   45.35    1.98
  -1   7  -3   49.39    5.35
   2  -7   3   76.89    3.06
   2  -7   3   86.48   11.67
  -2  -7  -3   74.12    3.24
  -2  -7  -3   80.31    6.01
  -2  -7  -3   79.36    7.32
   2  -7   3   73.00   14.31
   2  -7   3   76.11    7.93
   2  -7   3   76.50    8.99
  -2  -7  -3   82.03    5.44
  -2  -7  -3   71.51    3.04
  -2  -7  -3   87.83    9.18
   2  -7   3   73.29    3.12
  -2   7  -3   74.00    7.52
  -2   7  -3   65.36   10.34
  -2   7  -3   95.79   16.96
  -2   7  -3   75.73    3.14
   2   7   3   73.79    3.14
   2   7   3   74.08    3.09
  -2   7  -3   77.28    8.53
   3  -7   3   34.60   13.92
   3  -7   3   40.57   11.10
   3  -7   3   26.79    1.37
  -3  -7  -3   26.33    1.53
   3  -7   3   30.87    7.74
   3  -7   3   27.43    1.40
   3  -7   3   41.98    9.07
  -3   7  -3   15.86    5.96
  -3   7  -3   19.62   13.02
   3   7   3   27.39    1.39
   3   7   3   26.42    1.31
  -3   7  -3    6.64    7.37
  -3   7  -3   24.82    1.36
  -3   7  -3   14.24    6.61
   3   7   3   26.45    1.33
  -4  -7  -3   69.18    3.24
   4  -7   3   67.30    3.01
   4   7   3   72.99    2.97
  -4   7  -3   69.53    3.07
   4   7   3   68.95    3.02
   4   7   3   69.57    3.10
   4  -8  -3    6.03    0.79
   4  -8  -3    7.06    0.92
   4   8  -3   14.76    5.57
   4   8  -3   13.45    7.88
   4   8  -3   -3.27   10.58
  -4   8   3    6.39    0.98
  -4   8   3    5.97    0.98
   4   8  -3   19.63    4.98
   4   8  -3    5.91    0.78
   3  -8  -3   -2.38    9.47
   3  -8  -3    0.29    0.43
   3  -8  -3    0.94    5.88
   3  -8  -3    5.89    7.07
   3  -8  -3   -0.26    0.36
   3  -8  -3    6.10   15.47
  -3  -8   3    0.38    0.47
  -3   8   3   -5.10    6.83
   3   8  -3   -1.96    3.66
  -3   8   3  -11.47    9.96
   3   8  -3    1.80    8.66
  -3   8   3   -3.59    9.69
   3   8  -3   -4.46    5.86
   3   8  -3    0.51    0.32
  -3   8   3    0.08    0.34
   3   8  -3    0.66    4.44
  -3   8   3    4.10    4.94
  -3   8   3   -0.44    0.45
   2  -8  -3    6.51    3.48
   2  -8  -3    9.17    4.86
  -2  -8   3   11.56    7.73
  -2  -8   3    1.16    4.37
  -2  -8   3   -1.70    9.24
  -2  -8   3   10.58    5.66
   2  -8  -3   17.56    9.46
   2  -8  -3    8.55    6.72
   2  -8  -3    2.79    0.54
  -2  -8   3    2.93    0.48
   2   8  -3    5.54    3.53
   2   8  -3    2.89    0.43
   2   8  -3    3.57    3.01
  -2   8   3    7.49    4.59
  -2   8   3    8.83    8.65
  -2   8   3    2.89    0.44
   2   8  -3    0.23    4.67
  -2   8   3    3.00    0.41
  -2   8   3   -3.11    6.02
  -2   8   3   -5.60    6.82
  -2   8   3    2.45    0.47
   2   8  -3   -7.29    6.81
   1  -8  -3    2.22    6.30
   1  -8  -3    0.44    0.30
  -1  -8   3   -0.63    3.71
  -1  -8   3    1.67    2.91
  -1  -8   3   -1.45    7.39
   1  -8  -3    1.97    2.95
  -1  -8   3    8.09    5.25
   1  -8  -3   -1.09    3.30
  -1  -8   3    0.59    0.32
   1  -8  -3    3.79    4.89
  -1   8   3   -0.72    2.50
  -1   8   3   -0.50    2.16
  -1   8   3   -6.63    5.83
  -1   8   3   -1.25    8.50
   1   8  -3   -4.61    6.07
   1   8  -3   -0.11    0.18
  -1   8   3    0.17    0.22
   1   8  -3    3.12    4.74
   1   8  -3    2.45    2.65
   1   8  -3   -0.21    3.34
  -1   8   3    0.01    0.26
   0  -8   3    1.09    0.36
   0  -8  -3    1.24    0.34
   0  -8  -3   -1.43    5.23
   0  -8   3   -0.95    6.90
   0  -8  -3   -1.50    3.89
   0  -8  -3   -0.20    3.02
   0  -8   3   -1.55    6.11
   0  -8  -3    0.69    2.51
   0  -8   3   -3.41    9.46
   0  -8   3    4.73    6.05
   0   8   3    3.29    5.24
   0   8  -3   -2.80    2.60
   0   8   3    0.23    0.26
   0   8   3    0.59    0.25
   0   8   3    0.25    0.28
   0   8   3    3.32    4.42
   0   8   3    1.27    3.08
   0   8  -3    0.29    4.18
   0   8   3   -0.31    2.60
   0   8  -3    2.05    4.76
   0   8  -3    3.74    5.98
   1  -8   3    2.91    5.00
  -1  -8  -3    0.93    2.36
  -1  -8  -3    1.56    0.41
   1  -8   3    5.18    8.15
  -1  -8  -3   -6.07    5.13
  -1  -8  -3   -2.97    2.93
   1  -8   3    1.00    0.39
  -1  -8  -3    0.61    4.10
   1  -8   3    1.00    0.32
   1  -8   3    4.35    7.50
   1  -8   3    8.07    6.66
   1   8   3    1.34    2.87
   1   8   3   -0.90    5.04
  -1   8  -3    1.27    0.32
  -1   8  -3    2.49    4.88
   1   8   3    2.01    0.43
  -1   8  -3   -4.78    6.67
   1   8   3    1.31    0.29
   1   8   3   -2.45    3.55
   1   8   3   -0.30    2.43
  -1   8  -3    0.86    3.42
  -1   8  -3    0.09    2.47
  -2  -8  -3    0.09    4.42
   2  -8   3    2.28    6.83
  -2  -8  -3    3.22    6.20
   2  -8   3   -0.47    3.81
   2  -8   3   -0.10    0.41
  -2  -8  -3    0.85    0.40
   2  -8   3    0.18    0.38
   2  -8   3    9.00    9.40
  -2  -8  -3    3.03    3.37
  -2  -8  -3    0.32    2.74
   2  -8   3   -0.39    4.68
   2   8   3   -1.39    3.22
  -2   8  -3   -0.39   12.20
  -2   8  -3    5.65    3.48
   2   8   3   -6.80    5.82
  -2   8  -3   -0.30    0.27
   2   8   3   -2.77    2.58
   2   8   3   -0.37    4.54
   2   8   3    0.34    0.28
  -2   8  -3   -1.85    3.75
   2   8   3   -0.22    0.26
  -2   8  -3    3.60    8.68
   3  -8   3    3.85    6.21
   3  -8   3    7.83    8.93
   3  -8   3    3.74    4.73
   3  -8   3   20.14   13.47
   3  -8   3    1.61    0.51
  -3   8  -3    2.82    4.99
  -3   8  -3   -4.15    8.73
  -3   8  -3   -1.50    6.08
  -3   8  -3   13.50   13.43
   4  -8   3    1.12    0.66
  -4  -8  -3    0.95    0.85
  -4  -8  -3    2.53    0.79
   4   8   3    1.22    0.55
  -4   8  -3    1.49    0.60
   4   8   3    1.83    0.59
   4  -9  -3    0.74    0.53
   4  -9  -3   -0.31    0.63
  -4   9   3    0.65    0.67
  -4   9   3    0.88    0.41
  -4   9   3    1.28    0.55
   4   9  -3    0.27    0.46
   3  -9  -3   24.46   12.75
   3  -9  -3    6.64    9.81
   3  -9  -3   27.17    1.42
   3  -9  -3   35.62   16.28
   3  -9  -3    9.42    6.49
   3  -9  -3   24.60    1.38
  -3   9   3   26.95    1.25
  -3   9   3   23.32    1.51
  -3   9   3    7.21    9.95
   3   9  -3   29.61    8.38
   3   9  -3   50.85   12.47
  -3   9   3   24.78   10.14
  -3   9   3   28.32    8.15
   3   9  -3   24.56    6.24
  -3   9   3   25.63    1.39
   3   9  -3   20.65    5.95
   3   9  -3   24.57    1.26
  -3   9   3   36.98    9.55
   2  -9  -3    7.18    8.93
  -2  -9   3   15.03   11.67
   2  -9  -3   27.14    1.39
   2  -9  -3   36.79   11.26
  -2  -9   3   31.55    9.84
  -2  -9   3   22.70    6.88
   2  -9  -3   28.04    1.41
   2  -9  -3   43.27   16.72
   2  -9  -3   69.32   15.03
  -2  -9   3   26.47    7.34
  -2   9   3   23.75   14.00
   2   9  -3   27.76    1.25
  -2   9   3   26.76    1.36
   2   9  -3   33.68    5.44
   2   9  -3   34.33    8.70
  -2   9   3   29.58    7.72
  -2   9   3   27.00    1.30
  -2   9   3   20.16    9.50
   2   9  -3   27.76    6.31
   2   9  -3   45.52   11.10
  -2   9   3   26.33    1.44
  -2   9   3   27.41    7.31
   1  -9  -3   36.08    6.14
   1  -9  -3   37.85   14.14
   1  -9  -3   36.60    7.23
  -1  -9   3   39.16    7.88
   1  -9  -3   48.53   19.48
  -1  -9   3   39.54   10.34
  -1  -9   3   49.02   11.46
   1  -9  -3   40.27    1.83
  -1  -9   3   37.65    6.68
  -1  -9   3   37.15    1.81
  -1   9   3   41.03    1.77
   1   9  -3   40.41    6.76
  -1   9   3   40.88    1.85
  -1   9   3   27.88    8.46
  -1   9   3   39.28    5.90
   1   9  -3   31.51    8.38
  -1   9   3   54.45   12.29
   1   9  -3   38.74    5.73
  -1   9   3   41.66    1.77
   1   9  -3   49.78   12.07
   1   9  -3   40.41    1.68
  -1   9   3   54.75    9.23
   0  -9   3   40.19    1.88
   0  -9  -3   41.56    1.90
   0  -9  -3   47.41    8.64
   0  -9   3   62.50    9.77
   0  -9  -3   47.44    5.77
   0  -9  -3   30.37    8.81
   0  -9   3   47.77   12.72
   0  -9  -3   45.74    6.58
   0  -9   3   53.18    8.08
   0  -9   3   46.22    9.91
   0   9   3   39.36    1.79
   0   9  -3   44.05    6.64
   0   9  -3   51.84   10.82
   0   9   3   37.00    8.28
   0   9  -3   43.18    6.49
   0   9   3   38.76    5.55
   0   9  -3   42.31    1.71
   0   9  -3   32.80    8.11
   0   9   3   41.37    1.84
   0   9   3   38.86    6.46
   0   9   3   40.00   10.30
  -1  -9  -3  175.79    6.99
   1  -9   3  166.47    6.80
  -1  -9  -3  175.12   13.32
  -1  -9  -3  182.90   15.83
  -1  -9  -3  187.64   10.63
   1  -9   3  170.24    6.94
   1  -9   3  192.93   19.09
   1  -9   3  177.90   15.69
  -1  -9  -3  172.43   11.24
   1   9   3  176.26   10.82
  -1   9  -3  189.15   12.58
   1   9   3  173.16   10.11
   1   9   3  171.31   12.50
  -1   9  -3  223.94   21.92
   1   9   3  177.03    6.95
  -1   9  -3  206.94   13.00
   1   9   3  168.50    6.90
   1   9   3  191.54   14.91
  -1   9  -3  169.78    6.93
  -1   9  -3  158.15   14.32
   2  -9   3   12.88    6.77
   2  -9   3    5.47    0.82
  -2  -9  -3    6.30    0.77
  -2  -9  -3    6.37    4.01
  -2  -9  -3    7.84    7.77
   2  -9   3    6.51    0.76
  -2  -9  -3   -0.70    5.27
   2  -9   3    6.35   11.83
  -2  -9  -3    6.11    3.35
   2  -9   3    4.59   14.48
   2  -9   3   -3.27    5.22
   2   9   3    5.51    0.68
  -2   9  -3    6.30    4.93
  -2   9  -3    6.91    0.68
   2   9   3   13.13    5.75
   2   9   3    5.67    6.92
   2   9   3    6.56    3.28
   2   9   3    6.58    4.08
  -2   9  -3    8.12    5.72
   2   9   3    5.88    0.62
  -2   9  -3   -3.33    6.53
  -2   9  -3    7.62    8.78
   3  -9   3   -3.38    5.84
   3  -9   3    4.82   10.51
   3  -9   3   -5.49   14.16
   3  -9   3    4.24    0.69
  -3  -9  -3    4.14    0.70
   3  -9   3    4.15    0.63
   3  -9   3    5.07    7.70
  -3   9  -3   -0.34    6.35
  -3   9  -3    0.51    8.10
   3   9   3    3.19    0.55
  -3   9  -3    5.25    0.66
   3   9   3    3.57    0.57
  -3   9  -3   -1.95   15.11
  -3   9  -3    9.25   11.47
   4  -9   3   12.54    1.31
  -4  -9  -3   15.68    1.53
   4  -9   3   14.50    1.36
  -4  -9  -3   14.95    1.75
  -4   9  -3   13.73    1.26
   4   9   3   15.43    1.19
   4   9   3   11.87    1.16
   4 -10  -3   20.05    1.53
   4 -10  -3   18.61    1.38
  -4  10   3   19.50    1.39
  -4  10   3   20.20    1.17
  -4  10   3   19.81    1.64
   4  10  -3   18.83    1.27
   3 -10  -3  130.91   18.98
  -3 -10   3  143.94    5.64
   3 -10  -3  139.45    5.70
   3 -10  -3  145.30    5.66
   3 -10  -3  151.84   15.33
   3 -10  -3  146.49   24.73
   3 -10  -3  176.03   16.64
  -3  10   3  107.90   23.24
  -3  10   3  111.64   13.02
  -3  10   3  140.51    5.64
  -3  10   3  139.58   19.72
   3  10  -3  138.31    5.56
  -3  10   3  135.02    5.78
  -3  10   3  144.05    5.54
  -3  10   3  133.06   15.18
  -2 -10   3   79.14   11.51
  -2 -10   3   64.88    2.90
  -2 -10   3   42.10   14.50
  -2 -10   3   69.40   15.13
   2 -10  -3   70.73    2.93
   2 -10  -3   68.47    2.94
  -2 -10   3   57.58    9.54
   2  10  -3   75.93    8.62
  -2  10   3   78.65   13.82
  -2  10   3   69.60    9.30
   2  10  -3   57.23   13.88
   2  10  -3   76.48   10.91
  -2  10   3   84.08   18.84
  -2  10   3   70.76    2.89
  -2  10   3   67.95    3.00
  -2  10   3   47.71   13.87
   2  10  -3   70.07    7.49
   2  10  -3   69.02    2.81
  -2  10   3   67.02    2.83
  -1 -10   3   14.66    8.57
   1 -10  -3    7.00    0.68
   1 -10  -3    9.83   19.04
   1 -10  -3    5.17    3.47
   1 -10  -3   -9.86   13.10
  -1 -10   3   11.73    5.05
  -1 -10   3   10.04    6.21
  -1 -10   3    7.02    0.78
  -1 -10   3   14.38   10.76
   1 -10  -3    2.47    3.85
  -1  10   3    7.71    0.69
  -1  10   3   27.91   10.84
   1  10  -3   12.86    7.09
  -1  10   3    2.10    5.79
  -1  10   3    9.76    9.51
  -1  10   3    6.52    0.64
   1  10  -3   12.07    9.38
  -1  10   3   16.83    8.18
   1  10  -3    7.14    0.54
   1  10  -3    8.63    4.81
  -1  10   3    7.44    0.73
   1  10  -3    6.84    3.77
   0 -10  -3   26.72    8.08
   0 -10  -3   20.17    5.36
   0 -10  -3   20.67    5.95
   0 -10   3   17.60    1.11
   0 -10   3   25.06   11.06
   0 -10  -3   23.36   10.36
   0 -10   3   26.47    9.70
   0 -10   3   30.62    8.27
   0 -10   3   23.45    7.48
   0 -10  -3   19.31    1.11
   0  10   3   15.66    6.45
   0  10  -3   26.06    7.89
   0  10  -3   32.64   10.23
   0  10  -3   25.61    6.39
   0  10   3   18.85    1.06
   0  10   3   23.57    5.91
   0  10   3   32.98   10.13
   0  10   3   17.69    1.04
   0  10   3   13.45    4.63
   0  10  -3   18.81    0.90
   0  10  -3   24.15    6.30
   1 -10   3  131.25   15.12
  -1 -10  -3  133.12   10.41
  -1 -10  -3  133.94    5.34
   1 -10   3  150.93   25.08
  -1 -10  -3  121.10    9.26
  -1 -10  -3  127.87   15.84
   1 -10   3  149.57    5.27
   1 -10   3  122.91   10.71
   1 -10   3  132.33   12.08
   1 -10   3  134.68    5.34
  -1 -10  -3  137.50   12.79
  -1  10  -3  132.55    5.32
  -1  10  -3  125.77   17.35
   1  10   3  138.94    5.34
   1  10   3  118.96   13.87
   1  10   3  126.05   11.63
   1  10   3  127.99    9.70
   1  10   3  123.81    8.84
  -1  10  -3  120.98   11.22
  -1  10  -3  133.05   10.44
   1  10   3  132.69    5.28
  -2 -10  -3   33.98    9.62
   2 -10   3   28.18    9.06
   2 -10   3   42.64   15.46
   2 -10   3   23.63   11.42
   2 -10   3   38.66    8.66
  -2 -10  -3   22.88    1.35
  -2 -10  -3   21.31    5.92
  -2 -10  -3   23.75    5.70
   2 -10   3   23.47    1.27
   2 -10   3   24.36    1.42
  -2 -10  -3   18.33    9.78
  -2  10  -3   28.67    8.62
   2  10   3   25.32    7.15
  -2  10  -3   29.28    7.85
  -2  10  -3   20.12   13.49
  -2  10  -3   23.53   11.84
   2  10   3   18.12    4.46
   2  10   3   23.54    9.39
   2  10   3   23.35    5.47
   2  10   3   22.97    1.26
  -2  10  -3   23.58    1.29
   2  10   3   22.98    1.32
   3 -10   3  204.70    7.95
   3 -10   3  185.13   30.50
   3 -10   3  204.87   18.46
   3 -10   3  219.10   24.32
   3 -10   3  195.02   16.38
   3 -10   3  200.56    8.01
  -3 -10  -3  211.62    8.09
  -3  10  -3  174.17   15.87
   3  10   3  209.02    8.04
  -3  10  -3  204.82    8.07
  -3  10  -3  172.14   17.70
  -3  10  -3  205.92   28.60
   3  10   3  207.69    8.09
  -3  10  -3  215.56   22.91
  -4 -10  -3   50.73    2.51
   4 -10   3   45.59    2.46
   4 -10   3   51.88    2.55
  -4 -10  -3   49.67    2.87
   4  10   3   48.03    2.45
   4  10   3   50.36    2.40
  -4  10  -3   49.25    2.47
   3 -11  -3   88.36   20.56
   3 -11  -3   36.96   17.73
  -3 -11   3   85.70    3.57
   3 -11  -3   81.77    3.59
   3 -11  -3   82.67    3.55
   3 -11  -3   85.09   12.93
   3  11  -3   79.56    3.44
  -3  11   3  117.21   15.76
  -3  11   3   85.64   18.91
  -3  11   3   82.64   17.56
  -3  11   3  131.57   28.59
  -3  11   3   86.94    3.41
  -3  11   3   80.46    3.69
  -3  11   3   81.06    3.53
   2 -11  -3   17.65    1.12
   2 -11  -3   17.36   10.09
   2 -11  -3   22.60   13.67
   2 -11  -3   17.67    1.16
  -2 -11   3   42.43   15.33
  -2 -11   3   13.27    8.10
   2 -11  -3   16.90    6.89
   2 -11  -3   20.45   19.25
  -2 -11   3   15.74    1.23
  -2 -11   3    9.74    6.21
  -2 -11   3   20.32   11.26
   2  11  -3   19.38   11.43
  -2  11   3   17.79    1.17
  -2  11   3    8.22    5.69
  -2  11   3    9.18    8.29
   2  11  -3   14.29    5.53
  -2  11   3   18.54    1.00
   2  11  -3   16.02    0.94
  -2  11   3    8.20    6.43
  -2  11   3    1.10   25.12
   2  11  -3   12.08    4.34
  -2  11   3   17.17    1.09
   2  11  -3   24.45    7.69
   1 -11  -3  302.93   22.19
  -1 -11   3  300.94   22.67
   1 -11  -3  319.42   11.83
  -1 -11   3  308.01   26.45
   1 -11  -3  298.48   11.75
  -1 -11   3  281.45   18.88
   1 -11  -3  309.19   26.44
   1 -11  -3  296.37   18.74
  -1 -11   3  296.57   11.75
  -1 -11   3  307.06   17.78
   1 -11  -3  304.43   17.58
  -1  11   3  322.76   21.99
  -1  11   3  307.48   18.65
  -1  11   3  313.01   11.71
   1  11  -3  359.05   24.96
  -1  11   3  293.93   24.58
  -1  11   3  308.07   11.73
   1  11  -3  259.45   16.35
  -1  11   3  312.85   11.81
   1  11  -3  273.98   17.59
  -1  11   3  321.07   17.53
   1  11  -3  313.52   11.66
   1  11  -3  280.27   20.39
   0 -11   3   97.62   11.70
   0 -11   3  144.67   30.17
   0 -11  -3   93.58    8.87
   0 -11   3   91.10   10.13
   0 -11   3   72.59   14.62
   0 -11   3   93.89    3.87
   0 -11  -3   85.97   12.50
   0 -11  -3  100.39   16.44
   0 -11  -3   96.68    3.90
   0 -11  -3   91.27   10.01
   0  11   3   98.08    9.11
   0  11  -3  125.09   12.09
   0  11  -3   98.81    3.72
   0  11  -3   69.10   16.19
   0  11  -3   86.93   10.08
   0  11   3   79.46   15.74
   0  11   3   91.13    3.83
   0  11   3   89.76   13.00
   0  11  -3   87.83   12.83
   0  11   3   75.28    9.91
   0  11   3   95.09    3.85
   1 -11   3   21.28   19.14
  -1 -11  -3    3.52    0.57
   1 -11   3   19.39   11.20
  -1 -11  -3   11.88    9.88
   1 -11   3    4.68    7.83
  -1 -11  -3    6.71    4.94
   1 -11   3    5.46    0.83
  -1 -11  -3    3.94    4.04
  -1 -11  -3   -2.24    6.49
   1 -11   3    5.33    6.48
   1  11   3    4.77    0.57
   1  11   3    4.12    4.94
  -1  11  -3   15.82    8.17
  -1  11  -3    4.48    0.62
   1  11   3    9.04    4.36
  -1  11  -3   -3.31    5.06
   1  11   3   -4.50    8.10
  -1  11  -3    0.95    9.14
  -1  11  -3    0.71   16.63
   1  11   3   16.11    6.89
  -2 -11  -3  164.79   11.42
  -2 -11  -3  188.18   12.93
   2 -11   3  172.22   20.44
  -2 -11  -3  185.06    7.24
  -2 -11  -3  196.23   15.65
   2 -11   3  171.34   14.53
   2 -11   3  193.34   16.31
   2 -11   3  227.04   34.16
  -2 -11  -3  195.98   19.58
   2 -11   3  180.08    7.24
  -2  11  -3  183.62   23.24
  -2  11  -3  175.82   18.94
  -2  11  -3  177.06   14.21
   2  11   3  161.09   18.28
   2  11   3  169.62   14.86
   2  11   3  179.21   11.27
   2  11   3  186.16    7.26
  -2  11  -3  201.43   18.14
  -2  11  -3  179.91    7.24
   2  11   3  191.03   12.42
   2  11   3  178.46    7.19
   3 -11   3   36.16    1.85
   3 -11   3   21.85   24.83
   3 -11   3   33.59    1.92
   3 -11   3   33.44   32.74
  -3 -11  -3   37.64    1.94
   3 -11   3   41.90   18.43
  -3  11  -3   36.78    1.88
   3  11   3   34.85    1.88
   3  11   3   35.23    1.83
   3 -12  -3   23.70    7.63
   3 -12  -3  -12.90   13.27
  -3 -12   3   17.24    1.48
   3 -12  -3   15.32   20.62
   3 -12  -3   18.54    1.33
   3 -12  -3    9.69    9.49
   3 -12  -3   17.67    1.33
  -3  12   3   30.83   20.97
   3  12  -3   18.57    1.14
  -3  12   3   11.38   17.47
  -3  12   3   19.14    1.14
  -3  12   3   17.57    1.33
  -3  12   3   29.27   10.77
  -3  12   3   23.95   12.61
  -3  12   3   15.92    1.41
   2 -12  -3  237.10   30.57
   2 -12  -3  237.83    9.16
   2 -12  -3  201.94   16.73
   2 -12  -3  212.25   23.58
   2 -12  -3  235.54    9.11
  -2 -12   3  229.43    9.07
  -2  12   3  202.84   16.20
  -2  12   3  271.25   29.80
  -2  12   3  231.54    9.06
  -2  12   3  241.69    9.21
  -2  12   3  253.47    9.03
   2  12  -3  238.40    9.00
  -2  12   3  181.65   17.69
   1 -12  -3   71.87   12.13
   1 -12  -3   99.91    4.03
   1 -12  -3  114.45   16.82
  -1 -12   3   91.22   17.44
   1 -12  -3  110.31   11.24
   1 -12  -3  130.20   22.66
   1 -12  -3   93.66    3.98
  -1 -12   3   92.28    3.99
  -1 -12   3   75.96   11.08
  -1 -12   3   94.44   13.18
  -1 -12   3   55.43   17.26
  -1  12   3  148.98   19.90
  -1  12   3   96.37    4.03
  -1  12   3  100.37   12.25
   1  12  -3  116.24   15.98
   1  12  -3   88.43   13.22
   1  12  -3  103.19   11.91
  -1  12   3  100.39   19.68
   1  12  -3   84.52   20.23
   1  12  -3   95.50    3.85
  -1  12   3  105.84   10.75
  -1  12   3   97.34    3.95
   0 -12   3   86.56   13.43
   0 -12  -3  119.01   15.43
   0 -12  -3  102.20    4.35
   0 -12  -3  136.67   20.33
   0 -12   3   89.25   11.53
   0 -12  -3  104.74   11.69
   0 -12   3  101.68   17.61
   0 -12   3   98.33   22.41
   0 -12  -3  117.74   10.47
   0 -12   3  105.24    4.37
   0  12   3  103.14   10.17
   0  12   3  107.23    4.34
   0  12   3   87.89   18.51
   0  12   3  112.55   15.03
   0  12  -3  101.34   10.49
   0  12   3  109.03    4.34
   0  12  -3  108.49    4.20
   0  12  -3   95.79   11.76
   0  12  -3  129.86   20.04
   0  12   3  109.51   11.68
  -1 -12  -3  246.52   19.39
   1 -12   3  262.74   10.10
   1 -12   3  234.37   27.69
  -1 -12  -3  250.13   15.13
  -1 -12  -3  236.89   16.24
  -1 -12  -3  246.78   10.05
  -1 -12  -3  253.77   23.42
   1 -12   3  298.82   20.78
   1 -12   3  327.94   30.20
   1  12   3  314.54   21.41
   1  12   3  253.77   16.82
  -1  12  -3  251.44   10.07
  -1  12  -3  224.45   27.13
   1  12   3  244.82   10.01
  -1  12  -3  270.27   18.76
   1  12   3  314.38   26.63
   1  12   3  247.00   10.06
   1  12   3  237.12   23.99
   2 -12   3    6.92   17.22
   2 -12   3   11.98   10.22
   2 -12   3   -2.02    8.64
   2 -12   3    2.18    0.66
   2 -12   3    9.72   12.71
  -2  12  -3   -1.82    7.78
  -2  12  -3  -20.87   19.68
  -2  12  -3   -5.92   11.33
  -2  12  -3    2.19    6.23
   3 -12   3   25.22    1.60
  -3 -12  -3   26.86    1.64
   3 -12   3   23.94    1.67
   3  12   3   23.84    1.51
   3  12   3   25.02    1.53
  -3  12  -3   24.80    1.57
   3 -13  -3  116.71    4.85
   3 -13  -3  111.76    4.85
  -3 -13   3  115.15    4.87
   3  13  -3  116.52    4.69
  -3  13   3  110.76    4.93
  -3  13   3  115.86    4.63
  -3  13   3  115.36    4.79
   2 -13  -3   15.43    1.14
   2 -13  -3   13.95    1.21
  -2 -13   3   16.00    1.35
  -2  13   3   13.48    1.01
   2  13  -3   15.14    0.97
  -2  13   3   11.92    1.17
  -2  13   3   11.81    1.15
   1 -13  -3  114.76    4.64
  -1 -13   3  109.36    4.60
   1 -13  -3  110.63    4.60
  -1  13   3  112.34    4.64
  -1  13   3  109.86    4.53
   1  13  -3  111.87    4.45
   0 -13  -3  105.29    4.47
   0 -13  -3  111.61    4.52
   0 -13   3  103.03    4.53
   0  13   3  112.84    4.50
   0  13  -3  110.62    4.34
   0  13   3  111.17    4.50
   1 -13   3   32.73   19.72
   1 -13   3    6.28    1.08
   1 -13   3    7.32   25.13
  -1 -13  -3    4.80    0.84
  -1 -13  -3    8.71    0.98
  -1  13  -3   21.21   17.66
  -1  13  -3    0.09   12.83
  -1  13  -3    7.23    0.83
  -1  13  -3   14.75    8.92
  -1  13  -3    9.96   15.60
   1  13   3    7.19    0.76
   1  13   3    7.56    0.87
  -2 -13  -3  160.94    6.42
   2 -13   3  146.78   16.50
   2 -13   3  158.11    6.58
   2 -13   3  255.03   39.27
  -2 -13  -3  167.34    6.53
   2 -13   3  267.89   51.99
   2 -13   3  124.59   18.47
  -2  13  -3  145.95   23.42
   2  13   3  165.02    6.60
  -2  13  -3  222.99   25.99
  -2  13  -3  148.69   29.99
  -2  13  -3  157.79   18.28
   2  13   3  156.66    6.50
  -2  13  -3  164.05    6.57
   2 -14  -3   77.32    3.58
  -2 -14   3   84.88    3.66
   2 -14  -3   83.66    3.61
  -2  14   3   81.64    3.45
   2  14  -3   82.67    3.42
  -2  14   3   80.34    3.63
   1 -14  -3   -0.25    0.50
  -1 -14   3    0.57    0.65
   1 -14  -3    0.43    0.60
  -1  14   3    0.30    0.50
   1  14  -3   -0.05    0.36
  -1  14   3    0.48    0.49
   0 -14  -3   67.89    3.18
   0 -14   3   70.81    3.26
   0 -14  -3   73.69    3.20
   0  14   3   74.47    3.19
   0  14   3   74.00    3.16
   0  14  -3   74.36    3.00
  -1 -14  -3   68.87    3.07
   1 -14   3   71.90    3.22
  -1 -14  -3   65.63    3.06
   1  14   3   69.93    3.13
   1  14   3   68.49    3.02
  -1  14  -3   73.30    3.16
   2 -14   3    4.52    0.89
  -2 -14  -3    5.24    0.80
  -2 -14  -3    4.93    0.79
   2  14   3    5.10    0.93
   2  14   3    3.07    0.63
  -2  14  -3    5.53    0.96
  -1 -15   3   22.99    1.70
   1 -15  -3   25.40    1.54
   1 -15  -3   18.80    1.57
  -1  15   3   25.49    1.49
  -1  15   3   24.62    1.54
   1  15  -3   24.92    1.33
   0 -15   3   15.65    1.51
   0 -15  -3   16.61    1.48
   0 -15  -3   17.06    1.31
   0  15   3   19.00    1.29
   0  15   3   18.62    1.30
   0  15  -3   19.77    1.06
   1 -15   3   22.49    1.69
  -1 -15  -3   22.77    1.49
  -1 -15  -3   23.90    1.67
   1  15   3   23.41    1.37
   1  15   3   23.61    1.52
  -1  15  -3   23.47    1.53
  -5   0   4    7.45    1.50
  -5   0   4    7.88    1.12
   4   0  -4  331.73   18.64
   4   0  -4  277.03   23.78
  -4   0   4  354.77   13.31
  -4   0   4  353.87   12.93
   4   0  -4  336.14   17.60
   4   0  -4  325.09   21.37
  -3   0   4  111.44    4.88
   3   0  -4  125.82    8.91
   3   0  -4  128.15    9.85
   3   0  -4  120.50   12.01
   3   0  -4  127.65    4.74
  -3   0   4  120.96    5.08
   3   0  -4  120.96   14.48
   2   0  -4   12.89    4.41
  -2   0   4   13.35    0.84
   2   0  -4    9.42    3.34
   2   0  -4   14.30    3.35
  -2   0   4   12.93    0.97
   2   0  -4   14.70    0.67
   2   0  -4    5.93    4.56
  -2   0   4   12.66    0.79
   1   0  -4  365.54   14.29
   1   0  -4  377.73   18.00
   1   0  -4  375.91   19.63
  -1   0   4  371.25   14.29
  -1   0   4  382.12   14.33
   1   0  -4  374.24   17.30
   0   0  -4  220.44   11.21
   0   0  -4  221.53   11.81
   0   0  -4  216.26    8.52
   0   0  -4  217.92   11.66
   0   0  -4  215.46   13.07
   0   0  -4  267.11   16.64
   0   0  -4  210.37   10.99
   0   0   4  209.87    8.42
   1   0   4   17.79    0.85
   1   0   4   16.58    0.85
  -1   0  -4   24.84    5.62
  -1   0  -4   22.34    4.08
  -1   0  -4   23.98    6.85
  -1   0  -4   19.47    3.43
  -2   0  -4  463.03   24.34
   2   0   4  448.29   17.20
   2   0   4  447.38   17.22
  -2   0  -4  474.31   20.34
  -2   0  -4  426.40   17.16
  -2   0  -4  445.53   22.44
  -2   0  -4  466.11   20.87
  -3   0  -4   73.09    7.53
  -3   0  -4   81.25    6.83
   3   0   4   88.44    3.56
  -3   0  -4  107.20   12.22
  -3   0  -4   90.50    9.53
   3   0   4   93.05    3.54
   4   0   4  148.26    5.81
   4   0   4  144.56    5.76
   5   0   4   46.72    2.33
  -5  -1   4  120.39    5.38
  -5  -1   4  121.03    4.89
  -5   1   4  120.50    4.89
  -5   1   4  118.13    5.36
   4  -1  -4   65.66   14.72
  -4  -1   4   37.30    2.24
  -4  -1   4   44.79    1.91
   4  -1  -4   30.70    7.70
   4  -1  -4   59.01   11.72
   4  -1  -4   37.25    9.18
   4   1  -4   40.97    7.23
   4   1  -4   26.14    8.30
   4   1  -4   40.74    7.81
  -4   1   4   38.73    2.21
   4   1  -4   41.30    8.00
  -4   1   4   43.12    1.88
   4   1  -4   35.64   11.32
   4   1  -4   42.93   10.23
   4   1  -4   39.40    8.37
   4   1  -4   39.83   12.73
   3  -1  -4  136.24    5.00
   3  -1  -4  121.91   12.24
   3  -1  -4  122.04    9.02
  -3  -1   4  126.07    5.03
   3  -1  -4  135.77   15.19
  -3  -1   4  137.76    5.02
  -3  -1   4  123.03    5.30
   3  -1  -4  105.40    9.60
  -3   1   4  121.53   11.70
   3   1  -4  138.62    4.95
   3   1  -4  132.79   12.05
  -3   1   4  130.05   13.89
  -3   1   4  122.31    9.76
  -3   1   4  125.70    5.04
  -3   1   4  116.00    8.77
  -3   1   4  122.84    5.29
   3   1  -4  124.40    8.92
   3   1  -4  136.96   14.86
   3   1  -4  130.18    9.88
  -2  -1   4  609.73   21.73
   2  -1  -4  588.02   30.20
   2  -1  -4  572.96   25.29
   2  -1  -4  562.11   25.92
  -2  -1   4  553.94   21.75
   2  -1  -4  531.07   21.74
   2   1  -4  574.86   29.85
   2   1  -4  568.17   25.21
  -2   1   4  580.41   21.76
   2   1  -4  587.26   26.09
   2   1  -4  567.45   25.41
   2   1  -4  575.83   27.98
  -2   1   4  563.35   25.05
  -2   1   4  568.06   29.22
   2   1  -4  561.37   26.11
   2   1  -4  550.76   27.91
   2   1  -4  559.28   29.88
  -2   1   4  593.33   25.99
  -2   1   4  581.12   21.93
   2   1  -4  577.04   21.68
   1  -1  -4   15.11    7.26
   1  -1  -4    0.55    3.51
   1  -1  -4    3.55    2.90
  -1  -1   4    2.88    0.42
   1  -1  -4    6.40    2.61
   1  -1  -4    4.53    0.42
  -1  -1   4    2.69    0.29
   1   1  -4    2.74    0.37
  -1   1   4    2.86    0.53
   1   1  -4    1.89    2.46
  -1   1   4    3.19    0.43
   1   1  -4   12.41    5.45
   1   1  -4    4.63    2.95
   1   1  -4    4.30    4.65
   1   1  -4   -1.69    9.15
  -1   1   4    2.91    0.46
   1   1  -4    2.22    2.48
   1   1  -4    2.75    2.07
   1   1  -4    3.34    3.31
   0  -1  -4  322.80   15.10
   0  -1  -4  325.47   15.65
   0  -1  -4  319.51   17.06
   0  -1  -4  317.27   18.38
   0  -1  -4  328.64   15.72
   0  -1  -4  310.36   12.41
   0  -1  -4  386.23   20.94
   0  -1  -4  328.10   17.16
   0  -1   4  307.99   12.31
   0  -1  -4  340.48   15.13
   0   1  -4  320.25   15.15
   0   1  -4  321.31   17.24
   0   1  -4  315.96   15.73
   0   1  -4  322.11   12.40
   0   1   4  316.62   12.30
   0   1   4  305.24   12.29
   1  -1   4  242.34   12.12
   1  -1   4  230.34   15.69
  -1  -1  -4  246.76   12.27
  -1  -1  -4  244.08   11.87
  -1  -1  -4  229.77    9.30
  -1  -1  -4  239.12   15.31
  -1  -1  -4  238.05   13.83
   1  -1   4  242.25    9.14
   1  -1   4  247.58   12.82
  -1  -1  -4  235.51   12.38
  -1  -1  -4  236.59   14.65
   1  -1   4  236.06   14.21
  -1  -1  -4  255.34   13.66
  -1  -1  -4  246.63   11.70
  -1   1  -4  231.30   11.91
  -1   1  -4  234.50   14.08
   1   1   4  238.51    9.10
   1   1   4  228.14    9.15
  -1   1  -4  233.76   12.56
  -1   1  -4  236.94   15.50
   1   1   4  232.41    9.10
  -2  -1  -4   -0.07    3.78
   2  -1   4    0.00    2.91
   2  -1   4    0.00    3.90
   2  -1   4    1.48    5.48
   2  -1   4    0.88    0.22
  -2  -1  -4    0.19    2.22
  -2  -1  -4   -2.62    2.79
   2  -1   4    0.41    0.32
  -2  -1  -4   -5.09    4.74
   2  -1   4    2.20    2.54
   2   1   4    0.71    0.32
  -2   1  -4    0.25    0.22
   2   1   4    0.56    0.26
  -2   1  -4    0.93    2.76
  -2   1  -4   -2.81    5.82
   2   1   4    0.20    0.19
  -2   1  -4    5.37    4.72
  -2   1  -4    2.04    3.20
   3  -1   4  122.55    9.52
  -3  -1  -4  109.02   10.10
  -3  -1  -4  118.68    7.78
   3  -1   4  130.62    8.76
  -3  -1  -4  116.87    8.56
   3  -1   4  104.80   13.63
  -3  -1  -4  115.60   12.70
   3  -1   4  122.91   11.55
   3  -1   4  129.16    4.80
   3  -1   4  127.24    4.85
   3   1   4  124.92    4.86
  -3   1  -4  115.73    8.48
  -3   1  -4  137.34   14.13
  -3   1  -4  114.17    9.30
   3   1   4  128.56    4.82
   3   1   4  124.68    4.84
  -3   1  -4  114.04   11.22
  -4  -1  -4  210.29   15.71
   4  -1   4  202.13    8.37
   4  -1   4  218.76    8.46
  -4  -1  -4  220.52   13.50
  -4  -1  -4  216.09   11.21
  -4  -1  -4  222.11   12.42
  -4  -1  -4  201.06   10.46
  -4  -1  -4  222.40   12.89
  -4  -1  -4  253.10   18.80
  -4  -1  -4  204.00   14.46
  -4   1  -4  226.41    8.43
   4   1   4  223.01    8.46
   4   1   4  216.77    8.46
  -5  -2   4  109.63    5.04
  -5  -2   4  114.01    4.51
  -5   2   4  106.82    4.95
  -5   2   4  108.08    4.50
   4  -2  -4  101.67   14.09
   4  -2  -4  114.47    4.34
   4  -2  -4   88.51   18.06
  -4  -2   4  111.47    4.37
  -4  -2   4  110.53    4.77
   4  -2  -4   83.81    9.37
   4  -2  -4  108.80   11.16
   4   2  -4  107.56   14.26
   4   2  -4   99.14    9.91
   4   2  -4   90.10   12.20
   4   2  -4  111.11   11.44
  -4   2   4  116.56   15.19
  -4   2   4  104.76   11.89
  -4   2   4  106.24    4.69
   4   2  -4   93.99   17.99
  -4   2   4  126.45   18.36
  -4   2   4  108.98    4.35
  -4   2   4  114.61   10.23
   4   2  -4  108.47   18.20
   4   2  -4  117.64   10.14
   4   2  -4  101.85   15.84
   3  -2  -4    0.27    5.98
   3  -2  -4    7.31    3.90
  -3  -2   4    6.36    0.70
   3  -2  -4    9.53    8.52
  -3  -2   4    5.33    0.92
   3  -2  -4    8.75    4.87
   3  -2  -4    6.87    0.56
  -3   2   4    7.66    3.85
  -3   2   4    5.41    0.86
  -3   2   4    7.22    6.01
   3   2  -4    7.64    5.91
   3   2  -4    3.30    7.39
   3   2  -4    7.53    7.85
   3   2  -4    9.68    4.70
   3   2  -4   11.21    4.16
  -3   2   4    5.72    0.70
   3   2  -4   12.03    4.79
  -3   2   4    9.61    4.76
   3   2  -4    6.37    5.64
   3   2  -4   10.97    4.17
  -3   2   4    9.28    7.36
   2  -2  -4   28.99    5.54
   2  -2  -4   21.14    4.51
  -2  -2   4   26.56    1.25
   2  -2  -4   15.23    4.75
   2  -2  -4   26.27    1.20
   2  -2  -4   28.37   13.80
  -2   2   4   42.37    8.44
   2   2  -4   28.31    5.45
  -2   2   4   27.83    1.25
  -2   2   4   39.37   10.58
   2   2  -4   26.82    7.82
  -2   2   4   35.91    8.92
   2   2  -4   26.36    6.47
  -2   2   4   29.63    4.59
  -2   2   4   25.73    1.43
   2   2  -4   26.75    4.93
   1  -2  -4  229.91    8.87
  -1  -2   4  233.31    8.85
   1  -2  -4  233.01   14.15
   1  -2  -4  236.44   12.58
   1  -2  -4  240.20   12.01
   1   2  -4  240.81   12.08
   1   2  -4  238.05   12.71
  -1   2   4  188.93   15.25
  -1   2   4  227.42    8.91
  -1   2   4  241.26    8.85
   1   2  -4  229.67   15.85
   1   2  -4  221.90    8.86
  -1   2   4  211.64   13.46
   0  -2  -4  290.80   13.94
   0  -2  -4  289.42   17.54
   0  -2  -4  287.89   14.48
   0  -2   4  361.53   18.99
   0  -2  -4  284.65   11.35
   0  -2   4  289.75   14.26
   0  -2   4  293.09   14.92
   0  -2   4  287.51   11.26
   0   2   4  299.71   11.23
   0   2   4  271.56   11.23
   0   2  -4  268.26   15.92
   0   2  -4  335.53   16.18
   0   2  -4  287.73   17.67
  -1  -2  -4  317.98   16.75
   1  -2   4  320.12   16.04
   1  -2   4  318.05   17.69
  -1  -2  -4  315.66   18.10
  -1  -2  -4  313.89   14.77
  -1  -2  -4  326.23   16.61
   1  -2   4  336.62   19.65
  -1  -2  -4  328.44   15.23
  -1  -2  -4  317.88   14.58
  -1  -2  -4  301.79   12.29
   1  -2   4  301.75   12.13
  -1  -2  -4  318.80   17.79
   1  -2   4  314.87   15.27
  -1  -2  -4  332.15   15.47
  -1   2  -4  377.11   16.44
  -1   2  -4  311.91   15.73
  -1   2  -4  285.23   16.92
   1   2   4  310.41   12.09
   1   2   4  323.61   12.08
   1   2   4  315.65   12.08
   1   2   4  313.07   12.15
  -1   2  -4  293.77   18.49
  -2  -2  -4  455.99   20.85
  -2  -2  -4  455.94   23.83
  -2  -2  -4  460.34   22.45
   2  -2   4  448.67   25.64
  -2  -2  -4  478.18   20.34
   2  -2   4  467.24   21.85
   2  -2   4  466.33   21.08
  -2  -2  -4  442.80   17.81
   2  -2   4  472.82   23.83
   2  -2   4  423.17   17.54
   2  -2   4  469.44   17.57
   2  -2   4  461.92   17.55
  -2  -2  -4  450.85   22.77
  -2  -2  -4  468.10   20.34
  -2  -2  -4  456.16   19.74
   2  -2   4  459.07   17.60
  -2  -2  -4  463.45   21.60
   2  -2   4  470.65   17.57
  -2   2  -4  477.14   17.52
  -2   2  -4  477.78   21.09
  -2   2  -4  468.14   25.52
   2   2   4  458.24   17.57
  -2   2  -4  458.36   23.45
  -2   2  -4  475.15   21.77
   2   2   4  455.22   17.61
   3  -2   4   12.89    0.92
   3  -2   4   17.54    7.32
   3  -2   4   12.41    0.67
  -3  -2  -4   15.35    4.04
  -3  -2  -4   20.83    7.22
   3  -2   4   25.03    6.64
  -3  -2  -4   11.42    2.85
  -3  -2  -4   13.87    3.91
  -3  -2  -4   14.32    3.46
   3  -2   4   10.19    8.93
  -3  -2  -4   17.05    4.76
  -3  -2  -4   17.77    6.01
   3  -2   4   12.37    4.41
  -3  -2  -4   18.66    5.04
  -3   2  -4   17.30    8.24
  -3   2  -4   10.78    4.68
   3   2   4   11.19    0.77
  -3   2  -4   12.56    0.74
  -3   2  -4   14.62    4.21
   3   2   4   12.16    0.85
  -3   2  -4   13.89    6.32
   4  -2   4   41.12    2.01
   4   2   4   42.26    1.92
   4   2   4   43.61    1.98
   4   2   4   40.62    1.98
  -4   2  -4   46.17    2.14
  -5  -3   4    4.61    1.11
  -5  -3   4    3.09    0.69
  -5   3   4    3.70    0.68
  -5   3   4    2.97    0.93
   4  -3  -4   18.92    6.11
  -4  -3   4   18.60    1.58
   4  -3  -4   18.00    7.14
  -4  -3   4   18.10    1.18
   4  -3  -4   16.86    8.84
   4  -3  -4   18.36    1.11
   4  -3  -4    8.62   11.02
  -4   3   4   16.55    1.14
  -4   3   4   19.37    1.48
  -4   3   4   20.23    8.70
   4   3  -4   30.63   12.49
  -4   3   4   19.68    6.92
  -4   3   4    4.89   10.51
  -4   3   4   30.60   15.57
   4   3  -4   24.40    6.47
   4   3  -4   22.15    7.41
   4   3  -4   20.65    9.36
   3  -3  -4  162.98   11.75
   3  -3  -4  153.18   14.15
   3  -3  -4  134.89   16.41
   3  -3  -4  161.23    6.23
  -3  -3   4  169.43    6.24
   3  -3  -4  152.23   10.52
  -3   3   4  152.20   13.64
   3   3  -4  181.48   16.15
   3   3  -4  146.34   10.86
   3   3  -4  151.23   11.10
   3   3  -4  165.82   13.44
  -3   3   4  155.82    6.23
   3   3  -4  147.11   10.18
  -3   3   4  161.94   11.62
  -3   3   4  167.80   10.66
   3   3  -4  155.42   10.12
   3   3  -4  163.22   13.57
   3   3  -4  163.04   16.11
  -3   3   4  162.11    6.50
  -3   3   4  170.61   16.24
   2  -3  -4   65.85    2.77
  -2  -3   4   67.77    2.79
   2  -3  -4   60.58    9.18
   2  -3  -4   64.64    6.45
   2  -3  -4   76.35    7.50
   2  -3  -4   67.97   11.67
   2   3  -4   74.02    7.31
  -2   3   4   67.88    2.97
   2   3  -4   62.63    8.91
   2   3  -4   70.68    2.84
   2   3  -4   69.23    6.33
   2   3  -4   73.40   11.37
   1  -3  -4   20.59    7.04
   1  -3  -4   33.35    4.90
  -1  -3   4   20.09    1.06
   1  -3  -4   22.43    5.36
   1  -3  -4   21.35    1.08
   1  -3  -4   21.89    5.68
   1   3  -4   20.75    3.77
   1   3  -4   26.14    6.13
  -1   3   4   21.11    1.04
   1   3  -4   28.42    5.57
  -1   3   4   20.70    4.17
   1   3  -4   21.80    1.00
  -1   3   4   21.69    1.11
  -1   3   4   32.88    7.14
   1   3  -4   44.02   10.64
  -1   3   4   25.31    3.81
  -1   3   4   27.40    7.30
   0  -3   4  271.44   10.04
   0  -3   4  261.57   13.95
   0  -3   4  245.43   16.91
   0  -3  -4  252.17   10.12
   0  -3  -4  253.32   16.14
   0  -3  -4  261.00   14.80
   0  -3   4  271.71   13.35
   0  -3  -4  254.82   12.73
   0  -3  -4  269.71   13.41
   0  -3   4  258.50   15.61
   0   3   4  257.06    9.98
   0   3  -4  250.45   18.66
   0   3   4  288.08   10.06
   0   3   4  246.39   15.60
   0   3   4  266.43   12.69
   0   3  -4  255.23   17.00
   0   3   4  262.30   13.28
   0   3  -4  243.49   14.65
   0   3   4  262.80   14.60
   1  -3   4    0.28    5.36
   1  -3   4    0.56    0.28
   1  -3   4    0.81    3.82
   1  -3   4    1.11    0.34
  -1  -3  -4    0.48    1.96
  -1  -3  -4    0.57    2.51
  -1  -3  -4    0.65    0.36
   1  -3   4    4.85    2.82
  -1  -3  -4   -1.59    4.11
   1  -3   4    2.12    4.38
   1  -3   4    0.85    0.27
  -1  -3  -4   -1.08    3.31
   1   3   4    0.34    0.20
  -1   3  -4    4.01    3.25
  -1   3  -4    9.93    4.31
   1   3   4    0.34    0.25
  -1   3  -4    2.06    7.30
   1   3   4    0.94    0.19
  -1   3  -4    2.88    2.96
   2  -3   4   21.45    5.73
   2  -3   4   20.27    5.69
  -2  -3  -4   14.14    4.69
  -2  -3  -4   23.41    4.84
  -2  -3  -4   15.80    1.16
   2  -3   4   18.59    1.25
   2  -3   4   16.95    0.91
  -2  -3  -4   19.41    6.19
  -2  -3  -4   14.14    3.12
  -2  -3  -4   15.41    5.24
   2  -3   4   15.55    0.77
  -2  -3  -4   12.47    3.61
   2  -3   4   14.89    6.88
   2  -3   4   19.53    4.72
  -2  -3  -4   16.16    3.77
  -2  -3  -4   22.74    3.90
   2  -3   4   17.00    1.13
   2  -3   4   16.39    0.93
  -2   3  -4   10.71    4.95
  -2   3  -4   16.37    0.81
   2   3   4   17.26    0.90
  -2   3  -4   20.33    4.70
  -2   3  -4   11.32    6.53
  -2   3  -4   18.39    4.34
   2   3   4   17.23    0.89
   2   3   4   16.21    0.84
   3  -3   4  152.88   17.13
   3  -3   4  154.71    6.04
  -3  -3  -4  158.69   10.30
  -3  -3  -4  162.67    6.37
  -3  -3  -4  149.17   12.17
   3  -3   4  143.18   10.35
   3  -3   4  154.68   11.58
  -3  -3  -4  126.54   10.26
   3  -3   4  145.30   13.88
  -3  -3  -4  155.84    8.27
  -3  -3  -4  133.02    9.51
  -3  -3  -4  151.07    8.84
   3   3   4  160.33    6.05
  -3   3  -4  170.44   14.02
  -3   3  -4  159.39   10.60
  -3   3  -4  163.10    6.04
   3   3   4  166.25    6.05
  -3   3  -4  152.01   16.65
  -3   3  -4  156.02   11.45
   3   3   4  150.89    6.09
   4  -3   4   43.46    2.15
  -4  -3  -4   46.54    2.52
   4   3   4   47.85    2.09
   4   3   4   48.13    2.15
  -4   3  -4   45.65    2.11
   4   3   4   45.40    2.12
  -5  -4   4    3.06    0.78
  -5  -4   4    3.95    1.06
  -5   4   4    3.92    0.75
  -5   4   4    5.67    1.03
   4  -4  -4    3.35    9.68
   4  -4  -4    5.26   14.75
  -4  -4   4    5.10    0.91
   4  -4  -4    5.95    5.85
  -4  -4   4    3.75    0.69
   4  -4  -4    5.33    0.72
   4  -4  -4   -5.32    6.57
   4  -4  -4    3.34    0.56
   4   4  -4    0.88    7.96
  -4   4   4   11.04    9.03
   4   4  -4    5.70    5.18
  -4   4   4    4.49    0.58
  -4   4   4    4.02   10.52
   4   4  -4   13.24    6.44
  -4   4   4    5.93    1.07
   4   4  -4   13.83   11.70
   3  -4  -4    0.07    0.28
   3  -4  -4   -2.12    6.88
   3  -4  -4   -8.71    8.94
  -3  -4   4    0.14    0.38
   3  -4  -4    1.58    5.20
   3  -4  -4   -3.29    4.11
  -3   4   4   -6.55    8.33
  -3   4   4    0.47    0.36
   3   4  -4   -3.37    8.10
   3   4  -4    0.40    4.12
   3   4  -4   -9.65    5.67
   3   4  -4    4.27    5.85
  -3   4   4   -4.89    4.50
   3   4  -4    2.37    3.54
  -3   4   4   -0.11    0.43
   3   4  -4   -2.36    3.48
   3   4  -4    7.35    8.26
  -3   4   4    0.75    6.11
  -3   4   4    0.53    3.67
   3   4  -4   -3.12    4.19
   2  -4  -4    2.68    0.39
  -2  -4   4    2.24    0.39
   2  -4  -4    1.35    6.77
   2  -4  -4   -1.10    2.91
   2  -4  -4   -2.67    7.22
   2  -4  -4    3.10    4.83
   2   4  -4    0.82    5.78
  -2   4   4    2.67    0.49
  -2   4   4    3.44    4.11
   2   4  -4    3.63    2.88
   2   4  -4    2.50    5.03
   2   4  -4   -0.01    2.98
   2   4  -4   -8.41    5.34
  -2   4   4    2.88    2.87
   2   4  -4    2.44    0.50
   2   4  -4   -7.42    7.30
  -2   4   4    1.33   12.74
  -2   4   4    2.31    0.36
   2   4  -4    2.19    0.34
   2   4  -4   -5.62    9.14
  -2   4   4    6.13    3.80
   2   4  -4    7.32    4.31
  -1  -4   4    2.78    0.41
   1  -4  -4    2.99    3.83
   1  -4  -4    3.13    0.45
   1  -4  -4    3.83    2.48
  -1  -4   4    4.75    2.85
  -1  -4   4    5.16    5.75
  -1  -4   4    3.07    3.36
   1  -4  -4   -0.67    5.07
   1  -4  -4    3.41    3.11
  -1  -4   4    3.06    5.65
   1   4  -4    2.46    4.19
   1   4  -4    5.60    4.25
   1   4  -4    0.97    4.83
  -1   4   4    4.25    9.39
   1   4  -4    2.30    2.59
  -1   4   4    4.84    2.38
  -1   4   4    0.47    3.01
  -1   4   4    2.29    2.36
  -1   4   4    2.17    0.37
  -1   4   4    1.99    0.32
   0  -4  -4   -2.63    3.56
   0  -4  -4   -0.30    1.75
   0  -4   4   -1.31    5.12
   0  -4   4    0.46    2.62
   0  -4  -4   -2.32    2.59
   0  -4  -4    0.49    0.29
   0  -4   4   -1.81    6.72
   0  -4   4   -0.18    0.24
   0  -4  -4    0.54    2.00
   0  -4  -4   -0.23    0.25
   0  -4   4   -0.22    3.07
   0   4   4    1.18    4.69
   0   4   4    0.25    2.52
   0   4   4    0.44    0.20
   0   4   4   -0.68    2.04
   0   4  -4    0.74    3.77
   0   4   4   -0.02    0.20
   0   4  -4   -0.43    4.95
   0   4  -4    2.73    3.19
   0   4   4   -0.05    0.17
   0   4  -4   -0.45    2.09
   0   4   4    1.86    3.66
  -1  -4  -4    9.55    0.81
   1  -4   4    9.76    0.69
  -1  -4  -4   12.40    4.24
  -1  -4  -4   13.17    5.30
   1  -4   4   13.35    6.74
   1  -4   4    7.55    3.90
   1  -4   4   22.56    5.50
  -1  -4  -4   12.58    3.01
   1  -4   4   12.16    0.98
  -1  -4  -4    9.94    3.31
   1  -4   4   10.39    5.38
   1   4   4   10.29    0.56
  -1   4  -4    5.06    4.06
  -1   4  -4    9.53    0.56
  -1   4  -4   13.04    5.64
   1   4   4    9.54    0.62
  -1   4  -4   13.67    3.81
   1   4   4   10.29    0.62
  -1   4  -4   14.66    3.59
  -2  -4  -4    6.91    3.44
   2  -4   4   13.57    6.94
   2  -4   4    3.10    3.84
  -2  -4  -4    0.52    4.17
  -2  -4  -4    3.07    2.57
  -2  -4  -4    5.28    2.70
   2  -4   4    2.91    3.20
   2  -4   4    1.64    5.00
  -2  -4  -4    6.65    2.31
  -2  -4  -4    1.70    3.19
   2  -4   4    4.20    0.56
  -2  -4  -4   -0.33    5.86
  -2  -4  -4    3.86    0.74
   2  -4   4    3.75    0.56
  -2  -4  -4   12.09    4.83
   2   4   4    3.83    0.47
  -2   4  -4   -1.84    2.75
   2   4   4    3.32    0.52
   2   4   4    4.29    0.56
  -2   4  -4    3.01    0.41
  -2   4  -4    4.23    5.03
  -2   4  -4    7.02    4.04
  -2   4  -4    4.93    7.16
   3  -4   4    1.65    0.47
  -3  -4  -4    2.21    3.08
  -3  -4  -4    0.81    3.97
   3  -4   4    3.20    4.33
  -3  -4  -4    3.87    2.65
  -3  -4  -4    1.72    5.74
  -3  -4  -4    3.42    2.20
  -3  -4  -4    1.06    3.58
  -3  -4  -4    7.71    4.83
  -3  -4  -4    2.18    0.62
   3  -4   4   10.94   10.08
   3  -4   4   -0.61    5.32
   3  -4   4    9.40    7.52
  -3  -4  -4    3.81    2.54
  -3   4  -4   -1.36    4.63
   3   4   4    2.21    0.39
  -3   4  -4    2.55    0.39
  -3   4  -4   -1.24    4.02
  -3   4  -4   -1.71    5.97
  -3   4  -4    2.35    8.78
   3   4   4    1.84    0.41
   3   4   4    1.58    0.42
  -4  -4  -4    6.89    1.33
   4  -4   4    4.89    0.73
   4   4   4    6.68    0.92
   4   4   4    5.99    0.91
  -4   4  -4    6.42    0.84
   4   4   4    6.15    0.81
  -5  -5   4    7.47    1.41
  -5  -5   4    8.61    1.40
  -5   5   4    9.41    1.57
  -4  -5   4    3.31    0.66
  -4  -5   4    2.03    0.86
   4  -5  -4    2.06    0.53
   4  -5  -4    3.03    0.56
  -4   5   4    2.33    0.72
  -4   5   4    2.14    0.53
   3  -5  -4  177.62   18.97
  -3  -5   4  162.53    6.12
   3  -5  -4  157.75   11.18
   3  -5  -4  161.93   12.26
   3  -5  -4  152.50    6.14
   3  -5  -4  155.71   14.88
   3   5  -4  154.98   16.77
   3   5  -4  148.62   13.79
   3   5  -4  150.54   10.28
   3   5  -4  147.80   11.31
  -3   5   4  157.31    6.13
  -3   5   4  138.62   17.33
  -3   5   4  148.36   14.89
   3   5  -4  149.32   10.05
  -3   5   4  160.07   12.37
   3   5  -4  141.79   13.15
   3   5  -4  163.28   16.01
   3   5  -4  156.72    6.05
  -3   5   4  155.22   11.20
  -3   5   4  160.64    6.36
   3   5  -4  157.31   11.11
   2  -5  -4    7.16    3.52
  -2  -5   4    7.94    0.69
   2  -5  -4   11.02    4.16
   2  -5  -4   11.06    5.26
   2  -5  -4    6.64    6.20
   2  -5  -4    7.82    0.62
   2   5  -4   26.10    8.34
   2   5  -4    9.75    4.32
  -2   5   4    8.33    4.25
   2   5  -4    7.49    0.52
  -2   5   4    7.41    0.64
   2   5  -4    7.64    0.93
   2   5  -4   10.88    5.82
  -2   5   4    8.12    0.84
  -2   5   4    5.70    5.03
  -2   5   4    2.13    5.76
  -2   5   4   11.95    4.99
   2   5  -4   12.73    3.84
   1  -5  -4    3.57    3.25
  -1  -5   4    3.00    0.52
   1  -5  -4   -0.19    3.99
  -1  -5   4    4.99    6.07
   1  -5  -4    2.21    2.52
  -1  -5   4    5.77    3.63
   1  -5  -4   -2.09    5.00
   1  -5  -4    3.18    0.49
  -1  -5   4    4.72    4.58
  -1  -5   4    3.20    2.85
  -1   5   4    0.97    4.35
   1   5  -4    0.35    3.76
   1   5  -4    2.45    0.26
  -1   5   4    3.46    3.27
  -1   5   4   -0.90    4.74
  -1   5   4    2.62    0.41
   1   5  -4    4.53    5.33
   1   5  -4    0.65    2.70
  -1   5   4    2.88    5.56
   1   5  -4    6.69    6.03
  -1   5   4    1.99    0.34
   0  -5  -4  169.51    6.91
   0  -5  -4  176.33    9.93
   0  -5  -4  172.62   13.91
   0  -5  -4  172.50    7.01
   0  -5  -4  163.41   10.37
   0  -5   4  175.64   15.13
   0  -5   4  188.98    6.95
   0  -5  -4  170.00   12.20
   0   5   4  179.45    6.87
   0   5  -4  168.69   13.90
   0   5  -4  178.06   10.74
   0   5  -4  183.89   10.26
   0   5   4  179.26    6.93
   0   5   4  171.07    6.86
   0   5  -4  205.70   14.54
   0   5   4  183.25   13.63
   0   5   4  189.19   10.67
   0   5   4  186.33   12.31
   0   5   4  181.45    9.94
   1  -5   4    8.58    5.67
  -1  -5  -4    3.38    2.37
   1  -5   4    1.80    3.24
  -1  -5  -4    6.43    3.98
  -1  -5  -4   11.99    5.57
   1  -5   4    9.02    3.31
   1  -5   4    4.97    4.35
  -1  -5  -4    9.60    3.06
  -1   5  -4    8.70    8.12
   1   5   4    6.63    0.47
   1   5   4    8.09    4.78
  -1   5  -4    8.02    3.71
   1   5   4    7.03    3.40
  -1   5  -4   11.66    5.08
  -1   5  -4    6.76    0.50
  -1   5  -4    5.92    2.67
   1   5   4    8.19    2.38
   1   5   4    5.06    2.54
   2  -5   4    5.55    3.91
   2  -5   4    4.63    7.57
   2  -5   4    4.16    0.68
  -2  -5  -4    5.73    0.77
  -2  -5  -4    9.87    2.62
   2  -5   4    2.19    5.55
   2  -5   4    7.37    3.37
  -2  -5  -4    9.54    3.23
  -2  -5  -4   10.07    6.27
  -2  -5  -4    6.79    3.87
  -2  -5  -4    8.58    3.69
  -2  -5  -4    5.27    3.08
  -2  -5  -4    7.72    5.12
   2  -5   4    5.46    0.64
  -2  -5  -4    2.14    4.26
  -2   5  -4    5.52    0.51
  -2   5  -4    7.41    3.67
   2   5   4    4.97    0.56
  -2   5  -4    1.93    4.35
   2   5   4    6.26    0.55
  -2   5  -4    6.16    8.52
  -2   5  -4   -0.29    5.58
   2   5   4    6.18    0.61
   3  -5   4  212.67    7.99
   3  -5   4  187.22   14.31
  -3  -5  -4  211.50    8.28
   3  -5   4  191.05   13.15
   3  -5   4  185.95   17.34
   3  -5   4  188.54   20.68
  -3   5  -4  214.78   17.76
  -3   5  -4  183.45   20.95
   3   5   4  217.72    7.99
  -3   5  -4  198.43   13.27
   3   5   4  204.65    8.08
   3   5   4  211.72    8.03
  -3   5  -4  195.97   14.51
  -3   5  -4  216.63    8.02
   4  -5   4    6.03    1.02
  -4  -5  -4    7.68    1.30
   4   5   4    6.26    0.87
   4   5   4    6.16    1.00
  -4   5  -4    7.26    0.89
   4   5   4    7.63    0.94
   4  -6  -4  101.75    4.04
   4  -6  -4   93.65    4.07
  -4  -6   4  102.32    4.08
  -4   6   4   92.17    4.33
   4   6  -4  100.84    3.96
  -4   6   4   95.96    4.04
   3  -6  -4   65.97   10.23
   3  -6  -4   97.36   18.91
   3  -6  -4   64.90    8.95
   3  -6  -4   77.28    3.26
   3  -6  -4   98.29   16.87
  -3   6   4   85.48    9.08
   3   6  -4   68.99    7.78
   3   6  -4   77.01    9.19
   3   6  -4   76.47    7.63
  -3   6   4   90.27   16.23
  -3   6   4   79.96    3.25
  -3   6   4  115.91   16.67
   3   6  -4   62.03   11.64
   3   6  -4   79.49    3.15
  -3   6   4   81.24   10.28
  -3   6   4   75.83    3.44
   3   6  -4   93.29   15.77
   3   6  -4   75.88    8.72
   3   6  -4   87.77   11.21
   3   6  -4   68.89   13.95
   2  -6  -4  133.43   10.69
   2  -6  -4  139.31    9.84
   2  -6  -4  124.38    5.03
  -2  -6   4  127.03    4.99
   2  -6  -4  130.91   16.39
   2  -6  -4  122.14   13.16
  -2   6   4  121.21    5.10
   2   6  -4  123.98    4.89
  -2   6   4  132.33   12.78
  -2   6   4  129.51    4.99
  -2   6   4  178.99   18.82
   2   6  -4  113.65   13.79
   2   6  -4  121.10   11.61
   2   6  -4  112.81    8.52
  -2   6   4  125.32   10.38
  -2   6   4  124.59    9.43
   2   6  -4  121.12    9.51
  -1  -6   4  215.10   13.54
  -1  -6   4  230.50   18.26
  -1  -6   4  224.25    8.64
  -1  -6   4  221.65   12.66
  -1  -6   4  217.27   15.76
   1  -6  -4  219.60    8.69
   1  -6  -4  249.48   18.05
  -1   6   4  240.84   12.52
   1   6  -4  202.99   14.56
   1   6  -4  209.77   12.76
  -1   6   4  217.18   13.03
  -1   6   4  227.69   17.00
  -1   6   4  225.13    8.61
  -1   6   4  248.33   15.42
   1   6  -4  221.10    8.51
  -1   6   4  225.64    8.67
   1   6  -4  209.16   12.01
   0  -6  -4   13.70    1.00
   0  -6   4   24.56    5.79
   0  -6  -4   18.75    4.14
   0  -6   4   30.72    7.24
   0  -6   4   22.38    6.52
   0  -6  -4   15.94    5.03
   0  -6  -4   23.95    7.24
   0  -6  -4   17.97    3.63
   0  -6  -4   15.53    0.97
   0  -6   4   14.32    1.11
   0  -6   4   17.61    7.54
   0   6   4   17.69    3.88
   0   6   4   23.88    5.07
   0   6  -4   17.43    6.20
   0   6   4   23.18    7.76
   0   6  -4   26.16   10.59
   0   6   4   15.31    0.79
   0   6  -4   23.63    5.05
   0   6   4    9.87    5.08
   0   6  -4   18.71    4.79
   0   6   4   15.94    1.11
   0   6   4   13.85    0.80
   1  -6   4   80.93    9.51
   1  -6   4   85.16   12.24
   1  -6   4   62.13   11.59
  -1  -6  -4   69.75    5.66
  -1  -6  -4   66.97    8.02
  -1  -6  -4   63.10    2.85
  -1  -6  -4   68.71    9.55
   1  -6   4   58.33    6.57
   1  -6   4   63.81    2.62
   1  -6   4   65.34    2.75
  -1  -6  -4   65.17    6.28
   1   6   4   66.45    9.37
   1   6   4   68.13    7.78
  -1   6  -4  105.02   14.39
  -1   6  -4   63.97    6.50
   1   6   4   62.70    5.42
   1   6   4   73.48    6.35
   1   6   4   64.54    2.66
  -1   6  -4   53.47   11.36
  -1   6  -4   65.21    2.69
   1   6   4   63.94    2.74
   2  -6   4  212.57    7.92
  -2  -6  -4  220.94   12.64
  -2  -6  -4  203.61   10.90
  -2  -6  -4  204.67   13.86
   2  -6   4  188.50   16.39
   2  -6   4  192.32   13.82
   2  -6   4  193.28   19.15
   2  -6   4  200.93   12.82
   2  -6   4  202.60    7.99
  -2  -6  -4  202.82    8.15
  -2  -6  -4  212.69   10.42
  -2   6  -4  205.69   13.75
  -2   6  -4  217.09   13.03
  -2   6  -4  203.80   18.66
  -2   6  -4  206.50    7.98
   2   6   4  201.82    7.90
  -2   6  -4  217.12   16.31
   2   6   4  199.66    8.01
   2   6   4  201.22    7.95
   3  -6   4   16.76    6.90
   3  -6   4   17.29    9.21
  -3  -6  -4   25.45    1.62
   3  -6   4   16.59    5.99
   3  -6   4   26.52    1.36
   3  -6   4   22.98   11.72
   3  -6   4   26.52    1.37
  -3   6  -4   30.40    7.72
  -3   6  -4   14.36   11.15
  -3   6  -4   13.60    8.84
   3   6   4   26.75    1.41
   3   6   4   26.29    1.34
  -3   6  -4   28.56    7.84
   3   6   4   27.73    1.33
  -3   6  -4   25.76    1.35
  -4  -6  -4   81.26    3.83
   4  -6   4   82.83    3.53
   4   6   4   85.70    3.50
   4   6   4   81.96    3.60
   4   6   4   86.64    3.53
  -4   6  -4   82.83    3.53
   4  -7  -4    0.39    0.55
  -4  -7   4    0.01    0.62
   4  -7  -4    0.93    0.51
  -4   7   4    0.20    0.52
  -4   7   4    1.35    0.73
   4   7  -4    0.29    0.38
   3  -7  -4   38.47    1.85
   3  -7  -4   50.71   10.28
   3  -7  -4   37.38    1.85
   3  -7  -4   80.31   19.00
   3  -7  -4   49.69   13.93
   3  -7  -4   42.79    8.44
  -3  -7   4   42.93    1.93
  -3   7   4   47.21   12.99
  -3   7   4   38.92    2.06
  -3   7   4   66.92   17.35
  -3   7   4   36.92    8.09
   3   7  -4   39.59    8.43
   3   7  -4   41.64   10.78
   3   7  -4   57.85   14.46
   3   7  -4   28.75    8.67
   3   7  -4   39.19    1.73
  -3   7   4   45.38    9.59
   3   7  -4   27.23   11.07
   3   7  -4   46.04    6.90
   3   7  -4   41.35    7.89
   3   7  -4   26.20    6.72
  -3   7   4   37.66    1.83
   2  -7  -4  255.73   15.36
  -2  -7   4  273.92   19.93
  -2  -7   4  281.28   10.72
   2  -7  -4  268.15   10.70
   2  -7  -4  339.22   26.50
   2  -7  -4  261.60   16.44
  -2  -7   4  268.03   15.91
   2  -7  -4  320.61   22.37
  -2  -7   4  271.62   17.12
   2   7  -4  270.76   10.55
  -2   7   4  284.30   19.05
  -2   7   4  268.81   10.77
  -2   7   4  287.52   15.56
  -2   7   4  296.30   16.69
   2   7  -4  260.20   17.43
  -2   7   4  279.37   10.65
   2   7  -4  276.75   14.58
   2   7  -4  260.85   19.76
  -2   7   4  278.52   21.60
   2   7  -4  267.42   15.27
  -1  -7   4   11.85    0.85
  -1  -7   4    8.11    6.51
   1  -7  -4   17.60    4.39
  -1  -7   4   11.83    4.90
   1  -7  -4   12.77    0.82
   1  -7  -4   19.87    9.90
   1  -7  -4   11.16    6.35
  -1  -7   4    9.18    3.89
   1  -7  -4   14.36    4.89
  -1  -7   4   21.15    9.00
  -1   7   4   14.15    3.70
  -1   7   4    6.42    3.74
  -1   7   4   13.02    0.75
  -1   7   4   13.53    5.68
   1   7  -4   11.17    3.84
  -1   7   4   11.31    0.82
   1   7  -4    5.81    6.30
  -1   7   4   29.12    9.53
   1   7  -4    7.13    4.88
   1   7  -4   11.65    0.59
   1   7  -4   10.09    3.54
  -1   7   4   12.00    0.76
   0  -7   4  237.76   21.20
   0  -7  -4  167.62   11.00
   0  -7  -4  185.40   13.27
   0  -7   4  220.54   17.52
   0  -7  -4  180.04   10.45
   0  -7  -4  175.19   15.10
   0  -7   4  172.73    6.87
   0  -7   4  175.87   12.14
   0  -7  -4  169.70    6.94
   0  -7   4  167.50   11.11
   0   7   4  177.13    6.78
   0   7  -4  158.99   11.28
   0   7   4  167.51   14.96
   0   7   4  187.43   10.57
   0   7   4  171.77    6.80
   0   7   4  178.95   11.27
   0   7  -4  165.76   10.57
   0   7  -4  159.32   13.23
   0   7   4  171.48    6.86
   0   7   4  188.56   13.31
   1  -7   4  343.07   13.03
   1  -7   4  323.51   12.89
   1  -7   4  328.46   17.58
   1  -7   4  340.92   21.44
  -1  -7  -4  325.42   13.11
   1  -7   4  408.01   27.95
  -1  -7  -4  348.24   18.74
  -1  -7  -4  339.47   16.10
  -1  -7  -4  339.32   16.79
   1  -7   4  356.10   18.96
  -1  -7  -4  347.74   20.45
   1   7   4  352.61   18.64
   1   7   4  328.53   13.03
  -1   7  -4  318.87   17.94
  -1   7  -4  317.93   17.06
   1   7   4  335.45   12.97
   1   7   4  369.26   16.95
   1   7   4  359.70   20.38
   1   7   4  342.89   16.03
  -1   7  -4  344.67   23.11
  -1   7  -4  301.93   13.09
   2  -7   4   34.29    7.30
  -2  -7  -4   33.55    7.29
  -2  -7  -4   33.71    1.76
   2  -7   4   33.29    1.53
   2  -7   4   33.47    1.62
   2  -7   4   12.78    7.41
  -2  -7  -4   31.70    5.56
  -2  -7  -4   40.44    4.85
  -2  -7  -4   43.59    8.62
   2  -7   4   16.93    9.47
   2  -7   4   17.21    5.93
  -2   7  -4   29.18    6.49
  -2   7  -4   46.43    7.87
  -2   7  -4   34.51    1.56
   2   7   4   31.99    1.60
  -2   7  -4   29.98    8.28
  -2   7  -4   43.84   12.36
   2   7   4   35.71    1.54
   3  -7   4   42.60   13.35
  -3  -7  -4   63.48    2.96
   3  -7   4   64.89    9.93
   3  -7   4   64.15    2.70
   3  -7   4   64.63    2.75
   3  -7   4   44.62   11.55
   3  -7   4   68.58   16.07
  -3   7  -4   44.81   13.61
  -3   7  -4   68.14    2.75
   3   7   4   62.60    2.71
  -3   7  -4   63.37   11.67
   3   7   4   66.05    2.68
  -3   7  -4   43.34   11.29
   3   7   4   63.02    2.80
  -3   7  -4   66.39    9.89
   4  -7   4   86.57    3.76
  -4  -7  -4   88.94    4.04
   4   7   4   91.44    3.77
   4   7   4   87.52    3.84
   4   7   4   91.68    3.74
  -4   7  -4   89.05    3.78
   4  -8  -4  181.58    7.71
  -4  -8   4  208.76    7.69
   4  -8  -4  198.51    7.66
  -4   8   4  189.32    7.66
   4   8  -4  185.77    7.56
  -4   8   4  195.75    7.97
   3  -8  -4   67.93    9.86
   3  -8  -4   62.67    2.66
  -3  -8   4   67.19    2.67
   3  -8  -4   55.37   11.61
   3  -8  -4   58.02    2.63
   3  -8  -4   26.54   12.99
   3  -8  -4   34.82   10.98
   3   8  -4   67.78   15.54
   3   8  -4   40.32    8.63
  -3   8   4   51.29   14.17
   3   8  -4   59.70    2.50
   3   8  -4   75.37   19.96
   3   8  -4   48.09   10.99
   3   8  -4   49.54   14.28
  -3   8   4   67.67   11.34
  -3   8   4   62.40    2.63
  -3   8   4   50.84   15.35
  -3   8   4   58.41    9.67
   3   8  -4   60.17    7.63
   3   8  -4   55.18   11.59
   3   8  -4   58.35   12.28
  -3   8   4   60.60    2.82
   2  -8  -4    2.88    9.10
  -2  -8   4   -0.27    5.19
  -2  -8   4    1.09    6.58
   2  -8  -4   -5.65    6.35
   2  -8  -4    2.07    4.37
  -2  -8   4    0.56    0.42
  -2  -8   4    3.32    8.72
  -2  -8   4    3.29   10.97
   2  -8  -4   16.17   13.48
   2   8  -4    1.27    3.42
  -2   8   4   -2.51    9.46
  -2   8   4   10.88   15.43
  -2   8   4    0.52    0.36
   2   8  -4    4.30    6.03
   2   8  -4    2.91    4.22
   2   8  -4   -2.99    7.87
  -2   8   4   -5.55    5.20
  -2   8   4   10.46    7.69
  -1  -8   4  287.56   16.95
  -1  -8   4  277.34   15.68
  -1  -8   4  267.81   22.45
   1  -8  -4  288.36   16.47
  -1  -8   4  275.10   10.74
   1  -8  -4  288.48   21.75
   1  -8  -4  271.03   10.79
   1  -8  -4  287.68   18.94
  -1  -8   4  244.03   19.05
  -1   8   4  292.14   10.71
  -1   8   4  277.96   10.78
   1   8  -4  273.05   10.60
   1   8  -4  278.05   17.97
  -1   8   4  277.71   10.73
  -1   8   4  282.41   16.04
   1   8  -4  280.11   20.58
   1   8  -4  264.32   14.78
  -1   8   4  279.15   15.17
  -1   8   4  286.50   20.59
   0  -8  -4  186.92   11.06
   0  -8   4  235.03   22.97
   0  -8  -4  168.55   16.15
   0  -8  -4  176.95   11.79
   0  -8   4  178.77    7.09
   0  -8   4  179.86   15.60
   0  -8   4  184.58   11.94
   0  -8  -4  172.35   13.74
   0  -8  -4  178.67    7.15
   0  -8   4  180.73   13.04
   0   8   4  179.60    6.99
   0   8   4  187.46   13.94
   0   8   4  168.95   15.59
   0   8  -4  247.19   22.29
   0   8   4  185.46   10.97
   0   8  -4  208.75   12.84
   0   8   4  175.79    7.02
   0   8   4  175.99   11.70
   0   8  -4  177.61   12.19
   0   8   4  176.46    7.07
   0   8  -4  146.71   13.58
   1  -8   4   62.77   11.16
  -1  -8  -4   50.66    2.38
   1  -8   4   50.83   13.73
   1  -8   4   57.12   11.67
  -1  -8  -4   60.80    9.01
   1  -8   4   48.30    2.16
  -1  -8  -4   54.21   11.54
   1  -8   4   70.26    9.49
  -1  -8  -4   55.47    5.98
   1  -8   4   54.28    2.34
  -1  -8  -4   48.65    2.30
  -1  -8  -4   53.03    6.88
   1   8   4   51.47    2.21
  -1   8  -4   78.07   15.95
   1   8   4   49.94    6.56
   1   8   4   67.15    8.62
  -1   8  -4   58.85   13.93
  -1   8  -4   80.47   12.38
   1   8   4   55.65    5.82
  -1   8  -4   46.34    6.67
  -1   8  -4   53.51    2.26
   1   8   4   51.70   10.60
   1   8   4   51.13    2.28
  -2  -8  -4  241.29   15.06
   2  -8   4  240.24   16.71
  -2  -8  -4  248.19   12.36
  -2  -8  -4  240.59   13.10
  -2  -8  -4  233.58    9.32
   2  -8   4  248.06   23.63
   2  -8   4  236.25   15.12
   2  -8   4  238.36    9.09
  -2  -8  -4  255.43   17.57
   2  -8   4  237.06    9.20
   2  -8   4  233.51   19.94
  -2   8  -4  217.02   15.41
  -2   8  -4  233.98   18.46
  -2   8  -4  231.47    9.17
   2   8   4  239.51    9.23
  -2   8  -4  186.57   21.04
   2   8   4  229.68    9.14
  -2   8  -4  235.22   14.50
   3  -8   4   27.10    1.55
   3  -8   4   29.55    9.56
   3  -8   4   32.42   17.34
   3  -8   4   18.14    7.09
   3  -8   4   31.79   13.21
   3  -8   4   26.26    1.49
  -3  -8  -4   27.62    1.69
   3   8   4   27.21    1.51
   3   8   4   26.94    1.42
  -3   8  -4   22.20   14.11
  -3   8  -4   19.10    8.31
  -3   8  -4   29.79    1.46
  -3   8  -4    8.90    9.84
  -3   8  -4   11.39    7.15
  -4  -8  -4   50.24    2.64
   4  -8   4   43.76    2.34
   4   8   4   49.35    2.31
   4   8   4   49.76    2.29
   4   8   4   48.42    2.40
  -4   8  -4   48.98    2.36
   4  -9  -4   58.84    2.81
  -4  -9   4   68.89    2.99
   4  -9  -4   55.86    2.81
   4   9  -4   58.24    2.66
  -4   9   4   71.98    2.96
  -4   9   4   58.82    3.07
  -4   9   4   59.32    2.80
   3  -9  -4  207.87   17.29
   3  -9  -4  147.50    6.31
   3  -9  -4  161.44    6.32
   3  -9  -4  142.39   24.99
   3  -9  -4  183.51   20.54
  -3  -9   4  157.48    6.29
   3  -9  -4  185.05   19.19
   3   9  -4  148.42    6.17
  -3   9   4  180.50   29.45
  -3   9   4  150.23   14.01
  -3   9   4  143.65   19.43
  -3   9   4  157.56    6.29
  -3   9   4  153.26    6.48
  -3   9   4  144.36   15.69
  -3   9   4  163.71    6.23
   2  -9  -4  275.23   22.73
  -2  -9   4  286.05   26.71
  -2  -9   4  268.77   22.90
  -2  -9   4  292.54   11.14
   2  -9  -4  235.04   31.91
  -2  -9   4  292.35   19.46
   2  -9  -4  289.11   11.20
  -2  -9   4  267.56   17.51
   2  -9  -4  282.99   27.90
  -2   9   4  286.44   11.25
  -2   9   4  302.35   20.22
   2   9  -4  269.48   22.01
  -2   9   4  305.71   11.13
   2   9  -4  288.29   19.19
  -2   9   4  216.60   22.07
   2   9  -4  293.31   16.73
   2   9  -4  295.65   15.81
  -2   9   4  301.50   11.12
  -2   9   4  352.89   31.11
   2   9  -4  284.23   11.03
  -2   9   4  299.44   18.78
   1  -9  -4    6.29    3.26
   1  -9  -4   20.28   14.20
  -1  -9   4   15.46    5.22
   1  -9  -4    6.89    4.03
  -1  -9   4    5.16    9.48
   1  -9  -4    9.41   19.52
  -1  -9   4    9.45    7.39
   1  -9  -4   13.31    0.91
  -1  -9   4   13.78    1.01
  -1  -9   4   11.41    5.97
  -1   9   4    9.35    3.73
  -1   9   4   13.17    0.81
  -1   9   4   12.64    0.86
  -1   9   4   20.06    9.90
   1   9  -4   13.95    5.73
  -1   9   4   15.07    6.94
   1   9  -4   13.06    0.69
  -1   9   4    8.64    4.50
  -1   9   4   14.28    0.94
   1   9  -4    4.60    8.87
   1   9  -4   15.01    4.94
   1   9  -4   22.85    7.98
   0  -9  -4  135.07   10.96
   0  -9  -4  142.31   10.12
   0  -9   4  153.57   11.29
   0  -9   4  136.32   18.18
   0  -9   4  151.16   12.50
   0  -9   4  151.51    5.94
   0  -9  -4  152.24    6.00
   0  -9  -4  162.82   16.55
   0  -9   4  159.65   15.53
   0  -9  -4  137.13   13.38
   0   9   4  148.49    5.94
   0   9   4  144.46   15.84
   0   9   4  146.87   10.28
   0   9  -4  152.15    5.75
   0   9  -4  152.80   10.54
   0   9   4  144.82   13.51
   0   9   4  157.67   11.43
   0   9   4  150.88    5.89
   0   9   4  145.23    5.83
   0   9  -4  142.04   11.45
   0   9  -4  149.65   17.04
   0   9  -4  181.28   16.90
   1  -9   4   77.26    9.15
   1  -9   4   85.69    3.44
   1  -9   4   85.71    3.55
   1  -9   4   64.04   17.15
   1  -9   4   82.96   10.72
  -1  -9  -4   91.74    7.79
  -1  -9  -4   83.55    3.61
  -1  -9  -4   95.56   11.35
  -1  -9  -4   90.44    8.85
  -1  -9  -4  107.24   14.54
   1  -9   4   91.61   14.12
  -1   9  -4   84.87    3.52
  -1   9  -4   89.83   10.04
  -1   9  -4   79.78    8.66
   1   9   4   89.57    7.48
   1   9   4   77.40   10.34
  -1   9  -4  123.69   19.31
   1   9   4   85.54    3.47
  -1   9  -4   77.35   12.42
   1   9   4   83.35    3.53
   1   9   4   81.28    8.29
   1   9   4   65.41   12.72
   2  -9   4   18.01    1.26
   2  -9   4   22.64   10.37
   2  -9   4   32.38    9.46
   2  -9   4   20.17   13.17
  -2  -9  -4   17.51    1.22
  -2  -9  -4   12.15    8.88
   2  -9   4   16.86    1.08
   2  -9   4   22.36   10.28
  -2  -9  -4   25.59    7.15
  -2  -9  -4   21.48    5.69
  -2  -9  -4   27.10    5.90
   2   9   4   23.46    9.09
  -2   9  -4   18.69    1.09
   2   9   4   18.05    1.04
   2   9   4   21.45    5.44
  -2   9  -4   17.37    7.63
  -2   9  -4   18.41   14.63
   2   9   4   16.19    1.12
  -2   9  -4   23.03    6.42
   2   9   4    8.74    5.96
   2   9   4   25.17    5.75
  -2   9  -4   19.44   12.49
   3  -9   4  172.33   22.02
   3  -9   4  151.47   27.55
   3  -9   4  153.53    6.30
   3  -9   4  166.11   18.86
   3  -9   4  159.02    6.38
   3  -9   4  182.00   34.50
  -3  -9  -4  160.03    6.53
   3   9   4  158.88    6.35
   3   9   4  156.01    6.43
  -3   9  -4  161.96    6.38
   4  -9   4  129.32    5.47
   4  -9   4  129.68    5.47
  -4  -9  -4  139.37    5.74
  -4   9  -4  133.84    5.52
   4   9   4  134.80    5.50
   4   9   4  138.18    5.60
   4 -10  -4   75.30    3.33
  -4 -10   4   84.78    3.54
   4 -10  -4   68.95    3.35
   4  10  -4   68.75    3.17
  -4  10   4   78.16    3.18
  -4  10   4   72.80    3.34
  -4  10   4   75.02    3.59
  -3 -10   4   20.49    1.46
   3 -10  -4    6.53   37.22
   3 -10  -4   31.32   19.17
   3 -10  -4   20.23    1.30
   3 -10  -4   22.05    1.40
   3 -10  -4  -14.74   24.00
   3 -10  -4    9.08    5.65
  -3  10   4    2.48   10.74
  -3  10   4   25.66    9.39
  -3  10   4   24.25    1.21
  -3  10   4   19.98    1.49
  -3  10   4   20.89    1.35
  -3  10   4   62.27   33.60
  -3  10   4   22.74    8.07
   3  10  -4   19.81    1.13
   2 -10  -4   44.20   14.00
   2 -10  -4   54.79    2.49
  -2 -10   4   67.08   17.86
  -2 -10   4   61.22   13.36
  -2 -10   4   45.65   16.36
  -2 -10   4   54.29    2.47
   2 -10  -4   87.71   18.04
   2 -10  -4   55.04   15.38
  -2 -10   4   36.46    8.65
   2 -10  -4   51.01   11.16
  -2  10   4   56.25    2.38
  -2  10   4   54.75    2.42
  -2  10   4   62.31   11.38
  -2  10   4   66.56   29.16
   2  10  -4   50.40    7.54
   2  10  -4   49.03   12.90
   2  10  -4   58.96    8.96
  -2  10   4   61.48    9.70
  -2  10   4   57.75    2.56
   2  10  -4   53.63    2.29
  -1 -10   4  111.75   12.39
  -1 -10   4  122.58   11.12
  -1 -10   4  109.46    4.65
  -1 -10   4  121.65   20.23
   1 -10  -4  115.04    4.72
  -1 -10   4  117.29   15.97
   1 -10  -4  115.07   15.43
   1 -10  -4  128.81   19.83
   1  10  -4  114.93    4.51
   1  10  -4  103.95   13.54
   1  10  -4  117.60   10.95
   1  10  -4  108.23    9.46
  -1  10   4  157.96   28.52
  -1  10   4   99.47   10.96
   1  10  -4  126.00   17.90
  -1  10   4  119.72    4.62
  -1  10   4  115.53    4.69
  -1  10   4  119.47    4.65
  -1  10   4  121.67   10.20
  -1  10   4  102.37   13.82
   0 -10   4   81.68    3.36
   0 -10   4  112.38   28.99
   0 -10   4   81.11   10.92
   0 -10  -4   78.78    3.39
   0 -10  -4   78.04   15.83
   0 -10  -4   65.94   12.14
   0 -10  -4   75.61    9.53
   0 -10   4   78.83   14.13
   0 -10   4   73.55    9.30
   0 -10  -4   73.41    8.22
   0  10  -4  128.55   20.59
   0  10   4   88.48    9.80
   0  10  -4   69.53   12.15
   0  10  -4   83.29    8.54
   0  10   4   76.32    3.22
   0  10  -4   85.33    9.84
   0  10  -4   77.98    3.13
   0  10   4   82.38   12.08
   0  10   4   79.68    3.32
   0  10   4   87.56    8.58
   0  10   4  100.88   15.50
   0  10   4   78.29    3.28
   1 -10   4   89.22   20.08
   1 -10   4  115.11   16.58
   1 -10   4   86.31   15.23
  -1 -10  -4  111.77   10.16
  -1 -10  -4  100.60    8.89
  -1 -10  -4  116.18   12.74
   1 -10   4   81.42   21.00
  -1 -10  -4  103.16    4.23
   1 -10   4  103.86    4.18
  -1 -10  -4   97.32   15.88
   1  10   4   77.89   14.71
  -1  10  -4  102.55   16.21
  -1  10  -4   84.38   12.58
   1  10   4   99.25    4.09
   1  10   4   92.73    9.41
   1  10   4  105.34    8.53
  -1  10  -4  110.68   23.47
  -1  10  -4  103.83    4.15
   1  10   4   97.47    4.14
   1  10   4  106.03   12.00
  -2 -10  -4  221.23   17.34
  -2 -10  -4  239.61   14.78
   2 -10   4  297.78   27.91
  -2 -10  -4  246.88   13.76
  -2 -10  -4  269.04   21.35
   2 -10   4  247.29    9.48
   2 -10   4  236.16    9.34
   2 -10   4  234.96   16.93
   2 -10   4  215.42   18.58
   2 -10   4  283.91   34.05
   2  10   4  248.56    9.51
   2  10   4  222.04   20.05
   2  10   4  239.00   13.39
   2  10   4  233.63   14.43
  -2  10  -4  225.36   21.34
  -2  10  -4  251.80    9.46
   2  10   4  251.02    9.43
  -2  10  -4  229.00   26.77
   2  10   4  225.52   17.06
  -2  10  -4  228.99   16.14
   3 -10   4    1.13    0.60
  -3 -10  -4    1.01    0.66
   3 -10   4    0.31    0.64
   3  10   4    0.09    0.48
   3  10   4    0.19    0.44
  -3  10  -4    0.21    0.50
   3 -11  -4   90.83   26.50
   3 -11  -4   52.84   13.38
  -3 -11   4   33.13    1.94
   3 -11  -4   32.87    1.77
   3 -11  -4   36.18   12.90
   3 -11  -4   32.80    1.86
   3 -11  -4   51.64   18.29
  -3  11   4   22.31    8.15
  -3  11   4   33.22    1.92
  -3  11   4   41.80   25.21
  -3  11   4   28.33   10.93
  -3  11   4   30.81    1.78
  -3  11   4   35.39    1.65
   3  11  -4   31.27    1.59
  -3  11   4   21.27   14.87
   2 -11  -4   15.96    8.47
  -2 -11   4   32.26    1.75
   2 -11  -4    3.03   10.34
   2 -11  -4   30.87    1.69
   2 -11  -4   31.94    1.69
   2 -11  -4   20.74    7.52
   2 -11  -4   13.32   14.40
  -2  11   4   38.59    9.42
  -2  11   4   31.14    1.63
  -2  11   4   45.09   20.39
  -2  11   4   31.64    1.56
  -2  11   4   28.79    7.28
  -2  11   4   37.42   13.05
   2  11  -4   33.46    1.46
  -2  11   4   33.45    1.76
  -1 -11   4   -6.60   10.42
  -1 -11   4    0.94   14.83
  -1 -11   4    0.94    0.49
   1 -11  -4   -1.00    5.10
   1 -11  -4    9.37   12.49
   1 -11  -4    0.86    0.40
  -1 -11   4    2.66    6.45
   1 -11  -4   -9.76    7.07
   1 -11  -4   -5.95   11.00
  -1  11   4   -2.39    8.16
  -1  11   4    1.54    0.41
  -1  11   4    0.61    0.42
  -1  11   4    1.98    5.87
   1  11  -4   -0.99    5.06
   1  11  -4    1.49    0.31
   1  11  -4    1.45    4.37
   1  11  -4    3.07    6.58
   1  11  -4    1.97   10.29
  -1  11   4   -0.57    4.34
  -1  11   4   -8.78   13.49
  -1  11   4    0.85    0.38
   0 -11   4  221.44   25.16
   0 -11   4  166.23    6.38
   0 -11   4  144.03   14.66
   0 -11  -4  156.65   12.01
   0 -11  -4  161.82    6.40
   0 -11  -4  161.04   16.50
   0 -11  -4  142.42   12.96
   0 -11   4  223.09   31.31
   0 -11  -4  158.01   20.41
   0 -11   4  142.65   13.02
   0  11   4  135.92   15.92
   0  11   4  154.82   11.93
   0  11   4  156.49   19.53
   0  11  -4  190.82   19.65
   0  11  -4  166.16   13.58
   0  11  -4  151.18   19.77
   0  11   4  159.36    6.33
   0  11  -4  157.22    6.15
   0  11  -4  157.93   12.19
   0  11   4  150.06   13.07
   0  11   4  161.55    6.30
   1 -11   4   12.06   11.58
   1 -11   4   17.51    6.62
  -1 -11  -4   10.33    8.43
  -1 -11  -4   26.03   12.34
   1 -11   4    8.25    1.03
  -1 -11  -4    9.97    0.92
  -1 -11  -4    9.10    6.33
   1 -11   4   11.69   15.60
   1 -11   4   14.64    8.48
  -1 -11  -4   17.92    5.94
  -1  11  -4   -1.15    5.45
  -1  11  -4    3.15    5.10
   1  11   4    8.99    0.74
  -1  11  -4  -10.30   10.38
  -1  11  -4   12.72    7.26
   1  11   4   16.28    6.44
   1  11   4   16.58    5.37
   1  11   4    2.69   10.13
   1  11   4   10.47    0.89
  -1  11  -4    8.33    0.83
   1  11   4   10.40    8.39
   2 -11   4    7.09    0.98
   2 -11   4   12.28    9.22
  -2 -11  -4   11.76   13.23
  -2 -11  -4    3.54    0.69
   2 -11   4   -7.55   16.77
  -2 -11  -4    3.69    9.51
  -2 -11  -4    8.72    6.76
  -2 -11  -4    1.36    5.40
   2 -11   4    4.63    6.75
   2 -11   4    1.32   12.31
   2 -11   4    4.38    0.73
  -2  11  -4   -3.93    8.16
  -2  11  -4    2.61   10.98
  -2  11  -4   -5.41   10.10
   2  11   4    3.54    0.63
  -2  11  -4    3.50    0.57
   2  11   4    3.52    0.66
  -2  11  -4   17.20   13.91
   3 -11   4   36.16    2.11
  -3  11  -4   40.11    1.99
   3  11   4   40.37    1.95
   3  11   4   36.50    2.02
   3 -12  -4    3.64    0.70
   3 -12  -4    2.55    0.69
  -3 -12   4    3.14    0.89
  -3  12   4    2.10    0.67
  -3  12   4    3.75    0.59
  -3  12   4    2.78    0.66
   3  12  -4    3.64    0.56
   2 -12  -4   30.05   17.36
   2 -12  -4   13.35   12.44
   2 -12  -4    2.41    9.53
   2 -12  -4   38.24   25.25
   1 -12  -4   -0.02    0.44
   1 -12  -4    8.26    8.55
   1 -12  -4    2.76   11.98
  -1 -12   4    1.10    0.59
   1 -12  -4   -1.96    5.33
   1 -12  -4   -3.86    6.22
  -1  12   4    0.96    0.45
  -1  12   4    1.82    0.50
  -1  12   4    0.31    0.39
   1  12  -4    0.95    0.31
   0 -12   4    7.75    7.46
   0 -12   4   14.07   21.77
   0 -12   4   13.22   15.89
   0 -12   4    8.08    1.07
   0 -12   4    5.09   11.27
   0 -12  -4    9.32    0.92
   0  12   4    9.16    0.85
   0  12  -4   23.15   14.42
   0  12   4    8.30    0.83
   0  12  -4    8.68    0.63
   0  12  -4    1.23    6.43
   0  12  -4   13.73   13.19
   0  12  -4   26.70    9.14
   1 -12   4    1.37    8.37
   1 -12   4    0.77    0.62
  -1 -12  -4    1.25    0.51
   1 -12   4    0.94    6.20
   1 -12   4   -8.04   16.29
   1 -12   4    1.01   12.06
  -1  12  -4    0.86   13.60
  -1  12  -4   -0.99   16.18
  -1  12  -4    0.49    0.42
  -1  12  -4   -2.39    9.37
  -1  12  -4   -8.53    6.08
   1  12   4    1.57    0.54
   2 -12   4   -6.34    7.25
   2 -12   4    5.51    0.84
   2 -12   4    6.17    0.78
   2 -12   4    7.97    9.63
   2 -12   4    4.72   14.21
  -2 -12  -4    6.80    1.06
   2 -12   4   35.74   20.42
  -2  12  -4  -21.60   15.92
  -2  12  -4    6.22    0.87
  -2  12  -4    3.40   14.28
   2  12   4    5.73    0.94
   2  12   4    5.16    0.77
  -2  12  -4    3.83   11.23
  -2  12  -4   -1.60   10.06
   3 -12   4   -0.07    0.75
   3 -12   4    1.05    0.79
  -3 -12  -4    0.53    0.73
   3  12   4    0.49    0.62
  -3  12  -4    0.63    0.55
   3  12   4    0.62    0.54
   2 -13  -4    1.78    0.69
   2 -13  -4    1.93    0.59
  -2 -13   4    1.93    0.77
   2  13  -4    2.50    0.48
  -2  13   4    4.14    0.63
  -2  13   4    3.11    0.67
  -2  13   4    3.47    0.60
   1 -13  -4   22.00    1.50
  -1 -13   4   21.36    1.55
   1 -13  -4   23.58    1.47
   1  13  -4   26.05    1.23
  -1  13   4   25.78    1.51
  -1  13   4   25.93    1.41
   0 -13   4  102.62    4.45
   0 -13  -4  103.86    4.44
   0  13   4  106.63    4.38
   0  13   4  107.80    4.41
   0  13  -4  107.04    4.19
  -1 -13  -4   29.81    1.71
   1 -13   4   28.43    1.85
   1  13   4   30.50    1.68
   1  13   4   31.06    1.55
   2 -13   4   17.15    1.45
   2 -13   4   16.82    1.54
  -2 -13  -4   17.44    1.38
   2  13   4   19.64    1.39
   2  13   4   18.26    1.21
  -2  13  -4   18.16    1.30
   2 -14  -4   49.53    2.54
   2 -14  -4   53.14    2.64
  -2 -14   4   49.66    2.75
  -2  14   4   52.19    2.53
   2  14  -4   54.34    2.33
  -2  14   4   53.16    2.60
  -2  14   4   53.54    2.46
  -1 -14   4   98.12    4.64
   1 -14  -4  116.07    4.71
   1 -14  -4  108.61    4.68
  -1  14   4  114.11    4.61
  -1  14   4  114.54    4.67
   1  14  -4  113.65    4.45
   0 -14  -4   -0.11    0.51
   0 -14  -4    0.62    0.64
   0 -14   4   -0.19    0.71
   0  14  -4    0.73    0.37
   0  14   4    0.57    0.53
   0  14   4    0.64    0.55
  -1 -14  -4   16.37    1.27
   1 -14   4   16.12    1.54
   1  14   4   16.84    1.11
   1  14   4   14.64    1.27
   1 -15  -4   -0.39    0.60
  -1 -15   4   -0.47    0.77
   1 -15  -4    0.67    0.71
  -1  15   4   -0.03    0.57
   1  15  -4    0.59    0.49
  -1  15   4    0.66    0.62
   0 -15  -4   18.08    1.41
   0 -15  -4   18.59    1.56
   0 -15   4   16.50    1.68
   0  15  -4   17.91    1.08
   0  15   4   19.24    1.35
   0  15   4   19.01    1.42
  -5   0   5    0.99    0.90
  -5   0   5    1.17    0.68
  -4   0   5    0.22    0.43
  -4   0   5   -0.29    0.63
   3   0  -5    3.47    7.68
   3   0  -5    4.45    4.01
   3   0  -5   -6.28    6.12
   3   0  -5    6.86    4.88
   2   0  -5   -8.47    5.90
  -2   0   5    0.34    0.43
  -2   0   5   -0.07    0.31
   2   0  -5    1.59    3.05
   2   0  -5    0.97    0.25
   2   0  -5    7.53   10.85
   2   0  -5   11.11    8.10
   1   0  -5    3.47    6.22
   1   0  -5    3.12    5.91
   1   0  -5   -3.15    5.66
  -1   0   5    0.03    0.26
   1   0  -5   -1.04    4.41
   1   0  -5    2.32    3.25
   1   0  -5   -0.59    4.81
   1   0  -5    0.05    0.26
   1   0  -5    3.72    3.91
  -1   0   5   -0.09    0.34
   1   0  -5   -5.14    3.40
   0   0  -5   -1.29    2.73
   0   0  -5    1.20    3.06
   0   0  -5    2.51    2.46
   0   0  -5    2.17    4.35
   0   0  -5    2.51    2.60
   0   0  -5    0.02    0.32
   0   0  -5   -0.30    4.98
   0   0  -5   -1.48    3.54
   0   0  -5   -1.60    7.05
   0   0   5   -0.09    0.27
  -1   0  -5    6.23    3.69
  -1   0  -5    1.60    2.94
  -1   0  -5    9.22    6.32
  -1   0  -5   -0.84    4.25
   2   0   5    0.45    0.20
  -2   0  -5   -1.00    4.83
  -2   0  -5    0.74    3.58
   2   0   5   -0.12    0.34
   2   0   5    0.15    0.28
  -2   0  -5    1.18    2.98
  -2   0  -5    0.04    6.38
  -3   0  -5   -2.60    4.25
   3   0   5    0.62    0.39
  -3   0  -5   -5.85    6.48
  -3   0  -5   10.80    9.30
  -3   0  -5    0.65    5.07
   3   0   5   -0.32    0.41
   4   0   5    0.79    0.58
   4   0   5   -0.18    0.53
  -5  -1   5   14.40    1.35
  -5  -1   5   11.68    1.82
  -5   1   5   13.53    1.75
  -5   1   5   10.78    1.29
  -4  -1   5   39.33    2.33
   4  -1  -5   42.45    1.87
  -4  -1   5   43.57    1.95
  -4   1   5   39.97    2.31
  -4   1   5   38.44    1.94
   3  -1  -5   25.17   11.45
  -3  -1   5   19.02    1.35
  -3  -1   5   18.83    1.22
   3  -1  -5   18.92    0.95
  -3  -1   5   18.54    1.11
   3  -1  -5    9.81    7.28
   3  -1  -5   10.06    4.97
   3  -1  -5    8.74    3.96
   3   1  -5   26.77    6.48
  -3   1   5   16.49    1.07
   3   1  -5   19.09    0.90
   3   1  -5   47.64   12.03
  -3   1   5   18.11    1.34
   3   1  -5   33.16    8.98
   3   1  -5   28.16    7.10
  -2  -1   5   59.14    2.59
   2  -1  -5   59.71    2.53
   2   1  -5   62.62    2.49
   2   1  -5   73.71    8.22
   2   1  -5   68.04    7.19
   2   1  -5   63.45   13.01
  -2   1   5   61.70    2.78
  -2   1   5   63.69    2.60
   2   1  -5   56.12   10.23
   2   1  -5   63.56    8.12
   2   1  -5   60.02   10.21
   2   1  -5   61.76    6.96
   2   1  -5   55.70   12.10
   1  -1  -5  326.12   16.10
  -1  -1   5  322.65   12.19
   1  -1  -5  318.58   16.87
   1  -1  -5  343.95   21.63
   1  -1  -5  321.44   12.22
   1  -1  -5  322.56   19.02
   1   1  -5  308.44   16.79
   1   1  -5  311.55   18.90
   1   1  -5  319.22   16.90
   1   1  -5  303.17   20.60
   1   1  -5  329.23   21.26
   1   1  -5  311.23   16.03
  -1   1   5  305.29   12.25
  -1   1   5  308.92   12.19
   0  -1  -5   44.32    9.15
   0  -1  -5   47.76    7.77
   0  -1   5   41.11    1.81
   0  -1  -5   63.39    7.62
   0  -1  -5   43.49    5.12
   0  -1  -5   40.04    1.94
   0  -1  -5   41.77    7.39
   0  -1  -5   44.87    9.49
   0  -1  -5   41.16    5.89
   0   1   5   41.15    1.80
   0   1  -5   42.40    1.94
  -1  -1  -5   27.25    9.99
  -1  -1  -5   24.85    1.52
  -1  -1  -5   27.50    8.03
  -1  -1  -5   26.56    4.76
  -1  -1  -5   19.12    7.70
   1  -1   5   25.09    1.23
  -1  -1  -5   26.87    7.45
  -1  -1  -5   28.73    5.72
  -1  -1  -5   31.72    6.62
  -1  -1  -5   23.81    6.58
  -1   1  -5   24.15   10.85
  -1   1  -5   24.43   12.22
   1   1   5   28.00    1.22
   1   1   5   27.41    1.20
   2  -1   5  124.05    9.98
   2  -1   5  122.35    4.83
   2  -1   5  128.81    9.10
  -2  -1  -5  116.51    9.42
  -2  -1  -5  129.77    8.23
  -2  -1  -5  120.32   12.61
  -2  -1  -5  116.48    8.58
  -2  -1  -5  134.01   13.84
  -2  -1  -5  132.20   10.79
  -2  -1  -5  122.74   11.41
   2  -1   5  119.89   12.04
  -2  -1  -5  127.10    9.01
   2  -1   5  119.15    4.84
  -2   1  -5  129.21    9.89
  -2   1  -5   99.74   13.70
   2   1   5  119.46    4.77
  -2   1  -5  127.39   11.97
  -2   1  -5  122.72    8.97
   2   1   5  125.32    4.84
   2   1   5  127.24    4.89
  -3  -1  -5   -0.36    9.41
  -3  -1  -5    3.66    4.19
  -3  -1  -5    1.48    3.38
  -3  -1  -5   -3.29    4.01
  -3  -1  -5   -6.75    7.50
   3  -1   5    0.07    0.37
   3  -1   5    0.74    0.42
  -3  -1  -5   -0.36    5.65
  -3  -1  -5   -4.15    6.71
  -3  -1  -5   -1.53    4.89
   3   1   5    0.74    0.40
  -3   1  -5    9.17   10.80
  -3   1  -5    4.71    4.21
  -3   1  -5    0.95    5.03
   3   1   5    0.60    0.45
   3   1   5   -0.33    0.32
  -3   1  -5    2.19    7.24
  -4  -1  -5   19.07    7.91
  -4  -1  -5   17.94   10.46
   4  -1   5   19.47    1.35
  -4  -1  -5   19.89    6.06
  -4  -1  -5   20.16    5.03
   4   1   5   22.32    1.31
   4   1   5   18.42    1.22
  -5  -2   5   68.02    3.58
  -5  -2   5   67.77    2.99
  -5   2   5   61.70    3.43
  -4  -2   5    1.41    0.68
  -4  -2   5    1.02    0.48
   4  -2  -5    1.88    0.44
  -4   2   5   -0.08    0.64
  -4   2   5    0.72    0.47
  -3  -2   5  315.51   11.91
  -3  -2   5  311.30   12.23
   3  -2  -5  302.48   21.27
   3  -2  -5  321.97   18.45
   3  -2  -5  327.14   25.10
   3  -2  -5  318.75   17.26
  -3   2   5  298.51   16.78
   3   2  -5  316.71   24.38
  -3   2   5  304.57   11.91
  -3   2   5  317.29   12.18
   3   2  -5  301.62   20.85
   3   2  -5  310.68   20.95
   3   2  -5  308.35   16.95
  -3   2   5  309.21   20.48
   3   2  -5  303.14   17.90
   3   2  -5  296.71   18.15
   3   2  -5  279.35   23.51
  -3   2   5  304.29   23.21
  -3   2   5  312.41   18.07
   3   2  -5  307.64   17.09
   2  -2  -5   75.09   18.08
   2  -2  -5   62.74    7.68
   2  -2  -5   54.77   10.85
  -2  -2   5   53.86    2.29
   2  -2  -5   58.22    8.46
  -2   2   5   53.59    2.28
   2   2  -5   50.94    9.90
  -2   2   5   51.36    2.47
   2   2  -5   48.42    9.91
   2   2  -5   62.39    7.94
   2   2  -5   52.13    6.73
  -2   2   5   49.39    9.25
  -2   2   5   23.20   11.99
  -2   2   5   41.81   12.38
   2   2  -5   46.22   12.50
  -2   2   5   44.19    9.12
   2   2  -5   54.34    2.14
   2   2  -5   55.70    7.76
   2   2  -5   56.49    6.76
   2   2  -5   53.37   12.63
   1  -2  -5    7.89    3.00
   1  -2  -5    5.16    3.20
   1  -2  -5   37.13   14.61
   1  -2  -5   11.27    4.57
  -1  -2   5    8.02    0.68
   1  -2  -5    9.32    0.70
   1   2  -5   15.96   12.98
  -1   2   5    7.58    0.76
   1   2  -5   27.25    7.27
   1   2  -5    2.85    2.77
   1   2  -5   16.63    6.10
   1   2  -5   10.77    3.01
   1   2  -5    9.14    0.67
   1   2  -5    2.32    6.02
   1   2  -5   17.04    5.53
   1   2  -5    9.81    4.09
   0  -2   5  303.99   11.71
   0  -2   5  319.41   11.67
   0  -2  -5  326.29   16.18
   0  -2  -5  330.73   15.43
   0  -2  -5  292.76   11.82
   0  -2  -5  324.10   20.20
   0  -2  -5  310.56   17.94
   0   2  -5  289.31   15.17
   0   2  -5  299.54   11.79
   0   2  -5  298.02   19.73
   0   2   5  284.76   11.66
   0   2  -5  289.80   15.93
  -1  -2  -5  138.43   13.60
   1  -2   5  150.43   10.68
  -1  -2  -5  143.17    8.70
  -1  -2  -5  141.30    9.06
  -1  -2  -5  134.93   10.93
   1  -2   5  143.59    5.52
  -1  -2  -5  136.60    9.81
   1  -2   5  150.30   15.04
   1  -2   5  133.70   12.52
  -1  -2  -5  125.01   12.36
  -1  -2  -5  147.33   11.78
  -1  -2  -5  132.82    5.69
  -1  -2  -5  146.85    9.43
   1   2   5  146.31    5.42
   1   2   5  138.03    5.45
   1   2   5  141.41    5.52
   1   2   5  139.67    5.44
   2  -2   5   32.12    6.05
  -2  -2  -5   28.14    4.50
  -2  -2  -5   28.74    7.32
   2  -2   5   33.79    9.48
   2  -2   5   20.35    8.47
  -2  -2  -5   24.46    1.47
  -2  -2  -5   24.95    7.03
  -2  -2  -5   29.84    7.95
  -2  -2  -5   21.50    5.35
   2  -2   5   22.17    1.16
   2  -2   5   22.82    1.10
  -2  -2  -5   42.99    9.87
  -2  -2  -5   21.96    4.97
   2  -2   5   24.96    1.17
  -2  -2  -5   20.64    5.16
   2  -2   5   19.07    5.09
  -2   2  -5   29.86    9.54
  -2   2  -5   24.06    5.65
   2   2   5   24.20    1.16
  -2   2  -5   31.63    7.95
  -2   2  -5   29.04    6.62
   2   2   5   23.54    1.09
  -3  -2  -5  268.57   10.43
   3  -2   5  235.90   18.11
  -3  -2  -5  259.99   13.82
   3  -2   5  246.95   14.61
   3  -2   5  275.31   10.07
  -3  -2  -5  259.64   15.85
  -3  -2  -5  256.27   13.02
  -3  -2  -5  253.80   17.25
  -3  -2  -5  262.42   13.99
  -3  -2  -5  269.96   15.06
   3  -2   5  252.59   21.37
  -3  -2  -5  254.29   17.86
   3  -2   5  249.77   15.80
  -3  -2  -5  271.79   20.40
   3   2   5  273.22   10.03
   3   2   5  264.15   10.05
   3   2   5  274.22   10.12
  -3   2  -5  253.38   22.72
  -3   2  -5  239.56   16.01
  -3   2  -5  259.29   15.06
  -3   2  -5  243.15   18.66
  -4  -2  -5   43.84   11.57
  -4  -2  -5   48.34    9.08
  -4  -2  -5   35.56    5.59
  -4  -2  -5   36.41    6.53
   4  -2   5   41.01    2.02
   4   2   5   43.24    1.91
   4   2   5   42.37    2.00
   4  -3  -5  138.11    5.41
  -4  -3   5  137.04    5.47
   4  -3  -5  141.16    5.44
  -4  -3   5  131.80    5.88
  -4   3   5  129.55    5.45
  -4   3   5  137.01    5.82
   3  -3  -5   17.11    6.76
   3  -3  -5   16.91    8.39
   3  -3  -5   25.20   12.27
  -3  -3   5   20.30    1.16
   3  -3  -5   20.43    1.10
   3  -3  -5   19.25    5.86
  -3   3   5   24.74   10.10
   3   3  -5   34.85   13.09
  -3   3   5   21.11    1.43
   3   3  -5   35.26    8.02
  -3   3   5   13.54    4.48
  -3   3   5    6.55    6.69
   3   3  -5   34.44    9.48
  -3   3   5   21.76    1.18
   3   3  -5   27.15    8.55
   3   3  -5   25.93    6.80
   3   3  -5   27.98    6.67
   3   3  -5   24.74    6.77
  -3   3   5    7.98    5.22
   3   3  -5   39.96   11.79
   2  -3  -5   30.10    1.59
   2  -3  -5   48.76    7.49
  -2  -3   5   35.54    1.61
   2  -3  -5   34.20    6.09
   2  -3  -5   13.32    7.75
   2  -3  -5   37.26    9.67
   2   3  -5   42.20   11.51
  -2   3   5   35.13    1.57
   2   3  -5   34.51    5.97
   2   3  -5   21.93    9.22
   2   3  -5   29.52    6.59
  -2   3   5   34.17    1.76
   2   3  -5   38.81    9.04
   2   3  -5   45.51    9.95
   2   3  -5   35.65    7.38
   2   3  -5   40.57    6.38
   1  -3  -5  255.70   14.94
   1  -3  -5  261.95   17.12
   1  -3  -5  247.62   10.31
   1  -3  -5  257.22   14.15
  -1   3   5  261.17   10.25
  -1   3   5  278.57   14.05
  -1   3   5  265.49   14.77
  -1   3   5  264.96   10.31
  -1   3   5  272.54   16.64
   1   3  -5  316.85   17.09
  -1   3   5  258.12   18.25
   1   3  -5  263.86   17.03
   1   3  -5  272.03   10.26
   0  -3  -5  144.21   10.04
   0  -3  -5  153.59    6.35
   0  -3  -5  157.30   12.06
   0  -3   5  171.86   15.20
   0  -3  -5  166.71    9.74
   0  -3   5  159.85   12.99
   0  -3  -5  154.90   13.76
   0   3   5  158.27    6.18
   0   3  -5  205.23   18.05
   0   3  -5  150.57   10.53
   0   3  -5  154.82    9.88
   0   3  -5  173.64   12.92
  -1  -3  -5  342.81   13.69
   1  -3   5  385.09   19.13
  -1  -3  -5  329.63   19.24
   1  -3   5  377.31   23.85
  -1  -3  -5  333.91   21.15
  -1  -3  -5  342.55   16.66
  -1  -3  -5  332.99   20.75
   1  -3   5  386.44   21.54
  -1  -3  -5  341.80   19.04
  -1  -3  -5  340.85   17.67
  -1  -3  -5  362.44   17.07
   1  -3   5  363.78   13.50
  -1  -3  -5  337.39   17.28
   1   3   5  361.24   13.43
  -2  -3  -5  174.88   15.41
  -2  -3  -5  181.83    9.93
   2  -3   5  174.89    6.87
  -2  -3  -5  174.35   12.27
   2  -3   5  179.80   12.78
   2  -3   5  187.42   11.80
   2  -3   5  178.69    6.96
  -2  -3  -5  168.34   11.17
  -2  -3  -5  185.18   10.67
  -2  -3  -5  163.42   13.04
  -2  -3  -5  183.26   14.43
   2  -3   5  169.19   18.07
  -2  -3  -5  175.63    7.18
   2  -3   5  186.19    6.89
  -2  -3  -5  181.45   10.50
   2  -3   5  174.48   15.43
  -2   3  -5  175.21   11.42
  -2   3  -5  176.54   12.40
   2   3   5  179.03    6.98
   2   3   5  181.22    6.89
   2   3   5  180.17    6.88
  -2   3  -5  159.75   17.36
  -2   3  -5  170.11   14.54
  -3  -3  -5    4.75    4.18
   3  -3   5    0.30    0.50
   3  -3   5    2.77    4.80
  -3  -3  -5   -0.43    6.77
  -3  -3  -5   11.09    9.81
  -3  -3  -5   -7.86    4.63
  -3  -3  -5   -2.86    6.99
   3  -3   5    6.22   11.45
  -3  -3  -5   -1.90    4.88
  -3  -3  -5    0.52    4.12
   3  -3   5    4.81    8.23
  -3  -3  -5    0.81    0.61
   3  -3   5    6.00    6.21
   3   3   5    1.76    0.38
   3   3   5    0.96    0.46
  -3   3  -5    2.91    7.76
  -3   3  -5    3.69    5.08
  -3   3  -5   11.61    6.22
  -3   3  -5    0.86    0.32
  -3   3  -5   13.24   10.75
   3   3   5    1.63    0.45
  -4  -3  -5   76.74    3.73
   4  -3   5   71.84    3.28
   4   3   5   76.00    3.27
   4   3   5   80.67    3.23
   4   3   5   78.39    3.33
   4  -4  -5    3.33    0.55
  -4  -4   5    2.85    0.63
  -4  -4   5    3.74    0.96
   4  -4  -5    3.42    0.59
  -4   4   5    2.94    0.77
  -4   4   5    2.77    0.56
   3  -4  -5  143.88   12.85
   3  -4  -5  129.12    5.32
   3  -4  -5  125.07   11.10
  -3  -4   5  138.99    5.36
   3  -4  -5  142.54   19.90
   3  -4  -5  153.60   16.32
  -3   4   5  123.18   14.92
   3   4  -5  128.39   17.76
  -3   4   5  133.74    5.35
  -3   4   5  136.97    5.61
   3   4  -5  127.80   10.30
   3   4  -5  132.14   12.09
   3   4  -5  139.89   10.94
  -3   4   5  215.59   29.72
  -3   4   5  132.44   10.81
  -3   4   5  116.88   12.03
   3   4  -5  125.35   14.91
   3   4  -5  140.28   19.02
   3   4  -5  133.74   14.45
   3   4  -5  137.23   11.57
   2  -4  -5  338.55   17.19
   2  -4  -5  324.88   20.87
   2  -4  -5  316.94   12.00
   2  -4  -5  315.93   17.90
  -2  -4   5  308.99   11.98
  -2   4   5  324.08   12.14
   2   4  -5  294.98   16.39
   2   4  -5  312.78   19.91
  -2   4   5  297.71   23.44
   2   4  -5  308.42   17.66
   2   4  -5  300.91   22.35
   2   4  -5  285.96   22.58
  -2   4   5  313.67   11.98
   2   4  -5  313.86   17.59
  -2   4   5  257.38   19.41
   2   4  -5  326.42   16.70
   2   4  -5  315.59   20.10
   1  -4  -5  137.94   20.70
   1  -4  -5   80.95    7.26
  -1  -4   5   78.83    3.28
   1  -4  -5   74.96    7.82
   1  -4  -5   61.32    9.76
   1  -4  -5   72.66    3.40
  -1   4   5   83.86    9.81
   1   4  -5   79.21    9.87
   1   4  -5   83.61    7.27
  -1   4   5   80.74    3.24
  -1   4   5  133.85   18.15
  -1   4   5   81.46    7.94
   1   4  -5   81.88    3.24
   1   4  -5   67.96    7.84
   1   4  -5   92.63   12.14
  -1   4   5   91.10    7.16
   0  -4   5   96.21    3.71
   0  -4  -5   98.68    8.00
   0  -4  -5   93.30    7.22
   0  -4  -5   86.75    3.80
   0  -4  -5   85.97   11.53
   0  -4  -5   93.31    9.66
   0  -4   5   94.13    9.07
   0  -4   5   86.34   13.53
   0  -4   5   84.56   11.07
   0   4  -5   98.99    8.38
   0   4   5   85.01    3.67
   0   4   5   97.15    7.79
   0   4  -5  112.83   12.95
   0   4   5   96.99    7.09
   0   4   5   90.49    3.63
   0   4   5  111.12   11.57
   0   4  -5   86.70    7.34
   0   4  -5   61.34   11.17
   0   4   5   78.87   11.01
  -1  -4  -5  116.09    8.95
   1  -4   5  130.58   16.07
  -1  -4  -5  133.12    8.62
   1  -4   5  147.05   10.16
   1  -4   5  145.09   13.70
  -1  -4  -5  131.40   10.99
  -1  -4  -5  143.24   12.94
   1  -4   5  130.85   10.94
  -1  -4  -5  125.79    5.38
   1  -4   5  126.46    5.22
   1   4   5  129.64    5.24
   1   4   5  135.59    5.12
   1   4   5  138.23    5.12
   1   4   5  130.87    5.13
  -2  -4  -5    4.36    4.05
  -2  -4  -5    5.21    6.42
  -2  -4  -5    6.19    7.85
  -2  -4  -5    5.96    3.51
   2  -4   5    6.98    7.61
   2  -4   5    2.17    5.17
   2  -4   5   -2.99    4.29
  -2  -4  -5   -1.23    3.23
   2  -4   5    0.56    0.37
  -2  -4  -5    1.74    5.53
  -2  -4  -5    0.41    2.76
   2  -4   5    3.51    9.80
  -2  -4  -5    0.37    0.46
  -2  -4  -5   -3.07    4.39
   2  -4   5    0.37    0.24
   2  -4   5    1.06    0.40
  -2   4  -5    0.44    6.00
  -2   4  -5   -9.80    8.12
  -2   4  -5    0.55    0.23
   2   4   5    0.40    0.32
   2   4   5    1.02    0.37
  -2   4  -5    7.86    5.16
  -2   4  -5    5.72    4.14
   3  -4   5  196.76   18.78
  -3  -4  -5  218.58   11.02
  -3  -4  -5  216.01   11.72
  -3  -4  -5  172.13   14.87
   3  -4   5  205.81   15.47
  -3  -4  -5  216.42   13.62
  -3  -4  -5  195.67   18.11
  -3  -4  -5  234.42   15.91
   3  -4   5  207.55   14.09
  -3  -4  -5  194.56   11.81
  -3  -4  -5  182.09   12.55
   3  -4   5  195.44   23.09
  -3  -4  -5  218.71    8.61
   3  -4   5  219.23    8.26
   3   4   5  231.10    8.36
  -3   4  -5  203.93   19.04
  -3   4  -5  212.83    8.22
  -3   4  -5  216.78   14.47
   3   4   5  222.75    8.26
   3   4   5  226.79    8.27
  -3   4  -5  199.13   15.63
  -3   4  -5  229.13   23.71
   4  -4   5   59.25    2.81
  -4  -4  -5   63.45    3.22
  -4   4  -5   63.59    2.72
   4   4   5   63.46    2.80
   4   4   5   66.49    2.87
   4  -5  -5   82.87    3.48
   4  -5  -5   80.62    3.48
  -4  -5   5   87.94    3.55
  -4  -5   5   87.87    4.11
  -4   5   5   78.08    3.49
  -4   5   5   79.70    3.82
   3  -5  -5  118.39   20.25
   3  -5  -5   87.53    3.71
   3  -5  -5   90.09   10.17
  -3  -5   5   97.21    3.76
   3  -5  -5  114.29   15.74
   3  -5  -5   74.68   11.49
  -3   5   5   96.21    9.81
  -3   5   5   91.25    3.73
   3   5  -5  101.00    9.08
   3   5  -5  109.36   18.15
   3   5  -5   87.10   10.72
   3   5  -5   69.13   15.91
  -3   5   5   71.96   17.35
   3   5  -5   81.64    9.19
  -3   5   5   87.33   11.05
   3   5  -5   96.85   10.18
   3   5  -5   92.24   13.80
  -3   5   5   82.21   14.01
  -3   5   5   90.90    3.97
   3   5  -5   65.27   12.33
   2  -5  -5   80.52   11.06
   2  -5  -5   73.86   14.46
   2  -5  -5   59.01    2.63
  -2  -5   5   57.87    2.64
   2  -5  -5   79.02    9.75
   2  -5  -5   55.80   13.05
  -2   5   5   64.02    2.63
   2   5  -5   69.90    7.50
   2   5  -5   67.18   11.18
   2   5  -5   80.63   13.26
  -2   5   5   59.78    2.76
   2   5  -5   58.27    7.42
   2   5  -5   58.03   10.55
   2   5  -5   61.31   14.27
   2   5  -5   64.71    8.59
   2   5  -5   62.67    8.44
  -1  -5   5  426.61   27.67
   1  -5  -5  453.70   25.22
   1  -5  -5  454.22   22.65
   1  -5  -5  441.36   21.62
   1  -5  -5  463.93   27.79
  -1  -5   5  426.65   22.86
  -1  -5   5  444.83   22.04
  -1  -5   5  457.31   25.71
   1  -5  -5  442.32   17.45
  -1  -5   5  450.08   17.40
   1   5  -5  481.73   21.88
  -1   5   5  452.66   17.36
   1   5  -5  466.16   17.35
   1   5  -5  468.63   25.07
  -1   5   5  470.20   21.55
   1   5  -5  462.52   22.70
  -1   5   5  472.12   24.78
  -1   5   5  442.11   17.40
  -1   5   5  456.96   22.42
   0  -5   5   20.04    7.25
   0  -5  -5   13.05    4.38
   0  -5  -5   16.29    4.10
   0  -5   5   14.24    0.94
   0  -5  -5   15.06    1.00
   0  -5   5   13.05    4.81
   0  -5   5   19.71    6.85
   0  -5  -5    9.42    5.48
   0  -5   5   11.45    8.12
   0  -5  -5   14.83    0.98
   0  -5  -5   17.71    7.51
   0   5   5   18.59    6.68
   0   5   5    9.55    3.64
   0   5   5   15.15    0.78
   0   5  -5    0.21   12.73
   0   5   5    8.95    4.70
   0   5   5   13.72    3.63
   0   5  -5    4.87    4.50
   0   5   5   15.39    0.84
   0   5  -5   27.70    6.10
   0   5  -5   16.85    4.05
  -1  -5  -5  228.93   15.08
  -1  -5  -5  214.76   12.94
   1  -5   5  223.46   23.85
  -1  -5  -5  227.93    9.17
  -1  -5  -5  238.15   17.09
  -1  -5  -5  215.91   12.25
   1  -5   5  229.30    9.01
   1  -5   5  220.88   27.98
  -1   5  -5  238.01   15.91
   1   5   5  230.48    9.02
  -1   5  -5  257.90   17.42
  -1   5  -5  241.23   18.87
   1   5   5  233.58    8.91
  -1   5  -5  311.88   26.98
  -2  -5  -5   93.80    8.07
  -2  -5  -5   93.55   11.27
   2  -5   5  109.60    4.37
   2  -5   5  106.86    9.90
  -2  -5  -5  109.82    4.61
   2  -5   5  110.39   11.20
   2  -5   5  117.30    4.32
   2  -5   5  111.54   17.82
  -2  -5  -5  107.97   10.29
  -2  -5  -5  116.78   12.48
   2  -5   5  104.70   14.07
  -2  -5  -5  106.71    7.44
  -2  -5  -5   94.83    9.12
  -2  -5  -5  112.91   14.02
  -2  -5  -5  100.69    8.19
   2   5   5  109.66    4.40
   2   5   5  116.03    4.33
   2   5   5  110.50    4.30
  -2   5  -5  109.08    4.30
  -3  -5  -5    5.02    3.43
  -3  -5  -5    0.40    7.22
   3  -5   5   15.43    6.53
  -3  -5  -5    4.74    7.22
   3  -5   5   -1.76   14.64
  -3  -5  -5    7.98    1.13
  -3  -5  -5    3.64    3.97
  -3  -5  -5   11.42    9.65
   3  -5   5    5.29    0.90
   3  -5   5    9.05    8.00
   3  -5   5    2.98   10.53
  -3  -5  -5   -1.82    5.06
  -3  -5  -5    4.38    5.62
   3  -5   5    7.01    0.85
  -3  -5  -5   11.94    4.55
  -3   5  -5    8.61   14.91
  -3   5  -5    0.65    7.03
  -3   5  -5    0.79    6.02
  -3   5  -5    4.95    0.69
  -3   5  -5   30.87   11.39
   3   5   5    7.36    0.72
   3   5   5    6.68    0.81
   3   5   5    7.23    0.83
   4  -5   5   65.28    3.00
  -4  -5  -5   67.54    3.40
  -4   5  -5   68.01    2.91
   4   5   5   67.90    3.06
   4   5   5   67.82    3.02
   4   5   5   70.86    2.96
  -4  -6   5    1.19    0.63
   4  -6  -5    0.15    0.50
   4  -6  -5    0.02    0.62
  -4   6   5    0.93    0.57
  -4   6   5    1.52    0.74
  -3  -6   5  366.16   13.13
   3  -6  -5  304.56   20.30
   3  -6  -5  323.20   24.22
   3  -6  -5  338.94   19.38
   3  -6  -5  343.00   28.87
   3  -6  -5  336.80   13.13
  -3   6   5  353.12   19.35
   3   6  -5  315.71   18.44
  -3   6   5  331.33   20.48
   3   6  -5  317.54   24.84
  -3   6   5  316.68   27.17
   3   6  -5  380.78   19.85
   3   6  -5  314.87   23.16
   3   6  -5  337.17   27.37
   3   6  -5  357.30   18.36
   3   6  -5  311.23   19.82
   3   6  -5  347.89   22.34
  -3   6   5  350.50   13.36
  -3   6   5  354.91   13.13
   2  -6  -5   15.19    0.92
   2  -6  -5    6.92    4.14
   2  -6  -5    0.94    5.46
  -2  -6   5   13.50    0.96
   2  -6  -5    8.13    4.50
  -2   6   5   15.74   12.88
   2   6  -5   13.91    0.72
  -2   6   5   13.49    0.90
   2   6  -5   15.62    9.87
  -2   6   5   17.84   10.30
   2   6  -5   11.69    5.08
  -2   6   5   13.87    1.05
   2   6  -5   12.08    6.62
   2   6  -5   13.20    4.21
  -1  -6   5   27.65   15.41
   1  -6  -5    3.87    4.92
  -1  -6   5    7.19    3.92
   1  -6  -5    0.19    5.70
   1  -6  -5    1.06    9.17
  -1  -6   5   -1.97    4.21
  -1  -6   5    2.95    0.49
   1  -6  -5    2.49    0.44
   1  -6  -5   -5.68    7.91
  -1  -6   5    2.53    6.14
   1   6  -5    4.19    4.31
  -1   6   5    1.97    4.21
   1   6  -5  -11.35    7.27
  -1   6   5    2.82    3.54
  -1   6   5    2.38    0.38
  -1   6   5    2.89    0.59
  -1   6   5    8.86    6.46
   1   6  -5    7.74    6.89
  -1   6   5    7.92    7.18
   1   6  -5    2.70    3.28
   0  -6  -5  193.68    8.14
   0  -6  -5  200.94   11.99
   0  -6  -5  220.44   15.41
   0  -6  -5  208.29    8.29
   0  -6   5  220.36   19.81
   0  -6   5  215.32    8.19
   0  -6  -5  204.18   17.37
   0  -6   5  200.09   16.59
   0  -6  -5  222.86   13.15
   0   6  -5  205.30   12.40
   0   6  -5  204.43   15.62
   0   6   5  208.56    8.09
   0   6   5  203.73   12.78
   0   6   5  226.25   17.17
   0   6  -5  257.70   21.51
   0   6   5  212.39    8.08
   0   6   5  206.16   11.88
   0   6  -5  218.53   13.46
   0   6   5  207.98   14.89
   0   6   5  202.63    8.16
  -1  -6  -5  175.69   10.13
   1  -6   5  200.79   33.37
   1  -6   5  164.90    6.36
   1  -6   5  123.31   20.86
   1  -6   5  132.88   16.62
   1  -6   5  126.62   16.01
  -1  -6  -5  172.76   13.14
  -1  -6  -5  159.52    6.50
  -1  -6  -5  159.14   14.84
  -1  -6  -5  162.79   10.81
  -1   6  -5  162.71   14.67
   1   6   5  162.21    6.25
  -1   6  -5  163.35   17.83
   1   6   5  161.47    6.35
   2  -6   5   15.06    6.19
  -2  -6  -5   21.93    5.11
  -2  -6  -5    2.88    8.08
  -2  -6  -5   29.74    7.96
  -2  -6  -5   16.85    5.93
  -2  -6  -5   17.35    4.02
  -2  -6  -5   18.21    1.27
   2  -6   5   17.20    1.10
   2  -6   5   12.51   11.28
   2  -6   5   23.70    8.63
  -2  -6  -5   24.82    5.87
   2  -6   5   18.70    1.04
   2  -6   5    9.18    4.89
  -2  -6  -5   22.92    7.50
  -2  -6  -5   19.14    4.75
   2   6   5   17.07    1.06
  -2   6  -5   13.33    5.10
   2   6   5   17.40    0.94
  -2   6  -5    7.13   10.12
  -2   6  -5   10.89    7.17
   2   6   5   17.98    0.98
  -2   6  -5   10.91    4.11
   3  -6   5  292.87   20.83
   3  -6   5  361.57   30.36
  -3  -6  -5  332.16   24.05
  -3  -6  -5  274.32   18.04
  -3  -6  -5  294.01   16.22
   3  -6   5  309.09   23.81
  -3  -6  -5  308.42   16.25
   3  -6   5  281.97   11.48
   3  -6   5  303.06   11.48
  -3  -6  -5  309.98   17.58
  -3  -6  -5  313.80   20.63
  -3  -6  -5  280.71   14.38
  -3  -6  -5  291.24   13.77
   3  -6   5  293.24   36.43
  -3  -6  -5  293.91   11.80
   3   6   5  299.92   11.47
  -3   6  -5  297.83   11.49
   3   6   5  296.63   11.51
   3   6   5  288.37   11.60
  -4  -6  -5   27.87    2.08
   4  -6   5   29.13    1.70
   4   6   5   32.00    1.62
  -4   6  -5   27.80    1.61
   4   6   5   27.57    1.68
   4   6   5   29.31    1.74
   4  -7  -5   30.24    1.71
   4  -7  -5   29.65    1.62
  -4  -7   5   28.75    1.84
  -4   7   5   26.63    1.99
  -4   7   5   26.54    1.65
   3  -7  -5    8.97    5.34
   3  -7  -5    4.34    5.72
   3  -7  -5    6.87    7.52
   3  -7  -5   -5.22    9.95
  -3   7   5   -1.88    9.47
  -3   7   5   -2.02    6.69
  -3   7   5    5.83   13.88
  -3   7   5    4.53    5.45
  -2  -7   5    2.27    0.56
   2  -7  -5    2.54    0.45
   2   7  -5    6.11    5.29
   2   7  -5    3.51    7.44
   2   7  -5    3.13    0.35
  -2   7   5    2.07    0.44
  -2   7   5    3.21    0.57
   2   7  -5   -0.31    3.84
  -2   7   5    5.83    9.15
  -2   7   5   12.18    8.41
  -2   7   5    3.25    6.74
   2   7  -5    1.09   11.10
  -2   7   5    3.57    7.89
  -1  -7   5  194.61    7.72
  -1  -7   5  192.92   20.27
  -1  -7   5  243.71   21.84
   1  -7  -5  193.59   13.62
   1  -7  -5  196.96   12.58
   1  -7  -5  195.23    7.78
  -1  -7   5  189.61   13.24
  -1  -7   5  190.97   14.49
   1   7  -5  188.78   13.08
  -1   7   5  210.65   13.56
  -1   7   5  197.09   12.35
  -1   7   5  197.70    7.71
   1   7  -5  189.55   15.47
  -1   7   5  205.23    7.67
  -1   7   5  195.44   18.66
   1   7  -5  187.16   12.07
   1   7  -5  194.10   18.43
   0  -7  -5    3.10    3.38
   0  -7  -5    5.53    0.76
   0  -7   5    7.11    5.01
   0  -7  -5    3.22    5.42
   0  -7  -5    2.90    3.97
   0  -7   5    4.05    9.85
   0  -7   5    7.41    6.93
   0  -7   5    7.32    7.98
   0  -7  -5   13.97    7.48
   0  -7   5    6.42    0.74
   0   7  -5    6.68    5.58
   0   7   5    5.46    0.57
   0   7  -5    4.24    4.01
   0   7   5    9.13    4.88
   0   7   5   11.17    7.67
   0   7  -5   10.70   14.73
   0   7   5   11.74    6.38
   0   7   5    5.24    0.56
   0   7   5    4.71    0.60
   0   7   5    6.05    3.76
   0   7  -5    3.91    4.36
  -1  -7  -5   99.29    8.10
   1  -7   5  102.83    9.88
  -1  -7  -5  101.07    4.45
   1  -7   5  116.50   21.88
   1  -7   5  121.67   11.64
   1  -7   5  108.42    4.34
  -1  -7  -5  109.55    9.11
   1  -7   5  119.44   16.97
  -1  -7  -5   90.60   13.54
  -1  -7  -5  112.06   11.47
  -1   7  -5  111.64   13.52
  -1   7  -5   99.12    9.33
   1   7   5  101.54   10.74
   1   7   5  108.95    4.23
  -1   7  -5  135.47   15.49
   1   7   5  105.25   13.14
   1   7   5  104.56    7.99
  -1   7  -5  106.61   17.02
   1   7   5  106.79    4.34
   1   7   5  105.21    8.91
   2  -7   5  110.18    4.50
  -2  -7  -5   95.22    9.58
  -2  -7  -5  124.11   14.04
  -2  -7  -5   99.62    8.94
  -2  -7  -5  112.85   11.36
   2  -7   5  114.01   11.24
   2  -7   5  104.28   20.61
  -2  -7  -5  113.18    4.70
   2  -7   5  120.04    4.42
  -2  -7  -5   92.93    8.63
  -2  -7  -5  105.90    8.12
  -2  -7  -5  108.07   12.29
   2  -7   5  119.68   12.80
  -2   7  -5   98.97   18.16
   2   7   5  113.01    4.42
  -2   7  -5  116.38   10.55
  -2   7  -5  146.64   14.24
  -2   7  -5  109.90    4.43
  -2   7  -5   98.66   14.44
   2   7   5  108.21    4.51
  -3  -7  -5   27.42    5.29
  -3  -7  -5    9.82    8.14
   3  -7   5   18.13    1.27
   3  -7   5   17.20    1.28
  -3  -7  -5   19.79    6.30
  -3  -7  -5   17.24    1.48
  -3  -7  -5   15.86    4.84
   3   7   5   17.06    1.16
  -3   7  -5   18.23    1.11
   3   7   5   19.00    1.26
   3   7   5   18.45    1.08
  -4  -7  -5    2.77    0.90
   4  -7   5    1.34    0.83
   4   7   5    3.33    0.72
   4   7   5    2.79    0.65
  -4   7  -5    2.20    0.61
   4   7   5    3.35    0.75
  -4  -8   5   10.57    1.45
   4  -8  -5    7.71    1.04
   4  -8  -5    8.88    1.29
   4   8  -5    7.78    0.83
  -4   8   5    8.06    1.38
  -4   8   5    6.45    1.12
   3  -8  -5   17.39   17.02
  -3  -8   5    3.84    0.70
   3  -8  -5    3.18    0.57
   3  -8  -5   11.40   14.88
   3  -8  -5  -10.82   10.79
   3  -8  -5    1.03    8.91
  -3   8   5    2.69   10.14
  -3   8   5   -7.39    6.91
  -3   8   5    7.10    5.59
  -3   8   5    3.36    0.71
  -3   8   5  -14.43   14.23
  -3   8   5    3.55    0.60
   2  -8  -5    9.53    0.81
   2  -8  -5    5.60    3.53
   2  -8  -5   -6.21   10.56
  -2  -8   5    9.23    0.93
   2  -8  -5    4.11    4.54
   2  -8  -5    4.48    6.76
  -2   8   5   11.62    1.00
  -2   8   5   10.62    0.88
  -2   8   5   18.50    7.33
  -2   8   5    4.14    8.37
  -2   8   5   28.48    8.38
  -2   8   5   10.55    0.75
  -2   8   5   -3.54    9.28
  -1  -8   5   40.17   10.06
   1  -8  -5   53.22   14.43
  -1  -8   5   29.16    9.61
  -1  -8   5   33.03    1.67
   1  -8  -5   36.32    7.12
   1  -8  -5   34.21    1.70
   1  -8  -5   30.50    8.13
  -1  -8   5   63.97   12.68
  -1  -8   5   30.33   12.50
   1  -8  -5   49.66   15.92
  -1   8   5   38.62    7.00
   1   8  -5   39.54   12.16
  -1   8   5   30.91    8.31
   1   8  -5   19.11    7.59
  -1   8   5   33.23    1.58
  -1   8   5   33.94    8.19
  -1   8   5   34.17    1.66
  -1   8   5   40.24   12.07
  -1   8   5   35.11    1.60
   1   8  -5   28.95    6.56
   0  -8  -5   17.21    5.00
   0  -8  -5   17.68    5.73
   0  -8   5   30.34   11.36
   0  -8  -5   15.28    7.08
   0  -8   5   20.66   14.38
   0  -8  -5   17.08    1.12
   0  -8   5   29.99   11.37
   0  -8   5   13.40    4.83
   0  -8   5   16.09    1.10
   0  -8  -5    7.87    8.69
   0   8   5   18.71    0.98
   0   8  -5   27.58    8.39
   0   8   5   17.40    0.94
   0   8   5   14.38    6.44
   0   8   5    8.47    3.85
   0   8   5   14.44    8.25
   0   8   5    8.85    4.57
   0   8   5   17.43    0.99
   0   8  -5   30.57    7.75
   0   8  -5   19.99    6.51
   0   8  -5   18.10    9.38
  -1  -8  -5   -0.76    3.61
   1  -8   5    3.21    0.57
   1  -8   5    8.76    5.50
   1  -8   5   14.10    8.56
   1  -8   5   15.52   13.30
  -1  -8  -5    2.93    0.56
  -1  -8  -5   17.89    9.34
  -1  -8  -5    6.72    6.30
   1  -8   5   14.29   11.48
  -1  -8  -5    5.58    4.69
   1   8   5    2.61    0.49
  -1   8  -5    0.07    4.87
  -1   8  -5   -2.61    6.85
   1   8   5    4.59    4.73
   1   8   5    4.31    0.50
   1   8   5   -0.41    6.16
  -1   8  -5   21.40   11.34
   1   8   5    8.35    8.50
  -1   8  -5    8.25    8.80
   1   8   5    2.76    3.69
  -2  -8  -5   44.13    7.64
   2  -8   5   28.50    7.92
   2  -8   5   30.22    1.48
   2  -8   5   44.82   15.31
  -2  -8  -5   28.90    1.71
   2  -8   5   36.81   10.84
  -2  -8  -5   26.40    7.84
  -2  -8  -5   28.37    6.37
   2  -8   5   27.62    1.55
  -2  -8  -5   24.47   10.25
   2  -8   5   21.20    6.08
  -2   8  -5   32.98   10.52
  -2   8  -5   29.86    1.45
  -2   8  -5   14.38    7.67
   2   8   5   29.14    1.41
  -2   8  -5   14.86    5.66
   2   8   5   30.96    1.55
   3  -8   5    3.76    0.70
  -3  -8  -5    7.25    4.85
  -3  -8  -5    0.73    6.22
   3  -8   5    4.47    0.75
  -3  -8  -5    5.02    0.89
  -3  -8  -5    4.07    3.98
  -3  -8  -5   14.73    9.14
   3   8   5    5.35    0.86
   3   8   5    4.23    0.77
  -3   8  -5    3.25    0.55
   4   9  -5   60.91    2.64
   3  -9  -5   15.20    9.57
  -3  -9   5    2.25    0.65
   3  -9  -5    1.49    7.12
   3  -9  -5  -28.43   17.76
   3  -9  -5    0.85    0.50
   3  -9  -5   -0.24    0.50
  -3   9   5   -0.15    0.50
  -3   9   5   10.25    6.73
  -3   9   5   -5.26   22.80
  -3   9   5    2.24    7.57
   3   9  -5    1.17    0.39
  -3   9   5    0.30    0.38
  -3   9   5  -10.06   13.97
  -3   9   5   -0.11    0.61
  -2  -9   5   55.34   22.18
   2  -9  -5   27.55    8.56
  -2  -9   5   58.34   11.73
  -2  -9   5   67.47   18.25
   2  -9  -5   34.62   13.14
  -2  -9   5   58.29   13.86
  -2  -9   5   45.78    2.21
   2  -9  -5   46.60    2.20
   2  -9  -5   70.26   17.88
  -2   9   5   44.60    2.24
   2   9  -5   46.74    1.97
  -2   9   5   46.89   11.17
  -2   9   5   48.67    2.14
  -2   9   5   89.27   20.28
  -2   9   5   46.29   14.86
  -2   9   5   43.38    9.53
  -2   9   5   47.44    2.10
   1  -9  -5   83.46   12.99
  -1  -9   5   68.08   10.00
   1  -9  -5   68.15    2.99
   1  -9  -5   92.84   11.59
  -1  -9   5   63.63   15.49
   1  -9  -5   64.21   15.65
   1  -9  -5   76.75   17.12
  -1  -9   5   78.87   16.23
  -1  -9   5   65.67    2.94
  -1  -9   5   93.18   17.24
   1   9  -5  107.76   17.47
   1   9  -5   70.75    8.23
   1   9  -5   81.47   16.21
  -1   9   5   73.72   16.85
  -1   9   5   70.53   12.84
  -1   9   5   66.18    2.89
   1   9  -5   61.37    9.25
  -1   9   5   64.64    2.90
  -1   9   5   68.07    2.85
  -1   9   5   57.59    9.70
   0  -9  -5    0.44    6.62
   0  -9  -5   11.22    9.90
   0  -9   5   14.29    9.03
   0  -9   5   12.08    6.57
   0  -9   5    7.08    0.85
   0  -9   5   15.85   13.01
   0  -9  -5    2.98    4.03
   0  -9  -5    7.29    0.82
   0  -9  -5    3.13    4.74
   0  -9   5   -0.21    4.82
   0   9  -5    9.91    5.17
   0   9   5    7.16    7.23
   0   9   5    5.51    0.70
   0   9   5    5.26    0.67
   0   9  -5   11.82   11.40
   0   9   5    6.95    4.94
   0   9   5    3.34    3.91
   0   9  -5    6.78    5.87
   0   9   5    5.86    0.65
   0   9   5   15.97   10.25
   0   9  -5   25.43   10.61
  -1  -9  -5   -1.88    7.13
   1  -9   5   10.92    8.49
   1  -9   5   16.67   12.85
  -1  -9  -5   -1.40    4.15
  -1  -9  -5   15.92    6.18
   1  -9   5    2.57    0.55
   1  -9   5   16.40    9.85
  -1  -9  -5    2.79    0.57
   1  -9   5   -5.36   11.48
  -1  -9  -5   24.05   11.54
  -1   9  -5   -0.85    4.82
  -1   9  -5   27.14   16.59
   1   9   5   -3.78    8.66
   1   9   5    2.43    0.40
  -1   9  -5   -0.29    6.07
  -1   9  -5    4.48    8.81
   1   9   5    7.52    6.70
   1   9   5    6.23    4.95
   1   9   5    2.43    0.47
   1   9   5    3.81    4.07
   2  -9   5  156.02    5.88
   2  -9   5  147.48    6.01
  -2  -9  -5  123.71   18.04
  -2  -9  -5  153.53   14.84
   2  -9   5  180.69   16.98
   2  -9   5  141.51   15.63
   2  -9   5  139.19   19.66
  -2  -9  -5  138.49   11.80
  -2  -9  -5  146.68    6.13
   2  -9   5  122.02   24.33
  -2  -9  -5  134.46   10.53
  -2   9  -5  190.66   30.37
   2   9   5  149.08    5.91
  -2   9  -5  178.93   17.33
  -2   9  -5  130.72   17.50
  -2   9  -5  151.96    5.95
   2   9   5  153.78    6.03
  -2   9  -5  141.39   12.88
   3  -9   5    1.61    0.66
  -3  -9  -5    5.67    4.00
  -3  -9  -5    3.58    4.89
  -3  -9  -5    2.42    9.64
   3  -9   5    2.27    0.67
  -3  -9  -5    3.84    6.61
  -3  -9  -5    0.90    0.74
   3   9   5    1.77    0.60
   3   9   5    2.28    0.55
  -3   9  -5    2.31    0.54
   3 -10  -5   77.07    3.30
  -3 -10   5   72.90    3.35
   3 -10  -5   67.34   16.63
   3 -10  -5   71.75    3.26
   3 -10  -5   70.12   13.95
   3 -10  -5   51.32   18.26
  -3  10   5  110.83   28.39
  -3  10   5   60.93   15.59
  -3  10   5   74.10    3.25
  -3  10   5   77.62    3.18
  -3  10   5  126.82   29.96
   3  10  -5   75.28    3.07
  -3  10   5   70.94    3.42
  -3  10   5   65.82   13.27
   2 -10  -5   99.35   14.90
   2 -10  -5   88.84   12.59
  -2 -10   5  112.48    4.75
   2 -10  -5  115.90    4.80
   2 -10  -5  174.12   42.19
   2 -10  -5   82.23   19.06
  -2  10   5  118.41    4.83
  -2  10   5  124.23   18.87
  -2  10   5  103.00   12.56
   2  10  -5  117.10    4.56
  -2  10   5  169.90   29.04
  -2  10   5  135.48   14.94
  -2  10   5  119.49    4.73
  -2  10   5  119.96    4.72
   1 -10  -5   10.53    7.02
   1 -10  -5   10.02   12.15
  -1 -10   5   37.20   10.15
  -1 -10   5   15.15    8.20
   1 -10  -5    6.49    8.94
  -1 -10   5    7.19   15.56
   1 -10  -5   17.00    6.29
  -1 -10   5   18.35    1.25
   1 -10  -5   17.57    1.24
  -1 -10   5   17.44   12.04
  -1  10   5   19.54    1.15
   1  10  -5   36.73   10.49
  -1  10   5   16.64    5.96
   1  10  -5   20.34    0.93
   1  10  -5   15.58    5.58
  -1  10   5   18.86    1.11
  -1  10   5   21.29    1.23
  -1  10   5   16.64    6.89
   1  10  -5   25.64   15.86
   1  10  -5   24.93    7.68
  -1  10   5   43.40   26.07
  -1  10   5   19.30    8.16
   0 -10  -5  206.78   14.04
   0 -10   5  202.09   21.35
   0 -10   5  262.11   21.45
   0 -10   5  272.02   19.24
   0 -10  -5  196.97   15.18
   0 -10  -5  217.63    8.65
   0 -10   5  217.70    8.59
   0 -10  -5  219.60   18.74
   0 -10   5  196.06   26.35
   0 -10  -5  205.11   22.03
   0  10   5  220.99    8.48
   0  10   5  216.11   14.15
   0  10  -5  215.88   14.44
   0  10  -5  189.78   15.50
   0  10   5  208.40   15.37
   0  10   5  210.30   18.44
   0  10  -5  221.69   23.52
   0  10  -5  263.83   23.10
   0  10   5  222.52    8.44
   0  10   5  204.14   22.31
  -1 -10  -5   16.95    1.24
   1 -10   5   13.08   12.96
  -1 -10  -5   17.56    8.13
   1 -10   5   15.51    1.22
  -1 -10  -5    3.69   10.48
  -1 -10  -5    9.97    5.74
   1 -10   5   21.70   14.84
  -1 -10  -5   12.44    4.96
   1 -10   5    5.85    7.13
   1 -10   5   25.87   10.81
   1  10   5   15.01    6.67
  -1  10  -5   27.26    8.88
   1  10   5   33.43    9.25
  -1  10  -5   30.21    8.21
  -1  10  -5   38.40   15.66
  -1  10  -5   12.89   12.68
   1  10   5   17.50    9.11
   1  10   5   16.87    0.98
   1  10   5   37.37   14.10
   1  10   5   15.35    1.08
   2 -10   5   26.94   18.79
  -2 -10  -5   10.76    1.21
   2 -10   5   -3.08   24.18
   2 -10   5   16.75   15.05
   2 -10   5   10.50    1.20
   2 -10   5    2.11    6.23
  -2  10  -5    5.50    5.34
  -2  10  -5   11.29    0.94
   2  10   5   11.81    0.91
   2  10   5   13.05    1.06
  -2  10  -5    7.30   16.99
  -2  10  -5    2.67   15.38
  -2  10  -5    9.22    9.43
   3 -10   5   69.50    3.10
   3 -10   5   69.05    3.20
  -3 -10  -5   70.41    3.33
   3  10   5   69.87    3.07
  -3  10  -5   71.79    3.11
   3  10   5   70.07    3.22
   3 -11  -5   27.91    1.72
  -3 -11   5   28.51    1.97
   3 -11  -5   30.58    1.81
  -3  11   5   30.46    1.75
  -3  11   5   29.57    1.86
  -3  11   5   32.73    1.63
   3  11  -5   30.36    1.52
   2 -11  -5   88.44   24.63
   2 -11  -5   68.82    3.11
  -2 -11   5   66.81    3.14
   2 -11  -5   79.25   14.84
   2 -11  -5   84.86   25.39
   2 -11  -5   84.83   17.68
  -2  11   5   69.34    3.03
  -2  11   5   71.58    3.01
   2  11  -5   68.68    2.85
  -2  11   5   69.87    3.13
   1 -11  -5   36.42   17.25
   1 -11  -5   71.71    3.15
  -1 -11   5   66.26    3.11
   1 -11  -5   79.44   12.50
   1 -11  -5  108.76   15.48
   1 -11  -5   35.96   14.06
  -1  11   5   70.67    3.01
  -1  11   5   73.50    3.11
  -1  11   5   73.84    3.06
   0 -11   5   33.90    1.91
   0 -11  -5   37.37    1.95
   0 -11   5   41.85   32.74
   0 -11   5   45.79   23.34
   0 -11   5   20.49    6.98
   0  11  -5   47.10   12.82
   0  11   5   37.67    1.83
   0  11  -5   80.02   23.27
   0  11   5   39.43    1.76
   0  11  -5   43.81    9.11
   0  11  -5   49.12   12.98
   0  11   5   36.55    1.75
  -1 -11  -5   89.62    3.80
   1 -11   5   89.32   20.25
   1 -11   5   83.83    3.74
   1 -11   5   54.77   12.24
   1 -11   5   99.45   26.60
   1 -11   5   82.08   12.74
  -1  11  -5   99.76   17.11
   1  11   5   87.22    3.69
  -1  11  -5   83.05   13.15
  -1  11  -5   82.88   11.37
   1  11   5   88.34    3.58
  -1  11  -5  121.20   23.36
  -2 -11  -5   76.53    3.57
   2 -11   5   89.65   21.41
   2 -11   5   77.08    3.52
   2 -11   5   80.38    3.35
   2 -11   5   75.56   18.64
   2 -11   5  112.07   18.40
   2 -11   5   79.80   22.25
  -2  11  -5  111.81   19.98
  -2  11  -5   38.74   17.85
   2  11   5   79.93    3.50
  -2  11  -5   74.73   12.68
  -2  11  -5  100.96   20.88
   2  11   5   78.68    3.34
  -2  11  -5   77.79    3.40
   3 -11   5   10.98    1.44
  -3 -11  -5   12.74    1.51
   2 -12  -5   83.68    3.59
   2 -12  -5   80.65    3.55
  -2 -12   5   77.36    3.57
  -2  12   5   81.88    3.44
  -2  12   5   76.59    3.55
   2  12  -5   82.14    3.29
  -2  12   5   80.48    3.47
   1 -12  -5    0.07    0.48
  -1 -12   5    0.83    0.62
   1  12  -5    1.07    0.34
  -1  12   5    0.76    0.47
  -1  12   5   -0.14    0.46
  -1  12   5   -0.12    0.49
   0 -12   5   87.97    3.91
   0 -12  -5   89.28    3.93
   0  12   5   92.64    3.77
   0  12   5   92.13    3.85
   1 -12   5  150.20   30.50
   1 -12   5  105.12   23.32
   1 -12   5  129.90    5.46
  -1 -12  -5  128.79    5.46
   1 -12   5  117.47   15.33
   1 -12   5  133.86   18.28
   1  12   5  138.58    5.32
   1  12   5  133.15    5.42
   2 -12   5   34.07   13.27
  -2 -12  -5   35.08    2.07
   2 -12   5   34.69    1.94
   2 -12   5   26.43   28.28
   2 -12   5   35.49    2.08
   2 -12   5   54.96   17.11
   2 -12   5   51.12   22.04
   2  12   5   35.73    1.81
  -2  12  -5   34.41   12.23
  -2  12  -5   67.65   24.21
   2  12   5   36.11    1.95
  -2  12  -5   59.54   16.47
  -2  12  -5   37.86    1.91
  -2  12  -5   65.04   26.83
  -2 -13   5   45.83    2.52
   2 -13  -5   44.96    2.36
   2 -13  -5   48.16    2.39
  -2  13   5   47.40    2.26
  -2  13   5   46.86    2.39
  -2  13   5   42.60    2.25
   2  13  -5   46.62    2.07
  -1 -13   5  169.83    7.04
   1 -13  -5  171.31    7.07
  -1  13   5  172.82    6.95
  -1  13   5  175.74    7.00
   1  13  -5  177.42    6.76
  -1  13   5  173.64    6.90
   0 -13  -5    3.61    0.70
   0 -13   5    2.13    0.81
   0  13  -5    2.34    0.41
   0  13   5    1.94    0.57
   0  13   5    2.41    0.62
  -1 -13  -5   54.11    2.74
   1 -13   5   56.84    2.84
   1  13   5   58.93    2.71
   1  13   5   56.90    2.55
   1 -14  -5   11.38    1.23
   1 -14  -5    9.07    1.27
  -1 -14   5   11.22    1.51
  -1  14   5   12.86    1.20
  -1  14   5    9.82    1.21
   0 -14  -5  135.60    5.79
   0 -14   5  134.51    5.83
   0  14  -5  141.82    5.46
   0  14   5  139.36    5.74
   0  14   5  143.95    5.68
   1 -14   5   23.73    1.86
  -1 -14  -5   23.23    1.66
   1  14   5   21.56    1.34
   1  14   5   22.81    1.60
  -4   0   6   16.27    1.29
  -4   0   6   17.57    1.65
   3   0  -6  159.70   13.18
   3   0  -6  182.52   14.71
  -3   0   6  173.37    6.82
  -3   0   6  173.30    7.11
   3   0  -6  189.49   18.57
   3   0  -6  161.03   22.46
   3   0  -6  178.71   13.30
   3   0  -6  154.96   17.96
   3   0  -6  140.44   21.27
   3   0  -6  172.35    6.70
   3   0  -6  187.56   15.03
   2   0  -6  271.11   15.86
   2   0  -6  283.06   17.08
   2   0  -6  276.95   19.81
   2   0  -6  289.32   23.55
   2   0  -6  263.11   17.00
  -2   0   6  262.13   10.36
   2   0  -6  259.06   22.16
  -2   0   6  259.30   10.54
   2   0  -6  264.09   10.31
   2   0  -6  265.86   20.00
   1   0  -6  303.00   17.23
   1   0  -6  281.52   15.99
   1   0  -6  281.45   19.35
   1   0  -6  310.77   17.32
   1   0  -6  341.12   26.63
   1   0  -6  279.11   15.88
  -1   0   6  283.75   11.47
   1   0  -6  298.07   19.87
   1   0  -6  354.05   25.33
  -1   0   6  284.15   11.38
   0   0   6   17.28    1.01
   0   0  -6   18.11    6.58
   0   0  -6   29.25    7.23
   0   0  -6   20.55    5.41
   0   0   6   16.66    0.99
   0   0  -6   31.52    8.06
   0   0  -6   17.29    8.15
   0   0  -6   20.42    6.87
   0   0  -6   20.70    5.97
   0   0  -6   20.15    8.01
  -1   0  -6  304.64   16.04
  -1   0  -6  310.58   19.24
  -1   0  -6  292.09   21.43
   1   0   6  303.43   11.89
  -1   0  -6  313.97   17.36
  -1   0  -6  302.48   12.12
  -1   0  -6  319.46   17.20
  -1   0  -6  318.27   16.42
  -1   0  -6  326.43   19.83
  -1   0  -6  310.98   22.14
  -2   0  -6    3.32    4.72
  -2   0  -6   -3.60    8.43
   2   0   6    3.07    0.65
  -2   0  -6    0.90    3.73
   2   0   6    2.52    0.45
  -2   0  -6   -2.67    6.11
   3   0   6   12.62    1.04
  -3   0  -6    9.20    8.38
  -3   0  -6   10.07   11.51
   3   0   6   10.50    0.98
  -4  -1   6   39.25    1.95
  -4  -1   6   34.98    2.33
   4  -1  -6   40.60    1.78
  -4   1   6   36.21    2.29
  -4   1   6   37.34    1.94
   3  -1  -6  189.04   15.25
  -3  -1   6  195.73    7.82
   3  -1  -6  175.25   22.67
   3  -1  -6  168.42   18.55
  -3  -1   6  191.00    7.51
   3  -1  -6  183.84   13.83
   3   1  -6  218.07   20.12
   3   1  -6  182.45   18.85
   3   1  -6  180.21   13.82
  -3   1   6  192.83    7.50
   3   1  -6  169.12   15.02
   3   1  -6  204.06    7.37
   3   1  -6  180.18   15.68
   3   1  -6  214.86   23.20
   3   1  -6  171.40   13.99
  -3   1   6  198.82    7.81
   3   1  -6  206.15   23.47
   2  -1  -6   19.28    7.71
  -2  -1   6   23.45    1.32
  -2  -1   6   23.00    1.53
   2  -1  -6   34.22    8.33
   2  -1  -6   40.97   11.00
   2  -1  -6   24.00    1.24
   2  -1  -6   31.59   10.73
   2   1  -6   33.21    7.99
   2   1  -6   43.40    8.34
   2   1  -6   31.11    9.82
  -2   1   6   24.58    1.50
   2   1  -6   25.30    1.20
   2   1  -6   47.03   13.63
   2   1  -6    9.51    8.25
  -2   1   6   26.46    1.31
   2   1  -6   37.91    8.38
   2   1  -6   41.72   13.78
   2   1  -6   25.20    6.62
   1  -1  -6   12.69    0.90
   1  -1  -6    9.65    5.96
   1  -1  -6    5.11    5.70
   1  -1  -6   12.08    4.60
   1  -1  -6    6.26    6.86
   1  -1  -6   25.83    7.20
   1  -1  -6   33.24   17.25
   1  -1  -6    8.56    3.86
  -1  -1   6   11.66    0.86
   1  -1  -6   17.44    7.49
   1   1  -6    7.99    7.81
   1   1  -6   17.98    4.63
  -1   1   6   10.67    0.96
   1   1  -6   12.93    0.92
  -1   1   6   11.97    0.83
   1   1  -6   22.78    5.99
   1   1  -6    9.66    4.77
   1   1  -6   19.36    6.13
   1   1  -6   31.30   12.87
   1   1  -6   13.10    6.82
   1   1  -6    7.00    6.08
   0  -1  -6  252.84   13.83
   0  -1  -6  263.06   15.00
   0  -1  -6  245.07    9.58
   0  -1   6  249.81    9.43
   0  -1  -6  246.61   17.09
   0   1  -6  245.40   14.83
   0   1   6  245.31    9.39
   0   1  -6  233.61   16.91
   0   1  -6  236.26   14.67
   0   1  -6  230.94   13.64
   0   1  -6  226.57    9.55
   0   1   6  242.17    9.41
   0   1  -6  254.50   13.93
   0   1  -6  240.62   16.92
  -1  -1  -6  115.36   12.60
  -1  -1  -6  119.88   15.39
  -1  -1  -6  125.22   10.31
  -1  -1  -6  128.67   14.68
  -1  -1  -6  119.62    4.98
  -1  -1  -6  114.39   11.99
  -1  -1  -6  124.97   10.17
  -1  -1  -6  134.65    9.36
   1  -1   6  115.39    4.76
  -1  -1  -6  115.93    8.95
  -1   1  -6  119.50   15.17
  -1   1  -6  119.14   12.69
  -1   1  -6  116.70   10.17
  -1   1  -6  120.28    4.97
  -1   1  -6  118.10    9.24
   1   1   6  121.67    4.79
  -2  -1  -6   95.68    8.77
  -2  -1  -6   93.31   12.21
  -2  -1  -6  104.58    8.46
  -2  -1  -6  103.82    4.40
  -2  -1  -6   92.77    9.88
   2  -1   6  101.27    4.09
  -2  -1  -6  104.72    9.64
  -2  -1  -6   88.34   14.62
  -2  -1  -6  115.56   12.29
   2  -1   6  109.26    4.07
  -2  -1  -6   99.53   15.38
   2  -1   6   96.00    4.29
   2   1   6  107.00    4.05
  -2   1  -6   80.10   16.40
   2   1   6  103.77    4.13
  -2   1  -6  101.46    9.31
  -2   1  -6   94.48   10.35
  -2   1  -6   95.77   13.09
  -3  -1  -6  283.18   15.20
   3  -1   6  284.29   10.72
   3  -1   6  260.63   10.71
  -3  -1  -6  250.60   21.82
  -3  -1  -6  284.66   16.53
  -3  -1  -6  282.08   11.13
  -3  -1  -6  292.17   19.38
   3   1   6  279.08   10.71
   3   1   6  282.19   10.77
   3   1   6  269.42   10.62
   4  -1   6    1.87    0.65
   4   1   6   -0.42    0.63
   4   1   6    1.20    0.67
   4  -2  -6  232.54    8.85
  -4  -2   6  230.36    9.37
  -4  -2   6  234.51    8.95
  -4   2   6  219.48    9.25
  -4   2   6  218.59    8.93
   3  -2  -6    0.18    8.54
   3  -2  -6   -0.22    6.17
   3  -2  -6    0.36    0.36
  -3  -2   6    0.24    0.44
  -3  -2   6    0.34    0.63
   3  -2  -6   -7.08   11.72
   3  -2  -6   -3.95    5.08
   3   2  -6   -1.04    5.74
   3   2  -6   12.71   11.91
   3   2  -6   -6.03    6.71
   3   2  -6    0.26    8.85
   3   2  -6    0.31    6.00
  -3   2   6    0.10    0.41
   3   2  -6    3.06    5.23
   3   2  -6    6.90   10.75
  -3   2   6    0.07    0.55
   3   2  -6    2.89    8.16
   2  -2  -6  145.95   18.56
   2  -2  -6  151.17   18.01
   2  -2  -6  143.90   13.96
   2  -2  -6  127.32    5.17
  -2  -2   6  125.57    5.18
  -2   2   6  128.86    5.18
   2   2  -6  132.58   15.23
   2   2  -6  110.95   18.12
  -2   2   6  131.39    5.35
   2   2  -6  152.94   18.15
   2   2  -6  128.55    5.07
   2   2  -6  132.48   10.84
   2   2  -6  116.51   14.32
   2   2  -6  117.27   10.34
   2   2  -6  146.48   12.37
   2   2  -6  126.31   11.77
   1  -2  -6  299.83   19.83
  -1  -2   6  286.66   11.17
   1  -2  -6  276.69   11.24
   1  -2  -6  299.43   16.07
   1  -2  -6  294.37   17.01
   1   2  -6  272.28   19.31
   1   2  -6  363.64   27.30
   1   2  -6  283.73   17.17
   1   2  -6  278.37   16.78
  -1   2   6  282.37   11.22
   1   2  -6  294.86   11.21
  -1   2   6  290.59   11.16
   1   2  -6  279.58   15.77
   1   2  -6  294.52   16.08
   0  -2  -6   15.10    6.75
   0  -2   6    7.06    0.65
   0  -2  -6   16.56    7.26
   0  -2  -6    9.76    4.87
   0  -2  -6    6.79    7.36
   0  -2  -6   21.91   12.54
   0  -2  -6    5.43    5.84
   0  -2  -6   10.93    4.64
   0  -2  -6    5.99    0.81
   0  -2  -6    7.35    4.02
   0   2  -6    8.34    6.24
   0   2  -6    5.84    0.82
   0   2  -6    4.88    3.58
   0   2  -6    6.85    4.30
   0   2   6    6.25    0.63
   0   2  -6   32.25   11.49
  -1  -2  -6   65.00   18.90
  -1  -2  -6   97.07   13.16
  -1  -2  -6  111.51   12.16
  -1  -2  -6   97.68   14.86
  -1  -2  -6  105.54    4.46
  -1  -2  -6  100.96    9.78
   1  -2   6  108.58    4.24
  -1  -2  -6   97.31   17.57
  -1  -2  -6   82.21    9.67
  -1  -2  -6  116.98    8.90
  -1   2  -6  109.07   14.39
  -1   2  -6  107.90   17.06
  -1   2  -6  124.06   10.82
  -1   2  -6  101.05   11.53
   1   2   6  109.57    4.25
  -2  -2  -6  217.44   12.67
  -2  -2  -6  227.38   13.75
  -2  -2  -6  219.53   15.93
   2  -2   6  222.41    8.77
   2  -2   6  216.61    8.75
  -2  -2  -6  224.65   13.42
  -2  -2  -6  226.51   17.12
   2  -2   6  239.64    8.75
  -2  -2  -6  213.19   14.35
  -2  -2  -6  210.84   19.52
  -2  -2  -6  243.57   18.77
  -2  -2  -6  226.79    9.09
  -2   2  -6  227.68   14.04
   2   2   6  233.07    8.75
   2   2   6  228.90    8.69
  -2   2  -6  228.95   21.42
   2   2   6  229.21    8.83
  -2   2  -6  234.03   15.28
  -2   2  -6  226.04   17.96
  -3  -2  -6    7.61    4.81
   3  -2   6    3.02    0.60
  -3  -2  -6    2.83    0.82
  -3  -2  -6   14.24    7.95
  -3  -2  -6   -7.09    5.45
  -3  -2  -6   11.60   10.47
   3  -2   6    3.86    0.79
   3   2   6    2.24    0.42
   3   2   6    3.06    0.58
   3   2   6    3.13    0.58
  -4  -2  -6  106.57    4.93
   4  -2   6  108.87    4.46
   4   2   6  103.66    4.31
   4   2   6  106.01    4.47
   4   2   6  111.03    4.44
   4  -3  -6   14.12    1.07
  -4  -3   6   13.05    1.30
  -4  -3   6   13.85    1.67
  -4   3   6   12.76    1.55
  -4   3   6   13.70    1.20
   3  -3  -6   63.83   15.82
  -3  -3   6   69.42    3.07
   3  -3  -6   88.68   10.55
   3  -3  -6   72.81    3.02
  -3  -3   6   74.20    3.44
   3  -3  -6   36.63   13.88
   3  -3  -6   83.24   12.15
  -3   3   6   89.74   19.37
  -3   3   6   73.17    3.35
  -3   3   6   54.28   11.64
   3   3  -6   61.44    9.82
   3   3  -6   72.60   11.60
   3   3  -6   64.54   15.31
  -3   3   6   72.68    3.07
   3   3  -6   90.72   20.78
  -3   3   6   78.79   11.32
   2  -3  -6   26.14    7.05
   2  -3  -6   34.39    1.66
   2  -3  -6   29.40    9.18
   2  -3  -6   37.85   11.69
   2  -3  -6   31.96    8.55
  -2  -3   6   34.80    1.69
   2   3  -6   50.75   14.18
  -2   3   6   40.20    7.52
  -2   3   6   28.31   10.50
  -2   3   6   73.67   18.36
  -2   3   6   42.47    8.77
   2   3  -6   29.10    6.67
  -2   3   6   34.75    1.84
   2   3  -6   45.00   12.35
   2   3  -6   37.17    7.18
   2   3  -6   37.24    9.21
  -2   3   6   37.11    1.69
   2   3  -6   53.12   12.33
   2   3  -6   40.63    7.54
   2   3  -6   38.61   12.04
   1  -3  -6   18.55    1.14
   1  -3  -6   34.90   10.99
   1  -3  -6   17.92    5.04
   1  -3  -6   17.49    5.90
   1  -3  -6   23.36    7.96
  -1  -3   6   18.29    1.09
   1   3  -6   19.72    9.68
   1   3  -6   14.25    4.49
   1   3  -6   29.51   10.33
  -1   3   6   18.23    1.05
   1   3  -6   14.81    6.44
   1   3  -6   36.62    9.51
  -1   3   6   17.32    1.13
   1   3  -6   20.26    1.10
   1   3  -6   11.50    5.85
   1   3  -6   40.15   10.64
   1   3  -6   39.01   10.20
   0  -3   6  102.75    4.16
   0  -3  -6   88.60   11.40
   0  -3  -6   96.68    4.29
   0  -3  -6  152.00   18.70
   0  -3  -6   97.09    9.20
   0  -3  -6  100.28    8.38
   0   3  -6  110.05    8.85
   0   3  -6  101.71   14.65
   0   3  -6  127.40   12.39
   0   3  -6  132.75   15.36
   0   3   6   98.67    4.09
  -1  -3  -6   73.34   13.61
   1  -3   6   98.19    3.77
  -1  -3  -6   83.15    3.83
  -1  -3  -6   85.92   13.59
   1  -3   6   95.78   10.45
   1  -3   6  107.54   16.01
  -1  -3  -6   83.32   10.89
  -1  -3  -6   83.27    8.05
  -1  -3  -6   98.67    8.88
  -1  -3  -6   81.00   11.20
  -1  -3  -6   81.57    7.66
   1  -3   6   81.52   15.60
  -1  -3  -6   83.88    9.06
   1  -3   6   93.83    3.66
   1  -3   6   91.32    9.11
   1   3   6   85.70    3.55
  -1   3  -6   97.15    9.84
   1   3   6   85.13    3.63
   1   3   6   93.23    3.51
  -1   3  -6   82.32    8.32
  -1   3  -6   95.22   12.15
  -1   3  -6  151.73   24.29
  -2  -3  -6   41.68    9.95
   2  -3   6   59.78   13.79
  -2  -3  -6   63.09    7.87
  -2  -3  -6   53.72    6.76
   2  -3   6   62.45    2.62
   2  -3   6   57.22   10.28
  -2  -3  -6   56.16    8.78
  -2  -3  -6   74.17   13.54
   2  -3   6   57.10    2.56
   2  -3   6   67.14    2.60
   2  -3   6   64.53    8.91
  -2  -3  -6   61.77   11.34
  -2  -3  -6   62.78    2.93
  -2  -3  -6   65.92    7.74
  -2  -3  -6   69.12   14.67
  -2   3  -6   62.23    8.50
   2   3   6   61.66    2.68
  -2   3  -6   53.84   13.42
   2   3   6   62.88    2.59
  -2   3  -6   51.08   12.57
  -2   3  -6   72.62   10.08
   2   3   6   66.26    2.54
  -3  -3  -6   35.07   14.53
  -3  -3  -6   45.32   10.21
  -3  -3  -6   34.38    8.51
   3  -3   6   48.78    2.21
  -3  -3  -6   47.77    2.57
  -3  -3  -6   50.81   14.52
   3  -3   6   45.68    2.09
   3   3   6   51.74    2.29
   3   3   6   50.07    2.18
   3   3   6   50.64    2.10
   4  -3   6   25.25    1.64
  -4  -3  -6   26.86    2.11
   4   3   6   25.65    1.68
   4   3   6   26.18    1.57
  -4  -4   6   11.38    1.30
  -4  -4   6   11.89    1.78
   4  -4  -6   11.28    1.04
  -4   4   6    8.94    1.45
  -4   4   6   10.51    1.15
   3  -4  -6   40.79   14.27
   3  -4  -6   24.85    1.37
   3  -4  -6   22.20    8.23
  -3  -4   6   25.61    1.46
   3  -4  -6   30.40    7.83
   3  -4  -6    7.32    9.72
  -3   4   6   39.61    8.90
   3   4  -6   23.41    7.26
  -3   4   6   25.46    1.70
   3   4  -6   41.85   16.93
   3   4  -6   18.62    8.23
  -3   4   6   20.90   25.89
  -3   4   6   27.15    1.43
   3   4  -6   23.74   11.42
  -3   4   6   13.62    8.25
  -3   4   6   16.64    7.18
   2  -4  -6   13.40   15.54
   2  -4  -6    1.71    0.40
  -2  -4   6    1.83    0.45
   2  -4  -6   -8.95    9.46
   2  -4  -6    3.70   11.49
   2  -4  -6    1.52    3.85
   2   4  -6   -0.90    5.66
  -2   4   6  -13.19   19.31
  -2   4   6    0.26    6.32
  -2   4   6   -4.04    4.92
   2   4  -6   21.42   12.22
   2   4  -6    3.39    4.74
   2   4  -6    6.91    8.12
   2   4  -6    1.88    5.91
   2   4  -6   -3.29   11.05
  -2   4   6   -2.75    3.97
   2   4  -6  -10.15    7.76
   2   4  -6   -1.29    4.40
  -2   4   6    0.85    0.37
  -2   4   6    0.70    0.51
   1  -4  -6    4.24    6.98
   1  -4  -6   14.97    1.05
   1  -4  -6   10.94    4.11
   1  -4  -6   10.70    4.66
   1  -4  -6   11.12    5.99
  -1  -4   6   15.14    1.00
  -1   4   6   41.03   13.73
   1   4  -6   26.74   11.04
  -1   4   6   15.04    1.03
   1   4  -6   16.47    1.01
  -1   4   6   24.83    7.11
  -1   4   6   15.01    0.94
   1   4  -6   17.32    4.83
   1   4  -6   16.26    8.96
  -1   4   6   11.63    7.25
  -1   4   6   26.57    7.21
   1   4  -6   18.88    5.73
   0  -4   6   17.07   10.30
   0  -4  -6   14.10    7.18
   0  -4   6   14.23    0.95
   0  -4  -6   13.05    1.05
   0  -4   6   14.66    6.70
   0  -4   6    0.80    8.76
   0  -4  -6   12.04    4.75
   0  -4  -6   16.85    9.43
   0  -4  -6   20.15    6.01
   0   4  -6   24.02   10.58
   0   4  -6   26.65    8.84
   0   4   6   14.42    0.87
   0   4  -6   12.53    5.86
   0   4  -6   11.24    8.65
   0   4  -6   14.51    1.03
   1  -4   6   -9.19   14.41
  -1  -4  -6   -1.36    5.76
   1  -4   6    8.33    5.01
   1  -4   6    1.94    0.44
  -1  -4  -6    1.82    6.13
   1  -4   6   -1.67    5.56
  -1  -4  -6    4.69    3.85
  -1  -4  -6   -5.79    7.53
  -1  -4  -6   -3.59    3.35
   1  -4   6    1.77    9.66
  -1  -4  -6    0.07    4.38
  -1  -4  -6    1.61    0.52
  -1  -4  -6    7.99    8.68
  -1  -4  -6    3.91    4.57
  -1   4  -6    2.08    4.29
   1   4   6    0.74    0.30
  -1   4  -6    1.62    8.53
  -1   4  -6    2.17    6.71
   1   4   6    0.92    0.33
  -1   4  -6    4.35    7.00
   1   4   6    1.73    0.27
  -2  -4  -6   19.20    8.84
   2  -4   6   19.55    8.89
   2  -4   6   21.69    1.14
   2  -4   6   33.33    8.34
  -2  -4  -6   30.13   10.46
  -2  -4  -6   19.26    7.72
  -2  -4  -6   20.68    7.03
  -2  -4  -6   27.06    6.65
   2  -4   6    5.13   10.95
   2  -4   6   24.20    1.29
   2  -4   6   26.89    1.27
  -2  -4  -6   22.59    1.52
  -2  -4  -6   23.61    5.97
  -2  -4  -6   19.19    5.50
  -2  -4  -6   21.01    5.90
   2  -4   6   12.58    6.65
  -2   4  -6   24.33   15.76
   2   4   6   24.83    1.22
  -2   4  -6   11.34    5.78
   2   4   6   24.01    1.15
   2   4   6   22.56    1.27
  -2   4  -6   24.63   10.87
  -2   4  -6   14.53    7.67
  -3  -4  -6   21.20   10.94
  -3  -4  -6   11.69    6.01
  -3  -4  -6   11.75    8.09
   3  -4   6   11.82    1.07
  -3  -4  -6   11.43    1.42
  -3  -4  -6    7.56    4.96
   3   4   6   12.20    1.05
   3   4   6   14.08    0.92
   3   4   6   13.78    1.14
  -4  -4  -6    1.93    0.99
   4  -4   6    0.06    0.72
   4   4   6    0.36    0.73
   4   4   6    1.55    0.78
   4   4   6    1.12    0.61
  -4  -5   6    1.59    0.75
   4  -5  -6    0.83    0.57
  -4  -5   6    1.46    0.99
  -4   5   6    1.31    0.80
  -4   5   6    0.89    0.60
   3  -5  -6   90.20   22.64
   3  -5  -6   71.17   18.71
  -3  -5   6   49.64    2.40
   3  -5  -6   51.59    2.36
   3  -5  -6   86.55   15.93
   3  -5  -6   48.31   10.09
  -3   5   6   50.98    2.65
  -3   5   6   70.07   15.32
   3   5  -6   86.96   22.26
  -3   5   6   41.67    9.57
   3   5  -6   84.25   13.05
  -3   5   6   59.52   15.55
  -3   5   6   51.97    2.38
   3   5  -6   73.90   24.39
   3   5  -6   81.07   20.10
  -2  -5   6   91.83    3.93
   2  -5  -6   76.59   18.79
   2  -5  -6   92.33   11.65
   2  -5  -6   91.56   10.10
   2  -5  -6   92.54    3.95
   2  -5  -6   91.74   15.18
  -2   5   6  142.38   24.48
   2   5  -6  102.76   14.59
   2   5  -6  123.59   17.65
   2   5  -6   97.58   10.07
  -2   5   6   98.18   11.41
  -2   5   6  129.70   12.78
  -2   5   6   94.88    3.93
   2   5  -6   95.95   18.43
  -2   5   6   93.68    4.05
   2   5  -6   88.40   11.44
   2   5  -6  104.93   10.80
   2   5  -6   95.03    9.42
  -2   5   6  113.55   14.89
   2   5  -6   88.74   13.10
   1  -5  -6   65.33    9.78
   1  -5  -6   83.20   12.10
   1  -5  -6   71.73   16.20
  -1  -5   6   60.10    2.70
   1  -5  -6   60.98    2.77
   1  -5  -6   56.24   12.18
  -1   5   6   77.33   17.08
  -1   5   6   57.77    2.69
   1   5  -6   57.64   11.27
   1   5  -6   62.78    2.68
  -1   5   6   66.73    7.80
  -1   5   6   73.10    9.17
   1   5  -6   90.44   10.17
   1   5  -6   73.53   11.36
  -1   5   6   63.98    2.66
  -1   5   6   59.32   11.11
   0  -5  -6  111.93    4.82
   0  -5   6  129.03   12.21
   0  -5   6  129.88   24.08
   0  -5  -6   97.88   12.21
   0  -5  -6  103.88    8.98
   0  -5   6  121.17    4.71
   0  -5  -6  110.44    9.97
   0  -5   6  126.01   14.98
   0  -5  -6  152.66   19.91
   0  -5   6  115.55   10.48
   0   5  -6  148.08   17.52
   0   5  -6  115.86   16.70
   0   5   6  112.09    4.68
   0   5  -6  158.03   14.24
   0   5   6  115.30    4.61
   0   5  -6  105.57    9.51
  -1  -5  -6   16.69    4.83
   1  -5   6   10.32   11.70
  -1  -5  -6    7.41    7.88
   1  -5   6   25.44    6.86
  -1  -5  -6   13.27    5.15
  -1  -5  -6   12.25    1.09
   1  -5   6   22.43   10.10
   1  -5   6   11.39    0.94
  -1  -5  -6   13.18    6.85
   1  -5   6   15.62   11.78
  -1   5  -6   31.35   15.69
  -1   5  -6   19.52    8.50
   1   5   6   12.44    0.84
  -1   5  -6   14.56    6.09
  -1   5  -6   18.11    7.65
   1   5   6   12.29    0.80
  -2  -5  -6   13.16    8.61
   2  -5   6   39.14   12.72
  -2  -5  -6   36.41   12.04
  -2  -5  -6   29.51    7.31
   2  -5   6   30.76    1.61
   2  -5   6   45.87   15.08
   2  -5   6   42.76    9.29
   2  -5   6   31.49    1.45
  -2  -5  -6   18.84    6.48
  -2  -5  -6   27.04    9.05
  -2  -5  -6   36.84    6.33
  -2  -5  -6   31.54    7.26
  -2  -5  -6   32.83    1.85
   2  -5   6   34.60    1.57
   2  -5   6   41.29    9.41
  -2  -5  -6   23.39    7.36
  -2   5  -6   38.67   14.57
   2   5   6   34.63    1.49
  -2   5  -6   36.26    8.52
   2   5   6   32.93    1.64
  -2   5  -6   48.24   11.30
   2   5   6   32.22    1.54
  -2   5  -6   31.33    6.99
  -3  -5  -6   11.02    7.88
  -3  -5  -6   11.56    1.39
  -3  -5  -6   16.63    5.05
  -3  -5  -6   17.44    5.89
  -3  -5  -6   10.52   10.94
   3  -5   6   14.20    1.12
   3   5   6   11.18    0.92
   3   5   6   12.29    1.11
   3   5   6   13.05    1.06
   4  -6  -6   92.08    4.02
   4  -6  -6   98.52    4.03
  -4  -6   6   98.18    4.10
  -4   6   6   95.03    4.04
  -4   6   6   90.03    4.36
   3  -6  -6   22.99   13.83
   3  -6  -6    0.24    8.44
   3  -6  -6   -5.22   17.34
   3  -6  -6    1.91    0.51
   3  -6  -6    8.38   11.25
  -3  -6   6    1.91    0.61
  -3   6   6    2.12    0.70
  -3   6   6   -0.77    7.98
  -3   6   6    4.27   27.03
  -3   6   6    0.01   10.47
  -3   6   6   -2.40    6.34
  -3   6   6    1.96    0.54
   2  -6  -6   80.59    3.46
   2  -6  -6   58.51    9.73
  -2  -6   6   81.63    3.47
   2  -6  -6  117.52   19.80
   2  -6  -6  146.46   25.68
   2  -6  -6   95.70   14.18
   2   6  -6   89.20   17.50
  -2   6   6   85.83    3.43
   2   6  -6   84.33   11.27
  -2   6   6  115.39   22.08
   2   6  -6  102.86   18.27
  -2   6   6   87.99   10.18
  -2   6   6   77.73   18.74
  -2   6   6   79.38    3.53
   2   6  -6   73.59    9.38
   2   6  -6   61.18   13.99
  -2   6   6   77.78   11.59
   1  -6  -6  254.05   20.03
   1  -6  -6  253.16   10.22
   1  -6  -6  246.32   16.71
   1  -6  -6  263.40   15.68
  -1  -6   6  262.97   10.16
  -1   6   6  260.46   19.27
   1   6  -6  264.56   16.90
  -1   6   6  277.91   16.87
  -1   6   6  272.39   15.40
   1   6  -6  280.92   10.12
  -1   6   6  242.91   10.15
   1   6  -6  262.70   22.72
  -1   6   6  259.96   10.10
   1   6  -6  249.52   19.57
   0  -6   6   13.64    7.32
   0  -6   6    6.30    7.84
   0  -6   6   -3.09    7.86
   0  -6  -6   18.52    7.97
   0  -6  -6    4.04    4.33
   0  -6  -6   15.83    9.83
   0  -6   6    6.17    0.82
   0  -6  -6    6.92    0.86
   0  -6   6   14.15   11.48
   0  -6  -6    6.29    5.02
   0   6   6    7.18    4.28
   0   6   6    4.32    3.14
   0   6  -6    8.33    4.19
   0   6   6   -1.02    8.31
   0   6   6    6.51    0.66
   0   6   6    6.49    0.62
   0   6   6    6.52    5.92
   0   6  -6    3.84    5.29
   0   6  -6    1.98    7.59
   0   6  -6   26.94   13.96
   1  -6   6  159.79   18.05
   1  -6   6  134.55   13.83
  -1  -6  -6  135.25   16.48
  -1  -6  -6  129.45    9.87
   1  -6   6  123.43    5.17
  -1  -6  -6  139.86   13.99
   1  -6   6  126.83   21.48
  -1  -6  -6  124.43    5.34
  -1  -6  -6  129.02   10.96
   1  -6   6  149.16   12.16
   1   6   6  126.23    5.03
  -1   6  -6  124.93   18.17
  -1   6  -6  121.85   10.68
  -1   6  -6  115.76   14.59
   1   6   6  124.61    5.16
  -1   6  -6  135.58   13.97
  -2  -6  -6  108.94   19.20
  -2  -6  -6   96.57   11.64
  -2  -6  -6   96.75   15.03
   2  -6   6   98.43    4.17
   2  -6   6   96.77   12.11
  -2  -6  -6   95.50   15.40
   2  -6   6  107.26    4.08
  -2  -6  -6  112.77    8.72
   2  -6   6   84.79   18.11
  -2  -6  -6  102.58   10.87
  -2  -6  -6  110.03   12.60
  -2  -6  -6   99.81    9.71
   2  -6   6   90.40    3.99
   2  -6   6   91.23   13.76
  -2  -6  -6  102.16    4.42
   2  -6   6  125.81   23.49
  -2   6  -6  131.27   16.53
   2   6   6  100.98    4.21
   2   6   6  104.28    4.08
   2   6   6  101.82    4.07
  -2   6  -6  136.42   21.67
  -2   6  -6  139.23   17.12
  -2   6  -6   85.83   10.53
  -3  -6  -6   -2.42    5.62
   3  -6   6   -0.23    0.62
  -3  -6  -6   -3.71   10.26
  -3  -6  -6    1.94    4.56
  -3  -6  -6   13.00    7.80
  -3  -6  -6   -0.28    0.67
   3  -6   6    1.60    0.59
  -3   6  -6    0.39    0.35
   3   6   6    1.08    0.48
   3   6   6    0.30    0.56
   3   6   6    1.06    0.55
  -4  -7   6   19.50    1.70
   4  -7  -6   21.33    1.58
   4  -7  -6   19.58    1.40
  -4   7   6   18.81    1.80
  -4   7   6   19.42    1.52
   3  -7  -6  143.10   16.69
   3  -7  -6  119.62   14.30
   3  -7  -6  152.54    5.98
   3  -7  -6  141.97   28.08
  -3  -7   6  153.60    5.99
   3  -7  -6  133.81   21.65
  -3   7   6  136.44   14.10
  -3   7   6  149.06    6.17
  -3   7   6  171.51   31.18
  -3   7   6  130.75   16.21
  -3   7   6  110.33   25.42
  -3   7   6  158.13    5.97
  -2  -7   6   11.08    1.08
   2  -7  -6   24.05   15.63
   2  -7  -6   12.48    0.99
   2  -7  -6   11.71    7.69
   2  -7  -6   26.95   11.88
   2  -7  -6   18.53    9.67
  -2   7   6   12.88    0.97
   2   7  -6   17.71   13.78
  -2   7   6   24.43   16.41
   2   7  -6   10.16    4.95
  -2   7   6   11.71    1.10
  -2   7   6   14.27    7.41
  -2   7   6    5.05    9.74
   2   7  -6   20.00    9.79
  -2   7   6   14.73    6.02
   2   7  -6   10.42    6.46
   1  -7  -6   26.95   16.18
   1  -7  -6   12.71    0.97
  -1  -7   6    9.09    6.76
  -1  -7   6    2.45    9.59
  -1  -7   6    3.15    5.03
  -1  -7   6   10.22    0.94
   1  -7  -6   16.56    8.40
  -1  -7   6    6.42   12.90
   1  -7  -6   18.59   11.32
   1  -7  -6   20.33    6.55
  -1   7   6   15.96    8.67
  -1   7   6    4.05    4.60
   1   7  -6   15.64   10.61
   1   7  -6   19.48    8.95
   1   7  -6   21.06    9.17
  -1   7   6   11.53    0.87
  -1   7   6   14.57   14.04
  -1   7   6    9.22    6.10
   1   7  -6   22.39    6.65
  -1   7   6   11.54    0.98
  -1   7   6   11.25    0.80
   0  -7   6  125.74   12.32
   0  -7   6  153.70    5.94
   0  -7  -6  151.23   11.25
   0  -7  -6  148.89    6.05
   0  -7  -6  136.95   18.19
   0  -7   6  157.15   21.81
   0  -7  -6  135.44   15.13
   0  -7  -6  144.95   12.31
   0  -7   6  195.48   22.47
   0   7   6  151.25    5.77
   0   7   6  147.38   12.06
   0   7   6  149.20    5.79
   0   7   6  147.43    5.90
   0   7   6  139.27   17.48
   0   7  -6  136.30   11.35
   0   7   6  142.29   14.69
   0   7  -6  136.38   19.84
   0   7   6  153.93   10.97
   1  -7   6   60.99    2.69
  -1  -7  -6   57.58    7.82
  -1  -7  -6   60.98    9.22
  -1  -7  -6   58.37    2.81
  -1  -7  -6   59.68   15.00
   1  -7   6   51.01    9.98
   1  -7   6   85.21   26.48
   1  -7   6   65.29   12.13
  -1  -7  -6   70.88   12.18
   1  -7   6   34.27   10.54
   1   7   6   60.77    2.65
  -1   7  -6   68.90   13.33
  -1   7  -6  108.57   23.28
   1   7   6   62.71    2.52
  -1   7  -6   81.33   12.66
   2  -7   6   25.25   17.23
  -2  -7  -6   60.90   13.41
   2  -7   6   49.42   13.46
  -2  -7  -6   45.63   11.31
   2  -7   6   55.08   11.23
   2  -7   6   41.91   13.99
  -2  -7  -6   48.40    2.54
  -2  -7  -6   61.50    7.64
   2  -7   6   47.12    2.31
  -2  -7  -6   43.72    8.62
   2  -7   6   52.52    2.24
  -2   7  -6   50.56    9.71
   2   7   6   48.79    2.32
  -2   7  -6   47.51   16.84
  -2   7  -6   56.96   16.41
   2   7   6   51.93    2.17
  -2   7  -6   56.49   15.95
   3  -7   6  226.84    8.59
   3  -7   6  209.42    8.61
  -3  -7  -6  212.49    8.93
   3   7   6  216.13    8.58
   3   7   6  221.08    8.57
  -3   7  -6  222.77    8.56
   3   7   6  225.54    8.74
   3  -8  -6    5.81   40.52
   3  -8  -6    9.91    9.27
   3  -8  -6    6.39    6.99
   3  -8  -6   11.77    6.23
  -3   8   6    4.07    6.95
  -3   8   6   11.45   17.57
  -3   8   6    0.82   23.77
  -3   8   6   19.22    8.79
   2  -8  -6  155.13   24.71
   2  -8  -6  173.14   18.14
   2  -8  -6  150.35    6.23
   2  -8  -6  160.77   19.63
   2  -8  -6  158.76   15.92
  -2  -8   6  152.70    6.21
  -2   8   6  160.06    6.29
  -2   8   6  141.65   18.75
  -2   8   6  163.11    6.18
  -2   8   6  138.32   14.96
  -2   8   6  156.21    6.18
  -2   8   6  143.84   22.77
  -2   8   6  137.16   13.34
   2   8  -6  152.19    5.96
  -1  -8   6   63.37   13.07
   1  -8  -6   69.97   11.24
  -1  -8   6   62.93    2.87
  -1  -8   6   37.69   11.67
  -1  -8   6   93.82   22.80
   1  -8  -6   64.38   15.09
   1  -8  -6   62.97   15.83
   1  -8  -6   83.43   12.51
  -1  -8   6   60.62   11.05
   1  -8  -6   63.33    2.91
  -1   8   6   67.11    2.81
  -1   8   6   58.01    8.88
  -1   8   6   96.08   21.98
   1   8  -6   56.06    8.88
   1   8  -6   83.81   14.35
  -1   8   6   58.20   13.04
  -1   8   6   65.72   13.57
  -1   8   6   68.64    2.83
   1   8  -6   96.82   19.24
   1   8  -6   52.24   10.40
  -1   8   6   65.92    2.78
   0  -8  -6    6.22    5.67
   0  -8   6   -4.08    9.90
   0  -8   6  -11.89   17.31
   0  -8   6    6.35    7.38
   0  -8  -6    6.13    4.79
   0  -8   6    2.91    5.84
   0  -8  -6   -3.22    7.24
   0  -8  -6  -10.07    9.45
   0   8   6    3.51   11.07
   0   8  -6    7.06    7.31
   0   8  -6   -1.46    5.55
   0   8   6   -6.47    7.26
   0   8  -6   16.56   21.11
   0   8   6   -0.04    4.01
   0   8   6    1.37    5.20
   0   8  -6    0.78    4.66
  -1  -8  -6  147.16   19.33
   1  -8   6  254.70   38.34
  -1  -8  -6  173.21   13.23
   1  -8   6  168.75    6.82
  -1  -8  -6  171.29    6.97
   1  -8   6  161.85   21.08
  -1  -8  -6  179.22   12.13
   1  -8   6  156.75   16.47
  -1  -8  -6  178.58   16.50
   1  -8   6  175.25   14.71
   1   8   6  175.69    6.69
  -1   8  -6  161.99   13.05
  -1   8  -6  170.15   22.75
   1   8   6  170.05    6.83
  -1   8  -6  163.85   14.66
   2  -8   6   27.06   14.19
  -2  -8  -6   47.90    2.51
   2  -8   6   45.77    2.31
   2  -8   6   74.46   14.94
   2  -8   6   52.53    2.22
   2  -8   6   47.80   12.02
   2  -8   6   47.65   18.68
   2   8   6   50.34    2.14
  -2   8  -6   44.31   12.10
   2   8   6   44.13    2.25
  -2   8  -6   56.94   14.90
  -2   8  -6   66.03   18.71
  -2   8  -6   57.05   12.55
  -3  -8  -6    0.21    0.81
   3  -8   6    1.91    0.75
   3  -8   6    2.26    0.73
   3   8   6    1.50    0.64
  -3   8  -6    1.53    0.47
   3   8   6    1.74    0.51
   3  -9  -6  123.37   31.39
   3  -9  -6  133.35   23.21
   3  -9  -6   91.93    4.08
  -3  -9   6   97.02    4.17
   3  -9  -6  105.31   15.27
   3  -9  -6  192.29   43.54
  -3   9   6   93.18   14.85
  -3   9   6  124.86   17.85
  -3   9   6   96.64    4.09
  -3   9   6   94.67    4.27
  -3   9   6  104.04   43.40
   3   9  -6   89.34    3.84
  -3   9   6   98.10    4.03
   2  -9  -6   91.15   26.16
   2  -9  -6   83.17    3.64
   2  -9  -6   94.62   17.39
  -2  -9   6   77.94    3.62
   2  -9  -6   85.80   14.78
   2  -9  -6  133.62   23.96
   2   9  -6   82.43    3.35
  -2   9   6  139.06   29.02
  -2   9   6  105.18   14.57
  -2   9   6   85.02    3.55
  -2   9   6   74.53   12.00
  -2   9   6   80.77   18.40
  -2   9   6   88.13    3.59
  -2   9   6   82.86    3.68
  -1  -9   6   28.76   13.50
   1  -9  -6   14.00    5.89
   1  -9  -6   31.61    1.69
  -1  -9   6   23.83    8.32
   1  -9  -6   19.00    9.26
   1  -9  -6   27.92   12.65
  -1  -9   6   17.89   16.76
  -1  -9   6   19.27    9.41
  -1  -9   6   28.96    1.66
  -1   9   6   48.32   16.39
  -1   9   6   44.43   10.53
   1   9  -6   15.09    9.33
  -1   9   6   31.92    1.54
  -1   9   6   31.31    1.55
  -1   9   6   31.16    1.59
   1   9  -6   42.18    9.30
   1   9  -6   16.12    6.60
  -1   9   6   41.55    8.13
   1   9  -6   26.74   13.94
  -1   9   6   46.06   14.43
   0  -9  -6  217.31   14.76
   0  -9  -6  195.79   23.52
   0  -9   6  222.17   16.85
   0  -9  -6  210.70   19.48
   0  -9   6  263.58   36.38
   0  -9   6  260.12   22.99
   0  -9  -6  214.58   16.01
   0  -9   6  271.42   29.32
   0  -9  -6  229.30    8.97
   0  -9   6  221.66    8.85
   0   9   6  229.01    8.69
   0   9   6  221.76   22.42
   0   9   6  225.51   15.63
   0   9   6  240.59   17.83
   0   9  -6  209.92   16.70
   0   9  -6  199.05   20.13
   0   9   6  228.38   26.45
   0   9   6  221.89    8.82
   1  -9   6   10.70   17.02
   1  -9   6   27.15    1.59
   1  -9   6   33.11   14.35
   1  -9   6   26.17    9.42
  -1  -9  -6   27.10    1.68
   1  -9   6   23.02   12.97
  -1   9  -6   24.65    8.09
  -1   9  -6   19.16   10.29
  -1   9  -6   14.03   13.01
   1   9   6   26.13    1.31
   1   9   6   26.88    1.49
  -1   9  -6   33.18    9.85
   2  -9   6   37.88   18.94
  -2  -9  -6   57.34    2.84
   2  -9   6   56.48    2.70
   2  -9   6   32.95   10.76
   2  -9   6   51.26   27.14
   2  -9   6   58.36    2.56
   2   9   6   58.69    2.50
  -2   9  -6   39.02   18.63
  -2   9  -6  113.81   24.42
  -2   9  -6   39.19   12.14
   2   9   6   59.92    2.67
  -3  -9  -6  108.00    4.76
   3  -9   6   98.45    4.39
   3  -9   6  103.34    4.50
   3   9   6  105.88    4.37
   3   9   6  108.54    4.56
  -3   9  -6  109.23    4.38
   3 -10  -6    2.15    0.63
  -3 -10   6    1.09    0.86
   3  10  -6    2.61    0.47
  -3  10   6    3.41    0.63
  -3  10   6    1.79    0.66
  -3  10   6    2.36    0.73
  -2 -10   6   61.82    3.04
   2 -10  -6   64.13    3.02
  -2  10   6   64.20    3.03
  -2  10   6   67.67    2.95
  -2  10   6   70.36    2.94
   2  10  -6   68.98    2.71
  -1 -10   6  244.50   10.06
   1 -10  -6  253.41   10.15
  -1  10   6  258.72    9.96
  -1  10   6  259.05   10.05
  -1  10   6  263.94   10.03
   0 -10   6   29.94   14.65
   0 -10   6   17.26    1.30
   0 -10   6   33.49   12.57
   0 -10   6   20.88   19.15
   0 -10  -6   16.82    1.25
   0 -10   6   41.92   19.41
   0  10  -6   55.81   29.41
   0  10  -6    6.69    7.56
   0  10   6   16.41    1.12
   0  10  -6    8.55    9.86
   0  10  -6   23.19    7.48
   0  10   6   16.57    1.07
   0  10   6   14.35    1.08
   1 -10   6   64.91   15.39
   1 -10   6  107.35   25.49
   1 -10   6   84.02   16.88
   1 -10   6   89.39   19.59
   1 -10   6   76.50    3.42
  -1 -10  -6   75.92    3.50
  -1  10  -6   76.91   19.80
  -1  10  -6   72.06   18.12
  -1  10  -6  117.48   21.49
   1  10   6   74.34    3.35
  -1  10  -6  108.25   18.07
   1  10   6   76.04    3.21
   2 -10   6  105.71    4.32
  -2 -10  -6  102.69    4.60
   2 -10   6   87.40   29.92
   2 -10   6  121.92   33.64
   2 -10   6  102.00    4.47
   2 -10   6  108.18   21.38
   2 -10   6  135.11   25.81
   2  10   6  105.55    4.30
  -2  10  -6  120.01   30.65
  -2  10  -6   83.34   23.97
   2  10   6  106.33    4.47
  -2  10  -6  105.64   14.15
  -2  10  -6  110.20   17.43
   2 -11  -6    1.48    0.59
  -2 -11   6    1.54    0.70
   2  11  -6   -0.14    0.39
  -2  11   6    0.22    0.59
  -2  11   6    0.07    0.43
  -2  11   6   -0.43    0.54
   1 -11  -6   -0.25    0.52
  -1 -11   6   -0.35    0.61
  -1  11   6    0.76    0.47
  -1  11   6   -0.18    0.46
  -1  11   6    0.69    0.54
   0 -11   6   21.99    1.61
   0 -11  -6   22.39    1.54
   0  11   6   22.08    1.32
   0  11   6   22.66    1.38
   0  11   6   22.76    1.28
   1 -11   6  158.58   24.43
   1 -11   6   91.24   42.48
   1 -11   6  217.53   38.30
  -1 -11  -6  120.67    5.28
   1 -11   6   62.02   22.52
   1 -11   6  125.88    5.23
  -1  11  -6   92.80   19.25
   1  11   6  124.47    5.16
  -1  11  -6  171.66   37.49
   1  11   6  128.24    5.02
  -2 -11  -6   41.72    2.35
   2 -11   6   40.47    2.26
   2 -11   6   39.77    2.15
   2  11   6   41.88    2.17
   2  11   6   41.35    1.97
  -2 -12   6    3.28    0.84
   2 -12  -6    5.10    0.83
  -2  12   6    3.73    0.70
   2  12  -6    4.31    0.54
  -2  12   6    3.83    0.79
  -2  12   6    4.26    0.71
   1 -12  -6    3.27    0.66
  -1 -12   6    2.17    0.76
  -1  12   6    2.15    0.62
  -1  12   6    4.53    0.90
  -1  12   6    2.06    0.64
   0 -12  -6    3.68    0.75
   0 -12   6    1.90    0.78
   0  12   6    2.23    0.61
   0  12   6    2.70    0.55
   0  12   6    2.35    0.59
   1 -12   6    0.69    0.73
  -1 -12  -6    1.38    0.68
   1  12   6    1.00    0.43
   1  12   6    0.60    0.58
  -1 -13   6   21.60    1.81
   1 -13  -6   21.28    1.59
  -1  13   6   22.38    1.50
  -1  13   6   24.39    1.53
  -1  13   6   24.60    1.67
   0 -13   6   21.17    1.69
   0 -13  -6   21.22    1.65
   0  13   6   24.67    1.45
   0  13   6   22.98    1.52
   4   0  -7   -0.88    0.52
  -4   0   7    0.61    0.83
  -4   0   7    0.12    0.57
   3   0  -7    8.31    9.54
   3   0  -7    0.79    7.51
   3   0  -7    0.86    0.53
  -3   0   7    0.13    0.44
   3   0  -7  -16.23   21.66
   3   0  -7   16.52   13.44
  -3   0   7   -0.16    0.64
   2   0  -7    3.50   14.37
   2   0  -7    8.58    9.67
  -2   0   7    0.10    0.40
   2   0  -7   -5.11    7.42
   2   0  -7   -0.18    0.42
   2   0  -7   14.28   26.76
   2   0  -7    2.81    7.36
   2   0  -7    0.05    4.95
   2   0  -7    5.15    5.68
  -2   0   7   -0.67    0.53
   2   0  -7    0.99    5.98
   1   0  -7    2.07    4.90
   1   0  -7    2.06   10.32
   1   0  -7    8.42   10.01
   1   0  -7   -4.20    8.22
   1   0  -7   -1.87    9.68
  -1   0   7   -0.66    0.38
   1   0  -7   11.90   10.14
   1   0  -7    8.73    7.49
   1   0  -7    0.82    0.48
  -1   0   7    0.24    0.56
   1   0  -7    7.43    7.40
   0   0  -7   -1.12    7.45
   0   0  -7    0.04   10.22
   0   0  -7   -3.32    9.79
   0   0   7    0.87    0.41
   0   0  -7    1.91    3.99
   0   0  -7    7.84    7.15
   0   0  -7    3.05    4.99
   0   0  -7    0.00    0.49
   0   0   7    0.32    0.38
   0   0  -7   -6.18    8.62
   0   0  -7    2.41    6.62
  -1   0  -7   -4.25    4.44
  -1   0  -7   -5.59    7.91
   1   0   7   -0.13    0.35
  -1   0  -7    6.33    6.20
  -1   0  -7   -3.79    3.33
  -1   0  -7    0.62    0.52
  -1   0  -7    4.88    8.94
  -1   0  -7   -8.48    6.40
  -1   0  -7   -2.00   10.88
  -1   0  -7   -3.69    4.43
   2   0   7    1.04    0.46
  -2   0  -7   -2.09    5.17
  -2   0  -7  -10.08   11.15
  -2   0  -7   -0.40    4.89
   2   0   7    0.41    0.39
  -2   0  -7    3.21    9.14
  -2   0  -7    6.95   13.01
  -2   0  -7    0.53    0.57
  -2   0  -7    9.35    6.54
  -2   0  -7    7.65    8.75
  -2   0  -7    5.08    6.72
   3   0   7    0.24    0.57
   3   0   7    0.49    0.58
  -3   0  -7    1.24    0.75
  -4  -1   7   37.35    2.33
  -4  -1   7   33.21    1.96
  -4   1   7   33.12    2.31
  -4   1   7   33.88    1.91
   3  -1  -7   -0.22    0.40
  -3  -1   7    0.01    0.69
   3  -1  -7    7.99   18.03
  -3  -1   7    0.01    0.49
   3  -1  -7    4.18    8.83
   3  -1  -7   -1.19   12.11
   3  -1  -7   -1.39    6.90
  -3   1   7    0.29    0.46
   3   1  -7    7.67   16.10
   3   1  -7    0.88    0.41
  -3   1   7   -0.33    0.67
   3   1  -7   -5.78   11.59
   3   1  -7   -1.88    6.98
   3   1  -7   11.44    8.91
   2  -1  -7   28.41    1.47
   2  -1  -7   36.11    9.20
   2  -1  -7   18.73   11.44
   2  -1  -7   41.63   14.46
   2  -1  -7   56.29   19.68
   2  -1  -7   42.28   14.14
  -2  -1   7   27.52    1.50
   2  -1  -7   20.44   13.69
  -2  -1   7   28.71    1.77
   2  -1  -7   39.67    9.58
   2  -1  -7   23.45    7.45
   2   1  -7   48.38   27.65
   2   1  -7   20.87    5.91
   2   1  -7   33.05   17.19
   2   1  -7   19.71    6.30
  -2   1   7   28.74    1.71
   2   1  -7   28.53    1.41
   2   1  -7   19.83    9.26
   2   1  -7   38.78   15.05
   2   1  -7   17.05    6.88
  -2   1   7   30.24    1.51
   2   1  -7   14.12    6.88
   1  -1  -7  146.01    5.94
   1  -1  -7  178.66   15.69
   1  -1  -7  161.69   12.01
   1  -1  -7  169.01   19.42
   1  -1  -7  143.97   13.07
   1  -1  -7  194.80   21.48
   1  -1  -7  144.65   11.61
  -1  -1   7  135.53    5.99
  -1  -1   7  150.53    5.87
   1  -1  -7  170.60   20.34
   1  -1  -7  183.08   24.38
   1   1  -7  138.95   19.65
   1   1  -7  143.10   19.99
   1   1  -7  136.20   13.06
   1   1  -7  157.28   13.16
   1   1  -7  125.84   11.41
   1   1  -7  138.27   16.38
  -1   1   7  146.10    5.85
   1   1  -7  155.79   16.32
  -1   1   7  140.53    5.92
   1   1  -7  144.31    5.94
   0  -1  -7    5.27    5.41
   0  -1  -7   -5.43    5.35
   0  -1   7    1.27    0.42
   0  -1  -7    0.29    4.31
   0  -1  -7   -4.17    7.15
   0  -1  -7    1.42    0.53
   0  -1  -7   13.97   10.29
   0  -1  -7   10.24   14.12
   0  -1  -7    3.05    9.14
   0  -1  -7    2.75    4.60
   0   1   7    1.29    0.37
   0   1  -7    1.52    5.48
   0   1  -7   -7.23    8.95
   0   1  -7   -1.60    4.03
   0   1  -7   11.30    6.73
   0   1  -7   -2.70    7.08
   0   1  -7   -0.79    5.84
   0   1  -7    1.40    9.94
   0   1  -7    1.00    0.49
   0   1  -7   -4.06    4.80
  -1  -1  -7  110.67    4.89
  -1  -1  -7  128.44   13.97
  -1  -1  -7  128.60   12.49
  -1  -1  -7  135.58   21.90
   1  -1   7  117.43    4.64
  -1  -1  -7  106.60   16.89
  -1  -1  -7  131.83   17.82
  -1  -1  -7  108.47   13.85
  -1  -1  -7  114.81   11.02
  -1  -1  -7  108.03    9.71
  -1   1  -7  124.61   10.53
  -1   1  -7  113.22    4.88
   1   1   7  116.06    4.61
   1   1   7  114.68    4.66
  -1   1  -7  117.03   10.09
  -1   1  -7  112.22   11.64
  -1   1  -7  120.88   14.73
  -1   1  -7  113.18   11.13
  -1   1  -7  118.23   14.09
  -1   1  -7   92.35   21.41
  -1   1  -7  141.83   21.82
   2  -1   7    8.42    0.85
  -2  -1  -7    8.50   11.11
  -2  -1  -7   11.09    6.26
   2  -1   7    9.05    0.78
  -2  -1  -7    8.80    1.11
  -2  -1  -7    5.00    5.14
  -2  -1  -7    7.52    8.49
   2  -1   7    9.25    0.84
  -2  -1  -7   11.30    8.59
  -2  -1  -7   10.03    5.00
  -2  -1  -7   23.62   12.55
  -2  -1  -7   -1.08    6.31
  -2   1  -7    8.79    1.17
  -2   1  -7    4.56    5.59
   2   1   7    8.94    0.83
   2   1   7    7.75    0.81
  -2   1  -7   14.06    7.57
  -2   1  -7   11.86   14.09
  -2   1  -7    3.94    9.63
  -3  -1  -7    4.38    0.94
   3  -1   7    3.40    0.63
   3  -1   7    2.79    0.67
   3   1   7    2.86    0.63
   3   1   7    4.02    0.72
  -4  -2   7   47.58    2.49
   4  -2  -7   52.84    2.33
  -4  -2   7   47.01    2.87
  -4   2   7   52.15    2.48
  -4   2   7   51.30    2.85
   3  -2  -7  103.38   27.61
  -3  -2   7   97.79    4.40
   3  -2  -7   90.69   15.18
   3  -2  -7  100.43    3.99
   3  -2  -7  113.64   21.12
   3  -2  -7   85.01   12.62
  -3  -2   7   99.87    4.08
   3   2  -7   67.74   14.38
   3   2  -7   77.34   12.78
  -3   2   7  100.36    4.34
   3   2  -7   97.12   20.00
  -3   2   7   97.97    4.06
   2  -2  -7   58.96   14.89
   2  -2  -7   56.92   11.53
   2  -2  -7   80.80   15.80
   2  -2  -7   59.80    2.67
  -2  -2   7   61.89    2.69
   2  -2  -7   66.84   15.63
  -2  -2   7   60.62    2.92
   2   2  -7   62.32   10.97
  -2   2   7   64.07    2.88
   2   2  -7   61.25    2.58
   2   2  -7   55.62   11.35
   2   2  -7   57.70    9.33
   2   2  -7   83.76   15.09
   2   2  -7   58.79   14.07
   2   2  -7   57.64    9.87
  -2   2   7   61.21    2.68
   2   2  -7   32.26   13.18
   2   2  -7   85.82   23.32
  -1  -2   7   93.02    3.90
   1  -2  -7  113.07   14.99
   1  -2  -7  101.33   19.50
   1  -2  -7  131.98   15.34
   1  -2  -7   80.50   17.98
   1  -2  -7   87.57    3.97
   1  -2  -7  116.06   13.14
   1  -2  -7  103.32   10.25
   1  -2  -7  123.07   15.83
  -1   2   7   96.89    3.88
   1   2  -7   61.56   12.00
   1   2  -7   96.05    3.98
   1   2  -7   96.34   11.21
  -1   2   7   87.68    3.93
   1   2  -7   89.22   18.07
   1   2  -7   90.81   14.04
   1   2  -7  124.76   12.87
   1   2  -7   63.69   19.50
   0  -2  -7  133.50   14.96
   0  -2  -7  134.13   18.30
   0  -2  -7  139.15   19.30
   0  -2  -7  158.41   11.49
   0  -2  -7  137.92   12.41
   0  -2  -7  144.02   15.50
   0  -2  -7  167.50   12.98
   0  -2  -7  147.93   12.50
   0  -2  -7  149.00    6.16
   0  -2   7  147.16    5.99
   0   2  -7  152.91   11.61
   0   2  -7  165.97   20.53
   0   2  -7  127.65   18.80
   0   2  -7  149.50   12.83
   0   2  -7  153.06    6.13
   0   2   7  155.94    5.95
   0   2  -7  149.30   15.84
   0   2  -7  144.90   11.66
   0   2  -7  209.76   20.64
  -1  -2  -7   73.14   17.00
  -1  -2  -7   44.25    8.06
  -1  -2  -7   65.62   12.60
  -1  -2  -7   59.66    8.12
  -1  -2  -7   53.25    9.42
  -1  -2  -7   57.22    9.62
  -1  -2  -7   58.49   14.16
  -1  -2  -7   57.26   12.62
  -1  -2  -7   55.54    2.71
   1  -2   7   59.05    2.50
  -1   2  -7   46.14    9.46
   1   2   7   57.94    2.48
  -1   2  -7   56.53    2.71
  -1   2  -7   54.86    8.18
  -1   2  -7   48.05   12.63
   1   2   7   60.22    2.42
  -1   2  -7   52.79   13.53
   2  -2   7  128.43    5.04
  -2  -2  -7  130.79   12.31
  -2  -2  -7  102.59   18.31
  -2  -2  -7  128.42   10.77
  -2  -2  -7  146.91   23.81
  -2  -2  -7  117.00   12.66
  -2  -2  -7  128.97    5.41
  -2  -2  -7  117.10   19.09
  -2  -2  -7  143.03   15.34
  -2  -2  -7  112.55   14.44
   2  -2   7  122.82    5.05
   2   2   7  129.58    5.12
   2   2   7  130.01    5.01
  -2   2  -7  119.60   17.53
  -2   2  -7  129.18   13.86
  -2   2  -7   99.50   21.95
  -2   2  -7  124.03   12.09
   3  -2   7   88.58    3.64
  -3  -2  -7   84.07    4.06
   3   2   7   87.15    3.62
   3   2   7   85.70    3.47
   3   2   7   86.96    3.71
  -4  -3   7  147.84    5.90
  -4  -3   7  146.03    6.36
   4  -3  -7  141.12    5.79
  -4   3   7  144.02    5.88
  -4   3   7  139.79    6.24
   3  -3  -7    2.89    0.57
  -3  -3   7    2.61    0.77
   3  -3  -7    7.39    8.07
  -3  -3   7    2.91    0.61
   3  -3  -7    4.95    6.58
   3  -3  -7    8.31   10.93
   3  -3  -7   -5.44   33.24
  -3   3   7    1.94    0.74
  -3   3   7    2.31    0.58
   2  -3  -7  258.91   28.21
   2  -3  -7  296.90   18.76
  -2  -3   7  300.93   11.94
   2  -3  -7  295.47   11.93
   2  -3  -7  313.83   24.65
   2  -3  -7  317.73   20.55
  -2   3   7  304.69   11.91
   2   3  -7  349.61   24.34
   2   3  -7  326.35   18.67
   2   3  -7  341.62   32.07
   2   3  -7  323.20   20.57
   2   3  -7  309.12   24.30
   2   3  -7  305.80   28.49
   2   3  -7  297.79   18.50
   2   3  -7  314.10   20.13
  -2   3   7  312.77   12.08
   2   3  -7  292.26   11.79
  -1  -3   7   22.39    1.29
   1  -3  -7   40.05   13.69
   1  -3  -7   38.17   11.22
   1  -3  -7   25.92   10.89
   1  -3  -7   21.72    1.37
   1  -3  -7   29.08    8.10
   1   3  -7   38.34   18.73
   1   3  -7    1.99    9.58
   1   3  -7   29.44   11.43
   1   3  -7   24.20    1.40
   1   3  -7   12.67    6.06
   1   3  -7    9.34    7.16
  -1   3   7   22.98    1.38
   1   3  -7   18.03    5.40
   1   3  -7   32.54    9.69
  -1   3   7   22.99    1.23
   1   3  -7   27.38    7.14
   0  -3  -7   13.86   11.38
   0  -3  -7   29.38    6.84
   0  -3  -7   19.78   10.50
   0  -3  -7   15.65    5.39
   0  -3  -7   24.44    8.44
   0  -3  -7   31.49    8.56
   0  -3   7   23.32    1.32
   0  -3  -7   18.62    9.48
   0  -3  -7   22.80    1.47
   0  -3  -7   28.03    7.48
   0   3  -7   24.22   11.41
   0   3  -7   47.83   15.24
   0   3  -7   28.89    6.49
   0   3  -7   25.65    7.60
   0   3  -7   23.55    1.41
   0   3   7   23.75    1.24
  -1  -3  -7   67.44   13.23
  -1  -3  -7   78.29    9.15
  -1  -3  -7   72.41    3.35
  -1  -3  -7   63.98   13.55
  -1  -3  -7   77.95   10.53
  -1  -3  -7   74.17   17.62
  -1  -3  -7   87.81    9.49
   1  -3   7   77.50    3.15
  -1  -3  -7   69.69   16.96
  -1  -3  -7   77.76   10.62
  -1   3  -7   80.30   18.11
   1   3   7   70.20    3.12
  -1   3  -7   76.86   10.93
  -1   3  -7   71.93    3.33
   1   3   7   77.58    3.04
  -1   3  -7   62.34   13.74
  -2  -3  -7  136.54   11.05
  -2  -3  -7  145.54   15.58
  -2  -3  -7  136.76   12.29
  -2  -3  -7  141.07    6.10
  -2  -3  -7  146.79   19.29
   2  -3   7  156.10    5.74
   2  -3   7  148.58    5.78
   2  -3   7  144.96    5.84
  -2   3  -7  132.19   12.85
   2   3   7  149.92    5.85
   2   3   7  143.92    5.72
  -2   3  -7  171.44   23.94
  -2   3  -7  134.60   14.63
  -2   3  -7  133.87   18.63
  -3  -3  -7   32.08    2.15
   3  -3   7   30.76    1.75
   3   3   7   30.23    1.48
   3   3   7   30.65    1.67
   3   3   7   30.98    1.78
  -4  -4   7   26.03    2.24
  -4  -4   7   25.42    1.77
   4  -4  -7   24.37    1.55
  -4   4   7   26.48    1.68
  -4   4   7   24.98    2.02
   3  -4  -7   74.27   21.12
   3  -4  -7   82.65   22.26
   3  -4  -7   74.18   13.08
  -3  -4   7   90.35    3.75
   3  -4  -7   95.83   16.07
   3  -4  -7   82.08    3.66
  -3   4   7   89.98    3.73
  -3   4   7   90.77    4.02
   2  -4  -7    4.69    7.24
  -2  -4   7    8.46    0.97
   2  -4  -7  -11.60   10.09
   2  -4  -7   13.49   16.26
   2  -4  -7    9.92    0.89
   2  -4  -7    6.42    6.19
   2   4  -7    8.92    6.96
   2   4  -7    7.67    6.40
   2   4  -7   -5.52   12.57
  -2   4   7    7.35    0.91
   2   4  -7   -9.30   10.40
   2   4  -7   17.60   16.09
   2   4  -7   12.05    5.98
   2   4  -7   -0.17    8.53
  -2   4   7    8.12    0.88
   2   4  -7   15.38    9.67
  -1  -4   7   17.96    1.16
   1  -4  -7   18.17    7.66
   1  -4  -7   17.93    1.25
   1  -4  -7   44.48   11.79
   1  -4  -7   25.85   13.18
   1  -4  -7   16.59   14.74
   1   4  -7    3.89    9.94
   1   4  -7   20.11    1.21
  -1   4   7   14.89    1.20
   1   4  -7   33.52   10.72
   1   4  -7   26.05   12.92
   1   4  -7    9.59    4.12
  -1   4   7   16.87    1.06
   1   4  -7   28.66   11.80
   1   4  -7   46.71   18.05
   1   4  -7    8.59    7.09
   1   4  -7   34.82   13.56
   0  -4   7  472.94   17.75
   0  -4  -7  462.07   23.33
   0  -4  -7  452.20   30.78
   0  -4  -7  438.33   17.89
   0  -4  -7  475.28   24.59
   0  -4  -7  468.72   23.37
   0   4  -7  470.83   28.58
   0   4  -7  455.39   24.94
   0   4   7  471.90   17.66
   0   4   7  442.68   17.75
   0   4  -7  465.26   31.82
   0   4  -7  467.44   17.83
  -1  -4  -7   11.67    7.03
   1  -4   7   39.20    9.22
  -1  -4  -7   18.18    9.44
   1  -4   7   31.86   13.79
  -1  -4  -7   21.63    6.10
  -1  -4  -7   35.03   13.44
  -1  -4  -7   15.11    6.01
  -1  -4  -7   23.79    7.22
   1  -4   7   18.05    1.16
   1  -4   7   12.14    7.85
  -1  -4  -7   16.94   11.47
  -1  -4  -7   17.93    1.31
  -1  -4  -7   18.62    9.08
   1   4   7   17.54    1.01
   1   4   7   17.53    1.04
   1   4   7   18.64    0.91
   1   4   7   16.94    1.05
  -1   4  -7   26.38   13.66
  -1   4  -7   10.45    4.39
  -1   4  -7   18.50   12.74
  -1   4  -7   16.70    8.34
   2  -4   7  144.50   13.89
   2  -4   7  147.76    5.60
   2  -4   7  152.42   16.15
   2  -4   7  138.30   25.31
   2  -4   7  141.85    5.52
  -2  -4  -7   92.37   24.27
   2  -4   7  121.12   20.12
  -2  -4  -7  143.47    5.93
  -2  -4  -7  111.11   19.72
  -2  -4  -7  121.01   15.64
  -2  -4  -7  130.99   14.39
  -2   4  -7  116.16   14.80
  -2   4  -7  120.96   13.03
   2   4   7  142.98    5.67
  -2   4  -7  101.93   24.52
   2   4   7  142.45    5.52
   2   4   7  150.86    5.48
  -2   4  -7  141.35   19.26
   3  -4   7   78.19    3.34
  -3  -4  -7   76.47    3.77
   3   4   7   79.05    3.32
   3   4   7   78.93    3.22
   3   4   7   76.97    3.45
   3  -5  -7   -1.67    9.04
   3  -5  -7   -5.79   15.26
  -3  -5   7    0.19    0.61
   3  -5  -7   -6.88   20.39
   3  -5  -7    0.49    0.50
  -3   5   7    3.24    8.78
  -3   5   7   -0.09    0.53
  -3   5   7   -2.74   16.64
  -3   5   7    1.80   12.31
  -3   5   7   -0.39    0.71
  -3   5   7  -20.24   15.87
   2  -5  -7  186.29    7.75
   2  -5  -7  264.56   35.07
   2  -5  -7  195.81   17.22
   2  -5  -7  210.71   21.71
   2  -5  -7  182.15   15.19
  -2  -5   7  182.46    7.72
   2   5  -7  213.49   26.18
  -2   5   7  197.40    7.84
   2   5  -7  237.07   27.37
   2   5  -7  178.41   16.73
  -2   5   7  198.90   19.87
  -2   5   7  203.84    7.72
   2   5  -7  165.22   20.80
   2   5  -7  256.36   37.70
  -2   5   7  192.51   16.20
  -2   5   7  251.24   32.34
   2   5  -7  161.54   16.75
   2   5  -7  181.77   14.86
   2   5  -7  196.68   20.71
  -2   5   7  248.65   17.82
   1  -5  -7  113.75   17.05
   1  -5  -7  120.08   22.27
   1  -5  -7  111.84    4.67
   1  -5  -7   89.65   12.58
  -1  -5   7  111.04    4.57
   1  -5  -7  108.82   11.33
   1   5  -7  115.00   16.17
   1   5  -7  109.85    4.55
  -1   5   7  109.76    4.50
   1   5  -7  147.62   16.34
   1   5  -7  120.18   20.48
   0  -5  -7   36.01    1.86
   0  -5  -7   52.43   13.20
   0  -5  -7   61.36   15.40
   0  -5  -7   25.14   10.83
   0  -5   7   32.40    1.71
   0  -5  -7   24.70    8.33
   0   5  -7   41.56   12.07
   0   5  -7   22.99    8.24
   0   5   7   35.44    1.67
   0   5   7   35.65    1.63
   0   5  -7   19.13    5.74
   0   5  -7   41.24   10.67
   0   5  -7   34.31    1.83
  -1  -5  -7  145.54   15.72
   1  -5   7  124.66   24.51
  -1  -5  -7  130.03   19.07
  -1  -5  -7  136.80   16.77
  -1  -5  -7  152.44   12.78
   1  -5   7  143.68   15.52
   1  -5   7  144.82   19.76
   1  -5   7  157.20   13.75
  -1  -5  -7  154.26   12.43
  -1  -5  -7  113.18   20.50
  -1  -5  -7  172.12   11.90
  -1  -5  -7  143.46    6.16
  -1  -5  -7  130.28   13.59
   1  -5   7  151.34    5.95
  -1   5  -7  142.22   17.81
   1   5   7  144.94    5.79
   1   5   7  156.79    5.79
   1   5   7  145.39    5.95
  -1   5  -7  210.47   20.88
  -1   5  -7  120.32   21.75
   2  -5   7   52.62    2.50
   2  -5   7   47.31   19.38
  -2  -5  -7   56.67    2.79
   2  -5   7   61.18   12.01
   2  -5   7   52.44    2.36
   2  -5   7   48.56   15.53
   2  -5   7   56.21   14.30
  -2   5  -7   87.11   20.55
  -2   5  -7   61.84   14.72
   2   5   7   52.52    2.39
   2   5   7   57.33    2.54
  -2   5  -7   61.79   11.39
   2   5   7   57.18    2.34
  -2   5  -7   58.70   13.33
   3  -5   7   12.54    1.27
  -3  -5  -7   11.87    1.60
   3   5   7   16.04    1.07
   3   5   7   14.47    1.20
   3   5   7   12.91    1.31
   3  -6  -7   85.73   24.17
  -3  -6   7   78.85    3.54
   3  -6  -7   50.61   17.17
   3  -6  -7   80.19    3.51
   3  -6  -7   89.98   16.95
   3  -6  -7   74.75   14.40
  -3   6   7   82.56   16.70
  -3   6   7   41.71   18.65
  -3   6   7   89.36    3.55
  -3   6   7   79.76    3.76
  -3   6   7   91.59   13.97
   2  -6  -7   49.84   17.39
  -2  -6   7   56.04    2.70
   2  -6  -7   59.40   11.22
   2  -6  -7   59.71    2.70
   2  -6  -7   68.24   23.74
   2  -6  -7   73.98   16.88
  -2   6   7   68.11   10.74
   2   6  -7   60.34   12.91
   2   6  -7   49.12   13.37
  -2   6   7   61.80    2.67
   2   6  -7   50.00   10.60
  -2   6   7   72.05   30.16
  -2   6   7   61.37    2.81
  -2   6   7   62.08   12.93
   2   6  -7   58.56   18.81
  -1  -6   7   77.98    3.38
   1  -6  -7   60.71   16.26
   1  -6  -7   75.09    3.45
   1  -6  -7  112.60   17.77
   1  -6  -7   75.12   12.53
   1   6  -7   78.67   19.06
  -1   6   7   77.66    3.29
  -1   6   7   79.31    3.35
   1   6  -7   80.78    3.35
  -1   6   7   73.28   11.14
   1   6  -7   75.18   19.42
   1   6  -7   85.29   10.50
  -1   6   7   77.83   19.00
  -1   6   7   92.21   18.93
  -1   6   7   77.21    9.60
   1   6  -7   81.15   12.10
   0  -6   7  112.82   12.35
   0  -6  -7  116.28   10.99
   0  -6   7  168.37   30.28
   0  -6  -7  122.49    5.13
   0  -6   7  113.59   13.98
   0  -6   7  127.28    5.00
   0  -6  -7  134.74   16.57
   0  -6  -7  115.96   12.45
   0  -6  -7  132.12   21.43
   0  -6   7  100.10   17.95
   0   6   7  119.61    4.94
   0   6  -7   99.66   13.07
   0   6   7  120.71    4.84
   0   6  -7   97.28   17.19
   0   6  -7  122.37    5.01
   0   6  -7  142.89   23.01
   0   6  -7  158.69   14.85
   1  -6   7   92.10   14.53
  -1  -6  -7   89.89   10.91
  -1  -6  -7   57.89   15.49
   1  -6   7  102.21   19.01
  -1  -6  -7  125.06   21.28
   1  -6   7   88.34    3.80
  -1  -6  -7   78.67   12.23
  -1  -6  -7   84.77   11.22
   1  -6   7  128.46   31.82
  -1  -6  -7  116.90   15.17
  -1  -6  -7   89.46    4.01
   1  -6   7   84.77   12.35
  -1  -6  -7   96.91   10.00
  -1  -6  -7  123.07   19.14
  -1   6  -7   96.64   21.62
  -1   6  -7   73.22   10.84
  -1   6  -7   94.48   17.41
   1   6   7   88.85    3.77
  -1   6  -7  104.52   13.10
   1   6   7   89.22    3.60
   2  -6   7  145.35   24.74
  -2  -6  -7  142.39    6.15
   2  -6   7  158.16   30.71
   2  -6   7  147.63   16.21
   2  -6   7  142.79   18.95
   2  -6   7  140.37    5.86
  -2   6  -7  183.37   24.35
  -2   6  -7  136.85   18.69
   2   6   7  141.59    5.76
  -2   6  -7  167.43   30.03
   2   6   7  150.09    5.75
   2   6   7  147.17    5.94
  -2   6  -7  199.57   41.54
  -3  -6  -7   78.79    3.72
   3  -6   7   70.94    3.29
   3  -6   7   76.55    3.34
   3   6   7   74.52    3.26
   3   6   7   79.17    3.23
   3   6   7   75.83    3.46
   3  -7  -7    7.96   18.23
   3  -7  -7   34.11   32.23
   3  -7  -7   21.58   44.40
   3  -7  -7    5.52   22.52
  -3   7   7   30.88   20.69
  -3   7   7    7.30   20.61
  -3   7   7    8.85   17.47
   2  -7  -7  130.47   28.10
   2  -7  -7   98.61    4.17
   2  -7  -7   83.49   15.03
  -2  -7   7   98.73    4.13
   2  -7  -7  116.90   25.64
   2  -7  -7   92.52   13.37
  -2   7   7  131.47   19.08
  -2   7   7  103.41    4.22
  -2   7   7  101.85   21.38
   2   7  -7   93.07   19.13
   2   7  -7   68.39   11.83
  -2   7   7   68.45   18.79
  -2   7   7  103.46    4.10
   2   7  -7   68.96   13.91
  -1  -7   7   16.42    1.27
   1  -7  -7   15.62   11.69
   1  -7  -7    8.87    8.31
   1  -7  -7   17.02   19.63
   1  -7  -7   18.56    1.27
   1  -7  -7   19.34    7.51
   1   7  -7   11.53    6.75
   1   7  -7   18.72    1.30
  -1   7   7   18.45    1.21
  -1   7   7   13.60    7.75
  -1   7   7   18.64    1.16
   1   7  -7    5.26   10.21
   1   7  -7   24.11   14.18
   1   7  -7   34.38   16.72
  -1   7   7   12.29    5.76
  -1   7   7   11.16    6.60
  -1   7   7    8.82   11.36
  -1   7   7   17.77    1.11
   0  -7   7    7.41   12.19
   0  -7   7  -11.50    8.38
   0  -7  -7  -15.01   12.66
   0  -7  -7    0.95    0.60
   0  -7   7    1.14    0.52
   0  -7  -7    3.26    6.76
   0  -7  -7    3.24    9.42
   0  -7   7   -6.35    6.75
   0  -7  -7    5.75    5.94
   0  -7   7   19.33   22.56
   0   7   7    0.53    0.44
   0   7  -7    5.92    7.22
   0   7  -7    6.96    9.94
   0   7  -7   -5.54   12.68
   0   7   7    0.39    0.35
   0   7  -7    3.84   10.94
   1  -7   7   21.95   12.03
   1  -7   7    8.10    8.64
  -1  -7  -7   12.67    1.25
   1  -7   7   13.32    1.19
   1  -7   7   36.59   16.39
   1  -7   7    6.98    6.50
  -1   7  -7   24.52   17.35
  -1   7  -7   12.80    6.87
   1   7   7   14.29    0.86
  -1   7  -7   31.37    9.59
  -1   7  -7   18.39   13.89
   1   7   7   15.46    1.05
   2  -7   7   65.65    3.00
  -2  -7  -7   67.35    3.25
   2   7   7   65.75    2.79
   2   7   7   66.25    2.98
  -3  -7  -7    4.36    1.03
   3  -7   7    4.21    0.83
   3  -7   7    3.23    0.84
   3   7   7    3.89    0.81
   3   7   7    3.90    0.74
   3   7   7    6.64    0.93
   3  -8  -7   17.16   16.52
   3  -8  -7   14.65    1.29
   3  -8  -7   -3.31   24.88
   3  -8  -7   13.43   19.94
   3  -8  -7   67.76   40.87
  -3  -8   7   13.04    1.51
  -3   8   7   13.77    1.33
  -3   8   7   14.16    1.56
   2  -8  -7  -26.20   19.34
   2  -8  -7   -8.06   10.01
   2  -8  -7   -0.60    8.69
   2  -8  -7   23.02   15.37
   1  -8  -7   42.50   12.48
  -1  -8   7   15.86    1.34
   1  -8  -7   49.71   31.32
  -1  -8   7   64.66   37.01
   1  -8  -7   17.75   12.34
   1  -8  -7   23.38   17.05
   1  -8  -7   18.41    1.37
  -1   8   7   19.20    1.22
  -1   8   7   17.10    1.18
  -1   8   7   18.09    1.15
   0  -8   7   42.04   11.68
   0  -8   7   61.48   13.09
   0  -8   7   51.91    2.45
   0  -8   7   42.81   15.65
   0  -8   7   34.60   18.01
   0  -8  -7   49.61    2.54
   0   8   7   49.54    2.24
   0   8  -7   83.38   17.02
   0   8   7   51.69    2.35
   0   8  -7   35.68   12.65
   0   8  -7   34.84   15.30
   0   8  -7   59.89   10.67
   1  -8   7   19.35   13.72
   1  -8   7    8.20    9.69
   1  -8   7   11.55    1.22
  -1  -8  -7   11.22    1.21
   1  -8   7    2.67    7.40
   1  -8   7    1.24   18.10
   1   8   7   10.47    0.80
  -1   8  -7    5.58   15.92
  -1   8  -7   20.21   10.21
   1   8   7   10.04    0.97
  -1   8  -7   14.75   12.93
  -1   8  -7   22.02   10.10
  -2  -8  -7    7.40    1.33
   2  -8   7    7.69    1.21
   2   8   7    5.07    1.01
   2   8   7    7.10    0.80
  -2  -9   7    8.50    1.34
   2  -9  -7   12.18    1.18
  -2   9   7    9.50    0.97
  -2   9   7   12.87    1.29
  -2   9   7   12.20    1.15
  -1  -9   7   57.10    2.76
   1  -9  -7   58.91    2.81
  -1   9   7   56.02    2.61
  -1   9   7   60.10    2.65
  -1   9   7   60.52    2.66
   0  -9   7   -1.45   10.38
   0  -9   7   -6.49    8.58
   0  -9   7    4.36   26.62
   0  -9  -7    0.69    0.60
   0  -9   7  -27.14   18.40
   0  -9   7    2.04    0.61
   0   9  -7    5.17   11.33
   0   9   7    1.30    0.43
   0   9   7    0.30    0.46
   1  -9   7  102.68   24.39
   1  -9   7   75.94    3.48
   1  -9   7   85.40   15.09
  -1  -9  -7   79.32    3.66
   1  -9   7   85.58   19.18
   1  -9   7   96.23   18.28
   1   9   7   75.87    3.43
  -1   9  -7   82.81   15.26
  -1   9  -7   85.51   12.97
   1   9   7   82.31    3.26
  -1   9  -7   42.94   13.53
  -1   9  -7  103.02   36.09
  -2  -9  -7   10.50    1.42
   2  -9   7   10.19    1.35
   2   9   7   12.32    0.96
   2   9   7   10.02    1.15
   2 -10  -7   35.14    2.03
  -2 -10   7   36.77    2.23
  -2  10   7   40.52    1.98
  -2  10   7   38.15    2.14
  -2  10   7   38.48    2.00
   1 -10  -7   52.62    2.73
  -1 -10   7   54.43    2.70
  -1  10   7   55.75    2.52
  -1  10   7   59.30    2.60
  -1  10   7   55.79    2.58
   0 -10  -7  110.95    4.80
   0 -10   7  112.76    4.74
   0  10   7  110.29    4.63
   0  10   7  109.14    4.49
  -1 -10  -7    2.95    0.79
   1 -10   7   15.10   11.72
   1 -10   7  -27.43   32.87
   1 -10   7   30.81   20.02
   1 -10   7    1.70    0.77
   1 -10   7   16.30   26.41
   1  10   7    6.10    0.94
   1  10   7    3.80    0.58
  -2 -10  -7   39.47    2.41
   2 -10   7   36.77    2.23
   2  10   7   42.96    1.97
   2  10   7   42.04    2.21
  -1 -11   7   44.16    2.50
   1 -11  -7   47.82    2.48
  -1  11   7   49.88    2.34
  -1  11   7   46.87    2.29
  -1  11   7   49.77    2.36
   0 -11  -7    8.13    1.33
   0 -11   7   10.02    1.42
   0  11   7   10.38    1.05
   0  11   7   10.37    1.15
  -1 -11  -7  106.63    4.73
   1 -11   7  108.16    4.64
   1  11   7   99.92    4.52
   1  11   7  110.40    4.36
   0 -12  -7   75.37    3.49
   0 -12   7   71.48    3.42
   0  12   7   71.69    3.31
   0  12   7   72.17    3.17
  -3   0   8  127.90    5.35
  -3   0   8  130.36    5.68
   3   0  -8  132.48    5.22
   2   0  -8   86.99   32.57
   2   0  -8   67.34   19.24
   2   0  -8   55.88   15.21
   2   0  -8   77.91   21.53
   2   0  -8   43.29    2.15
   2   0  -8   81.91   22.59
   2   0  -8   52.88   14.21
  -2   0   8   44.97    2.20
   2   0  -8   45.87   12.31
   2   0  -8   48.27   13.20
  -2   0   8   47.13    2.47
   1   0  -8   73.14   16.90
   1   0  -8   95.99   14.69
   1   0  -8   28.41   14.85
   1   0  -8   83.04   17.11
  -1   0   8   61.25    2.74
   1   0  -8  103.32   16.60
   1   0  -8  108.69   25.89
  -1   0   8   59.56    2.88
   1   0  -8   60.97    2.85
   1   0  -8   43.89   15.26
   0   0  -8   85.66   16.06
   0   0   8   70.87    3.06
   0   0  -8   65.26   12.41
   0   0  -8   68.43    3.25
   0   0  -8   55.85   11.74
   0   0  -8   35.06   13.15
   0   0  -8  101.87   13.82
   0   0  -8   98.36   20.93
   0   0  -8  108.04   15.76
   0   0  -8   95.71   16.64
  -1   0  -8  208.88   18.22
   1   0   8  205.17    8.10
  -1   0  -8  198.92   20.14
  -1   0  -8  211.78   25.04
  -1   0  -8  186.58   26.30
  -1   0  -8  195.08   14.88
  -1   0  -8  226.62   16.50
  -1   0  -8  206.36    8.35
  -1   0  -8  184.91   16.34
  -1   0  -8  232.20   22.77
   1   0   8  206.95    8.05
   2   0   8   52.51    2.45
  -2   0  -8   54.04    2.81
   2   0   8   56.57    2.43
   3   0   8  249.38    9.47
  -3   0  -8  246.17    9.99
   3   0   8  231.12    9.53
  -3  -1   8  137.09    5.84
  -3  -1   8  131.79    5.50
   3  -1  -8  133.15    5.39
  -3   1   8  136.87    5.81
  -3   1   8  131.71    5.49
   2  -1  -8   12.63    9.38
   2  -1  -8    4.88   13.29
  -2  -1   8    6.90    1.34
   2  -1  -8   17.07   17.65
   2  -1  -8   -0.34    7.92
   2  -1  -8   23.33   13.72
   2  -1  -8   12.34   16.71
   2  -1  -8    7.51    0.99
   2  -1  -8   14.35   10.23
  -2  -1   8    8.97    1.00
   2  -1  -8    7.66    7.70
   2   1  -8    9.11    8.14
  -2   1   8    7.09    0.95
   2   1  -8   25.79   18.46
  -2   1   8    7.97    1.30
   2   1  -8   23.12   14.13
   2   1  -8    9.33    0.92
   2   1  -8   18.79   18.47
   1  -1  -8  194.47    7.71
   1  -1  -8  152.32   24.95
  -1  -1   8  188.03    7.70
  -1  -1   8  196.35    7.60
   1  -1  -8  184.29   14.61
   1  -1  -8  270.51   36.63
   1  -1  -8  179.99   16.57
   1   1  -8  166.87   25.63
   1   1  -8  195.84    7.69
   1   1  -8  179.83   26.91
   1   1  -8  179.44   16.45
   1   1  -8  189.26   20.97
  -1   1   8  186.27    7.65
  -1   1   8  202.82    7.59
   1   1  -8  209.52   21.86
   0  -1  -8  146.90   24.29
   0  -1   8  171.58    6.92
   0  -1  -8  152.21   18.94
   0  -1  -8  218.45   17.66
   0  -1  -8  169.40    7.08
   0  -1   8  176.06    6.90
   0  -1  -8  180.81   24.12
   0  -1  -8  219.58   25.80
   0  -1  -8  203.69   19.87
   0   1  -8  150.31   22.89
   0   1  -8  158.73   18.74
   0   1  -8  222.04   30.96
   0   1  -8  169.09   15.30
   0   1  -8  233.89   25.38
   0   1   8  169.38    6.87
   0   1  -8  161.42   13.52
   0   1  -8  159.39   13.76
   0   1  -8  172.36    7.07
   1  -1   8   23.56    1.38
  -1  -1  -8   39.86   24.43
  -1  -1  -8   48.79   17.67
  -1  -1  -8   42.87   18.84
  -1  -1  -8   23.77    1.65
  -1  -1  -8   30.18   12.26
  -1  -1  -8   31.42    7.93
  -1  -1  -8   24.40   13.83
  -1  -1  -8   30.28   12.19
  -1  -1  -8   30.51    9.18
  -1   1  -8   25.93   11.65
  -1   1  -8   26.64   11.70
  -1   1  -8   23.52    7.90
   1   1   8   22.50    1.30
  -1   1  -8   40.44    8.96
  -1   1  -8   31.87   11.80
  -1   1  -8   10.89   18.24
  -1   1  -8   26.29    1.67
  -1   1  -8   29.05   14.82
   1   1   8   24.40    1.35
  -1   1  -8   26.35   13.90
   2  -1   8  115.00    4.62
  -2  -1  -8  115.50    5.06
   2  -1   8  115.70    4.69
   2  -1   8  116.50    4.62
   2   1   8  115.95    4.61
   2   1   8  110.22    4.70
  -2   1  -8  114.26    5.07
  -3  -1  -8   54.58    3.02
   3  -1   8   51.52    2.51
   3   1   8   53.24    2.63
   3   1   8   55.31    2.52
  -3   1  -8   53.66    3.02
   3  -2  -8    6.52    0.98
  -3  -2   8    5.24    1.05
  -3  -2   8    5.33    0.81
  -3   2   8    5.05    0.74
  -3   2   8    8.13    1.49
   2  -2  -8  232.24   18.72
   2  -2  -8  226.63   17.94
   2  -2  -8  227.87   31.73
   2  -2  -8  211.01   19.74
  -2  -2   8  243.93    9.23
   2  -2  -8  224.85   30.43
   2  -2  -8  241.50   25.25
  -2  -2   8  249.15    9.49
   2  -2  -8  224.21   25.36
   2  -2  -8  230.24    9.23
  -2   2   8  242.11    9.38
   2   2  -8  213.00   30.51
   2   2  -8  228.87    9.15
   2   2  -8  207.98   19.82
   2   2  -8  243.54   18.06
  -2   2   8  241.20    9.21
   2   2  -8  209.61   24.42
   1  -2  -8   -3.30    7.14
  -1  -2   8    5.24    0.90
   1  -2  -8   14.74    8.66
   1  -2  -8    6.74   10.41
   1  -2  -8    5.24    0.80
   1  -2  -8   33.22   23.80
   1  -2  -8   15.53   11.43
   1  -2  -8   11.56   10.58
   1  -2  -8    1.50   13.70
   1  -2  -8    1.59    6.01
   1   2  -8   12.79   12.34
   1   2  -8    8.67    7.28
   1   2  -8    0.33    7.77
   1   2  -8   -5.66   10.91
  -1   2   8    5.47    0.82
   1   2  -8   13.03   15.18
  -1   2   8    4.23    0.75
   1   2  -8  -14.39   12.86
   1   2  -8    5.86    1.00
   1   2  -8    8.41   15.04
   1   2  -8    7.78    6.64
   0  -2   8    0.04    0.47
   0  -2  -8    3.56    6.69
   0  -2  -8    4.49    5.42
   0  -2  -8   -0.22   12.04
   0  -2  -8   -4.70   11.65
   0  -2  -8    3.71   10.19
   0  -2  -8   -7.12    7.31
   0  -2  -8   -6.33    6.23
   0  -2  -8    0.74    0.59
   0  -2  -8   -1.30    8.77
   0   2   8    0.48    0.42
   0   2  -8  -11.14   15.40
   0   2  -8    1.70    0.64
   0   2  -8   -1.04    8.38
   0   2  -8    6.02    9.89
   0   2  -8   -2.54    9.29
   0   2  -8    0.90    5.31
   0   2  -8    4.12    7.98
   0   2  -8   19.26   12.41
   0   2  -8   -3.53    6.44
  -1  -2  -8  128.11   23.13
  -1  -2  -8  106.76   13.77
  -1  -2  -8  108.51    4.77
   1  -2   8  112.07    4.50
  -1  -2  -8  101.34   11.82
  -1  -2  -8  105.53   17.67
  -1   2  -8  128.59   27.35
   1   2   8  115.89    4.44
  -1   2  -8  128.10   18.27
  -1   2  -8   93.44   11.51
  -1   2  -8  112.41    4.75
   1   2   8  111.39    4.51
  -1   2  -8  109.65   13.95
  -1   2  -8   85.20   12.95
  -1   2  -8  106.15   22.32
  -1   2  -8  118.89   12.21
  -1   2  -8   83.27   16.50
   2  -2   8   63.70    2.87
   2  -2   8   65.14    2.87
  -2  -2  -8   64.80    3.25
  -2   2  -8   70.15    3.32
   2   2   8   68.05    2.87
   2   2   8   67.01    2.94
  -3  -2  -8    8.63    1.64
   3  -2   8    6.73    0.89
   3   2   8    9.13    1.34
   3   2   8    8.93    1.19
  -3   2  -8    8.07    1.58
  -3  -3   8   11.67    1.29
  -3  -3   8   11.25    1.66
   3  -3  -8   13.09    1.19
  -3   3   8   14.30    1.24
  -3   3   8   13.01    1.58
   2  -3  -8   57.19   16.89
   2  -3  -8   57.07   19.41
   2  -3  -8   51.73   25.80
   2  -3  -8   55.91    2.60
  -2  -3   8   58.48    2.61
   2  -3  -8   20.88   15.30
   2   3  -8   72.73   20.54
   2   3  -8   54.09   12.49
  -2   3   8   55.59    2.76
   2   3  -8   57.24   20.71
   2   3  -8   53.03    2.47
   2   3  -8   58.59   14.75
  -2   3   8   57.41    2.56
   1  -3  -8   31.80    8.34
   1  -3  -8   78.00   18.23
   1  -3  -8   38.00    2.06
   1  -3  -8   48.65   10.91
   1  -3  -8   45.58   13.31
   1  -3  -8   34.15   17.66
   1  -3  -8   31.32    9.61
   1  -3  -8   24.67    7.18
   1  -3  -8   47.99   19.43
  -1  -3   8   38.53    1.93
   1   3  -8   36.40    8.95
   1   3  -8   44.14   14.37
  -1   3   8   34.12    1.98
   1   3  -8   77.03   19.36
   1   3  -8   29.66   18.19
   1   3  -8   38.42    9.90
  -1   3   8   38.82    1.86
   1   3  -8   57.47   12.56
   1   3  -8   18.49   16.50
   1   3  -8   45.30   11.19
   1   3  -8   41.19    2.03
   0  -3  -8   88.90   21.02
   0  -3  -8   90.88   11.30
   0  -3  -8  102.23   11.74
   0  -3  -8   75.67   12.89
   0  -3  -8  100.85   22.60
   0  -3   8   81.55    3.60
   0  -3  -8   64.05   16.15
   0  -3  -8   95.91   13.29
   0  -3  -8   80.09    3.77
   0  -3  -8   89.67   17.73
   0   3  -8   84.66   10.85
   0   3  -8  102.97   14.57
   0   3   8   87.77    3.54
   0   3  -8   89.13   16.84
   0   3  -8   82.71   12.53
   0   3  -8   82.42    3.73
   0   3  -8   94.87   16.53
   0   3  -8   57.88   17.95
   0   3  -8  120.04   22.74
  -1  -3  -8   -0.29    7.53
  -1  -3  -8    2.06   17.60
   1  -3   8    0.45    0.54
  -1  -3  -8  -10.08   14.69
  -1  -3  -8    0.46    0.60
  -1  -3  -8   -1.74   12.27
  -1   3  -8    2.56    7.21
   1   3   8    0.28    0.39
  -1   3  -8    2.38    9.05
  -1   3  -8   -0.27    0.63
   1   3   8    0.45    0.45
  -1   3  -8   -2.11    5.87
  -1   3  -8   18.62   13.15
   2  -3   8   20.50    1.37
   2  -3   8   19.62    1.18
  -2  -3  -8   19.17    1.64
   2   3   8   17.04    1.25
  -2   3  -8   19.98    1.65
   2   3   8   18.78    1.30
  -3  -3  -8    9.97    1.67
   3  -3   8   10.80    1.30
   3   3   8   13.85    1.46
   3   3   8   12.18    1.32
  -3  -4   8    6.01    0.88
   3  -4  -8    6.24    0.82
  -3  -4   8    4.93    1.07
  -3   4   8    5.04    0.98
  -3   4   8    5.30    0.80
   2  -4  -8   13.11    7.03
  -2  -4   8    9.32    1.09
   2  -4  -8   25.86   26.15
   2  -4  -8   39.02   37.11
   2  -4  -8    8.51    8.32
   2  -4  -8   10.80    1.12
  -2   4   8   10.30    1.29
  -2   4   8    9.69    1.07
   2   4  -8  -12.27   17.57
   2   4  -8   21.87   10.37
   2   4  -8    9.55   13.61
   2   4  -8   -0.94    7.81
   1  -4  -8    0.70    8.58
   1  -4  -8   14.82   21.69
  -1  -4   8    0.59    0.53
   1  -4  -8    1.50    0.63
   1  -4  -8    0.82   15.48
   1  -4  -8   -2.45   10.12
   1   4  -8    2.48    0.72
   1   4  -8   -1.32    6.60
   1   4  -8    4.47    8.73
   1   4  -8    1.60    5.64
  -1   4   8    1.80    0.50
   1   4  -8   12.99   23.11
   1   4  -8    1.52   30.15
  -1   4   8    0.64    0.59
   0  -4  -8   11.61    8.46
   0  -4  -8    8.58   16.48
   0  -4   8    4.91    0.90
   0  -4  -8    3.94    0.72
   0  -4  -8    3.71    6.80
   0  -4  -8    4.09   14.70
   0  -4  -8    1.69   18.98
   0  -4  -8    6.11    6.12
   0  -4  -8    6.58    7.53
   0  -4  -8    0.85   14.73
   0   4  -8    6.82    1.09
   0   4   8    5.45    0.82
   0   4  -8   13.17   27.77
   0   4  -8   -4.87    5.60
   0   4   8    4.82    0.70
   0   4  -8    8.99    7.83
   0   4  -8    6.25    9.69
   1  -4   8    2.65    0.62
  -1  -4  -8    3.65    0.78
   1   4   8    4.52    0.84
   1   4   8    4.43    0.74
  -1   4  -8   18.93   14.45
  -1   4  -8    4.92    0.85
  -1   4  -8   10.52   16.41
  -1   4  -8   -3.31   16.66
  -1   4  -8   -9.30    9.97
  -2  -4  -8    1.38    0.79
   2  -4   8    0.84    0.64
   2  -4   8    1.64    0.51
   2   4   8    0.90    0.40
   2   4   8    0.35    0.57
   2   4   8    1.65    0.63
  -3  -5   8    6.68    0.95
   3  -5  -8    7.39    1.08
  -3   5   8    7.58    1.52
  -3   5   8    7.95    1.20
   2  -5  -8    9.28    8.02
   2  -5  -8   16.57    1.35
   2  -5  -8    4.33   17.78
   2  -5  -8   13.29    9.67
  -2  -5   8   18.97    1.38
   2  -5  -8   12.21   12.93
  -2   5   8   17.65    1.51
   2   5  -8   21.82   15.88
  -2   5   8   17.00    1.28
   2   5  -8   24.67   11.82
   2   5  -8   -0.76   21.56
   2   5  -8    2.44    9.02
   1  -5  -8   15.43   10.64
   1  -5  -8   11.03    8.52
  -1  -5   8   10.02    1.08
   1  -5  -8   17.81   25.38
   1  -5  -8    9.46    1.19
   1  -5  -8   34.29   15.41
  -1   5   8    8.13    1.14
   1   5  -8    8.06   18.61
  -1   5   8   10.22    0.98
   1   5  -8   11.86    1.27
   1   5  -8   23.84   16.11
   1   5  -8   21.38   34.20
   1   5  -8    1.89    8.27
   1   5  -8    7.40   10.46
   1   5  -8    8.35    9.10
   0  -5  -8   53.88   10.95
   0  -5  -8   53.38    2.67
   0  -5  -8   57.18   11.87
   0  -5   8   55.18    2.53
   0  -5  -8   69.33   15.91
   0  -5  -8   62.18   16.85
   0   5   8   52.47    2.40
   0   5  -8  101.41   33.85
   0   5  -8   51.93   10.82
   0   5  -8   56.79    2.63
   0   5  -8   38.20    9.99
   0   5   8   52.60    2.45
  -1  -5  -8   13.86    1.39
   1  -5   8   14.17    1.22
  -1   5  -8    7.96   12.72
   1   5   8   13.16    1.04
  -1   5  -8   13.32    1.39
  -1   5  -8   31.24   20.39
  -1   5  -8   25.82   10.32
   1   5   8   16.35    0.87
  -1   5  -8    6.66    7.27
   1   5   8   14.18    1.05
  -2  -5  -8   29.27    2.01
   2  -5   8   28.35    1.73
   2   5   8   30.66    1.58
   2   5   8   29.49    1.70
  -3  -6   8    3.10    0.83
   3  -6  -8    2.18    0.73
  -3   6   8    3.61    0.73
  -3   6   8    1.60    0.87
   2  -6  -8   80.33    3.57
  -2  -6   8   76.35    3.53
  -2   6   8   86.19    3.50
  -2   6   8   77.52    3.60
  -1  -6   8   52.20    2.59
   1  -6  -8   53.65    2.68
  -1   6   8   55.44    2.52
   1   6  -8   59.86    3.30
  -1   6   8   52.58    2.46
  -1   6   8   54.45    2.51
   0  -6   8    3.45    0.68
   0  -6  -8    2.27    0.75
   0   6  -8  -10.34   30.59
   0   6   8    3.36    0.59
   0   6  -8    3.69    8.46
   0   6   8    3.57    0.55
   0   6  -8   10.35   11.38
   0   6  -8    4.86    7.08
   0   6  -8    4.12    0.78
   1  -6   8  141.38   31.65
   1  -6   8  159.44    6.57
   1  -6   8  179.87   19.88
   1  -6   8  175.91   25.60
   1  -6   8  152.02   17.01
  -1  -6  -8  163.69    6.83
   1   6   8  175.37    6.38
  -1   6  -8  132.99   21.96
  -1   6  -8  165.75   18.28
  -1   6  -8  156.67   17.26
  -1   6  -8  137.83   29.08
   1   6   8  164.16    6.38
   1   6   8  159.93    6.57
  -2  -6  -8    8.58    1.49
   2  -6   8    9.69    1.25
   2   6   8    9.79    1.12
   2   6   8    8.69    0.90
  -2  -7   8    1.24    0.72
   2  -7  -8    1.34    0.65
  -2   7   8    1.25    0.57
  -2   7   8    1.93    0.78
   1  -7  -8  139.22    5.92
  -1  -7   8  143.27    5.84
  -1   7   8  144.80    5.74
  -1   7   8  142.48    5.80
  -1   7   8  139.36    5.71
   0  -7  -8   67.87    3.15
   0  -7   8   63.43    2.97
   0   7  -8   60.01   25.41
   0   7  -8   57.04   20.33
   0   7   8   63.97    2.92
   0   7   8   62.81    2.82
   0   7  -8   66.62    3.06
   0   7  -8   70.45   13.06
   1  -7   8   36.13   15.38
   1  -7   8  -13.12   17.49
   1  -7   8   25.79   21.57
  -1  -7  -8    5.56    0.93
   1  -7   8    5.16    0.78
   1  -7   8    6.60   20.37
  -1   7  -8   -8.93   16.67
   1   7   8    5.92    0.72
   1   7   8    5.70    0.90
  -1   7  -8   15.03   10.23
  -1   7  -8    7.27   11.35
  -1   7  -8    4.74   13.05
   2  -7   8   70.12    3.35
  -2  -7  -8   74.37    3.66
   2   7   8   72.39    3.33
   2   7   8   80.17    3.14
   2  -8  -8   95.26    4.21
  -2  -8   8   91.23    4.19
  -2   8   8  100.99    4.14
  -2   8   8   99.72    4.27
  -2   8   8   93.77    4.11
   1  -8  -8   26.34    1.88
  -1  -8   8   28.57    1.80
  -1   8   8   29.75    1.67
  -1   8   8   30.88    1.70
  -1   8   8   30.05    1.66
   0  -8  -8   89.83    4.22
   0  -8   8   95.42    4.11
   0   8   8   92.71    3.89
   0   8  -8   95.58    4.12
   0   8   8   95.00    4.03
   1  -8   8   73.83   24.80
   1  -8   8   81.25    3.70
   1  -8   8   97.10   26.07
  -1  -8  -8   84.45    3.86
   1  -8   8   25.18   25.08
  -1   8  -8   43.44   17.53
  -1   8  -8   71.13   22.94
  -1   8  -8  110.80   26.77
   1   8   8   83.16    3.64
   1   8   8   86.57    3.41
  -1  -9   8   72.99    3.52
   1  -9  -8   74.63    3.58
  -1   9   8   78.20    3.41
  -1   9   8   80.63    3.36
  -1   9   8   75.56    3.32
   0  -9   8  181.41    7.19
   0  -9  -8  171.36    7.32
   0   9   8  176.83    7.13
   0   9  -8  174.98    7.16
   0   9   8  175.56    6.97
   1  -9   8    8.65    1.35
  -1  -9  -8    7.20    1.40
   1   9   8    6.48    1.07
   1   9   8    8.61    0.85
  -1 -10   8   13.10    1.58
   1 -10  -8   12.16    1.48
  -1  10   8   16.79    1.24
  -1  10   8   12.79    1.27
   0 -10   8    1.22    0.77
   0 -10  -8    2.73    0.79
   0  10   8    2.10    0.64
   0  10   8    2.04    0.61
   2   0  -9   -6.48   19.17
   2   0  -9    7.80   18.33
   2   0  -9    3.67   15.01
   2   0  -9   10.22   11.07
   1   0  -9    2.65    7.13
   1   0  -9   -1.84    9.48
   1   0  -9   -0.94   13.22
   1   0  -9    0.28    7.57
  -1   0   9   -1.06    0.71
   1   0  -9  -19.94   17.18
   1   0  -9   -3.10   19.64
   1   0  -9    8.19   12.51
  -1   0   9    0.49    0.51
   1   0  -9  -34.46   18.71
   1   0  -9    0.30    0.70
   0   0  -9    0.41    0.67
   0   0  -9  -17.34   18.25
   0   0   9    0.57    0.49
   0   0  -9    2.53    7.82
   0   0  -9    6.93   10.12
   0   0  -9    1.46   15.93
   1   0   9    0.43    0.46
   1   0   9    0.34    0.55
  -1   0  -9    1.70    0.76
  -2   0  -9    1.21    0.83
   2   0   9   -0.01    0.60
  -2  -1   9   17.68    1.42
   2  -1  -9   10.32    9.93
   2  -1  -9    6.49   11.45
   2  -1  -9    7.12   20.77
   2  -1  -9   18.82    1.52
  -2  -1   9   19.90    1.86
   2  -1  -9   -7.39   14.73
   2   1  -9   18.50   25.32
   2   1  -9   21.40    1.43
   2   1  -9    9.03   12.82
  -2   1   9   20.41    1.77
   2   1  -9    6.03   12.18
  -2   1   9   18.10    1.43
   2   1  -9   31.86   19.02
  -1  -1   9    5.81    1.03
   1  -1  -9   -1.23    9.58
   1  -1  -9   26.91   13.59
   1  -1  -9   23.71   18.24
   1  -1  -9    6.72    1.22
  -1  -1   9    8.90    1.38
   1  -1  -9    6.72    8.96
   1  -1  -9    2.20    9.90
   1  -1  -9   -3.42   13.24
   1  -1  -9   -2.36   12.72
   1   1  -9    7.20   25.14
  -1   1   9    6.80    1.24
   1   1  -9   -9.93   17.41
   1   1  -9    7.94    8.91
   1   1  -9   21.47   23.68
   1   1  -9    6.07    7.84
   1   1  -9   11.13   14.45
  -1   1   9    6.93    1.02
   1   1  -9    7.63    1.19
   1   1  -9   19.38   14.19
   1   1  -9   13.65   10.50
   0  -1  -9    9.96   17.14
   0  -1   9   13.41    1.17
   0  -1  -9    6.93   12.37
   0  -1  -9   14.72   19.13
   0  -1  -9   13.07    1.43
   0  -1  -9    9.09    7.11
   0   1  -9    8.28   11.42
   0   1  -9   13.43    9.66
   0   1  -9   -9.31   17.80
   0   1  -9   13.89    1.39
   0   1  -9   28.57   19.12
   0   1   9   11.46    1.13
  -1  -1  -9   91.07    4.10
   1  -1   9   89.02    3.78
   1  -1   9   87.22    3.77
   1   1   9   90.01    3.74
  -1   1  -9   91.57    4.09
   1   1   9   87.28    3.79
   2  -1   9    2.91    0.72
   2  -1   9    3.08    0.67
  -2  -1  -9    4.11    1.03
  -2   1  -9    3.21    0.95
   2   1   9    4.29    0.74
   2  -2  -9    4.57   13.17
   2  -2  -9   31.05   28.24
   2  -2  -9   -7.97   13.38
   2   2  -9    4.53   11.20
   2   2  -9   13.83    9.69
   2   2  -9  -19.37   44.00
   2   2  -9    5.37   15.43
   1  -2  -9   86.28    3.88
   1  -2  -9  121.72   23.65
   1  -2  -9   70.86   22.66
   1  -2  -9   74.24   13.99
   1  -2  -9   85.49   16.67
  -1  -2   9   80.72    3.89
  -1  -2   9   84.72    3.71
  -1   2   9   85.28    3.66
   1   2  -9   87.83   22.49
   1   2  -9  114.38   19.07
   1   2  -9  106.52   16.95
  -1   2   9   84.55    3.73
   1   2  -9  123.76   34.94
   1   2  -9   66.15   21.67
   1   2  -9   87.82    3.81
   1   2  -9   81.60   19.87
   0  -2  -9   55.99   11.93
   0  -2  -9   57.99    2.85
   0  -2  -9   93.27   19.47
   0  -2   9   53.07    2.60
   0  -2  -9   36.34   18.77
   0  -2  -9   87.09   21.24
   0   2  -9   66.03   12.33
   0   2  -9   34.61   10.53
   0   2  -9  184.89   47.66
   0   2   9   51.75    2.52
   0   2  -9   58.99    2.80
  -1  -2  -9    8.81    1.33
   1  -2   9    7.78    1.16
  -1   2  -9    7.55    1.30
   1   2   9    7.63    1.07
   1   2   9    8.53    0.94
  -2  -2  -9   20.61    1.81
   2  -2   9   17.37    1.30
   2  -2   9   20.42    1.47
   2   2   9   17.48    1.40
  -2   2  -9   15.86    1.74
  -2  -3   9  116.08    4.85
  -2  -3   9  110.29    5.14
   2  -3  -9  115.61    4.91
  -2   3   9  115.14    4.81
  -2   3   9  112.12    5.00
   2   3  -9  184.63   40.00
   2   3  -9  132.59   27.25
   2   3  -9  138.68   26.10
   1  -3  -9  -13.95   19.68
   1  -3  -9   25.70    1.79
   1  -3  -9    5.69    8.35
  -1  -3   9   25.91    1.68
   1  -3  -9   15.45   10.37
   1  -3  -9   29.10   14.24
  -1   3   9   27.56    1.56
   1   3  -9   27.20   20.56
   1   3  -9   25.95    1.74
  -1   3   9   24.54    1.68
   1   3  -9   11.93    8.22
   1   3  -9   29.83   14.88
   1   3  -9   24.80   10.53
   0  -3  -9  147.25    6.16
   0  -3   9  153.81    5.97
   0  -3  -9   87.26   21.27
   0  -3  -9  118.51   29.87
   0   3  -9  114.03   30.00
   0   3  -9  137.72   15.26
   0   3  -9  215.50   39.26
   0   3  -9  144.62    6.09
   0   3   9  144.68    5.87
   0   3  -9  224.81   30.22
  -1  -3  -9  113.57    4.93
   1  -3   9  106.05    4.62
   1   3   9  110.84    4.64
  -1   3  -9  115.10    4.91
   1   3   9  111.69    4.54
  -2  -3  -9    2.21    0.97
   2  -3   9    0.67    0.59
   2  -3   9    0.87    0.74
   2   3   9    0.88    0.63
  -2   3  -9   -0.47    0.86
  -2  -4   9   17.99    1.57
   2  -4  -9   20.21    1.60
  -2   4   9   22.76    1.50
  -2   4   9   17.82    1.82
   1  -4  -9  231.78    9.46
   1  -4  -9  195.53   19.09
   1  -4  -9  207.04   21.99
   1  -4  -9  200.43   32.95
   1  -4  -9  232.76   33.36
  -1  -4   9  233.92    9.31
   1   4  -9  249.07    9.35
   1   4  -9  263.35   28.23
   1   4  -9  242.30   27.93
   1   4  -9  266.97   36.15
   1   4  -9  296.66   24.69
  -1   4   9  235.83    9.23
  -1   4   9  223.51    9.22
   0  -4  -9   26.17    1.78
   0  -4   9   27.03    1.65
   0   4   9   24.03    1.48
   0   4  -9   24.54   15.68
   0   4   9   25.84    1.54
   0   4  -9   44.77   25.66
   0   4  -9   28.08    1.80
   0   4  -9   24.41   11.01
  -1  -4  -9   12.98    1.52
   1  -4   9   13.85    1.34
  -1   4  -9   12.89    1.55
   1   4   9   11.36    1.09
   1   4   9   14.40    1.12
   2  -5  -9   48.31    2.56
  -2  -5   9   48.96    2.51
  -2   5   9   50.52    2.48
  -2   5   9   48.91    2.68
   1  -5  -9  -13.26   15.68
  -1  -5   9   29.08    1.82
   1  -5  -9   28.69    1.94
   1  -5  -9   70.59   20.33
   1  -5  -9   53.00   17.65
   1  -5  -9    7.45   20.51
   1   5  -9   44.57   21.81
   1   5  -9   27.34   10.92
  -1   5   9   29.62    1.70
   1   5  -9   29.06    1.89
   1   5  -9   36.55   13.13
   0  -5  -9   40.91    2.34
   0  -5   9   40.60    2.18
   0   5  -9   42.49   17.31
   0   5   9   39.39    2.06
   0   5  -9   39.79   13.39
   0   5  -9   41.68    2.30
   0   5   9   41.90    2.07
   0   5  -9   55.70   22.37
   0   5  -9   61.85   39.92
   1  -5   9  229.75    9.32
  -1  -5  -9  232.90    9.65
  -1   5  -9  246.55    9.56
   1   5   9  235.07    9.35
   1   5   9  232.05    9.15
   2  -6  -9   -0.22    0.74
  -2  -6   9    0.40    0.75
  -2   6   9   -1.73    0.80
  -2   6   9    1.73    0.65
   1   6  -9   38.21   17.54
   1   6  -9   92.99   23.68
   1   6  -9   42.37   32.11
   1   6  -9   64.10   23.15
   0  -6  -9   38.03    2.27
   0  -6   9   34.78    2.27
   0   6   9   36.06    1.93
   0   6   9   36.75    1.95
   0   6  -9   32.87    2.19
   0   6   9   41.90    1.72
  -1  -6  -9   12.96    1.50
   1  -6   9    9.68    1.31
   1   6   9   13.08    1.13
   1   6   9   12.02    1.16
  -1   6  -9   10.06    1.64
   1  -7  -9   15.10    1.52
  -1  -7   9   16.80    1.54
  -1   7   9   15.57    1.32
  -1   7   9   16.76    1.28
   0  -7  -9   -0.71    0.78
   0  -7   9   -0.09    0.72
   0   7   9   -0.13    0.56
   0   7  -9    0.45    0.89
   0   7   9    0.30    0.64
   0   7   9    0.64    0.44
   1   0 -10    1.43    0.92
  -1   0  10    0.24    0.61
  -1   0  10    0.32    0.88
   0   0  10  123.94    5.38
   0   0 -10  139.25    5.72
  -1  -1  10  133.33    5.61
   1  -1 -10  133.24    5.80
  -1   1  10  132.15    5.58
   1   1 -10  141.76    5.78
   0  -1  10   16.64    1.37
   0  -1 -10   14.26    1.68
   0   1  10   13.19    1.33
   0   1 -10   12.53    1.67
  -1  -2  10   33.84    2.00
  -1  -2  10   39.09    2.43
   1  -2 -10   33.45    2.26
   1   2 -10   32.82    2.17
  -1   2  10   32.47    1.93
   0  -2 -10  114.74    4.99
   0  -2  10  108.02    4.74
   0   2 -10  116.59    4.99
   0   2  10  110.42    4.68
   0  -3  10   14.88    1.49
   0  -3 -10   14.86    1.60
   0   3  10   16.67    1.26
   0   3 -10   15.76    1.72
   0   3  10   17.15    1.42
   0   0   0    0.00    0.00
;
_shelx_hkl_checksum              47270
loop_
_space_group_symop_operation_xyz
'x, y, z'
'-x, y+1/2, -z+1/2'
'-x, -y, -z'
'x, -y-1/2, z-1/2'
loop_
_atom_site_label
_atom_site_type_symbol
_atom_site_fract_x
_atom_site_fract_y
_atom_site_fract_z
_atom_site_U_iso_or_equiv
_atom_site_adp_type
_atom_site_occupancy
_atom_site_site_symmetry_order
_atom_site_calc_flag
_atom_site_refinement_flags_posn
_atom_site_refinement_flags_adp
_atom_site_refinement_flags_occupancy
_atom_site_disorder_assembly
_atom_site_disorder_group
La1 La 0.32481(3) 0.18827(2) 0.95875(2) 0.00861(7) Uani 1 1 d . . . . .
P1 P -0.18274(17) 0.21040(6) 1.24123(11) 0.00934(16) Uani 1 1 d . . . . .
P2 P 0.34223(17) 0.44057(6) 1.04608(11) 0.00957(15) Uani 1 1 d . . . . .
P3 P -0.17302(16) 0.02553(6) 0.89835(10) 0.00974(16) Uani 1 1 d . . . . .
Si1 Si 0.02896(17) -0.05403(6) 0.68052(11) 0.00875(16) Uani 1 1 d . . . . .
loop_
_atom_site_aniso_label
_atom_site_aniso_U_11
_atom_site_aniso_U_22
_atom_site_aniso_U_33
_atom_site_aniso_U_23
_atom_site_aniso_U_13
_atom_site_aniso_U_12
La1 0.00593(10) 0.01034(10) 0.00945(11) 0.00119(6) -0.00038(7) 0.00002(5)
P1 0.0070(3) 0.0103(3) 0.0104(4) -0.0010(3) -0.0010(3) 0.0014(3)
P2 0.0066(3) 0.0115(3) 0.0106(4) -0.0005(3) 0.0002(3) 0.0001(3)
P3 0.0088(3) 0.0114(3) 0.0091(4) -0.0001(3) 0.0015(3) 0.0023(3)
Si1 0.0075(3) 0.0105(3) 0.0083(4) 0.0003(3) 0.0009(3) 0.0008(3)
loop_
_atom_type_symbol
_atom_type_description
_atom_type_scat_dispersion_real
_atom_type_scat_dispersion_imag
_atom_type_scat_source
Si Si 0.0817 0.0704 'International Tables Vol C Tables 4.2.6.8 and 6.1.1.4'
P P 0.1023 0.0942 'International Tables Vol C Tables 4.2.6.8 and 6.1.1.4'
La La -0.2871 2.4523 'International Tables Vol C Tables 4.2.6.8 and 6.1.1.4'
loop_
_geom_angle_atom_site_label_1
_geom_angle_atom_site_label_2
_geom_angle_atom_site_label_3
_geom_angle
_geom_angle_site_symmetry_1
_geom_angle_site_symmetry_3
_geom_angle_publ_flag
P1 La1 P1 147.670(12) 4_565 1_655 ?
P1 La1 P3 73.77(2) 4_565 . ?
P1 La1 P3 130.51(2) 1_655 . ?
P1 La1 P3 115.76(2) 4_565 3_557 ?
P1 La1 P3 88.29(2) 1_655 3_557 ?
P3 La1 P3 42.93(3) . 3_557 ?
P1 La1 P3 134.89(2) 4_565 1_655 ?
P1 La1 P3 72.77(2) 1_655 1_655 ?
P3 La1 P3 90.53(2) . 1_655 ?
P3 La1 P3 67.49(3) 3_557 1_655 ?
P1 La1 P1 90.29(2) 4_565 4_665 ?
P1 La1 P1 83.749(19) 1_655 4_665 ?
P3 La1 P1 135.31(2) . 4_665 ?
P3 La1 P1 138.73(2) 3_557 4_665 ?
P3 La1 P1 71.48(2) 1_655 4_665 ?
P1 La1 P1 81.482(19) 4_565 . ?
P1 La1 P1 87.76(2) 1_655 . ?
P3 La1 P1 70.18(2) . . ?
P3 La1 P1 69.74(2) 3_557 . ?
P3 La1 P1 133.10(2) 1_655 . ?
P1 La1 P1 149.607(10) 4_665 . ?
P1 La1 P2 72.58(2) 4_565 . ?
P1 La1 P2 75.34(2) 1_655 . ?
P3 La1 P2 135.80(2) . . ?
P3 La1 P2 143.58(2) 3_557 . ?
P3 La1 P2 133.661(19) 1_655 . ?
P1 La1 P2 72.42(2) 4_665 . ?
P1 La1 P2 77.20(2) . . ?
Si1 P1 La1 92.19(3) 3_557 4_566 ?
Si1 P1 La1 108.13(4) 3_557 1_455 ?
La1 P1 La1 158.02(3) 4_566 1_455 ?
Si1 P1 La1 115.77(4) 3_557 4_466 ?
La1 P1 La1 90.29(2) 4_566 4_466 ?
La1 P1 La1 88.31(2) 1_455 4_466 ?
Si1 P1 La1 84.64(3) 3_557 . ?
La1 P1 La1 85.87(2) 4_566 . ?
La1 P1 La1 87.76(2) 1_455 . ?
La1 P1 La1 159.40(3) 4_466 . ?
P2 P2 Si1 96.30(5) 3_667 4_566 ?
P2 P2 Si1 97.91(5) 3_667 2_556 ?
Si1 P2 Si1 86.40(4) 4_566 2_556 ?
P2 P2 La1 127.99(5) 3_667 . ?
Si1 P2 La1 135.29(4) 4_566 . ?
Si1 P2 La1 82.18(3) 2_556 . ?
P3 P3 Si1 98.19(5) 3_557 . ?
P3 P3 La1 69.45(4) 3_557 . ?
Si1 P3 La1 97.37(3) . . ?
P3 P3 La1 67.62(4) 3_557 3_557 ?
Si1 P3 La1 88.68(3) . 3_557 ?
La1 P3 La1 137.07(3) . 3_557 ?
P3 P3 La1 122.61(5) 3_557 1_455 ?
Si1 P3 La1 138.43(4) . 1_455 ?
La1 P3 La1 90.53(2) . 1_455 ?
La1 P3 La1 112.51(2) 3_557 1_455 ?
P1 Si1 P3 109.27(5) 3_557 . ?
P1 Si1 P2 122.28(5) 3_557 4_565 ?
P3 Si1 P2 109.77(4) . 4_565 ?
P1 Si1 P2 111.80(4) 3_557 2_546 ?
P3 Si1 P2 108.74(4) . 2_546 ?
P2 Si1 P2 93.60(4) 4_565 2_546 ?
loop_
_geom_bond_atom_site_label_1
_geom_bond_atom_site_label_2
_geom_bond_distance
_geom_bond_site_symmetry_2
_geom_bond_publ_flag
La1 P1 2.9892(8) 4_565 ?
La1 P1 2.9895(8) 1_655 ?
La1 P3 3.0096(8) . ?
La1 P3 3.0477(8) 3_557 ?
La1 P3 3.0662(8) 1_655 ?
La1 P1 3.0985(8) 4_665 ?
La1 P1 3.2323(9) . ?
La1 P2 3.3038(8) . ?
P1 Si1 2.1863(11) 3_557 ?
P1 La1 2.9892(8) 4_566 ?
P1 La1 2.9895(8) 1_455 ?
P1 La1 3.0985(8) 4_466 ?
P2 P2 2.1968(15) 3_667 ?
P2 Si1 2.2898(11) 4_566 ?
P2 Si1 2.3211(10) 2_556 ?
P3 P3 2.2167(15) 3_557 ?
P3 Si1 2.2204(11) . ?
P3 La1 3.0478(8) 3_557 ?
P3 La1 3.0662(8) 1_455 ?
Si1 P1 2.1863(11) 3_557 ?
Si1 P2 2.2899(11) 4_565 ?
Si1 P2 2.3211(10) 2_546 ?
