#------------------------------------------------------------------------------
#$Date: 2021-09-06 14:20:33 +0300 (Mon, 06 Sep 2021) $
#$Revision: 268789 $
#$URL: file:///home/coder/svn-repositories/cod/cif/7/70/76/7707653.cif $
#------------------------------------------------------------------------------
#
# This file is available in the Crystallography Open Database (COD),
# http://www.crystallography.net/
#
# All data on this site have been placed in the public domain by the
# contributors.
#
data_7707653
loop_
_publ_author_name
'Khrustalev, Victor N.'
'Grishina, Maria M.'
'Matsulevich, Zhanna V.'
'Lukiyanova, Julia M.'
'Borisova, Galina N.'
'Osmanov, Vladimir K.'
'Novikov, Alexander S.'
'Kirichuk, Anatoly A.'
'Borisov, Alexander V.'
'Solari, Euro'
'Tskhovrebov, Alexander G.'
_publ_section_title
;
 Novel cationic 1,2,4-selenadiazoles: synthesis via addition of
 2-pyridylselenyl halides to unactivated nitriles, structures and
 four-center SeN contacts.
;
_journal_issue                   31
_journal_name_full
'Dalton transactions (Cambridge, England : 2003)'
_journal_page_first              10689
_journal_page_last               10691
_journal_paper_doi               10.1039/d1dt01322j
_journal_volume                  50
_journal_year                    2021
_chemical_formula_moiety         'C7 H7 N2 Se, Cl'
_chemical_formula_sum            'C7 H7 Cl N2 Se'
_chemical_formula_weight         233.56
_space_group_crystal_system      monoclinic
_space_group_IT_number           14
_space_group_name_Hall           '-P 2yn'
_space_group_name_H-M_alt        'P 1 21/n 1'
_atom_sites_solution_hydrogens   geom
_atom_sites_solution_primary     difmap
_atom_sites_solution_secondary   difmap
_audit_creation_method           SHELXL-2013
_audit_update_record
;
2021-03-14 deposited with the CCDC.	2021-06-09 downloaded from the CCDC.
;
_cell_angle_alpha                90
_cell_angle_beta                 99.1730(10)
_cell_angle_gamma                90
_cell_formula_units_Z            4
_cell_length_a                   7.0750(4)
_cell_length_b                   9.3531(5)
_cell_length_c                   12.5898(7)
_cell_measurement_reflns_used    6317
_cell_measurement_temperature    120(2)
_cell_measurement_theta_max      32.60
_cell_measurement_theta_min      2.73
_cell_volume                     822.45(8)
_computing_cell_refinement       'SAINT (Bruker, 2001)'
_computing_data_collection       'APEX2 (Bruker, 2005)'
_computing_data_reduction        'SAINT (Bruker, 2001)'
_computing_molecular_graphics    'SHELXTL (Sheldrick, 2008)'
_computing_publication_material  'SHELXTL (Sheldrick, 2008)'
_computing_structure_refinement  'SHELXTL (Sheldrick, 2008)'
_computing_structure_solution    'SHELXTL (Sheldrick, 2008)'
_diffrn_ambient_temperature      120(2)
_diffrn_measured_fraction_theta_full 1.000
_diffrn_measured_fraction_theta_max 1.000
_diffrn_measurement_device_type  'Bruker APEX-II CCD'
_diffrn_measurement_method       '\f and \w scans'
_diffrn_radiation_type           MoK\a
_diffrn_radiation_wavelength     0.71073
_diffrn_reflns_av_R_equivalents  0.0340
_diffrn_reflns_av_unetI/netI     0.0279
_diffrn_reflns_Laue_measured_fraction_full 1.000
_diffrn_reflns_Laue_measured_fraction_max 1.000
_diffrn_reflns_limit_h_max       10
_diffrn_reflns_limit_h_min       -10
_diffrn_reflns_limit_k_max       14
_diffrn_reflns_limit_k_min       -14
_diffrn_reflns_limit_l_max       19
_diffrn_reflns_limit_l_min       -19
_diffrn_reflns_number            12580
_diffrn_reflns_point_group_measured_fraction_full 1.000
_diffrn_reflns_point_group_measured_fraction_max 1.000
_diffrn_reflns_theta_full        25.242
_diffrn_reflns_theta_max         32.604
_diffrn_reflns_theta_min         2.725
_exptl_absorpt_coefficient_mu    4.821
_exptl_absorpt_correction_T_max  0.722
_exptl_absorpt_correction_T_min  0.315
_exptl_absorpt_correction_type   multi-scan
_exptl_absorpt_process_details
; 
 SADABS 2016/2: Krause, L., Herbst-Irmer, R., Sheldrick G.M. & Stalke D., 
 J. Appl. Cryst. 48 (2015) 3-10. 
;
_exptl_crystal_colour            colourless
_exptl_crystal_density_diffrn    1.886
_exptl_crystal_description       plate
_exptl_crystal_F_000             456
_exptl_crystal_size_max          0.25
_exptl_crystal_size_mid          0.20
_exptl_crystal_size_min          0.05
_refine_diff_density_max         0.502
_refine_diff_density_min         -0.748
_refine_diff_density_rms         0.122
_refine_ls_extinction_method     none
_refine_ls_goodness_of_fit_ref   1.074
_refine_ls_hydrogen_treatment    constr
_refine_ls_matrix_type           full
_refine_ls_number_parameters     101
_refine_ls_number_reflns         3005
_refine_ls_number_restraints     0
_refine_ls_restrained_S_all      1.074
_refine_ls_R_factor_all          0.0275
_refine_ls_R_factor_gt           0.0232
_refine_ls_shift/su_max          0.001
_refine_ls_shift/su_mean         0.000
_refine_ls_structure_factor_coef Fsqd
_refine_ls_weighting_details
'w=1/[\s^2^(Fo^2^)+(0.0294P)^2^+0.1894P] where P=(Fo^2^+2Fc^2^)/3'
_refine_ls_weighting_scheme      calc
_refine_ls_wR_factor_gt          0.0572
_refine_ls_wR_factor_ref         0.0591
_reflns_Friedel_coverage         0.000
_reflns_number_gt                2688
_reflns_number_total             3005
_reflns_threshold_expression     'I > 2\s(I)'
_cod_data_source_file            d1dt01322j2.cif
_cod_data_source_block           3
_cod_depositor_comments
'Adding full bibliography for 7707653--7707655.cif.'
_cod_original_sg_symbol_H-M      'P 21/n'
_cod_database_code               7707653
_shelx_space_group_comment
; 
The symmetry employed for this shelxl refinement is uniquely defined 
by the following loop, which should always be used as a source of 
symmetry information in preference to the above space-group names. 
They are only intended as comments. 
;
_shelx_estimated_absorpt_t_min   0.379
_shelx_estimated_absorpt_t_max   0.795
_shelxl_version_number           2013-4
_shelx_res_file
; 
TITL 3 in P2(1)/n 
CELL 0.71073   7.0750   9.3531  12.5898  90.000  99.173  90.000 
ZERR    4.00   0.0004   0.0005   0.0007   0.000   0.001   0.000 
LATT  1 
SYMM 0.5-X, 0.5+Y, 0.5-Z 
SFAC C H N CL SE 
UNIT 28 28 8 4 4 
TEMP -153.0 
SIZE 0.05 0.20 0.25 
  
L.S. 12 
BOND $H 
ACTA 
CONF 
  
WGHT    0.029400    0.189400 
FVAR       0.11577 
SE1   5    0.208256    0.444313    0.414594    11.00000    0.01780    0.01699 = 
         0.02177   -0.00047    0.00661   -0.00104 
CL1   4    0.411774    0.180708    0.348517    11.00000    0.02523    0.01933 = 
         0.02571   -0.00165    0.00423    0.00126 
N1    3    0.106367    0.611791    0.458488    11.00000    0.02000    0.01970 = 
         0.02513   -0.00105    0.00749    0.00147 
N2    3    0.365902    0.697103    0.388422    11.00000    0.01727    0.01775 = 
         0.01946    0.00009    0.00493   -0.00013 
C1    1    0.202820    0.721851    0.438499    11.00000    0.01840    0.02039 = 
         0.02137   -0.00034    0.00542    0.00224 
C2    1    0.395204    0.556632    0.366415    11.00000    0.01904    0.01794 = 
         0.01855   -0.00013    0.00447   -0.00023 
C3    1    0.551013    0.517390    0.316909    11.00000    0.02088    0.02202 = 
         0.02215   -0.00141    0.00873    0.00069 
AFIX  43 
H3    2    0.572399    0.419956    0.301118    11.00000   -1.20000 
AFIX   0 
C4    1    0.673340    0.622650    0.291338    11.00000    0.02301    0.02739 = 
         0.02589    0.00042    0.01017   -0.00097 
AFIX  43 
H4    2    0.780242    0.598207    0.257940    11.00000   -1.20000 
AFIX   0 
C5    1    0.638373    0.765961    0.315107    11.00000    0.02550    0.02460 = 
         0.03056    0.00278    0.01087   -0.00513 
AFIX  43 
H5    2    0.722208    0.838388    0.297408    11.00000   -1.20000 
AFIX   0 
C6    1    0.485827    0.802637    0.363223    11.00000    0.02464    0.01765 = 
         0.02541    0.00101    0.00683   -0.00248 
AFIX  43 
H6    2    0.462934    0.899820    0.379060    11.00000   -1.20000 
AFIX   0 
C7    1    0.151911    0.870992    0.465172    11.00000    0.02497    0.01989 = 
         0.03145   -0.00236    0.00680    0.00396 
AFIX 137 
H7A   2    0.033621    0.869955    0.496433    11.00000   -1.50000 
H7B   2    0.132943    0.929013    0.399517    11.00000   -1.50000 
H7C   2    0.255735    0.911950    0.517084    11.00000   -1.50000 
  
AFIX   0 
HKLF 4 
  
REM  3 in P2(1)/n 
REM R1 =  0.0232 for    2688 Fo > 4sig(Fo)  and  0.0275 for all    3005 data 
REM    101 parameters refined using      0 restraints 
  
END 
  
WGHT      0.0294      0.1894 
  
REM Highest difference peak  0.502,  deepest hole -0.748,  1-sigma level  0.122 
Q1    1   0.1276  0.3982  0.3836  11.00000  0.05    0.50 
Q2    1   0.1404  0.4990  0.3765  11.00000  0.05    0.46 
Q3    1   0.2783  0.3945  0.4533  11.00000  0.05    0.45 
Q4    1   0.2129  0.4763  0.3604  11.00000  0.05    0.43 
Q5    1   0.2124  0.4156  0.3559  11.00000  0.05    0.42 
Q6    1   0.1792  0.4435  0.3417  11.00000  0.05    0.39 
Q7    1   0.2018  0.4413  0.4791  11.00000  0.05    0.38 
Q8    1   0.1769  0.4051  0.4604  11.00000  0.05    0.37 
Q9    1   0.2903  0.4808  0.4516  11.00000  0.05    0.37 
Q10   1   0.2796  0.4979  0.3731  11.00000  0.05    0.35 
Q11   1   0.6552  0.6863  0.3191  11.00000  0.05    0.31 
Q12   1   0.8072  0.5450  0.3969  11.00000  0.05    0.30 
Q13   1   0.1434  0.4397  0.3007  11.00000  0.05    0.29 
Q14   1   0.1822  0.4827  0.4645  11.00000  0.05    0.29 
Q15   1   0.8041  0.5908  0.4059  11.00000  0.05    0.28 
Q16   1   0.1484  0.7832  0.6264  11.00000  0.05    0.28 
Q17   1   0.3325  0.2233  0.3046  11.00000  0.05    0.28 
Q18   1   0.1728  0.9276  0.6029  11.00000  0.05    0.27 
Q19   1   0.6306  0.5648  0.3141  11.00000  0.05    0.27 
Q20   1   0.0258  0.3957  0.3208  11.00000  0.05    0.27 
;
_shelx_res_checksum              90008
_shelx_hkl_file
; 
   1   0   0   -0.04    0.02 
  -1   0   0    0.00    0.03 
  -1   0   0    0.01    0.02 
  -1   0   0   -0.03    0.04 
   2   0   0   73.40    2.55 
  -2   0   0   75.47    2.93 
  -2   0   0   65.23    2.69 
  -3   0   0   -0.02    0.05 
   3   0   0    0.03    0.05 
  -3   0   0    0.06    0.07 
  -4   0   0    1.92    0.13 
   4   0   0    2.03    0.16 
  -4   0   0    1.68    0.16 
  -5   0   0    0.02    0.06 
   5   0   0    0.09    0.10 
  -5   0   0    0.05    0.09 
   6   0   0    2.19    0.20 
  -6   0   0    1.91    0.18 
  -7   0   0    0.06    0.11 
   7   0   0   -0.12    0.12 
  -8   0   0    4.95    0.30 
   8   0   0    4.64    0.33 
   9   0   0   -0.33    0.14 
  -9   0   0    0.06    0.11 
 -10   0   0   11.77    0.53 
  10   0   0   10.67    0.57 
   0   1   0    0.43    0.05 
  -1  -1   0    5.44    0.22 
   1  -1   0    5.33    0.20 
   1   1   0    5.21    0.20 
   1   1   0    4.82    0.24 
  -1   1   0    5.45    0.24 
  -1   1   0    5.20    0.21 
   2  -1   0   45.72    1.65 
  -2  -1   0   45.30    1.74 
  -2   1   0   47.52    1.90 
  -2   1   0   45.69    1.74 
   2   1   0   44.96    1.91 
   2   1   0   47.00    1.65 
  -3  -1   0   37.43    1.46 
   3  -1   0   38.55    1.38 
  -3   1   0   37.84    1.57 
   3   1   0   37.76    1.58 
  -3   1   0   36.60    1.46 
   3   1   0   39.22    1.38 
   4  -1   0   11.36    0.47 
  -4  -1   0   12.50    0.52 
  -4  -1   0   11.10    0.51 
   4   1   0   11.53    0.47 
  -4   1   0   11.60    0.51 
  -4   1   0   11.17    0.51 
  -5  -1   0   39.28    1.68 
  -5  -1   0   45.87    1.80 
   5  -1   0   42.95    1.60 
  -5   1   0   44.17    1.69 
  -5   1   0   43.47    1.79 
   5   1   0   43.58    1.60 
  -6  -1   0    7.01    0.33 
   6  -1   0    6.79    0.35 
  -6  -1   0    6.10    0.36 
  -6   1   0    6.51    0.31 
   6   1   0    6.66    0.35 
  -6   1   0    6.87    0.36 
  -7  -1   0   33.16    1.40 
   7  -1   0   36.24    1.36 
  -7   1   0   35.10    1.39 
   7   1   0   36.37    1.36 
  -8  -1   0    0.27    0.13 
   8  -1   0   -0.08    0.14 
   8   1   0   -0.18    0.13 
  -8   1   0    0.11    0.12 
  -9  -1   0   10.80    0.50 
   9  -1   0    9.88    0.55 
  -9   1   0   10.87    0.50 
   9   1   0   10.03    0.53 
 -10  -1   0    2.73    0.22 
  10  -1   0    2.29    0.28 
 -10   1   0    2.39    0.21 
  10   1   0    1.78    0.25 
   0  -2   0   10.40    0.39 
   0  -2   0   11.09    0.42 
   0   2   0   10.79    0.39 
   0   2   0   11.22    0.49 
  -1  -2   0   31.43    1.26 
   1  -2   0   34.85    1.20 
  -1   2   0   35.50    1.41 
  -1   2   0   32.52    1.26 
   1   2   0   34.66    1.20 
   1   2   0   31.90    1.41 
  -2  -2   0   62.40    2.29 
   2  -2   0   62.19    2.18 
  -2   2   0   58.56    2.28 
   2   2   0   57.81    2.53 
   2   2   0   60.45    2.18 
  -2   2   0   64.00    2.52 
   3  -2   0  117.06    4.16 
  -3  -2   0  116.02    4.37 
  -3   2   0  114.28    4.79 
   3   2   0  118.94    4.16 
   3   2   0  116.82    4.81 
  -3   2   0  117.96    4.37 
   4  -2   0   27.86    1.04 
  -4  -2   0   28.18    1.10 
   4   2   0   28.62    1.05 
   4   2   0   28.87    1.19 
  -4   2   0   27.03    1.18 
  -4   2   0   27.29    1.10 
   5  -2   0    0.47    0.12 
  -5  -2   0    0.40    0.12 
   5   2   0    0.38    0.10 
  -5   2   0    0.19    0.11 
   5   2   0    0.33    0.08 
  -5   2   0    0.37    0.07 
   6  -2   0   -0.15    0.11 
  -6  -2   0    0.02    0.07 
  -6  -2   0    0.05    0.10 
   6   2   0   -0.17    0.11 
  -6   2   0    0.07    0.11 
  -6   2   0   -0.10    0.06 
  -7  -2   0   14.41    0.67 
   7  -2   0   15.42    0.65 
  -7   2   0   14.32    0.65 
   7   2   0   15.42    0.66 
   8  -2   0    4.42    0.34 
  -8  -2   0    4.65    0.31 
   8   2   0    4.18    0.34 
  -8   2   0    4.55    0.30 
   9  -2   0   -0.11    0.17 
  -9  -2   0    0.27    0.14 
  -9   2   0    0.33    0.13 
   9   2   0    0.27    0.18 
  10  -2   0    1.43    0.25 
 -10  -2   0    2.15    0.21 
  10   2   0    1.49    0.23 
 -10   2   0    2.19    0.20 
   0  -3   0    0.01    0.04 
   0  -3   0    0.02    0.01 
   0   3   0    0.04    0.01 
   0   3   0   -0.03    0.08 
   1  -3   0   36.95    1.30 
  -1  -3   0   36.39    1.37 
   1   3   0   37.36    1.30 
  -1   3   0   36.02    1.37 
   1   3   0   32.85    1.54 
  -1   3   0   37.56    1.54 
   2  -3   0   24.28    0.89 
  -2  -3   0   24.39    0.94 
   2   3   0   22.59    1.06 
   2   3   0   24.70    0.89 
  -2   3   0   24.19    0.93 
  -2   3   0   25.76    1.05 
   3  -3   0   37.93    1.38 
  -3  -3   0   37.14    1.44 
   3   3   0   36.81    1.61 
  -3   3   0   38.50    1.44 
  -3   3   0   37.95    1.59 
   3   3   0   38.37    1.38 
  -4  -3   0   39.89    1.53 
   4  -3   0   39.45    1.46 
   4   3   0   39.30    1.46 
  -4   3   0   39.56    1.66 
  -4   3   0   39.28    1.53 
   4   3   0   40.60    1.68 
  -5  -3   0   38.26    1.52 
   5  -3   0   38.75    1.45 
   5   3   0   40.00    1.45 
   5   3   0   40.02    1.65 
  -5   3   0   38.69    1.52 
  -5   3   0   38.52    1.64 
  -6  -3   0   33.59    1.39 
   6  -3   0   34.57    1.31 
   6   3   0   35.76    1.47 
  -6   3   0   33.22    1.37 
  -6   3   0   36.01    1.46 
   6   3   0   35.35    1.32 
  -7  -3   0    0.14    0.12 
   7  -3   0    0.08    0.13 
  -7   3   0    0.15    0.13 
   7   3   0   -0.07    0.13 
   8  -3   0   19.75    0.80 
  -8  -3   0   18.17    0.83 
   8   3   0   19.64    0.81 
  -8   3   0   18.41    0.81 
   9  -3   0    0.12    0.18 
  -9  -3   0    0.05    0.14 
  -9   3   0    0.14    0.13 
   9   3   0   -0.23    0.16 
  10  -3   0    0.98    0.22 
 -10  -3   0    1.58    0.20 
 -10   3   0    1.53    0.19 
  10   3   0    0.77    0.22 
   0  -4   0    0.11    0.02 
   0  -4   0    0.02    0.05 
   0   4   0    0.01    0.02 
   0   4   0    0.20    0.11 
  -1  -4   0  236.38    8.77 
   1  -4   0  243.13    8.33 
   1  -4   0  238.62    8.78 
  -1   4   0  237.62    9.67 
   1   4   0  240.00    8.33 
   1   4   0  215.67    9.66 
  -2  -4   0    0.91    0.09 
   2  -4   0    0.75    0.07 
   2   4   0    0.74    0.14 
  -2   4   0    0.88    0.11 
  -2   4   0    0.78    0.08 
   2   4   0    0.83    0.07 
   3  -4   0   15.36    0.58 
  -3  -4   0   14.90    0.62 
   3   4   0   15.50    0.58 
  -3   4   0   15.56    0.69 
   3   4   0   15.20    0.72 
  -3   4   0   15.14    0.61 
  -4  -4   0    4.79    0.26 
   4  -4   0    4.91    0.25 
   4   4   0    5.05    0.24 
   4   4   0    5.28    0.30 
  -4   4   0    4.63    0.25 
  -4   4   0    5.09    0.28 
  -5  -4   0    5.01    0.27 
   5  -4   0    4.36    0.25 
  -5   4   0    4.03    0.26 
  -5   4   0    4.80    0.26 
   5   4   0    4.93    0.26 
   5   4   0    4.68    0.28 
  -6  -4   0    0.09    0.11 
   6  -4   0    0.06    0.11 
   6   4   0    0.18    0.09 
  -6   4   0   -0.07    0.09 
  -6   4   0    0.02    0.08 
   6   4   0    0.13    0.11 
  -7  -4   0    0.25    0.15 
   7  -4   0    0.29    0.12 
   7   4   0    0.26    0.14 
  -7   4   0    0.50    0.13 
   8  -4   0    0.18    0.14 
  -8  -4   0    0.29    0.15 
  -8   4   0    0.32    0.15 
   8   4   0    0.31    0.16 
  -9  -4   0   10.17    0.54 
   9  -4   0   11.74    0.56 
  -9   4   0   11.02    0.53 
   9   4   0   10.43    0.55 
  10  -4   0   -0.07    0.19 
 -10  -4   0   -0.03    0.14 
 -10   4   0    0.29    0.15 
  10   4   0   -0.01    0.16 
   0  -5   0    0.05    0.06 
   0   5   0    0.07    0.11 
   1  -5   0    5.49    0.21 
  -1  -5   0    5.59    0.26 
   1  -5   0    5.23    0.25 
   1   5   0    5.14    0.35 
   1   5   0    5.51    0.20 
  -1   5   0    5.58    0.33 
   2  -5   0   62.70    2.13 
  -2  -5   0   57.32    2.25 
   2   5   0   60.88    2.13 
  -2   5   0   60.52    2.25 
  -2   5   0   61.07    2.51 
   2   5   0   55.39    2.54 
  -3  -5   0    0.48    0.10 
   3  -5   0    0.37    0.07 
  -3   5   0    0.18    0.07 
  -3   5   0    0.47    0.11 
   3   5   0    0.36    0.06 
   3   5   0    0.45    0.13 
   4  -5   0   26.56    1.01 
  -4  -5   0   26.17    1.07 
  -4   5   0   26.80    1.18 
  -4   5   0   27.36    1.07 
   4   5   0   28.39    1.02 
   4   5   0   28.43    1.21 
   5  -5   0    1.30    0.13 
  -5  -5   0    0.93    0.13 
   5   5   0    1.05    0.13 
  -5   5   0    1.05    0.13 
   5   5   0    1.32    0.16 
  -5   5   0    1.13    0.13 
   6  -5   0   19.82    0.82 
  -6  -5   0   21.51    0.87 
  -6   5   0   21.20    0.91 
   6   5   0   20.50    0.82 
   6   5   0   20.78    0.93 
  -6   5   0   21.10    0.86 
   7  -5   0   -0.03    0.13 
  -7  -5   0   -0.01    0.14 
   7   5   0    0.03    0.12 
  -7   5   0    0.06    0.12 
  -8  -5   0   17.93    0.82 
   8  -5   0   18.88    0.78 
  -8   5   0   17.61    0.80 
   8   5   0   18.84    0.78 
  -9  -5   0    0.04    0.15 
   9  -5   0   -0.06    0.14 
   9   5   0   -0.29    0.14 
  -9   5   0    0.06    0.14 
   0  -6   0    5.94    0.28 
   0   6   0    6.05    0.40 
   1  -6   0   12.07    0.51 
   1  -6   0   12.76    0.45 
  -1  -6   0   12.59    0.52 
   1   6   0   11.37    0.64 
  -1   6   0   12.85    0.63 
   2  -6   0   38.38    1.30 
   2  -6   0   35.94    1.39 
  -2  -6   0   34.98    1.39 
  -2   6   0   37.03    1.57 
   2   6   0   37.19    1.29 
   2   6   0   32.90    1.60 
  -3  -6   0   36.71    1.42 
   3  -6   0   37.74    1.34 
  -3   6   0   36.84    1.59 
  -3   6   0   35.28    1.42 
   3   6   0   37.58    1.63 
   3   6   0   37.41    1.33 
   4  -6   0    5.40    0.25 
  -4   6   0    5.12    0.32 
  -4   6   0    5.28    0.28 
   4   6   0    5.56    0.35 
   4   6   0    5.56    0.25 
  -5  -6   0    7.40    0.38 
   5  -6   0    8.07    0.36 
   5   6   0    8.07    0.44 
  -5   6   0    7.94    0.41 
  -5   6   0    8.09    0.38 
   5   6   0    8.68    0.36 
  -6  -6   0    1.64    0.19 
   6  -6   0    1.31    0.14 
  -6   6   0    1.38    0.15 
   6   6   0    1.70    0.16 
  -6   6   0    1.70    0.17 
   6   6   0    1.63    0.17 
   7  -6   0    2.00    0.19 
  -7  -6   0    2.40    0.23 
   7   6   0    2.34    0.21 
  -7   6   0    1.96    0.20 
  -8  -6   0    0.18    0.16 
   8  -6   0    0.12    0.14 
  -8   6   0    0.02    0.14 
   8   6   0    0.00    0.14 
  -9  -6   0    2.05    0.25 
   9  -6   0    1.69    0.21 
  -9   6   0    2.22    0.23 
   9   6   0    1.81    0.23 
   0  -7   0    0.06    0.08 
   0   7   0    0.00    0.15 
   1  -7   0    8.45    0.30 
   1  -7   0    7.83    0.37 
  -1  -7   0    7.97    0.37 
  -1   7   0    8.20    0.47 
   1   7   0    8.15    0.52 
   2  -7   0    7.37    0.35 
  -2  -7   0    7.65    0.36 
   2  -7   0    7.81    0.30 
  -2   7   0    6.96    0.42 
   2   7   0    6.98    0.47 
   2   7   0    7.88    0.28 
   3  -7   0   14.75    0.62 
   3  -7   0   14.80    0.56 
  -3  -7   0   14.85    0.62 
   3   7   0   14.93    0.55 
  -3   7   0   14.66    0.71 
   3   7   0   15.21    0.76 
   4  -7   0   38.30    1.40 
  -4  -7   0   37.59    1.48 
   4   7   0   39.28    1.69 
  -4   7   0   37.74    1.65 
  -4   7   0   37.52    1.48 
   4   7   0   39.26    1.39 
   5  -7   0   29.42    1.13 
  -5  -7   0   29.97    1.21 
  -5   7   0   30.55    1.20 
   5   7   0   30.87    1.13 
  -5   7   0   30.22    1.33 
   5   7   0   31.56    1.35 
   6  -7   0    4.90    0.28 
  -6  -7   0    5.32    0.33 
  -6   7   0    5.23    0.30 
   6   7   0    5.28    0.33 
   6   7   0    4.94    0.27 
  -6   7   0    5.27    0.31 
  -7  -7   0   10.70    0.51 
   7  -7   0    9.56    0.46 
   7   7   0   10.39    0.46 
  -7   7   0    9.88    0.48 
  -8  -7   0    0.40    0.17 
   8  -7   0    0.27    0.14 
  -8   7   0    0.34    0.15 
  -9  -7   0    0.92    0.19 
   9  -7   0    0.85    0.18 
  -9   7   0    1.00    0.19 
   0  -8   0   71.48    2.72 
   0   8   0   72.44    3.09 
   1  -8   0    9.35    0.42 
  -1  -8   0    9.33    0.42 
  -1   8   0   10.15    0.54 
   1   8   0    8.70    0.57 
   2  -8   0   12.53    0.53 
  -2  -8   0   12.98    0.54 
   2   8   0   10.96    0.67 
  -2   8   0   13.07    0.65 
   3  -8   0    2.35    0.20 
   3  -8   0    2.47    0.14 
  -3  -8   0    2.12    0.19 
  -3   8   0    2.38    0.23 
   3   8   0    2.48    0.29 
  -4  -8   0    4.01    0.26 
   4  -8   0    3.33    0.19 
   4  -8   0    3.37    0.24 
   4   8   0    3.93    0.32 
  -4   8   0    3.73    0.28 
   5  -8   0    0.00    0.08 
  -5  -8   0    0.02    0.12 
  -5   8   0    0.16    0.11 
  -5   8   0    0.06    0.12 
   5   8   0   -0.02    0.13 
   6  -8   0    3.64    0.22 
  -6  -8   0    3.82    0.26 
  -6   8   0    3.51    0.25 
  -6   8   0    3.84    0.28 
   6   8   0    3.29    0.28 
  -7  -8   0    0.53    0.15 
   7  -8   0    0.43    0.13 
  -7   8   0    0.46    0.15 
   8  -8   0    1.10    0.16 
  -8  -8   0    1.03    0.20 
  -8   8   0    1.07    0.18 
   0  -9   0    0.20    0.10 
   0   9   0   -0.11    0.15 
  -1  -9   0    4.53    0.26 
   1  -9   0    4.82    0.26 
  -1   9   0    5.33    0.40 
   1   9   0    5.21    0.41 
  -2  -9   0    0.18    0.12 
   2  -9   0    0.38    0.12 
  -2   9   0    0.01    0.13 
   2   9   0    0.18    0.18 
  -3  -9   0   12.92    0.55 
   3  -9   0   12.05    0.54 
  -3   9   0   11.96    0.63 
   3   9   0   12.22    0.68 
   4  -9   0    1.60    0.16 
  -4  -9   0    1.21    0.16 
   4   9   0    1.58    0.23 
  -4   9   0    1.48    0.20 
  -5  -9   0   14.49    0.62 
   5  -9   0   12.72    0.60 
  -5   9   0   14.62    0.69 
   5   9   0   14.53    0.71 
  -6  -9   0   -0.08    0.14 
   6   9   0   -0.05    0.13 
  -6   9   0    0.06    0.12 
  -7  -9   0   13.63    0.63 
  -7   9   0   13.39    0.61 
  -8  -9   0    2.02    0.25 
  -8   9   0    2.66    0.24 
   0 -10   0    9.56    0.44 
   0  10   0    9.88    0.60 
   1 -10   0    0.44    0.12 
  -1 -10   0    0.67    0.12 
   1  10   0    0.71    0.24 
  -1  10   0    0.48    0.20 
   2 -10   0   23.00    0.92 
  -2 -10   0   23.00    0.92 
  -2  10   0   23.02    1.08 
   2  10   0   21.67    1.13 
   3 -10   0   11.03    0.49 
  -3 -10   0   10.43    0.49 
   3  10   0   11.27    0.65 
  -3  10   0   10.29    0.58 
  -4 -10   0    4.37    0.29 
   4 -10   0    3.63    0.26 
   4  10   0    3.89    0.34 
  -4  10   0    3.35    0.31 
  -5 -10   0   -0.01    0.12 
   5 -10   0   -0.07    0.11 
   5  10   0    0.07    0.15 
  -5  10   0   -0.11    0.13 
  -6 -10   0    0.07    0.13 
   6 -10   0    0.26    0.12 
   6  10   0    0.21    0.15 
  -6  10   0   -0.08    0.12 
  -7 -10   0    0.23    0.17 
   7 -10   0    0.05    0.13 
   0 -11   0    0.00    0.12 
   0  11   0    0.16    0.21 
   1 -11   0    0.85    0.14 
  -1 -11   0    0.66    0.13 
   1  11   0    0.27    0.21 
  -1  11   0    1.06    0.22 
  -2 -11   0    4.01    0.26 
   2 -11   0    3.76    0.26 
   2  11   0    3.38    0.38 
  -2  11   0    3.66    0.33 
   3 -11   0    4.90    0.31 
  -3 -11   0    5.65    0.32 
   3  11   0    4.94    0.45 
  -3  11   0    5.34    0.39 
  -4 -11   0    3.66    0.26 
   4 -11   0    3.35    0.25 
  -4  11   0    3.04    0.31 
   4  11   0    3.98    0.36 
  -5 -11   0   15.20    0.67 
   5 -11   0   14.71    0.65 
  -5  11   0   14.69    0.74 
   5  11   0   15.39    0.77 
  -6 -11   0    4.78    0.33 
   6 -11   0    4.58    0.31 
   6  11   0    4.91    0.36 
  -6  11   0    4.41    0.33 
   0 -12   0    7.28    0.36 
   0  12   0    6.56    0.52 
   1 -12   0   11.88    0.53 
  -1 -12   0   11.94    0.54 
  -1  12   0   12.80    0.70 
   1  12   0   10.93    0.72 
   2 -12   0    3.63    0.27 
  -2 -12   0    3.89    0.28 
  -2  12   0    4.54    0.39 
   2  12   0    3.65    0.42 
   3 -12   0    1.01    0.16 
  -3 -12   0    0.82    0.16 
  -3  12   0    1.10    0.21 
   3  12   0    1.36    0.26 
   4 -12   0    0.34    0.13 
  -4 -12   0    0.30    0.14 
  -4  12   0    0.45    0.17 
   4  12   0    0.27    0.19 
  -5 -12   0    0.45    0.16 
   5 -12   0    0.29    0.13 
   5  12   0    0.45    0.17 
  -5  12   0    0.26    0.16 
   0 -13   0   -0.08    0.13 
   0  13   0    0.10    0.23 
   1 -13   0    0.68    0.15 
  -1 -13   0    0.57    0.15 
   1  13   0    0.45    0.24 
  -1  13   0    0.28    0.22 
   2 -13   0    7.10    0.39 
  -2 -13   0    7.80    0.40 
  -2  13   0    8.18    0.53 
   2  13   0    7.28    0.56 
  -3 -13   0    0.34    0.14 
   3 -13   0    0.54    0.15 
  -3  13   0    0.36    0.17 
   3  13   0    0.25    0.22 
   4 -13   0    0.80    0.16 
  -4 -13   0    0.88    0.18 
  -4  13   0    0.43    0.17 
   4  13   0    0.84    0.23 
   0 -14   0    0.10    0.14 
   0  14   0    0.51    0.24 
  -1 -14   0    6.98    0.38 
   1 -14   0    6.86    0.38 
   1  14   0    6.63    0.58 
  -1  14   0    8.07    0.56 
 -10   0   1    0.10    0.13 
  10   0  -1   -0.29    0.17 
   9   0  -1   19.30    0.88 
  -9   0   1   21.40    0.86 
  -8   0   1    0.08    0.12 
   8   0  -1   -0.09    0.16 
  -7   0   1   10.48    0.49 
   7   0  -1   10.03    0.51 
   6   0  -1   -0.03    0.13 
  -6   0   1    0.02    0.10 
   5   0  -1   53.81    2.01 
  -5   0   1   54.21    2.10 
  -5   0   1   55.26    2.23 
   4   0  -1    0.00    0.08 
  -4   0   1   -0.03    0.08 
  -4   0   1    0.03    0.03 
   3   0  -1  104.14    3.56 
  -3   0   1   93.96    3.74 
  -3   0   1   99.43    4.05 
  -2   0   1   -0.14    0.06 
   2   0  -1   -0.15    0.06 
  -1   0   1  120.71    4.74 
   1   0  -1  133.89    4.53 
   0   0   1   -0.03    0.01 
   0   0  -1    0.01    0.02 
  -1   0  -1   56.58    2.19 
   1   0   1   63.37    2.08 
  -1   0  -1   55.63    2.42 
   2   0   1   -0.11    0.04 
  -2   0  -1   -0.05    0.05 
  -2   0  -1    0.01    0.06 
  -3   0  -1   65.34    2.56 
   3   0   1   62.55    2.22 
  -3   0  -1   56.85    2.34 
   4   0   1    0.05    0.07 
  -4   0  -1    0.14    0.08 
  -4   0  -1    0.04    0.07 
  -5   0  -1  114.26    4.55 
   5   0   1  107.59    3.96 
  -5   0  -1  109.48    4.17 
  -6   0  -1    0.09    0.07 
  -6   0  -1    0.12    0.09 
   6   0   1    0.06    0.11 
   7   0   1   33.60    1.31 
  -7   0  -1   34.82    1.36 
  -8   0  -1   -0.01    0.11 
   8   0   1   -0.14    0.14 
  -9   0  -1    0.06    0.11 
   9   0   1   -0.04    0.17 
 -10   0  -1    0.18    0.12 
  10   0   1   -0.29    0.18 
  10  -1  -1    3.63    0.34 
 -10  -1   1    4.31    0.30 
 -10   1   1    5.51    0.32 
  10   1  -1    4.79    0.38 
  -9  -1   1    2.01    0.20 
   9  -1  -1    1.67    0.25 
  -9   1   1    2.01    0.20 
   9   1  -1    1.45    0.22 
   8  -1  -1   -0.03    0.16 
  -8  -1   1    0.12    0.13 
   8   1  -1   -0.11    0.14 
  -8   1   1    0.16    0.12 
   7  -1  -1    1.61    0.20 
  -7  -1   1    1.44    0.17 
   7   1  -1    1.32    0.19 
  -7   1   1    1.52    0.17 
  -6  -1   1   20.89    0.93 
   6  -1  -1   23.29    0.91 
   6   1  -1   23.26    0.91 
  -6   1   1   22.81    0.93 
   5  -1  -1   30.38    1.17 
  -5  -1   1   33.33    1.27 
  -5  -1   1   27.22    1.22 
  -5   1   1   30.29    1.22 
   5   1  -1   29.68    1.17 
  -5   1   1   31.74    1.26 
   4  -1  -1   31.10    1.17 
  -4  -1   1   26.58    1.22 
  -4  -1   1   34.55    1.30 
  -4   1   1   30.17    1.23 
  -4   1   1   31.65    1.29 
   4   1  -1   32.61    1.18 
   3  -1  -1   16.91    0.65 
  -3  -1   1   16.38    0.68 
  -3   1   1   15.80    0.69 
  -3   1   1   16.95    0.70 
   3   1  -1   17.81    0.66 
   3   1  -1   16.90    0.71 
  -2  -1   1  209.16    7.90 
   2  -1  -1  219.06    7.51 
  -2   1   1  227.04    8.66 
  -2   1   1  207.61    7.91 
   2   1  -1  189.49    8.66 
   2   1  -1  218.57    7.52 
  -1  -1   1    1.66    0.09 
   1  -1  -1    1.95    0.10 
   1   1  -1    1.58    0.11 
  -1   1   1    1.92    0.10 
  -1   1   1    1.65    0.09 
   0  -1   1  179.74    6.30 
   0  -1  -1  193.86    6.62 
   0  -1   1  182.01    6.81 
   0  -1  -1  174.44    6.39 
   0   1   1  161.12    7.30 
   0   1   1  176.11    6.40 
  -1  -1  -1    0.37    0.04 
   1  -1   1    0.29    0.03 
  -1   1  -1    0.29    0.06 
   1   1   1    0.26    0.06 
  -1   1  -1    0.34    0.03 
   1   1   1    0.40    0.03 
   2  -1   1   11.73    0.44 
  -2  -1  -1   11.33    0.46 
   2   1   1   10.90    0.52 
   2   1   1   12.01    0.44 
  -2   1  -1   11.56    0.46 
  -2   1  -1   11.88    0.52 
   3  -1   1    0.58    0.08 
  -3  -1  -1    0.75    0.09 
   3   1   1    0.60    0.09 
  -3   1  -1    0.57    0.09 
  -3   1  -1    0.86    0.10 
   3   1   1    0.61    0.07 
  -4  -1  -1    0.30    0.09 
  -4  -1  -1    0.20    0.08 
   4  -1   1    0.26    0.08 
  -4   1  -1    0.21    0.09 
   4   1   1    0.19    0.07 
  -4   1  -1    0.36    0.08 
  -5  -1  -1    2.80    0.19 
   5  -1   1    2.26    0.18 
  -5  -1  -1    2.02    0.19 
  -5   1  -1    2.46    0.20 
  -5   1  -1    2.46    0.17 
   5   1   1    2.48    0.18 
  -6  -1  -1   13.36    0.64 
  -6  -1  -1   16.70    0.67 
   6  -1   1   14.72    0.62 
  -6   1  -1   15.09    0.66 
   6   1   1   14.52    0.62 
  -6   1  -1   14.97    0.65 
  -7  -1  -1    2.25    0.21 
   7  -1   1    1.88    0.19 
  -7   1  -1    2.25    0.20 
   7   1   1    2.22    0.22 
  -8  -1  -1   12.09    0.56 
   8  -1   1   12.14    0.57 
  -8   1  -1   12.41    0.55 
   8   1   1   11.98    0.57 
  -9  -1  -1    3.06    0.24 
   9  -1   1    2.69    0.27 
  -9   1  -1    2.45    0.22 
   9   1   1    2.20    0.24 
 -10  -1  -1    5.68    0.34 
  10  -1   1    5.43    0.43 
 -10   1  -1    6.91    0.36 
  10   1   1    6.17    0.43 
 -10  -2   1    0.66    0.16 
  10  -2  -1    0.42    0.21 
  10   2  -1    0.03    0.18 
 -10   2   1    0.60    0.15 
  -9  -2   1    5.55    0.34 
   9  -2  -1    4.75    0.37 
  -9   2   1    5.65    0.33 
   9   2  -1    5.04    0.39 
   8  -2  -1    6.21    0.39 
  -8  -2   1    7.16    0.38 
   8   2  -1    6.42    0.42 
  -8   2   1    7.12    0.38 
  -7  -2   1   11.15    0.54 
   7  -2  -1   10.94    0.52 
  -7   2   1   11.59    0.53 
   7   2  -1   10.95    0.54 
   6  -2  -1   19.55    0.77 
  -6  -2   1   18.19    0.81 
  -6   2   1   18.62    0.80 
   6   2  -1   19.22    0.78 
   5  -2  -1   22.36    0.84 
  -5  -2   1   20.42    0.88 
  -5   2   1   19.62    0.87 
   5   2  -1   20.99    0.90 
  -5   2   1   22.23    0.89 
   5   2  -1   21.46    0.85 
  -4  -2   1    0.33    0.09 
   4  -2  -1    0.31    0.09 
  -4   2   1    0.36    0.09 
   4   2  -1    0.33    0.09 
   4   2  -1    0.59    0.08 
  -4   2   1    0.53    0.06 
   3  -2  -1    0.24    0.07 
  -3  -2   1    0.20    0.07 
  -3   2   1    0.12    0.07 
   3   2  -1    0.26    0.06 
  -3   2   1    0.17    0.05 
   3   2  -1    0.03    0.07 
  -2  -2   1    9.46    0.38 
   2  -2  -1    9.08    0.36 
   2   2  -1    8.78    0.42 
   2   2  -1    8.89    0.38 
  -2   2   1    9.08    0.37 
  -2   2   1    9.56    0.41 
   1  -2  -1    4.13    0.16 
  -1  -2   1    3.67    0.17 
  -1   2   1    4.06    0.21 
  -1   2   1    4.02    0.17 
   0  -2   1    9.97    0.36 
   0  -2  -1   10.29    0.35 
   0  -2   1    9.66    0.38 
   0  -2  -1    9.53    0.38 
   0   2  -1    9.91    0.46 
   0   2   1    9.92    0.45 
   0   2   1    9.63    0.35 
  -1  -2  -1   69.45    2.64 
   1  -2   1   72.85    2.52 
   1   2   1   66.24    2.94 
  -1   2  -1   70.01    2.94 
  -1   2  -1   72.61    2.64 
   1   2   1   73.81    2.52 
   2  -2   1  101.54    3.51 
  -2  -2  -1  101.99    3.69 
  -2   2  -1   98.79    3.68 
  -2   2  -1   96.46    4.07 
   2   2   1  101.96    3.51 
   2   2   1   91.87    4.08 
   3  -2   1  107.68    3.83 
  -3  -2  -1  110.34    4.02 
  -3   2  -1  105.62    4.43 
  -3   2  -1  107.65    4.02 
   3   2   1  107.39    4.44 
   3   2   1  106.36    3.83 
   4  -2   1   69.83    2.48 
  -4  -2  -1   69.12    2.61 
  -4   2  -1   68.53    2.60 
   4   2   1   69.61    2.86 
  -4   2  -1   66.40    2.85 
   4   2   1   69.07    2.48 
  -5  -2  -1    6.57    0.34 
   5  -2   1    6.74    0.33 
   5   2   1    6.65    0.34 
   5   2   1    6.80    0.32 
  -5   2  -1    6.59    0.33 
  -5   2  -1    6.60    0.34 
  -6  -2  -1    1.25    0.17 
   6  -2   1    1.26    0.15 
  -6  -2  -1    1.74    0.17 
  -6   2  -1    1.36    0.16 
   6   2   1    1.40    0.16 
  -6   2  -1    1.58    0.14 
  -7  -2  -1    4.78    0.32 
   7  -2   1    5.34    0.33 
  -7   2  -1    5.90    0.32 
   7   2   1    5.60    0.33 
   8  -2   1    3.86    0.29 
  -8  -2  -1    3.85    0.29 
  -8   2  -1    3.88    0.28 
   8   2   1    4.14    0.31 
   9  -2   1    2.05    0.25 
  -9  -2  -1    1.74    0.20 
  -9   2  -1    2.04    0.20 
   9   2   1    1.45    0.21 
 -10  -2  -1   -0.02    0.13 
  10  -2   1    0.20    0.20 
 -10   2  -1    0.04    0.12 
  10   2   1   -0.31    0.17 
  10  -3  -1   -0.07    0.18 
 -10  -3   1    0.24    0.15 
  10   3  -1   -0.02    0.17 
 -10   3   1    0.20    0.14 
  -9  -3   1    0.74    0.18 
   9  -3  -1    0.38    0.19 
  -9   3   1    1.16    0.18 
   9   3  -1    0.58    0.18 
   8  -3  -1    3.60    0.29 
  -8  -3   1    3.15    0.27 
  -8   3   1    3.41    0.27 
   8   3  -1    2.77    0.27 
   7  -3  -1    1.80    0.20 
  -7  -3   1    1.69    0.19 
  -7   3   1    2.16    0.21 
   7   3  -1    1.41    0.21 
  -6  -3   1    7.59    0.40 
   6  -3  -1    7.48    0.37 
  -6   3   1    6.61    0.38 
   6   3  -1    7.86    0.38 
   5  -3  -1   25.52    1.00 
  -5  -3   1   26.10    1.06 
   5   3  -1   25.98    1.11 
   5   3  -1   27.38    1.02 
  -5   3   1   24.93    1.05 
  -5   3   1   27.01    1.11 
   4  -3  -1   28.11    1.05 
  -4  -3   1   27.38    1.10 
   4   3  -1   28.30    1.19 
  -4   3   1   28.00    1.18 
   4   3  -1   28.06    1.06 
  -4   3   1   27.75    1.10 
   3  -3  -1  136.86    5.02 
  -3  -3   1  142.81    5.27 
  -3   3   1  141.04    5.27 
  -3   3   1  141.20    5.79 
   3   3  -1  144.76    5.04 
   3   3  -1  140.91    5.81 
   2  -3  -1    0.23    0.05 
  -2  -3   1    0.29    0.06 
   2   3  -1    0.27    0.09 
   2   3  -1    0.21    0.07 
  -2   3   1    0.31    0.06 
  -2   3   1    0.29    0.07 
  -1  -3   1   81.54    3.03 
   1  -3  -1   86.57    2.88 
  -1  -3   1   73.54    2.89 
   1   3  -1   76.29    3.38 
  -1   3   1   86.27    3.37 
  -1   3   1   82.85    3.04 
   0  -3   1   90.41    3.34 
   0  -3  -1   90.77    3.35 
   0  -3   1   89.16    3.18 
   0   3  -1   88.63    3.72 
  -1  -3  -1   32.41    1.24 
   1  -3   1   33.14    1.18 
   1   3   1   34.19    1.17 
  -1   3  -1   33.60    1.41 
   1   3   1   30.77    1.41 
  -1   3  -1   32.84    1.24 
   2  -3   1    7.33    0.29 
  -2  -3  -1    7.57    0.31 
  -2   3  -1    7.37    0.30 
   2   3   1    7.36    0.28 
  -2   3  -1    7.27    0.37 
   2   3   1    6.77    0.38 
   3  -3   1   26.65    0.97 
  -3  -3  -1   26.96    1.02 
   3   3   1   25.69    1.15 
  -3   3  -1   26.42    1.01 
  -3   3  -1   25.79    1.13 
   3   3   1   25.89    0.96 
  -4  -3  -1    3.56    0.21 
   4  -3   1    3.06    0.19 
  -4   3  -1    3.39    0.19 
   4   3   1    3.02    0.19 
  -4   3  -1    3.37    0.21 
   4   3   1    3.72    0.24 
  -5  -3  -1    1.40    0.16 
   5  -3   1    1.35    0.14 
   5   3   1    1.29    0.14 
   5   3   1    1.12    0.12 
  -5   3  -1    1.09    0.13 
  -5   3  -1    1.20    0.12 
   6  -3   1    0.68    0.13 
  -6  -3  -1    0.69    0.14 
   6   3   1    0.72    0.13 
  -6   3  -1    0.53    0.13 
   6   3   1    0.60    0.11 
  -6   3  -1    0.64    0.10 
  -7  -3  -1   28.92    1.22 
   7  -3   1   30.64    1.17 
   7   3   1   30.14    1.16 
  -7   3  -1   30.59    1.21 
  -8  -3  -1    0.51    0.16 
   8  -3   1    0.41    0.15 
  -8   3  -1    0.70    0.15 
   8   3   1    0.12    0.14 
   9  -3   1    6.83    0.43 
  -9  -3  -1    7.19    0.41 
   9   3   1    6.88    0.43 
  -9   3  -1    7.49    0.40 
  10  -3   1    3.97    0.34 
 -10  -3  -1    4.50    0.31 
 -10   3  -1    4.40    0.31 
  10   3   1    4.46    0.35 
 -10  -4   1    9.01    0.48 
  10  -4  -1    8.39    0.51 
 -10   4   1    9.33    0.47 
  10   4  -1    8.16    0.49 
   9  -4  -1    0.44    0.18 
  -9  -4   1    0.63    0.19 
  -9   4   1    0.91    0.17 
   9   4  -1    0.52    0.19 
   8  -4  -1   17.90    0.74 
  -8  -4   1   16.36    0.77 
  -8   4   1   17.40    0.75 
   8   4  -1   16.26    0.75 
   7  -4  -1    5.10    0.31 
  -7  -4   1    4.89    0.34 
   7   4  -1    4.89    0.32 
  -7   4   1    5.11    0.31 
  -6  -4   1   23.41    0.96 
   6  -4  -1   22.51    0.91 
   6   4  -1   22.95    0.92 
  -6   4   1   22.74    0.95 
  -6   4   1   23.80    0.99 
   6   4  -1   23.25    1.00 
   5  -4  -1    6.23    0.32 
  -5  -4   1    6.60    0.34 
  -5   4   1    6.21    0.33 
  -5   4   1    6.51    0.33 
   5   4  -1    6.55    0.34 
   5   4  -1    6.40    0.34 
   4  -4  -1   59.02    2.19 
  -4  -4   1   60.00    2.30 
   4   4  -1   61.71    2.21 
  -4   4   1   59.84    2.30 
   4   4  -1   62.95    2.54 
  -4   4   1   60.29    2.52 
   3  -4  -1    6.40    0.28 
  -3  -4   1    6.41    0.30 
  -3   4   1    6.50    0.30 
   3   4  -1    6.43    0.36 
   3   4  -1    6.85    0.30 
  -3   4   1    6.54    0.34 
  -2  -4   1    9.37    0.40 
   2  -4  -1    9.89    0.37 
  -2   4   1    9.44    0.40 
   2   4  -1    9.11    0.39 
   2   4  -1    8.79    0.48 
  -2   4   1   10.22    0.47 
  -1  -4   1   12.17    0.47 
   1  -4  -1   12.54    0.42 
  -1  -4   1    9.99    0.44 
  -1   4   1   12.90    0.55 
   1   4  -1    9.98    0.56 
   0  -4  -1   62.77    2.42 
   0  -4   1   64.55    2.42 
   0  -4   1   65.16    2.29 
   0   4   1   66.33    2.72 
   0   4  -1   64.32    2.72 
  -1  -4  -1    1.75    0.12 
   1  -4   1    1.81    0.09 
   1  -4   1    1.69    0.11 
   1   4   1    1.37    0.17 
  -1   4  -1    1.96    0.20 
   1   4   1    1.80    0.08 
   2  -4   1   36.10    1.28 
  -2  -4  -1   35.30    1.35 
  -2   4  -1   35.02    1.52 
   2   4   1   37.13    1.27 
   2   4   1   33.10    1.54 
  -2   4  -1   35.61    1.35 
   3  -4   1    9.23    0.37 
  -3  -4  -1    9.13    0.39 
   3   4   1    9.03    0.36 
  -3   4  -1    9.03    0.38 
   3   4   1    8.86    0.47 
  -3   4  -1    8.07    0.44 
   4  -4   1   57.19    2.11 
  -4  -4  -1   58.75    2.22 
  -4   4  -1   58.36    2.44 
   4   4   1   59.99    2.47 
  -4   4  -1   58.60    2.21 
   4   4   1   57.77    2.11 
  -5  -4  -1    3.32    0.23 
   5  -4   1    3.18    0.21 
   5   4   1    2.70    0.19 
  -5   4  -1    3.01    0.20 
   5   4   1    3.13    0.23 
  -5   4  -1    2.93    0.21 
   6  -4   1   57.95    2.17 
  -6  -4  -1   58.26    2.29 
  -6   4  -1   60.90    2.28 
   6   4   1   59.31    2.17 
  -6   4  -1   60.52    2.48 
   6   4   1   59.54    2.49 
   7  -4   1    1.05    0.15 
  -7  -4  -1    0.80    0.16 
   7   4   1    1.24    0.17 
  -7   4  -1    1.00    0.16 
  -8  -4  -1    1.03    0.19 
   8  -4   1    0.81    0.16 
  -8   4  -1    1.05    0.17 
   8   4   1    0.90    0.18 
  -9  -4  -1    0.08    0.14 
   9  -4   1   -0.10    0.14 
   9   4   1    0.01    0.15 
  -9   4  -1    0.10    0.14 
 -10  -4  -1    0.04    0.14 
  10  -4   1   -0.17    0.18 
 -10   4  -1    0.16    0.14 
  10   4   1   -0.17    0.16 
  -9  -5   1    0.17    0.18 
   9  -5  -1    0.00    0.17 
  -9   5   1    0.20    0.15 
   9   5  -1    0.05    0.17 
   8  -5  -1    0.27    0.14 
  -8  -5   1    0.14    0.16 
   8   5  -1   -0.06    0.15 
  -8   5   1    0.40    0.16 
   7  -5  -1    1.27    0.18 
  -7  -5   1    1.39    0.20 
  -7   5   1    1.16    0.17 
   7   5  -1    1.54    0.20 
   6  -5  -1    1.08    0.15 
  -6  -5   1    1.36    0.17 
  -6   5   1    1.21    0.16 
   6   5  -1    1.36    0.14 
  -6   5   1    1.22    0.13 
   6   5  -1    1.25    0.16 
  -5  -5   1    3.05    0.24 
   5  -5  -1    2.88    0.21 
  -5   5   1    3.43    0.23 
   5   5  -1    3.37    0.23 
   5   5  -1    3.33    0.22 
  -5   5   1    3.07    0.22 
  -4  -5   1    9.48    0.43 
   4  -5  -1    9.13    0.40 
   4   5  -1    9.87    0.42 
   4   5  -1    9.91    0.50 
  -4   5   1    9.56    0.43 
  -4   5   1    9.70    0.47 
  -3  -5   1   76.31    2.97 
   3  -5  -1   79.36    2.83 
  -3   5   1   79.46    3.29 
  -3   5   1   77.19    2.97 
   3   5  -1   83.34    2.84 
   3   5  -1   78.44    3.32 
  -2  -5   1    3.00    0.18 
   2  -5  -1    3.31    0.15 
  -2   5   1    2.94    0.17 
   2   5  -1    2.97    0.17 
  -2   5   1    2.78    0.22 
   2   5  -1    2.68    0.25 
   1  -5  -1  150.45    5.00 
  -1  -5   1  148.91    5.27 
   1  -5  -1  142.71    5.27 
   1   5  -1  132.25    5.02 
   1   5  -1  126.71    5.86 
  -1   5   1  146.89    5.85 
   0  -5   1    8.34    0.36 
   0  -5   1    8.60    0.31 
   0  -5  -1    8.17    0.36 
   0   5  -1    8.56    0.47 
   0   5   1    8.46    0.45 
   1  -5   1   10.92    0.41 
  -1  -5  -1   11.14    0.46 
   1  -5   1   10.69    0.45 
   1   5   1   10.71    0.57 
  -1   5  -1   11.56    0.56 
   2  -5   1    0.17    0.05 
  -2  -5  -1    0.31    0.08 
  -2   5  -1    0.23    0.10 
   2   5   1    0.15    0.04 
  -2   5  -1    0.34    0.07 
   2   5   1    0.42    0.14 
   3  -5   1    4.49    0.22 
  -3  -5  -1    4.62    0.25 
   3   5   1    5.28    0.34 
  -3   5  -1    4.59    0.23 
   3   5   1    4.85    0.21 
  -3   5  -1    4.86    0.30 
  -4  -5  -1    9.92    0.44 
   4  -5   1    9.58    0.40 
   4   5   1    9.88    0.51 
   4   5   1    9.79    0.39 
  -4   5  -1    9.06    0.47 
  -4   5  -1    9.80    0.42 
   5  -5   1    0.23    0.10 
  -5  -5  -1    0.19    0.11 
  -5   5  -1    0.16    0.10 
   5   5   1    0.13    0.11 
   5   5   1    0.24    0.09 
  -5   5  -1    0.26    0.09 
  -6  -5  -1    3.57    0.27 
   6  -5   1    3.29    0.24 
   6   5   1    3.65    0.23 
  -6   5  -1    3.74    0.25 
   6   5   1    4.08    0.26 
  -6   5  -1    3.80    0.24 
  -7  -5  -1   17.47    0.76 
   7  -5   1   16.80    0.70 
  -7   5  -1   17.84    0.74 
   7   5   1   16.64    0.70 
  -8  -5  -1    0.30    0.14 
   8  -5   1    0.15    0.15 
   8   5   1    0.36    0.14 
  -8   5  -1    0.28    0.14 
  -9  -5  -1    5.89    0.39 
   9  -5   1    5.77    0.39 
   9   5   1    5.78    0.38 
  -9   5  -1    5.95    0.36 
  -9  -6   1    1.80    0.24 
   9  -6  -1    2.27    0.24 
  -9   6   1    1.87    0.22 
   9   6  -1    1.85    0.24 
  -8  -6   1   13.82    0.68 
   8  -6  -1   15.17    0.65 
   8   6  -1   15.07    0.66 
  -8   6   1   14.07    0.66 
  -7  -6   1   14.40    0.67 
   7  -6  -1   14.69    0.63 
  -7   6   1   14.96    0.66 
   7   6  -1   14.56    0.64 
   6  -6  -1   16.54    0.68 
  -6  -6   1   16.32    0.72 
  -6   6   1   16.55    0.72 
   6   6  -1   17.55    0.70 
   6   6  -1   17.72    0.78 
  -6   6   1   17.07    0.76 
  -5  -6   1    0.87    0.13 
   5  -6  -1    0.95    0.12 
  -5   6   1    1.12    0.14 
   5   6  -1    1.29    0.16 
   5   6  -1    1.18    0.13 
  -5   6   1    1.10    0.13 
  -4  -6   1    0.32    0.10 
   4  -6  -1    0.37    0.08 
  -4   6   1    0.28    0.10 
   4   6  -1    0.56    0.09 
  -4   6   1    0.32    0.11 
   4   6  -1    0.32    0.13 
   3  -6  -1    0.70    0.08 
  -3  -6   1    0.66    0.10 
   3   6  -1    0.87    0.09 
   3   6  -1    0.93    0.18 
  -3   6   1    0.80    0.13 
  -3   6   1    0.83    0.11 
   2  -6  -1    1.17    0.12 
  -2  -6   1    1.71    0.15 
   2  -6  -1    1.63    0.10 
   2   6  -1    1.66    0.11 
   2   6  -1    1.42    0.20 
  -2   6   1    1.64    0.18 
   1  -6  -1    7.02    0.24 
  -1  -6   1    6.72    0.30 
   1  -6  -1    6.54    0.30 
  -1   6   1    6.75    0.39 
   1   6  -1    5.90    0.42 
   1   6  -1    5.61    0.26 
   0  -6  -1    5.75    0.28 
   0  -6   1    5.73    0.22 
   0  -6   1    5.78    0.27 
   0   6   1    6.19    0.39 
   0   6  -1    4.91    0.37 
  -1  -6  -1   14.38    0.60 
   1  -6   1   15.38    0.60 
   1  -6   1   14.96    0.54 
   1   6   1   14.59    0.75 
  -1   6  -1   14.86    0.73 
   2  -6   1   83.47    2.89 
   2  -6   1   81.84    3.04 
  -2  -6  -1   80.21    3.05 
   2   6   1   85.42    2.87 
  -2   6  -1   81.21    3.40 
   2   6   1   72.93    3.42 
   3  -6   1   34.30    1.22 
  -3  -6  -1   32.03    1.29 
   3   6   1   33.05    1.49 
  -3   6  -1   32.55    1.45 
  -3   6  -1   33.39    1.29 
   3   6   1   34.46    1.20 
  -4  -6  -1   31.44    1.25 
   4  -6   1   31.82    1.18 
   4   6   1   31.84    1.17 
  -4   6  -1   32.86    1.24 
  -4   6  -1   31.18    1.38 
   4   6   1   32.47    1.42 
  -5  -6  -1    5.42    0.31 
   5  -6   1    5.69    0.28 
   5   6   1    5.59    0.36 
  -5   6  -1    5.66    0.29 
   5   6   1    5.33    0.26 
  -5   6  -1    5.59    0.33 
  -6  -6  -1    0.85    0.14 
   6  -6   1    0.77    0.13 
   6   6   1    1.00    0.12 
  -6   6  -1    0.80    0.14 
  -6   6  -1    0.67    0.12 
   6   6   1    0.95    0.15 
  -7  -6  -1    2.58    0.24 
   7  -6   1    2.37    0.20 
  -7   6  -1    2.56    0.22 
   7   6   1    2.71    0.21 
  -8  -6  -1    5.61    0.37 
   8  -6   1    5.29    0.34 
  -8   6  -1    5.65    0.35 
   8   6   1    6.02    0.34 
  -9  -6  -1    1.29    0.21 
   9  -6   1    0.47    0.17 
  -9   6  -1    1.12    0.18 
   9  -7  -1    1.10    0.21 
  -9  -7   1    1.94    0.25 
  -9   7   1    1.91    0.22 
   8  -7  -1   -0.09    0.14 
  -8  -7   1   -0.07    0.14 
   8   7  -1    0.13    0.15 
  -8   7   1    0.03    0.15 
   7  -7  -1    0.18    0.13 
  -7  -7   1    0.23    0.14 
  -7   7   1    0.22    0.13 
   7   7  -1    0.22    0.13 
  -6  -7   1    6.01    0.34 
   6  -7  -1    5.50    0.29 
  -6   7   1    5.57    0.33 
   6   7  -1    5.59    0.34 
  -6   7   1    5.65    0.33 
   6   7  -1    5.36    0.31 
   5  -7  -1   19.43    0.77 
  -5  -7   1   19.78    0.83 
  -5   7   1   20.58    0.83 
   5   7  -1   20.50    0.78 
  -5   7   1   19.94    0.91 
   5   7  -1   20.31    0.93 
  -4  -7   1   13.31    0.57 
   4  -7  -1   12.39    0.51 
  -4   7   1   12.94    0.56 
   4   7  -1   13.31    0.66 
   4   7  -1   13.54    0.51 
  -4   7   1   12.75    0.62 
   3  -7  -1    3.11    0.16 
  -3  -7   1    3.56    0.23 
   3   7  -1    3.18    0.16 
   3   7  -1    3.54    0.31 
  -3   7   1    2.99    0.25 
   2  -7  -1   31.68    1.25 
   2  -7  -1   33.83    1.16 
  -2  -7   1   30.50    1.24 
  -2   7   1   32.68    1.42 
   2   7  -1   30.30    1.46 
   2   7  -1   33.33    1.16 
   1  -7  -1   25.65    1.03 
  -1  -7   1   27.37    1.04 
  -1   7   1   26.84    1.20 
   1   7  -1   23.12    1.22 
   1   7  -1   28.16    0.95 
   0  -7   1   38.78    1.48 
   0  -7  -1   38.60    1.49 
   0  -7   1   38.27    1.38 
   0   7   1   39.22    1.72 
   0   7  -1   39.02    1.73 
   1  -7   1   34.74    1.23 
  -1  -7  -1   34.20    1.33 
   1  -7   1   33.94    1.33 
  -1   7  -1   35.84    1.54 
   1   7   1   33.82    1.56 
   2  -7   1   27.61    0.97 
  -2  -7  -1   26.62    1.04 
   2  -7   1   26.77    1.04 
   2   7   1   24.35    1.24 
  -2   7  -1   26.77    1.20 
   3  -7   1    0.16    0.07 
  -3  -7  -1    0.03    0.09 
   3  -7   1   -0.02    0.08 
  -3   7  -1    0.01    0.10 
   3   7   1    0.39    0.17 
   3   7   1    0.02    0.04 
   4  -7   1    0.46    0.09 
  -4  -7  -1    0.52    0.11 
  -4   7  -1    0.51    0.13 
  -4   7  -1    0.65    0.11 
   4   7   1    0.60    0.17 
   4   7   1    0.64    0.07 
  -5  -7  -1    2.46    0.22 
   5  -7   1    2.26    0.18 
  -5   7  -1    2.60    0.23 
   5   7   1    2.62    0.25 
   5   7   1    2.59    0.16 
  -5   7  -1    2.38    0.19 
  -6  -7  -1    6.05    0.36 
   6  -7   1    5.97    0.31 
  -6   7  -1    6.64    0.37 
   6   7   1    6.16    0.30 
  -6   7  -1    6.70    0.34 
   6   7   1    6.65    0.39 
   7  -7   1    0.19    0.12 
  -7  -7  -1    0.13    0.14 
  -7   7  -1    0.29    0.13 
   8  -7   1    5.69    0.33 
  -8  -7  -1    4.74    0.36 
  -8   7  -1    5.03    0.33 
   9  -7   1    7.46    0.41 
  -9  -7  -1    6.30    0.42 
  -9   7  -1    7.04    0.41 
  -8  -8   1    3.18    0.28 
   8  -8  -1    3.01    0.25 
  -8   8   1    3.31    0.29 
   7  -8  -1    8.48    0.41 
  -7  -8   1    8.41    0.45 
  -7   8   1    7.91    0.43 
   6  -8  -1    3.38    0.23 
  -6  -8   1    4.03    0.29 
  -6   8   1    3.89    0.27 
   6   8  -1    3.52    0.28 
  -6   8   1    3.38    0.27 
  -5  -8   1   20.56    0.87 
   5  -8  -1   21.03    0.80 
  -5   8   1   21.49    0.96 
  -5   8   1   21.53    0.87 
   5   8  -1   21.22    0.98 
  -4  -8   1    0.31    0.11 
   4  -8  -1    0.34    0.08 
   4   8  -1    0.40    0.16 
  -4   8   1    0.34    0.13 
  -3  -8   1   11.16    0.48 
   3  -8  -1   10.52    0.47 
  -3   8   1   10.43    0.55 
   3   8  -1   10.04    0.60 
   2  -8  -1    0.04    0.10 
  -2  -8   1    0.13    0.10 
  -2   8   1    0.28    0.14 
   2   8  -1    0.10    0.17 
  -1  -8   1   49.19    1.82 
   1  -8  -1   48.56    1.82 
  -1   8   1   48.65    2.07 
   1   8  -1   43.06    2.10 
   0  -8  -1    0.12    0.10 
   0  -8   1    0.05    0.08 
   0   8  -1   -0.03    0.17 
   0   8   1   -0.09    0.16 
   1  -8   1   17.30    0.70 
  -1   8  -1   18.76    0.87 
   1   8   1   15.60    0.87 
   2  -8   1   16.31    0.67 
   2  -8   1   17.20    0.61 
  -2  -8  -1   15.89    0.68 
  -2   8  -1   16.92    0.81 
   2   8   1   15.59    0.84 
   3  -8   1    3.89    0.19 
   3  -8   1    4.03    0.24 
  -3  -8  -1    4.00    0.24 
   3   8   1    4.58    0.38 
  -3   8  -1    3.89    0.30 
   4  -8   1    4.26    0.26 
  -4  -8  -1    4.70    0.28 
   4  -8   1    4.48    0.22 
   4   8   1    4.48    0.36 
  -4   8  -1    4.48    0.32 
  -5  -8  -1   36.38    1.43 
   5  -8   1   35.97    1.34 
  -5   8  -1   35.82    1.58 
  -5   8  -1   35.96    1.42 
   5   8   1   37.86    1.62 
  -6  -8  -1    0.47    0.14 
   6  -8   1    0.70    0.12 
   6   8   1    0.78    0.16 
  -6   8  -1    0.77    0.14 
  -6   8  -1    0.66    0.13 
   7  -8   1    7.65    0.37 
  -7  -8  -1    7.88    0.42 
  -7   8  -1    7.33    0.40 
   8  -8   1    0.94    0.16 
  -8  -8  -1    1.04    0.19 
  -8   8  -1    1.07    0.18 
  -8  -9   1    0.16    0.18 
  -8   9   1    0.43    0.16 
  -7  -9   1    0.16    0.16 
  -7   9   1    0.11    0.14 
  -6  -9   1    0.34    0.14 
  -6   9   1    0.54    0.13 
  -6   9   1    0.51    0.14 
   6   9  -1    0.49    0.15 
  -5  -9   1    1.01    0.15 
   5  -9  -1    1.27    0.16 
  -5   9   1    1.24    0.17 
   5   9  -1    1.71    0.21 
   4  -9  -1   14.61    0.64 
  -4  -9   1   16.09    0.66 
  -4   9   1   13.97    0.72 
   4   9  -1   15.92    0.77 
  -3  -9   1    0.59    0.12 
   3  -9  -1    0.53    0.12 
  -3   9   1    0.69    0.16 
   3   9  -1    0.51    0.18 
   2  -9  -1   41.45    1.57 
  -2  -9   1   43.18    1.57 
  -2   9   1   40.66    1.78 
   2   9  -1   36.37    1.82 
   1  -9  -1    1.06    0.14 
  -1  -9   1    0.67    0.12 
   1   9  -1    0.88    0.23 
  -1   9   1    0.78    0.19 
   0  -9  -1   13.71    0.59 
   0  -9   1   13.45    0.58 
   0   9  -1   14.98    0.78 
   0   9   1   14.55    0.76 
   1  -9   1    1.83    0.16 
  -1  -9  -1    2.19    0.19 
  -1   9  -1    2.23    0.28 
   1   9   1    1.62    0.26 
   2  -9   1    4.92    0.28 
  -2  -9  -1    5.09    0.29 
   2   9   1    4.76    0.43 
  -2   9  -1    5.40    0.39 
  -3  -9  -1    0.00    0.11 
   3  -9   1    0.09    0.10 
   3   9   1    0.03    0.16 
  -3   9  -1    0.05    0.14 
  -4  -9  -1    0.93    0.15 
   4  -9   1    0.91    0.13 
  -4   9  -1    0.78    0.17 
   4   9   1    0.81    0.20 
   5  -9   1    0.57    0.12 
  -5  -9  -1    0.51    0.15 
  -5   9  -1    0.61    0.15 
   5   9   1    0.44    0.16 
   6  -9   1    4.30    0.28 
  -6  -9  -1    4.64    0.32 
   6   9   1    5.19    0.35 
  -6   9  -1    4.72    0.32 
  -7  -9  -1    2.19    0.23 
  -7   9  -1    2.05    0.20 
  -8  -9  -1    5.19    0.36 
  -8   9  -1    5.16    0.34 
  -7 -10   1    6.67    0.41 
   7 -10  -1    6.43    0.37 
  -6 -10   1    4.63    0.33 
   6 -10  -1    4.07    0.29 
   6  10  -1    4.75    0.34 
  -6  10   1    4.72    0.33 
  -5 -10   1    7.62    0.39 
   5 -10  -1    6.44    0.36 
  -5  10   1    6.75    0.42 
   5  10  -1    7.01    0.44 
  -4 -10   1    2.27    0.20 
   4 -10  -1    2.39    0.20 
   4  10  -1    2.15    0.25 
  -4  10   1    1.96    0.23 
   3 -10  -1    0.19    0.12 
  -3 -10   1    0.05    0.13 
   3  10  -1   -0.07    0.18 
  -3  10   1   -0.11    0.12 
   2 -10  -1    0.33    0.12 
  -2 -10   1    0.53    0.13 
   2  10  -1    0.75    0.24 
  -2  10   1    0.13    0.15 
   1 -10  -1    0.09    0.12 
  -1 -10   1    0.11    0.11 
  -1  10   1    0.19    0.16 
   1  10  -1    0.01    0.18 
   0 -10   1    0.09    0.10 
   0 -10  -1    0.07    0.11 
   0  10   1   -0.03    0.17 
   0  10  -1    0.04    0.19 
  -1 -10  -1   12.16    0.54 
   1 -10   1   11.60    0.53 
  -1  10  -1   13.03    0.69 
   1  10   1   12.28    0.71 
   2 -10   1   11.09    0.50 
  -2 -10  -1   11.24    0.50 
  -2  10  -1   11.43    0.63 
   2  10   1   11.25    0.69 
   3 -10   1   19.31    0.80 
  -3 -10  -1   19.64    0.80 
  -3  10  -1   18.81    0.92 
   3  10   1   20.01    1.00 
  -4 -10  -1    3.59    0.25 
   4 -10   1    3.31    0.25 
   4  10   1    2.70    0.30 
  -4  10  -1    3.18    0.30 
  -5 -10  -1   13.52    0.62 
   5 -10   1   13.43    0.59 
   5  10   1   14.09    0.72 
  -5  10  -1   14.04    0.69 
  -6 -10  -1   -0.23    0.13 
   6 -10   1    0.15    0.12 
  -6  10  -1    0.11    0.14 
   6  10   1    0.06    0.15 
  -7 -10  -1    2.23    0.24 
   7 -10   1    2.01    0.19 
  -6 -11   1    5.66    0.36 
   6 -11  -1    5.24    0.32 
  -5 -11   1    0.74    0.17 
   5 -11  -1    0.57    0.15 
  -5  11   1    0.69    0.16 
   5  11  -1    0.69    0.18 
   4 -11  -1   15.12    0.67 
  -4 -11   1   15.63    0.67 
  -4  11   1   15.07    0.76 
   4  11  -1   16.15    0.82 
  -3 -11   1    6.61    0.35 
   3 -11  -1    5.48    0.33 
   3  11  -1    6.11    0.48 
  -3  11   1    5.60    0.41 
   2 -11  -1    1.76    0.17 
  -2 -11   1    1.94    0.19 
   2  11  -1    1.77    0.30 
  -2  11   1    1.52    0.24 
   1 -11  -1    7.93    0.39 
  -1 -11   1    7.88    0.39 
   1  11  -1    6.78    0.56 
  -1  11   1    8.37    0.52 
   0 -11  -1   15.04    0.66 
   0 -11   1   15.53    0.66 
   0  11  -1   16.00    0.87 
   0  11   1   16.20    0.87 
   1 -11   1   10.94    0.49 
  -1 -11  -1    9.98    0.48 
  -1  11  -1   11.12    0.66 
   1  11   1   11.15    0.68 
  -2 -11  -1    7.35    0.38 
   2 -11   1    7.18    0.37 
   2  11   1    6.87    0.53 
  -2  11  -1    8.18    0.51 
   3 -11   1   -0.01    0.11 
  -3 -11  -1    0.00    0.13 
  -3  11  -1   -0.14    0.15 
   3  11   1   -0.11    0.17 
   4 -11   1    1.99    0.18 
  -4 -11  -1    2.56    0.22 
  -4  11  -1    1.81    0.24 
   4  11   1    2.14    0.28 
  -5 -11  -1    0.44    0.16 
   5 -11   1    0.20    0.12 
  -5  11  -1    0.32    0.15 
   5  11   1    0.41    0.18 
   6 -11   1    0.54    0.14 
  -6 -11  -1    0.35    0.16 
   6  11   1    0.53    0.17 
  -6  11  -1    0.50    0.16 
  -5 -12   1    0.74    0.17 
   5 -12  -1    0.80    0.15 
   5  12  -1    0.66    0.18 
  -5  12   1    0.64    0.18 
   4 -12  -1    4.54    0.30 
  -4 -12   1    5.31    0.31 
  -4  12   1    4.57    0.36 
   4  12  -1    4.91    0.41 
   3 -12  -1    0.55    0.15 
  -3 -12   1    0.73    0.14 
  -3  12   1    0.70    0.19 
   3  12  -1    0.61    0.21 
  -2 -12   1    0.02    0.11 
   2 -12  -1   -0.20    0.12 
  -2  12   1    0.02    0.17 
   2  12  -1   -0.24    0.20 
  -1 -12   1   -0.12    0.11 
   1 -12  -1   -0.12    0.12 
  -1  12   1   -0.13    0.18 
   1  12  -1    0.07    0.21 
   0 -12   1    9.53    0.46 
   0 -12  -1    9.70    0.46 
   0  12   1   10.77    0.67 
   0  12  -1   10.14    0.66 
  -1 -12  -1    2.71    0.24 
   1 -12   1    3.04    0.24 
   1  12   1    2.88    0.39 
  -1  12  -1    2.44    0.33 
  -2 -12  -1    4.34    0.28 
   2 -12   1    4.26    0.28 
  -2  12  -1    4.58    0.38 
   2  12   1    3.95    0.44 
   3 -12   1    4.97    0.31 
  -3 -12  -1    5.16    0.32 
   3  12   1    5.42    0.45 
  -3  12  -1    4.88    0.40 
   4 -12   1    2.80    0.25 
  -4 -12  -1    3.02    0.25 
   4  12   1    3.29    0.34 
  -4  12  -1    2.98    0.29 
  -5 -12  -1    0.60    0.17 
   5 -12   1    0.66    0.14 
  -5  12  -1    0.81    0.18 
   5  12   1    1.04    0.22 
   4 -13  -1    0.50    0.15 
  -4 -13   1    0.26    0.15 
  -4  13   1    0.51    0.17 
   4  13  -1    0.49    0.20 
   3 -13  -1   14.90    0.65 
  -3 -13   1   14.28    0.65 
  -3  13   1   14.04    0.75 
   3  13  -1   15.99    0.85 
  -2 -13   1    1.94    0.19 
   2 -13  -1    2.24    0.20 
  -2  13   1    2.00    0.28 
   2  13  -1    1.61    0.33 
   1 -13  -1    8.93    0.44 
  -1 -13   1    8.48    0.43 
  -1  13   1    9.64    0.60 
   1  13  -1    7.41    0.63 
   0 -13  -1   -0.12    0.13 
   0 -13   1   -0.05    0.12 
   0  13   1   -0.20    0.22 
   0  13  -1    0.04    0.23 
  -1 -13  -1    0.25    0.14 
   1 -13   1    0.31    0.12 
   1  13   1    0.12    0.21 
  -1  13  -1    0.03    0.19 
   2 -13   1    0.15    0.13 
  -2 -13  -1    0.05    0.12 
  -2  13  -1   -0.07    0.19 
   2  13   1    0.12    0.22 
  -3 -13  -1    1.59    0.20 
   3 -13   1    1.38    0.17 
  -3  13  -1    1.63    0.25 
   3  13   1    1.43    0.28 
  -4 -13  -1   -0.14    0.14 
   4 -13   1   -0.08    0.13 
   4  13   1   -0.06    0.17 
  -4  13  -1    0.13    0.16 
   1 -14  -1    0.26    0.14 
  -1 -14   1    0.33    0.14 
  -1  14   1    0.29    0.22 
   1  14  -1   -0.17    0.22 
   0 -14   1    1.01    0.17 
   0 -14  -1    0.60    0.16 
   0  14   1    0.69    0.27 
   0  14  -1    0.56    0.27 
  -1 -14  -1    0.27    0.14 
   1 -14   1    0.16    0.14 
  -1  14  -1    0.38    0.24 
   1  14   1    0.09    0.22 
  10   0  -2    0.24    0.19 
 -10   0   2    0.04    0.13 
   9   0  -2   -0.18    0.17 
  -9   0   2    0.00    0.10 
  -8   0   2    1.86    0.18 
   8   0  -2    1.85    0.22 
  -7   0   2    0.05    0.12 
   7   0  -2   -0.24    0.13 
  -6   0   2   53.38    1.99 
   6   0  -2   48.99    1.92 
  -5   0   2   -0.01    0.10 
   5   0  -2   -0.04    0.12 
  -4   0   2  194.82    7.30 
   4   0  -2  195.18    6.96 
  -3   0   2   -0.02    0.07 
   3   0  -2    0.04    0.08 
  -2   0   2   90.48    3.51 
   2   0  -2   96.38    3.36 
  -1   0   2    0.01    0.04 
  -1   0   2   -0.03    0.03 
   1   0  -2   -0.01    0.04 
   0   0   2   32.50    1.19 
   0   0  -2   29.66    1.35 
   0   0   2   32.61    1.15 
   0   0  -2   32.32    1.19 
   1   0   2   -0.05    0.03 
  -1   0  -2   -0.04    0.06 
  -1   0  -2   -0.02    0.03 
  -2   0  -2   27.57    1.18 
   2   0   2   27.99    1.00 
  -2   0  -2   26.30    1.05 
  -3   0  -2   -0.09    0.07 
   3   0   2    0.00    0.05 
  -3   0  -2   -0.01    0.07 
   4   0   2   78.54    2.89 
  -4   0  -2   78.67    3.05 
  -4   0  -2   84.07    3.34 
   5   0   2    0.02    0.09 
  -5   0  -2    0.01    0.08 
  -5   0  -2    0.01    0.09 
   6   0   2   53.98    2.07 
  -6   0  -2   58.02    2.36 
  -6   0  -2   57.44    2.18 
   7   0   2   -0.16    0.12 
  -7   0  -2    0.10    0.11 
   8   0   2    4.91    0.33 
  -8   0  -2    4.80    0.29 
   9   0   2    0.07    0.16 
  -9   0  -2    0.08    0.11 
  10   0   2    7.57    0.47 
 -10   0  -2    7.41    0.39 
 -10  -1   2    1.65    0.18 
  10  -1  -2    1.26    0.23 
 -10   1   2    1.97    0.19 
  10   1  -2    1.09    0.23 
   9  -1  -2    9.80    0.52 
  -9  -1   2    9.96    0.48 
  -9   1   2   10.27    0.48 
   9   1  -2    8.77    0.51 
  -8  -1   2    6.02    0.35 
   8  -1  -2    5.59    0.37 
   8   1  -2    5.40    0.39 
  -8   1   2    6.50    0.35 
  -7  -1   2   10.75    0.52 
   7  -1  -2   10.56    0.54 
   7   1  -2   10.66    0.54 
  -7   1   2   12.25    0.52 
   6  -1  -2    6.26    0.36 
  -6  -1   2    6.31    0.36 
   6   1  -2    6.51    0.37 
  -6   1   2    6.79    0.36 
   5  -1  -2    9.28    0.44 
  -5  -1   2    8.93    0.44 
   5   1  -2    9.26    0.44 
  -5   1   2    9.80    0.45 
   4  -1  -2    0.54    0.11 
  -4  -1   2    0.54    0.11 
   4   1  -2    0.44    0.11 
  -4   1   2    0.71    0.13 
   3  -1  -2   18.68    0.73 
  -3  -1   2   18.54    0.76 
   3   1  -2   18.34    0.74 
  -3   1   2   17.64    0.76 
  -3   1   2   20.10    0.78 
   3   1  -2   19.16    0.78 
  -2  -1   2    0.48    0.07 
   2  -1  -2    0.29    0.09 
  -2   1   2    0.57    0.07 
   2   1  -2    0.55    0.10 
   2   1  -2    0.37    0.06 
  -2   1   2    0.70    0.06 
  -1  -1   2   55.13    1.98 
  -1  -1   2   57.08    2.08 
  -1   1   2   53.48    1.99 
  -1   1   2   57.00    2.29 
  -1   1   2   55.02    2.07 
   0  -1   2    2.87    0.12 
   0  -1  -2    3.02    0.12 
   0  -1   2    3.05    0.11 
   0   1  -2    2.40    0.17 
   0   1   2    2.79    0.11 
   0   1   2    2.72    0.16 
  -1  -1  -2  195.00    6.68 
   1  -1   2  189.26    6.36 
  -1   1  -2  168.99    6.81 
   1   1   2  159.18    7.34 
  -1   1  -2  172.02    7.35 
   1   1   2  189.64    6.35 
  -2  -1  -2    8.24    0.33 
   2  -1   2    8.30    0.33 
   2   1   2    7.72    0.40 
  -2   1  -2    8.22    0.41 
  -2   1  -2    8.42    0.34 
   2   1   2    7.91    0.32 
   3  -1   2  117.19    4.03 
  -3  -1  -2  110.90    4.23 
   3   1   2  117.50    4.03 
   3   1   2  108.04    4.66 
  -3   1  -2  116.95    4.67 
  -3   1  -2  107.63    4.23 
  -4  -1  -2    3.28    0.23 
  -4  -1  -2    3.03    0.20 
  -4   1  -2    2.90    0.20 
  -4   1  -2    2.97    0.21 
   4   1   2    3.27    0.18 
   5  -1   2   13.54    0.56 
  -5  -1  -2   13.40    0.60 
  -5  -1  -2   14.66    0.65 
  -5   1  -2   14.33    0.64 
  -5   1  -2   13.52    0.60 
   5   1   2   13.78    0.56 
  -6  -1  -2   12.61    0.58 
  -6  -1  -2   13.27    0.61 
   6  -1   2   12.80    0.55 
  -6   1  -2   13.45    0.58 
   6   1   2   12.88    0.55 
  -6   1  -2   13.44    0.60 
  -7  -1  -2    4.59    0.29 
   7  -1   2    4.61    0.30 
   7   1   2    4.51    0.29 
  -7   1  -2    4.85    0.29 
  -8  -1  -2    1.40    0.17 
   8  -1   2    1.34    0.18 
  -8   1  -2    1.30    0.16 
   8   1   2    1.33    0.19 
   9  -1   2    0.20    0.16 
  -9  -1  -2    0.57    0.14 
  -9   1  -2    0.73    0.14 
   9   1   2    0.44    0.16 
  10  -1   2    1.20    0.22 
 -10  -1  -2    1.59    0.18 
  10   1   2    1.11    0.21 
 -10   1  -2    1.85    0.18 
  10  -2  -2   -0.05    0.18 
 -10  -2   2    0.28    0.15 
 -10   2   2    0.37    0.14 
  10   2  -2    0.01    0.17 
  -9  -2   2    0.30    0.15 
   9  -2  -2    0.46    0.20 
   9   2  -2    0.31    0.18 
  -9   2   2    0.62    0.14 
   8  -2  -2    6.78    0.40 
  -8  -2   2    6.38    0.36 
   8   2  -2    5.33    0.38 
  -8   2   2    7.11    0.37 
   7  -2  -2   13.04    0.60 
  -7  -2   2   12.87    0.60 
  -7   2   2   13.49    0.59 
   7   2  -2   12.48    0.61 
   6  -2  -2   24.34    0.97 
  -6  -2   2   22.54    0.99 
   6   2  -2   23.47    0.96 
  -6   2   2   25.81    1.00 
  -5  -2   2    7.12    0.38 
   5  -2  -2    7.30    0.37 
  -5   2   2    7.25    0.38 
   5   2  -2    6.95    0.39 
   5   2  -2    7.53    0.34 
  -5   2   2    8.26    0.33 
  -4  -2   2    8.69    0.42 
   4  -2  -2    8.99    0.40 
  -4   2   2    9.53    0.40 
   4   2  -2    8.25    0.42 
   4   2  -2    9.25    0.40 
  -3  -2   2   84.73    3.28 
   3  -2  -2   89.20    3.14 
   3   2  -2   90.74    3.59 
   3   2  -2   81.30    3.15 
  -3   2   2   90.25    3.58 
  -3   2   2   86.85    3.28 
   2  -2  -2  114.71    4.00 
  -2  -2   2  115.82    4.18 
   2   2  -2  109.84    4.01 
  -2   2   2  117.17    4.59 
   2   2  -2  103.14    4.60 
  -2   2   2  111.35    4.18 
  -1  -2   2  100.15    3.52 
   1  -2  -2   89.51    3.37 
  -1  -2   2   96.82    3.36 
  -1   2   2  102.25    3.89 
  -1   2   2   95.41    3.52 
   1   2  -2   82.68    3.90 
   0  -2   2   26.83    0.98 
   0  -2   2   26.09    0.93 
   0  -2  -2   26.51    0.98 
   0   2   2   26.46    1.11 
   0   2  -2   22.88    1.12 
   0   2   2   26.64    0.93 
   1  -2   2    8.87    0.34 
  -1  -2  -2    8.72    0.35 
  -1   2  -2    9.23    0.34 
   1   2   2    8.07    0.42 
   1   2   2    9.02    0.33 
  -1   2  -2    8.94    0.43 
   2  -2   2   12.16    0.47 
  -2  -2  -2   12.51    0.49 
  -2   2  -2   12.73    0.57 
   2   2   2   11.02    0.57 
   2   2   2   12.73    0.46 
  -2   2  -2   12.29    0.48 
   3  -2   2   23.65    0.87 
  -3  -2  -2   24.43    0.91 
  -3   2  -2   22.61    1.02 
   3   2   2   22.70    1.03 
   3   2   2   23.11    0.87 
  -3   2  -2   23.89    0.90 
  -4  -2  -2    3.49    0.20 
   4  -2   2    3.82    0.21 
  -4   2  -2    3.40    0.23 
   4   2   2    3.71    0.24 
   4   2   2    3.74    0.19 
  -4   2  -2    3.24    0.20 
   5  -2   2    0.66    0.12 
  -5  -2  -2    0.55    0.11 
   5   2   2    0.35    0.10 
  -5   2  -2    0.53    0.11 
  -5   2  -2    0.45    0.10 
  -6  -2  -2   16.52    0.71 
  -6  -2  -2   14.28    0.66 
   6  -2   2   15.60    0.63 
  -6   2  -2   16.00    0.69 
  -6   2  -2   14.40    0.65 
   6   2   2   14.92    0.62 
  -7  -2  -2   12.55    0.59 
   7  -2   2   13.02    0.56 
   7   2   2   13.51    0.57 
  -7   2  -2   12.91    0.58 
  -8  -2  -2    7.81    0.42 
   8  -2   2    7.88    0.43 
  -8   2  -2    8.47    0.41 
   8   2   2    8.15    0.43 
  -9  -2  -2    3.41    0.27 
   9  -2   2    4.13    0.33 
   9   2   2    3.39    0.29 
  -9   2  -2    3.75    0.27 
 -10  -2  -2    2.40    0.21 
  10  -2   2    2.86    0.29 
  10   2   2    2.07    0.26 
 -10   2  -2    2.77    0.23 
  10  -3  -2    3.24    0.32 
 -10  -3   2    4.15    0.31 
 -10   3   2    4.36    0.30 
  10   3  -2    3.51    0.32 
  -9  -3   2    7.94    0.45 
   9  -3  -2    8.64    0.47 
   9   3  -2    7.68    0.45 
  -9   3   2    8.70    0.44 
   8  -3  -2    7.73    0.46 
  -8  -3   2    8.20    0.45 
  -8   3   2    8.61    0.43 
   8   3  -2    7.18    0.45 
  -7  -3   2    0.87    0.18 
   7  -3  -2    1.04    0.17 
   7   3  -2    0.80    0.17 
  -7   3   2    1.56    0.19 
   6  -3  -2   32.37    1.24 
  -6  -3   2   32.04    1.29 
  -6   3   2   33.14    1.29 
   6   3  -2   30.71    1.24 
  -5  -3   2    1.42    0.15 
   5  -3  -2    1.37    0.15 
   5   3  -2    1.00    0.16 
  -5   3   2    1.58    0.12 
   5   3  -2    1.31    0.12 
  -5   3   2    1.06    0.14 
   4  -3  -2    0.61    0.11 
  -4  -3   2    0.34    0.09 
   4   3  -2    0.40    0.08 
  -4   3   2    0.29    0.07 
   4   3  -2    0.24    0.11 
  -4   3   2    0.21    0.09 
   3  -3  -2    0.85    0.11 
  -3  -3   2    1.05    0.10 
  -3   3   2    1.10    0.11 
   3   3  -2    1.24    0.13 
   3   3  -2    1.15    0.13 
  -3   3   2    1.16    0.11 
  -2  -3   2   87.88    3.21 
   2  -3  -2   88.58    3.06 
   2   3  -2   80.61    3.55 
   2   3  -2   85.14    3.08 
  -2   3   2   87.64    3.54 
  -2   3   2   84.16    3.21 
   1  -3  -2    8.86    0.32 
  -1  -3   2    7.94    0.33 
  -1  -3   2    8.47    0.32 
   1   3  -2    7.27    0.41 
  -1   3   2    8.27    0.34 
   0  -3   2   70.81    2.54 
   0  -3  -2   68.67    2.54 
   0  -3   2   66.84    2.42 
   0   3   2   69.83    2.84 
   0   3  -2   65.41    2.85 
   0   3   2   66.77    2.41 
  -1  -3  -2   93.43    3.45 
   1  -3   2   94.75    3.29 
   1  -3   2   95.37    3.45 
   1   3   2   93.21    3.28 
  -1   3  -2   91.02    3.85 
   1   3   2   87.32    3.84 
  -2  -3  -2   66.90    2.52 
   2  -3   2   67.83    2.41 
  -2   3  -2   68.67    2.82 
   2   3   2   70.20    2.40 
  -2   3  -2   67.83    2.52 
   2   3   2   62.24    2.82 
  -3  -3  -2    1.54    0.13 
   3  -3   2    1.44    0.11 
  -3   3  -2    1.39    0.15 
   3   3   2    1.45    0.11 
   3   3   2    1.60    0.17 
  -3   3  -2    1.31    0.10 
   4  -3   2   71.87    2.61 
  -4  -3  -2   75.19    2.74 
  -4   3  -2   72.68    2.73 
   4   3   2   69.99    2.60 
  -4   3  -2   71.80    3.02 
   4   3   2   73.18    3.04 
   5  -3   2    5.95    0.29 
  -5  -3  -2    6.19    0.32 
  -5   3  -2    6.25    0.30 
  -5   3  -2    6.08    0.33 
   5   3   2    6.09    0.34 
   5   3   2    6.01    0.29 
  -6  -3  -2    6.57    0.34 
   6  -3   2    5.77    0.32 
  -6   3  -2    6.04    0.32 
  -6   3  -2    5.96    0.32 
   6   3   2    5.88    0.30 
   7  -3   2    2.34    0.21 
  -7  -3  -2    1.78    0.21 
  -7   3  -2    2.31    0.20 
   7   3   2    1.91    0.19 
   8  -3   2   -0.15    0.14 
  -8  -3  -2    0.02    0.13 
  -8   3  -2   -0.07    0.12 
   8   3   2    0.03    0.13 
   9  -3   2    3.27    0.28 
  -9  -3  -2    3.45    0.29 
  -9   3  -2    3.50    0.28 
   9   3   2    3.25    0.28 
 -10  -3  -2    1.26    0.18 
  10  -3   2    0.77    0.22 
 -10   3  -2    1.21    0.18 
  10   3   2    0.89    0.19 
  10  -4  -2    0.00    0.16 
 -10  -4   2    0.14    0.16 
  10   4  -2    0.52    0.17 
 -10   4   2    0.26    0.14 
   9  -4  -2    1.55    0.22 
  -9  -4   2    1.39    0.22 
   9   4  -2    1.63    0.23 
  -9   4   2    1.65    0.20 
   8  -4  -2    0.06    0.15 
  -8  -4   2    0.01    0.14 
  -8   4   2    0.00    0.12 
   8   4  -2   -0.19    0.15 
  -7  -4   2    4.84    0.34 
   7  -4  -2    4.49    0.30 
  -7   4   2    4.68    0.32 
   7   4  -2    4.12    0.30 
  -6  -4   2    1.39    0.17 
   6  -4  -2    1.66    0.19 
   6   4  -2    1.35    0.18 
  -6   4   2    1.72    0.19 
  -5  -4   2   96.62    3.66 
   5  -4  -2   95.88    3.49 
   5   4  -2   99.04    4.00 
   5   4  -2   91.37    3.51 
  -5   4   2   96.37    3.66 
  -5   4   2  101.54    3.99 
  -4  -4   2    4.63    0.25 
   4  -4  -2    4.57    0.24 
  -4   4   2    4.51    0.25 
   4   4  -2    4.39    0.27 
  -4   4   2    4.17    0.24 
   4   4  -2    4.31    0.27 
  -3  -4   2   88.59    3.35 
   3  -4  -2   91.54    3.19 
  -3   4   2   89.26    3.69 
   3   4  -2   85.97    3.22 
  -3   4   2   87.76    3.35 
   3   4  -2   92.40    3.72 
   2  -4  -2   11.28    0.41 
  -2  -4   2   10.12    0.44 
  -2   4   2   11.01    0.44 
   2   4  -2   10.03    0.53 
   2   4  -2   10.97    0.45 
  -2   4   2   10.66    0.50 
  -1  -4   2   24.30    0.88 
   1  -4  -2   25.31    0.87 
  -1  -4   2   23.85    0.92 
  -1   4   2   25.56    1.06 
   1   4  -2   20.90    1.07 
   0  -4   2    2.09    0.11 
   0  -4   2    2.18    0.13 
   0  -4  -2    2.13    0.14 
   0   4   2    2.39    0.20 
   0   4  -2    2.11    0.21 
   1  -4   2   14.06    0.55 
   1  -4   2   14.19    0.52 
   1   4   2   13.19    0.67 
  -1   4  -2   14.22    0.67 
   1   4   2   14.51    0.51 
  -2  -4  -2    2.25    0.15 
   2  -4   2    2.46    0.13 
  -2   4  -2    2.27    0.13 
  -2   4  -2    2.53    0.21 
   2   4   2    2.40    0.23 
   2   4   2    2.41    0.12 
   3  -4   2    0.45    0.08 
  -3  -4  -2    0.56    0.09 
  -3   4  -2    0.54    0.12 
  -3   4  -2    0.45    0.07 
   3   4   2    0.34    0.13 
   3   4   2    0.54    0.07 
  -4  -4  -2    1.06    0.12 
   4  -4   2    1.50    0.13 
  -4   4  -2    1.09    0.14 
  -4   4  -2    1.26    0.11 
   4   4   2    1.54    0.18 
   4   4   2    1.16    0.10 
  -5  -4  -2   63.76    2.37 
   5  -4   2   61.68    2.26 
  -5   4  -2   63.22    2.36 
   5   4   2   63.70    2.62 
   5   4   2   60.70    2.25 
  -5   4  -2   59.85    2.60 
   6  -4   2    2.75    0.22 
  -6  -4  -2    3.32    0.24 
   6   4   2    2.79    0.20 
  -6   4  -2    2.96    0.21 
   6   4   2    3.23    0.23 
  -6   4  -2    2.95    0.22 
  -7  -4  -2   16.60    0.74 
   7  -4   2   16.65    0.69 
  -7   4  -2   17.16    0.72 
   7   4   2   16.28    0.68 
  -8  -4  -2    1.56    0.20 
   8  -4   2    1.89    0.20 
  -8   4  -2    1.95    0.20 
   8   4   2    2.05    0.19 
   9  -4   2    7.12    0.43 
  -9  -4  -2    7.01    0.41 
  -9   4  -2    7.01    0.40 
   9   4   2    7.80    0.42 
  10  -5  -2    4.94    0.39 
 -10  -5   2    5.92    0.39 
  10   5  -2    5.17    0.40 
 -10   5   2    5.79    0.36 
   9  -5  -2    4.00    0.32 
  -9  -5   2    3.72    0.32 
  -9   5   2    3.89    0.31 
   9   5  -2    3.81    0.32 
  -8  -5   2    6.68    0.43 
   8  -5  -2    6.72    0.41 
   8   5  -2    7.03    0.42 
  -8   5   2    7.25    0.41 
   7  -5  -2    0.17    0.13 
  -7  -5   2    0.25    0.15 
   7   5  -2    0.20    0.15 
  -7   5   2    0.05    0.12 
  -6  -5   2   15.01    0.66 
   6  -5  -2   14.83    0.62 
   6   5  -2   14.21    0.63 
  -6   5   2   14.26    0.64 
  -5  -5   2   13.64    0.59 
   5  -5  -2   13.13    0.56 
   5   5  -2   13.94    0.63 
   5   5  -2   12.91    0.58 
  -5   5   2   13.13    0.59 
  -5   5   2   13.97    0.62 
   4  -5  -2    3.19    0.19 
  -4  -5   2    3.05    0.22 
  -4   5   2    3.26    0.21 
  -4   5   2    3.32    0.21 
   4   5  -2    3.39    0.25 
   4   5  -2    3.17    0.22 
  -3  -5   2   11.20    0.48 
   3  -5  -2   11.46    0.45 
  -3   5   2   11.88    0.49 
   3   5  -2   10.38    0.48 
  -3   5   2   11.45    0.54 
   3   5  -2   11.83    0.57 
   2  -5  -2   32.57    1.16 
  -2  -5   2   32.30    1.24 
   2   5  -2   33.32    1.20 
  -2   5   2   30.76    1.24 
   2   5  -2   30.67    1.42 
  -2   5   2   33.31    1.39 
  -1  -5   2    0.48    0.06 
  -1  -5   2    0.33    0.07 
   1  -5  -2    0.38    0.04 
   1  -5  -2    0.35    0.07 
  -1   5   2    0.32    0.10 
   1   5  -2    0.46    0.15 
   0  -5   2   24.37    0.88 
   0  -5  -2   23.37    0.94 
   0  -5   2   25.35    0.94 
   0   5   2   24.82    1.10 
   0   5  -2   23.46    1.11 
  -1  -5  -2   10.20    0.43 
   1  -5   2   10.34    0.42 
   1  -5   2   10.50    0.39 
   1   5   2    9.67    0.54 
  -1   5  -2   10.40    0.54 
   2  -5   2  109.19    3.86 
   2  -5   2  109.38    4.05 
  -2  -5  -2  108.72    4.06 
   2   5   2  112.05    3.84 
   2   5   2  101.21    4.53 
  -2   5  -2  109.65    4.51 
  -3  -5  -2    1.06    0.12 
   3  -5   2    1.03    0.10 
  -3   5  -2    1.06    0.15 
   3   5   2    1.26    0.10 
  -3   5  -2    0.95    0.10 
   3   5   2    1.35    0.19 
  -4  -5  -2   52.91    2.00 
   4  -5   2   52.15    1.90 
  -4   5  -2   51.78    2.22 
   4   5   2   54.01    2.25 
  -4   5  -2   51.96    1.99 
   4   5   2   52.25    1.89 
  -5  -5  -2    2.83    0.21 
   5  -5   2    2.71    0.19 
   5   5   2    2.81    0.17 
  -5   5  -2    2.97    0.19 
  -5   5  -2    2.71    0.22 
   5   5   2    2.79    0.24 
  -6  -5  -2    0.12    0.12 
   6  -5   2    0.41    0.11 
  -6   5  -2    0.19    0.11 
  -6   5  -2    0.38    0.10 
   6   5   2    0.30    0.12 
   6   5   2    0.19    0.09 
   7  -5   2    0.99    0.16 
  -7  -5  -2    0.97    0.17 
   7   5   2    0.80    0.14 
  -7   5  -2    0.88    0.14 
  -8  -5  -2    0.27    0.15 
   8  -5   2    0.37    0.15 
  -8   5  -2    0.48    0.14 
   8   5   2    0.32    0.14 
  -9  -5  -2    0.25    0.15 
   9  -5   2    0.21    0.17 
  -9   5  -2    0.02    0.14 
   9   5   2    0.06    0.15 
   9  -6  -2    0.37    0.17 
  -9  -6   2    0.29    0.17 
  -9   6   2    0.42    0.17 
   9   6  -2    0.42    0.18 
  -8  -6   2    2.09    0.23 
   8  -6  -2    2.45    0.23 
   8   6  -2    2.43    0.25 
  -8   6   2    2.37    0.24 
  -7  -6   2   17.93    0.79 
   7  -6  -2   17.55    0.74 
  -7   6   2   18.68    0.78 
   7   6  -2   16.68    0.75 
  -6  -6   2    7.65    0.40 
   6  -6  -2    7.19    0.37 
  -6   6   2    7.62    0.39 
   6   6  -2    8.23    0.43 
   6   6  -2    7.20    0.40 
  -6   6   2    7.99    0.39 
  -5  -6   2    4.89    0.29 
   5  -6  -2    5.05    0.27 
  -5   6   2    5.03    0.30 
   5   6  -2    5.15    0.29 
  -5   6   2    5.22    0.28 
   5   6  -2    5.15    0.31 
  -4  -6   2    7.30    0.35 
   4  -6  -2    7.11    0.32 
  -4   6   2    6.90    0.35 
   4   6  -2    7.58    0.34 
  -4   6   2    6.99    0.38 
   4   6  -2    7.07    0.41 
  -3  -6   2   35.59    1.36 
   3  -6  -2   36.43    1.28 
   3   6  -2   34.30    1.30 
   3   6  -2   35.25    1.55 
  -3   6   2   34.91    1.36 
  -3   6   2   33.96    1.51 
   2  -6  -2   37.08    1.43 
   2  -6  -2   38.86    1.33 
  -2  -6   2   37.37    1.42 
   2   6  -2   34.85    1.63 
   2   6  -2   36.60    1.36 
  -2   6   2   36.78    1.60 
  -1  -6   2   59.18    2.13 
   1  -6  -2   55.19    2.13 
  -1  -6   2   55.94    2.02 
   1   6  -2   52.93    2.43 
  -1   6   2   58.38    2.40 
   0  -6   2   13.62    0.54 
   0  -6   2   13.69    0.49 
   0  -6  -2   12.89    0.54 
   0   6   2   13.10    0.67 
   0   6  -2   12.82    0.69 
   1  -6   2    0.08    0.04 
   1  -6   2    0.00    0.07 
  -1  -6  -2   -0.01    0.08 
   1   6   2   -0.03    0.14 
  -1   6  -2    0.09    0.12 
   2  -6   2   14.16    0.53 
   2  -6   2   13.69    0.56 
  -2  -6  -2   14.19    0.58 
   2   6   2   12.41    0.72 
  -2   6  -2   13.91    0.68 
   2   6   2   14.33    0.51 
   3  -6   2   10.89    0.43 
  -3  -6  -2   10.63    0.46 
  -3   6  -2   10.66    0.55 
   3   6   2   11.00    0.41 
   3   6   2   10.25    0.58 
  -3   6  -2   10.55    0.45 
   4  -6   2    0.49    0.09 
  -4  -6  -2    0.55    0.12 
  -4   6  -2    0.34    0.12 
   4   6   2    0.46    0.16 
  -4   6  -2    0.60    0.09 
   4   6   2    0.52    0.08 
   5  -6   2    1.32    0.13 
  -5  -6  -2    1.27    0.15 
   5   6   2    1.31    0.12 
  -5   6  -2    1.11    0.16 
  -5   6  -2    1.22    0.13 
   5   6   2    1.24    0.18 
   6  -6   2    0.53    0.12 
  -6  -6  -2    0.54    0.14 
  -6   6  -2    0.40    0.11 
   6   6   2    0.55    0.14 
  -6   6  -2    0.36    0.12 
   6   6   2    0.72    0.11 
  -7  -6  -2   11.98    0.57 
   7  -6   2   12.00    0.53 
   7   6   2   12.59    0.52 
  -7   6  -2   12.32    0.55 
  -8  -6  -2    7.74    0.45 
   8  -6   2    8.27    0.42 
   8   6   2    8.25    0.40 
  -8   6  -2    7.94    0.42 
  -9  -6  -2    8.94    0.49 
   9  -6   2    8.33    0.45 
  -9   6  -2    8.51    0.47 
   9   6   2    8.33    0.44 
  -9  -7   2    4.09    0.36 
   9  -7  -2    4.03    0.33 
  -9   7   2    4.32    0.34 
   8  -7  -2   10.71    0.53 
  -8  -7   2   11.06    0.56 
   8   7  -2   10.22    0.54 
  -8   7   2   11.69    0.56 
  -7  -7   2    5.53    0.35 
   7  -7  -2    4.92    0.30 
   7   7  -2    4.65    0.33 
  -7   7   2    4.60    0.33 
   6  -7  -2    0.05    0.11 
  -6  -7   2    0.22    0.14 
   6   7  -2    0.05    0.12 
  -6   7   2   -0.21    0.11 
   6   7  -2    0.13    0.11 
  -6   7   2    0.20    0.11 
  -5  -7   2    4.37    0.27 
   5  -7  -2    4.63    0.25 
   5   7  -2    4.96    0.32 
  -5   7   2    4.42    0.29 
  -5   7   2    4.49    0.28 
   5   7  -2    4.41    0.27 
   4  -7  -2    0.26    0.08 
  -4  -7   2    0.29    0.12 
   4   7  -2    0.34    0.14 
  -4   7   2    0.25    0.09 
   4   7  -2    0.15    0.09 
  -4   7   2    0.06    0.11 
  -3  -7   2    0.52    0.11 
   3  -7  -2    0.56    0.07 
  -3   7   2    0.42    0.13 
   3   7  -2    0.56    0.16 
   3   7  -2    0.85    0.10 
  -3   7   2    0.57    0.10 
  -2  -7   2    0.56    0.10 
   2  -7  -2    0.60    0.05 
   2  -7  -2    0.40    0.10 
   2   7  -2    0.38    0.09 
   2   7  -2    0.29    0.17 
  -2   7   2    0.65    0.15 
  -1  -7   2   43.61    1.62 
   1  -7  -2   42.87    1.62 
  -1   7   2   43.86    1.84 
   1   7  -2   38.48    1.87 
   0  -7   2   47.09    1.67 
   0  -7  -2   44.89    1.78 
   0  -7   2   47.29    1.78 
   0   7  -2   45.96    2.05 
   0   7   2   48.32    2.04 
  -1  -7  -2   48.43    1.87 
   1  -7   2   48.25    1.87 
   1  -7   2   49.92    1.76 
  -1   7  -2   50.77    2.15 
   1   7   2   48.44    2.15 
   2  -7   2   34.12    1.32 
   2  -7   2   35.81    1.24 
  -2  -7  -2   34.32    1.33 
  -2   7  -2   34.21    1.52 
   2   7   2   32.64    1.56 
  -3  -7  -2   22.48    0.89 
   3  -7   2   22.33    0.87 
   3  -7   2   22.44    0.82 
   3   7   2   20.94    1.05 
  -3   7  -2   22.18    1.02 
   4  -7   2    0.37    0.09 
  -4  -7  -2    0.41    0.12 
  -4   7  -2    0.19    0.12 
  -4   7  -2    0.30    0.09 
   4   7   2    0.28    0.06 
   4   7   2    0.24    0.16 
   5  -7   2    5.46    0.28 
  -5  -7  -2    5.96    0.32 
  -5   7  -2    6.13    0.30 
   5   7   2    5.66    0.26 
  -5   7  -2    6.02    0.36 
   5   7   2    6.06    0.39 
  -6  -7  -2    6.43    0.36 
   6  -7   2    6.39    0.32 
   6   7   2    6.69    0.40 
   6   7   2    6.65    0.32 
  -6   7  -2    6.53    0.34 
  -6   7  -2    6.64    0.38 
  -7  -7  -2    1.16    0.18 
   7  -7   2    0.78    0.14 
  -7   7  -2    1.11    0.15 
   8  -7   2    0.11    0.14 
  -8  -7  -2    0.06    0.15 
  -8   7  -2   -0.04    0.12 
   8  -8  -2    0.54    0.16 
  -8  -8   2    0.46    0.18 
  -8   8   2    0.13    0.15 
  -7  -8   2    2.11    0.22 
   7  -8  -2    2.60    0.22 
  -7   8   2    2.46    0.22 
   6  -8  -2   13.95    0.57 
  -6  -8   2   13.76    0.63 
  -6   8   2   13.98    0.66 
  -6   8   2   13.84    0.63 
   6   8  -2   14.05    0.70 
   5  -8  -2    1.05    0.12 
  -5  -8   2    1.21    0.17 
   5   8  -2    1.48    0.19 
  -5   8   2    1.27    0.16 
  -5   8   2    0.98    0.16 
   4  -8  -2   58.83    2.12 
  -4  -8   2   58.69    2.24 
  -4   8   2   57.76    2.48 
   4   8  -2   59.18    2.51 
  -4   8   2   58.95    2.25 
   3  -8  -2    4.18    0.26 
  -3  -8   2    4.18    0.25 
   3   8  -2    4.03    0.33 
  -3   8   2    4.30    0.29 
   2  -8  -2    2.58    0.21 
  -2  -8   2    2.58    0.20 
   2   8  -2    2.78    0.30 
  -2   8   2    2.38    0.24 
   1  -8  -2   16.73    0.70 
  -1  -8   2   16.75    0.69 
   1   8  -2   16.34    0.87 
  -1   8   2   18.12    0.84 
   0  -8   2    4.00    0.22 
   0  -8  -2    4.09    0.24 
   0   8  -2    4.18    0.39 
   0   8   2    4.04    0.34 
  -1  -8  -2    0.43    0.10 
   1  -8   2    0.49    0.06 
   1  -8   2    0.42    0.10 
  -1   8  -2    0.26    0.16 
   1   8   2    0.83    0.22 
   2  -8   2   22.82    0.80 
   2  -8   2   22.12    0.86 
  -2  -8  -2   21.98    0.87 
   2   8   2   20.02    1.06 
  -2   8  -2   20.66    1.01 
  -3  -8  -2    0.48    0.11 
   3  -8   2    0.45    0.08 
   3  -8   2    0.47    0.10 
  -3   8  -2    0.50    0.16 
   3   8   2    0.44    0.20 
  -4  -8  -2   12.10    0.55 
   4  -8   2   11.92    0.53 
   4  -8   2   13.13    0.50 
   4   8   2   12.72    0.68 
  -4   8  -2   12.17    0.62 
  -5  -8  -2    1.16    0.16 
   5  -8   2    0.74    0.11 
   5  -8   2    1.14    0.13 
   5   8   2    1.07    0.19 
  -5   8  -2    1.05    0.16 
   6  -8   2   21.70    0.87 
  -6  -8  -2   22.54    0.93 
  -6   8  -2   22.61    1.03 
   6   8   2   23.97    1.06 
  -6   8  -2   22.98    0.92 
  -7  -8  -2    1.83    0.21 
   7  -8   2    1.83    0.17 
  -7   8  -2    2.08    0.19 
   8  -8   2    4.69    0.31 
  -8  -8  -2    5.72    0.37 
  -8   8  -2    5.32    0.33 
  -8  -9   2    1.05    0.21 
  -8   9   2    1.60    0.22 
  -7  -9   2    4.75    0.35 
  -7   9   2    5.22    0.34 
  -6  -9   2    3.21    0.26 
  -6   9   2    2.96    0.26 
   5  -9  -2    1.68    0.18 
  -5  -9   2    2.05    0.20 
   5   9  -2    2.27    0.24 
  -5   9   2    2.14    0.21 
  -4  -9   2    0.39    0.12 
   4  -9  -2    0.38    0.13 
  -4   9   2    0.24    0.12 
   4   9  -2    0.56    0.17 
   3  -9  -2    8.33    0.40 
  -3  -9   2    7.82    0.39 
  -3   9   2    7.74    0.46 
   3   9  -2    8.29    0.50 
  -2  -9   2    0.42    0.12 
   2  -9  -2    0.50    0.12 
   2   9  -2    0.45    0.18 
  -2   9   2    0.75    0.18 
  -1  -9   2   17.28    0.70 
   1  -9  -2   17.61    0.71 
   1   9  -2   15.40    0.89 
  -1   9   2   17.36    0.85 
   0  -9  -2    1.48    0.15 
   0  -9   2    1.59    0.15 
   0   9  -2    1.76    0.27 
   0   9   2    1.71    0.25 
   1  -9   2   13.71    0.59 
   1   9   2   14.20    0.77 
  -1   9  -2   14.64    0.77 
  -2  -9  -2   -0.08    0.10 
   2  -9   2    0.04    0.10 
  -2   9  -2   -0.16    0.14 
   2   9   2    0.02    0.19 
  -3  -9  -2   30.74    1.23 
   3  -9   2   31.44    1.22 
   3   9   2   31.48    1.46 
  -3   9  -2   31.44    1.40 
   4  -9   2    0.81    0.13 
  -4  -9  -2    0.88    0.14 
   4   9   2    1.05    0.22 
  -4   9  -2    1.03    0.18 
  -5  -9  -2    8.82    0.42 
   5  -9   2    7.62    0.38 
  -5   9  -2    7.59    0.45 
   5   9   2    8.14    0.49 
  -6  -9  -2    0.85    0.17 
   6  -9   2    0.83    0.13 
   6   9   2    0.69    0.18 
  -6   9  -2    0.89    0.17 
   7  -9   2    0.25    0.13 
  -7  -9  -2    0.40    0.15 
  -7 -10   2    2.60    0.25 
   7 -10  -2    2.50    0.23 
   6 -10  -2    7.09    0.38 
  -6 -10   2    7.03    0.41 
   5 -10  -2    0.07    0.13 
  -5 -10   2    0.25    0.13 
  -5  10   2    0.16    0.14 
   5  10  -2    0.20    0.15 
   4 -10  -2   18.56    0.79 
  -4 -10   2   19.05    0.79 
   4  10  -2   19.52    0.92 
  -4  10   2   17.85    0.88 
   3 -10  -2    2.61    0.24 
  -3 -10   2    2.91    0.24 
   3  10  -2    3.20    0.33 
  -3  10   2    2.85    0.27 
   2 -10  -2   19.85    0.80 
  -2 -10   2   19.62    0.79 
   2  10  -2   17.94    0.98 
  -2  10   2   18.38    0.92 
   1 -10  -2   12.66    0.55 
  -1 -10   2   12.08    0.53 
   1  10  -2   11.06    0.72 
  -1  10   2   13.04    0.68 
   0 -10  -2    4.90    0.27 
   0 -10   2    4.73    0.28 
   0  10   2    5.05    0.41 
   0  10  -2    4.52    0.44 
  -1 -10  -2    0.12    0.10 
   1 -10   2    0.12    0.11 
  -1  10  -2    0.15    0.17 
   1  10   2    0.14    0.21 
   2 -10   2    0.67    0.12 
  -2 -10  -2    0.97    0.15 
  -2  10  -2    1.13    0.22 
   2  10   2    0.81    0.23 
  -3 -10  -2    2.18    0.20 
   3 -10   2    2.46    0.20 
  -3  10  -2    2.09    0.24 
   3  10   2    2.53    0.32 
   4 -10   2    2.63    0.21 
  -4 -10  -2    2.57    0.22 
   4  10   2    2.70    0.29 
  -4  10  -2    2.50    0.26 
  -5 -10  -2    1.85    0.20 
   5 -10   2    1.51    0.16 
  -5  10  -2    1.66    0.21 
   5  10   2    1.63    0.24 
   6 -10   2    5.44    0.31 
  -6 -10  -2    5.70    0.36 
  -6  10  -2    5.85    0.39 
   6  10   2    6.63    0.43 
  -7 -10  -2    1.92    0.22 
   7 -10   2    2.47    0.20 
  -6 -11   2    0.96    0.19 
   6 -11  -2    0.67    0.15 
  -5 -11   2   -0.12    0.14 
   5 -11  -2    0.09    0.12 
  -5  11   2    0.01    0.14 
   5  11  -2   -0.01    0.14 
   4 -11  -2   -0.06    0.13 
  -4 -11   2    0.03    0.14 
  -4  11   2    0.04    0.14 
   4  11  -2   -0.09    0.15 
  -3 -11   2    0.71    0.14 
   3 -11  -2    0.75    0.15 
   3  11  -2    0.75    0.22 
  -3  11   2    1.07    0.18 
  -2 -11   2    0.78    0.14 
   2 -11  -2    0.85    0.15 
  -2  11   2    0.63    0.20 
   2  11  -2    0.51    0.21 
  -1 -11   2   11.44    0.50 
   1 -11  -2   10.84    0.51 
   1  11  -2    9.97    0.67 
  -1  11   2   11.62    0.65 
   0 -11   2   15.23    0.63 
   0 -11  -2   14.70    0.64 
   0  11   2   15.19    0.83 
   0  11  -2   14.00    0.82 
   1 -11   2   21.59    0.86 
  -1 -11  -2   20.85    0.87 
  -1  11  -2   21.02    1.06 
   1  11   2   21.41    1.09 
   2 -11   2    6.82    0.36 
  -2 -11  -2    7.14    0.37 
   2  11   2    7.09    0.55 
  -2  11  -2    7.20    0.48 
   3 -11   2    1.28    0.16 
  -3 -11  -2    1.31    0.16 
  -3  11  -2    1.54    0.24 
   3  11   2    1.43    0.28 
  -4 -11  -2    4.48    0.30 
   4 -11   2    4.54    0.27 
   4  11   2    4.36    0.40 
  -4  11  -2    3.46    0.34 
   5 -11   2    4.94    0.30 
  -5 -11  -2    5.54    0.34 
   5  11   2    5.76    0.42 
  -5  11  -2    5.04    0.37 
  -6 -11  -2    0.14    0.16 
   6 -11   2   -0.03    0.11 
   6  11   2    0.16    0.17 
  -6  11  -2    0.09    0.14 
   5 -12  -2    7.56    0.40 
  -5 -12   2    7.88    0.42 
   5  12  -2    7.50    0.47 
  -5  12   2    7.37    0.45 
   4 -12  -2    0.90    0.16 
  -4 -12   2    1.04    0.17 
   4  12  -2    1.02    0.22 
  -4  12   2    0.89    0.19 
   3 -12  -2    4.20    0.29 
  -3 -12   2    4.01    0.29 
  -3  12   2    3.88    0.33 
   3  12  -2    4.31    0.39 
  -2 -12   2    3.95    0.28 
   2 -12  -2    4.16    0.29 
  -2  12   2    4.45    0.38 
   2  12  -2    4.03    0.43 
  -1 -12   2    1.41    0.16 
   1 -12  -2    1.81    0.18 
   1  12  -2    1.62    0.29 
  -1  12   2    1.89    0.27 
   0 -12  -2    2.67    0.24 
   0 -12   2    2.65    0.21 
   0  12  -2    2.46    0.35 
   0  12   2    2.43    0.32 
  -1 -12  -2    3.51    0.26 
   1 -12   2    3.62    0.25 
   1  12   2    3.64    0.40 
  -1  12  -2    3.64    0.37 
  -2 -12  -2    0.39    0.14 
   2 -12   2    0.48    0.13 
   2  12   2    0.29    0.22 
  -2  12  -2    0.26    0.18 
   3 -12   2    0.44    0.13 
  -3 -12  -2    0.26    0.12 
  -3  12  -2    0.35    0.18 
   3  12   2    0.37    0.23 
  -4 -12  -2    1.50    0.19 
   4 -12   2    1.59    0.17 
  -4  12  -2    1.37    0.22 
   4  12   2    0.97    0.25 
   5 -12   2    6.31    0.34 
  -5 -12  -2    6.34    0.36 
   5  12   2    6.88    0.47 
  -5  12  -2    6.32    0.42 
  -4 -13   2    0.65    0.17 
   4 -13  -2    0.55    0.16 
   4  13  -2    0.44    0.21 
  -4  13   2    0.71    0.19 
  -3 -13   2    0.06    0.14 
   3 -13  -2   -0.02    0.14 
   3  13  -2    0.19    0.20 
  -3  13   2    0.14    0.17 
  -2 -13   2    5.61    0.35 
   2 -13  -2    6.03    0.36 
  -2  13   2    6.99    0.47 
   2  13  -2    6.17    0.51 
   1 -13  -2    0.08    0.13 
  -1 -13   2   -0.29    0.12 
   1  13  -2   -0.10    0.20 
  -1  13   2   -0.01    0.18 
   0 -13   2    1.20    0.16 
   0 -13  -2    0.99    0.16 
   0  13   2    1.56    0.31 
   0  13  -2    1.05    0.26 
  -1 -13  -2   -0.02    0.13 
   1 -13   2    0.12    0.11 
   1  13   2   -0.21    0.20 
  -1  13  -2   -0.11    0.20 
  -2 -13  -2    7.23    0.38 
   2 -13   2    6.80    0.36 
   2  13   2    6.64    0.57 
  -2  13  -2    6.77    0.48 
   3 -13   2    0.69    0.14 
  -3 -13  -2    0.71    0.16 
  -3  13  -2    0.84    0.20 
   3  13   2    0.54    0.25 
   1 -14  -2    4.71    0.32 
  -1 -14   2    5.39    0.31 
   1  14  -2    4.19    0.46 
  -1  14   2    4.87    0.43 
   0 -14   2    0.31    0.14 
   0 -14  -2    0.29    0.14 
   0  14  -2    0.31    0.26 
   0  14   2    0.37    0.23 
   1 -14   2   -0.11    0.13 
  -1 -14  -2   -0.20    0.13 
  -1  14  -2   -0.06    0.20 
   1  14   2   -0.08    0.24 
 -10   0   3    0.18    0.13 
  10   0  -3    0.00    0.17 
  -9   0   3   10.73    0.52 
   9   0  -3   11.35    0.57 
  -8   0   3    0.02    0.11 
   8   0  -3   -0.18    0.15 
   7   0  -3    1.75    0.21 
  -7   0   3    2.63    0.23 
  -6   0   3   -0.07    0.09 
   6   0  -3   -0.22    0.13 
   5   0  -3   20.59    0.84 
  -5   0   3   20.56    0.86 
   4   0  -3    0.09    0.10 
  -4   0   3    0.05    0.10 
  -3   0   3    0.62    0.11 
   3   0  -3    0.60    0.11 
  -2   0   3   -0.03    0.06 
  -2   0   3   -0.04    0.06 
   2   0  -3   -0.06    0.04 
  -1   0   3   53.39    1.86 
   1   0  -3   53.21    2.16 
  -1   0   3   49.25    1.95 
   0   0  -3   -0.09    0.07 
   0   0   3   -0.01    0.01 
   0   0   3    0.02    0.03 
  -1   0  -3  877.28   38.39 
  -1   0  -3 1000.00   35.09 
   2   0   3    0.06    0.04 
  -2   0  -3   -0.01    0.04 
  -2   0  -3   -0.04    0.08 
  -3   0  -3   35.00    1.46 
   3   0   3   40.82    1.39 
  -3   0  -3   38.12    1.63 
  -4   0  -3   -0.03    0.08 
  -4   0  -3   -0.08    0.09 
   4   0   3   -0.03    0.07 
  -5   0  -3    5.63    0.32 
  -5   0  -3    6.95    0.36 
   5   0   3    5.89    0.30 
   6   0   3    0.10    0.10 
  -6   0  -3    0.13    0.10 
  -6   0  -3    0.05    0.10 
  -7   0  -3    0.39    0.12 
   7   0   3    0.03    0.11 
   8   0   3    0.03    0.12 
  -8   0  -3    0.16    0.11 
  -9   0  -3    4.53    0.28 
   9   0   3    3.83    0.33 
  10   0   3   -0.01    0.16 
 -10  -1   3    0.76    0.16 
  10  -1  -3    0.94    0.21 
 -10   1   3    0.82    0.15 
  10   1  -3    0.81    0.20 
  -9  -1   3    5.67    0.34 
   9  -1  -3    4.75    0.38 
   9   1  -3    5.80    0.40 
  -9   1   3    6.01    0.34 
   8  -1  -3   23.69    0.99 
  -8  -1   3   23.41    0.99 
  -8   1   3   24.95    0.99 
   8   1  -3   23.31    0.98 
  -7  -1   3    0.06    0.11 
   7  -1  -3   -0.22    0.14 
   7   1  -3    0.05    0.14 
  -7   1   3    0.18    0.12 
   6  -1  -3   60.89    2.31 
  -6  -1   3   63.34    2.40 
   6   1  -3   60.91    2.31 
  -6   1   3   63.91    2.40 
  -5  -1   3    7.28    0.40 
   5  -1  -3    8.44    0.41 
  -5   1   3    8.95    0.41 
   4  -1  -3   43.61    1.65 
  -4  -1   3   43.94    1.72 
   4   1  -3   45.88    1.66 
  -4   1   3   43.85    1.72 
  -3  -1   3   16.33    0.69 
   3  -1  -3   17.10    0.67 
  -3   1   3   15.45    0.68 
  -3   1   3   16.33    0.70 
   3   1  -3   17.55    0.70 
   3   1  -3   17.42    0.67 
  -2  -1   3   11.43    0.47 
  -2  -1   3   11.72    0.48 
   2  -1  -3   11.69    0.48 
  -2   1   3   11.79    0.48 
   2   1  -3   11.20    0.52 
  -2   1   3   12.06    0.50 
  -1  -1   3   55.83    1.94 
  -1  -1   3   54.76    2.04 
  -1   1   3   55.22    1.94 
  -1   1   3   54.55    2.03 
   1   1  -3   48.09    2.26 
  -1   1   3   56.41    2.25 
   0  -1   3    4.68    0.19 
   0  -1   3    4.81    0.19 
   0   1   3    4.65    0.19 
   0   1  -3    4.10    0.27 
   1  -1   3   40.45    1.38 
  -1  -1  -3   39.20    1.44 
   1   1   3   38.97    1.38 
  -1   1  -3   36.01    1.64 
  -1   1  -3   40.91    1.43 
   1   1   3   34.45    1.63 
  -2  -1  -3   28.30    1.06 
   2  -1   3   28.73    1.02 
  -2   1  -3   29.25    1.06 
   2   1   3   25.01    1.21 
   2   1   3   28.34    1.02 
  -2   1  -3   28.34    1.23 
  -3  -1  -3    9.84    0.42 
   3  -1   3   10.13    0.41 
  -3   1  -3    9.95    0.50 
   3   1   3    9.42    0.49 
  -3   1  -3   10.06    0.42 
   3   1   3   10.63    0.40 
   4  -1   3   44.74    1.64 
  -4  -1  -3   47.24    1.92 
  -4  -1  -3   43.43    1.73 
   4   1   3   45.55    1.64 
  -4   1  -3   42.92    1.72 
  -4   1  -3   45.69    1.91 
  -5  -1  -3    5.99    0.34 
   5  -1   3    5.75    0.28 
  -5  -1  -3    5.47    0.31 
  -5   1  -3    6.22    0.34 
  -5   1  -3    5.48    0.30 
   5   1   3    5.80    0.29 
  -6  -1  -3   22.88    0.96 
   6  -1   3   22.84    0.91 
  -6  -1  -3   25.09    1.04 
   6   1   3   22.23    0.90 
  -6   1  -3   23.62    0.96 
  -6   1  -3   24.19    1.04 
   7  -1   3    2.22    0.20 
  -7  -1  -3    2.87    0.23 
   7   1   3    2.34    0.20 
  -7   1  -3    2.63    0.22 
   8  -1   3   11.70    0.56 
  -8  -1  -3   12.86    0.56 
   8   1   3   12.61    0.56 
  -8   1  -3   12.32    0.56 
  -9  -1  -3    0.07    0.12 
   9  -1   3   -0.19    0.14 
  -9   1  -3    0.14    0.12 
   9   1   3   -0.22    0.14 
  10  -1   3    2.71    0.29 
 -10  -1  -3    3.10    0.24 
  10   1   3    3.11    0.30 
  10  -2  -3    1.30    0.23 
 -10  -2   3    1.29    0.18 
  10   2  -3    1.50    0.21 
 -10   2   3    1.09    0.17 
  -9  -2   3    2.12    0.22 
   9  -2  -3    2.60    0.28 
  -9   2   3    2.49    0.22 
   9   2  -3    2.06    0.24 
   8  -2  -3    0.04    0.15 
  -8  -2   3    0.25    0.14 
  -8   2   3    0.18    0.13 
   8   2  -3    0.13    0.16 
  -7  -2   3    1.55    0.19 
   7  -2  -3    0.94    0.18 
   7   2  -3    0.80    0.18 
  -7   2   3    0.80    0.14 
   6  -2  -3    8.20    0.43 
  -6  -2   3    7.45    0.41 
   6   2  -3    7.87    0.41 
  -6   2   3    8.64    0.42 
   5  -2  -3    2.36    0.20 
  -5  -2   3    2.14    0.21 
  -5   2   3    2.56    0.12 
   5   2  -3    2.51    0.12 
   5   2  -3    2.51    0.22 
  -5   2   3    2.33    0.20 
  -4  -2   3    3.74    0.23 
  -4   2   3    3.64    0.24 
  -4   2   3    4.06    0.19 
   4   2  -3    3.74    0.24 
   4   2  -3    4.06    0.20 
   3  -2  -3   59.21    2.28 
  -3  -2   3   61.00    2.38 
  -3   2   3   62.93    2.58 
   3   2  -3   65.42    2.29 
   3   2  -3   64.96    2.60 
  -3   2   3   62.91    2.38 
   2  -2  -3  146.40    5.12 
  -2  -2   3  140.42    5.10 
  -2  -2   3  148.42    5.34 
  -2   2   3  144.18    5.87 
   2   2  -3  140.16    5.89 
  -2   2   3  140.84    5.34 
  -1  -2   3  108.41    3.88 
  -1  -2   3  108.59    3.71 
  -1   2   3  108.52    4.30 
  -1   2   3  106.00    3.71 
   1   2  -3   88.55    4.31 
  -1   2   3  105.41    3.88 
   0  -2  -3   38.01    1.42 
   0  -2   3   39.79    1.42 
   0  -2   3   37.75    1.36 
   0   2   3   40.33    1.61 
   0   2   3   39.52    1.35 
   0   2  -3   31.83    1.61 
   1  -2   3   10.47    0.38 
   1  -2   3   10.23    0.38 
  -1  -2  -3   10.01    0.39 
  -1   2  -3    8.96    0.49 
   1   2   3    9.68    0.49 
   1   2   3   10.03    0.37 
  -2  -2  -3    7.20    0.30 
   2  -2   3    7.24    0.30 
   2   2   3    7.27    0.29 
  -2   2  -3    7.60    0.29 
   2   2   3    6.55    0.39 
  -2   2  -3    7.88    0.40 
  -3  -2  -3   12.46    0.51 
   3  -2   3   12.94    0.49 
  -3   2  -3   11.86    0.60 
   3   2   3   12.08    0.61 
   3   2   3   12.88    0.49 
  -3   2  -3   12.51    0.50 
   4  -2   3   49.77    1.75 
  -4  -2  -3   46.99    1.83 
   4   2   3   47.90    1.74 
  -4   2  -3   48.61    1.82 
   4   2   3   47.00    2.04 
  -4   2  -3   47.38    2.03 
   5  -2   3    5.16    0.27 
  -5  -2  -3    5.43    0.30 
  -5  -2  -3    5.92    0.33 
   5   2   3    5.75    0.28 
  -5   2  -3    5.29    0.28 
  -5   2  -3    5.49    0.32 
  -6  -2  -3    0.08    0.11 
   6  -2   3    0.14    0.10 
  -6  -2  -3    0.14    0.11 
  -6   2  -3    0.04    0.09 
  -6   2  -3    0.21    0.10 
   6   2   3    0.10    0.10 
   7  -2   3    0.93    0.14 
  -7  -2  -3    0.97    0.15 
   7   2   3    1.08    0.15 
  -7   2  -3    0.97    0.15 
   8  -2   3   14.24    0.62 
  -8  -2  -3   13.59    0.62 
  -8   2  -3   13.62    0.61 
   8   2   3   13.44    0.60 
   9  -2   3    5.14    0.34 
  -9  -2  -3    4.72    0.30 
   9   2   3    4.61    0.34 
  -9   2  -3    4.84    0.31 
 -10  -2  -3    0.67    0.15 
  10  -2   3    0.32    0.18 
  10   2   3    0.84    0.20 
  10  -3  -3    3.45    0.32 
 -10  -3   3    3.87    0.32 
 -10   3   3    3.88    0.29 
  10   3  -3    3.34    0.30 
   9  -3  -3    4.76    0.36 
  -9  -3   3    4.90    0.34 
  -9   3   3    5.25    0.33 
   9   3  -3    4.20    0.35 
  -8  -3   3    1.53    0.20 
   8  -3  -3    1.66    0.23 
  -8   3   3    2.01    0.21 
   8   3  -3    1.45    0.22 
   7  -3  -3   37.95    1.53 
  -7  -3   3   40.17    1.60 
  -7   3   3   42.18    1.59 
   7   3  -3   39.06    1.53 
   6  -3  -3    0.04    0.14 
  -6  -3   3    0.25    0.13 
   6   3  -3    0.11    0.12 
  -6   3   3    0.07    0.11 
   5  -3  -3   47.11    1.83 
  -5  -3   3   48.78    1.92 
   5   3  -3   48.93    1.84 
  -5   3   3   51.85    2.04 
  -5   3   3   47.43    1.91 
   5   3  -3   51.11    2.04 
   4  -3  -3   41.21    1.59 
  -4  -3   3   42.66    1.66 
  -4   3   3   42.98    1.78 
  -4   3   3   40.73    1.65 
   4   3  -3   43.58    1.60 
   4   3  -3   45.33    1.79 
  -3  -3   3   23.30    0.91 
   3  -3  -3   23.08    0.89 
   3   3  -3   22.75    1.00 
  -3   3   3   23.54    0.99 
  -3   3   3   22.61    0.91 
   3   3  -3   23.49    0.90 
   2  -3  -3   38.89    1.48 
  -2  -3   3   40.76    1.53 
  -2  -3   3   40.37    1.48 
  -2   3   3   42.09    1.70 
   2   3  -3   39.30    1.72 
  -2   3   3   41.20    1.54 
  -1  -3   3    1.54    0.09 
  -1  -3   3    1.57    0.10 
  -1   3   3    1.51    0.10 
   1   3  -3    1.13    0.15 
  -1   3   3    1.68    0.15 
  -1   3   3    1.32    0.10 
   0  -3  -3   55.14    2.04 
   0  -3   3   54.39    1.94 
   0  -3   3   55.42    2.03 
   0   3   3   55.86    2.29 
   0   3   3   56.39    1.93 
   0   3  -3   47.59    2.29 
   1  -3   3    3.29    0.15 
   1  -3   3    3.25    0.15 
  -1  -3  -3    3.24    0.16 
   1   3   3    3.26    0.14 
  -1   3  -3    3.00    0.25 
  -2  -3  -3    3.62    0.18 
   2  -3   3    3.68    0.18 
  -2   3  -3    4.13    0.27 
   2   3   3    3.44    0.27 
  -2   3  -3    3.80    0.17 
   2   3   3    3.58    0.16 
   3  -3   3   40.54    1.45 
  -3  -3  -3   38.56    1.51 
  -3   3  -3   39.70    1.50 
   3   3   3   39.29    1.72 
  -3   3  -3   39.21    1.70 
   3   3   3   40.80    1.44 
  -4  -3  -3   19.02    0.77 
   4  -3   3   19.68    0.74 
   4   3   3   19.11    0.73 
  -4   3  -3   18.74    0.86 
   4   3   3   19.36    0.89 
  -4   3  -3   19.07    0.75 
  -5  -3  -3   32.91    1.30 
   5  -3   3   32.47    1.23 
   5   3   3   33.44    1.23 
  -5   3  -3   33.20    1.43 
  -5   3  -3   33.91    1.28 
   5   3   3   32.50    1.44 
  -6  -3  -3   22.39    0.96 
  -6  -3  -3   25.19    1.06 
   6  -3   3   23.19    0.91 
  -6   3  -3   23.34    1.03 
   6   3   3   22.75    0.90 
  -6   3  -3   24.22    0.94 
  -7  -3  -3   14.60    0.68 
   7  -3   3   15.40    0.65 
  -7   3  -3   16.15    0.67 
   7   3   3   15.84    0.64 
  -8  -3  -3    0.11    0.13 
   8  -3   3    0.17    0.15 
   8   3   3    0.07    0.13 
  -8   3  -3    0.06    0.12 
   9  -3   3    6.45    0.39 
  -9  -3  -3    5.52    0.36 
  -9   3  -3    5.84    0.35 
   9   3   3    6.31    0.38 
 -10  -4   3    2.38    0.25 
  10  -4  -3    2.62    0.28 
  10   4  -3    2.83    0.27 
 -10   4   3    2.88    0.25 
   9  -4  -3   -0.09    0.17 
  -9  -4   3    0.24    0.17 
  -9   4   3    0.18    0.15 
   9   4  -3    0.22    0.16 
  -8  -4   3   10.75    0.56 
   8  -4  -3   10.41    0.53 
   8   4  -3   10.93    0.54 
  -8   4   3   10.96    0.53 
   7  -4  -3    0.28    0.16 
  -7  -4   3    0.11    0.15 
   7   4  -3    0.21    0.15 
  -7   4   3    0.22    0.15 
   6  -4  -3    0.56    0.15 
  -6  -4   3    0.52    0.15 
  -6   4   3    0.50    0.14 
   6   4  -3    0.39    0.14 
   5  -4  -3    0.04    0.12 
  -5  -4   3   -0.01    0.12 
   5   4  -3    0.03    0.12 
   5   4  -3    0.21    0.08 
  -5   4   3    0.10    0.10 
  -5   4   3    0.11    0.07 
  -4  -4   3   26.14    1.03 
   4  -4  -3   26.23    1.00 
   4   4  -3   26.49    1.13 
  -4   4   3   26.17    1.11 
   4   4  -3   25.55    1.01 
  -4   4   3   25.77    1.04 
   3  -4  -3   10.66    0.46 
  -3  -4   3   11.84    0.47 
   3   4  -3   11.19    0.54 
  -3   4   3   11.42    0.52 
  -3   4   3   10.67    0.47 
   3   4  -3   11.02    0.48 
   2  -4  -3   44.14    1.52 
  -2  -4   3   42.63    1.59 
  -2  -4   3   40.76    1.53 
  -2   4   3   41.48    1.59 
   2   4  -3   39.96    1.80 
  -2   4   3   41.84    1.77 
  -1  -4   3    1.70    0.11 
   1  -4  -3    1.52    0.12 
  -1  -4   3    1.90    0.11 
  -1   4   3    1.80    0.13 
   1   4  -3    1.44    0.18 
  -1   4   3    1.96    0.17 
   0  -4  -3  161.90    5.94 
   0  -4   3  165.61    5.65 
   0  -4   3  164.44    5.92 
   0   4  -3  143.13    6.59 
   0   4   3  159.48    6.58 
   0   4   3  160.79    5.64 
   1  -4   3    0.39    0.06 
  -1  -4  -3    0.45    0.07 
   1  -4   3    0.23    0.05 
  -1   4  -3    0.29    0.12 
   1   4   3    0.29    0.13 
   1   4   3    0.37    0.04 
   2  -4   3  147.40    5.19 
  -2  -4  -3  143.87    5.45 
   2   4   3  133.33    6.06 
   2   4   3  151.88    5.18 
  -2   4  -3  147.32    6.05 
  -2   4  -3  153.34    5.45 
  -3  -4  -3    0.35    0.09 
   3  -4   3    0.45    0.08 
  -3   4  -3    0.33    0.06 
  -3   4  -3    0.45    0.12 
   3   4   3    0.37    0.06 
   3   4   3    0.51    0.15 
  -4  -4  -3    1.23    0.12 
   4  -4   3    0.91    0.11 
   4   4   3    1.10    0.17 
   4   4   3    1.37    0.11 
  -4   4  -3    1.24    0.16 
  -4   4  -3    1.13    0.10 
  -5  -4  -3    1.90    0.16 
   5  -4   3    1.55    0.14 
  -5   4  -3    1.46    0.16 
   5   4   3    1.53    0.18 
   5   4   3    1.62    0.13 
  -5   4  -3    1.47    0.13 
  -6  -4  -3   -0.04    0.10 
   6  -4   3    0.08    0.10 
   6   4   3    0.12    0.11 
   6   4   3    0.01    0.09 
  -6   4  -3    0.04    0.10 
  -6   4  -3    0.01    0.09 
   7  -4   3    0.02    0.12 
  -7  -4  -3    0.11    0.12 
  -7   4  -3    0.15    0.11 
   7   4   3    0.10    0.11 
  -8  -4  -3    1.49    0.20 
   8  -4   3    1.16    0.17 
  -8   4  -3    1.55    0.18 
   8   4   3    1.44    0.18 
  -9  -4  -3    0.46    0.15 
   9  -4   3    0.35    0.17 
   9   4   3    0.22    0.15 
 -10  -5   3    2.65    0.27 
  10  -5  -3    2.14    0.26 
  10   5  -3    2.28    0.25 
 -10   5   3    2.35    0.24 
   9  -5  -3    2.55    0.27 
  -9  -5   3    2.96    0.29 
  -9   5   3    3.03    0.27 
   9   5  -3    2.43    0.26 
   8  -5  -3    0.39    0.18 
  -8  -5   3    0.43    0.18 
   8   5  -3    0.67    0.18 
  -8   5   3    0.57    0.18 
   7  -5  -3   32.72    1.24 
  -7  -5   3   32.17    1.29 
   7   5  -3   30.44    1.24 
  -7   5   3   30.69    1.28 
   6  -5  -3    0.06    0.13 
  -6  -5   3    0.26    0.12 
  -6   5   3    0.13    0.12 
   6   5  -3    0.16    0.13 
  -5  -5   3   30.50    1.19 
   5  -5  -3   29.78    1.13 
  -5   5   3   29.62    1.19 
  -5   5   3   30.50    1.27 
   5   5  -3   30.92    1.29 
   5   5  -3   27.12    1.15 
   4  -5  -3    1.50    0.14 
  -4  -5   3    1.74    0.16 
   4   5  -3    1.87    0.18 
   4   5  -3    1.73    0.17 
  -4   5   3    1.74    0.16 
  -4   5   3    2.00    0.17 
  -3  -5   3   16.50    0.67 
   3  -5  -3   16.59    0.64 
  -3   5   3   16.51    0.75 
   3   5  -3   16.38    0.78 
  -3   5   3   15.94    0.67 
   3   5  -3   17.67    0.67 
   2  -5  -3    1.69    0.11 
  -2  -5   3    1.54    0.12 
  -2  -5   3    1.54    0.13 
  -2   5   3    1.48    0.12 
   2   5  -3    1.23    0.17 
  -2   5   3    1.17    0.15 
  -1  -5   3   25.54    0.99 
   1  -5  -3   26.64    0.93 
   1  -5  -3   25.01    1.00 
  -1  -5   3   26.50    0.94 
  -1   5   3   27.76    1.15 
   1   5  -3   22.80    1.17 
   0  -5   3   14.88    0.54 
   0  -5  -3   14.35    0.58 
   0  -5   3   15.05    0.58 
   0   5  -3   12.87    0.72 
   0   5   3   14.74    0.71 
   1  -5   3    4.21    0.19 
  -1  -5  -3    4.62    0.23 
   1  -5   3    4.54    0.21 
   1   5   3    4.55    0.17 
   1   5   3    4.54    0.34 
  -1   5  -3    4.56    0.32 
   2  -5   3    0.15    0.06 
  -2  -5  -3   -0.01    0.07 
   2  -5   3   -0.07    0.05 
  -2   5  -3    0.54    0.14 
   2   5   3    0.07    0.12 
   2   5   3    0.01    0.04 
   3  -5   3   69.26    2.46 
  -3  -5  -3   67.35    2.58 
  -3   5  -3   66.79    2.88 
   3   5   3   66.72    2.91 
  -3   5  -3   68.83    2.57 
   3   5   3   70.74    2.44 
   4  -5   3    0.06    0.08 
  -4  -5  -3    0.00    0.09 
  -4   5  -3    0.02    0.09 
  -4   5  -3   -0.06    0.06 
   4   5   3   -0.04    0.13 
   4   5   3    0.14    0.07 
   5  -5   3   22.94    0.90 
  -5  -5  -3   24.39    0.95 
   5   5   3   22.84    0.89 
  -5   5  -3   24.27    0.93 
   5   5   3   24.10    1.08 
  -5   5  -3   23.45    1.05 
  -6  -5  -3    0.22    0.12 
   6  -5   3    0.38    0.11 
   6   5   3    0.40    0.12 
  -6   5  -3    0.41    0.12 
   6   5   3    0.33    0.10 
  -6   5  -3    0.45    0.10 
   7  -5   3    8.17    0.40 
  -7  -5  -3    8.50    0.44 
   7   5   3    8.17    0.39 
  -7   5  -3    8.83    0.40 
   8  -5   3    0.13    0.14 
  -8  -5  -3   -0.02    0.14 
   8   5   3   -0.08    0.12 
  -8   5  -3   -0.05    0.11 
  -9  -5  -3    6.62    0.41 
   9  -5   3    7.40    0.41 
   9   5   3    6.56    0.39 
   9  -6  -3    1.38    0.21 
  -9  -6   3    1.61    0.24 
   9   6  -3    1.61    0.22 
  -9   6   3    1.44    0.21 
   8  -6  -3    1.13    0.20 
  -8  -6   3    0.95    0.20 
  -8   6   3    0.95    0.19 
   8   6  -3    0.93    0.19 
   7  -6  -3    0.08    0.14 
  -7  -6   3    0.58    0.17 
  -7   6   3    0.32    0.15 
   7   6  -3    0.49    0.16 
   6  -6  -3   -0.08    0.11 
  -6  -6   3   -0.02    0.13 
   6   6  -3   -0.05    0.12 
  -6   6   3   -0.04    0.13 
   5  -6  -3    0.28    0.11 
  -5  -6   3    0.38    0.12 
  -5   6   3    0.33    0.11 
   5   6  -3   -0.01    0.11 
  -5   6   3    0.20    0.12 
   5   6  -3    0.33    0.11 
   4  -6  -3   23.59    0.87 
  -4  -6   3   21.91    0.91 
  -4   6   3   23.45    1.01 
   4   6  -3   22.36    0.90 
   4   6  -3   23.58    1.03 
  -4   6   3   22.40    0.92 
   3  -6  -3    7.82    0.32 
  -3  -6   3    7.54    0.36 
   3   6  -3    8.29    0.45 
  -3   6   3    7.75    0.37 
   3   6  -3    8.18    0.37 
  -3   6   3    7.67    0.41 
   2  -6  -3   63.54    2.41 
  -2  -6   3   64.25    2.41 
   2  -6  -3   65.54    2.27 
  -2   6   3   64.06    2.69 
   2   6  -3   63.93    2.73 
   2   6  -3   61.00    2.31 
  -1  -6   3   46.58    1.64 
   1  -6  -3   46.61    1.74 
  -1  -6   3   46.27    1.73 
   1  -6  -3   45.10    1.62 
  -1   6   3   48.15    1.97 
   1   6  -3   40.77    1.99 
   0  -6  -3   23.78    0.96 
   0  -6   3   25.31    0.89 
   0  -6   3   25.80    0.95 
   0   6  -3   22.74    1.14 
   0   6   3   24.72    1.13 
   1  -6   3    3.67    0.19 
   1  -6   3    3.53    0.17 
  -1  -6  -3    3.53    0.21 
   1   6   3    3.61    0.33 
  -1   6  -3    3.82    0.31 
   2  -6   3    2.43    0.15 
  -2  -6  -3    2.76    0.18 
   2  -6   3    2.60    0.16 
   2   6   3    1.90    0.26 
  -2   6  -3    2.63    0.26 
   2   6   3    2.70    0.12 
  -3  -6  -3   15.05    0.63 
   3  -6   3   15.84    0.62 
   3  -6   3   15.46    0.59 
   3   6   3   15.89    0.57 
  -3   6  -3   15.08    0.74 
   3   6   3   14.81    0.78 
   4  -6   3   11.23    0.46 
  -4  -6  -3   10.99    0.49 
   4   6   3   11.03    0.44 
  -4   6  -3   11.67    0.48 
   4   6   3   11.70    0.61 
  -4   6  -3   10.85    0.56 
   5  -6   3    2.34    0.19 
  -5  -6  -3    2.58    0.21 
   5   6   3    2.48    0.17 
  -5   6  -3    2.57    0.23 
   5   6   3    2.74    0.26 
  -5   6  -3    2.54    0.18 
  -6  -6  -3    0.95    0.14 
   6  -6   3    0.88    0.13 
   6   6   3    1.09    0.12 
  -6   6  -3    0.74    0.14 
   6   6   3    0.66    0.15 
  -6   6  -3    0.87    0.12 
   7  -6   3    2.22    0.19 
  -7  -6  -3    1.79    0.20 
  -7   6  -3    2.04    0.18 
   7   6   3    1.94    0.17 
   8  -6   3    3.37    0.27 
  -8  -6  -3    3.21    0.28 
  -8   6  -3    3.57    0.25 
   8   6   3    3.18    0.25 
  -9  -6  -3    0.83    0.18 
   9  -6   3    0.52    0.17 
   9   6   3    0.81    0.18 
   9  -7  -3    6.95    0.42 
  -9  -7   3    6.72    0.43 
  -9   7   3    7.43    0.44 
   8  -7  -3    3.37    0.27 
  -8  -7   3    2.46    0.27 
  -8   7   3    3.50    0.30 
   8   7  -3    3.76    0.29 
   7  -7  -3    1.18    0.17 
  -7  -7   3    1.04    0.19 
  -7   7   3    1.23    0.19 
   7   7  -3    1.10    0.18 
   6  -7  -3   15.52    0.64 
  -6  -7   3   15.67    0.67 
   6   7  -3   14.30    0.65 
  -6   7   3   15.74    0.68 
  -5  -7   3    3.59    0.24 
   5  -7  -3    3.21    0.21 
  -5   7   3    3.47    0.25 
  -5   7   3    3.20    0.25 
   5   7  -3    3.61    0.26 
   5   7  -3    3.55    0.25 
  -4  -7   3   26.00    1.04 
   4  -7  -3   27.05    0.97 
   4   7  -3   25.01    1.00 
  -4   7   3   26.56    1.15 
   4   7  -3   25.81    1.17 
  -4   7   3   25.80    1.04 
   3  -7  -3   35.63    1.29 
  -3  -7   3   35.39    1.39 
   3   7  -3   35.69    1.34 
  -3   7   3   34.78    1.39 
  -3   7   3   35.69    1.55 
   3   7  -3   37.58    1.59 
   2  -7  -3    5.38    0.29 
  -2  -7   3    4.93    0.27 
   2  -7  -3    5.62    0.22 
   2   7  -3    6.17    0.28 
   2   7  -3    5.06    0.40 
  -2   7   3    5.61    0.34 
   1  -7  -3    4.24    0.23 
  -1  -7   3    4.56    0.20 
  -1  -7   3    3.94    0.23 
   1   7  -3    3.52    0.34 
  -1   7   3    4.53    0.33 
   0  -7   3    2.22    0.12 
   0  -7  -3    1.99    0.17 
   0  -7   3    2.30    0.17 
   0   7   3    2.34    0.25 
   0   7  -3    2.11    0.27 
   1  -7   3    4.21    0.22 
   1  -7   3    4.27    0.19 
   1   7   3    4.60    0.38 
  -1   7  -3    3.74    0.36 
  -2  -7  -3   10.76    0.47 
   2  -7   3   10.78    0.42 
   2  -7   3   10.81    0.45 
   2   7   3    9.98    0.61 
  -2   7  -3   11.18    0.59 
  -3  -7  -3    6.31    0.31 
   3  -7   3    6.25    0.30 
   3  -7   3    6.43    0.28 
   3   7   3    6.18    0.43 
  -3   7  -3    6.13    0.40 
   4  -7   3   17.03    0.68 
   4  -7   3   16.81    0.65 
  -4  -7  -3   16.44    0.69 
   4   7   3   16.89    0.84 
  -4   7  -3   16.45    0.79 
   5  -7   3   25.17    0.95 
  -5  -7  -3   24.36    1.01 
   5   7   3   26.05    1.17 
  -5   7  -3   25.75    1.00 
  -5   7  -3   24.61    1.13 
   6  -7   3   20.98    0.86 
  -6  -7  -3   23.09    0.92 
   6   7   3   23.06    1.04 
  -6   7  -3   22.60    0.90 
  -6   7  -3   21.92    1.01 
  -7  -7  -3    4.16    0.30 
   7  -7   3    4.00    0.27 
  -7   7  -3    4.21    0.26 
   8  -7   3    4.24    0.29 
  -8  -7  -3    4.70    0.33 
   8  -8  -3   -0.17    0.13 
  -8  -8   3   -0.37    0.15 
  -8   8   3   -0.05    0.15 
   7  -8  -3    1.05    0.15 
  -7  -8   3    0.68    0.16 
  -7   8   3    0.87    0.18 
   6  -8  -3   -0.01    0.10 
  -6  -8   3    0.28    0.13 
  -6   8   3    0.00    0.13 
  -5  -8   3   12.58    0.55 
   5  -8  -3   11.89    0.49 
  -5   8   3   11.98    0.59 
   5   8  -3   12.52    0.61 
  -5   8   3   11.82    0.55 
  -4  -8   3    0.06    0.11 
   4   8  -3    0.11    0.13 
  -4   8   3    0.09    0.11 
  -4   8   3    0.03    0.11 
  -3  -8   3   16.67    0.71 
   3  -8  -3   18.06    0.73 
  -3   8   3   17.53    0.82 
   3   8  -3   17.61    0.87 
   2  -8  -3    4.72    0.26 
  -2  -8   3    4.58    0.26 
  -2   8   3    4.67    0.34 
   2   8  -3    4.48    0.37 
   1  -8  -3   19.31    0.77 
  -1  -8   3   19.55    0.77 
  -1   8   3   19.91    0.92 
   1   8  -3   17.10    0.95 
   0  -8   3    9.31    0.41 
   0  -8   3    9.68    0.36 
   0  -8  -3    9.20    0.42 
   0   8  -3    8.94    0.58 
   0   8   3    9.56    0.55 
   1  -8   3   56.39    2.17 
   1  -8   3   60.11    2.05 
  -1  -8  -3   56.01    2.17 
  -1   8  -3   56.82    2.48 
   1   8   3   56.17    2.50 
   2  -8   3    6.61    0.27 
  -2  -8  -3    6.23    0.31 
   2  -8   3    6.61    0.31 
   2   8   3    6.06    0.45 
  -2   8  -3    5.75    0.41 
   3  -8   3    4.43    0.24 
   3  -8   3    4.80    0.22 
  -3  -8  -3    4.35    0.25 
  -3   8  -3    4.90    0.34 
   3   8   3    3.85    0.37 
  -4  -8  -3    0.69    0.14 
   4  -8   3    0.79    0.10 
   4  -8   3    0.77    0.11 
   4   8   3    0.51    0.20 
  -4   8  -3    0.47    0.14 
   5  -8   3    0.22    0.09 
   5  -8   3    0.05    0.09 
  -5  -8  -3   -0.08    0.10 
   5   8   3    0.15    0.16 
  -5   8  -3    0.13    0.13 
  -6  -8  -3    0.03    0.13 
   6  -8   3   -0.05    0.09 
  -6   8  -3    0.21    0.14 
   6   8   3    0.13    0.14 
  -7  -8  -3    0.32    0.15 
   7  -8   3    0.15    0.11 
  -7   8  -3    0.18    0.11 
  -8  -8  -3    0.86    0.18 
   8  -8   3    0.81    0.15 
  -8  -9   3    1.87    0.25 
  -8   9   3    1.88    0.24 
  -7  -9   3    2.73    0.25 
  -7   9   3    3.08    0.27 
  -6  -9   3   20.14    0.87 
  -6   9   3   20.70    0.87 
  -5  -9   3    0.26    0.13 
  -5   9   3    0.25    0.14 
   5   9  -3    0.21    0.14 
   4  -9  -3   15.13    0.67 
  -4  -9   3   16.08    0.67 
  -4   9   3   15.50    0.75 
   4   9  -3   16.02    0.78 
   3  -9  -3    1.09    0.15 
  -3  -9   3    1.43    0.16 
   3   9  -3    1.19    0.23 
  -3   9   3    1.13    0.19 
   2  -9  -3    3.95    0.25 
  -2  -9   3    4.09    0.25 
   2   9  -3    3.98    0.39 
  -2   9   3    4.54    0.34 
   1  -9  -3    0.75    0.13 
  -1  -9   3    0.84    0.12 
   1   9  -3    0.86    0.21 
  -1   9   3    0.76    0.18 
   0  -9   3    0.32    0.10 
   0  -9  -3    0.10    0.10 
   0   9   3    0.35    0.17 
   0   9  -3    0.70    0.22 
   1  -9   3    0.16    0.09 
  -1  -9  -3    0.11    0.11 
  -1   9  -3    0.28    0.19 
   1   9   3    0.32    0.21 
  -2  -9  -3    9.92    0.45 
   2  -9   3    9.85    0.44 
  -2   9  -3   10.35    0.57 
   2   9   3    9.28    0.60 
   3  -9   3    0.13    0.09 
  -3  -9  -3    0.14    0.10 
   3   9   3    0.14    0.19 
  -3   9  -3   -0.07    0.13 
  -4  -9  -3   15.49    0.67 
   4  -9   3   16.14    0.65 
  -4   9  -3   15.04    0.76 
   4   9   3   16.45    0.84 
  -5  -9  -3    0.82    0.15 
   5  -9   3    1.02    0.13 
   5   9   3    1.00    0.21 
  -5   9  -3    1.18    0.19 
  -6  -9  -3    8.55    0.45 
   6  -9   3    9.04    0.42 
   6   9   3    9.60    0.54 
  -6   9  -3    9.24    0.50 
  -7  -9  -3    0.02    0.14 
  -7 -10   3    0.10    0.16 
  -6 -10   3    0.13    0.15 
   6 -10  -3   -0.06    0.12 
   5 -10  -3    0.93    0.16 
  -5 -10   3    0.81    0.16 
  -5  10   3    0.86    0.17 
   5  10  -3    1.43    0.19 
  -4 -10   3    0.19    0.14 
   4 -10  -3    0.03    0.11 
  -4  10   3    0.14    0.14 
   4  10  -3   -0.16    0.15 
  -3 -10   3    9.35    0.45 
   3 -10  -3    9.70    0.46 
   3  10  -3    9.89    0.58 
  -3  10   3    9.46    0.53 
   2 -10  -3   14.43    0.60 
  -2 -10   3   13.94    0.60 
  -2  10   3   13.51    0.71 
   2  10  -3   13.34    0.78 
  -1 -10   3   25.66    1.04 
   1 -10  -3   28.08    1.06 
   1  10  -3   23.65    1.27 
  -1  10   3   27.31    1.24 
   0 -10   3    1.26    0.15 
   0 -10  -3    1.45    0.16 
   0  10   3    1.49    0.24 
   0  10  -3    1.29    0.25 
   1 -10   3    7.50    0.37 
  -1 -10  -3    8.04    0.39 
   1  10   3    8.02    0.57 
  -1  10  -3    8.38    0.55 
   2 -10   3    0.13    0.10 
  -2 -10  -3   -0.08    0.11 
   2  10   3   -0.01    0.20 
  -2  10  -3   -0.06    0.15 
   3 -10   3   11.83    0.51 
  -3 -10  -3   11.41    0.53 
  -3  10  -3   12.13    0.65 
   3  10   3   11.71    0.71 
  -4 -10  -3    5.57    0.32 
   4 -10   3    5.88    0.30 
  -4  10  -3    5.58    0.40 
   4  10   3    6.16    0.45 
  -5 -10  -3    0.59    0.15 
   5 -10   3    0.65    0.12 
  -5  10  -3    0.59    0.17 
   5  10   3    0.59    0.20 
  -6 -10  -3    0.02    0.14 
   6 -10   3    0.07    0.11 
   6  10   3    0.09    0.16 
  -6  10  -3   -0.05    0.13 
  -7 -10  -3    0.63    0.17 
   6 -11  -3    2.66    0.23 
  -6 -11   3    2.74    0.25 
  -5 -11   3    4.49    0.32 
   5 -11  -3    4.62    0.31 
  -5  11   3    4.57    0.35 
   5  11  -3    5.05    0.36 
  -4 -11   3   15.63    0.67 
   4 -11  -3   15.29    0.67 
  -4  11   3   14.88    0.76 
   4  11  -3   15.41    0.79 
  -3 -11   3    3.10    0.25 
   3 -11  -3    3.15    0.26 
  -3  11   3    2.78    0.29 
   3  11  -3    2.59    0.30 
  -2 -11   3    3.49    0.25 
   2 -11  -3    4.18    0.26 
  -2  11   3    3.29    0.32 
   2  11  -3    3.79    0.40 
   1 -11  -3    1.41    0.17 
  -1 -11   3    1.47    0.16 
  -1  11   3    1.62    0.24 
   1  11  -3    1.60    0.30 
   0 -11  -3    3.86    0.26 
   0 -11   3    3.96    0.25 
   0  11   3    3.56    0.37 
   0  11  -3    3.49    0.38 
   1 -11   3    0.37    0.12 
  -1 -11  -3    0.20    0.12 
  -1  11  -3    0.20    0.19 
   1  11   3    0.15    0.22 
  -2 -11  -3    0.40    0.13 
   2 -11   3    0.18    0.11 
  -2  11  -3    0.13    0.17 
   2  11   3    0.12    0.21 
  -3 -11  -3    5.27    0.32 
   3 -11   3    5.84    0.31 
  -3  11  -3    5.68    0.42 
   3  11   3    5.04    0.48 
  -4 -11  -3    4.66    0.30 
   4 -11   3    3.87    0.26 
  -4  11  -3    4.15    0.35 
   4  11   3    3.87    0.38 
   5 -11   3    2.50    0.21 
  -5 -11  -3    2.60    0.23 
   5  11   3    2.78    0.31 
  -5  11  -3    2.74    0.27 
  -6 -11  -3   10.19    0.51 
  -6  11  -3   10.20    0.56 
   6  11   3   10.74    0.60 
  -5 -12   3    0.73    0.17 
   5 -12  -3    0.46    0.15 
  -5  12   3    0.63    0.17 
   5  12  -3    0.48    0.17 
  -4 -12   3    1.95    0.20 
   4 -12  -3    2.21    0.21 
  -4  12   3    2.01    0.23 
   4  12  -3    2.49    0.29 
  -3 -12   3    0.70    0.15 
   3 -12  -3    0.58    0.15 
   3  12  -3    0.73    0.23 
  -3  12   3    0.55    0.16 
   2 -12  -3    3.17    0.28 
  -2 -12   3    3.21    0.25 
  -2  12   3    3.54    0.33 
   2  12  -3    4.17    0.42 
   1 -12  -3    5.35    0.31 
  -1 -12   3    5.82    0.32 
   1  12  -3    5.04    0.46 
  -1  12   3    5.58    0.43 
   0 -12   3   10.19    0.47 
   0 -12  -3    9.47    0.48 
   0  12   3   11.72    0.68 
   0  12  -3    9.81    0.65 
   1 -12   3    5.28    0.30 
  -1 -12  -3    4.98    0.32 
  -1  12  -3    6.05    0.46 
   1  12   3    5.81    0.51 
  -2 -12  -3    9.63    0.45 
   2 -12   3    8.97    0.43 
  -2  12  -3    9.42    0.60 
   2  12   3    9.05    0.65 
  -3 -12  -3    1.63    0.18 
   3 -12   3    1.95    0.18 
   3  12   3    2.13    0.34 
  -3  12  -3    1.94    0.27 
  -4 -12  -3    0.01    0.14 
   4 -12   3    0.16    0.12 
   4  12   3   -0.02    0.20 
  -4  12  -3   -0.11    0.16 
   5 -12   3    0.06    0.11 
  -5 -12  -3    0.02    0.15 
   5  12   3   -0.07    0.18 
  -5  12  -3    0.05    0.15 
  -4 -13   3   -0.14    0.14 
   4 -13  -3    0.10    0.15 
   4  13  -3    0.19    0.18 
  -4  13   3    0.05    0.15 
   3 -13  -3    0.08    0.14 
  -3 -13   3    0.06    0.14 
   3  13  -3    0.20    0.21 
  -3  13   3    0.14    0.16 
  -2 -13   3    0.83    0.16 
   2 -13  -3    0.87    0.17 
   2  13  -3    0.68    0.27 
  -2  13   3    0.80    0.20 
   1 -13  -3    3.00    0.27 
  -1 -13   3    3.07    0.24 
   1  13  -3    2.66    0.37 
  -1  13   3    3.19    0.35 
   0 -13   3    0.02    0.12 
   0 -13  -3    0.32    0.13 
   0  13   3    0.18    0.23 
   0  13  -3    0.07    0.21 
  -1 -13  -3    0.54    0.14 
   1 -13   3    0.57    0.14 
   1  13   3    0.57    0.26 
  -1  13  -3    0.40    0.24 
  -2 -13  -3    0.56    0.15 
   2 -13   3    0.80    0.14 
  -2  13  -3    0.92    0.23 
   2  13   3    0.52    0.24 
   3 -13   3    9.64    0.46 
  -3 -13  -3   10.04    0.48 
  -3  13  -3   10.15    0.60 
   3  13   3    9.24    0.67 
   0  14  -3    7.36    0.58 
   0  14   3    6.77    0.53 
  10   0  -4   12.58    0.60 
 -10   0   4   12.66    0.58 
   9   0  -4   -0.10    0.15 
  -9   0   4    0.19    0.13 
   8   0  -4   42.19    1.61 
  -8   0   4   41.32    1.64 
   7   0  -4   -0.15    0.12 
  -7   0   4    0.12    0.12 
  -6   0   4   13.02    0.58 
   6   0  -4   12.44    0.58 
   5   0  -4   -0.03    0.11 
  -5   0   4    0.05    0.10 
  -4   0   4   30.34    1.18 
   4   0  -4   28.46    1.13 
   3   0  -4   -0.12    0.08 
  -3   0   4   -0.04    0.07 
   3   0  -4    0.07    0.04 
   2   0  -4   48.38    1.95 
  -2   0   4   44.87    1.79 
  -2   0   4   46.93    1.70 
  -1   0   4   -0.08    0.04 
  -1   0   4   -0.12    0.04 
   1   0  -4   -0.17    0.07 
   0   0  -4  186.72    8.19 
   0   0   4  211.69    7.40 
   0   0   4  199.15    7.08 
   1   0   4    0.04    0.04 
  -1   0  -4    0.04    0.02 
  -1   0  -4   -0.02    0.09 
  -2   0  -4   60.49    2.36 
  -2   0  -4   62.39    2.66 
   2   0   4   66.05    2.26 
   3   0   4   -0.14    0.06 
  -3   0  -4   -0.11    0.11 
  -3   0  -4    0.01    0.06 
  -4   0  -4   27.27    1.24 
   4   0   4   29.49    1.05 
  -4   0  -4   27.35    1.11 
   5   0   4   -0.09    0.09 
  -5   0  -4    0.23    0.12 
  -5   0  -4    0.03    0.09 
  -6   0  -4   40.74    1.55 
   6   0   4   37.89    1.47 
  -6   0  -4   39.98    1.70 
  -7   0  -4    0.19    0.11 
   7   0   4    0.18    0.12 
   8   0   4   14.46    0.64 
  -8   0  -4   15.16    0.64 
  -9   0  -4    0.10    0.11 
   9   0   4    0.06    0.15 
  10  -1  -4    2.14    0.24 
 -10  -1   4    2.01    0.21 
  10   1  -4    1.80    0.22 
 -10   1   4    2.24    0.21 
  -9  -1   4    3.74    0.27 
   9  -1  -4    3.21    0.29 
  -9   1   4    3.81    0.28 
   9   1  -4    3.13    0.28 
   8  -1  -4    1.21    0.19 
  -8  -1   4    1.18    0.16 
  -8   1   4    1.14    0.17 
   8   1  -4    1.00    0.17 
  -7  -1   4    3.50    0.26 
   7  -1  -4    3.07    0.27 
  -7   1   4    3.86    0.27 
   7   1  -4    3.91    0.30 
   6  -1  -4    1.20    0.18 
  -6  -1   4    0.66    0.13 
  -6   1   4    1.09    0.14 
   6   1  -4    0.62    0.15 
   5  -1  -4   53.62    2.05 
  -5  -1   4   53.74    2.13 
   5   1  -4   56.62    2.05 
  -5   1   4   56.92    2.14 
   4  -1  -4   45.43    1.62 
  -4  -1   4   40.21    1.68 
  -4   1   4   41.32    1.68 
   4   1  -4   45.70    1.61 
   3  -1  -4   42.82    1.55 
  -3  -1   4   40.14    1.62 
   3   1  -4   41.86    1.56 
   3   1  -4   42.36    1.73 
  -3   1   4   40.67    1.61 
  -3   1   4   42.74    1.73 
  -2  -1   4   29.61    1.23 
  -2   1   4   32.27    1.22 
  -2   1   4   31.91    1.17 
  -2   1   4   31.83    1.33 
   2   1  -4   32.05    1.34 
  -1  -1   4  196.90    7.56 
  -1  -1   4  212.65    7.24 
  -1   1   4  211.48    7.23 
  -1   1   4  202.99    8.35 
  -1   1   4  201.66    7.58 
   1   1  -4  194.69    8.34 
   0  -1   4    0.59    0.06 
   0  -1   4    0.62    0.05 
   0   1   4    0.44    0.09 
   0   1  -4    0.64    0.12 
   0   1   4    0.45    0.05 
  -1  -1  -4   88.16    3.19 
   1  -1   4   90.72    3.06 
   1   1   4   77.44    3.57 
  -1   1  -4   78.72    3.58 
   1   1   4   93.08    3.05 
   2  -1   4    1.67    0.12 
  -2  -1  -4    1.85    0.10 
   2   1   4    1.85    0.11 
  -2   1  -4    2.41    0.22 
  -2   1  -4    1.74    0.09 
   2   1   4    1.83    0.19 
  -3  -1  -4    0.04    0.06 
  -3  -1  -4    0.03    0.10 
   3  -1   4    0.13    0.07 
  -3   1  -4    0.23    0.06 
   3   1   4    0.06    0.06 
  -3   1  -4    0.00    0.11 
  -4  -1  -4    0.51    0.14 
  -4  -1  -4    0.54    0.10 
   4  -1   4    0.40    0.10 
  -4   1  -4    0.35    0.13 
  -4   1  -4    0.34    0.08 
   4   1   4    0.61    0.10 
  -5  -1  -4    2.39    0.21 
  -5  -1  -4    2.98    0.24 
   5  -1   4    2.82    0.20 
  -5   1  -4    3.03    0.24 
  -5   1  -4    2.53    0.20 
   5   1   4    2.95    0.21 
  -6  -1  -4    5.13    0.30 
   6  -1   4    5.02    0.28 
  -6  -1  -4    5.04    0.33 
   6   1   4    4.84    0.27 
  -6   1  -4    6.03    0.33 
  -6   1  -4    5.04    0.29 
   7  -1   4   12.33    0.54 
  -7  -1  -4   12.81    0.56 
   7   1   4   11.66    0.53 
  -7   1  -4   12.56    0.55 
  -8  -1  -4    0.31    0.12 
   8  -1   4    0.48    0.14 
  -8   1  -4    0.33    0.12 
   8   1   4    0.36    0.14 
   9  -1   4    8.29    0.44 
  -9  -1  -4    8.42    0.41 
   9   1   4    7.85    0.44 
  10  -2  -4    6.54    0.40 
 -10  -2   4    6.17    0.38 
  10   2  -4    6.73    0.41 
 -10   2   4    6.54    0.37 
   9  -2  -4    2.04    0.24 
  -9  -2   4    1.76    0.20 
   9   2  -4    2.55    0.25 
  -9   2   4    2.13    0.21 
   8  -2  -4    8.98    0.47 
  -8  -2   4    8.26    0.45 
   8   2  -4    9.77    0.48 
  -8   2   4    9.63    0.46 
   7  -2  -4    8.51    0.47 
  -7  -2   4    8.83    0.45 
  -7   2   4    9.06    0.45 
   7   2  -4    9.20    0.46 
  -6  -2   4    8.55    0.46 
   6  -2  -4    8.68    0.46 
   6   2  -4    9.44    0.45 
  -6   2   4    9.64    0.45 
  -5  -2   4   16.03    0.74 
   5   2  -4   18.66    0.72 
  -5   2   4   17.40    0.74 
  -4  -2   4   15.01    0.67 
   4  -2  -4   16.23    0.66 
   4   2  -4   16.38    0.66 
  -4   2   4   14.69    0.67 
   4   2  -4   17.29    0.69 
  -4   2   4   15.99    0.68 
   3  -2  -4    4.89    0.27 
  -3  -2   4    5.15    0.26 
   3   2  -4    4.46    0.25 
   3   2  -4    5.10    0.26 
  -3   2   4    4.99    0.25 
  -3   2   4    4.82    0.24 
  -2  -2   4    9.21    0.38 
  -2  -2   4    9.63    0.39 
  -2   2   4    8.93    0.39 
   2   2  -4    9.52    0.45 
  -2   2   4    9.60    0.43 
  -2   2   4    9.21    0.39 
  -1  -2   4    1.63    0.10 
  -1  -2   4    1.58    0.10 
   1   2  -4    1.21    0.15 
  -1   2   4    1.69    0.14 
  -1   2   4    1.72    0.10 
  -1   2   4    1.50    0.10 
   0  -2  -4    0.75    0.06 
   0  -2   4    0.79    0.07 
   0  -2   4    0.75    0.05 
   0   2  -4    0.41    0.11 
   0   2   4    0.74    0.06 
   0   2   4    0.79    0.12 
   1  -2   4    2.56    0.11 
  -1  -2  -4    2.45    0.12 
   1  -2   4    2.46    0.13 
  -1   2  -4    2.21    0.22 
   1   2   4    2.58    0.12 
   1   2   4    3.33    0.23 
   2  -2   4   52.83    1.91 
  -2  -2  -4   54.95    2.00 
   2   2   4   53.26    1.91 
  -2   2  -4   55.65    1.99 
   2   2   4   48.48    2.26 
  -2   2  -4   53.64    2.27 
  -3  -2  -4   55.45    2.13 
   3  -2   4   56.24    2.04 
  -3   2  -4   57.02    2.11 
  -3   2  -4   56.46    2.40 
   3   2   4   55.14    2.40 
   3   2   4   58.28    2.03 
  -4  -2  -4   62.64    2.40 
   4  -2   4   63.84    2.30 
  -4   2  -4   63.63    2.39 
  -4   2  -4   62.68    2.67 
   4   2   4   64.12    2.29 
   4   2   4   63.59    2.69 
   5  -2   4   36.01    1.32 
  -5  -2  -4   36.22    1.55 
  -5  -2  -4   33.50    1.38 
  -5   2  -4   35.51    1.37 
  -5   2  -4   35.63    1.53 
   5   2   4   35.69    1.31 
  -6  -2  -4    2.97    0.26 
   6  -2   4    3.27    0.23 
  -6  -2  -4    2.53    0.22 
  -6   2  -4    2.88    0.24 
   6   2   4    3.01    0.20 
  -6   2  -4    2.87    0.21 
  -7  -2  -4    0.05    0.11 
   7  -2   4   -0.04    0.11 
   7   2   4    0.08    0.10 
  -7   2  -4   -0.17    0.10 
  -8  -2  -4    0.40    0.13 
   8  -2   4    0.22    0.13 
   8   2   4    0.08    0.13 
  -8   2  -4    0.06    0.12 
  -9  -2  -4    0.61    0.13 
   9  -2   4    0.12    0.17 
   9   2   4    0.14    0.15 
  10  -3  -4    3.01    0.29 
 -10  -3   4    3.62    0.32 
 -10   3   4    4.17    0.30 
  10   3  -4    3.86    0.31 
   9  -3  -4    0.17    0.17 
  -9  -3   4    0.45    0.16 
  -9   3   4    0.47    0.15 
   9   3  -4    0.38    0.16 
  -8  -3   4   -0.15    0.13 
   8  -3  -4    0.02    0.14 
  -8   3   4    0.08    0.12 
   8   3  -4   -0.05    0.14 
  -7  -3   4    1.21    0.18 
   7  -3  -4    1.76    0.21 
   7   3  -4    1.63    0.20 
  -7   3   4    1.74    0.20 
  -6  -3   4    7.99    0.43 
   6  -3  -4    7.89    0.41 
   6   3  -4    8.16    0.40 
  -6   3   4    7.80    0.41 
   5  -3  -4   14.65    0.66 
  -5  -3   4   15.46    0.69 
  -5   3   4   14.62    0.68 
   5   3  -4   16.59    0.68 
   5   3  -4   16.45    0.66 
  -5   3   4   16.39    0.68 
  -4  -3   4   54.21    2.07 
   4  -3  -4   50.47    1.99 
   4   3  -4   55.11    2.25 
  -4   3   4   54.12    2.07 
  -4   3   4   54.49    2.24 
   4   3  -4   55.45    1.99 
   3  -3  -4   52.77    1.97 
  -3  -3   4   56.08    2.05 
   3   3  -4   51.64    1.97 
   3   3  -4   54.49    2.25 
  -3   3   4   53.37    2.23 
  -3   3   4   54.00    2.04 
  -2  -3   4  158.41    5.74 
   2  -3  -4  160.17    5.76 
  -2  -3   4  163.56    6.02 
  -2   3   4  161.68    6.03 
  -2   3   4  164.52    6.63 
   2   3  -4  161.01    6.66 
  -1  -3   4    2.69    0.14 
  -1  -3   4    2.94    0.14 
  -1   3   4    2.80    0.19 
  -1   3   4    2.69    0.14 
  -1   3   4    2.96    0.15 
   1   3  -4    2.46    0.22 
   0  -3   4   67.84    2.42 
   0  -3   4   67.90    2.52 
   0  -3  -4   70.24    2.54 
   0   3   4   69.63    2.41 
   0   3  -4   60.01    2.85 
   0   3   4   70.22    2.84 
  -1  -3  -4   29.87    1.12 
   1  -3   4   31.26    1.11 
   1  -3   4   29.95    1.07 
   1   3   4   27.66    1.30 
   1   3   4   30.47    1.06 
  -1   3  -4   26.80    1.30 
   2  -3   4    6.71    0.28 
  -2  -3  -4    6.70    0.28 
   2   3   4    6.24    0.27 
  -2   3  -4    6.89    0.27 
   2   3   4    5.76    0.38 
  -2   3  -4    6.91    0.40 
  -3  -3  -4    3.49    0.19 
   3  -3   4    3.17    0.18 
   3   3   4    3.24    0.17 
  -3   3  -4    3.20    0.27 
  -3   3  -4    3.51    0.16 
   3   3   4    3.22    0.27 
   4  -3   4    1.76    0.15 
  -4  -3  -4    1.98    0.15 
  -4   3  -4    1.72    0.19 
   4   3   4    1.59    0.20 
  -4   3  -4    2.01    0.13 
   4   3   4    1.74    0.14 
   5  -3   4    4.48    0.26 
  -5  -3  -4    4.56    0.26 
  -5   3  -4    4.22    0.30 
  -5   3  -4    4.47    0.23 
   5   3   4    4.16    0.31 
   5   3   4    4.23    0.23 
  -6  -3  -4    3.12    0.23 
   6  -3   4    3.36    0.22 
  -6  -3  -4    3.15    0.28 
  -6   3  -4    3.15    0.21 
   6   3   4    2.97    0.21 
  -6   3  -4    3.12    0.25 
  -7  -3  -4    2.89    0.25 
   7  -3   4    2.56    0.22 
   7   3   4    3.09    0.23 
  -7   3  -4    2.87    0.22 
  -8  -3  -4   17.90    0.77 
   8  -3   4   17.93    0.75 
  -8   3  -4   18.03    0.76 
   8   3   4   17.21    0.73 
  -9  -3  -4    0.29    0.13 
   9  -3   4   -0.06    0.14 
   9   3   4    0.06    0.14 
  10  -4  -4    0.00    0.15 
 -10  -4   4   -0.02    0.15 
  10   4  -4    0.18    0.15 
 -10   4   4    0.08    0.14 
   9  -4  -4   16.62    0.76 
  -9  -4   4   17.28    0.78 
  -9   4   4   18.32    0.77 
   9   4  -4   16.62    0.75 
   8  -4  -4    0.95    0.19 
  -8  -4   4    0.30    0.17 
  -8   4   4    0.53    0.16 
   8   4  -4    0.73    0.17 
  -7  -4   4   25.81    1.11 
   7  -4  -4   24.85    1.05 
   7   4  -4   29.02    1.07 
  -7   4   4   26.67    1.10 
  -6  -4   4    8.18    0.43 
   6  -4  -4    7.17    0.39 
  -6   4   4    7.88    0.42 
   6   4  -4    7.66    0.39 
   5  -4  -4   17.30    0.75 
  -5  -4   4   18.70    0.78 
  -5   4   4   17.42    0.77 
   5   4  -4   19.04    0.81 
   5   4  -4   18.67    0.76 
  -5   4   4   19.57    0.80 
  -4  -4   4    9.80    0.44 
   4  -4  -4    8.95    0.43 
  -4   4   4    9.90    0.45 
  -4   4   4    9.61    0.44 
   4   4  -4    9.35    0.46 
   4   4  -4   10.30    0.44 
  -3  -4   4   26.83    1.01 
   3  -4  -4   25.21    0.97 
  -3   4   4   25.85    1.11 
  -3   4   4   25.90    1.01 
   3   4  -4   25.67    1.12 
   3   4  -4   24.23    0.98 
  -2  -4   4    9.26    0.39 
   2  -4  -4    9.61    0.40 
  -2  -4   4    9.73    0.40 
   2   4  -4    8.84    0.49 
  -2   4   4    9.83    0.41 
  -2   4   4    9.55    0.46 
  -1  -4   4   22.77    0.88 
  -1  -4   4   23.62    0.84 
  -1   4   4   21.76    0.84 
  -1   4   4   24.28    0.89 
  -1   4   4   23.00    1.01 
   1   4  -4   20.81    1.04 
   0  -4   4   14.07    0.53 
   0  -4   4   13.93    0.55 
   0  -4  -4   14.07    0.56 
   0   4  -4   12.00    0.68 
   0   4   4   14.23    0.51 
   0   4   4   15.60    0.68 
   1  -4   4   98.01    3.45 
  -1  -4  -4   90.08    3.46 
   1  -4   4   93.31    3.29 
   1   4   4   95.02    3.28 
  -1   4  -4   87.38    3.88 
   1   4   4   90.49    3.88 
   2  -4   4    0.28    0.05 
   2  -4   4    0.14    0.06 
  -2  -4  -4    0.19    0.07 
  -2   4  -4    1.09    0.17 
   2   4   4    0.36    0.05 
   2   4   4    0.24    0.14 
   3  -4   4   30.84    1.13 
  -3  -4  -4   30.21    1.18 
   3   4   4   29.04    1.38 
  -3   4  -4   31.10    1.36 
  -3   4  -4   31.51    1.17 
   3   4   4   30.97    1.12 
   4  -4   4    4.64    0.24 
  -4  -4  -4    5.06    0.25 
   4   4   4    4.51    0.32 
  -4   4  -4    4.12    0.31 
   4   4   4    4.57    0.22 
  -4   4  -4    4.80    0.22 
  -5  -4  -4   24.95    0.99 
   5  -4   4   24.52    0.94 
   5   4   4   24.26    0.93 
   5   4   4   24.92    1.12 
  -5   4  -4   25.10    1.10 
  -5   4  -4   24.96    0.97 
  -6  -4  -4    1.33    0.16 
   6  -4   4    0.90    0.13 
  -6   4  -4    1.09    0.15 
   6   4   4    1.13    0.13 
   6   4   4    1.25    0.17 
  -6   4  -4    1.17    0.12 
  -7  -4  -4   22.68    0.95 
   7  -4   4   22.22    0.89 
   7   4   4   21.67    0.88 
  -7   4  -4   24.33    0.92 
   8  -4   4    0.33    0.13 
  -8  -4  -4    0.25    0.14 
   8   4   4    0.42    0.14 
  -9  -4  -4    0.25    0.14 
   9  -4   4    0.02    0.16 
   9   4   4   -0.07    0.14 
  10  -5  -4    1.68    0.23 
 -10  -5   4    1.21    0.21 
  10   5  -4    1.67    0.21 
 -10   5   4    1.72    0.21 
  -9  -5   4   -0.05    0.16 
   9  -5  -4   -0.13    0.17 
  -9   5   4    0.23    0.16 
   9   5  -4    0.15    0.14 
   8  -5  -4    2.75    0.26 
  -8  -5   4    2.96    0.29 
   8   5  -4    4.05    0.30 
  -8   5   4    3.62    0.31 
  -7  -5   4    0.20    0.14 
   7  -5  -4    0.11    0.14 
  -7   5   4    0.19    0.14 
   7   5  -4    0.39    0.14 
  -6  -5   4   13.07    0.58 
   6  -5  -4   12.04    0.56 
   6   5  -4   12.41    0.56 
  -6   5   4   12.60    0.59 
   5  -5  -4    1.26    0.16 
  -5  -5   4    1.30    0.16 
  -5   5   4    1.19    0.13 
   5   5  -4    1.34    0.14 
  -5   5   4    1.13    0.16 
   5   5  -4    1.18    0.15 
  -4  -5   4   10.43    0.46 
   4  -5  -4   10.27    0.45 
  -4   5   4   10.38    0.49 
   4   5  -4   10.35    0.50 
   4   5  -4   10.20    0.46 
  -4   5   4    9.72    0.46 
  -3  -5   4   18.70    0.76 
   3  -5  -4   18.91    0.73 
  -3   5   4   18.44    0.76 
  -3   5   4   18.73    0.84 
   3   5  -4   19.03    0.75 
   3   5  -4   19.10    0.87 
  -2  -5   4   67.85    2.58 
   2  -5  -4   70.00    2.47 
  -2  -5   4   67.04    2.47 
  -2   5   4   68.41    2.59 
  -2   5   4   70.59    2.88 
   2   5  -4   68.25    2.91 
  -1  -5   4    3.34    0.15 
   1  -5  -4    3.11    0.18 
   1  -5  -4    2.66    0.16 
  -1  -5   4    2.92    0.16 
   1   5  -4    2.63    0.27 
  -1   5   4    3.42    0.24 
   0  -5   4  102.96    3.73 
   0  -5   4  100.78    3.56 
   0  -5  -4  102.67    3.75 
   0   5  -4   91.54    4.20 
   0   5   4   99.56    3.55 
   0   5   4  102.54    4.18 
   1  -5   4    4.69    0.21 
  -1  -5  -4    4.83    0.23 
   1  -5   4    4.49    0.21 
   1   5   4    4.19    0.32 
  -1   5  -4    4.52    0.33 
   1   5   4    4.65    0.18 
   2  -5   4    1.79    0.12 
  -2  -5  -4    1.73    0.14 
   2  -5   4    1.28    0.11 
   2   5   4    1.22    0.20 
  -2   5  -4    1.51    0.19 
   2   5   4    1.42    0.09 
  -3  -5  -4    0.08    0.08 
   3  -5   4    0.16    0.08 
   3   5   4    0.09    0.14 
   3   5   4    0.09    0.05 
  -3   5  -4    0.22    0.14 
  -4  -5  -4    0.23    0.10 
   4  -5   4    0.20    0.08 
   4   5   4    0.27    0.15 
  -4   5  -4    0.28    0.12 
   4   5   4    0.15    0.07 
  -4   5  -4    0.29    0.07 
   5  -5   4    5.63    0.29 
  -5  -5  -4    5.90    0.30 
  -5   5  -4    5.20    0.34 
   5   5   4    5.72    0.27 
   5   5   4    5.80    0.38 
  -5   5  -4    5.58    0.27 
   6  -5   4    2.39    0.19 
  -6  -5  -4    2.38    0.20 
  -6   5  -4    2.41    0.22 
  -6   5  -4    2.38    0.18 
   6   5   4    2.26    0.23 
   6   5   4    2.31    0.18 
   7  -5   4    0.32    0.13 
  -7  -5  -4    0.17    0.13 
  -7   5  -4    0.41    0.11 
   7   5   4    0.52    0.12 
   8  -5   4   12.44    0.55 
  -8  -5  -4   12.18    0.59 
   8   5   4   12.40    0.54 
   9  -5   4    0.34    0.15 
  -9  -5  -4    0.25    0.15 
   9   5   4    0.11    0.14 
  -9  -6   4    5.91    0.41 
   9  -6  -4    4.86    0.38 
   9   6  -4    5.96    0.37 
  -9   6   4    5.96    0.39 
  -8  -6   4    2.14    0.25 
   8  -6  -4    2.28    0.24 
   8   6  -4    2.35    0.23 
  -8   6   4    2.08    0.24 
  -7  -6   4   17.85    0.78 
   7  -6  -4   17.22    0.75 
  -7   6   4   17.56    0.79 
   7   6  -4   17.95    0.75 
   6  -6  -4   17.33    0.70 
  -6  -6   4   16.29    0.74 
  -6   6   4   17.61    0.75 
   6   6  -4   16.22    0.71 
   5  -6  -4   13.72    0.57 
  -5  -6   4   13.07    0.60 
   5   6  -4   13.45    0.64 
  -5   6   4   13.86    0.63 
   5   6  -4   13.74    0.58 
  -5   6   4   13.58    0.60 
  -4  -6   4    1.51    0.15 
   4  -6  -4    1.57    0.14 
   4   6  -4    1.74    0.18 
   4   6  -4    1.59    0.16 
  -4   6   4    1.97    0.19 
  -4   6   4    1.58    0.15 
  -3  -6   4    0.32    0.10 
   3  -6  -4    0.50    0.09 
  -3   6   4    0.36    0.10 
   3   6  -4    0.88    0.12 
  -3   6   4    0.25    0.11 
   3   6  -4    0.55    0.15 
  -2  -6   4    5.25    0.26 
   2  -6  -4    6.04    0.24 
  -2  -6   4    5.52    0.26 
  -2   6   4    5.75    0.33 
   2   6  -4    5.33    0.37 
  -1  -6   4    2.19    0.15 
  -1  -6   4    2.44    0.13 
   1  -6  -4    2.11    0.16 
   1  -6  -4    2.19    0.11 
  -1   6   4    2.37    0.23 
   1   6  -4    1.78    0.25 
   0  -6   4    0.22    0.07 
   0  -6   4    0.32    0.06 
   0  -6  -4    0.33    0.09 
   0   6   4    0.43    0.14 
   0   6  -4    0.10    0.16 
   1  -6   4   12.85    0.52 
   1  -6   4   12.86    0.50 
  -1  -6  -4   13.21    0.54 
   1   6   4   12.79    0.47 
  -1   6  -4   12.66    0.68 
   1   6   4   13.91    0.69 
   2  -6   4   10.89    0.43 
  -2  -6  -4   10.47    0.46 
   2  -6   4   10.65    0.44 
  -2   6  -4   11.18    0.58 
   2   6   4   10.46    0.60 
   2   6   4   11.05    0.40 
   3  -6   4   65.33    2.41 
  -3  -6  -4   63.90    2.42 
   3  -6   4   64.92    2.31 
  -3   6  -4   64.02    2.73 
   3   6   4   65.09    2.29 
   3   6   4   60.72    2.76 
   4  -6   4   18.17    0.74 
  -4  -6  -4   19.61    0.78 
  -4   6  -4   18.97    0.77 
  -4   6  -4   19.83    0.91 
   4   6   4   20.69    0.95 
   4   6   4   19.68    0.73 
   5  -6   4   17.83    0.71 
  -5  -6  -4   17.72    0.75 
   5   6   4   18.38    0.69 
   5   6   4   18.38    0.88 
  -5   6  -4   17.19    0.84 
  -5   6  -4   18.62    0.73 
  -6  -6  -4    2.91    0.23 
   6  -6   4    2.46    0.21 
  -6   6  -4    2.38    0.23 
   6   6   4    2.91    0.28 
  -6   6  -4    2.78    0.19 
   6   6   4    2.69    0.18 
   7  -6   4    0.47    0.13 
  -7  -6  -4    0.22    0.13 
   7   6   4    0.09    0.10 
   8  -6   4    0.32    0.14 
  -8  -6  -4    0.17    0.15 
   8   6   4    0.49    0.12 
  -9  -7   4    0.08    0.18 
   9  -7  -4    0.34    0.17 
   9   7  -4    0.72    0.18 
  -9   7   4    0.46    0.17 
  -8  -7   4    0.89    0.20 
   8  -7  -4    0.79    0.18 
   8   7  -4    0.87    0.18 
  -8   7   4    0.49    0.18 
   7  -7  -4    2.28    0.22 
  -7  -7   4    1.78    0.22 
   7   7  -4    2.25    0.22 
  -7   7   4    1.94    0.22 
  -6  -7   4    1.58    0.19 
   6  -7  -4    1.71    0.18 
   6   7  -4    1.77    0.19 
  -6   7   4    1.67    0.19 
  -5  -7   4   13.82    0.61 
   5  -7  -4   14.20    0.57 
   5   7  -4   14.29    0.60 
   5   7  -4   13.69    0.66 
  -5   7   4   13.81    0.65 
  -5   7   4   13.45    0.62 
   4  -7  -4   32.92    1.22 
  -4  -7   4   31.75    1.30 
  -4   7   4   33.81    1.31 
   4   7  -4   34.29    1.26 
   4   7  -4   33.33    1.46 
  -4   7   4   32.71    1.43 
  -3  -7   4   18.36    0.77 
   3  -7  -4   18.96    0.71 
   3   7  -4   19.51    0.91 
  -3   7   4   19.30    0.87 
   3   7  -4   20.10    0.75 
  -3   7   4   18.08    0.78 
  -2  -7   4    7.76    0.35 
   2  -7  -4    7.88    0.30 
   2  -7  -4    7.85    0.36 
  -2  -7   4    7.65    0.34 
  -2   7   4    7.32    0.43 
   2   7  -4    6.93    0.48 
  -1  -7   4   29.96    1.05 
  -1  -7   4   28.34    1.11 
   1  -7  -4   29.14    1.12 
  -1   7   4   29.69    1.29 
   1   7  -4   25.79    1.32 
   0  -7   4    9.30    0.35 
   0  -7  -4    8.94    0.40 
   0  -7   4    8.49    0.38 
   0   7  -4    7.46    0.52 
   0   7   4    9.25    0.53 
   1  -7   4   19.28    0.71 
   1  -7   4   19.14    0.76 
   1   7   4   19.27    0.94 
  -1   7  -4   19.24    0.95 
   2  -7   4   13.17    0.52 
   2  -7   4   12.91    0.50 
  -2  -7  -4   12.66    0.54 
  -2   7  -4   13.09    0.68 
   2   7   4   11.96    0.69 
   3  -7   4    8.77    0.37 
  -3  -7  -4    9.01    0.40 
   3  -7   4    8.74    0.38 
   3   7   4    7.92    0.53 
  -3   7  -4    9.20    0.50 
   4  -7   4    0.16    0.09 
  -4  -7  -4    0.25    0.11 
   4  -7   4    0.09    0.08 
  -4   7  -4    0.09    0.12 
   4   7   4    0.29    0.18 
   5  -7   4    3.13    0.21 
  -5  -7  -4    2.67    0.22 
  -5   7  -4    2.84    0.26 
   5   7   4    3.03    0.29 
  -6  -7  -4    3.82    0.27 
   6  -7   4    3.76    0.24 
  -6   7  -4    3.87    0.23 
  -6   7  -4    3.78    0.29 
   6   7   4    4.15    0.33 
   7  -7   4    4.87    0.29 
  -7  -7  -4    4.89    0.32 
  -8  -7  -4    0.41    0.16 
   8  -7   4    0.59    0.15 
  -8  -8   4    7.92    0.46 
  -8   8   4    7.75    0.46 
   7  -8  -4    3.65    0.28 
  -7  -8   4    4.09    0.32 
  -7   8   4    3.51    0.31 
  -6  -8   4    9.36    0.46 
  -6   8   4    9.05    0.47 
  -5  -8   4    4.38    0.28 
  -5   8   4    5.06    0.31 
   5   8  -4    4.71    0.32 
   5   8  -4    4.66    0.29 
  -5   8   4    5.08    0.31 
  -4  -8   4    9.91    0.46 
   4   8  -4   10.60    0.46 
   4   8  -4   10.08    0.55 
  -4   8   4   10.13    0.53 
  -4   8   4   11.01    0.49 
  -3  -8   4    0.02    0.10 
   3  -8  -4    0.05    0.10 
   3   8  -4    0.04    0.14 
   3   8  -4    0.11    0.09 
  -3   8   4   -0.04    0.12 
  -2  -8   4    4.18    0.25 
   2  -8  -4    4.64    0.27 
  -2   8   4    4.16    0.31 
   2   8  -4    4.47    0.24 
   2   8  -4    4.46    0.36 
  -1  -8   4    1.33    0.12 
   1  -8  -4    1.25    0.14 
  -1  -8   4    1.55    0.12 
   1   8  -4    1.12    0.22 
  -1   8   4    1.26    0.21 
   0  -8   4   62.60    2.10 
   0  -8  -4   57.90    2.23 
   0  -8   4   57.75    2.21 
   0   8  -4   52.42    2.55 
   0   8   4   61.36    2.54 
  -1  -8  -4    0.51    0.11 
   1  -8   4    0.34    0.07 
   1  -8   4    0.36    0.09 
  -1   8  -4    0.62    0.20 
   1   8   4    0.15    0.16 
   2  -8   4   25.16    0.97 
  -2  -8  -4   24.79    0.98 
   2  -8   4   25.74    0.91 
   2   8   4   22.56    1.18 
  -2   8  -4   24.34    1.16 
   3  -8   4    9.46    0.42 
  -3  -8  -4   10.16    0.44 
   3  -8   4    9.89    0.40 
  -3   8  -4    9.35    0.55 
   3   8   4    9.47    0.59 
   4  -8   4    3.24    0.20 
   4  -8   4    3.56    0.21 
  -4  -8  -4    3.21    0.22 
   4   8   4    3.20    0.33 
  -4   8  -4    3.35    0.30 
   5  -8   4    2.65    0.20 
  -5  -8  -4    2.65    0.23 
   5  -8   4    2.71    0.19 
   5   8   4    3.17    0.31 
  -5   8  -4    2.80    0.27 
   6  -8   4   15.15    0.62 
   6  -8   4   14.41    0.60 
  -6  -8  -4   14.95    0.65 
   6   8   4   15.40    0.76 
  -6   8  -4   14.65    0.72 
  -7  -8  -4    0.12    0.14 
   7  -8   4    0.02    0.11 
  -8  -8  -4    3.23    0.27 
   8  -8   4    2.78    0.22 
  -8  -9   4    0.11    0.17 
  -8   9   4   -0.14    0.16 
  -7  -9   4    4.42    0.34 
  -7   9   4    4.21    0.31 
  -6  -9   4    0.21    0.15 
  -6   9   4    0.59    0.16 
  -5  -9   4    4.78    0.30 
   5   9  -4    4.12    0.31 
  -5   9   4    4.57    0.29 
  -5   9   4    4.69    0.31 
   4  -9  -4    2.05    0.19 
  -4  -9   4    1.27    0.16 
  -4   9   4    1.42    0.18 
   4   9  -4    1.70    0.21 
   3  -9  -4   19.36    0.77 
  -3  -9   4   17.64    0.75 
  -3   9   4   17.22    0.85 
   3   9  -4   18.54    0.91 
   2  -9  -4    0.06    0.10 
  -2  -9   4   -0.05    0.10 
   2   9  -4   -0.14    0.15 
  -2   9   4    0.08    0.13 
  -1  -9   4   31.78    1.24 
   1  -9  -4   34.20    1.25 
  -1   9   4   31.50    1.44 
   1   9  -4   28.91    1.48 
   0  -9  -4    2.75    0.20 
   0  -9   4    2.74    0.19 
   0   9  -4    2.34    0.32 
   0   9   4    2.44    0.28 
  -1  -9  -4    7.02    0.36 
   1  -9   4    7.67    0.34 
   1   9   4    7.76    0.51 
  -1   9  -4    6.96    0.51 
  -2  -9  -4    2.05    0.18 
   2  -9   4    2.03    0.17 
  -2   9  -4    1.88    0.26 
   2   9   4    1.47    0.27 
   3  -9   4    0.23    0.10 
  -3  -9  -4    0.38    0.12 
   3   9   4    0.29    0.22 
  -3   9  -4    0.23    0.15 
   4  -9   4    0.15    0.09 
  -4  -9  -4    0.12    0.11 
   4   9   4    0.10    0.17 
  -4   9  -4    0.04    0.13 
   5  -9   4    0.19    0.10 
   5  -9   4    0.34    0.10 
  -5  -9  -4    0.29    0.13 
   5   9   4    0.15    0.18 
  -5   9  -4    0.12    0.15 
  -6  -9  -4    0.20    0.14 
   6  -9   4    0.18    0.10 
   6   9   4    0.23    0.16 
  -6   9  -4    0.16    0.14 
  -7  -9  -4    4.64    0.32 
  -7 -10   4    5.81    0.38 
  -7  10   4    5.14    0.35 
   6 -10  -4    6.06    0.36 
  -6 -10   4    6.34    0.38 
   5 -10  -4    6.61    0.37 
  -5 -10   4    7.08    0.38 
  -5  10   4    6.94    0.41 
   5  10  -4    6.37    0.41 
   4 -10  -4    4.47    0.30 
  -4 -10   4    4.80    0.30 
   4  10  -4    4.53    0.35 
  -4  10   4    4.20    0.32 
   3 -10  -4    2.51    0.22 
  -3 -10   4    2.58    0.23 
  -3  10   4    2.02    0.23 
   3  10  -4    2.67    0.28 
  -2 -10   4    1.68    0.16 
   2 -10  -4    1.48    0.18 
   2  10  -4    1.43    0.25 
   1 -10  -4    0.25    0.13 
  -1 -10   4    0.22    0.11 
  -1  10   4    0.27    0.18 
   1  10  -4   -0.08    0.19 
   0 -10   4    2.37    0.20 
   0  10  -4    2.78    0.35 
   0  10   4    2.54    0.29 
   1 -10   4    0.02    0.10 
  -1 -10  -4   -0.01    0.10 
  -1  10  -4   -0.01    0.17 
   1  10   4    0.19    0.20 
  -2 -10  -4   13.67    0.60 
   2 -10   4   14.72    0.59 
  -2  10  -4   14.24    0.76 
   2  10   4   12.75    0.78 
   3 -10   4    7.69    0.36 
  -3 -10  -4    7.63    0.39 
   3  10   4    7.18    0.53 
  -3  10  -4    7.85    0.49 
   4 -10   4   12.78    0.56 
  -4 -10  -4   13.59    0.59 
  -4  10  -4   13.25    0.69 
   4  10   4   13.63    0.76 
   5 -10   4    3.17    0.22 
  -5 -10  -4    2.56    0.22 
  -5  10  -4    2.83    0.27 
   5  10   4    2.91    0.33 
  -6 -10  -4    7.32    0.40 
   6  10   4    7.18    0.47 
  -6  10  -4    6.75    0.43 
  -6 -11   4    1.80    0.21 
   6 -11  -4    1.66    0.19 
  -5 -11   4    7.78    0.41 
   5 -11  -4    7.33    0.40 
  -5  11   4    8.40    0.47 
   5  11  -4    7.53    0.46 
  -4 -11   4    1.37    0.19 
   4 -11  -4    1.39    0.19 
  -4  11   4    1.48    0.21 
   4  11  -4    1.64    0.23 
  -3 -11   4   25.21    1.02 
   3 -11  -4   25.95    1.03 
  -3  11   4   24.06    1.16 
   3  11  -4   26.03    1.21 
   2 -11  -4    5.22    0.31 
  -2 -11   4    5.20    0.31 
  -2  11   4    5.16    0.40 
   2  11  -4    6.48    0.49 
  -1 -11   4    1.34    0.15 
   1 -11  -4    1.25    0.17 
  -1  11   4    1.55    0.25 
   1  11  -4    1.54    0.29 
   0 -11   4    6.30    0.33 
   0 -11  -4    6.64    0.35 
   0  11   4    7.43    0.52 
   0  11  -4    6.32    0.53 
   1 -11   4    6.58    0.33 
  -1 -11  -4    6.41    0.35 
  -1  11  -4    5.68    0.50 
   1  11   4    7.25    0.53 
   2 -11   4    5.01    0.27 
  -2 -11  -4    4.51    0.28 
   2  11   4    4.44    0.45 
  -2  11  -4    4.90    0.43 
   3 -11   4    2.94    0.22 
  -3 -11  -4    3.02    0.25 
  -3  11  -4    3.04    0.31 
   3  11   4    2.78    0.35 
  -4 -11  -4    0.31    0.14 
   4 -11   4    0.13    0.11 
   4  11   4    0.16    0.22 
  -4  11  -4    0.09    0.16 
  -5 -11  -4    2.62    0.23 
   5  11   4    2.32    0.30 
  -5  11  -4    3.19    0.31 
  -5 -12   4    0.44    0.15 
   5 -12  -4    0.29    0.13 
  -5  12   4    0.06    0.15 
   5  12  -4    0.29    0.15 
  -4 -12   4    0.27    0.13 
   4 -12  -4    0.21    0.13 
  -4  12   4    0.35    0.16 
   4  12  -4    0.32    0.17 
  -3 -12   4    1.30    0.17 
   3 -12  -4    1.38    0.18 
   3  12  -4    1.42    0.24 
  -3  12   4    1.14    0.21 
  -2 -12   4   -0.24    0.12 
   2 -12  -4   -0.01    0.14 
  -2  12   4    0.09    0.17 
   2  12  -4    0.20    0.21 
  -1 -12   4   -0.07    0.11 
   1 -12  -4    0.10    0.12 
  -1  12   4   -0.07    0.16 
   1  12  -4    0.69    0.24 
   0 -12  -4    0.21    0.14 
   0 -12   4    0.35    0.12 
   0  12  -4    0.24    0.24 
   0  12   4    0.34    0.22 
   1 -12   4   13.49    0.59 
  -1 -12  -4   13.86    0.61 
   1  12   4   14.10    0.82 
  -1  12  -4   13.62    0.78 
   2 -12   4    1.89    0.17 
  -2 -12  -4    1.60    0.18 
  -2  12  -4    1.93    0.30 
   2  12   4    1.58    0.30 
  -3 -12  -4    4.92    0.31 
   3 -12   4    4.57    0.29 
  -3  12  -4    4.62    0.41 
   3  12   4    5.34    0.47 
   4 -12   4    3.92    0.27 
  -4 -12  -4    4.11    0.29 
   4  12   4    4.36    0.42 
  -4  12  -4    3.65    0.36 
   3 -13  -4    0.79    0.17 
  -3 -13   4    0.70    0.16 
  -3  13   4    0.78    0.20 
   3  13  -4    0.98    0.24 
  -2 -13   4   15.15    0.68 
   2 -13  -4   16.59    0.70 
   2  13  -4   16.28    0.90 
  -2  13   4   16.27    0.83 
   1 -13  -4    2.16    0.22 
  -1 -13   4    2.23    0.20 
  -1  13   4    2.13    0.30 
   1  13  -4    2.71    0.37 
   0 -13  -4    6.95    0.38 
   0 -13   4    6.91    0.36 
   0  13   4    7.16    0.52 
   0  13  -4    7.06    0.55 
  -1 -13  -4    0.11    0.14 
   1 -13   4    0.12    0.12 
   1  13   4   -0.30    0.22 
  -1  13  -4    0.00    0.22 
   2 -13   4    0.04    0.11 
  -2 -13  -4   -0.01    0.13 
  -2  13  -4    0.17    0.21 
   2  13   4    0.11    0.21 
  -3 -13  -4    0.20    0.14 
   3 -13   4    0.29    0.12 
  -3  13  -4    0.26    0.19 
   3  13   4    0.23    0.25 
 -10   0   5   -0.04    0.13 
  10   0  -5    0.15    0.16 
  -9   0   5    1.22    0.16 
   9   0  -5    1.82    0.21 
   8   0  -5    0.16    0.13 
  -8   0   5   -0.01    0.11 
   7   0  -5   13.58    0.59 
  -7   0   5   13.08    0.60 
   6   0  -5    0.16    0.11 
  -6   0   5   -0.05    0.10 
   5   0  -5   56.43    2.09 
  -5   0   5   56.92    2.19 
   4   0  -5    0.01    0.10 
  -4   0   5   -0.09    0.09 
  -3   0   5  187.38    7.11 
   3   0  -5  210.21    8.18 
  -3   0   5  201.31    7.47 
  -2   0   5    0.00    0.05 
   2   0  -5   -0.04    0.06 
  -2   0   5    0.11    0.06 
  -1   0   5   55.60    2.09 
  -1   0   5   56.18    2.00 
   1   0  -5   55.73    2.35 
   0   0  -5    0.16    0.10 
   0   0   5    0.02    0.02 
   0   0   5    0.09    0.04 
  -1   0  -5    2.78    0.25 
   1   0   5    3.28    0.16 
  -1   0  -5    3.11    0.13 
  -2   0  -5    0.07    0.05 
   2   0   5   -0.07    0.05 
  -2   0  -5    0.02    0.13 
  -3   0  -5    0.08    0.13 
   3   0   5    0.18    0.08 
  -4   0  -5   -0.15    0.12 
  -4   0  -5    0.00    0.07 
   4   0   5   -0.05    0.09 
  -5   0  -5   52.00    2.15 
  -5   0  -5   49.91    1.92 
   5   0   5   48.38    1.83 
   6   0   5    0.25    0.11 
  -6   0  -5   -0.05    0.12 
  -6   0  -5   -0.14    0.09 
   7   0   5   38.80    1.51 
  -7   0  -5   39.89    1.58 
  -7   0  -5   42.49    1.74 
   8   0   5   -0.10    0.13 
   9   0   5    1.10    0.19 
 -10  -1   5   14.27    0.63 
  10  -1  -5   13.70    0.64 
 -10   1   5   13.27    0.63 
  10   1  -5   14.40    0.64 
   9  -1  -5    1.89    0.22 
  -9  -1   5    2.25    0.21 
  -9   1   5    1.66    0.19 
   9   1  -5    1.56    0.20 
  -8  -1   5   10.26    0.52 
   8  -1  -5   11.26    0.54 
  -8   1   5   11.14    0.53 
   8   1  -5   11.91    0.54 
  -7  -1   5    9.30    0.46 
   7  -1  -5    9.36    0.46 
   7   1  -5    8.68    0.44 
  -7   1   5    8.83    0.45 
  -6  -1   5    3.74    0.25 
   6  -1  -5    3.67    0.28 
  -6   1   5    4.25    0.27 
   6   1  -5    3.10    0.25 
   5  -1  -5   11.70    0.52 
  -5  -1   5   11.58    0.53 
   5   1  -5   11.89    0.52 
  -5   1   5   11.20    0.53 
  -4  -1   5    1.08    0.14 
   4  -1  -5    1.12    0.14 
   4  -1  -5    1.43    0.10 
  -4   1   5    1.43    0.15 
   4   1  -5    1.81    0.17 
   4   1  -5    1.41    0.09 
  -3  -1   5   14.09    0.58 
   3  -1  -5   12.83    0.56 
  -3  -1   5   13.10    0.56 
  -3   1   5   12.26    0.56 
   3   1  -5   14.69    0.60 
  -2  -1   5   50.19    1.84 
  -2  -1   5   50.31    1.94 
   2   1  -5   51.82    2.14 
  -2   1   5   51.89    1.93 
  -2   1   5   52.05    1.84 
  -2   1   5   48.85    2.12 
  -1  -1   5    0.16    0.06 
  -1  -1   5    0.11    0.05 
  -1   1   5   -0.03    0.07 
   1   1  -5    0.10    0.09 
  -1   1   5    0.10    0.04 
  -1   1   5    0.09    0.04 
   0  -1  -5   79.19    2.81 
   0  -1   5   77.43    2.70 
   0  -1   5   78.01    2.81 
   0   1   5   76.04    2.69 
   0   1  -5   68.72    3.17 
   0   1   5   72.81    3.15 
   1  -1   5    0.13    0.05 
  -1  -1  -5    0.26    0.03 
   1   1   5    0.08    0.10 
  -1   1  -5    0.25    0.13 
   1   1   5    0.23    0.05 
   2  -1   5   94.60    3.39 
  -2  -1  -5   97.91    3.54 
  -2   1  -5   99.33    3.53 
   2   1   5   95.96    3.38 
   2   1   5   87.47    3.97 
  -2   1  -5   93.53    3.98 
   3  -1   5    6.88    0.31 
  -3  -1  -5    6.93    0.43 
  -3  -1  -5    6.91    0.31 
  -3   1  -5    7.33    0.29 
   3   1   5    7.18    0.31 
  -3   1  -5    6.80    0.42 
   4  -1   5   36.60    1.36 
  -4  -1  -5   35.42    1.43 
  -4  -1  -5   37.21    1.62 
  -4   1  -5   38.24    1.41 
   4   1   5   37.54    1.36 
  -4   1  -5   36.73    1.61 
   5  -1   5    0.03    0.09 
  -5  -1  -5    0.06    0.09 
  -5  -1  -5    0.06    0.12 
  -5   1  -5    0.00    0.08 
   5   1   5    0.06    0.09 
  -5   1  -5    0.08    0.12 
  -6  -1  -5    3.31    0.27 
  -6  -1  -5    2.78    0.22 
   6  -1   5    3.04    0.21 
  -6   1  -5    2.56    0.21 
  -6   1  -5    3.16    0.25 
   6   1   5    2.76    0.20 
   7  -1   5    3.42    0.24 
  -7  -1  -5    3.89    0.26 
  -7  -1  -5    4.01    0.29 
   7   1   5    3.39    0.26 
  -7   1  -5    3.68    0.28 
  -7   1  -5    3.51    0.24 
  -8  -1  -5    0.36    0.12 
   8  -1   5    0.37    0.15 
   8   1   5    0.17    0.12 
   9  -1   5    0.69    0.18 
   9   1   5    0.53    0.17 
  10  -2  -5    0.24    0.16 
 -10  -2   5   -0.09    0.14 
  10   2  -5   -0.03    0.13 
 -10   2   5    0.21    0.14 
   9  -2  -5    0.12    0.16 
  -9  -2   5    0.00    0.14 
  -9   2   5    0.41    0.14 
   9   2  -5    0.15    0.14 
  -8  -2   5    1.42    0.18 
   8  -2  -5    2.17    0.23 
   8   2  -5    2.02    0.21 
  -8   2   5    1.48    0.19 
  -7  -2   5   13.29    0.60 
   7  -2  -5   12.52    0.58 
   7   2  -5   12.69    0.57 
  -7   2   5   13.01    0.59 
   6  -2  -5   24.06    0.93 
  -6  -2   5   21.85    0.96 
   6   2  -5   22.83    0.92 
  -6   2   5   23.67    0.96 
  -5  -2   5   48.75    1.99 
   5  -2  -5   53.93    1.91 
   5   2  -5   54.33    1.90 
  -5   2   5   47.62    1.98 
  -4  -2   5   14.59    0.65 
   4  -2  -5   15.96    0.63 
   4   2  -5   14.63    0.62 
   4   2  -5   15.54    0.65 
  -4   2   5   15.52    0.65 
  -4   2   5   14.58    0.64 
  -3  -2   5    7.50    0.35 
   3  -2  -5    7.30    0.35 
  -3  -2   5    7.56    0.35 
   3   2  -5    7.31    0.36 
  -3   2   5    7.69    0.36 
  -3   2   5    7.64    0.35 
  -2  -2   5   43.67    1.68 
  -2  -2   5   44.48    1.60 
  -2   2   5   43.27    1.61 
  -2   2   5   45.03    1.67 
   2   2  -5   44.63    1.87 
  -2   2   5   43.26    1.85 
  -1  -2   5   46.75    1.75 
  -1  -2   5   46.39    1.68 
  -1   2   5   46.80    1.75 
  -1   2   5   47.22    1.97 
   1   2  -5   45.25    1.99 
  -1   2   5   46.79    1.67 
   0  -2  -5   31.78    1.18 
   0  -2   5   32.11    1.17 
   0  -2   5   31.57    1.13 
   0   2   5   32.31    1.36 
   0   2  -5   27.04    1.37 
   0   2   5   31.59    1.13 
  -1  -2  -5    0.43    0.05 
   1  -2   5    0.29    0.06 
   1  -2   5    0.53    0.03 
   1   2   5    0.45    0.12 
   1   2   5    0.27    0.05 
  -1   2  -5    0.36    0.13 
   2  -2   5    7.46    0.33 
  -2  -2  -5    8.04    0.33 
   2   2   5    7.86    0.46 
  -2   2  -5    8.66    0.31 
   2   2   5    8.11    0.32 
  -2   2  -5    7.72    0.45 
  -3  -2  -5   15.87    0.63 
   3  -2   5   15.42    0.62 
   3   2   5   15.78    0.78 
   3   2   5   16.20    0.61 
  -3   2  -5   16.44    0.61 
  -3   2  -5   16.15    0.78 
  -4  -2  -5   24.37    0.97 
   4  -2   5   24.60    0.94 
   4   2   5   24.68    0.93 
  -4   2  -5   24.87    0.95 
  -4   2  -5   25.64    1.13 
  -5  -2  -5    7.46    0.43 
  -5  -2  -5    6.90    0.35 
   5  -2   5    7.21    0.34 
   5   2   5    7.36    0.34 
  -5   2  -5    7.42    0.42 
  -5   2  -5    7.41    0.33 
  -6  -2  -5    1.67    0.20 
   6  -2   5    1.48    0.15 
  -6  -2  -5    1.91    0.18 
   6   2   5    1.68    0.16 
  -6   2  -5    1.57    0.19 
  -6   2  -5    1.73    0.15 
   7  -2   5    6.25    0.35 
  -7  -2  -5    7.17    0.37 
  -7  -2  -5    7.48    0.41 
  -7   2  -5    7.30    0.40 
   7   2   5    7.10    0.36 
  -7   2  -5    6.82    0.35 
  -8  -2  -5    6.30    0.34 
   8  -2   5    5.58    0.34 
   8   2   5    6.30    0.35 
   9  -2   5    4.08    0.32 
   9   2   5    3.70    0.30 
 -10  -3   5    2.04    0.22 
  10  -3  -5    2.14    0.23 
 -10   3   5    2.41    0.22 
  10   3  -5    2.13    0.21 
  -9  -3   5    4.72    0.35 
   9  -3  -5    5.31    0.34 
  -9   3   5    5.05    0.32 
   9   3  -5    5.64    0.34 
  -8  -3   5    9.22    0.49 
   8  -3  -5    9.39    0.49 
  -8   3   5    9.55    0.47 
   8   3  -5    9.36    0.47 
  -7  -3   5    5.23    0.36 
   7  -3  -5    5.51    0.35 
   7   3  -5    5.86    0.32 
  -7   3   5    5.33    0.33 
  -6  -3   5    1.15    0.17 
   6  -3  -5    1.51    0.19 
   6   3  -5    1.64    0.17 
  -6   3   5    1.64    0.20 
   5  -3  -5   19.42    0.81 
  -5  -3   5   19.69    0.84 
   5   3  -5   21.21    0.85 
  -5   3   5   20.07    0.85 
  -5   3   5   18.40    0.83 
   5   3  -5   20.51    0.80 
   4  -3  -5   11.42    0.51 
  -4  -3   5   11.45    0.52 
   4   3  -5   12.00    0.51 
  -4   3   5   11.92    0.52 
  -4   3   5   11.76    0.52 
   4   3  -5   11.73    0.53 
  -3  -3   5    6.63    0.32 
  -3  -3   5    6.29    0.31 
   3  -3  -5    6.24    0.32 
  -3   3   5    6.48    0.31 
   3   3  -5    6.78    0.34 
  -3   3   5    6.45    0.33 
  -2  -3   5    0.18    0.06 
  -2  -3   5    0.09    0.06 
   2   3  -5    0.22    0.10 
  -2   3   5    0.10    0.07 
  -2   3   5    0.04    0.05 
  -2   3   5    0.17    0.08 
  -1  -3   5   98.99    3.64 
  -1  -3   5   97.36    3.48 
   1   3  -5   93.96    4.08 
  -1   3   5   99.01    3.65 
  -1   3   5   99.43    4.05 
  -1   3   5   97.10    3.47 
   0  -3  -5    6.99    0.30 
   0  -3   5    7.34    0.29 
   0  -3   5    7.19    0.29 
   0   3   5    6.94    0.28 
   0   3   5    7.62    0.40 
   0   3  -5    6.63    0.42 
   1  -3   5   60.93    2.08 
   1  -3   5   60.13    2.15 
  -1  -3  -5   57.90    2.17 
   1   3   5   58.45    2.07 
   1   3   5   55.21    2.46 
  -1   3  -5   53.40    2.47 
   2  -3   5   52.21    1.86 
   2  -3   5   55.78    1.92 
  -2  -3  -5   51.84    1.94 
  -2   3  -5   51.12    2.22 
   2   3   5   51.85    1.85 
   2   3   5   45.34    2.21 
   3  -3   5   36.24    1.33 
  -3  -3  -5   36.31    1.38 
  -3   3  -5   37.33    1.60 
  -3   3  -5   37.79    1.37 
   3   3   5   34.09    1.60 
   3   3   5   35.63    1.32 
  -4  -3  -5    1.83    0.15 
   4  -3   5    1.95    0.16 
  -4   3  -5    1.47    0.19 
   4   3   5    1.71    0.14 
  -4   3  -5    1.93    0.12 
   4   3   5    1.66    0.21 
   5  -3   5   24.94    0.95 
  -5  -3  -5   24.37    0.99 
   5   3   5   24.15    0.94 
  -5   3  -5   24.03    1.12 
   5   3   5   25.85    1.13 
  -5   3  -5   25.57    0.96 
   6  -3   5    0.12    0.10 
  -6  -3  -5    0.26    0.14 
  -6  -3  -5    0.16    0.11 
  -6   3  -5    0.07    0.08 
   6   3   5    0.22    0.09 
  -6   3  -5    0.31    0.13 
  -7  -3  -5    0.43    0.15 
  -7  -3  -5    0.61    0.14 
   7  -3   5    0.38    0.14 
  -7   3  -5    0.49    0.14 
   7   3   5    0.31    0.11 
   8  -3   5    0.27    0.15 
  -8  -3  -5    0.40    0.14 
   8   3   5    0.39    0.14 
   9  -3   5    0.13    0.16 
   9   3   5    0.34    0.13 
 -10  -4   5    0.18    0.15 
  10  -4  -5    0.33    0.17 
  10   4  -5    0.28    0.13 
 -10   4   5    0.30    0.15 
   9  -4  -5    0.13    0.14 
  -9  -4   5    0.02    0.14 
   9   4  -5    0.22    0.14 
  -9   4   5    0.26    0.15 
   8  -4  -5    8.84    0.47 
  -8  -4   5    9.14    0.48 
  -8   4   5    8.92    0.46 
   8   4  -5    8.75    0.45 
   7  -4  -5   -0.12    0.13 
  -7  -4   5    0.16    0.15 
  -7   4   5   -0.11    0.12 
   7   4  -5    0.03    0.12 
   6  -4  -5   11.85    0.56 
  -6  -4   5   12.36    0.58 
  -6   4   5   11.73    0.58 
   6   4  -5   13.39    0.55 
   5  -4  -5    2.18    0.20 
  -5  -4   5    2.09    0.20 
   5   4  -5    2.52    0.20 
  -5   4   5    2.15    0.16 
  -5   4   5    2.04    0.19 
   5   4  -5    2.16    0.16 
  -4  -4   5   96.81    3.61 
   4  -4  -5   91.18    3.45 
   4   4  -5   98.00    3.95 
   4   4  -5   95.58    3.45 
  -4   4   5   95.53    3.94 
  -4   4   5   96.28    3.61 
  -3  -4   5    3.23    0.22 
   3  -4  -5    3.33    0.22 
  -3  -4   5    3.54    0.21 
  -3   4   5    3.52    0.20 
  -3   4   5    3.34    0.22 
   3   4  -5    3.54    0.25 
   2  -4  -5   80.45    2.91 
  -2  -4   5   80.61    2.89 
  -2  -4   5   79.79    3.02 
  -2   4   5   79.74    3.35 
   2   4  -5   84.12    3.39 
  -2   4   5   79.17    3.03 
  -1  -4   5    6.79    0.29 
  -1  -4   5    6.66    0.28 
   1   4  -5    6.25    0.41 
  -1   4   5    7.45    0.39 
  -1   4   5    6.72    0.28 
   0  -4   5    4.42    0.19 
   0  -4  -5    4.22    0.21 
   0  -4   5    4.58    0.20 
   0   4  -5    4.14    0.32 
   0   4   5    4.28    0.30 
   0   4   5    4.63    0.19 
   1  -4   5    0.31    0.05 
  -1  -4  -5    0.34    0.07 
   1  -4   5    0.32    0.07 
   1   4   5    0.36    0.14 
  -1   4  -5    0.49    0.16 
   1   4   5    0.36    0.05 
   2  -4   5   -0.01    0.06 
  -2  -4  -5   -0.04    0.06 
   2  -4   5    0.12    0.05 
   2   4   5    0.05    0.05 
   2   4   5   -0.07    0.12 
  -2   4  -5    0.02    0.14 
   3  -4   5    0.22    0.08 
  -3  -4  -5    0.20    0.08 
   3   4   5   -0.02    0.15 
  -3   4  -5    0.03    0.05 
  -3   4  -5    0.07    0.12 
   3   4   5    0.10    0.06 
   4  -4   5    0.99    0.12 
  -4  -4  -5    1.05    0.12 
   4   4   5    1.24    0.20 
  -4   4  -5    1.23    0.18 
  -4   4  -5    1.31    0.11 
   4   4   5    1.17    0.11 
   5  -4   5    0.08    0.10 
  -5  -4  -5    0.19    0.10 
   5   4   5    0.02    0.08 
  -5   4  -5    0.13    0.07 
   5   4   5    0.07    0.13 
  -5   4  -5    0.00    0.12 
   6  -4   5   41.55    1.57 
  -6  -4  -5   41.78    1.65 
   6   4   5   43.12    1.84 
   6   4   5   41.58    1.56 
  -6   4  -5   42.48    1.82 
  -6   4  -5   43.63    1.62 
  -7  -4  -5    1.03    0.16 
  -7  -4  -5    1.32    0.19 
   7  -4   5    1.13    0.15 
  -7   4  -5    1.27    0.17 
   7   4   5    0.91    0.14 
  -8  -4  -5    8.80    0.46 
   8  -4   5    9.15    0.45 
   8   4   5    9.41    0.43 
   9  -4   5    0.48    0.17 
   9   4   5    0.38    0.15 
   9  -5  -5    8.53    0.46 
  -9  -5   5    8.33    0.50 
   9   5  -5    9.35    0.46 
  -9   5   5    9.09    0.49 
  -8  -5   5    4.09    0.35 
   8  -5  -5    3.79    0.33 
  -8   5   5    4.67    0.33 
   8   5  -5    5.13    0.32 
  -7  -5   5    5.22    0.36 
   7  -5  -5    4.61    0.33 
   7   5  -5    5.58    0.32 
  -7   5   5    4.75    0.35 
   6  -5  -5   -0.17    0.11 
  -6  -5   5    0.28    0.15 
   6   5  -5    0.16    0.11 
  -6   5   5   -0.15    0.12 
  -5  -5   5    5.34    0.33 
   5  -5  -5    5.30    0.32 
   5   5  -5    6.07    0.31 
   5   5  -5    6.45    0.32 
  -5   5   5    5.47    0.31 
  -5   5   5    6.10    0.34 
   4  -5  -5   23.95    0.98 
  -4  -5   5   26.78    1.02 
  -4   5   5   24.83    1.02 
   4   5  -5   25.04    0.98 
  -4   5   5   25.41    1.10 
   4   5  -5   26.35    1.11 
   3  -5  -5   14.89    0.62 
  -3  -5   5   15.68    0.64 
  -3  -5   5   14.85    0.62 
  -3   5   5   15.83    0.64 
  -3   5   5   15.52    0.71 
   3   5  -5   15.91    0.73 
  -2  -5   5    8.69    0.38 
   2  -5  -5    8.91    0.38 
  -2  -5   5    8.88    0.37 
  -2   5   5    9.36    0.46 
  -2   5   5    8.02    0.38 
   2   5  -5    9.46    0.50 
  -1  -5   5   62.07    2.34 
   1  -5  -5   63.18    2.36 
  -1  -5   5   63.46    2.24 
   1   5  -5   59.24    2.67 
  -1   5   5   63.86    2.64 
   0  -5   5    0.08    0.05 
   0  -5   5    0.10    0.05 
   0  -5  -5    0.21    0.08 
   0   5   5    0.03    0.13 
   0   5  -5    0.10    0.14 
   0   5   5    0.15    0.04 
   1  -5   5   25.71    0.95 
   1  -5   5   26.21    0.99 
  -1  -5  -5   24.83    1.00 
   1   5   5   27.08    0.94 
   1   5   5   26.27    1.20 
  -1   5  -5   25.17    1.20 
   2  -5   5    7.25    0.30 
   2  -5   5    7.00    0.31 
  -2  -5  -5    7.44    0.32 
   2   5   5    6.59    0.45 
  -2   5  -5    7.14    0.44 
   2   5   5    7.19    0.29 
   3  -5   5   49.28    1.79 
  -3  -5  -5   46.53    1.80 
   3  -5   5   47.75    1.72 
   3   5   5   48.40    1.71 
   3   5   5   44.18    2.07 
  -3   5  -5   47.82    2.05 
  -4  -5  -5    0.41    0.10 
   4  -5   5    0.34    0.10 
   4   5   5    0.37    0.08 
   4   5   5    0.47    0.16 
  -4   5  -5    0.49    0.15 
  -4   5  -5    0.34    0.07 
   5  -5   5   21.31    0.82 
  -5  -5  -5   21.27    0.85 
   5   5   5   20.59    0.80 
  -5   5  -5   21.41    0.83 
  -5   5  -5   20.20    0.96 
   5   5   5   21.34    1.00 
   6  -5   5    0.25    0.12 
  -6  -5  -5    0.23    0.12 
  -6   5  -5    0.14    0.12 
   6   5   5    0.44    0.15 
  -6   5  -5    0.34    0.09 
   6   5   5    0.16    0.09 
   7  -5   5    0.09    0.13 
  -7  -5  -5    0.29    0.14 
  -7  -5  -5    0.02    0.15 
   7   5   5    0.37    0.11 
  -7   5  -5    0.11    0.13 
  -8  -5  -5    0.81    0.16 
   8  -5   5    0.45    0.15 
   8   5   5    0.49    0.13 
  -9  -5  -5    1.81    0.22 
   9  -5   5    1.77    0.20 
   9   5   5    1.62    0.19 
   9  -6  -5    0.01    0.16 
  -9  -6   5   -0.05    0.17 
   9   6  -5    0.28    0.13 
  -9   6   5    0.17    0.16 
   8  -6  -5    2.34    0.24 
  -8  -6   5    2.20    0.25 
  -8   6   5    2.30    0.25 
   8   6  -5    2.73    0.23 
  -7  -6   5    3.74    0.29 
   7  -6  -5    3.29    0.29 
  -7   6   5    3.57    0.29 
   7   6  -5    3.99    0.27 
  -6  -6   5   32.17    1.31 
   6  -6  -5   31.89    1.25 
  -6   6   5   32.86    1.31 
   6   6  -5   32.81    1.25 
   5  -6  -5   12.75    0.55 
  -5  -6   5   12.88    0.57 
  -5   6   5   12.53    0.59 
   5   6  -5   12.95    0.55 
   5   6  -5   12.49    0.60 
  -5   6   5   12.56    0.57 
   4  -6  -5   10.52    0.45 
  -4  -6   5   10.53    0.47 
   4   6  -5   10.45    0.52 
  -4   6   5   10.47    0.51 
   4   6  -5   10.66    0.46 
  -4   6   5    9.93    0.48 
  -3  -6   5    4.99    0.26 
   3  -6  -5    4.75    0.24 
  -3   6   5    4.21    0.26 
   3   6  -5    4.94    0.32 
  -3   6   5    4.78    0.30 
   3   6  -5    4.38    0.25 
  -2  -6   5   22.10    0.90 
   2  -6  -5   22.76    0.92 
   2  -6  -5   24.27    0.86 
  -2  -6   5   23.76    0.87 
  -2   6   5   22.67    1.04 
   2   6  -5   22.44    1.08 
  -1  -6   5   21.47    0.76 
   1  -6  -5   20.64    0.76 
  -1  -6   5   20.40    0.80 
   1  -6  -5   20.66    0.81 
  -1   6   5   20.64    0.95 
   1   6  -5   18.22    0.98 
   0  -6  -5   20.51    0.81 
   0  -6   5   21.17    0.76 
   0  -6   5   20.15    0.80 
   0   6  -5   19.25    0.99 
   0   6   5   21.74    0.97 
   0   6   5   20.11    0.75 
   1  -6   5    6.27    0.28 
  -1  -6  -5    6.37    0.30 
   1  -6   5    6.07    0.27 
  -1   6  -5    5.97    0.44 
   1   6   5    6.63    0.24 
   1   6   5    5.57    0.41 
   2  -6   5    3.23    0.18 
   2  -6   5    3.12    0.17 
  -2  -6  -5    3.23    0.20 
   2   6   5    3.28    0.15 
   2   6   5    3.21    0.32 
  -2   6  -5    3.08    0.29 
   3  -6   5   13.65    0.55 
  -3  -6  -5   13.81    0.58 
   3  -6   5   14.26    0.56 
   3   6   5   14.43    0.53 
   3   6   5   13.66    0.75 
  -3   6  -5   13.47    0.70 
  -4  -6  -5   15.84    0.65 
   4  -6   5   16.22    0.63 
   4  -6   5   15.01    0.62 
  -4   6  -5   15.75    0.76 
   4   6   5   15.78    0.81 
   4   6   5   15.32    0.60 
  -5  -6  -5    2.50    0.21 
   5  -6   5    2.79    0.21 
  -5   6  -5    3.02    0.18 
   5   6   5    2.71    0.28 
  -5   6  -5    2.57    0.26 
   5   6   5    2.63    0.17 
   6  -6   5    1.07    0.14 
  -6  -6  -5    0.87    0.15 
   6   6   5    1.24    0.19 
   6   6   5    1.27    0.12 
  -6   6  -5    0.85    0.17 
  -7  -6  -5    0.38    0.14 
   7  -6   5    0.01    0.12 
   7   6   5    0.34    0.11 
  -7   6  -5    0.25    0.15 
   8  -6   5    4.73    0.31 
  -8  -6  -5    5.36    0.34 
   9  -7  -5    5.54    0.36 
  -9  -7   5    4.55    0.39 
   9   7  -5    6.06    0.34 
  -9   7   5    4.81    0.38 
   8  -7  -5    5.23    0.35 
  -8  -7   5    4.98    0.38 
   8   7  -5    5.63    0.34 
  -8   7   5    5.24    0.38 
  -7  -7   5   10.32    0.55 
   7  -7  -5   11.84    0.53 
  -7   7   5   10.41    0.55 
   7   7  -5   11.86    0.52 
   6  -7  -5    1.92    0.19 
  -6  -7   5    1.85    0.21 
  -6   7   5    2.27    0.23 
   6   7  -5    2.00    0.19 
   5  -7  -5    1.03    0.14 
  -5  -7   5    1.46    0.17 
   5   7  -5    1.20    0.15 
  -5   7   5    1.04    0.15 
  -5   7   5    1.08    0.17 
   5   7  -5    1.00    0.14 
  -4  -7   5    0.87    0.13 
   4  -7  -5    1.25    0.12 
  -4   7   5    1.14    0.16 
   4   7  -5    1.41    0.14 
  -4   7   5    1.08    0.14 
   4   7  -5    1.19    0.17 
   3  -7  -5    1.36    0.11 
  -3  -7   5    1.18    0.14 
   3   7  -5    1.44    0.14 
  -3   7   5    1.04    0.16 
  -3   7   5    1.18    0.13 
   3   7  -5    1.28    0.19 
   2  -7  -5    4.13    0.24 
  -2  -7   5    4.52    0.23 
  -2  -7   5    3.94    0.22 
   2  -7  -5    4.04    0.19 
  -2   7   5    4.10    0.29 
   2   7  -5    4.25    0.34 
  -1  -7   5    1.10    0.11 
   1  -7  -5    0.91    0.12 
  -1  -7   5    1.20    0.10 
   1   7  -5    1.08    0.21 
  -1   7   5    1.06    0.19 
   0  -7  -5   40.80    1.55 
   0  -7   5   39.80    1.53 
   0  -7   5   42.57    1.46 
   0   7   5   40.97    1.79 
   0   7  -5   36.96    1.80 
   1  -7   5   36.39    1.41 
  -1  -7  -5   36.24    1.42 
   1  -7   5   37.34    1.34 
   1   7   5   37.03    1.67 
  -1   7  -5   37.73    1.67 
   2  -7   5   38.27    1.41 
   2  -7   5   37.16    1.35 
  -2  -7  -5   36.44    1.43 
   2   7   5   36.15    1.69 
  -2   7  -5   36.85    1.65 
   3  -7   5   27.97    1.07 
   3  -7   5   28.21    1.03 
  -3  -7  -5   28.14    1.09 
   3   7   5   26.27    1.31 
  -3   7  -5   27.82    1.27 
   4  -7   5    9.97    0.41 
  -4  -7  -5    9.53    0.44 
   4  -7   5    9.65    0.41 
  -4   7  -5    8.75    0.51 
   4   7   5    9.77    0.58 
   5  -7   5    0.33    0.10 
  -5  -7  -5    0.12    0.11 
   5  -7   5    0.23    0.08 
   5   7   5    0.23    0.17 
  -5   7  -5    0.14    0.13 
  -6  -7  -5    1.31    0.17 
   6  -7   5    1.37    0.15 
   6   7   5    2.09    0.24 
  -6   7  -5    1.31    0.19 
   7  -7   5    0.99    0.15 
  -7  -7  -5    1.00    0.17 
  -8  -7  -5    0.03    0.14 
   8  -7   5    0.14    0.13 
  -8  -8   5    0.18    0.17 
  -8   8   5    0.33    0.18 
  -7  -8   5    3.41    0.31 
  -7   8   5    3.58    0.30 
  -6  -8   5    4.37    0.32 
  -6   8   5    5.09    0.34 
   6   8  -5    5.04    0.31 
  -5  -8   5   16.34    0.72 
   5   8  -5   17.36    0.69 
  -5   8   5   16.81    0.78 
  -5   8   5   17.03    0.73 
   5   8  -5   16.43    0.79 
  -4  -8   5    1.14    0.15 
  -4   8   5    1.30    0.17 
  -4   8   5    1.31    0.16 
   4   8  -5    1.17    0.18 
   4   8  -5    1.22    0.14 
  -3  -8   5   59.66    2.40 
   3  -8  -5   64.69    2.42 
   3   8  -5   66.22    2.31 
  -3   8   5   60.50    2.68 
   3   8  -5   65.30    2.72 
  -2  -8   5    2.34    0.18 
  -2  -8   5    2.48    0.17 
   2  -8  -5    2.44    0.21 
   2   8  -5    2.50    0.29 
  -2   8   5    2.05    0.22 
   1  -8  -5    0.21    0.10 
  -1  -8   5    0.33    0.08 
  -1  -8   5    0.39    0.09 
  -1   8   5    0.31    0.16 
   1   8  -5    0.72    0.21 
   0  -8   5   12.04    0.50 
   0  -8  -5   11.37    0.51 
   0  -8   5   12.89    0.47 
   0   8   5   12.06    0.65 
   0   8  -5   11.83    0.68 
   1  -8   5    0.08    0.08 
   1  -8   5    0.11    0.07 
  -1  -8  -5    0.16    0.10 
   1   8   5    0.23    0.17 
  -1   8  -5    0.02    0.16 
   2  -8   5    0.63    0.10 
   2  -8   5    0.51    0.08 
  -2  -8  -5    0.53    0.11 
   2   8   5    0.45    0.22 
  -2   8  -5    0.31    0.17 
  -3  -8  -5    4.19    0.26 
   3  -8   5    4.43    0.23 
   3  -8   5    4.73    0.24 
   3   8   5    4.31    0.40 
  -3   8  -5    5.01    0.38 
  -4  -8  -5    1.67    0.16 
   4  -8   5    1.27    0.12 
   4  -8   5    1.18    0.12 
  -4   8  -5    1.28    0.21 
   4   8   5    1.70    0.27 
  -5  -8  -5    8.43    0.42 
   5  -8   5    8.36    0.38 
   5  -8   5    9.26    0.41 
  -5   8  -5    7.96    0.49 
   5   8   5    9.55    0.54 
  -6  -8  -5    0.99    0.16 
   6  -8   5    1.03    0.14 
  -6   8  -5    1.08    0.18 
   6   8   5    1.02    0.21 
  -7  -8  -5   16.36    0.70 
   7  -8   5   14.80    0.64 
  -8  -9   5    2.31    0.24 
  -8   9   5    2.62    0.28 
  -7  -9   5    1.35    0.21 
  -7   9   5    1.43    0.21 
  -6  -9   5    2.35    0.24 
  -6   9   5    2.73    0.25 
  -5  -9   5    3.51    0.25 
   5   9  -5    3.33    0.28 
  -5   9   5    3.59    0.28 
  -5   9   5    3.49    0.28 
  -4  -9   5    0.04    0.10 
   4  -9  -5    0.26    0.13 
  -4   9   5    0.20    0.13 
   4   9  -5    0.07    0.13 
   3  -9  -5    0.15    0.13 
  -3  -9   5    0.14    0.11 
   3   9  -5    0.13    0.16 
  -3   9   5    0.28    0.15 
  -2  -9   5   17.48    0.72 
   2  -9  -5   18.88    0.74 
  -2   9   5   16.86    0.84 
   2   9  -5   17.10    0.91 
  -1  -9   5    1.58    0.14 
   1  -9  -5    1.61    0.16 
   1   9  -5    1.72    0.28 
  -1   9   5    1.49    0.22 
   0  -9   5   26.29    1.00 
   0  -9  -5   25.30    1.02 
   0   9  -5   23.95    1.23 
   0   9   5   26.73    1.22 
   1  -9   5    1.18    0.12 
  -1  -9  -5    1.24    0.14 
  -1   9  -5    1.01    0.24 
   1   9   5    0.64    0.21 
   2  -9   5    8.59    0.40 
  -2  -9  -5    9.21    0.42 
  -2   9  -5    9.78    0.57 
   2   9   5    8.37    0.58 
  -3  -9  -5    0.64    0.13 
   3  -9   5    0.48    0.10 
   3  -9   5    0.58    0.10 
  -3   9  -5    0.76    0.20 
   3   9   5    0.39    0.21 
   4  -9   5   14.91    0.58 
   4  -9   5   14.31    0.60 
  -4  -9  -5   14.34    0.62 
   4   9   5   14.56    0.80 
  -4   9  -5   15.02    0.75 
  -5  -9  -5    0.55    0.14 
   5  -9   5    0.57    0.11 
  -5   9  -5    0.43    0.16 
   5   9   5    0.45    0.20 
  -6  -9  -5    2.44    0.22 
   6  -9   5    2.29    0.20 
  -6   9  -5    2.53    0.25 
   6   9   5    3.04    0.30 
   7  -9   5    0.27    0.12 
  -7  -9  -5    0.08    0.14 
  -7 -10   5    1.33    0.21 
  -7  10   5    1.63    0.22 
  -6 -10   5    3.84    0.30 
   6 -10  -5    3.22    0.26 
   5 -10  -5   11.92    0.56 
  -5 -10   5   12.71    0.56 
  -5  10   5   12.06    0.61 
   5  10  -5   11.94    0.63 
   4 -10  -5    0.26    0.13 
  -4 -10   5    0.39    0.14 
   4  10  -5    0.50    0.16 
  -4  10   5    0.62    0.16 
  -3 -10   5   16.10    0.68 
   3 -10  -5   16.81    0.71 
  -3  10   5   15.60    0.79 
   3  10  -5   16.31    0.83 
   2 -10  -5    1.00    0.15 
  -2 -10   5    1.26    0.15 
  -2  10   5    0.77    0.17 
   2  10  -5    1.25    0.23 
  -1 -10   5   10.41    0.46 
   1 -10  -5   10.35    0.48 
  -1  10   5   10.31    0.60 
   1  10  -5   10.16    0.66 
   0 -10  -5    8.77    0.42 
   0 -10   5    9.49    0.41 
   0  10  -5    8.00    0.57 
   0  10   5    8.90    0.55 
  -1 -10  -5    0.42    0.12 
   1 -10   5    0.47    0.11 
   1  10   5    0.33    0.20 
  -1  10  -5    0.41    0.22 
  -2 -10  -5    0.12    0.12 
   2 -10   5    0.33    0.10 
   2  10   5    0.33    0.24 
  -2  10  -5    0.17    0.17 
   3 -10   5    2.65    0.19 
  -3 -10  -5    2.52    0.22 
  -3  10  -5    2.43    0.29 
   3  10   5    2.40    0.32 
  -4 -10  -5    3.99    0.27 
   4 -10   5    4.20    0.25 
   4  10   5    4.60    0.44 
  -4  10  -5    3.73    0.35 
  -5 -10  -5    4.42    0.30 
   5  10   5    5.41    0.43 
  -5  10  -5    4.56    0.36 
  -6 -10  -5    0.60    0.16 
   6  10   5    0.78    0.21 
  -6  10  -5    0.76    0.18 
   6 -11  -5    1.55    0.20 
  -6 -11   5    1.24    0.20 
   5 -11  -5    0.18    0.15 
  -5 -11   5    0.05    0.14 
  -5  11   5    0.00    0.13 
   5  11  -5    0.02    0.13 
   4 -11  -5    1.25    0.17 
  -4 -11   5    1.26    0.17 
  -4  11   5    1.40    0.21 
   4  11  -5    1.69    0.23 
   3 -11  -5    0.57    0.16 
  -3 -11   5    0.45    0.13 
   3  11  -5    0.65    0.20 
  -3  11   5    0.64    0.18 
   2 -11  -5    0.09    0.13 
  -2 -11   5   -0.03    0.11 
  -2  11   5    0.29    0.18 
   2  11  -5    0.05    0.17 
  -1 -11   5    2.20    0.18 
   1 -11  -5    1.68    0.18 
  -1  11   5    1.64    0.24 
   1  11  -5    1.81    0.31 
   0 -11   5   10.08    0.45 
   0 -11  -5   10.18    0.47 
   0  11  -5    9.18    0.63 
   0  11   5   10.24    0.63 
   1 -11   5   13.30    0.56 
  -1 -11  -5   12.70    0.58 
   1  11   5   13.35    0.78 
  -1  11  -5   13.44    0.76 
  -2 -11  -5   17.78    0.76 
   2 -11   5   18.51    0.75 
  -2  11  -5   18.64    0.95 
   2  11   5   18.38    1.00 
  -3 -11  -5    3.61    0.27 
   3 -11   5    3.93    0.24 
   3  11   5    3.42    0.41 
  -3  11  -5    3.91    0.38 
  -4 -11  -5    0.79    0.16 
   4  11   5    0.74    0.25 
  -4  11  -5    0.59    0.20 
  -5 -11  -5    1.72    0.19 
  -5  11  -5    1.91    0.24 
   5  11   5    1.80    0.28 
   5 -12  -5    2.63    0.24 
  -5 -12   5    2.65    0.24 
  -5  12   5    3.03    0.27 
   5  12  -5    2.39    0.26 
   4 -12  -5    8.07    0.43 
  -4 -12   5    8.43    0.42 
  -4  12   5    7.78    0.48 
   4  12  -5    7.85    0.50 
   3 -12  -5    1.06    0.18 
  -3 -12   5    0.73    0.15 
  -3  12   5    1.16    0.21 
   3  12  -5    1.05    0.23 
  -2 -12   5    3.64    0.26 
   2 -12  -5    3.89    0.29 
   2  12  -5    3.09    0.36 
  -2  12   5    3.70    0.35 
  -1 -12   5    1.50    0.17 
   1 -12  -5    1.81    0.20 
  -1  12   5    1.52    0.24 
   1  12  -5    2.33    0.34 
   0 -12   5    0.02    0.11 
   0 -12  -5    0.10    0.13 
   0  12  -5    0.05    0.20 
   0  12   5    0.23    0.22 
  -1 -12  -5    1.61    0.18 
   1 -12   5    1.80    0.17 
  -1  12  -5    1.53    0.28 
   1  12   5    1.39    0.28 
  -2 -12  -5    0.31    0.13 
   2 -12   5    0.36    0.12 
  -2  12  -5    0.54    0.21 
   2  12   5    0.06    0.24 
  -3 -12  -5    1.21    0.18 
   3  12   5    1.35    0.30 
  -3  12  -5    0.67    0.22 
  -4 -12  -5    0.61    0.16 
  -4  12  -5    0.71    0.21 
   4  12   5    0.38    0.24 
  -3 -13   5    1.64    0.19 
   3 -13  -5    2.16    0.22 
   3  13  -5    1.93    0.28 
  -3  13   5    1.33    0.22 
  -2 -13   5    0.51    0.14 
   2 -13  -5    0.40    0.16 
  -2  13   5    0.24    0.16 
   2  13  -5    0.42    0.21 
  -1 -13   5   10.37    0.48 
   1 -13  -5   10.90    0.51 
   1  13  -5   10.31    0.67 
  -1  13   5    9.84    0.63 
   0 -13   5    0.01    0.12 
   0 -13  -5    0.09    0.12 
   0  13   5    0.03    0.22 
   0  13  -5    0.15    0.23 
  -1 -13  -5    2.04    0.20 
   1 -13   5    2.24    0.19 
  -1  13  -5    2.18    0.32 
   1  13   5    2.17    0.34 
   2 -13   5    0.06    0.12 
  -2 -13  -5   -0.05    0.13 
  -2  13  -5   -0.17    0.20 
   2  13   5   -0.03    0.22 
  10   0  -6    6.65    0.40 
 -10   0   6    7.14    0.39 
   9   0  -6    0.09    0.12 
  -9   0   6    0.24    0.14 
   8   0  -6    4.89    0.30 
  -8   0   6    4.94    0.31 
   7   0  -6    0.22    0.11 
  -7   0   6    0.21    0.13 
   6   0  -6   -0.03    0.10 
  -6   0   6    0.21    0.12 
   5   0  -6   -0.15    0.11 
  -5   0   6    0.23    0.11 
   4   0  -6   56.79    2.36 
   4   0  -6   54.39    2.11 
  -4   0   6   60.88    2.21 
  -3   0   6    0.13    0.09 
   3   0  -6    0.11    0.07 
  -3   0   6    0.08    0.08 
  -2   0   6    8.65    0.36 
   2   0  -6    8.81    0.43 
  -2   0   6    8.23    0.37 
   1   0  -6    0.04    0.10 
  -1   0   6   -0.05    0.05 
  -1   0   6   -0.04    0.04 
   0   0  -6   26.15    1.27 
   0   0   6   31.69    1.07 
   0   0   6   27.03    1.04 
   1   0   6   -0.04    0.05 
  -1   0  -6   -0.14    0.12 
  -2   0  -6  281.15   11.68 
  -2   0  -6  318.72   12.95 
   2   0   6  345.33   11.15 
   3   0   6    0.03    0.07 
  -3   0  -6    0.04    0.14 
  -3   0  -6    0.03    0.06 
  -4   0  -6   12.88    0.55 
   4   0   6   13.36    0.54 
  -4   0  -6   13.15    0.67 
  -5   0  -6   -0.06    0.08 
   5   0   6   -0.16    0.10 
  -5   0  -6    0.04    0.13 
  -6   0  -6    8.44    0.40 
   6   0   6    8.28    0.40 
  -6   0  -6    8.50    0.47 
  -7   0  -6   -0.06    0.13 
   7   0   6   -0.17    0.11 
   8   0   6    1.49    0.18 
   9   0   6   -0.37    0.14 
 -10  -1   6    0.42    0.15 
  10  -1  -6    0.63    0.16 
 -10   1   6    0.37    0.15 
  10   1  -6    0.51    0.14 
   9  -1  -6    4.05    0.29 
  -9  -1   6    4.11    0.30 
   9   1  -6    4.62    0.31 
  -9   1   6    4.14    0.30 
  -8  -1   6    8.91    0.46 
   8  -1  -6    8.34    0.45 
  -8   1   6    9.67    0.46 
   8   1  -6    9.51    0.46 
   7  -1  -6   34.31    1.35 
  -7  -1   6   35.65    1.40 
  -7   1   6   35.88    1.40 
   7   1  -6   34.88    1.35 
  -6  -1   6    0.11    0.12 
   6  -1  -6    0.14    0.11 
  -6   1   6    0.14    0.12 
   6   1  -6    0.36    0.13 
  -5  -1   6   74.21    2.82 
   5  -1  -6   72.97    2.69 
  -5   1   6   76.08    2.82 
   5   1  -6   71.50    2.69 
  -4  -1   6    6.37    0.33 
   4  -1  -6    6.12    0.32 
   4  -1  -6    6.24    0.29 
   4   1  -6    5.86    0.32 
  -4   1   6    5.97    0.33 
   4   1  -6    6.04    0.29 
  -3  -1   6   29.54    1.13 
   3  -1  -6   31.00    1.28 
  -3  -1   6   29.91    1.18 
  -3   1   6   27.76    1.17 
   3   1  -6   31.68    1.28 
  -3   1   6   29.45    1.13 
  -2  -1   6   17.77    0.67 
  -2  -1   6   17.84    0.71 
  -2   1   6   17.22    0.67 
   2   1  -6   17.86    0.80 
  -2   1   6   17.23    0.77 
  -2   1   6   16.70    0.69 
  -1  -1   6    0.24    0.06 
  -1  -1   6    0.38    0.06 
  -1   1   6    0.32    0.05 
  -1   1   6    0.33    0.10 
  -1   1   6    0.44    0.07 
   1   1  -6    0.38    0.11 
   0  -1   6   17.28    0.64 
   0  -1  -6   17.52    0.64 
   0  -1   6   16.74    0.63 
   0   1   6   16.79    0.63 
   0   1  -6   15.87    0.81 
   0   1   6   16.97    0.79 
  -1  -1  -6   15.19    0.57 
   1  -1   6   15.26    0.57 
   1   1   6   15.58    0.57 
   1   1   6   13.75    0.72 
  -1   1  -6   14.22    0.74 
   2  -1   6   39.13    1.42 
  -2  -1  -6   40.57    1.47 
  -2  -1  -6   37.56    1.72 
   2   1   6   39.98    1.42 
  -2   1  -6   37.13    1.72 
  -3  -1  -6   29.36    1.14 
   3  -1   6   28.84    1.10 
  -3  -1  -6   28.68    1.34 
  -3   1  -6   28.93    1.33 
   3   1   6   30.13    1.09 
  -3   1  -6   31.05    1.12 
   4  -1   6    1.17    0.12 
  -4  -1  -6    1.00    0.20 
  -4  -1  -6    1.32    0.13 
  -4   1  -6    1.25    0.19 
   4   1   6    1.38    0.13 
  -4   1  -6    1.37    0.11 
  -5  -1  -6   28.50    1.17 
   5  -1   6   30.45    1.12 
  -5  -1  -6   29.10    1.33 
  -5   1  -6   30.08    1.33 
  -5   1  -6   30.28    1.15 
   5   1   6   29.72    1.12 
   6  -1   6    2.06    0.18 
  -6  -1  -6    2.12    0.18 
  -6  -1  -6    1.74    0.21 
  -6   1  -6    1.82    0.21 
   6   1   6    1.53    0.16 
  -6   1  -6    1.90    0.16 
   7  -1   6    8.38    0.41 
  -7  -1  -6    9.19    0.43 
  -7  -1  -6    9.33    0.49 
   7   1   6    8.47    0.42 
  -7   1  -6    8.84    0.49 
   8  -1   6    0.67    0.15 
   8   1   6    0.61    0.15 
   9  -1   6    2.83    0.25 
   9   1   6    2.85    0.25 
 -10  -2   6    4.85    0.33 
  10  -2  -6    3.60    0.32 
  10   2  -6    4.59    0.32 
 -10   2   6    4.75    0.32 
  -9  -2   6    1.46    0.19 
   9  -2  -6    0.92    0.17 
   9   2  -6    1.14    0.17 
  -9   2   6    1.35    0.18 
  -8  -2   6    1.53    0.20 
   8  -2  -6    1.61    0.20 
  -8   2   6    1.61    0.19 
   8   2  -6    1.60    0.19 
  -7  -2   6    2.64    0.24 
   7  -2  -6    3.28    0.26 
  -7   2   6    2.24    0.22 
   7   2  -6    2.57    0.22 
  -6  -2   6    0.70    0.15 
   6  -2  -6    0.46    0.13 
   6   2  -6    0.77    0.14 
  -6   2   6    0.88    0.16 
  -5  -2   6    0.71    0.13 
   5  -2  -6    0.87    0.13 
  -5   2   6    0.74    0.14 
   5   2  -6    0.98    0.14 
  -4  -2   6    9.97    0.46 
   4  -2  -6   10.03    0.45 
  -4   2   6   10.50    0.45 
   4   2  -6    9.64    0.44 
  -4   2   6    9.15    0.46 
   4   2  -6    9.05    0.45 
  -3  -2   6    8.78    0.42 
   3  -2  -6    8.65    0.41 
  -3  -2   6    9.65    0.42 
  -3   2   6    9.60    0.42 
  -3   2   6    9.60    0.44 
   3   2  -6   10.11    0.46 
  -2  -2   6   61.59    2.42 
  -2  -2   6   62.60    2.30 
  -2   2   6   63.45    2.40 
  -2   2   6   64.58    2.30 
   2   2  -6   67.32    2.69 
  -2   2   6   63.53    2.66 
  -1  -2   6   91.69    3.28 
  -1  -2   6   91.46    3.44 
  -1   2   6   92.11    3.27 
   1   2  -6   91.79    3.84 
  -1   2   6   92.56    3.43 
  -1   2   6   91.26    3.82 
   0  -2  -6   78.08    2.87 
   0  -2   6   80.37    2.87 
   0  -2   6   77.03    2.75 
   0   2  -6   71.12    3.25 
   0   2   6   77.64    2.75 
   1  -2   6   23.45    0.84 
  -1  -2  -6   23.01    0.86 
   1   2   6   22.45    0.83 
  -1   2  -6   21.81    1.05 
   1   2   6   21.08    1.03 
  -2  -2  -6    7.76    0.31 
   2  -2   6    8.20    0.29 
   2  -2   6    7.18    0.32 
   2   2   6    7.19    0.31 
  -2   2  -6    7.10    0.45 
   3  -2   6    0.80    0.11 
  -3  -2  -6    0.90    0.08 
  -3   2  -6    0.46    0.15 
   3   2   6    0.71    0.16 
   3   2   6    0.60    0.08 
  -3   2  -6    0.69    0.06 
  -4  -2  -6    0.64    0.09 
  -4  -2  -6    0.69    0.18 
   4  -2   6    0.56    0.10 
  -4   2  -6    0.61    0.07 
   4   2   6    0.65    0.10 
  -4   2  -6    0.61    0.15 
   5  -2   6   14.11    0.57 
  -5  -2  -6   12.64    0.58 
  -5  -2  -6   14.92    0.71 
   5   2   6   13.41    0.55 
  -5   2  -6   13.96    0.55 
  -5   2  -6   13.66    0.68 
  -6  -2  -6    0.72    0.13 
   6  -2   6    0.01    0.12 
  -6  -2  -6    0.32    0.15 
  -6   2  -6    0.27    0.15 
   6   2   6    0.15    0.11 
  -7  -2  -6    0.83    0.17 
   7  -2   6    0.50    0.15 
  -7  -2  -6    0.73    0.13 
  -7   2  -6    0.87    0.16 
   7   2   6    0.51    0.12 
   8  -2   6    1.70    0.19 
   8   2   6    1.58    0.17 
   9  -2   6    7.96    0.42 
   9   2   6    7.82    0.41 
  10  -3  -6    1.23    0.18 
 -10  -3   6    1.20    0.20 
 -10   3   6    1.47    0.18 
  10   3  -6    1.63    0.19 
   9  -3  -6    5.55    0.37 
  -9  -3   6    5.79    0.38 
  -9   3   6    6.74    0.37 
   9   3  -6    5.45    0.33 
   8  -3  -6    9.75    0.49 
  -8  -3   6    9.33    0.50 
   8   3  -6    9.73    0.47 
  -8   3   6   10.66    0.51 
   7  -3  -6    6.39    0.36 
  -7  -3   6    6.18    0.36 
   7   3  -6    5.81    0.33 
  -7   3   6    6.37    0.38 
   6  -3  -6   54.41    2.00 
  -6  -3   6   50.31    2.10 
   6   3  -6   55.76    2.00 
  -6   3   6   54.92    2.10 
   5  -3  -6    1.42    0.16 
  -5  -3   6    1.45    0.18 
  -5   3   6    1.89    0.20 
   5   3  -6    1.54    0.17 
  -5   3   6    1.81    0.13 
   5   3  -6    1.64    0.13 
  -4  -3   6   44.73    1.76 
   4  -3  -6   47.62    1.69 
   4   3  -6   46.84    1.90 
  -4   3   6   45.16    1.76 
  -4   3   6   46.31    1.90 
   4   3  -6   41.86    1.69 
  -3  -3   6   26.46    1.01 
  -3  -3   6   26.45    1.05 
   3  -3  -6   25.62    1.01 
  -3   3   6   25.95    1.04 
   3   3  -6   27.40    1.15 
  -3   3   6   26.93    1.14 
  -2  -3   6    5.64    0.27 
  -2  -3   6    5.54    0.26 
  -2   3   6    5.59    0.31 
   2   3  -6    5.96    0.35 
  -2   3   6    5.83    0.26 
  -2   3   6    5.34    0.26 
  -1  -3   6   20.23    0.77 
  -1  -3   6   19.85    0.74 
  -1   3   6   19.50    0.77 
  -1   3   6   19.18    0.74 
   1   3  -6   19.17    0.92 
  -1   3   6   21.11    0.90 
   0  -3   6    2.57    0.15 
   0  -3  -6    2.22    0.14 
   0  -3   6    2.73    0.12 
   0   3   6    2.39    0.13 
   0   3   6    2.93    0.24 
   0   3  -6    2.26    0.25 
   1  -3   6   38.90    1.39 
   1  -3   6   38.24    1.35 
  -1  -3  -6   37.15    1.41 
   1   3   6   37.56    1.34 
  -1   3  -6   33.89    1.64 
   1   3   6   36.31    1.64 
  -2  -3  -6    6.59    0.28 
   2  -3   6    6.90    0.26 
   2  -3   6    6.48    0.29 
   2   3   6    6.30    0.44 
  -2   3  -6    6.33    0.44 
   2   3   6    6.53    0.28 
   3  -3   6    0.39    0.09 
  -3  -3  -6    0.44    0.08 
   3   3   6    0.30    0.17 
   3   3   6    0.37    0.07 
  -3   3  -6    0.54    0.06 
  -3   3  -6    0.38    0.17 
  -4  -3  -6   29.13    1.16 
   4  -3   6   29.08    1.12 
   4   3   6   30.25    1.36 
   4   3   6   30.42    1.11 
  -4   3  -6   29.53    1.34 
  -4   3  -6   30.80    1.13 
   5  -3   6    5.89    0.31 
  -5  -3  -6    5.93    0.41 
  -5  -3  -6    6.31    0.31 
  -5   3  -6    6.51    0.27 
  -5   3  -6    6.06    0.39 
   5   3   6    6.03    0.29 
  -6  -3  -6   16.22    0.71 
   6  -3   6   16.59    0.68 
  -6  -3  -6   17.75    0.82 
  -6   3  -6   16.25    0.80 
   6   3   6   16.75    0.67 
  -7  -3  -6    9.39    0.47 
  -7  -3  -6    9.87    0.52 
   7  -3   6    9.05    0.44 
   7   3   6    9.43    0.43 
  -7   3  -6   10.08    0.52 
   8  -3   6    5.05    0.32 
   8   3   6    4.61    0.30 
   9  -3   6   -0.07    0.13 
   9   3   6    0.04    0.14 
 -10  -4   6    1.68    0.22 
  10  -4  -6    1.67    0.21 
 -10   4   6    2.31    0.23 
  10   4  -6    2.01    0.21 
   9  -4  -6    1.14    0.19 
  -9  -4   6    0.77    0.19 
  -9   4   6    1.17    0.19 
   9   4  -6    1.14    0.17 
   8  -4  -6    0.28    0.15 
  -8  -4   6    0.35    0.17 
   8   4  -6    0.41    0.13 
  -8   4   6    0.21    0.15 
   7  -4  -6    5.88    0.34 
  -7  -4   6    5.80    0.36 
  -7   4   6    6.19    0.38 
   7   4  -6    6.01    0.33 
  -6  -4   6    0.14    0.13 
   6  -4  -6    0.25    0.13 
  -6   4   6    0.19    0.13 
   6   4  -6    0.38    0.11 
  -5  -4   6    4.77    0.29 
   5  -4  -6    3.83    0.26 
   5   4  -6    4.24    0.26 
  -5   4   6    3.87    0.27 
   5   4  -6    4.29    0.24 
  -5   4   6    4.51    0.24 
   4  -4  -6    1.09    0.14 
  -4  -4   6    0.91    0.14 
   4   4  -6    0.76    0.11 
   4   4  -6    0.73    0.12 
  -4   4   6    0.80    0.14 
  -4   4   6    0.96    0.12 
   3  -4  -6   53.61    1.99 
  -3  -4   6   55.05    2.07 
  -3  -4   6   53.11    1.98 
  -3   4   6   54.66    2.07 
   3   4  -6   54.84    2.29 
  -3   4   6   53.69    2.27 
  -2  -4   6   12.83    0.50 
  -2  -4   6   13.18    0.52 
  -2   4   6   11.87    0.51 
   2   4  -6   12.88    0.63 
  -2   4   6   12.73    0.52 
  -2   4   6   12.55    0.60 
   1  -4  -6   52.49    1.97 
  -1  -4   6   50.79    1.87 
  -1  -4   6   53.03    1.95 
   1   4  -6   52.38    2.24 
  -1   4   6   50.69    1.87 
  -1   4   6   52.04    2.21 
   0  -4   6    1.94    0.13 
   0  -4   6    2.14    0.12 
   0  -4  -6    2.04    0.14 
   0   4  -6    2.14    0.26 
   0   4   6    1.78    0.21 
   0   4   6    2.06    0.12 
   1  -4   6   63.86    2.35 
  -1  -4  -6   64.65    2.37 
   1  -4   6   63.40    2.26 
  -1   4  -6   58.06    2.70 
   1   4   6   64.88    2.25 
   1   4   6   62.36    2.70 
   2  -4   6    0.25    0.05 
   2  -4   6    0.24    0.08 
  -2  -4  -6    0.29    0.07 
   2   4   6    0.23    0.15 
   2   4   6    0.26    0.06 
  -2   4  -6    0.04    0.14 
   3  -4   6   60.10    2.18 
   3  -4   6   63.40    2.25 
  -3  -4  -6   60.42    2.27 
   3   4   6   59.76    2.16 
  -3   4  -6   59.77    2.58 
   3   4   6   57.23    2.60 
  -4  -4  -6    0.16    0.08 
   4  -4   6    0.02    0.09 
  -4   4  -6    0.02    0.05 
  -4   4  -6   -0.01    0.12 
   4   4   6   -0.04    0.07 
   4   4   6   -0.03    0.14 
   5  -4   6    0.46    0.12 
  -5  -4  -6    0.52    0.11 
   5   4   6    0.37    0.09 
   5   4   6    0.27    0.14 
  -5   4  -6    0.47    0.15 
  -6  -4  -6    0.40    0.12 
  -6  -4  -6    0.43    0.17 
   6  -4   6    0.27    0.13 
   6   4   6    0.21    0.10 
  -6   4  -6    0.41    0.14 
  -7  -4  -6    1.84    0.19 
  -7  -4  -6    2.00    0.23 
   7  -4   6    1.74    0.18 
  -7   4  -6    1.70    0.20 
   7   4   6    1.46    0.16 
   8  -4   6    0.07    0.14 
   8   4   6    0.00    0.12 
   9  -4   6    1.47    0.19 
   9   4   6    2.02    0.20 
   9  -5  -6    2.73    0.26 
  -9  -5   6    2.96    0.29 
  -9   5   6    3.00    0.27 
   9   5  -6    2.57    0.23 
   8  -5  -6    6.56    0.39 
  -8  -5   6    6.40    0.42 
  -8   5   6    6.94    0.42 
   8   5  -6    6.91    0.36 
   7  -5  -6    1.98    0.21 
  -7  -5   6    1.20    0.19 
   7   5  -6    2.00    0.19 
  -7   5   6    1.66    0.22 
   6  -5  -6   37.42    1.41 
  -6  -5   6   37.02    1.49 
  -6   5   6   37.11    1.49 
   6   5  -6   36.67    1.40 
   5  -5  -6    1.02    0.15 
  -5  -5   6    0.87    0.15 
  -5   5   6    0.94    0.12 
  -5   5   6    0.79    0.14 
   5   5  -6    0.93    0.13 
   5   5  -6    1.07    0.12 
   4  -5  -6   22.76    0.88 
  -4  -5   6   23.00    0.91 
   4   5  -6   22.72    0.99 
  -4   5   6   22.62    0.99 
  -4   5   6   22.56    0.91 
   4   5  -6   21.06    0.88 
  -3  -5   6    2.20    0.17 
  -3  -5   6    1.98    0.17 
   3  -5  -6    2.06    0.17 
  -3   5   6    1.99    0.18 
   3   5  -6    1.99    0.20 
  -3   5   6    2.04    0.19 
  -2  -5   6    3.23    0.18 
  -2  -5   6    3.17    0.18 
   2  -5  -6    3.13    0.20 
  -2   5   6    3.02    0.25 
  -2   5   6    3.05    0.19 
   2   5  -6    3.33    0.29 
  -1  -5   6    3.02    0.16 
  -1  -5   6    2.86    0.16 
   1  -5  -6    2.74    0.18 
  -1   5   6    2.78    0.16 
   1   5  -6    2.93    0.28 
  -1   5   6    2.60    0.24 
   0  -5   6    2.43    0.15 
   0  -5   6    2.47    0.14 
   0  -5  -6    2.54    0.16 
   0   5   6    2.28    0.24 
   0   5   6    2.55    0.13 
   0   5  -6    2.40    0.27 
   1  -5   6   12.06    0.48 
   1  -5   6   12.75    0.49 
  -1  -5  -6   12.35    0.51 
  -1   5  -6   11.36    0.66 
   1   5   6   12.82    0.47 
   1   5   6   12.26    0.67 
   2  -5   6    9.70    0.39 
   2  -5   6    9.76    0.40 
  -2  -5  -6   10.08    0.42 
   2   5   6    9.74    0.38 
   2   5   6    8.95    0.57 
  -2   5  -6   10.56    0.57 
   3  -5   6    1.57    0.11 
  -3  -5  -6    1.20    0.12 
   3  -5   6    1.52    0.13 
   3   5   6    1.61    0.25 
  -3   5  -6    1.67    0.23 
   3   5   6    1.38    0.12 
  -4  -5  -6   48.72    1.87 
   4  -5   6   49.94    1.79 
   4   5   6   47.81    1.77 
  -4   5  -6   49.00    2.12 
   4   5   6   49.06    2.15 
   5  -5   6    0.26    0.11 
  -5  -5  -6    0.17    0.10 
   5   5   6    0.18    0.08 
   5   5   6    0.27    0.14 
  -5   5  -6    0.19    0.14 
  -6  -5  -6   13.38    0.57 
   6  -5   6   12.59    0.54 
   6   5   6   12.28    0.52 
  -6   5  -6   12.51    0.64 
   6   5   6   12.63    0.66 
  -7  -5  -6    0.10    0.12 
   7  -5   6   -0.12    0.12 
  -7  -5  -6    0.03    0.15 
   7   5   6   -0.04    0.10 
  -7   5  -6    0.20    0.14 
  -8  -5  -6    1.77    0.21 
   8  -5   6    1.62    0.19 
   8   5   6    1.80    0.18 
  -9  -6   6    6.59    0.43 
   9  -6  -6    5.49    0.38 
  -9   6   6    6.78    0.41 
   9   6  -6    5.92    0.35 
  -8  -6   6    1.94    0.23 
   8  -6  -6    2.00    0.22 
   8   6  -6    2.21    0.21 
  -8   6   6    2.45    0.26 
   7  -6  -6    0.02    0.13 
  -7  -6   6   -0.09    0.15 
   7   6  -6    0.16    0.11 
  -7   6   6    0.01    0.14 
   6  -6  -6    3.71    0.27 
  -6  -6   6    3.61    0.28 
  -6   6   6    3.65    0.28 
   6   6  -6    3.79    0.25 
  -5  -6   6    1.35    0.18 
   5  -6  -6    1.20    0.16 
  -5   6   6    1.40    0.17 
  -5   6   6    1.39    0.15 
   5   6  -6    1.76    0.16 
   5   6  -6    1.82    0.17 
  -4  -6   6    0.37    0.11 
   4  -6  -6    0.39    0.11 
   4   6  -6    0.57    0.12 
  -4   6   6    0.44    0.12 
  -4   6   6    0.26    0.12 
   4   6  -6    0.30    0.10 
   3  -6  -6   34.57    1.27 
  -3  -6   6   32.83    1.31 
  -3  -6   6   33.89    1.27 
  -3   6   6   33.36    1.32 
  -3   6   6   33.88    1.47 
   3   6  -6   34.86    1.49 
   2  -6  -6    7.63    0.35 
  -2  -6   6    7.89    0.34 
   2  -6  -6    7.86    0.36 
  -2  -6   6    7.55    0.35 
   2   6  -6    7.91    0.46 
  -2   6   6    7.93    0.43 
   1  -6  -6   61.05    2.28 
  -1  -6   6   61.22    2.16 
  -1  -6   6   58.86    2.26 
   1  -6  -6   60.11    2.17 
  -1   6   6   59.42    2.56 
   1   6  -6   60.09    2.60 
   0  -6   6   35.70    1.28 
   0  -6   6   34.84    1.33 
   0  -6  -6   35.08    1.35 
   0   6   6   34.65    1.26 
   0   6  -6   35.19    1.60 
  -1  -6  -6   23.06    0.92 
   1  -6   6   23.36    0.90 
   1  -6   6   22.95    0.87 
  -1   6  -6   22.64    1.12 
   1   6   6   24.10    0.85 
   1   6   6   23.86    1.11 
   2  -6   6    1.42    0.12 
   2  -6   6    1.31    0.11 
  -2  -6  -6    1.23    0.12 
   2   6   6    1.01    0.22 
  -2   6  -6    1.54    0.23 
   2   6   6    1.28    0.10 
   3  -6   6    0.25    0.09 
  -3  -6  -6    0.13    0.09 
   3  -6   6    0.19    0.07 
   3   6   6    0.13    0.06 
   3   6   6    0.44    0.20 
  -3   6  -6    0.15    0.16 
  -4  -6  -6    3.37    0.22 
   4  -6   6    3.85    0.21 
   4  -6   6    3.78    0.20 
   4   6   6    3.69    0.19 
  -4   6  -6    3.40    0.32 
   4   6   6    4.37    0.35 
   5  -6   6    1.18    0.14 
  -5  -6  -6    0.95    0.14 
  -5   6  -6    0.95    0.17 
   5   6   6    0.78    0.20 
   5   6   6    1.14    0.11 
   6  -6   6    0.74    0.14 
  -6  -6  -6    1.03    0.15 
  -6   6  -6    0.57    0.16 
   6   6   6    0.61    0.17 
   6   6   6    0.72    0.11 
  -7  -6  -6    0.08    0.13 
   7  -6   6    0.11    0.12 
  -7   6  -6    0.16    0.14 
   7   6   6   -0.01    0.10 
  -8  -6  -6    1.47    0.20 
   8  -6   6    1.49    0.18 
   9  -7  -6    3.73    0.31 
  -9  -7   6    3.32    0.31 
  -9   7   6    3.90    0.35 
   9   7  -6    3.92    0.28 
  -8  -7   6   13.15    0.66 
   8  -7  -6   14.00    0.62 
  -8   7   6   13.59    0.67 
   8   7  -6   13.67    0.60 
   7  -7  -6    5.52    0.35 
  -7  -7   6    5.15    0.37 
  -7   7   6    5.49    0.39 
   7   7  -6    5.90    0.33 
   6  -7  -6    2.58    0.22 
  -6  -7   6    2.80    0.24 
  -6   7   6    2.60    0.24 
   6   7  -6    3.01    0.22 
  -5  -7   6   17.93    0.76 
   5  -7  -6   18.41    0.74 
   5   7  -6   18.78    0.73 
   5   7  -6   17.54    0.83 
  -5   7   6   17.90    0.83 
  -5   7   6   18.69    0.79 
   4  -7  -6    0.79    0.12 
  -4  -7   6    0.68    0.13 
  -4   7   6    0.55    0.13 
   4   7  -6    0.92    0.15 
   4   7  -6    0.90    0.12 
  -4   7   6    0.72    0.14 
  -3  -7   6   14.54    0.59 
  -3  -7   6   14.25    0.60 
   3  -7  -6   15.17    0.57 
   3   7  -6   14.29    0.71 
  -3   7   6   13.78    0.61 
  -3   7   6   13.99    0.69 
  -2  -7   6   19.11    0.79 
   2  -7  -6   20.15    0.81 
  -2  -7   6   20.29    0.77 
  -2   7   6   18.86    0.92 
   2   7  -6   21.23    0.97 
  -1  -7   6    0.33    0.07 
  -1  -7   6    0.32    0.08 
   1  -7  -6    0.38    0.10 
   1   7  -6    0.29    0.16 
  -1   7   6    0.36    0.14 
   0  -7   6    0.89    0.09 
   0  -7  -6    0.88    0.12 
   0  -7   6    1.04    0.10 
   0   7  -6    0.76    0.19 
   0   7   6    0.86    0.19 
  -1  -7  -6    0.03    0.08 
   1  -7   6    0.03    0.07 
   1  -7   6    0.04    0.07 
   1   7   6   -0.05    0.15 
  -1   7  -6    0.01    0.17 
   2  -7   6   10.55    0.42 
  -2  -7  -6   10.53    0.45 
   2  -7   6    9.77    0.42 
   2   7   6    9.29    0.60 
  -2   7  -6   10.58    0.61 
   3  -7   6    8.03    0.35 
  -3  -7  -6    7.91    0.37 
   3  -7   6    7.90    0.35 
   3   7   6    7.51    0.54 
  -3   7  -6    8.51    0.51 
   4  -7   6    4.36    0.21 
  -4  -7  -6    3.81    0.24 
   4  -7   6    3.34    0.22 
  -4   7  -6    3.62    0.32 
   4   7   6    3.63    0.36 
  -5  -7  -6   11.09    0.50 
   5  -7   6   11.20    0.47 
   5   7   6   10.65    0.63 
  -5   7  -6   10.88    0.59 
  -6  -7  -6   11.14    0.51 
   6  -7   6   10.64    0.48 
   6   7   6   11.10    0.61 
  -6   7  -6   11.05    0.58 
   7  -7   6   10.38    0.49 
  -7  -7  -6   11.30    0.53 
  -7   7  -6   11.46    0.58 
   7   7   6   10.94    0.63 
   8  -7   6    1.92    0.20 
  -8  -7  -6    1.99    0.22 
  -8  -8   6    3.09    0.30 
  -8   8   6    3.28    0.30 
  -7  -8   6    0.07    0.16 
  -7   8   6   -0.15    0.14 
  -6  -8   6    0.63    0.15 
  -6   8   6    0.58    0.17 
   6   8  -6    0.59    0.13 
  -5  -8   6    0.32    0.12 
  -5   8   6    0.22    0.12 
   5   8  -6    0.13    0.11 
   5   8  -6    0.45    0.12 
  -5   8   6    0.25    0.12 
  -4  -8   6   20.24    0.87 
  -4   8   6   21.64    0.98 
   4   8  -6   21.20    0.99 
  -4   8   6   21.73    0.89 
   4   8  -6   22.50    0.84 
  -3  -8   6    0.28    0.10 
   3  -8  -6    0.34    0.13 
  -3   8   6    0.38    0.14 
   3   8  -6    0.46    0.10 
   3   8  -6    0.39    0.16 
  -2  -8   6   28.45    1.14 
  -2  -8   6   29.60    1.10 
   2  -8  -6   29.48    1.16 
   2   8  -6   30.82    1.37 
  -2   8   6   28.36    1.31 
   1  -8  -6    4.92    0.28 
  -1  -8   6    4.67    0.25 
  -1  -8   6    5.07    0.24 
   1   8  -6    5.56    0.43 
  -1   8   6    4.31    0.34 
   0  -8   6   18.04    0.66 
   0  -8  -6   17.11    0.71 
   0  -8   6   16.65    0.68 
   0   8   6   17.55    0.87 
   0   8  -6   16.55    0.89 
   1  -8   6    5.92    0.26 
   1  -8   6    5.86    0.27 
  -1  -8  -6    5.40    0.29 
   1   8   6    5.54    0.43 
  -1   8  -6    5.42    0.43 
   2  -8   6   28.33    1.10 
  -2  -8  -6   28.17    1.12 
   2  -8   6   28.75    1.05 
  -2   8  -6   29.19    1.34 
   2   8   6   27.46    1.36 
  -3  -8  -6    2.63    0.21 
   3  -8   6    2.89    0.18 
   3  -8   6    2.57    0.18 
  -3   8  -6    2.34    0.28 
   3   8   6    2.85    0.35 
   4  -8   6    0.90    0.12 
  -4  -8  -6    1.01    0.14 
  -4   8  -6    0.78    0.19 
   4   8   6    1.02    0.25 
   5  -8   6   -0.02    0.10 
  -5  -8  -6   -0.17    0.12 
   5   8   6   -0.09    0.18 
  -5   8  -6    0.09    0.15 
  -6  -8  -6    2.50    0.22 
   6  -8   6    2.38    0.20 
  -6   8  -6    2.25    0.24 
   6   8   6    2.67    0.29 
  -7  -8  -6    0.15    0.14 
   7  -8   6   -0.04    0.11 
  -8  -9   6    2.19    0.26 
  -8   9   6    2.00    0.26 
  -7  -9   6    3.02    0.27 
  -7   9   6    2.40    0.25 
  -6  -9   6    2.85    0.25 
  -6   9   6    2.94    0.26 
  -5  -9   6   18.74    0.79 
   5   9  -6   18.09    0.87 
  -5   9   6   19.30    0.81 
  -5   9   6   19.15    0.87 
  -4  -9   6    0.65    0.14 
   4  -9  -6    0.55    0.14 
  -4   9   6    0.56    0.15 
   4   9  -6    0.50    0.15 
   3  -9  -6    9.64    0.45 
  -3  -9   6    8.86    0.42 
   3   9  -6    9.32    0.54 
  -3   9   6    9.03    0.51 
  -2  -9   6    0.72    0.11 
   2  -9  -6    0.76    0.14 
   2   9  -6    1.12    0.23 
  -2   9   6    0.65    0.16 
   1  -9  -6    0.06    0.11 
  -1  -9   6    0.06    0.09 
  -1   9   6   -0.01    0.14 
   1   9  -6   -0.11    0.18 
   0  -9   6    1.28    0.12 
   0  -9  -6    1.30    0.14 
   0   9  -6    1.50    0.28 
   0   9   6    1.31    0.23 
   1  -9   6    0.51    0.10 
  -1  -9  -6    0.49    0.12 
  -1   9  -6    0.64    0.21 
   1   9   6    0.78    0.22 
  -2  -9  -6    0.33    0.12 
   2  -9   6    0.48    0.09 
   2  -9   6    0.50    0.10 
   2   9   6    0.46    0.23 
  -2   9  -6    0.51    0.21 
   3  -9   6   11.18    0.48 
   3  -9   6   11.71    0.46 
  -3  -9  -6   10.93    0.50 
   3   9   6   11.06    0.68 
  -3   9  -6   11.32    0.64 
   4  -9   6    0.21    0.09 
  -4  -9  -6    0.14    0.12 
   4   9   6    0.28    0.22 
  -4   9  -6    0.32    0.18 
  -5  -9  -6   11.76    0.55 
   5  -9   6   11.82    0.50 
  -5   9  -6   12.06    0.64 
   5   9   6   12.62    0.70 
   6  -9   6    0.23    0.11 
  -6  -9  -6    0.48    0.15 
   6   9   6    0.38    0.19 
  -6   9  -6    0.51    0.17 
  -7 -10   6    0.00    0.17 
  -7  10   6    0.37    0.18 
   6 -10  -6    0.30    0.14 
  -6 -10   6    0.59    0.17 
  -5 -10   6    0.38    0.14 
   5 -10  -6    0.40    0.15 
  -5  10   6    0.57    0.16 
   5  10  -6    0.59    0.15 
  -4 -10   6    4.23    0.29 
   4 -10  -6    4.61    0.30 
   4  10  -6    4.59    0.35 
  -4  10   6    5.22    0.35 
  -3 -10   6    0.07    0.12 
   3 -10  -6    0.12    0.14 
   3  10  -6    0.00    0.14 
  -3  10   6    0.14    0.13 
   2 -10  -6   13.55    0.60 
  -2 -10   6   12.99    0.57 
  -2  10   6   13.27    0.70 
   2  10  -6   14.35    0.76 
  -1 -10   6   12.35    0.53 
   1 -10  -6   12.92    0.56 
  -1  10   6   11.67    0.67 
   1  10  -6   13.44    0.73 
   0 -10   6   18.76    0.76 
   0 -10  -6   19.01    0.79 
   0  10   6   20.14    0.97 
   0  10  -6   17.97    0.99 
  -1 -10  -6    1.65    0.16 
   1 -10   6    1.85    0.15 
   1  10   6    2.28    0.32 
  -1  10  -6    1.97    0.31 
  -2 -10  -6    3.76    0.25 
   2 -10   6    3.60    0.22 
  -2  10  -6    3.98    0.37 
   2  10   6    3.46    0.40 
  -3 -10  -6    0.30    0.13 
  -3  10  -6    0.19    0.17 
   3  10   6    0.10    0.22 
  -4 -10  -6    3.63    0.26 
   4  10   6    3.42    0.37 
  -4  10  -6    2.84    0.29 
  -5 -10  -6    1.85    0.19 
   5  10   6    2.57    0.30 
  -5  10  -6    1.94    0.25 
  -6 -10  -6   -0.23    0.13 
   6  10   6    0.03    0.17 
  -6  10  -6    0.00    0.15 
  -6 -11   6    4.65    0.33 
   6 -11  -6    4.10    0.31 
   5 -11  -6    2.68    0.24 
  -5 -11   6    1.97    0.20 
   5  11  -6    2.17    0.23 
  -5  11   6    2.38    0.24 
  -4 -11   6    2.71    0.22 
   4 -11  -6    2.44    0.22 
   4  11  -6    2.55    0.27 
  -4  11   6    2.50    0.26 
   3 -11  -6   11.16    0.52 
  -3 -11   6   10.72    0.49 
  -3  11   6    9.76    0.58 
   3  11  -6   10.91    0.61 
  -2 -11   6    1.24    0.15 
   2 -11  -6    0.91    0.17 
   2  11  -6    1.33    0.25 
  -2  11   6    1.26    0.21 
  -1 -11   6    1.11    0.14 
   1 -11  -6    1.14    0.17 
  -1  11   6    1.87    0.27 
   1  11  -6    1.50    0.29 
   0 -11   6    0.07    0.10 
   0 -11  -6    0.12    0.13 
   0  11  -6    0.00    0.19 
   0  11   6   -0.04    0.17 
   1 -11   6    6.55    0.33 
  -1 -11  -6    6.98    0.36 
  -1  11  -6    6.99    0.54 
   1  11   6    7.72    0.54 
  -2 -11  -6    0.49    0.13 
   2 -11   6    0.63    0.12 
   2  11   6    0.47    0.25 
  -2  11  -6    0.62    0.21 
  -3 -11  -6    1.05    0.16 
   3  11   6    1.37    0.30 
  -3  11  -6    1.30    0.23 
  -4 -11  -6    4.82    0.31 
  -4  11  -6    4.73    0.38 
   4  11   6    5.19    0.45 
  -5 -11  -6    2.20    0.21 
  -5  11  -6    1.77    0.24 
   5  11   6    2.04    0.31 
  -5 -12   6    1.80    0.21 
   5 -12  -6    1.96    0.22 
  -5  12   6    1.95    0.24 
   5  12  -6    2.03    0.24 
   4 -12  -6    0.07    0.15 
  -4 -12   6   -0.15    0.13 
   4  12  -6    0.17    0.16 
  -4  12   6    0.01    0.15 
   3 -12  -6    4.83    0.33 
  -3 -12   6    4.40    0.30 
   3  12  -6    5.07    0.40 
  -3  12   6    4.14    0.36 
   2 -12  -6    0.51    0.16 
  -2 -12   6    0.61    0.14 
   2  12  -6    0.82    0.24 
  -2  12   6    0.41    0.19 
  -1 -12   6    4.74    0.30 
   1 -12  -6    4.69    0.32 
   1  12  -6    5.87    0.46 
  -1  12   6    5.42    0.40 
   0 -12   6    4.90    0.28 
   0 -12  -6    4.98    0.31 
   0  12  -6    5.35    0.49 
   0  12   6    5.40    0.46 
  -1 -12  -6    5.19    0.33 
   1 -12   6    5.86    0.30 
  -1  12  -6    5.85    0.48 
   1  12   6    6.63    0.54 
  -2 -12  -6    3.25    0.25 
   2  12   6    2.91    0.38 
  -2  12  -6    3.48    0.38 
  -3 -12  -6    4.87    0.31 
   3  12   6    4.41    0.48 
  -3  12  -6    5.15    0.44 
  -4 -12  -6    0.14    0.14 
   4  12   6    0.80    0.26 
  -4  12  -6    0.44    0.20 
  -3 -13   6    0.07    0.13 
   3 -13  -6    0.09    0.16 
  -3  13   6   -0.07    0.14 
   3  13  -6   -0.20    0.17 
   2 -13  -6    0.32    0.16 
  -2 -13   6    0.15    0.13 
  -2  13   6    0.26    0.18 
   2  13  -6    0.43    0.23 
  -1 -13   6    1.03    0.15 
   1 -13  -6    1.27    0.19 
   1  13  -6    1.14    0.28 
  -1  13   6    0.84    0.23 
   0 -13  -6    0.25    0.13 
   0 -13   6    0.17    0.12 
   0  13  -6    0.20    0.23 
   0  13   6    0.32    0.20 
  -1 -13  -6   -0.05    0.13 
  -1  13  -6   -0.01    0.19 
   1  13   6    0.08    0.21 
  -2 -13  -6    1.55    0.18 
   2  13   6    1.87    0.35 
  -2  13  -6    1.65    0.30 
  10   0  -7    0.23    0.14 
 -10   0   7    0.15    0.14 
   9   0  -7   15.79    0.68 
  -9   0   7   15.65    0.69 
   8   0  -7   -0.02    0.11 
  -8   0   7    0.07    0.12 
   7   0  -7   52.30    1.98 
  -7   0   7   54.21    2.07 
   6   0  -7    0.10    0.10 
  -6   0   7    0.05    0.10 
   5   0  -7    7.42    0.39 
  -5   0   7    7.89    0.39 
   4   0  -7    0.05    0.11 
  -4   0   7   -0.03    0.10 
   4   0  -7    0.04    0.06 
   3   0  -7    2.78    0.21 
  -3   0   7    2.92    0.19 
  -3   0   7    2.78    0.20 
  -2   0   7   -0.08    0.06 
  -2   0   7   -0.04    0.07 
   2   0  -7   -0.12    0.09 
   1   0  -7    1.69    0.19 
  -1   0   7    2.04    0.13 
  -1   0   7    1.96    0.11 
   0   0   7   -0.02    0.05 
   0   0  -7    0.23    0.13 
   1   0   7  132.10    4.46 
  -1   0  -7  118.06    5.23 
   2   0   7   -0.02    0.06 
  -2   0  -7   -0.05    0.15 
  -2   0  -7    0.02    0.03 
  -3   0  -7   48.78    2.17 
   3   0   7   50.25    1.81 
  -3   0  -7   50.24    1.88 
  -4   0  -7   -0.15    0.14 
  -4   0  -7   -0.04    0.06 
   4   0   7   -0.05    0.08 
  -5   0  -7    8.84    0.41 
   5   0   7    9.41    0.42 
  -5   0  -7    9.42    0.53 
   6   0   7    0.18    0.12 
  -6   0  -7   -0.09    0.13 
  -7   0  -7    8.34    0.48 
   7   0   7    8.57    0.41 
   8   0   7    0.00    0.12 
   9   0   7    4.39    0.32 
 -10  -1   7    1.77    0.20 
  10  -1  -7    2.08    0.21 
  10   1  -7    2.07    0.21 
 -10   1   7    2.32    0.21 
  -9  -1   7    3.66    0.29 
   9  -1  -7    4.00    0.30 
   9   1  -7    4.14    0.29 
  -9   1   7    4.32    0.30 
  -8  -1   7    0.75    0.14 
   8  -1  -7    0.98    0.16 
   8   1  -7    0.83    0.15 
  -8   1   7    0.62    0.14 
  -7  -1   7    0.09    0.13 
   7  -1  -7    0.43    0.13 
  -7   1   7    0.31    0.13 
   7   1  -7    0.18    0.11 
   6  -1  -7   13.13    0.57 
  -6  -1   7   13.09    0.59 
   6   1  -7   12.56    0.56 
  -6   1   7   13.60    0.60 
  -5  -1   7    0.24    0.12 
   5  -1  -7    0.33    0.11 
  -5   1   7    0.24    0.11 
   5   1  -7    0.35    0.12 
   4  -1  -7   74.86    2.99 
   4  -1  -7   70.65    2.64 
  -4  -1   7   75.64    2.76 
   4   1  -7   72.20    2.98 
   4   1  -7   70.89    2.65 
  -4   1   7   68.75    2.75 
   3  -1  -7   38.02    1.60 
  -3  -1   7   37.74    1.40 
  -3  -1   7   38.33    1.47 
  -3   1   7   35.59    1.46 
  -3   1   7   37.02    1.40 
   3   1  -7   39.01    1.60 
  -2  -1   7   35.73    1.39 
  -2  -1   7   34.97    1.32 
   2  -1  -7   34.85    1.54 
   2   1  -7   37.47    1.55 
  -2   1   7   35.03    1.37 
  -2   1   7   36.95    1.32 
  -1  -1   7   22.07    0.88 
   1  -1  -7   23.47    1.04 
  -1  -1   7   22.35    0.85 
  -1   1   7   23.47    0.85 
   1   1  -7   23.78    1.05 
  -1   1   7   22.78    0.88 
   0  -1  -7   98.99    3.60 
   0  -1   7  104.78    3.59 
   0  -1  -7   93.24    4.06 
   0  -1   7   97.21    3.46 
   0   1  -7   89.42    4.07 
   0   1   7   96.93    3.46 
  -1  -1  -7    3.42    0.33 
   1  -1   7    3.62    0.19 
  -1  -1  -7    3.59    0.15 
   1   1   7    3.65    0.18 
  -1   1  -7    3.63    0.31 
  -2  -1  -7   22.20    0.84 
  -2  -1  -7   21.03    1.05 
   2  -1   7   21.87    0.83 
   2   1   7   22.22    0.83 
  -2   1  -7   23.26    1.07 
   3  -1   7    1.26    0.13 
  -3  -1  -7    1.28    0.11 
  -3  -1  -7    0.95    0.20 
  -3   1  -7    1.48    0.07 
   3   1   7    1.24    0.11 
  -3   1  -7    1.12    0.20 
  -4  -1  -7    3.07    0.20 
  -4  -1  -7    3.61    0.33 
   4  -1   7    3.10    0.20 
  -4   1  -7    3.43    0.16 
  -4   1  -7    3.49    0.30 
   4   1   7    3.14    0.20 
   5  -1   7    0.44    0.12 
  -5  -1  -7    0.37    0.16 
  -5  -1  -7    0.49    0.10 
  -5   1  -7    0.38    0.16 
   5   1   7    0.42    0.12 
  -6  -1  -7    5.96    0.40 
   6  -1   7    5.51    0.31 
   6   1   7    5.56    0.31 
  -6   1  -7    5.80    0.38 
  -7  -1  -7    4.18    0.32 
   7  -1   7    4.25    0.28 
  -7   1  -7    4.49    0.32 
   7   1   7    3.67    0.27 
   8  -1   7    5.92    0.36 
   8   1   7    6.52    0.35 
   9  -1   7    0.04    0.13 
   9   1   7   -0.09    0.14 
 -10  -2   7   10.88    0.53 
  10  -2  -7   11.22    0.52 
  10   2  -7   10.58    0.51 
 -10   2   7   10.92    0.53 
   9  -2  -7   12.89    0.59 
  -9  -2   7   13.49    0.61 
  -9   2   7   13.45    0.61 
   9   2  -7   12.36    0.58 
   8  -2  -7    4.48    0.30 
  -8  -2   7    4.09    0.31 
   8   2  -7    4.33    0.29 
  -8   2   7    4.60    0.32 
   7  -2  -7    9.26    0.45 
  -7  -2   7    9.69    0.47 
   7   2  -7    9.56    0.45 
  -7   2   7   10.11    0.49 
   6  -2  -7    7.36    0.36 
  -6  -2   7    6.23    0.36 
   6   2  -7    6.65    0.35 
  -6   2   7    7.40    0.39 
  -5  -2   7    2.78    0.22 
   5  -2  -7    3.58    0.24 
  -5   2   7    3.06    0.26 
   5   2  -7    3.05    0.23 
  -4  -2   7    8.46    0.41 
   4  -2  -7    8.43    0.41 
  -4  -2   7    9.11    0.42 
  -4   2   7    8.16    0.41 
   4   2  -7    8.34    0.40 
  -3  -2   7    3.76    0.23 
  -3   2   7    3.84    0.24 
  -3   2   7    3.77    0.24 
   3   2  -7    4.34    0.26 
  -3   2   7    3.83    0.22 
  -2  -2   7   11.26    0.51 
  -2  -2   7   11.91    0.48 
   2   2  -7   12.29    0.59 
  -2   2   7   11.61    0.48 
  -2   2   7   12.19    0.48 
  -2   2   7   12.16    0.57 
  -1  -2   7   23.16    0.87 
  -1  -2   7   23.18    0.92 
  -1   2   7   23.64    0.90 
  -1   2   7   23.85    1.05 
   1   2  -7   23.28    1.07 
  -1   2   7   23.51    0.87 
   0  -2  -7   18.30    0.69 
   0  -2   7   18.66    0.68 
   0  -2   7   17.28    0.69 
   0   2  -7   16.67    0.87 
   0   2   7   17.75    0.67 
   0   2   7   19.47    0.86 
  -1  -2  -7    7.74    0.32 
   1  -2   7    7.79    0.33 
   1   2   7    8.23    0.48 
  -1   2  -7    7.79    0.49 
   1   2   7    7.63    0.32 
  -2  -2  -7    0.24    0.05 
   2  -2   7    0.19    0.07 
  -2   2  -7    0.17    0.17 
   2   2   7    0.20    0.07 
   2   2   7    0.19    0.15 
  -3  -2  -7   25.94    1.01 
   3  -2   7   25.47    0.98 
  -3  -2  -7   23.69    1.22 
   3   2   7   25.97    0.98 
  -3   2  -7   30.05    0.99 
  -3   2  -7   25.70    1.23 
   4  -2   7   24.51    0.93 
  -4  -2  -7   24.90    1.15 
  -4  -2  -7   24.06    0.96 
   4   2   7   24.50    0.92 
  -4   2  -7   24.42    1.14 
   5  -2   7   26.29    0.99 
  -5  -2  -7   24.13    1.03 
  -5  -2  -7   26.20    1.20 
   5   2   7   26.18    0.98 
  -5   2  -7   26.56    1.19 
  -6  -2  -7   14.88    0.72 
  -6  -2  -7   13.53    0.61 
   6  -2   7   14.33    0.59 
   6   2   7   14.28    0.59 
  -6   2  -7   13.84    0.70 
   7  -2   7    0.79    0.14 
  -7  -2  -7    0.72    0.17 
  -7   2  -7    0.62    0.17 
   7   2   7    0.86    0.13 
   8  -2   7    0.30    0.13 
   8   2   7    0.27    0.13 
   9  -2   7    0.13    0.15 
   9   2   7    0.15    0.13 
 -10  -3   7    0.22    0.15 
  10  -3  -7    0.26    0.14 
  10   3  -7    0.28    0.13 
 -10   3   7    0.66    0.16 
   9  -3  -7    1.12    0.18 
  -9  -3   7    1.36    0.20 
  -9   3   7    1.57    0.20 
   9   3  -7    1.49    0.18 
   8  -3  -7    2.57    0.23 
  -8  -3   7    2.43    0.24 
  -8   3   7    2.43    0.23 
   8   3  -7    2.62    0.22 
  -7  -3   7    0.83    0.17 
   7  -3  -7    1.04    0.16 
   7   3  -7    0.71    0.13 
  -7   3   7    1.09    0.18 
  -6  -3   7    0.27    0.12 
   6  -3  -7    0.43    0.13 
  -6   3   7    0.35    0.14 
   6   3  -7    0.33    0.12 
  -5  -3   7   13.44    0.62 
   5  -3  -7   14.29    0.60 
   5   3  -7   14.70    0.62 
  -5   3   7   12.87    0.62 
   5   3  -7   13.59    0.60 
  -5   3   7   14.59    0.62 
  -4  -3   7   19.62    0.85 
  -4  -3   7   20.85    0.84 
   4  -3  -7   20.45    0.82 
  -4   3   7   21.15    0.90 
   4   3  -7   21.42    0.90 
  -4   3   7   20.77    0.86 
  -3  -3   7   54.18    2.15 
  -3  -3   7   56.37    2.05 
  -3   3   7   54.84    2.35 
   3   3  -7   58.46    2.37 
  -3   3   7   57.29    2.14 
  -2  -3   7   50.27    1.84 
  -2  -3   7   50.63    1.93 
  -2   3   7   50.91    2.14 
   2   3  -7   52.01    2.17 
  -2   3   7   49.57    1.92 
  -2   3   7   50.58    1.84 
  -1  -3   7   96.98    3.60 
  -1  -3   7   95.22    3.44 
  -1   3   7   95.12    3.44 
  -1   3   7   96.72    3.60 
  -1   3   7   98.44    4.02 
   1   3  -7   95.64    4.05 
   0  -3  -7    2.81    0.15 
   0  -3   7    2.90    0.14 
   0  -3   7    2.78    0.16 
   0   3  -7    3.57    0.30 
   0   3   7    2.73    0.15 
   0   3   7    3.17    0.26 
   1  -3   7   35.28    1.25 
   1  -3   7   33.86    1.23 
  -1  -3  -7   34.11    1.27 
  -1   3  -7   30.11    1.51 
   1   3   7   33.70    1.22 
   1   3   7   32.76    1.50 
   2  -3   7    3.19    0.19 
  -2  -3  -7    3.59    0.17 
  -2   3  -7    3.51    0.33 
   2   3   7    3.28    0.17 
   2   3   7    2.60    0.29 
   3  -3   7    0.06    0.04 
  -3  -3  -7    0.08    0.06 
   3  -3   7   -0.09    0.07 
  -3   3  -7    0.17    0.17 
   3   3   7    0.13    0.15 
   3   3   7    0.02    0.06 
   4  -3   7    0.80    0.12 
  -4  -3  -7    0.96    0.10 
   4   3   7    1.00    0.21 
  -4   3  -7    1.07    0.20 
   4   3   7    0.67    0.10 
  -5  -3  -7    0.56    0.11 
   5  -3   7    0.53    0.11 
  -5  -3  -7    0.66    0.18 
   5   3   7    0.70    0.11 
  -5   3  -7    0.28    0.15 
   6  -3   7    3.20    0.24 
  -6  -3  -7    3.36    0.31 
  -6  -3  -7    2.94    0.23 
   6   3   7    2.78    0.20 
  -6   3  -7    3.10    0.30 
  -7  -3  -7    3.27    0.31 
   7  -3   7    2.71    0.22 
   7   3   7    3.14    0.23 
  -7   3  -7    3.44    0.29 
   8  -3   7    2.79    0.23 
   8   3   7    3.07    0.24 
  10  -4  -7    1.25    0.18 
 -10  -4   7    0.81    0.18 
  10   4  -7    1.21    0.17 
 -10   4   7    1.60    0.20 
   9  -4  -7    0.26    0.14 
  -9  -4   7    0.21    0.14 
   9   4  -7    0.18    0.12 
  -9   4   7    0.21    0.16 
  -8  -4   7   21.85    0.94 
   8  -4  -7   21.64    0.89 
  -8   4   7   22.44    0.94 
   8   4  -7   21.38    0.87 
  -7  -4   7    0.29    0.16 
   7  -4  -7    0.15    0.12 
  -7   4   7    0.36    0.15 
   7   4  -7    0.30    0.12 
  -6  -4   7   26.60    1.10 
   6  -4  -7   26.85    1.04 
  -6   4   7   26.37    1.10 
   6   4  -7   26.39    1.03 
   5  -4  -7    7.61    0.37 
  -5  -4   7    7.38    0.40 
   5   4  -7    7.00    0.37 
  -5   4   7    8.19    0.37 
   5   4  -7    7.68    0.37 
  -5   4   7    7.15    0.40 
  -4  -4   7    6.16    0.33 
   4  -4  -7    6.71    0.33 
   4   4  -7    6.27    0.34 
  -4   4   7    6.07    0.33 
  -4   4   7    6.20    0.33 
  -3  -4   7    9.66    0.44 
   3  -4  -7    9.68    0.44 
  -3  -4   7   10.26    0.45 
   3   4  -7   10.85    0.52 
  -3   4   7   10.02    0.49 
  -3   4   7    9.81    0.44 
  -2  -4   7    0.53    0.09 
  -2  -4   7    0.78    0.10 
  -2   4   7    0.86    0.13 
  -2   4   7    1.02    0.10 
  -2   4   7    0.65    0.10 
   2   4  -7    0.76    0.15 
   1  -4  -7    5.54    0.26 
  -1  -4   7    5.38    0.24 
  -1  -4   7    5.44    0.25 
  -1   4   7    5.10    0.24 
  -1   4   7    5.19    0.34 
   1   4  -7    6.19    0.40 
   0  -4  -7   23.99    0.94 
   0  -4   7   24.33    0.90 
   0  -4   7   25.21    0.92 
   0   4   7   23.64    0.89 
   0   4  -7   22.65    1.13 
   0   4   7   24.93    1.11 
   1  -4   7    7.48    0.32 
  -1  -4  -7    7.51    0.33 
   1  -4   7    8.00    0.30 
  -1   4  -7    6.49    0.47 
   1   4   7    7.70    0.48 
   1   4   7    7.52    0.31 
  -2  -4  -7   74.51    2.78 
   2  -4   7   73.69    2.67 
   2  -4   7   77.55    2.76 
   2   4   7   72.29    3.18 
   2   4   7   74.92    2.65 
  -2   4  -7   71.49    3.17 
   3  -4   7    0.02    0.08 
  -3  -4  -7    0.00    0.07 
   3  -4   7    0.01    0.04 
   3   4   7    0.01    0.06 
   3   4   7    0.12    0.17 
  -3   4  -7    0.05    0.17 
   4  -4   7   16.97    0.69 
  -4  -4  -7   18.13    0.71 
   4   4   7   17.87    0.90 
   4   4   7   17.55    0.68 
  -4   4  -7   18.36    0.88 
   5  -4   7    1.62    0.16 
  -5  -4  -7    1.85    0.16 
   5   4   7    1.91    0.15 
  -5   4  -7    1.62    0.22 
   5   4   7    1.70    0.23 
  -6  -4  -7    7.74    0.46 
  -6  -4  -7    6.48    0.35 
   6  -4   7    6.47    0.33 
  -6   4  -7    6.33    0.41 
   6   4   7    6.45    0.32 
   7  -4   7    0.21    0.13 
  -7  -4  -7    0.19    0.15 
   7   4   7    0.18    0.11 
  -7   4  -7    0.26    0.15 
   8  -4   7    5.59    0.32 
   8   4   7    5.65    0.32 
  -9  -5   7    0.36    0.17 
   9  -5  -7    0.60    0.16 
  -9   5   7    0.61    0.18 
   9   5  -7    0.64    0.14 
  -8  -5   7   -0.02    0.16 
   8  -5  -7    0.21    0.13 
   8   5  -7    0.29    0.11 
  -8   5   7    0.01    0.15 
   7  -5  -7   11.34    0.50 
  -7  -5   7    9.68    0.54 
   7   5  -7   10.65    0.48 
  -7   5   7   10.64    0.55 
   6  -5  -7    0.37    0.13 
  -6  -5   7    0.31    0.15 
  -6   5   7    0.08    0.13 
   6   5  -7    0.17    0.09 
   5  -5  -7   33.03    1.24 
  -5  -5   7   33.13    1.30 
   5   5  -7   31.29    1.24 
  -5   5   7   33.15    1.39 
  -5   5   7   32.30    1.31 
   5   5  -7   31.98    1.38 
  -4  -5   7    0.90    0.14 
   4  -5  -7    0.75    0.13 
   4   5  -7    0.96    0.13 
   4   5  -7    0.72    0.13 
  -4   5   7    0.81    0.13 
  -4   5   7    0.60    0.12 
  -3  -5   7   15.45    0.63 
  -3  -5   7   15.62    0.64 
   3  -5  -7   15.73    0.63 
  -3   5   7   15.86    0.72 
   3   5  -7   16.03    0.74 
  -3   5   7   14.55    0.64 
  -2  -5   7   18.57    0.71 
  -2  -5   7   18.58    0.74 
  -2   5   7   18.29    0.85 
  -2   5   7   17.48    0.74 
   2   5  -7   19.93    0.89 
   1  -5  -7   38.41    1.45 
  -1  -5   7   37.43    1.38 
  -1  -5   7   37.43    1.43 
  -1   5   7   35.76    1.37 
  -1   5   7   38.02    1.65 
   1   5  -7   39.45    1.69 
   0  -5  -7    2.17    0.16 
   0  -5   7    2.24    0.15 
   0  -5   7    2.24    0.13 
   0   5   7    2.37    0.13 
   0   5   7    2.30    0.24 
   0   5  -7    2.66    0.28 
  -1  -5  -7   40.87    1.59 
   1  -5   7   42.11    1.57 
   1  -5   7   40.53    1.52 
   1   5   7   43.38    1.86 
   1   5   7   42.94    1.50 
  -1   5  -7   40.49    1.86 
  -2  -5  -7    0.78    0.10 
   2  -5   7    0.89    0.07 
   2  -5   7    0.82    0.10 
  -2   5  -7    0.71    0.21 
   2   5   7    0.48    0.18 
   2   5   7    0.92    0.08 
  -3  -5  -7    0.52    0.09 
   3  -5   7    0.42    0.10 
   3   5   7    0.37    0.17 
   3   5   7    0.51    0.08 
  -3   5  -7    0.45    0.19 
   4  -5   7    0.30    0.11 
  -4  -5  -7    0.26    0.09 
   4   5   7    0.10    0.08 
   4   5   7    0.14    0.15 
  -4   5  -7    0.09    0.16 
   5  -5   7    2.83    0.23 
  -5  -5  -7    3.19    0.22 
   5   5   7    2.80    0.19 
  -5   5  -7    3.77    0.29 
   5   5   7    3.59    0.33 
  -6  -5  -7    2.50    0.22 
   6  -5   7    2.42    0.20 
  -6   5  -7    2.02    0.24 
   6   5   7    2.32    0.26 
   6   5   7    2.17    0.18 
   7  -5   7    2.53    0.21 
  -7  -5  -7    2.89    0.28 
  -7  -5  -7    2.52    0.23 
   7   5   7    2.65    0.20 
  -7   5  -7    2.37    0.24 
   8  -5   7   -0.01    0.13 
   8   5   7    0.08    0.11 
   9  -6  -7    2.48    0.24 
  -9  -6   7    2.27    0.26 
  -9   6   7    3.16    0.28 
   9   6  -7    2.53    0.22 
   8  -6  -7    7.43    0.40 
  -8  -6   7    6.82    0.44 
   8   6  -7    7.40    0.37 
  -8   6   7    7.31    0.45 
   7  -6  -7    1.40    0.18 
  -7  -6   7    1.23    0.19 
   7   6  -7    1.32    0.16 
  -7   6   7    1.00    0.19 
   6  -6  -7   13.30    0.60 
  -6  -6   7   14.21    0.64 
   6   6  -7   13.61    0.58 
  -6   6   7   14.06    0.65 
   5  -6  -7   12.33    0.53 
  -5  -6   7   12.82    0.55 
   5   6  -7   11.42    0.56 
   5   6  -7   10.45    0.50 
  -5   6   7   12.27    0.56 
  -5   6   7   11.68    0.56 
   4  -6  -7    4.53    0.27 
  -4  -6   7    4.33    0.27 
  -4   6   7    4.33    0.27 
   4   6  -7    4.34    0.27 
   4   6  -7    5.09    0.29 
  -4   6   7    4.61    0.29 
  -3  -6   7    1.21    0.13 
   3  -6  -7    1.27    0.14 
  -3  -6   7    1.36    0.15 
   3   6  -7    1.14    0.17 
  -3   6   7    1.11    0.15 
  -3   6   7    1.19    0.14 
  -2  -6   7    2.42    0.17 
   2  -6  -7    2.45    0.18 
   2  -6  -7    2.20    0.18 
  -2  -6   7    2.14    0.16 
  -2   6   7    2.17    0.22 
   2   6  -7    2.54    0.26 
   1  -6  -7   10.05    0.44 
  -1  -6   7   10.06    0.41 
  -1  -6   7   10.12    0.42 
  -1   6   7   10.52    0.56 
   1   6  -7   10.99    0.61 
  -1   6   7    9.89    0.41 
   0  -6   7   10.55    0.44 
   0  -6   7   10.87    0.43 
   0  -6  -7   10.90    0.46 
   0   6   7   10.51    0.41 
   0   6  -7   10.07    0.62 
   0   6   7   12.00    0.61 
   1  -6   7    1.14    0.11 
   1  -6   7    1.25    0.10 
  -1  -6  -7    0.92    0.11 
   1   6   7    1.30    0.23 
   1   6   7    1.18    0.09 
  -1   6  -7    0.92    0.21 
  -2  -6  -7   11.67    0.48 
   2  -6   7   10.67    0.46 
   2  -6   7   11.42    0.45 
   2   6   7   11.59    0.44 
  -2   6  -7   11.52    0.65 
   2   6   7   10.94    0.65 
  -3  -6  -7    6.15    0.29 
   3  -6   7    5.60    0.27 
   3   6   7    5.37    0.43 
   3   6   7    5.79    0.25 
  -3   6  -7    6.06    0.41 
   4  -6   7   33.04    1.25 
  -4  -6  -7   34.92    1.31 
   4   6   7   33.48    1.23 
   4   6   7   32.59    1.54 
  -4   6  -7   33.65    1.51 
  -5  -6  -7    7.76    0.38 
   5  -6   7    8.11    0.38 
   5   6   7    8.37    0.52 
   5   6   7    7.98    0.34 
  -5   6  -7    7.83    0.48 
   6  -6   7    6.28    0.34 
  -6  -6  -7    6.78    0.36 
   6   6   7    6.31    0.44 
  -6   6  -7    7.00    0.43 
   6   6   7    6.31    0.31 
   7  -6   7    0.77    0.14 
  -7  -6  -7    0.73    0.15 
  -7  -6  -7    0.89    0.21 
  -7   6  -7    0.85    0.17 
   8  -6   7    0.31    0.14 
  -8  -7   7   -0.14    0.17 
   8  -7  -7    0.25    0.15 
  -8   7   7    0.17    0.18 
   8   7  -7    0.18    0.11 
  -7  -7   7    0.02    0.13 
   7  -7  -7   -0.22    0.12 
  -7   7   7   -0.09    0.16 
   7   7  -7    0.20    0.10 
   6  -7  -7    5.51    0.32 
  -6  -7   7    5.20    0.34 
   6   7  -7    5.58    0.29 
  -6   7   7    4.63    0.34 
  -5  -7   7    3.01    0.25 
   5  -7  -7    3.23    0.24 
  -5   7   7    3.27    0.25 
  -5   7   7    3.11    0.27 
   5   7  -7    2.88    0.23 
   5   7  -7    3.43    0.23 
   4  -7  -7   19.07    0.73 
  -4  -7   7   18.18    0.76 
  -4   7   7   18.75    0.85 
   4   7  -7   17.89    0.74 
  -4   7   7   17.45    0.77 
   4   7  -7   18.71    0.85 
  -3  -7   7   33.32    1.30 
   3  -7  -7   33.81    1.24 
  -3  -7   7   33.14    1.26 
  -3   7   7   31.28    1.30 
  -3   7   7   34.05    1.46 
   3   7  -7   34.48    1.48 
  -2  -7   7   17.59    0.66 
   2  -7  -7   16.37    0.69 
  -2  -7   7   16.07    0.67 
  -2   7   7   16.11    0.80 
   2   7  -7   17.58    0.85 
   1  -7  -7   10.06    0.44 
  -1  -7   7    9.71    0.40 
  -1  -7   7    9.76    0.41 
  -1   7   7    9.24    0.53 
   1   7  -7    9.76    0.57 
   0  -7  -7   15.02    0.64 
   0  -7   7   15.09    0.61 
   0  -7   7   15.55    0.60 
   0   7   7   16.38    0.79 
   0   7  -7   15.38    0.82 
  -1  -7  -7    0.56    0.10 
   1  -7   7    0.83    0.09 
   1  -7   7    0.85    0.10 
  -1   7  -7    0.58    0.20 
   1   7   7    1.10    0.23 
   2  -7   7    5.22    0.25 
  -2  -7  -7    5.12    0.27 
   2  -7   7    5.71    0.24 
   2   7   7    4.23    0.41 
  -2   7  -7    5.19    0.40 
  -3  -7  -7    1.95    0.17 
   3  -7   7    2.03    0.16 
   3   7   7    1.66    0.27 
  -3   7  -7    2.07    0.25 
   4  -7   7    0.97    0.13 
  -4  -7  -7    1.38    0.15 
   4   7   7    1.12    0.26 
  -4   7  -7    1.17    0.22 
   5  -7   7    0.39    0.11 
  -5  -7  -7    0.40    0.12 
   5   7   7    0.46    0.18 
  -5   7  -7    0.60    0.16 
   6  -7   7    3.16    0.24 
  -6  -7  -7    3.98    0.27 
   6   7   7    4.03    0.35 
  -6   7  -7    3.46    0.32 
   7  -7   7    2.35    0.20 
  -7  -7  -7    2.87    0.24 
  -7   7  -7    2.58    0.25 
   7   7   7    2.73    0.28 
  -8  -8   7    0.72    0.19 
  -8   8   7    0.90    0.22 
  -7  -8   7    9.42    0.50 
   7   8  -7    9.83    0.45 
  -7   8   7    9.48    0.53 
  -6  -8   7    2.26    0.23 
   6   8  -7    3.04    0.21 
  -6   8   7    3.00    0.27 
  -5  -8   7    5.81    0.35 
  -5   8   7    6.42    0.36 
   5   8  -7    6.52    0.32 
  -5   8   7    6.78    0.38 
   5   8  -7    5.99    0.37 
  -4  -8   7    4.44    0.27 
  -4   8   7    4.06    0.28 
   4   8  -7    4.58    0.31 
   4   8  -7    4.26    0.25 
  -4   8   7    3.84    0.30 
   3  -8  -7    1.32    0.16 
  -3  -8   7    1.04    0.13 
  -3  -8   7    1.41    0.16 
   3   8  -7    1.25    0.19 
  -3   8   7    1.25    0.19 
  -2  -8   7    0.28    0.09 
  -2  -8   7    0.17    0.09 
   2  -8  -7    0.21    0.12 
   2   8  -7    0.04    0.16 
  -2   8   7    0.10    0.14 
   1  -8  -7    0.24    0.11 
  -1  -8   7    0.34    0.09 
  -1  -8   7    0.30    0.09 
  -1   8   7    0.33    0.15 
   1   8  -7    0.40    0.20 
   0  -8   7    2.55    0.16 
   0  -8  -7    2.45    0.20 
   0  -8   7    2.11    0.16 
   0   8   7    2.10    0.26 
   0   8  -7    1.93    0.30 
   1  -8   7   45.46    1.63 
  -1  -8  -7   43.68    1.72 
   1  -8   7   44.67    1.69 
   1   8   7   45.33    2.01 
  -1   8  -7   44.43    2.01 
   2  -8   7    0.41    0.09 
   2  -8   7    0.70    0.09 
  -2  -8  -7    0.62    0.11 
  -2   8  -7    0.51    0.19 
   2   8   7    0.47    0.23 
  -3  -8  -7   20.61    0.84 
   3  -8   7   20.54    0.79 
  -3   8  -7   21.94    1.02 
   3   8   7   20.08    1.06 
  -4  -8  -7    3.89    0.25 
   4  -8   7    3.52    0.22 
  -4   8  -7    3.72    0.35 
   4   8   7    4.15    0.40 
  -5  -8  -7    1.69    0.18 
   5  -8   7    1.43    0.15 
   5   8   7    1.87    0.29 
  -5   8  -7    1.83    0.24 
   6  -8   7    1.06    0.14 
  -6  -8  -7    1.04    0.16 
  -6   8  -7    0.88    0.18 
   6   8   7    1.18    0.22 
  -7  -8  -7    4.28    0.32 
   7  -8   7    4.26    0.28 
  -7  -9   7   -0.09    0.13 
  -7   9   7   -0.04    0.18 
  -6  -9   7   10.95    0.54 
  -6   9   7   11.63    0.57 
  -5  -9   7    0.44    0.15 
  -5   9   7    0.19    0.14 
   5   9  -7    0.34    0.13 
  -4  -9   7   11.38    0.52 
   4  -9  -7   12.13    0.55 
   4   9  -7   11.27    0.60 
  -4   9   7   11.87    0.60 
  -3  -9   7    1.50    0.15 
   3  -9  -7    1.42    0.18 
   3   9  -7    0.91    0.18 
  -3   9   7    1.05    0.17 
   2  -9  -7   13.93    0.60 
  -2  -9   7   13.59    0.58 
   2   9  -7   15.28    0.76 
  -2   9   7   12.80    0.69 
   1  -9  -7    0.16    0.12 
  -1  -9   7    0.18    0.09 
  -1   9   7    0.25    0.18 
   1   9  -7    0.21    0.19 
   0  -9  -7   14.94    0.63 
   0  -9   7   14.44    0.61 
   0   9   7   16.21    0.80 
   0   9  -7   14.40    0.83 
   1  -9   7    3.95    0.21 
   1  -9   7    3.72    0.21 
  -1  -9  -7    3.41    0.24 
  -1   9  -7    3.90    0.39 
   1   9   7    3.98    0.38 
   2  -9   7    1.58    0.13 
  -2  -9  -7    1.73    0.17 
  -2   9  -7    1.36    0.24 
   2   9   7    1.63    0.28 
  -3  -9  -7    1.10    0.15 
   3  -9   7    1.22    0.12 
  -3   9  -7    0.99    0.21 
   3   9   7    0.65    0.25 
  -4  -9  -7    0.62    0.14 
   4  -9   7    0.51    0.11 
  -4   9  -7    0.75    0.20 
   4   9   7    0.54    0.24 
  -5  -9  -7    0.06    0.13 
   5  -9   7    0.27    0.11 
   5   9   7    0.29    0.21 
  -5   9  -7    0.05    0.16 
  -6  -9  -7    1.67    0.19 
   6  -9   7    1.24    0.15 
   6   9   7    1.59    0.26 
  -6   9  -7    1.26    0.21 
  -7 -10   7    4.85    0.36 
  -6 -10   7    3.34    0.27 
   6 -10  -7    3.01    0.26 
   5 -10  -7    3.51    0.29 
  -5 -10   7    3.45    0.27 
  -5  10   7    3.99    0.30 
   5  10  -7    3.47    0.28 
   4 -10  -7    5.98    0.37 
  -4 -10   7    6.95    0.35 
  -4  10   7    5.94    0.40 
   4  10  -7    6.51    0.41 
  -3 -10   7    1.22    0.15 
   3 -10  -7    1.18    0.16 
  -3  10   7    1.35    0.21 
   3  10  -7    1.77    0.24 
   2 -10  -7    1.10    0.16 
  -2 -10   7    1.21    0.14 
   2  10  -7    1.29    0.23 
  -2  10   7    0.92    0.20 
   1 -10  -7    4.69    0.28 
  -1 -10   7    4.65    0.26 
  -1  10   7    4.72    0.37 
   1  10  -7    4.15    0.41 
   0 -10  -7    1.34    0.16 
   0 -10   7    1.27    0.13 
   0  10   7    1.09    0.25 
   0  10  -7    1.15    0.25 
  -1 -10  -7    5.11    0.30 
   1 -10   7    5.41    0.27 
   1  10   7    5.19    0.45 
  -1  10  -7    5.29    0.44 
  -2 -10  -7    0.04    0.12 
   2  10   7   -0.01    0.20 
  -2  10  -7   -0.01    0.19 
  -3 -10  -7   10.25    0.48 
  -3  10  -7   10.88    0.63 
   3  10   7    9.70    0.69 
  -4 -10  -7    3.73    0.26 
   4  10   7    3.78    0.41 
  -4  10  -7    3.66    0.34 
  -5 -10  -7    6.08    0.35 
   5  10   7    6.20    0.47 
  -5  10  -7    5.47    0.42 
   6 -11  -7    0.10    0.14 
  -6 -11   7    0.27    0.16 
   5 -11  -7    2.73    0.25 
  -5 -11   7    2.98    0.26 
   5  11  -7    3.04    0.29 
  -5  11   7    3.18    0.29 
  -4 -11   7    7.46    0.40 
   4 -11  -7    7.23    0.41 
  -4  11   7    7.12    0.45 
   4  11  -7    7.82    0.46 
   3 -11  -7    2.12    0.21 
  -3 -11   7    1.89    0.19 
   3  11  -7    2.11    0.27 
  -3  11   7    1.97    0.23 
  -2 -11   7   24.11    1.03 
   2 -11  -7   27.18    1.06 
  -2  11   7   24.62    1.19 
   2  11  -7   28.34    1.27 
  -1 -11   7    2.76    0.22 
   1 -11  -7    2.84    0.26 
  -1  11   7    3.52    0.33 
   1  11  -7    3.54    0.38 
   0 -11   7    0.79    0.12 
   0 -11  -7    0.69    0.13 
   0  11  -7    0.67    0.25 
   0  11   7    0.85    0.24 
  -1 -11  -7    3.02    0.24 
  -1  11  -7    3.29    0.36 
   1  11   7    3.23    0.36 
  -2 -11  -7    0.93    0.15 
  -2  11  -7    1.31    0.25 
   2  11   7    1.29    0.31 
  -3 -11  -7    1.35    0.17 
   3  11   7    0.93    0.29 
  -3  11  -7    0.92    0.22 
  -4 -11  -7    0.64    0.15 
   4  11   7    0.48    0.25 
  -4  11  -7    0.59    0.20 
   4 -12  -7   -0.12    0.14 
  -4 -12   7    0.08    0.14 
  -4  12   7    0.11    0.15 
   4  12  -7    0.21    0.16 
  -3 -12   7   -0.29    0.12 
   3 -12  -7   -0.07    0.14 
  -3  12   7    0.13    0.15 
   3  12  -7   -0.03    0.17 
   2 -12  -7    0.11    0.15 
  -2 -12   7   -0.09    0.12 
  -2  12   7    0.06    0.15 
   2  12  -7    0.03    0.17 
   1 -12  -7    0.33    0.14 
  -1 -12   7    0.24    0.12 
   1  12  -7    0.27    0.21 
  -1  12   7    0.24    0.18 
   0 -12  -7    0.23    0.14 
   0 -12   7    0.26    0.11 
   0  12   7   -0.09    0.18 
   0  12  -7    0.36    0.24 
  -1 -12  -7    0.59    0.14 
  -1  12  -7    0.64    0.24 
   1  12   7    0.62    0.26 
  -2 -12  -7   11.09    0.52 
  -2  12  -7   12.25    0.72 
   2  12   7   11.36    0.76 
  -3 -12  -7    1.07    0.17 
   3  12   7    0.96    0.30 
  -3  12  -7    0.89    0.24 
   2 -13  -7    1.18    0.19 
  -2 -13   7    1.12    0.16 
   2  13  -7    1.17    0.27 
  -2  13   7    0.93    0.22 
   1 -13  -7   11.73    0.55 
  -1 -13   7   10.86    0.52 
   1  13  -7   11.63    0.73 
  -1  13   7   12.17    0.68 
   0 -13  -7    1.22    0.18 
   0  13   7    1.59    0.29 
   0  13  -7    1.45    0.31 
  -1 -13  -7    3.48    0.28 
  -1  13  -7    3.50    0.39 
   1  13   7    4.11    0.44 
 -10   0   8    0.14    0.14 
  10   0  -8   -0.05    0.11 
   9   0  -8    0.14    0.12 
  -9   0   8    0.15    0.13 
   8   0  -8    8.05    0.40 
  -8   0   8    7.98    0.42 
  -7   0   8    0.07    0.12 
   7   0  -8    0.30    0.12 
  -6   0   8   31.32    1.24 
   6   0  -8   30.59    1.19 
   5   0  -8    0.12    0.12 
  -5   0   8    0.20    0.11 
  -4   0   8   36.25    1.39 
   4   0  -8   37.23    1.55 
  -4   0   8   36.28    1.44 
   3   0  -8    0.12    0.10 
  -3   0   8    0.21    0.09 
  -3   0   8   -0.11    0.08 
  -2   0   8  101.67    3.72 
   2   0  -8  106.53    4.33 
  -2   0   8  104.04    3.90 
  -1   0   8    0.01    0.04 
  -1   0   8   -0.02    0.07 
   1   0  -8   -0.06    0.10 
   0   0   8   15.65    0.60 
   0   0  -8   15.96    0.59 
   0   0  -8   14.95    0.77 
  -1   0  -8   -0.01    0.16 
   1   0   8    0.00    0.07 
   2   0   8    0.74    0.10 
  -2   0  -8    0.77    0.19 
   3   0   8   -0.05    0.07 
  -3   0  -8   -0.11    0.17 
  -4   0  -8    1.46    0.22 
   4   0   8    2.20    0.18 
  -5   0  -8   -0.03    0.14 
   5   0   8    0.04    0.11 
   6   0   8   20.71    0.83 
  -6   0  -8   21.40    0.99 
  -7   0  -8   -0.26    0.13 
   7   0   8    0.04    0.11 
   8   0   8   19.38    0.78 
 -10  -1   8    0.20    0.14 
  10  -1  -8    0.06    0.12 
  10   1  -8    0.07    0.13 
 -10   1   8    0.10    0.13 
  -9  -1   8   16.12    0.72 
   9  -1  -8   15.66    0.69 
  -9   1   8   17.81    0.73 
   9   1  -8   16.01    0.69 
   8  -1  -8    0.82    0.16 
  -8  -1   8    1.02    0.15 
   8   1  -8    1.09    0.16 
  -8   1   8    1.33    0.17 
   7  -1  -8    6.78    0.37 
  -7  -1   8    7.15    0.38 
   7   1  -8    7.57    0.38 
  -7   1   8    7.77    0.40 
   6  -1  -8    7.69    0.38 
  -6  -1   8    7.31    0.39 
   6   1  -8    7.55    0.38 
  -6   1   8    8.23    0.40 
  -5  -1   8    0.03    0.10 
   5  -1  -8    0.19    0.11 
   5   1  -8    0.09    0.11 
  -5   1   8    0.07    0.11 
   4  -1  -8    9.56    0.47 
   4  -1  -8   10.37    0.48 
  -4  -1   8   10.92    0.47 
  -4  -1   8    9.73    0.47 
  -4   1   8    9.64    0.47 
   4   1  -8   10.45    0.48 
  -3  -1   8    0.79    0.12 
  -3  -1   8    0.65    0.11 
   3  -1  -8    0.75    0.12 
  -3   1   8    0.54    0.11 
  -3   1   8    0.67    0.11 
   3   1  -8    0.74    0.13 
  -2  -1   8   23.22    0.97 
  -2  -1   8   24.81    0.92 
   2  -1  -8   25.20    1.10 
   2   1  -8   24.75    1.10 
  -2   1   8   24.33    0.95 
  -2   1   8   24.97    0.92 
  -1  -1   8   50.53    1.86 
  -1  -1   8   49.00    1.80 
   1  -1  -8   49.76    2.13 
  -1   1   8   48.98    1.86 
   1   1  -8   49.55    2.14 
  -1   1   8   49.38    1.79 
   0  -1  -8   -0.05    0.14 
   0  -1   8    0.14    0.07 
   0  -1  -8    0.07    0.04 
   0   1   8    0.25    0.07 
   0   1  -8    0.09    0.14 
  -1  -1  -8   54.15    1.93 
   1  -1   8   52.33    1.88 
  -1  -1  -8   50.28    2.26 
  -1   1  -8   48.85    2.26 
   1   1   8   52.49    1.87 
  -2  -1  -8    0.81    0.21 
   2  -1   8    0.73    0.09 
  -2  -1  -8    0.73    0.06 
  -2   1  -8    0.44    0.20 
   2   1   8    0.70    0.09 
   3  -1   8   34.00    1.25 
  -3  -1  -8   34.06    1.55 
  -3  -1  -8   34.08    1.29 
   3   1   8   32.91    1.25 
  -3   1  -8   34.23    1.55 
  -4  -1  -8    3.53    0.33 
   4  -1   8    3.29    0.21 
   4   1   8    3.48    0.22 
  -4   1  -8    3.31    0.32 
   5  -1   8    7.29    0.34 
  -5  -1  -8    6.44    0.43 
   5   1   8    6.37    0.32 
  -5   1  -8    6.74    0.44 
   6  -1   8    0.19    0.11 
  -6  -1  -8    0.42    0.17 
  -6   1  -8    0.41    0.17 
   6   1   8    0.51    0.13 
  -7  -1  -8    0.09    0.14 
   7  -1   8    0.05    0.12 
  -7   1  -8    0.10    0.15 
   7   1   8    0.06    0.11 
   8  -1   8    0.48    0.15 
   8   1   8    0.33    0.12 
 -10  -2   8    1.68    0.20 
  10  -2  -8    1.37    0.19 
 -10   2   8    1.65    0.19 
  10   2  -8    1.45    0.17 
   9  -2  -8    0.64    0.15 
  -9  -2   8    0.50    0.14 
  -9   2   8    0.62    0.14 
   9   2  -8    0.98    0.15 
   8  -2  -8    1.11    0.17 
  -8  -2   8    1.09    0.18 
   8   2  -8    1.29    0.17 
  -8   2   8    1.06    0.16 
   7  -2  -8    3.00    0.25 
  -7  -2   8    3.18    0.26 
   7   2  -8    3.20    0.25 
  -7   2   8    3.57    0.26 
   6  -2  -8   15.38    0.66 
  -6  -2   8   15.94    0.69 
  -6   2   8   16.97    0.71 
   6   2  -8   14.84    0.66 
  -5  -2   8   26.89    1.07 
   5  -2  -8   26.76    1.03 
   5   2  -8   26.98    1.04 
  -5   2   8   24.53    1.07 
   4  -2  -8   58.61    2.25 
  -4  -2   8   62.05    2.25 
   4  -2  -8   62.76    2.55 
  -4  -2   8   61.08    2.34 
  -4   2   8   59.90    2.34 
   4   2  -8   61.63    2.54 
  -3  -2   8   17.70    0.70 
  -3  -2   8   18.07    0.73 
  -3   2   8   16.81    0.78 
  -3   2   8   17.25    0.71 
   3   2  -8   17.69    0.80 
  -3   2   8   17.16    0.69 
  -2  -2   8    4.16    0.22 
  -2  -2   8    4.67    0.24 
  -2   2   8    4.24    0.22 
   2   2  -8    4.67    0.31 
  -2   2   8    4.30    0.23 
  -2   2   8    4.57    0.29 
  -1  -2   8    8.17    0.36 
  -1  -2   8    8.60    0.37 
   1   2  -8    8.57    0.50 
  -1   2   8    9.09    0.48 
  -1   2   8    9.05    0.36 
  -1   2   8    8.78    0.36 
   0  -2  -8    9.03    0.36 
   0  -2   8    9.03    0.37 
   0   2   8    8.69    0.36 
   0   2  -8    8.50    0.53 
   0   2   8    9.17    0.50 
  -1  -2  -8    6.43    0.26 
   1   2   8    6.36    0.28 
   1   2   8    6.24    0.42 
  -1   2  -8    5.60    0.45 
   2  -2   8    1.23    0.12 
  -2  -2  -8    1.95    0.11 
  -2   2  -8    1.71    0.27 
   2   2   8    1.56    0.13 
   2   2   8    1.56    0.24 
   3  -2   8    5.43    0.27 
  -3  -2  -8    5.44    0.25 
  -3  -2  -8    5.16    0.41 
  -3   2  -8    5.65    0.41 
   3   2   8    5.52    0.26 
  -4  -2  -8   12.60    0.53 
   4  -2   8   13.25    0.53 
  -4  -2  -8   12.89    0.70 
   4   2   8   12.95    0.52 
  -4   2  -8   12.06    0.68 
   5  -2   8   15.68    0.63 
  -5  -2  -8   15.40    0.79 
   5   2   8   15.02    0.61 
  -5   2  -8   15.55    0.78 
  -6  -2  -8    6.08    0.41 
   6  -2   8    6.17    0.33 
  -6   2  -8    6.32    0.41 
   6   2   8    6.12    0.32 
  -7  -2  -8    1.02    0.19 
   7  -2   8    1.31    0.16 
   7   2   8    1.09    0.15 
  -7   2  -8    1.18    0.19 
   8  -2   8    1.77    0.19 
   8   2   8    2.01    0.19 
 -10  -3   8   10.05    0.51 
  10  -3  -8    9.66    0.49 
 -10   3   8   11.02    0.51 
  10   3  -8    9.19    0.47 
   9  -3  -8    2.12    0.21 
  -9  -3   8    1.61    0.21 
  -9   3   8    2.76    0.24 
   9   3  -8    2.36    0.21 
   8  -3  -8    4.00    0.29 
  -8  -3   8    4.11    0.31 
  -8   3   8    4.62    0.33 
   8   3  -8    4.54    0.29 
  -7  -3   8    7.15    0.40 
   7  -3  -8    7.05    0.37 
  -7   3   8    8.00    0.42 
   7   3  -8    6.71    0.37 
   6  -3  -8    1.22    0.15 
  -6  -3   8    1.57    0.19 
  -6   3   8    1.46    0.20 
   6   3  -8    1.29    0.16 
   5  -3  -8    0.97    0.14 
  -5  -3   8    0.99    0.15 
   5   3  -8    0.69    0.15 
  -5   3   8    0.45    0.15 
  -4  -3   8    4.13    0.27 
   4  -3  -8    4.52    0.27 
  -4  -3   8    4.16    0.27 
  -4   3   8    4.65    0.28 
  -4   3   8    4.67    0.27 
   4   3  -8    4.31    0.26 
  -3  -3   8   24.19    0.90 
  -3  -3   8   22.45    0.93 
  -3   3   8   22.18    1.02 
  -3   3   8   23.83    0.93 
  -3   3   8   22.00    0.90 
   3   3  -8   24.76    1.04 
  -2  -3   8   12.01    0.52 
  -2  -3   8   12.59    0.50 
   2   3  -8   13.16    0.63 
  -2   3   8   12.51    0.50 
  -2   3   8   11.54    0.59 
  -2   3   8   11.96    0.50 
  -1  -3   8    2.15    0.14 
  -1  -3   8    1.90    0.14 
  -1   3   8    1.91    0.13 
  -1   3   8    1.73    0.19 
   1   3  -8    2.16    0.24 
  -1   3   8    2.18    0.14 
   0  -3   8   66.25    2.36 
   0  -3  -8   66.01    2.45 
   0  -3   8   66.40    2.45 
   0   3   8   63.02    2.34 
   0   3  -8   63.18    2.81 
   0   3   8   67.39    2.79 
   1  -3   8    4.38    0.22 
  -1  -3  -8    4.25    0.20 
   1   3   8    4.31    0.37 
   1   3   8    4.33    0.21 
  -1   3  -8    4.05    0.36 
   2  -3   8   27.79    1.05 
  -2  -3  -8   29.56    1.07 
   2   3   8   28.46    1.04 
  -2   3  -8   26.85    1.31 
   2   3   8   27.11    1.31 
   3  -3   8   23.75    0.88 
  -3  -3  -8   23.65    0.90 
  -3   3  -8   23.03    1.11 
   3   3   8   22.98    0.87 
   3   3   8   22.14    1.12 
  -4  -3  -8   11.60    0.66 
   4  -3   8   11.35    0.48 
  -4  -3  -8   11.51    0.48 
  -4   3  -8   11.83    0.64 
   4   3   8   10.88    0.46 
  -5  -3  -8    0.84    0.12 
  -5  -3  -8    1.02    0.21 
   5  -3   8    0.78    0.14 
  -5   3  -8    0.89    0.18 
   5   3   8    0.77    0.12 
  -6  -3  -8    6.31    0.42 
   6  -3   8    5.37    0.31 
   6   3   8    5.86    0.30 
  -6   3  -8    6.06    0.40 
   7  -3   8    0.41    0.13 
  -7  -3  -8    0.59    0.17 
   7   3   8    0.43    0.13 
  -7   3  -8    0.30    0.15 
   8  -3   8   -0.12    0.12 
   8   3   8   -0.11    0.12 
   9  -4  -8    1.79    0.20 
  -9  -4   8    1.20    0.19 
   9   4  -8    1.70    0.18 
  -9   4   8    1.56    0.21 
  -8  -4   8    0.02    0.14 
   8  -4  -8    0.04    0.12 
  -8   4   8    0.30    0.16 
   8   4  -8    0.19    0.11 
   7  -4  -8   20.69    0.82 
  -7  -4   8   19.82    0.88 
   7   4  -8   20.04    0.81 
  -7   4   8   20.69    0.89 
   6  -4  -8    0.10    0.10 
  -6  -4   8    0.03    0.13 
  -6   4   8    0.12    0.15 
   6   4  -8    0.16    0.11 
  -5  -4   8   18.17    0.79 
   5  -4  -8   18.40    0.75 
   5   4  -8   18.90    0.81 
  -5   4   8   18.02    0.79 
  -5   4   8   19.36    0.82 
   5   4  -8   17.69    0.76 
   4  -4  -8    1.95    0.17 
  -4  -4   8    1.62    0.17 
  -4  -4   8    1.86    0.19 
  -4   4   8    2.11    0.19 
  -4   4   8    1.55    0.17 
   4   4  -8    1.91    0.18 
  -3  -4   8   53.71    1.93 
   3  -4  -8   52.12    1.94 
  -3  -4   8   50.72    2.02 
   3   4  -8   54.83    2.24 
  -3   4   8   51.79    2.01 
  -3   4   8   52.69    2.22 
  -2  -4   8    1.48    0.12 
  -2  -4   8    1.15    0.12 
  -2   4   8    1.08    0.15 
   2   4  -8    1.35    0.20 
  -2   4   8    1.17    0.12 
  -2   4   8    1.14    0.12 
  -1  -4   8   43.25    1.63 
  -1  -4   8   42.48    1.57 
   1  -4  -8   42.30    1.63 
  -1   4   8   41.97    1.86 
   1   4  -8   46.39    1.91 
  -1   4   8   41.70    1.56 
   0  -4   8    1.81    0.11 
   0  -4  -8    1.86    0.13 
   0  -4   8    1.66    0.13 
   0   4   8    1.46    0.12 
   0   4  -8    1.52    0.24 
   0   4   8    1.91    0.23 
  -1  -4  -8   -0.03    0.06 
   1  -4   8   -0.03    0.04 
   1  -4   8    0.27    0.08 
   1   4   8    0.01    0.06 
  -1   4  -8    0.02    0.18 
   1   4   8   -0.10    0.14 
   2  -4   8    0.03    0.08 
  -2  -4  -8    0.08    0.07 
   2   4   8    0.29    0.17 
  -2   4  -8    0.22    0.17 
   2   4   8    0.07    0.07 
  -3  -4  -8    4.07    0.21 
   3  -4   8    3.77    0.22 
  -3   4  -8    3.68    0.34 
   3   4   8    4.07    0.36 
   3   4   8    3.77    0.20 
   4  -4   8    0.07    0.10 
  -4  -4  -8    0.03    0.08 
  -4   4  -8    0.09    0.15 
   4   4   8    0.15    0.16 
   4   4   8    0.06    0.08 
  -5  -4  -8    2.09    0.27 
   5  -4   8    2.11    0.18 
  -5  -4  -8    2.19    0.18 
  -5   4  -8    2.07    0.25 
   5   4   8    2.17    0.17 
   6  -4   8   -0.10    0.11 
  -6  -4  -8   -0.03    0.16 
   6   4   8    0.06    0.10 
  -6   4  -8    0.27    0.15 
   7  -4   8   18.73    0.79 
  -7  -4  -8   20.84    0.96 
  -7   4  -8   20.47    0.94 
   7   4   8   19.29    0.78 
   8  -4   8    0.55    0.16 
   8   4   8    0.52    0.13 
   9  -5  -8    0.19    0.14 
  -9  -5   8   -0.05    0.15 
  -9   5   8    0.35    0.16 
   9   5  -8    0.22    0.11 
   8  -5  -8    7.77    0.41 
  -8  -5   8    8.30    0.45 
  -8   5   8    8.31    0.47 
   8   5  -8    7.75    0.39 
  -7  -5   8    2.78    0.27 
   7  -5  -8    3.79    0.27 
  -7   5   8    3.49    0.29 
   7   5  -8    3.93    0.25 
   6  -5  -8    1.23    0.15 
  -6  -5   8    1.19    0.19 
   6   5  -8    1.02    0.14 
  -6   5   8    1.06    0.18 
   5  -5  -8    0.13    0.10 
  -5  -5   8   -0.04    0.11 
   5   5  -8    0.01    0.08 
   5   5  -8    0.05    0.10 
  -5   5   8   -0.04    0.11 
  -5   5   8   -0.07    0.09 
  -4  -5   8    0.37    0.11 
  -4  -5   8   -0.09    0.12 
   4  -5  -8    0.42    0.11 
  -4   5   8    0.26    0.12 
  -4   5   8    0.30    0.11 
   4   5  -8    0.29    0.11 
  -3  -5   8   27.44    1.07 
   3  -5  -8   26.48    1.03 
  -3  -5   8   27.08    1.03 
  -3   5   8   26.23    1.07 
  -3   5   8   27.37    1.19 
   3   5  -8   27.99    1.21 
  -2  -5   8   23.69    0.92 
  -2  -5   8   23.82    0.89 
   2   5  -8   25.04    1.09 
  -2   5   8   23.46    0.93 
  -2   5   8   23.18    1.06 
  -2   5   8   22.03    0.89 
  -1  -5   8    4.98    0.23 
   1  -5  -8    4.35    0.23 
  -1  -5   8    4.47    0.22 
   1   5  -8    4.48    0.36 
  -1   5   8    4.30    0.21 
  -1   5   8    4.14    0.31 
   0  -5   8   59.50    2.19 
   0  -5  -8   59.94    2.29 
   0  -5   8   64.03    2.28 
   0   5   8   61.51    2.61 
   0   5   8   60.19    2.18 
   0   5  -8   59.17    2.64 
  -1  -5  -8    0.08    0.07 
   1  -5   8    0.06    0.07 
   1  -5   8   -0.04    0.04 
   1   5   8   -0.10    0.05 
   1   5   8    0.03    0.17 
  -1   5  -8    0.19    0.17 
  -2  -5  -8   16.82    0.67 
   2  -5   8   16.40    0.65 
   2   5   8   17.39    0.89 
   2   5   8   17.32    0.64 
  -2   5  -8   16.44    0.86 
   3  -5   8    3.12    0.19 
  -3  -5  -8    3.51    0.20 
  -3   5  -8    3.41    0.33 
   3   5   8    3.32    0.18 
   3   5   8    2.58    0.31 
   4  -5   8   12.87    0.54 
  -4  -5  -8   13.40    0.55 
   4   5   8   12.54    0.52 
   4   5   8   12.58    0.71 
  -4   5  -8   13.57    0.69 
  -5  -5  -8    0.05    0.10 
   5  -5   8    0.06    0.11 
   5   5   8    0.07    0.17 
  -5   5  -8    0.04    0.14 
   5   5   8    0.10    0.09 
   6  -5   8    4.63    0.29 
  -6  -5  -8    4.81    0.40 
   6   5   8    4.80    0.26 
  -6   5  -8    5.08    0.37 
   7  -5   8    0.19    0.13 
  -7  -5  -8    0.41    0.18 
   7   5   8    0.10    0.10 
  -7   5  -8   -0.08    0.15 
   8  -5   8    0.76    0.16 
   8   5   8    0.55    0.13 
   9  -6  -8    0.53    0.16 
  -9  -6   8    0.68    0.19 
   9   6  -8    0.44    0.12 
  -9   6   8    0.68    0.19 
  -8  -6   8    0.07    0.16 
   8  -6  -8    0.36    0.14 
  -8   6   8    0.12    0.16 
   8   6  -8    0.34    0.11 
   7  -6  -8    6.14    0.34 
  -7  -6   8    5.34    0.36 
   7   6  -8    5.74    0.31 
  -7   6   8    5.34    0.39 
   6  -6  -8    4.35    0.29 
  -6  -6   8    3.99    0.31 
   6   6  -8    4.54    0.27 
  -6   6   8    4.40    0.31 
  -5  -6   8   34.62    1.39 
   5  -6  -8   36.05    1.33 
  -5   6   8   35.71    1.40 
   5   6  -8   32.69    1.32 
  -5   6   8   36.25    1.50 
   5   6  -8   34.39    1.50 
  -4  -6   8   14.45    0.61 
  -4  -6   8   14.19    0.61 
   4  -6  -8   14.56    0.58 
   4   6  -8   13.78    0.66 
  -4   6   8   13.30    0.61 
  -4   6   8   14.00    0.67 
   3  -6  -8   11.35    0.48 
  -3  -6   8   11.41    0.49 
  -3  -6   8   11.16    0.48 
   3   6  -8   10.99    0.58 
  -3   6   8   10.63    0.50 
  -3   6   8   11.78    0.57 
  -2  -6   8    1.62    0.14 
   2  -6  -8    1.67    0.16 
  -2  -6   8    1.50    0.13 
   2  -6  -8    1.61    0.14 
   2   6  -8    1.80    0.23 
  -2   6   8    1.37    0.18 
  -1  -6   8    6.99    0.30 
  -1  -6   8    6.20    0.29 
   1  -6  -8    6.46    0.31 
  -1   6   8    6.61    0.41 
   1   6  -8    6.84    0.44 
  -1   6   8    6.42    0.29 
   0  -6   8    5.53    0.27 
   0  -6  -8    5.52    0.28 
   0  -6   8    6.27    0.26 
   0   6  -8    5.74    0.42 
   0   6   8    5.57    0.39 
   0   6   8    5.31    0.24 
   1  -6   8    3.05    0.16 
   1  -6   8    3.02    0.19 
  -1  -6  -8    3.10    0.19 
   1   6   8    3.46    0.33 
   1   6   8    2.95    0.16 
  -1   6  -8    2.35    0.29 
   2  -6   8    2.11    0.17 
  -2  -6  -8    2.42    0.17 
   2   6   8    2.11    0.28 
  -2   6  -8    1.67    0.26 
   2   6   8    2.31    0.14 
   3  -6   8    6.92    0.33 
  -3  -6  -8    7.33    0.34 
   3   6   8    7.44    0.52 
   3   6   8    7.74    0.31 
  -3   6  -8    7.61    0.51 
  -4  -6  -8    8.76    0.39 
   4  -6   8    8.34    0.38 
   4   6   8    8.91    0.58 
  -4   6  -8    8.41    0.51 
   4   6   8    8.33    0.36 
   5  -6   8   12.17    0.53 
  -5  -6  -8   12.90    0.54 
  -5   6  -8   12.27    0.66 
   5   6   8   12.09    0.50 
   5   6   8   12.72    0.70 
   6  -6   8    2.94    0.24 
  -6  -6  -8    3.06    0.25 
  -6   6  -8    3.29    0.31 
   6   6   8    3.59    0.33 
   7  -6   8    0.52    0.14 
  -7  -6  -8    0.82    0.21 
  -7   6  -8    0.55    0.17 
   8  -7  -8    4.77    0.33 
  -8  -7   8    4.44    0.36 
   8   7  -8    4.83    0.28 
  -8   7   8    4.83    0.38 
   7  -7  -8    4.11    0.29 
  -7  -7   8    4.19    0.32 
  -7   7   8    3.06    0.29 
   7   7  -8    3.85    0.25 
   6  -7  -8    6.38    0.35 
  -6  -7   8    6.62    0.39 
   6   7  -8    6.82    0.34 
  -6   7   8    7.06    0.42 
   5  -7  -8   -0.02    0.11 
  -5  -7   8    0.07    0.13 
   5   7  -8    0.03    0.10 
   5   7  -8   -0.02    0.09 
  -5   7   8    0.08    0.11 
  -5   7   8    0.15    0.12 
   4  -7  -8    3.42    0.23 
  -4  -7   8    3.19    0.24 
   4   7  -8    3.15    0.25 
  -4   7   8    3.35    0.25 
  -4   7   8    2.96    0.27 
   4   7  -8    3.15    0.23 
   3  -7  -8    0.00    0.11 
  -3  -7   8    0.04    0.10 
  -3  -7   8    0.05    0.10 
  -3   7   8    0.25    0.13 
   3   7  -8    0.25    0.14 
  -2  -7   8    6.45    0.30 
   2  -7  -8    6.16    0.33 
  -2  -7   8    6.56    0.31 
   2   7  -8    6.51    0.42 
  -2   7   8    5.85    0.38 
   1  -7  -8    7.10    0.34 
  -1  -7   8    6.93    0.31 
  -1  -7   8    6.92    0.32 
   1   7  -8    7.59    0.48 
  -1   7   8    6.88    0.45 
   0  -7   8    0.68    0.10 
   0  -7   8    0.74    0.09 
   0  -7  -8    0.74    0.11 
   0   7  -8    0.47    0.19 
   0   7   8    0.85    0.19 
  -1  -7  -8   25.01    1.00 
   1  -7   8   25.26    0.95 
   1  -7   8   26.24    0.97 
   1   7   8   26.18    1.22 
  -1   7  -8   23.91    1.21 
   2  -7   8   19.08    0.74 
  -2  -7  -8   19.27    0.78 
   2   7   8   19.36    0.99 
  -2   7  -8   19.16    0.96 
  -3  -7  -8   19.08    0.74 
   3  -7   8   17.89    0.71 
   3   7   8   17.83    0.95 
  -3   7  -8   17.69    0.92 
   4  -7   8   15.82    0.63 
  -4  -7  -8   15.84    0.66 
   4   7   8   16.39    0.86 
  -4   7  -8   15.01    0.80 
  -5  -7  -8    2.69    0.22 
   5  -7   8    2.18    0.18 
   5   7   8    2.60    0.30 
  -5   7  -8    2.48    0.27 
  -6  -7  -8    0.48    0.14 
   6  -7   8    0.44    0.13 
  -6   7  -8    0.37    0.18 
   6   7   8    0.55    0.19 
  -7  -7  -8    0.19    0.19 
   7  -7   8    0.24    0.13 
  -7   7  -8    0.22    0.15 
  -8  -8   8    5.15    0.38 
  -8   8   8    4.64    0.39 
  -7  -8   8    0.31    0.16 
  -7   8   8    0.55    0.19 
   7   8  -8    0.56    0.12 
  -6  -8   8    7.41    0.43 
   6   8  -8    8.09    0.38 
  -6   8   8    7.97    0.46 
  -5  -8   8    5.89    0.34 
  -5   8   8    6.08    0.36 
  -5   8   8    5.98    0.36 
   5   8  -8    5.79    0.31 
   5   8  -8    5.28    0.34 
  -4  -8   8   12.30    0.55 
   4   8  -8   11.87    0.53 
   4   8  -8   12.59    0.62 
  -4   8   8   12.47    0.62 
  -3  -8   8    0.56    0.13 
   3  -8  -8    0.29    0.13 
  -3  -8   8    0.54    0.12 
  -3   8   8    0.44    0.14 
   3   8  -8    0.45    0.15 
  -2  -8   8   42.26    1.69 
   2  -8  -8   44.13    1.71 
  -2  -8   8   45.67    1.63 
  -2   8   8   41.54    1.92 
   2   8  -8   48.13    1.97 
  -1  -8   8    0.57    0.10 
  -1  -8   8    0.54    0.10 
   1  -8  -8    0.65    0.13 
   1   8  -8    0.40    0.20 
  -1   8   8    0.66    0.17 
   0  -8   8    0.52    0.09 
   0  -8  -8    0.49    0.12 
   0  -8   8    0.60    0.10 
   0   8  -8    0.36    0.19 
   0   8   8    0.61    0.21 
   1  -8   8    5.38    0.26 
  -1  -8  -8    5.08    0.28 
  -1   8  -8    5.26    0.43 
   1   8   8    5.07    0.43 
   2  -8   8    3.12    0.19 
  -2  -8  -8    2.92    0.21 
   2   8   8    3.22    0.36 
  -2   8  -8    2.93    0.33 
  -3  -8  -8    0.47    0.12 
   3  -8   8    0.35    0.10 
   3   8   8    0.57    0.23 
  -3   8  -8    0.31    0.19 
   4  -8   8    0.26    0.10 
  -4  -8  -8    0.27    0.12 
  -4   8  -8    0.09    0.16 
   4   8   8    0.30    0.22 
  -5  -8  -8    1.78    0.18 
   5  -8   8    1.32    0.15 
   5   8   8    1.78    0.29 
  -5   8  -8    1.08    0.20 
  -6  -8  -8    4.41    0.30 
   6  -8   8    4.11    0.26 
   6   8   8    4.30    0.39 
  -6   8  -8    4.20    0.35 
  -7  -9   8    1.27    0.20 
  -7   9   8    1.52    0.24 
  -6  -9   8    1.27    0.19 
  -6   9   8    1.52    0.22 
  -5  -9   8   -0.04    0.13 
   5  -9  -8    0.13    0.14 
  -5   9   8    0.12    0.13 
   5   9  -8    0.19    0.12 
   4  -9  -8    2.58    0.22 
  -4  -9   8    2.44    0.22 
  -4   9   8    2.17    0.24 
   4   9  -8    2.64    0.25 
  -3  -9   8    0.62    0.13 
   3  -9  -8    1.20    0.17 
  -3   9   8    0.71    0.17 
   3   9  -8    1.06    0.20 
   2  -9  -8    0.09    0.12 
  -2  -9   8    0.01    0.09 
   2   9  -8   -0.25    0.16 
  -2   9   8    0.03    0.15 
  -1  -9   8   20.45    0.85 
   1  -9  -8   20.58    0.87 
  -1  -9   8   22.33    0.83 
  -1   9   8   21.29    1.03 
   1   9  -8   22.88    1.09 
   0  -9  -8    2.69    0.20 
   0  -9   8    2.15    0.17 
   0  -9   8    2.65    0.18 
   0   9   8    2.23    0.28 
   0   9  -8    2.25    0.31 
  -1  -9  -8   23.48    0.97 
   1  -9   8   24.96    0.92 
  -1   9  -8   23.08    1.20 
   1   9   8   25.73    1.20 
   2  -9   8    0.53    0.10 
  -2  -9  -8    0.47    0.12 
   2   9   8    0.65    0.26 
  -2   9  -8    0.69    0.22 
  -3  -9  -8    3.66    0.26 
   3  -9   8    3.76    0.23 
  -3   9  -8    4.25    0.40 
   3   9   8    3.01    0.37 
  -4  -9  -8    0.89    0.14 
   4  -9   8    0.74    0.12 
   4   9   8    1.09    0.28 
  -4   9  -8    0.39    0.18 
  -5  -9  -8    3.73    0.28 
   5  -9   8    3.54    0.25 
   5   9   8    4.72    0.43 
  -5   9  -8    3.64    0.33 
   6  -9   8    0.00    0.11 
  -6  -9  -8   -0.06    0.13 
   6   9   8    0.27    0.20 
  -6   9  -8    0.06    0.16 
   6 -10  -8    2.16    0.22 
  -6 -10   8    2.04    0.22 
  -5 -10   8    3.51    0.28 
   5 -10  -8    3.80    0.29 
  -4 -10   8   13.85    0.61 
   4 -10  -8   13.86    0.63 
   4  10  -8   14.84    0.72 
  -4  10   8   13.57    0.70 
  -3 -10   8    0.43    0.13 
   3 -10  -8    0.36    0.13 
  -3  10   8    0.38    0.16 
   3  10  -8    0.44    0.17 
   2 -10  -8    9.83    0.47 
  -2 -10   8    9.21    0.43 
   2  10  -8   10.15    0.60 
  -2  10   8    9.06    0.55 
  -1 -10   8    0.19    0.10 
   1 -10  -8    0.12    0.11 
   1  10  -8    0.19    0.18 
  -1  10   8    0.16    0.18 
   0 -10   8    2.53    0.19 
   0 -10  -8    2.56    0.22 
   0  10  -8    2.38    0.32 
   0  10   8    2.50    0.29 
  -1 -10  -8    4.60    0.29 
   1  10   8    4.99    0.47 
  -1  10  -8    5.12    0.44 
  -2 -10  -8    0.44    0.13 
  -2  10  -8    0.02    0.18 
   2  10   8    0.20    0.24 
  -3 -10  -8    0.17    0.12 
  -3  10  -8    0.20    0.20 
   3  10   8   -0.16    0.20 
  -4 -10  -8    3.09    0.25 
  -4  10  -8    3.24    0.33 
   4  10   8    3.58    0.42 
  -5 -10  -8    3.39    0.27 
   5  10   8    3.83    0.40 
  -5  10  -8    3.46    0.33 
  -5 -11   8    0.33    0.14 
   5 -11  -8    0.37    0.16 
  -4 -11   8   -0.01    0.13 
   4 -11  -8    0.15    0.15 
   4  11  -8    0.22    0.14 
  -4  11   8    0.20    0.16 
  -3 -11   8    4.16    0.28 
   3 -11  -8    4.76    0.30 
  -3  11   8    4.58    0.36 
   3  11  -8    4.68    0.38 
   2 -11  -8    1.29    0.18 
  -2 -11   8    0.87    0.14 
  -2  11   8    1.33    0.23 
   2  11  -8    1.32    0.24 
   1 -11  -8    0.52    0.15 
  -1 -11   8    0.14    0.11 
  -1  11   8    0.25    0.19 
   1  11  -8    0.25    0.21 
   0 -11  -8    2.28    0.20 
   0  11  -8    2.88    0.34 
   0  11   8    3.23    0.35 
  -1 -11  -8    6.00    0.34 
  -1  11  -8    6.52    0.53 
   1  11   8    6.78    0.54 
  -2 -11  -8    7.93    0.40 
  -2  11  -8    8.44    0.58 
   2  11   8    7.82    0.59 
  -3 -11  -8   10.85    0.51 
  -3  11  -8   11.30    0.67 
   3  11   8   10.42    0.71 
  -4 -11  -8    1.40    0.18 
  -4  11  -8    1.31    0.23 
   4  11   8    1.58    0.32 
   4 -12  -8    2.76    0.25 
  -4 -12   8    2.30    0.22 
   4  12  -8    2.53    0.27 
  -4  12   8    3.33    0.31 
   3 -12  -8    4.83    0.33 
  -3 -12   8    4.67    0.30 
   3  12  -8    5.76    0.41 
  -3  12   8    4.38    0.37 
   2 -12  -8    0.62    0.17 
  -2 -12   8    0.54    0.13 
   2  12  -8    0.34    0.19 
  -2  12   8    0.55    0.18 
   1 -12  -8    1.82    0.19 
   1  12  -8    2.25    0.32 
  -1  12   8    2.02    0.27 
   0 -12  -8    0.27    0.14 
   0  12  -8    0.51    0.25 
   0  12   8    0.46    0.20 
  -1 -12  -8    0.16    0.13 
  -1  12  -8    0.09    0.22 
   1  12   8    0.27    0.22 
  -2 -12  -8    0.65    0.15 
   2  12   8    0.46    0.25 
  -2  12  -8    0.90    0.25 
 -10   0   9    0.11    0.12 
  10   0  -9    0.15    0.13 
   9   0  -9    5.41    0.33 
  -9   0   9    5.49    0.32 
   8   0  -9    0.07    0.12 
  -8   0   9    0.16    0.13 
   7   0  -9    0.05    0.12 
  -7   0   9    0.14    0.13 
  -6   0   9    0.15    0.12 
   6   0  -9    0.15    0.11 
   5   0  -9    0.94    0.16 
  -5   0   9    1.50    0.17 
  -4   0   9   -0.01    0.10 
   4   0  -9   -0.05    0.08 
  -4   0   9   -0.01    0.11 
   3   0  -9   77.92    3.13 
  -3   0   9   68.64    2.83 
  -3   0   9   77.19    2.71 
  -2   0   9   -0.10    0.06 
   2   0  -9    0.05    0.11 
  -2   0   9    0.12    0.08 
   1   0  -9   20.73    0.97 
  -1   0   9   20.76    0.78 
  -1   0   9   20.27    0.78 
   0   0  -9    0.04    0.03 
   0   0   9    0.04    0.07 
   0   0  -9    0.15    0.15 
   1   0   9   10.59    0.42 
  -1   0  -9    9.57    0.60 
   2   0   9    0.12    0.08 
  -2   0  -9   -0.15    0.16 
   3   0   9   76.60    2.72 
  -3   0  -9   74.12    3.24 
   4   0   9    0.01    0.09 
  -4   0  -9    0.04    0.16 
  -5   0  -9    2.92    0.31 
   5   0   9    2.90    0.22 
  -6   0  -9    0.08    0.15 
   6   0   9    0.01    0.10 
   7   0   9    6.23    0.33 
  -7   0  -9    6.63    0.44 
   8   0   9   -0.09    0.13 
  10  -1  -9    2.71    0.24 
 -10  -1   9    2.79    0.25 
 -10   1   9    3.12    0.27 
  10   1  -9    2.78    0.24 
   9  -1  -9    0.89    0.16 
  -9  -1   9    1.01    0.17 
  -9   1   9    0.95    0.16 
   9   1  -9    0.89    0.15 
  -8  -1   9    8.74    0.43 
   8  -1  -9    8.36    0.42 
   8   1  -9    7.42    0.41 
  -8   1   9    8.22    0.43 
   7  -1  -9    9.76    0.47 
  -7  -1   9   10.27    0.48 
   7   1  -9    9.89    0.48 
  -7   1   9   11.14    0.50 
  -6  -1   9   32.31    1.30 
   6  -1  -9   32.60    1.26 
  -6   1   9   33.27    1.31 
   6   1  -9   32.59    1.26 
   5  -1  -9    0.19    0.13 
  -5  -1   9    0.14    0.11 
  -5   1   9    0.03    0.10 
   5   1  -9    0.14    0.12 
  -4  -1   9   52.54    1.92 
  -4  -1   9   49.48    1.84 
   4  -1  -9   49.45    2.08 
  -4   1   9   48.65    1.84 
   4   1  -9   49.31    2.08 
  -4   1   9   46.83    1.91 
   3  -1  -9    1.03    0.14 
  -3  -1   9    1.03    0.13 
  -3  -1   9    0.73    0.12 
   3   1  -9    0.86    0.14 
  -3   1   9    0.89    0.12 
  -3   1   9    1.00    0.12 
  -2  -1   9    8.96    0.38 
   2  -1  -9    8.82    0.48 
  -2  -1   9    7.90    0.39 
  -2   1   9    9.02    0.37 
  -2   1   9    8.88    0.38 
   2   1  -9    9.25    0.49 
  -1  -1   9    9.08    0.37 
  -1  -1   9    8.51    0.35 
   1  -1  -9    8.74    0.49 
  -1   1   9    8.30    0.37 
   1   1  -9    9.33    0.52 
  -1   1   9    8.90    0.36 
   0  -1  -9    2.80    0.13 
   0  -1  -9    2.96    0.30 
   0  -1   9    2.64    0.17 
   0   1   9    2.51    0.17 
   0   1  -9    3.19    0.30 
  -1  -1  -9    4.22    0.38 
  -1  -1  -9    4.91    0.20 
   1  -1   9    5.28    0.25 
   1   1   9    5.22    0.25 
  -1   1  -9    5.25    0.43 
  -2  -1  -9   17.55    0.90 
   2  -1   9   16.81    0.66 
  -2   1  -9   16.72    0.88 
   2   1   9   17.45    0.66 
  -3  -1  -9   23.96    1.18 
   3  -1   9   24.17    0.92 
   3   1   9   25.46    0.92 
  -3   1  -9   23.75    1.17 
   4  -1   9   17.63    0.69 
  -4  -1  -9   17.76    0.90 
  -4   1  -9   17.13    0.89 
   4   1   9   17.63    0.69 
  -5  -1  -9    0.06    0.17 
   5  -1   9    0.11    0.10 
   5   1   9    0.01    0.09 
  -5   1  -9   -0.01    0.14 
  -6  -1  -9   12.93    0.71 
   6  -1   9   14.00    0.58 
   6   1   9   13.35    0.56 
  -6   1  -9   13.29    0.70 
   7  -1   9    0.20    0.13 
  -7  -1  -9    0.40    0.17 
   7   1   9    0.34    0.13 
  -7   1  -9    0.11    0.16 
   8  -1   9    2.32    0.21 
   8   1   9    2.17    0.19 
 -10  -2   9    2.45    0.23 
  10  -2  -9    1.93    0.21 
 -10   2   9    2.21    0.21 
  10   2  -9    2.36    0.21 
  -9  -2   9    2.34    0.22 
   9  -2  -9    3.25    0.26 
  -9   2   9    3.51    0.28 
   9   2  -9    2.43    0.22 
   8  -2  -9    0.46    0.13 
  -8  -2   9    0.43    0.15 
   8   2  -9    0.64    0.13 
  -8   2   9    0.99    0.17 
   7  -2  -9    0.03    0.12 
  -7  -2   9    0.13    0.11 
  -7   2   9    0.42    0.14 
   7   2  -9    0.24    0.13 
   6  -2  -9    6.37    0.35 
  -6  -2   9    7.00    0.37 
   6   2  -9    7.30    0.37 
  -6   2   9    6.59    0.38 
  -5  -2   9    8.25    0.40 
   5  -2  -9    7.73    0.40 
   5   2  -9    7.95    0.41 
  -5   2   9    7.66    0.41 
  -4  -2   9    2.11    0.18 
   4  -2  -9    2.31    0.19 
  -4  -2   9    1.90    0.20 
  -4   2   9    1.73    0.18 
   4   2  -9    2.26    0.18 
  -3  -2   9   17.34    0.67 
   3  -2  -9   15.43    0.74 
  -3  -2   9   15.19    0.64 
   3   2  -9   16.35    0.75 
  -3   2   9   15.66    0.64 
  -3   2   9   15.38    0.65 
  -2  -2   9   11.68    0.46 
  -2  -2   9   10.21    0.43 
  -2   2   9   10.64    0.53 
  -2   2   9    9.95    0.43 
   2   2  -9    9.94    0.55 
  -2   2   9   10.10    0.43 
  -1  -2   9   36.08    1.41 
  -1  -2   9   37.45    1.37 
   1   2  -9   38.05    1.66 
  -1   2   9   37.64    1.37 
  -1   2   9   37.71    1.41 
  -1   2   9   36.86    1.63 
   0  -2   9   40.08    1.46 
   0  -2  -9   41.05    1.50 
   0   2  -9   37.97    1.77 
   0   2   9   39.26    1.45 
   0   2   9   40.29    1.76 
   1  -2   9   34.32    1.25 
  -1  -2  -9   34.74    1.28 
  -1  -2  -9   35.27    1.55 
  -1   2  -9   31.17    1.54 
   1   2   9   33.64    1.24 
  -2  -2  -9    9.27    0.37 
  -2  -2  -9    8.84    0.56 
   2  -2   9    9.19    0.39 
   2   2   9    9.21    0.38 
  -2   2  -9    8.97    0.57 
  -3  -2  -9    2.88    0.33 
   3  -2   9    3.00    0.19 
   3   2   9    2.96    0.19 
  -3   2  -9    2.99    0.31 
   4  -2   9    0.23    0.10 
  -4  -2  -9    0.18    0.19 
   4   2   9    0.14    0.09 
  -4   2  -9    0.08    0.18 
   5  -2   9    0.27    0.12 
  -5  -2  -9    0.47    0.18 
  -5   2  -9    0.49    0.19 
   5   2   9    0.40    0.10 
   6  -2   9    2.33    0.20 
  -6  -2  -9    2.71    0.29 
   6   2   9    2.52    0.21 
  -6   2  -9    2.39    0.26 
  -7  -2  -9    0.01    0.16 
   7  -2   9    0.06    0.11 
   7   2   9    0.26    0.12 
  -7   2  -9   -0.05    0.15 
   8  -2   9    0.30    0.15 
   8   2   9    0.44    0.13 
  -9  -3   9    2.96    0.25 
   9  -3  -9    2.79    0.23 
   9   3  -9    2.70    0.22 
  -9   3   9    3.24    0.29 
   8  -3  -9    6.66    0.38 
  -8  -3   9    7.46    0.41 
   8   3  -9    7.04    0.38 
  -8   3   9    8.16    0.43 
   7  -3  -9   11.06    0.51 
  -7  -3   9   10.90    0.53 
   7   3  -9   10.60    0.51 
  -7   3   9   12.50    0.56 
   6  -3  -9   11.47    0.49 
  -6  -3   9   10.40    0.50 
   6   3  -9   10.40    0.49 
  -6   3   9    9.81    0.52 
   5  -3  -9   47.95    1.75 
  -5  -3   9   46.49    1.82 
   5   3  -9   47.94    1.77 
  -5   3   9   45.03    1.83 
  -4  -3   9    3.05    0.26 
  -4  -3   9    3.15    0.23 
   4  -3  -9    3.62    0.25 
   4   3  -9    3.06    0.23 
  -4   3   9    3.45    0.24 
  -4   3   9    3.53    0.23 
  -3  -3   9   24.84    1.03 
  -3  -3   9   26.24    0.99 
   3   3  -9   28.05    1.16 
  -3   3   9   25.44    1.00 
  -3   3   9   25.86    1.02 
  -3   3   9   25.10    1.14 
  -2  -3   9    8.07    0.37 
  -2  -3   9    8.51    0.38 
   2   3  -9    8.82    0.48 
  -2   3   9    8.04    0.36 
  -2   3   9    8.07    0.36 
  -2   3   9    8.27    0.45 
   1  -3  -9   -0.01    0.06 
  -1  -3   9    0.07    0.08 
  -1  -3   9    0.11    0.07 
   1   3  -9    0.03    0.14 
  -1   3   9    0.02    0.07 
  -1   3   9    0.14    0.13 
   0  -3  -9    5.46    0.24 
   0  -3   9    5.36    0.26 
   0   3   9    4.96    0.24 
   0   3   9    5.11    0.37 
   0   3  -9    5.11    0.40 
  -1  -3  -9    9.32    0.37 
   1  -3   9    8.94    0.39 
   1   3   9    8.74    0.37 
   1   3   9    8.79    0.56 
  -1   3  -9    8.62    0.55 
  -2  -3  -9   21.61    0.80 
   2  -3   9   21.08    0.80 
   2   3   9   20.72    0.79 
   2   3   9   20.96    1.05 
  -2   3  -9   19.33    1.03 
  -3  -3  -9    6.92    0.30 
   3  -3   9    6.74    0.32 
   3   3   9    6.59    0.31 
  -3   3  -9    7.96    0.50 
   4  -3   9    1.38    0.14 
  -4  -3  -9    1.95    0.28 
  -4   3  -9    1.98    0.27 
   4   3   9    1.88    0.15 
   5  -3   9   14.84    0.61 
  -5  -3  -9   14.38    0.78 
   5   3   9   14.50    0.59 
  -5   3  -9   14.27    0.74 
   6  -3   9    0.99    0.16 
  -6  -3  -9    1.12    0.22 
  -6   3  -9    1.50    0.22 
   6   3   9    1.18    0.14 
   7  -3   9    6.40    0.34 
  -7  -3  -9    7.00    0.44 
  -7   3  -9    6.52    0.42 
   7   3   9    5.52    0.32 
   8  -3   9    3.05    0.24 
   8   3   9    2.77    0.24 
   9  -4  -9    1.88    0.19 
  -9  -4   9    1.53    0.20 
   9   4  -9    1.47    0.17 
  -9   4   9    2.01    0.22 
  -8  -4   9   -0.08    0.12 
   8  -4  -9    0.17    0.13 
   8   4  -9    0.19    0.12 
  -8   4   9    0.07    0.15 
  -7  -4   9    0.29    0.14 
   7  -4  -9    0.33    0.12 
  -7   4   9    0.26    0.16 
   7   4  -9    0.30    0.11 
   6  -4  -9    0.67    0.13 
  -6  -4   9    0.73    0.16 
  -6   4   9    0.52    0.17 
   6   4  -9    0.93    0.15 
  -5  -4   9    0.57    0.14 
   5  -4  -9    0.47    0.12 
  -5   4   9    0.40    0.14 
   5   4  -9    0.70    0.15 
   4  -4  -9    7.49    0.37 
  -4  -4   9    6.89    0.37 
  -4  -4   9    7.84    0.39 
   4   4  -9    7.70    0.40 
  -4   4   9    7.63    0.40 
  -4   4   9    7.95    0.39 
  -3  -4   9    1.12    0.13 
  -3  -4   9    1.14    0.14 
  -3   4   9    0.76    0.13 
  -3   4   9    1.38    0.17 
  -3   4   9    1.21    0.13 
   3   4  -9    1.31    0.17 
  -2  -4   9   57.84    2.16 
  -2  -4   9   59.81    2.26 
  -2   4   9   59.89    2.53 
  -2   4   9   59.12    2.16 
   2   4  -9   64.26    2.56 
  -2   4   9   57.19    2.26 
   1  -4  -9    8.59    0.37 
  -1  -4   9    8.34    0.37 
  -1  -4   9    8.60    0.37 
  -1   4   9    8.76    0.49 
   1   4  -9    8.22    0.52 
  -1   4   9    8.33    0.35 
   0  -4   9   38.17    1.40 
   0  -4  -9   35.20    1.40 
   0  -4   9   35.84    1.35 
   0   4   9   36.11    1.34 
   0   4  -9   37.31    1.68 
   0   4   9   38.98    1.66 
   1  -4   9    1.29    0.12 
  -1  -4  -9    1.45    0.12 
   1   4   9    1.45    0.24 
  -1   4  -9    1.51    0.24 
   1   4   9    1.17    0.11 
   2  -4   9   15.73    0.62 
  -2  -4  -9   15.94    0.62 
   2   4   9   15.89    0.60 
  -2   4  -9   14.85    0.83 
   2   4   9   15.95    0.84 
   3  -4   9   -0.06    0.09 
  -3  -4  -9    0.03    0.07 
   3   4   9    0.23    0.20 
   3   4   9    0.07    0.07 
  -3   4  -9    0.09    0.17 
  -4  -4  -9   17.23    0.69 
   4  -4   9   16.34    0.67 
   4   4   9   17.31    0.90 
  -4   4  -9   17.24    0.87 
   4   4   9   16.98    0.66 
   5  -4   9    0.19    0.12 
  -5  -4  -9   -0.04    0.18 
  -5   4  -9    0.24    0.17 
   5   4   9    0.19    0.10 
  -6  -4  -9    1.44    0.24 
   6  -4   9    1.47    0.17 
  -6   4  -9    1.28    0.22 
   6   4   9    1.53    0.15 
   7  -4   9   -0.02    0.13 
  -7  -4  -9    0.23    0.17 
  -7   4  -9    0.02    0.15 
   7   4   9   -0.05    0.10 
   8  -4   9    2.40    0.21 
   8   4   9    1.93    0.18 
  -9  -5   9    5.80    0.38 
   9  -5  -9    5.82    0.35 
   9   5  -9    5.85    0.33 
  -9   5   9    6.62    0.40 
  -8  -5   9    1.91    0.22 
   8  -5  -9    1.88    0.19 
  -8   5   9    2.65    0.26 
   8   5  -9    2.19    0.19 
  -7  -5   9   10.41    0.52 
   7  -5  -9   10.21    0.47 
   7   5  -9    9.98    0.47 
  -7   5   9    9.95    0.54 
   6  -5  -9    3.45    0.23 
  -6  -5   9    2.59    0.24 
   6   5  -9    2.76    0.22 
  -6   5   9    2.82    0.27 
   5  -5  -9   28.06    1.07 
  -5  -5   9   26.47    1.13 
  -5   5   9   28.84    1.23 
   5   5  -9   26.52    1.09 
  -5   5   9   28.84    1.14 
  -4  -5   9    1.83    0.18 
   4  -5  -9    1.73    0.16 
  -4  -5   9    1.84    0.19 
  -4   5   9    1.97    0.19 
  -4   5   9    2.05    0.19 
   4   5  -9    2.17    0.20 
  -3  -5   9    9.10    0.41 
  -3  -5   9    9.20    0.41 
   3  -5  -9    8.37    0.41 
  -3   5   9    9.12    0.47 
  -3   5   9    8.48    0.41 
   3   5  -9    9.21    0.48 
  -2  -5   9    1.24    0.13 
  -2  -5   9    1.51    0.13 
   2   5  -9    1.39    0.20 
  -2   5   9    0.93    0.16 
  -2   5   9    1.10    0.12 
  -2   5   9    1.08    0.12 
  -1  -5   9    0.25    0.09 
   1  -5  -9    0.25    0.08 
  -1  -5   9    0.36    0.08 
  -1   5   9    0.44    0.16 
  -1   5   9    0.33    0.08 
   1   5  -9    0.69    0.18 
   0  -5   9    1.76    0.12 
   0  -5  -9    1.92    0.15 
   0  -5   9    1.91    0.16 
   0   5   9    1.60    0.22 
   0   5  -9    2.10    0.28 
   0   5   9    2.00    0.13 
   1  -5   9    0.87    0.11 
  -1  -5  -9    0.91    0.10 
   1   5   9    0.78    0.09 
   1   5   9    0.91    0.23 
  -1   5  -9    0.62    0.20 
  -2  -5  -9    7.43    0.32 
   2  -5   9    6.61    0.32 
   2   5   9    6.68    0.49 
  -2   5  -9    6.92    0.51 
   2   5   9    7.44    0.31 
  -3  -5  -9    9.01    0.38 
   3  -5   9    8.72    0.37 
   3   5   9    7.89    0.57 
  -3   5  -9    8.10    0.53 
   3   5   9    8.10    0.35 
  -4  -5  -9    2.84    0.19 
   4  -5   9    2.62    0.21 
   4   5   9    2.81    0.32 
  -4   5  -9    2.80    0.31 
   4   5   9    2.68    0.18 
   5  -5   9   24.27    0.94 
  -5   5  -9   24.50    1.15 
   5   5   9   25.21    1.19 
   5   5   9   23.87    0.92 
  -6  -5  -9    0.53    0.21 
   6  -5   9    0.22    0.13 
  -6   5  -9    0.39    0.18 
   6   5   9    0.27    0.10 
   7  -5   9    4.52    0.31 
  -7  -5  -9    5.87    0.43 
  -7   5  -9    5.34    0.37 
   7   5   9    4.49    0.27 
  -9   6   9    1.98    0.24 
   8  -6  -9    4.08    0.28 
  -8  -6   9    4.24    0.33 
   8   6  -9    3.52    0.25 
  -8   6   9    3.91    0.35 
   7  -6  -9    2.02    0.19 
  -7  -6   9    1.83    0.23 
  -7   6   9    1.85    0.25 
   7   6  -9    2.30    0.20 
   6  -6  -9    1.43    0.16 
  -6  -6   9    1.06    0.18 
   6   6  -9    1.13    0.15 
  -6   6   9    0.51    0.17 
  -5  -6   9    8.44    0.43 
   5  -6  -9    8.47    0.40 
   5   6  -9    7.12    0.40 
  -5   6   9    8.03    0.44 
  -5   6   9    8.96    0.44 
   4  -6  -9    6.67    0.32 
  -4  -6   9    6.51    0.34 
  -4  -6   9    6.12    0.35 
   4   6  -9    6.11    0.37 
  -4   6   9    6.56    0.35 
  -4   6   9    5.94    0.36 
  -3  -6   9    1.71    0.16 
   3  -6  -9    1.88    0.16 
  -3  -6   9    1.82    0.17 
   3   6  -9    1.85    0.21 
  -3   6   9    1.53    0.18 
  -3   6   9    1.34    0.14 
  -2  -6   9   29.54    1.13 
  -2  -6   9   30.68    1.18 
   2  -6  -9   29.29    1.18 
   2   6  -9   32.50    1.38 
  -2   6   9   29.47    1.35 
   1  -6  -9    5.02    0.26 
  -1  -6   9    4.81    0.24 
  -1  -6   9    4.56    0.25 
   1   6  -9    5.22    0.38 
  -1   6   9    5.29    0.37 
  -1   6   9    4.85    0.24 
   0  -6  -9   36.05    1.40 
   0  -6   9   37.49    1.40 
   0  -6   9   35.61    1.34 
   0   6  -9   37.18    1.67 
   0   6   9   36.22    1.33 
   0   6   9   36.63    1.64 
   1  -6   9   18.43    0.73 
  -1  -6  -9   18.72    0.76 
   1   6   9   19.94    0.71 
   1   6   9   18.91    0.95 
  -1   6  -9   18.37    0.96 
  -2  -6  -9   12.66    0.54 
   2  -6   9   12.88    0.52 
   2   6   9   13.52    0.50 
   2   6   9   12.72    0.75 
  -2   6  -9   12.51    0.72 
   3  -6   9    0.21    0.10 
  -3  -6  -9    0.25    0.09 
  -3   6  -9    0.16    0.18 
   3   6   9    0.20    0.08 
   3   6   9   -0.05    0.18 
  -4  -6  -9    1.05    0.13 
   4  -6   9    1.07    0.13 
   4   6   9    1.32    0.27 
   4   6   9    1.10    0.11 
  -4   6  -9    1.41    0.24 
   5  -6   9    0.02    0.10 
  -5   6  -9    0.55    0.19 
   5   6   9    0.31    0.18 
   6  -6   9    0.11    0.12 
  -6  -6  -9    0.25    0.19 
  -6   6  -9   -0.13    0.16 
  -7  -6  -9    0.18    0.19 
   7  -6   9    0.14    0.13 
  -7   6  -9    0.13    0.16 
  -8  -7   9    6.05    0.41 
   8  -7  -9    7.33    0.39 
  -8   7   9    6.29    0.44 
   8   7  -9    6.25    0.34 
   7  -7  -9   16.35    0.69 
  -7  -7   9   15.92    0.75 
   7   7  -9   16.37    0.68 
  -7   7   9   17.31    0.78 
   6  -7  -9    5.71    0.31 
  -6  -7   9    5.36    0.36 
   6   7  -9    5.58    0.30 
  -6   7   9    5.61    0.38 
  -5  -7   9    3.97    0.28 
   5  -7  -9    3.74    0.25 
  -5   7   9    3.36    0.27 
  -5   7   9    3.63    0.27 
   5   7  -9    3.33    0.24 
   4  -7  -9   13.89    0.58 
  -4  -7   9   13.16    0.58 
  -4  -7   9   13.73    0.59 
  -4   7   9   13.29    0.65 
   4   7  -9   12.68    0.64 
  -4   7   9   12.74    0.59 
  -3  -7   9    0.26    0.10 
   3  -7  -9    0.28    0.12 
  -3  -7   9    0.43    0.12 
  -3   7   9    0.36    0.14 
   3   7  -9    0.25    0.14 
  -2  -7   9    3.61    0.22 
  -2  -7   9    3.50    0.23 
   2  -7  -9    3.86    0.24 
  -2   7   9    3.58    0.31 
   2   7  -9    3.93    0.34 
   1  -7  -9    6.34    0.32 
  -1  -7   9    6.43    0.30 
  -1  -7   9    6.02    0.29 
   1   7  -9    6.44    0.47 
  -1   7   9    6.28    0.41 
   0  -7   9    0.71    0.10 
   0  -7  -9    0.66    0.11 
   0   7  -9    0.89    0.21 
   0   7   9    0.62    0.19 
  -1  -7  -9   -0.04    0.08 
   1  -7   9    0.12    0.09 
  -1   7  -9    0.33    0.20 
   1   7   9   -0.14    0.19 
  -2  -7  -9    1.25    0.13 
   2  -7   9    1.15    0.12 
  -2   7  -9    1.50    0.26 
   2   7   9    0.94    0.23 
  -3  -7  -9   11.28    0.47 
   3  -7   9   10.10    0.45 
   3   7   9    9.80    0.67 
  -3   7  -9   10.46    0.63 
  -4  -7  -9    3.71    0.24 
   4  -7   9    3.75    0.24 
  -4   7  -9    4.01    0.38 
   4   7   9    4.05    0.41 
  -5  -7  -9    1.71    0.17 
   5  -7   9    1.28    0.15 
   5   7   9    1.46    0.28 
  -5   7  -9    1.52    0.23 
   6  -7   9    4.83    0.29 
  -6   7  -9    4.95    0.38 
   6   7   9    5.01    0.42 
  -7  -8   9    0.28    0.17 
  -7   8   9    0.51    0.20 
   7   8  -9    0.36    0.11 
  -6  -8   9   -0.06    0.14 
   6   8  -9    0.28    0.10 
  -6   8   9    0.36    0.17 
  -5  -8   9    0.00    0.13 
  -5   8   9    0.03    0.12 
   5   8  -9    0.11    0.10 
  -4  -8   9    0.87    0.15 
   4  -8  -9    0.63    0.14 
   4   8  -9    0.87    0.14 
   4   8  -9    0.90    0.16 
  -4   8   9    0.71    0.16 
  -3  -8   9   24.67    0.93 
  -3  -8   9   22.78    0.95 
   3  -8  -9   23.22    0.97 
  -3   8   9   22.88    1.08 
   3   8  -9   25.00    1.10 
   2  -8  -9    0.26    0.11 
  -2  -8   9    0.54    0.11 
  -2  -8   9    0.61    0.11 
   2   8  -9    0.79    0.20 
  -2   8   9    0.61    0.18 
   1  -8  -9   26.03    1.07 
  -1  -8   9   27.10    1.01 
  -1  -8   9   26.77    1.05 
  -1   8   9   26.05    1.24 
   1   8  -9   28.56    1.29 
   0  -8   9    3.21    0.21 
   0  -8  -9    3.06    0.22 
   0   8   9    3.76    0.35 
   0   8  -9    3.36    0.35 
  -1  -8  -9    9.35    0.44 
   1  -8   9    9.97    0.42 
   1   8   9   10.85    0.62 
  -1   8  -9    9.56    0.64 
  -2  -8  -9    2.28    0.19 
   2  -8   9    2.17    0.18 
   2   8   9    2.45    0.34 
  -2   8  -9    3.17    0.35 
   3  -8   9    8.76    0.39 
  -3  -8  -9    9.00    0.41 
  -3   8  -9    8.44    0.55 
   3   8   9    8.49    0.63 
  -4  -8  -9    0.41    0.13 
   4  -8   9    0.25    0.11 
   4   8   9    0.45    0.22 
  -4   8  -9    0.64    0.20 
  -5  -8  -9   -0.05    0.11 
   5  -8   9    0.04    0.11 
  -5   8  -9    0.12    0.18 
   5   8   9   -0.12    0.20 
   6  -8   9   -0.07    0.11 
  -6   8  -9   -0.09    0.16 
   6   8   9   -0.16    0.18 
  -7  -9   9    1.26    0.20 
  -7   9   9    1.49    0.23 
  -6  -9   9    2.47    0.23 
  -6   9   9    2.65    0.26 
   5  -9  -9    1.48    0.18 
  -5  -9   9    1.66    0.20 
  -4  -9   9   11.82    0.55 
   4  -9  -9   11.78    0.56 
  -4   9   9   12.51    0.63 
   4   9  -9   12.94    0.63 
   3  -9  -9    0.78    0.15 
  -3  -9   9    0.68    0.13 
  -3   9   9    0.94    0.19 
   3   9  -9    0.77    0.17 
  -2  -9   9    3.05    0.22 
  -2  -9   9    2.95    0.21 
   2  -9  -9    2.63    0.24 
  -2   9   9    2.62    0.27 
   2   9  -9    3.25    0.32 
  -1  -9   9    0.43    0.11 
   1  -9  -9    0.29    0.12 
  -1  -9   9    0.43    0.10 
   1   9  -9    0.70    0.23 
  -1   9   9    0.28    0.17 
   0  -9   9    2.64    0.18 
   0  -9  -9    2.43    0.21 
   0   9   9    2.11    0.28 
   0   9  -9    3.19    0.36 
  -1  -9  -9    1.26    0.15 
   1  -9   9    1.36    0.13 
  -1   9  -9    1.20    0.25 
   1   9   9    1.17    0.25 
   2  -9   9    2.43    0.18 
  -2  -9  -9    2.13    0.18 
   2   9   9    2.55    0.36 
  -2   9  -9    2.39    0.30 
  -3  -9  -9    0.53    0.13 
   3  -9   9    0.41    0.11 
   3   9   9    1.00    0.29 
  -3   9  -9    0.70    0.23 
  -4  -9  -9    7.12    0.36 
   4  -9   9    6.83    0.34 
   4   9   9    7.71    0.56 
  -4   9  -9    7.00    0.48 
   5  -9   9    0.06    0.10 
  -5  -9  -9    0.03    0.13 
  -5   9  -9    0.24    0.18 
   5   9   9    0.54    0.22 
  -6 -10   9   -0.11    0.15 
   6 -10  -9    0.12    0.14 
  -5 -10   9    3.09    0.27 
   5 -10  -9    2.78    0.24 
   4 -10  -9    1.07    0.16 
  -4 -10   9    1.09    0.16 
  -4  10   9    1.17    0.20 
   4  10  -9    1.03    0.19 
   3 -10  -9    8.19    0.43 
  -3 -10   9    7.90    0.40 
  -3  10   9    8.06    0.49 
   3  10  -9    8.90    0.51 
  -2 -10   9   -0.03    0.11 
   2 -10  -9   -0.02    0.12 
  -2  10   9    0.07    0.17 
   2  10  -9    0.15    0.18 
   1 -10  -9   12.07    0.56 
  -1  10   9   12.75    0.69 
   1  10  -9   13.02    0.72 
   0 -10  -9    7.97    0.40 
   0  10   9    8.12    0.56 
   0  10  -9    8.92    0.58 
  -1 -10  -9    8.97    0.43 
  -1  10  -9    9.02    0.60 
   1  10   9    8.68    0.61 
  -2 -10  -9    2.07    0.18 
  -2  10  -9    1.12    0.26 
   2  10   9    1.81    0.33 
  -3 -10  -9    0.98    0.15 
  -3  10  -9    0.76    0.22 
   3  10   9    0.94    0.30 
  -4 -10  -9    0.59    0.14 
  -4  10  -9    0.52    0.21 
   4  10   9    0.77    0.29 
   5 -11  -9    3.69    0.30 
  -5 -11   9    3.34    0.30 
   4 -11  -9    1.33    0.19 
  -4 -11   9    1.09    0.17 
  -4  11   9    1.06    0.20 
   4  11  -9    1.16    0.20 
  -3 -11   9    0.70    0.14 
   3 -11  -9    1.17    0.18 
   3  11  -9    1.02    0.21 
  -3  11   9    0.65    0.19 
   2 -11  -9    4.49    0.31 
  -2  11   9    4.31    0.35 
   2  11  -9    4.45    0.39 
   1 -11  -9   -0.07    0.12 
   1  11  -9    0.31    0.19 
  -1  11   9    0.15    0.19 
   0 -11  -9    0.26    0.13 
   0  11  -9    0.60    0.25 
   0  11   9    0.11    0.21 
  -1 -11  -9   -0.25    0.11 
  -1  11  -9    0.26    0.21 
   1  11   9   -0.06    0.23 
  -2 -11  -9    6.89    0.37 
   2  11   9    7.20    0.60 
  -2  11  -9    7.33    0.55 
  -3 -11  -9    0.81    0.16 
   3  11   9    0.72    0.30 
  -3  11  -9    0.98    0.25 
   3 -12  -9    0.05    0.13 
  -3  12   9   -0.03    0.15 
   3  12  -9    0.03    0.17 
   2 -12  -9    5.35    0.34 
   2  12  -9    5.55    0.45 
  -2  12   9    5.09    0.41 
   1 -12  -9    0.27    0.14 
  -1  12   9    0.02    0.18 
   1  12  -9    0.50    0.23 
   0 -12  -9    4.63    0.30 
   0  12   9    4.96    0.45 
   0  12  -9    4.26    0.44 
  -1 -12  -9    3.48    0.26 
  -1  12  -9    3.03    0.37 
   1  12   9    4.01    0.42 
   9   0 -10    0.11    0.13 
  -9   0  10    0.11    0.13 
   8   0 -10   13.84    0.61 
  -8   0  10   14.36    0.63 
   7   0 -10    0.13    0.12 
  -7   0  10    0.20    0.13 
  -6   0  10   47.68    1.83 
   6   0 -10   46.36    1.77 
  -5   0  10    0.14    0.11 
   5   0 -10   -0.06    0.13 
   4   0 -10    0.93    0.13 
  -4   0  10    1.21    0.17 
  -4   0  10    1.18    0.15 
  -3   0  10    0.01    0.09 
  -3   0  10   -0.16    0.08 
   3   0 -10   -0.11    0.10 
  -2   0  10    1.45    0.13 
  -2   0  10    1.41    0.13 
   2   0 -10    1.75    0.21 
  -1   0  10    0.09    0.04 
  -1   0  10    0.32    0.09 
   1   0 -10    0.03    0.13 
   0   0  10    1.63    0.14 
   0   0 -10    1.90    0.25 
   1   0  10   -0.03    0.07 
  -1   0 -10   -0.26    0.17 
   2   0  10   54.20    1.94 
  -2   0 -10   52.53    2.36 
   3   0  10   -0.11    0.08 
  -3   0 -10   -0.01    0.19 
  -4   0 -10   27.13    1.27 
   4   0  10   25.67    1.00 
  -5   0 -10    0.05    0.18 
   5   0  10    0.04    0.10 
  -6   0 -10    1.58    0.24 
   6   0  10    1.40    0.15 
  -7   0 -10   -0.10    0.15 
   7   0  10    0.07    0.11 
   8   0  10    0.77    0.16 
   9  -1 -10    0.11    0.13 
  -9  -1  10    0.12    0.13 
  -9   1  10    0.21    0.12 
   9   1 -10    0.13    0.12 
  -8  -1  10    4.73    0.32 
   8  -1 -10    5.22    0.33 
  -8   1  10    5.66    0.32 
   8   1 -10    5.59    0.33 
  -7  -1  10    0.33    0.13 
   7  -1 -10    0.07    0.13 
   7   1 -10    0.12    0.13 
  -7   1  10    0.19    0.12 
   6  -1 -10    0.07    0.13 
  -6  -1  10    0.37    0.12 
   6   1 -10    0.18    0.13 
  -6   1  10    0.18    0.13 
  -5  -1  10   21.57    0.85 
   5   1 -10   20.48    0.86 
  -5   1  10   19.27    0.86 
  -4  -1  10    0.01    0.13 
   4  -1 -10    0.01    0.09 
  -4  -1  10    0.19    0.10 
  -4   1  10   -0.01    0.13 
  -4   1  10   -0.07    0.10 
   4   1 -10    0.01    0.08 
  -3  -1  10   54.90    2.15 
   3  -1 -10   55.24    2.38 
  -3  -1  10   56.03    2.05 
   3   1 -10   58.68    2.38 
  -3   1  10   56.05    2.14 
  -3   1  10   55.69    2.05 
  -2  -1  10   19.47    0.77 
  -2  -1  10   19.44    0.75 
   2  -1 -10   19.22    0.91 
  -2   1  10   19.09    0.76 
   2   1 -10   19.61    0.91 
  -2   1  10   19.36    0.75 
  -1  -1  10   16.39    0.64 
  -1  -1  10   16.84    0.66 
   1  -1 -10   17.45    0.83 
  -1   1  10   17.04    0.66 
   1   1 -10   16.80    0.84 
  -1   1  10   16.70    0.65 
   0  -1 -10    9.98    0.61 
   0  -1 -10   11.10    0.42 
   0  -1  10   10.52    0.45 
   0   1 -10   11.01    0.63 
   0   1  10   11.36    0.45 
   1  -1  10   26.20    0.98 
  -1  -1 -10   25.64    1.25 
   1   1  10   27.08    0.98 
  -1   1 -10   25.07    1.24 
  -2  -1 -10    5.83    0.46 
   2  -1  10    4.90    0.26 
   2   1  10    5.52    0.25 
  -2   1 -10    4.65    0.44 
  -3  -1 -10    2.69    0.32 
   3  -1  10    3.23    0.20 
  -3   1 -10    3.49    0.36 
   3   1  10    3.26    0.19 
  -4  -1 -10    0.19    0.20 
   4  -1  10    0.14    0.10 
  -4   1 -10    0.05    0.19 
   4   1  10    0.36    0.11 
   5  -1  10    5.07    0.29 
  -5  -1 -10    5.67    0.41 
   5   1  10    5.51    0.30 
  -5   1 -10    5.31    0.40 
   6  -1  10   -0.12    0.12 
  -6  -1 -10    0.05    0.17 
  -6   1 -10    0.23    0.18 
   6   1  10    0.05    0.12 
   7  -1  10    4.60    0.29 
  -7  -1 -10    4.24    0.35 
  -7   1 -10    3.94    0.35 
   7   1  10    3.80    0.27 
   8  -1  10    1.56    0.18 
   8   1  10    2.03    0.19 
  -9  -2  10   14.11    0.63 
   9  -2 -10   13.41    0.61 
   9   2 -10   14.20    0.62 
  -9   2  10   14.55    0.63 
   8  -2 -10   16.29    0.73 
  -8  -2  10   17.47    0.76 
  -8   2  10   18.92    0.78 
   8   2 -10   17.98    0.74 
   7  -2 -10    4.62    0.29 
  -7  -2  10    4.86    0.31 
   7   2 -10    4.73    0.32 
  -7   2  10    5.56    0.34 
   6  -2 -10    6.49    0.36 
  -6  -2  10    6.31    0.35 
   6   2 -10    7.18    0.37 
  -6   2  10    6.72    0.37 
  -5  -2  10    2.90    0.22 
   5  -2 -10    2.45    0.22 
  -5   2  10    2.70    0.23 
   5   2 -10    2.45    0.23 
  -4  -2  10    0.14    0.12 
  -4  -2  10    0.22    0.10 
   4  -2 -10    0.01    0.09 
   4   2 -10    0.12    0.09 
  -4   2  10    0.00    0.11 
  -4   2  10   -0.19    0.12 
  -3  -2  10    1.48    0.15 
   3  -2 -10    1.66    0.19 
  -3  -2  10    2.07    0.18 
   3   2 -10    1.62    0.19 
  -3   2  10    1.94    0.17 
  -3   2  10    1.54    0.16 
   2  -2 -10   -0.04    0.12 
  -2  -2  10   -0.08    0.07 
  -2  -2  10    0.17    0.10 
  -2   2  10   -0.01    0.08 
  -2   2  10   -0.05    0.06 
   2   2 -10    0.04    0.13 
  -1  -2  10   13.17    0.53 
   1  -2 -10   12.71    0.67 
  -1  -2  10   13.11    0.51 
  -1   2  10   13.24    0.52 
   1   2 -10   12.85    0.68 
  -1   2  10   13.24    0.52 
   0  -2  10   24.37    0.92 
   0  -2 -10   23.98    1.15 
   0  -2 -10   24.29    0.92 
   0   2  10   24.20    0.91 
   0   2 -10   23.59    1.15 
  -1  -2 -10   20.49    1.04 
  -1  -2 -10   20.84    0.80 
   1  -2  10   21.41    0.80 
   1   2  10   20.93    0.79 
  -1   2 -10   20.80    1.04 
   2  -2  10    9.47    0.40 
  -2  -2 -10    8.56    0.59 
   2   2  10    9.34    0.39 
  -2   2 -10    9.20    0.58 
  -3  -2 -10    0.20    0.19 
   3  -2  10    0.10    0.09 
   3   2  10    0.23    0.09 
  -3   2 -10    0.41    0.21 
   4  -2  10    8.13    0.37 
  -4  -2 -10    7.83    0.55 
   4   2  10    8.45    0.36 
  -4   2 -10    8.28    0.53 
  -5  -2 -10    8.22    0.54 
   5  -2  10    8.23    0.39 
  -5   2 -10    8.63    0.53 
   5   2  10    7.90    0.38 
  -6  -2 -10    7.56    0.51 
   6  -2  10    7.90    0.39 
  -6   2 -10    8.54    0.50 
   6   2  10    7.39    0.37 
   7  -2  10    4.12    0.29 
  -7  -2 -10    4.46    0.37 
   7   2  10    4.25    0.27 
  -7   2 -10    4.12    0.37 
   8  -2  10    0.16    0.12 
   8   2  10    0.08    0.12 
   9  -3 -10    0.31    0.12 
  -9  -3  10    0.10    0.14 
   9   3 -10    0.20    0.11 
  -9   3  10    0.35    0.15 
   8  -3 -10    0.13    0.13 
  -8  -3  10    0.16    0.13 
   8   3 -10    0.10    0.12 
  -8   3  10   -0.05    0.14 
  -7  -3  10    5.63    0.34 
   7  -3 -10    4.91    0.31 
   7   3 -10    5.90    0.33 
  -7   3  10    6.29    0.38 
   6  -3 -10    3.91    0.25 
  -6  -3  10    4.22    0.27 
  -6   3  10    4.12    0.32 
   6   3 -10    3.79    0.29 
   5  -3 -10   -0.02    0.11 
  -5  -3  10    0.12    0.10 
   5   3 -10    0.14    0.13 
  -5   3  10    0.12    0.13 
  -4  -3  10   13.68    0.58 
   4  -3 -10   13.20    0.58 
  -4  -3  10   13.35    0.58 
   4  -3 -10   13.38    0.64 
  -4   3  10   13.25    0.59 
   4   3 -10   13.22    0.63 
  -3  -3  10   17.27    0.72 
  -3  -3  10   19.25    0.75 
  -3   3  10   17.53    0.72 
   3   3 -10   18.69    0.85 
  -3   3  10   17.02    0.73 
  -3   3  10   18.83    0.84 
  -2  -3  10   33.02    1.27 
  -2  -3  10   37.81    1.34 
  -2   3  10   33.66    1.27 
  -2   3  10   32.04    1.31 
   2   3 -10   35.76    1.53 
  -2   3  10   33.40    1.50 
   1  -3 -10   29.86    1.14 
  -1  -3  10   29.34    1.11 
  -1  -3  10   28.38    1.14 
  -1   3  10   29.81    1.10 
   1   3 -10   31.51    1.38 
  -1   3  10   30.14    1.34 
   0  -3 -10   35.14    1.34 
   0  -3  10   36.23    1.31 
   0   3  10   34.42    1.29 
   0   3  10   35.24    1.58 
   0   3 -10   35.31    1.61 
  -1  -3 -10    2.32    0.13 
   1  -3  10    1.90    0.16 
   1   3  10    1.94    0.26 
  -1   3 -10    1.86    0.27 
   1   3  10    2.12    0.14 
   2  -3  10    9.46    0.42 
  -2  -3 -10   10.48    0.41 
   2   3  10   10.36    0.62 
  -2   3 -10   10.15    0.61 
   2   3  10    9.57    0.41 
   3  -3  10    0.16    0.10 
  -3  -3 -10    0.09    0.19 
  -3   3 -10   -0.12    0.19 
   3   3  10    0.09    0.08 
  -4  -3 -10    1.58    0.26 
   4  -3  10    1.53    0.15 
  -4   3 -10    1.64    0.27 
   4   3  10    1.32    0.14 
  -5  -3 -10   -0.02    0.18 
   5  -3  10    0.23    0.11 
   5   3  10    0.09    0.10 
  -5   3 -10    0.06    0.19 
   6  -3  10    2.20    0.20 
  -6  -3 -10    2.10    0.28 
  -6   3 -10    2.05    0.25 
   6   3  10    1.93    0.17 
  -7  -3 -10    1.61    0.24 
   7  -3  10    1.02    0.17 
   7   3  10    1.24    0.16 
  -7   3 -10    1.45    0.22 
  -9  -4  10    1.57    0.20 
   9  -4 -10    1.65    0.18 
   9   4 -10    1.55    0.18 
  -9   4  10    1.98    0.23 
   8  -4 -10    0.18    0.12 
  -8  -4  10    0.22    0.14 
  -8   4  10    0.50    0.17 
   8   4 -10    0.21    0.11 
  -7  -4  10   18.18    0.79 
   7  -4 -10   17.63    0.74 
  -7   4  10   18.90    0.82 
   7   4 -10   18.02    0.76 
   6  -4 -10    0.16    0.11 
  -6  -4  10    0.09    0.12 
   6   4 -10    0.07    0.13 
  -6   4  10   -0.20    0.15 
  -5  -4  10   17.96    0.77 
   5  -4 -10   18.58    0.74 
  -5   4  10   16.99    0.78 
   5   4 -10   18.76    0.78 
  -4  -4  10    3.83    0.26 
   4  -4 -10    3.53    0.25 
  -4  -4  10    3.36    0.24 
  -4   4  10    3.74    0.26 
  -4   4  10    3.70    0.25 
   4   4 -10    3.69    0.25 
  -3  -4  10    0.49    0.10 
  -3  -4  10    0.09    0.10 
  -3   4  10    0.27    0.11 
   3   4 -10    0.33    0.13 
  -3   4  10    0.25    0.09 
  -3   4  10    0.46    0.13 
  -2  -4  10    6.49    0.32 
  -2  -4  10    6.64    0.32 
   2   4 -10    6.89    0.43 
  -2   4  10    6.78    0.31 
  -2   4  10    6.84    0.40 
  -2   4  10    5.97    0.30 
  -1  -4  10    4.26    0.22 
  -1  -4  10    3.97    0.24 
   1  -4 -10    3.84    0.21 
  -1   4  10    3.99    0.21 
  -1   4  10    4.22    0.34 
   1   4 -10    4.79    0.36 
   0  -4  10    2.45    0.19 
   0  -4 -10    2.86    0.16 
   0   4  10    2.16    0.27 
   0   4  10    2.59    0.16 
   0   4 -10    2.12    0.30 
  -1  -4 -10   15.01    0.58 
   1  -4  10   14.30    0.58 
   1   4  10   15.90    0.80 
   1   4  10   14.72    0.57 
  -1   4 -10   12.86    0.77 
   2  -4  10    3.50    0.22 
  -2  -4 -10    3.70    0.19 
   2   4  10    3.35    0.37 
  -2   4 -10    3.02    0.34 
   2   4  10    3.34    0.19 
   3  -4  10   36.89    1.37 
  -3   4 -10   36.49    1.68 
   3   4  10   36.09    1.70 
   3   4  10   37.58    1.35 
  -4  -4 -10   -0.04    0.20 
   4  -4  10    0.11    0.11 
   4   4  10    0.10    0.08 
  -4   4 -10    0.21    0.19 
  -5  -4 -10    8.15    0.53 
   5  -4  10    7.04    0.36 
  -5   4 -10    6.26    0.46 
   5   4  10    7.37    0.34 
   6  -4  10    0.66    0.14 
  -6  -4 -10    0.67    0.21 
   6   4  10    0.64    0.12 
  -6   4 -10    0.54    0.18 
   7  -4  10    0.96    0.17 
  -7  -4 -10    1.00    0.22 
  -7   4 -10    1.02    0.20 
   7   4  10    1.00    0.14 
   9  -5 -10    0.09    0.12 
  -9  -5  10    0.13    0.15 
   9   5 -10    0.20    0.11 
  -9   5  10    0.44    0.17 
   8  -5 -10    0.04    0.12 
  -8  -5  10   -0.01    0.14 
  -8   5  10   -0.12    0.15 
   8   5 -10    0.13    0.12 
   7  -5 -10    0.47    0.13 
  -7  -5  10    0.18    0.14 
   7   5 -10    0.44    0.12 
  -7   5  10    0.07    0.16 
   6  -5 -10   17.44    0.71 
  -6  -5  10   16.92    0.76 
   6   5 -10   17.92    0.73 
  -6   5  10   17.09    0.78 
   5  -5 -10   -0.01    0.10 
  -5  -5  10    0.05    0.11 
   5   5 -10   -0.04    0.12 
  -5   5  10   -0.08    0.13 
  -4  -5  10   40.95    1.63 
  -4  -5  10   42.69    1.58 
   4  -5 -10   41.49    1.56 
  -4   5  10   41.43    1.79 
   4   5 -10   41.96    1.78 
  -4   5  10   41.60    1.63 
  -3  -5  10    0.30    0.10 
  -3  -5  10    0.29    0.10 
   3   5 -10    0.40    0.13 
  -3   5  10    0.21    0.10 
  -3   5  10    0.17    0.12 
   2  -5 -10   12.93    0.56 
  -2  -5  10   13.28    0.55 
  -2  -5  10   13.32    0.56 
  -2   5  10   13.64    0.55 
   2   5 -10   14.32    0.70 
  -2   5  10   12.86    0.66 
   1  -5 -10   10.79    0.46 
  -1  -5  10   10.86    0.45 
   1   5 -10   11.22    0.62 
  -1   5  10   10.67    0.44 
  -1   5  10   11.05    0.60 
   0  -5 -10   11.84    0.49 
   0  -5  10   12.08    0.49 
   0   5  10   11.79    0.47 
   0   5 -10   11.94    0.67 
   0   5  10   11.19    0.64 
  -1  -5 -10    1.36    0.12 
   1  -5  10    1.24    0.13 
   1   5  10    1.21    0.23 
  -1   5 -10    0.91    0.22 
   1   5  10    1.15    0.11 
  -2  -5 -10   10.63    0.43 
   2  -5  10    9.24    0.42 
   2   5  10   10.47    0.65 
   2   5  10   10.51    0.41 
  -2   5 -10    9.65    0.61 
   3  -5  10   -0.16    0.10 
  -3  -5 -10    0.02    0.08 
   3   5  10    0.05    0.07 
  -3   5 -10   -0.04    0.17 
   3   5  10   -0.06    0.20 
   4  -5  10    2.21    0.18 
   4   5  10    2.23    0.33 
   4   5  10    2.40    0.17 
  -4   5 -10    1.98    0.27 
   5  -5  10    0.09    0.11 
  -5  -5 -10    0.24    0.20 
   5   5  10    0.00    0.09 
  -5   5 -10    0.21    0.19 
   6  -5  10    3.93    0.26 
  -6  -5 -10    4.17    0.40 
   6   5  10    3.57    0.24 
  -6   5 -10    3.92    0.36 
   7  -5  10    0.53    0.15 
  -7  -5 -10    1.29    0.23 
  -7   5 -10    0.53    0.18 
   7   5  10    0.90    0.14 
  -8  -6  10    3.83    0.32 
   8  -6 -10    3.90    0.27 
   8   6 -10    3.81    0.26 
  -8   6  10    3.99    0.35 
   7  -6 -10    6.93    0.35 
  -7  -6  10    6.68    0.40 
   7   6 -10    6.49    0.35 
  -7   6  10    5.96    0.42 
  -6  -6  10    0.21    0.14 
   6  -6 -10    0.22    0.12 
  -6   6  10   -0.14    0.15 
   6   6 -10    0.21    0.11 
   5  -6 -10    5.84    0.30 
  -5  -6  10    5.57    0.34 
  -5   6  10    5.52    0.35 
   5   6 -10    5.36    0.33 
   4  -6 -10    4.98    0.27 
  -4  -6  10    4.66    0.30 
  -4  -6  10    4.96    0.31 
  -4   6  10    4.52    0.30 
  -4   6  10    4.63    0.33 
   4   6 -10    4.64    0.30 
  -3  -6  10    0.09    0.10 
   3  -6 -10    0.19    0.10 
  -3  -6  10    0.19    0.11 
  -3   6  10    0.16    0.10 
  -3   6  10    0.00    0.12 
   3   6 -10    0.10    0.13 
   2  -6 -10    0.52    0.11 
  -2  -6  10    0.52    0.10 
  -2  -6  10    0.42    0.10 
   2   6 -10    0.45    0.17 
  -2   6  10    0.40    0.10 
  -2   6  10    0.49    0.16 
   1  -6 -10    3.73    0.22 
  -1  -6  10    3.81    0.23 
  -1   6  10    3.76    0.21 
  -1   6  10    4.20    0.35 
   1   6 -10    4.25    0.38 
   0  -6 -10    8.61    0.39 
   0  -6  10    8.32    0.38 
   0   6  10    8.23    0.36 
   0   6 -10    9.63    0.58 
   0   6  10    9.46    0.55 
   1  -6  10   12.65    0.55 
  -1  -6 -10   13.89    0.56 
  -1   6 -10   13.92    0.76 
   1   6  10   13.43    0.75 
   1   6  10   13.97    0.53 
  -2  -6 -10    2.52    0.18 
   2  -6  10    2.22    0.19 
  -2   6 -10    2.00    0.30 
   2   6  10    2.90    0.34 
   2   6  10    2.56    0.16 
  -3  -6 -10    6.11    0.30 
   3  -6  10    5.85    0.31 
  -3   6 -10    6.05    0.46 
   3   6  10    6.17    0.51 
   3   6  10    6.33    0.28 
   4  -6  10    1.90    0.17 
   4   6  10    2.40    0.33 
  -4   6 -10    2.30    0.30 
   5  -6  10   12.11    0.53 
  -5   6 -10   12.45    0.69 
   5   6  10   13.19    0.74 
   6  -6  10    2.31    0.20 
  -6  -6 -10    2.24    0.30 
  -6   6 -10    2.39    0.28 
  -8  -7  10    1.22    0.20 
  -8   7  10    0.95    0.22 
   8   7 -10    1.30    0.16 
  -7  -7  10    0.38    0.16 
  -7   7  10    0.46    0.19 
   7   7 -10    0.51    0.12 
  -6  -7  10    0.84    0.18 
   6   7 -10    1.06    0.15 
  -6   7  10    0.94    0.20 
  -5  -7  10    7.97    0.42 
  -5   7  10    8.34    0.44 
   5   7 -10    8.00    0.41 
  -4  -7  10    3.88    0.28 
  -4  -7  10    3.24    0.25 
  -4   7  10    3.67    0.28 
  -4   7  10    3.21    0.25 
   4   7 -10    3.11    0.26 
  -3  -7  10   15.55    0.64 
  -3  -7  10   15.82    0.65 
   3  -7 -10   14.36    0.65 
   3   7 -10   15.79    0.76 
  -3   7  10   15.62    0.75 
   2  -7 -10   19.99    0.84 
  -2  -7  10   20.67    0.81 
  -2  -7  10   21.71    0.83 
   2   7 -10   21.82    1.01 
  -2   7  10   19.60    0.97 
   1  -7 -10    9.53    0.44 
  -1  -7  10    9.39    0.42 
   1   7 -10   11.17    0.59 
  -1   7  10    9.14    0.56 
   0  -7 -10    7.42    0.36 
   0  -7  10    7.42    0.34 
   0   7 -10    7.41    0.51 
   0   7  10    7.65    0.49 
   1  -7  10    4.91    0.26 
  -1  -7 -10    5.01    0.26 
   1   7  10    4.84    0.42 
  -1   7 -10    4.71    0.42 
   2  -7  10    0.08    0.10 
  -2  -7 -10    0.17    0.09 
  -2   7 -10    0.20    0.19 
   2   7  10    0.25    0.20 
  -3  -7 -10    0.59    0.12 
   3  -7  10    0.72    0.12 
   3   7  10    0.87    0.26 
  -3   7 -10    0.73    0.22 
   4  -7  10   -0.11    0.10 
   4   7  10   -0.06    0.21 
  -4   7 -10    0.01    0.19 
   5  -7  10   -0.17    0.11 
  -5   7 -10   -0.20    0.16 
   5   7  10   -0.09    0.19 
  -6  -7 -10    0.93    0.25 
   6  -7  10    0.50    0.14 
  -6   7 -10    0.61    0.19 
  -7  -8  10    0.72    0.18 
  -7   8  10    0.62    0.20 
   7   8 -10    1.01    0.14 
  -6  -8  10    7.64    0.44 
   6   8 -10    7.84    0.38 
  -6   8  10    7.60    0.46 
  -5  -8  10    0.76    0.16 
  -5   8  10    0.95    0.16 
   5   8 -10    0.99    0.14 
  -4  -8  10    1.98    0.19 
   4  -8 -10    1.95    0.20 
  -4   8  10    2.30    0.23 
   4   8 -10    2.44    0.23 
  -3  -8  10    2.42    0.21 
   3  -8 -10    1.93    0.19 
  -3  -8  10    2.26    0.19 
   3   8 -10    2.40    0.25 
  -3   8  10    1.74    0.22 
   2  -8 -10    0.50    0.13 
  -2  -8  10    0.70    0.13 
  -2  -8  10    0.61    0.12 
   2   8 -10    0.74    0.20 
  -2   8  10    0.59    0.16 
   1  -8 -10    0.38    0.11 
  -1  -8  10    0.34    0.11 
   1   8 -10    0.21    0.17 
  -1   8  10    0.48    0.19 
   0  -8  10    0.74    0.11 
   0  -8 -10    0.46    0.11 
   0   8 -10    0.64    0.22 
   0   8  10    0.55    0.20 
   1  -8  10    1.90    0.16 
  -1  -8 -10    1.84    0.16 
   1   8  10    1.97    0.29 
  -1   8 -10    1.82    0.29 
  -2  -8 -10   23.03    0.93 
   2  -8  10   23.15    0.89 
  -2   8 -10   23.63    1.15 
   2   8  10   23.56    1.18 
  -3  -8 -10    0.33    0.11 
   3  -8  10    0.61    0.12 
   3   8  10    0.41    0.23 
  -3   8 -10    0.35    0.21 
   4  -8  10   10.31    0.47 
   4   8  10   11.74    0.70 
  -4   8 -10   11.13    0.65 
   5  -8  10    0.89    0.14 
  -5   8 -10    0.82    0.20 
   5   8  10    1.09    0.24 
  -6  -9  10   -0.03    0.14 
  -6   9  10    0.09    0.17 
  -5  -9  10   16.37    0.69 
   5  -9 -10   13.95    0.67 
   4  -9 -10    0.22    0.13 
  -4  -9  10    0.35    0.13 
  -4   9  10    0.49    0.17 
   4   9 -10    0.38    0.14 
  -3  -9  10   15.97    0.68 
   3  -9 -10   15.61    0.70 
  -3  -9  10   17.68    0.69 
   3   9 -10   16.70    0.81 
  -3   9  10   15.11    0.79 
  -2  -9  10    0.80    0.14 
   2  -9 -10    0.76    0.14 
  -2   9  10    0.71    0.18 
   2   9 -10    0.77    0.21 
   1  -9 -10    6.64    0.36 
  -1  -9  10    7.33    0.34 
   1   9 -10    8.00    0.51 
  -1   9  10    6.39    0.48 
   0  -9  10    0.60    0.11 
   0  -9 -10    0.85    0.13 
   0   9 -10    0.59    0.23 
   0   9  10    0.86    0.24 
  -1  -9 -10    3.58    0.24 
   1  -9  10    4.06    0.23 
   1   9  10    3.72    0.39 
  -1   9 -10    3.11    0.36 
  -2  -9 -10    2.98    0.23 
   2  -9  10    2.77    0.21 
   2   9  10    3.05    0.37 
  -2   9 -10    2.99    0.36 
   3  -9  10   -0.05    0.10 
  -3  -9 -10    0.02    0.11 
  -3   9 -10   -0.01    0.18 
   3   9  10   -0.01    0.22 
  -4  -9 -10    0.50    0.14 
   4  -9  10    0.48    0.12 
   4   9  10    0.03    0.22 
  -4   9 -10    0.57    0.22 
   5  -9  10    1.26    0.16 
   5   9  10    1.43    0.30 
  -5   9 -10    1.48    0.24 
   5 -10 -10    0.84    0.17 
  -5 -10  10    0.80    0.17 
   4 -10 -10    1.17    0.18 
  -4 -10  10    0.82    0.16 
  -4  10  10    0.96    0.19 
   4  10 -10    0.91    0.18 
   3 -10 -10    3.93    0.29 
  -3  10  10    4.27    0.35 
   3  10 -10    4.03    0.34 
   2 -10 -10   -0.08    0.11 
  -2  10  10    0.00    0.16 
   2  10 -10   -0.09    0.16 
   1 -10 -10    0.44    0.14 
  -1  10  10    0.36    0.19 
   1  10 -10    0.68    0.23 
   0 -10 -10    5.85    0.32 
   0  10  10    6.12    0.48 
   0  10 -10    5.92    0.48 
  -1 -10 -10    1.15    0.15 
   1  10  10    1.66    0.31 
  -1  10 -10    1.44    0.27 
  -2 -10 -10    5.44    0.31 
   2  10  10    5.32    0.50 
  -2  10 -10    5.79    0.47 
  -3 -10 -10    0.02    0.12 
   3  10  10    0.11    0.23 
  -3  10 -10    0.01    0.21 
  -4 -10 -10    5.35    0.33 
   4  10  10    5.73    0.55 
  -4  10 -10    5.80    0.46 
  -4 -11  10    3.24    0.27 
   4 -11 -10    3.21    0.28 
   4  11 -10    3.42    0.30 
  -4  11  10    3.85    0.33 
   3 -11 -10    5.32    0.34 
  -3  11  10    5.14    0.39 
   3  11 -10    5.44    0.41 
   2 -11 -10    1.81    0.20 
   2  11 -10    2.38    0.30 
  -2  11  10    1.66    0.25 
   1 -11 -10   16.74    0.75 
  -1  11  10   16.32    0.88 
   1  11 -10   21.14    0.97 
   0 -11 -10    1.17    0.16 
   0  11  10    1.31    0.27 
   0  11 -10    1.04    0.28 
  -1 -11 -10    0.16    0.13 
   1  11  10    0.15    0.24 
  -1  11 -10    0.59    0.25 
  -2 -11 -10    1.29    0.17 
  -2  11 -10    1.47    0.31 
   2  11  10    1.45    0.31 
   1 -12 -10    1.56    0.19 
   1  12 -10    2.15    0.32 
  -1  12  10    1.62    0.27 
   0 -12 -10    1.14    0.17 
   0  12  10    1.43    0.28 
   0  12 -10    1.22    0.29 
  -9   0  11    0.26    0.14 
   9   0 -11    0.07    0.13 
   8   0 -11    0.10    0.13 
  -8   0  11    0.26    0.13 
   7   0 -11   15.54    0.68 
  -7   0  11   15.88    0.69 
   6   0 -11    0.03    0.12 
  -6   0  11    0.18    0.12 
   5   0 -11   39.43    1.53 
  -5   0  11   39.77    1.56 
  -4   0  11    0.15    0.13 
   4   0 -11    0.07    0.10 
  -4   0  11   -0.19    0.10 
   3   0 -11   14.33    0.70 
  -3   0  11   14.61    0.61 
  -3   0  11   14.56    0.60 
   2   0 -11   -0.06    0.12 
  -2   0  11    0.01    0.09 
  -2   0  11    0.00    0.06 
  -1   0  11   29.98    1.16 
   1   0 -11   30.87    1.41 
  -1   0  11   32.06    1.17 
   0   0 -11    0.17    0.18 
   0   0  11    0.11    0.09 
   1   0  11    2.05    0.16 
  -1   0 -11    2.19    0.28 
   2   0  11   -0.02    0.09 
  -2   0 -11    0.02    0.17 
   3   0  11    3.12    0.21 
  -3   0 -11    2.82    0.33 
   4   0  11   -0.09    0.10 
  -4   0 -11   -0.23    0.19 
  -5   0 -11    2.60    0.31 
   5   0  11    2.30    0.20 
   6   0  11    0.00    0.11 
  -6   0 -11    0.03    0.17 
  -7   0 -11    7.26    0.48 
   7   0  11    6.88    0.36 
  -9  -1  11    0.08    0.13 
   9  -1 -11    0.04    0.11 
  -9   1  11    0.35    0.14 
   9   1 -11    0.07    0.14 
   8  -1 -11   14.49    0.64 
  -8  -1  11   14.19    0.64 
   8   1 -11   14.60    0.64 
  -8   1  11   15.30    0.66 
  -7  -1  11    0.34    0.12 
   7  -1 -11    0.21    0.12 
  -7   1  11    0.29    0.13 
   7   1 -11    0.31    0.14 
  -6  -1  11    2.12    0.19 
   6  -1 -11    1.93    0.20 
  -6   1  11    2.28    0.21 
   6   1 -11    2.54    0.24 
  -5  -1  11    4.09    0.26 
  -5  -1  11    3.73    0.29 
   5  -1 -11    3.92    0.29 
  -5   1  11    3.62    0.27 
   4  -1 -11    4.60    0.29 
  -4  -1  11    4.87    0.28 
  -4  -1  11    4.95    0.29 
   4   1 -11    4.37    0.28 
  -4   1  11    4.22    0.27 
  -4   1  11    4.06    0.30 
  -3  -1  11    5.29    0.29 
  -3  -1  11    4.86    0.29 
   3  -1 -11    5.13    0.33 
  -3   1  11    5.43    0.28 
  -3   1  11    5.54    0.29 
   3   1 -11    5.85    0.35 
  -2  -1  11    4.56    0.23 
  -2  -1  11    4.49    0.25 
   2  -1 -11    4.73    0.34 
  -2   1  11    4.94    0.26 
  -2   1  11    4.70    0.22 
   2   1 -11    4.93    0.34 
   1  -1 -11   22.27    1.06 
  -1  -1  11   21.89    0.85 
  -1   1  11   21.31    0.85 
  -1   1  11   23.74    0.86 
   1   1 -11   21.75    1.05 
   0  -1 -11   32.16    1.50 
   0  -1  11   33.56    1.23 
   0   1  11   32.69    1.22 
   0   1 -11   33.26    1.52 
  -1  -1 -11    0.18    0.17 
   1  -1  11    0.09    0.08 
  -1   1 -11    0.15    0.17 
   1   1  11    0.15    0.09 
  -2  -1 -11   23.73    1.21 
   2  -1  11   25.20    0.94 
  -2   1 -11   24.75    1.22 
   2   1  11   25.19    0.94 
  -3  -1 -11    0.37    0.22 
   3  -1  11    0.48    0.11 
  -3   1 -11    0.64    0.21 
   3   1  11    0.47    0.11 
   4  -1  11    9.11    0.42 
  -4  -1 -11    9.67    0.61 
   4   1  11    9.21    0.41 
  -4   1 -11    9.06    0.57 
   5  -1  11    0.95    0.14 
  -5  -1 -11    1.28    0.25 
   5   1  11    1.36    0.15 
  -5   1 -11    1.31    0.25 
   6  -1  11    0.21    0.13 
  -6  -1 -11    0.26    0.18 
   6   1  11    0.26    0.13 
  -6   1 -11    0.23    0.19 
  -7  -1 -11    0.51    0.19 
   7  -1  11    0.50    0.13 
  -7   1 -11    0.37    0.18 
   7   1  11    0.52    0.14 
  -9  -2  11    4.98    0.33 
   9  -2 -11    5.40    0.33 
   9   2 -11    4.99    0.33 
  -9   2  11    5.91    0.35 
   8  -2 -11    2.14    0.20 
  -8  -2  11    2.38    0.21 
  -8   2  11    2.35    0.22 
   8   2 -11    1.66    0.19 
   7  -2 -11    2.83    0.23 
  -7  -2  11    2.63    0.24 
  -7   2  11    3.39    0.28 
   7   2 -11    2.80    0.25 
  -6  -2  11    3.85    0.25 
   6  -2 -11    3.50    0.28 
  -6   2  11    3.52    0.29 
   6   2 -11    3.94    0.31 
  -5  -2  11   11.80    0.56 
   5  -2 -11   11.51    0.55 
  -5  -2  11   12.81    0.54 
  -5   2  11   11.56    0.56 
  -4  -2  11   22.08    0.84 
   4  -2 -11   20.13    0.92 
  -4  -2  11   20.51    0.82 
  -4   2  11   19.94    0.83 
   4   2 -11   20.25    0.92 
  -4   2  11   19.05    0.84 
  -3  -2  11   42.21    1.61 
  -3  -2  11   47.66    1.69 
   3  -2 -11   42.23    1.87 
   3   2 -11   43.97    1.88 
  -3   2  11   41.80    1.61 
  -3   2  11   42.85    1.67 
   2  -2 -11   10.90    0.59 
  -2  -2  11   11.57    0.48 
  -2  -2  11   10.66    0.47 
   2   2 -11   11.97    0.60 
  -2   2  11   10.81    0.47 
  -2   2  11   11.60    0.47 
   1  -2 -11    1.00    0.19 
   1  -2 -11    1.24    0.10 
  -1  -2  11    1.20    0.14 
   1   2 -11    1.21    0.20 
  -1   2  11    1.19    0.13 
   0  -2 -11    0.13    0.16 
   0  -2  11    0.25    0.10 
   0  -2 -11    0.34    0.06 
   0   2  11    0.21    0.08 
   0   2 -11    0.10    0.16 
   1  -2  11    0.18    0.09 
  -1  -2 -11    0.14    0.17 
  -1   2 -11    0.09    0.20 
   1   2  11    0.41    0.09 
  -2  -2 -11    0.37    0.20 
   2  -2  11    0.47    0.10 
  -2   2 -11    0.46    0.20 
   2   2  11    0.61    0.10 
  -3  -2 -11    3.44    0.38 
   3  -2  11    3.46    0.21 
  -3   2 -11    3.46    0.37 
   3   2  11    3.14    0.21 
  -4  -2 -11    3.09    0.34 
   4  -2  11    3.20    0.23 
  -4   2 -11    2.86    0.34 
   4   2  11    2.91    0.20 
  -5  -2 -11    7.65    0.52 
   5  -2  11    7.10    0.35 
   5   2  11    6.99    0.34 
  -5   2 -11    7.35    0.51 
   6  -2  11    7.01    0.37 
  -6  -2 -11    7.36    0.50 
   6   2  11    7.48    0.36 
  -6   2 -11    6.73    0.48 
  -7  -2 -11    2.74    0.31 
   7  -2  11    3.20    0.24 
   7   2  11    2.87    0.24 
  -7   2 -11    3.00    0.29 
   9  -3 -11    9.14    0.47 
  -9  -3  11    9.71    0.49 
   9   3 -11   10.29    0.49 
  -9   3  11   10.91    0.51 
  -8  -3  11    1.13    0.17 
   8  -3 -11    1.17    0.17 
  -8   3  11    1.33    0.19 
   8   3 -11    1.13    0.16 
   7  -3 -11    1.71    0.18 
  -7  -3  11    1.83    0.19 
   7   3 -11    2.29    0.22 
  -7   3  11    1.97    0.23 
  -6  -3  11    2.83    0.22 
   6  -3 -11    2.90    0.22 
   6   3 -11    2.14    0.22 
  -6   3  11    2.50    0.25 
   5  -3 -11   -0.05    0.12 
  -5  -3  11    0.15    0.10 
  -5  -3  11   -0.20    0.13 
  -5   3  11    0.03    0.13 
   4  -3 -11    0.01    0.10 
  -4  -3  11    0.20    0.13 
  -4  -3  11    0.19    0.10 
  -4   3  11    0.16    0.11 
  -4   3  11   -0.03    0.12 
   4   3 -11    0.01    0.10 
   3  -3 -11   -0.03    0.12 
  -3  -3  11    0.18    0.11 
  -3  -3  11    0.19    0.09 
  -3   3  11    0.12    0.09 
   3   3 -11    0.04    0.12 
  -3   3  11    0.13    0.11 
  -2  -3  11   21.70    0.87 
  -2  -3  11   25.71    0.91 
  -2   3  11   21.29    0.88 
  -2   3  11   22.59    1.04 
  -2   3  11   22.22    0.87 
   2   3 -11   22.11    1.05 
   1  -3 -11   13.74    0.55 
  -1  -3  11   12.59    0.55 
  -1   3  11   13.66    0.55 
  -1   3  11   14.11    0.71 
   1   3 -11   14.49    0.74 
   0  -3  11    3.10    0.22 
   0  -3 -11    2.91    0.16 
   0   3  11    3.54    0.33 
   0   3  11    3.08    0.19 
   0   3 -11    2.99    0.31 
  -1  -3 -11   32.95    1.56 
   1  -3  11   33.92    1.27 
   1   3  11   34.64    1.25 
  -1   3 -11   34.20    1.58 
  -2  -3 -11    0.74    0.24 
   2  -3  11    0.81    0.12 
   2   3  11    0.88    0.11 
  -2   3 -11    0.73    0.22 
   3  -3  11    8.58    0.39 
  -3  -3 -11    8.00    0.58 
  -3   3 -11    8.90    0.59 
   3   3  11    8.50    0.37 
   4  -3  11    7.28    0.35 
  -4  -3 -11    8.09    0.56 
   4   3  11    7.29    0.34 
  -4   3 -11    7.87    0.54 
  -5  -3 -11    2.00    0.30 
   5  -3  11    2.36    0.20 
   5   3  11    2.17    0.18 
  -5   3 -11    2.77    0.31 
  -6  -3 -11    0.11    0.19 
   6  -3  11    0.35    0.12 
  -6   3 -11    0.22    0.18 
   6   3  11    0.32    0.11 
  -7  -3 -11    1.25    0.23 
   7  -3  11    0.83    0.16 
   7   3  11    1.07    0.15 
  -7   3 -11    0.70    0.20 
   9  -4 -11    0.68    0.14 
  -9  -4  11    0.77    0.17 
   9   4 -11    0.67    0.13 
  -9   4  11    0.79    0.17 
   8  -4 -11    3.48    0.27 
  -8  -4  11    3.56    0.29 
  -8   4  11    4.77    0.34 
   8   4 -11    3.96    0.29 
   7  -4 -11    0.19    0.12 
  -7  -4  11    0.16    0.13 
  -7   4  11    0.10    0.15 
   7   4 -11    0.04    0.11 
   6  -4 -11   25.84    1.03 
  -6  -4  11   27.65    1.08 
   6   4 -11   28.78    1.08 
  -6   4  11   23.95    1.10 
  -5  -4  11    0.24    0.16 
  -5  -4  11    0.41    0.12 
   5  -4 -11    0.30    0.12 
  -5   4  11    0.13    0.14 
   4  -4 -11   17.37    0.74 
  -4  -4  11   18.58    0.76 
  -4  -4  11   18.20    0.75 
   4   4 -11   18.25    0.83 
  -4   4  11   17.59    0.83 
  -4   4  11   18.18    0.76 
  -3  -4  11    1.31    0.16 
  -3  -4  11    1.46    0.14 
  -3   4  11    1.09    0.15 
  -3   4  11    1.20    0.13 
  -3   4  11    1.29    0.18 
   3   4 -11    1.42    0.19 
  -2  -4  11   17.92    0.66 
  -2  -4  11   14.60    0.63 
  -2   4  11   14.77    0.63 
  -2   4  11   14.88    0.64 
   2   4 -11   16.76    0.80 
  -2   4  11   16.04    0.76 
   1  -4 -11    0.18    0.07 
  -1  -4  11    0.20    0.10 
  -1   4  11    0.00    0.15 
   1   4 -11    0.07    0.17 
  -1   4  11    0.13    0.08 
   0  -4  11   15.32    0.62 
   0  -4 -11   15.38    0.62 
   0   4  11   14.49    0.60 
   0   4 -11   16.59    0.84 
   0   4  11   15.91    0.81 
   1  -4  11    0.17    0.11 
  -1  -4 -11    0.14    0.07 
  -1   4 -11    0.22    0.18 
   1   4  11    0.10    0.08 
   1   4  11    0.01    0.17 
   2  -4  11    1.52    0.15 
   2   4  11    2.07    0.31 
   2   4  11    1.52    0.13 
  -2   4 -11    1.92    0.30 
  -3  -4 -11   -0.07    0.21 
   3  -4  11   -0.02    0.09 
   3   4  11   -0.05    0.08 
  -3   4 -11    0.05    0.20 
  -4  -4 -11    5.19    0.47 
   4  -4  11    4.75    0.28 
  -4   4 -11    5.41    0.42 
   4   4  11    4.92    0.26 
   5  -4  11    0.10    0.11 
  -5  -4 -11    0.18    0.21 
  -5   4 -11   -0.18    0.18 
   5   4  11   -0.01    0.09 
   6  -4  11    1.33    0.16 
  -6  -4 -11    1.66    0.26 
  -6   4 -11    1.53    0.25 
   6   4  11    1.62    0.16 
   7  -4  11   -0.04    0.12 
  -7  -4 -11    0.11    0.18 
  -7   4 -11    0.08    0.17 
   7   4  11    0.02    0.11 
   8  -5 -11    0.24    0.12 
  -8  -5  11    0.27    0.15 
   8   5 -11    0.19    0.12 
  -8   5  11    0.40    0.17 
   7  -5 -11    4.55    0.28 
  -7  -5  11    4.52    0.31 
   7   5 -11    4.51    0.30 
  -7   5  11    4.58    0.36 
   6  -5 -11    1.72    0.17 
  -6  -5  11    1.80    0.20 
  -6   5  11    1.83    0.23 
   6   5 -11    1.65    0.20 
  -5  -5  11    0.01    0.11 
   5  -5 -11    0.10    0.10 
   5   5 -11    0.01    0.12 
  -5   5  11    0.05    0.14 
   4  -5 -11    0.14    0.11 
  -4  -5  11   -0.02    0.13 
  -4  -5  11   -0.12    0.09 
   4   5 -11    0.13    0.11 
  -4   5  11   -0.04    0.11 
  -4   5  11   -0.05    0.11 
  -3  -5  11    1.26    0.14 
  -3  -5  11    1.42    0.16 
  -3   5  11    1.12    0.13 
  -3   5  11    1.14    0.15 
  -3   5  11    1.12    0.18 
   3   5 -11    1.15    0.18 
  -2  -5  11   19.10    0.76 
   2  -5 -11   18.98    0.78 
  -2   5  11   18.63    0.91 
  -2   5  11   19.22    0.76 
   2   5 -11   21.41    0.95 
  -1  -5  11   19.52    0.78 
   1  -5 -11   19.14    0.79 
  -1   5  11   20.04    0.96 
   1   5 -11   22.15    1.01 
  -1   5  11   19.75    0.76 
   0  -5  11    1.03    0.12 
   0  -5 -11    1.28    0.12 
   0   5 -11    1.26    0.24 
   0   5  11    1.04    0.11 
   0   5  11    1.09    0.23 
  -1  -5 -11   38.78    1.48 
   1  -5  11   37.27    1.44 
   1   5  11   39.96    1.78 
   1   5  11   39.16    1.42 
  -1   5 -11   39.72    1.79 
   2  -5  11    0.05    0.10 
   2   5  11    0.16    0.19 
   2   5  11   -0.01    0.08 
  -2   5 -11   -0.37    0.18 
   3  -5  11    5.98    0.31 
   3   5  11    6.65    0.30 
   3   5  11    6.17    0.53 
  -3   5 -11    6.39    0.48 
  -4  -5 -11    1.36    0.29 
   4  -5  11    1.32    0.15 
   4   5  11    1.24    0.13 
  -4   5 -11    0.85    0.22 
   5  -5  11    1.38    0.16 
  -5  -5 -11    1.81    0.28 
  -5   5 -11    1.86    0.28 
   5   5  11    1.95    0.15 
  -6  -5 -11   -0.07    0.19 
   6  -5  11   -0.02    0.11 
  -6   5 -11   -0.11    0.16 
   6   5  11   -0.04    0.10 
   8  -6 -11    1.95    0.18 
  -8  -6  11    2.41    0.24 
  -8   6  11    2.20    0.26 
   8   6 -11    2.09    0.19 
   7  -6 -11    0.49    0.12 
  -7  -6  11    0.69    0.17 
   7   6 -11    0.81    0.15 
  -7   6  11    0.41    0.19 
   6  -6 -11    7.97    0.37 
  -6  -6  11    7.68    0.42 
  -6   6  11    7.50    0.45 
   6   6 -11    7.23    0.40 
   5  -6 -11    3.69    0.24 
  -5  -6  11    3.33    0.26 
  -5   6  11    3.43    0.29 
   5   6 -11    3.79    0.29 
  -4  -6  11   23.61    0.97 
   4  -6 -11   23.18    0.92 
  -4  -6  11   24.78    0.96 
  -4   6  11   24.97    1.08 
   4   6 -11   23.38    1.07 
  -4   6  11   23.12    0.98 
  -3  -6  11   10.51    0.48 
  -3  -6  11   10.24    0.47 
   3  -6 -11   10.13    0.48 
   3  -6 -11   10.86    0.47 
  -3   6  11   10.67    0.56 
   3   6 -11   10.97    0.57 
  -2  -6  11    6.22    0.33 
   2  -6 -11    6.37    0.32 
  -2   6  11    7.04    0.42 
  -2   6  11    6.56    0.32 
   2   6 -11    6.99    0.44 
  -1  -6  11    0.31    0.10 
   1  -6 -11    0.12    0.09 
  -1   6  11    0.25    0.17 
  -1   6  11    0.31    0.09 
   1   6 -11    0.26    0.17 
   0  -6  11    0.33    0.11 
   0  -6 -11    0.32    0.09 
   0   6  11    0.46    0.18 
   0   6 -11    0.54    0.22 
   0   6  11    0.38    0.09 
   1  -6  11    0.39    0.11 
  -1   6 -11    0.58    0.24 
   1   6  11    0.34    0.09 
   1   6  11    0.58    0.22 
  -2  -6 -11   -0.07    0.08 
   2  -6  11   -0.02    0.10 
   2   6  11    0.02    0.08 
   2   6  11   -0.28    0.17 
  -2   6 -11    0.10    0.19 
   3  -6  11    0.57    0.11 
  -3   6 -11    0.67    0.24 
   3   6  11    0.46    0.25 
   4  -6  11    6.51    0.34 
  -4   6 -11    7.14    0.49 
   4   6  11    7.13    0.53 
  -5  -6 -11    3.21    0.38 
   5  -6  11    3.78    0.26 
  -5   6 -11    3.74    0.35 
  -6  -6 -11    6.24    0.51 
   6  -6  11    6.19    0.35 
  -6   6 -11    6.77    0.45 
  -7  -7  11    3.10    0.27 
   7   7 -11    2.99    0.23 
  -7   7  11    2.37    0.27 
  -6  -7  11    1.75    0.20 
  -6   7  11    1.38    0.22 
   6   7 -11    2.03    0.19 
  -5  -7  11    2.43    0.22 
  -5   7  11    2.09    0.22 
   5   7 -11    2.44    0.22 
  -4  -7  11    0.69    0.16 
  -4  -7  11    0.63    0.14 
  -4   7  11    0.84    0.14 
   4   7 -11    0.63    0.15 
  -4   7  11    0.93    0.17 
  -3  -7  11    4.57    0.28 
  -3  -7  11    4.85    0.28 
   3  -7 -11    4.42    0.27 
   3   7 -11    4.42    0.34 
  -3   7  11    4.11    0.34 
  -2  -7  11    1.30    0.15 
   2  -7 -11    1.31    0.15 
   2   7 -11    1.26    0.22 
  -2   7  11    1.02    0.20 
  -1  -7  11    9.00    0.41 
   1  -7 -11    8.75    0.42 
   1   7 -11   10.68    0.59 
  -1   7  11    9.24    0.55 
   0  -7 -11    5.62    0.29 
   0  -7  11    5.33    0.29 
   0   7  11    5.84    0.45 
   0   7 -11    6.37    0.48 
   1  -7  11    0.31    0.11 
  -1  -7 -11    0.32    0.10 
   1   7  11    0.62    0.21 
  -1   7 -11    0.48    0.22 
   2  -7  11   11.18    0.48 
  -2  -7 -11   11.24    0.49 
   2   7  11   11.89    0.71 
  -2   7 -11   11.72    0.71 
   3  -7  11    6.20    0.32 
   3   7  11    5.98    0.54 
  -3   7 -11    6.54    0.51 
   4  -7  11    6.12    0.32 
  -4   7 -11    6.49    0.49 
   4   7  11    5.78    0.50 
   5  -7  11    5.33    0.29 
  -5   7 -11    5.91    0.44 
   5   7  11    5.55    0.49 
  -7  -8  11    7.79    0.44 
   7   8 -11    7.80    0.38 
  -7   8  11    7.72    0.49 
  -6  -8  11    0.79    0.17 
   6   8 -11    0.87    0.14 
  -6   8  11    0.62    0.19 
  -5  -8  11    9.11    0.47 
  -5   8  11    9.87    0.49 
   5   8 -11    8.94    0.45 
  -4  -8  11    6.26    0.35 
  -4  -8  11    5.67    0.33 
   4  -8 -11    5.11    0.33 
  -4   8  11    5.23    0.37 
   4   8 -11    5.89    0.36 
   3  -8 -11    5.72    0.34 
  -3  -8  11    6.14    0.34 
   3   8 -11    6.90    0.42 
  -3   8  11    6.34    0.41 
  -2  -8  11   -0.06    0.10 
   2  -8 -11   -0.03    0.10 
  -2   8  11    0.18    0.15 
   2   8 -11    0.06    0.16 
  -1  -8  11   20.12    0.77 
   1  -8 -11   19.20    0.80 
   1   8 -11   20.75    0.99 
  -1   8  11   18.17    0.95 
   0  -8 -11   -0.01    0.10 
   0  -8  11    0.02    0.10 
   0   8 -11    0.09    0.21 
   0   8  11    0.00    0.19 
   1  -8  11    1.28    0.14 
  -1  -8 -11    1.39    0.15 
   1   8  11    1.22    0.26 
  -1   8 -11    1.47    0.29 
  -2  -8 -11    1.64    0.15 
   2  -8  11    1.47    0.15 
  -2   8 -11    1.24    0.26 
   2   8  11    1.37    0.28 
   3  -8  11    4.83    0.28 
   3   8  11    5.38    0.51 
  -3   8 -11    5.32    0.44 
   4  -8  11    0.25    0.11 
  -4   8 -11    0.20    0.18 
   4   8  11    0.10    0.21 
   5  -8  11    0.37    0.12 
   5   8  11    0.62    0.26 
  -5   8 -11    0.38    0.20 
  -6  -9  11    0.01    0.15 
   6  -9 -11    0.05    0.14 
  -5  -9  11    0.82    0.16 
   5  -9 -11    0.54    0.15 
   4  -9 -11    0.51    0.15 
  -4   9  11    0.88    0.18 
   4   9 -11    0.84    0.16 
   4   9 -11    0.78    0.14 
  -3  -9  11    1.86    0.19 
   3  -9 -11    1.30    0.17 
  -3   9  11    1.24    0.21 
   3   9 -11    1.61    0.22 
   2  -9 -11    2.40    0.21 
  -2  -9  11    2.57    0.22 
  -2   9  11    2.05    0.26 
   2   9 -11    3.10    0.32 
  -1  -9  11    0.25    0.12 
   1  -9 -11    0.16    0.12 
  -1   9  11    0.12    0.16 
   1   9 -11    0.20    0.20 
   0  -9 -11   14.10    0.62 
   0  -9  11   14.62    0.60 
   0   9 -11   15.88    0.84 
   0   9  11   14.82    0.81 
  -1  -9 -11    2.30    0.20 
   1  -9  11    2.27    0.18 
  -1   9 -11    2.67    0.34 
   1   9  11    2.00    0.30 
   2  -9  11   14.17    0.60 
  -2  -9 -11   14.09    0.62 
  -2   9 -11   14.73    0.82 
   2   9  11   16.94    0.90 
   3  -9  11    0.26    0.12 
   3   9  11   -0.01    0.25 
  -3   9 -11    0.16    0.20 
   4  -9  11    0.72    0.14 
   4   9  11    0.72    0.28 
  -4   9 -11    0.82    0.23 
   5 -10 -11    2.27    0.22 
   4 -10 -11    2.69    0.24 
   4  10 -11    2.86    0.27 
  -4  10  11    3.24    0.31 
   3 -10 -11    9.47    0.48 
   3  10 -11   10.15    0.56 
  -3  10  11    9.89    0.56 
   2 -10 -11    0.37    0.14 
  -2  10  11    0.41    0.18 
   2  10 -11    0.45    0.20 
   1 -10 -11    3.32    0.25 
   1  10 -11    3.23    0.34 
  -1  10  11    2.93    0.31 
   0 -10 -11    0.15    0.12 
   0  10 -11    0.15    0.22 
   0  10  11    0.21    0.21 
  -1 -10 -11   -0.15    0.11 
   1  10  11   -0.08    0.19 
  -1  10 -11    0.13    0.22 
  -2 -10 -11    1.63    0.17 
  -2  10 -11    1.57    0.28 
   2  10  11    1.60    0.34 
   3  10  11    1.39    0.31 
  -3  10 -11    1.40    0.29 
   3 -11 -11    0.68    0.16 
   3  11 -11    0.56    0.18 
  -3  11  11    0.68    0.20 
   2 -11 -11    5.66    0.36 
   2  11 -11    7.35    0.48 
  -2  11  11    6.34    0.45 
   1 -11 -11    1.17    0.17 
  -1  11  11    1.39    0.24 
   1  11 -11    1.53    0.26 
   0 -11 -11    0.68    0.15 
   0  11  11    0.71    0.24 
   0  11 -11    0.48    0.22 
  -1 -11 -11    2.56    0.23 
   1  11  11    3.06    0.38 
  -1  11 -11    2.61    0.34 
  -9   0  12    0.21    0.13 
   9   0 -12    0.01    0.13 
   8   0 -12    2.26    0.23 
  -8   0  12    3.06    0.25 
  -7   0  12    0.12    0.12 
   7   0 -12    0.11    0.13 
   6   0 -12    2.19    0.23 
  -6   0  12    2.42    0.21 
  -5   0  12   -0.04    0.15 
  -5   0  12    0.07    0.11 
  -4   0  12    2.94    0.23 
  -4   0  12    3.17    0.24 
   4   0 -12    2.96    0.24 
   3   0 -12   -0.03    0.11 
  -3   0  12    0.01    0.09 
  -3   0  12    0.12    0.10 
  -2   0  12   51.83    1.92 
  -2   0  12   52.53    1.98 
   2   0 -12   53.27    2.27 
   1   0 -12   -0.03    0.15 
  -1   0  12    0.09    0.09 
   0   0 -12   16.97    0.86 
   0   0  12   16.42    0.66 
  -1   0 -12    0.15    0.18 
   1   0  12    0.11    0.09 
   2   0  12    1.71    0.15 
  -2   0 -12    1.71    0.28 
  -3   0 -12   -0.16    0.18 
   3   0  12   -0.11    0.10 
   4   0  12   13.52    0.55 
  -4   0 -12   13.18    0.77 
   5   0  12    0.00    0.12 
  -5   0 -12   -0.02    0.20 
   6   0  12    0.31    0.13 
  -6   0 -12    0.20    0.19 
   7   0  12   -0.28    0.12 
  -7   0 -12   -0.09    0.16 
   9  -1 -12    5.04    0.33 
  -9  -1  12    4.98    0.32 
  -9   1  12    5.21    0.33 
   9   1 -12    5.12    0.34 
   8  -1 -12    1.28    0.18 
  -8  -1  12    1.21    0.17 
   8   1 -12    0.97    0.18 
  -8   1  12    1.37    0.18 
  -7  -1  12    9.56    0.48 
   7  -1 -12    9.74    0.49 
  -7   1  12   10.29    0.49 
   7   1 -12   10.01    0.50 
  -6  -1  12    7.70    0.40 
   6  -1 -12    7.77    0.42 
   6   1 -12    7.86    0.45 
  -6   1  12    8.26    0.42 
  -5  -1  12   21.06    0.81 
  -5  -1  12   18.32    0.80 
   5  -1 -12   19.35    0.82 
  -5   1  12   17.90    0.81 
   4  -1 -12    0.13    0.10 
  -4  -1  12    0.05    0.12 
  -4  -1  12    0.08    0.11 
   4   1 -12    0.08    0.10 
  -4   1  12    0.03    0.13 
  -4   1  12   -0.10    0.10 
  -3  -1  12   19.02    0.74 
   3  -1 -12   17.93    0.85 
  -3  -1  12   17.22    0.75 
   3   1 -12   18.72    0.86 
  -3   1  12   17.95    0.73 
  -3   1  12   18.56    0.74 
  -2  -1  12    0.23    0.11 
   2  -1 -12    0.00    0.13 
   2   1 -12    0.17    0.14 
  -2   1  12    0.23    0.11 
  -2   1  12    0.19    0.07 
  -1  -1  12    1.00    0.13 
   1  -1 -12    1.00    0.19 
  -1   1  12    0.77    0.12 
   1   1 -12    0.57    0.17 
   0  -1 -12    2.45    0.28 
   0  -1  12    2.80    0.20 
   0   1 -12    2.40    0.29 
   0   1  12    2.85    0.19 
   1  -1  12    5.99    0.31 
  -1  -1 -12    6.43    0.46 
   1   1  12    5.79    0.30 
  -1   1 -12    6.51    0.50 
   2  -1  12    1.36    0.13 
  -2  -1 -12    1.21    0.27 
  -2   1 -12    1.51    0.29 
   2   1  12    1.52    0.14 
   3  -1  12   12.31    0.51 
  -3  -1 -12   11.85    0.71 
   3   1  12   12.51    0.51 
  -3   1 -12   11.42    0.71 
  -4  -1 -12   13.05    0.72 
   4  -1  12   12.24    0.51 
  -4   1 -12   12.26    0.71 
   4   1  12   11.81    0.51 
   5  -1  12    7.32    0.36 
  -5  -1 -12    6.60    0.52 
   5   1  12    7.10    0.35 
  -5   1 -12    6.76    0.49 
  -6  -1 -12    0.04    0.19 
   6  -1  12    0.19    0.13 
   6   1  12    0.06    0.12 
  -6   1 -12   -0.05    0.15 
   7  -1  12    4.31    0.30 
  -7  -1 -12    4.31    0.38 
   7   1  12    4.10    0.27 
  -7   1 -12    4.41    0.37 
   9  -2 -12    1.47    0.19 
  -9  -2  12    1.73    0.19 
  -9   2  12    1.81    0.20 
   9   2 -12    1.72    0.20 
   8  -2 -12    1.02    0.17 
  -8  -2  12    1.08    0.16 
  -8   2  12    1.50    0.18 
   8   2 -12    1.14    0.17 
  -7  -2  12    0.27    0.12 
   7  -2 -12    0.00    0.11 
  -7   2  12    0.33    0.15 
   7   2 -12    0.24    0.15 
   6  -2 -12    0.14    0.14 
  -6  -2  12    0.30    0.11 
   6   2 -12   -0.07    0.15 
  -6   2  12    0.13    0.14 
   5  -2 -12    9.13    0.46 
  -5  -2  12    9.20    0.42 
  -5  -2  12    7.91    0.44 
  -5   2  12    8.18    0.44 
   4  -2 -12   14.75    0.74 
  -4  -2  12   18.33    0.69 
  -4  -2  12   15.78    0.67 
  -4   2  12   15.78    0.69 
   4   2 -12   15.85    0.75 
  -4   2  12   15.64    0.68 
  -3  -2  12    7.58    0.37 
   3  -2 -12    6.86    0.42 
  -3  -2  12    7.37    0.37 
  -3   2  12    7.71    0.35 
  -3   2  12    7.79    0.37 
   3   2 -12    7.45    0.43 
   2  -2 -12   13.89    0.70 
  -2  -2  12   13.86    0.57 
  -2   2  12   13.47    0.56 
  -2   2  12   13.80    0.57 
   2   2 -12   14.52    0.71 
  -1  -2  12    5.91    0.30 
   1  -2 -12    5.48    0.41 
  -1   2  12    5.78    0.28 
   1   2 -12    5.38    0.40 
   0  -2 -12   13.49    0.75 
   0  -2  12   15.00    0.58 
   0   2  12   13.35    0.55 
   0   2 -12   13.52    0.75 
   1  -2  12   11.91    0.49 
  -1  -2 -12   11.71    0.68 
  -1   2 -12   11.50    0.68 
   1   2  12   11.37    0.48 
   2  -2  12    9.15    0.40 
  -2  -2 -12    9.32    0.59 
   2   2  12    8.87    0.39 
  -2   2 -12    9.21    0.62 
  -3  -2 -12    1.73    0.29 
   3  -2  12    1.80    0.16 
  -3   2 -12    2.17    0.32 
   3   2  12    1.99    0.16 
  -4  -2 -12    0.38    0.21 
   4  -2  12    0.71    0.13 
  -4   2 -12    0.65    0.22 
   4   2  12    0.53    0.12 
  -5  -2 -12    0.69    0.23 
   5  -2  12    0.53    0.14 
   5   2  12    0.38    0.12 
  -5   2 -12    0.73    0.23 
  -6  -2 -12    1.81    0.28 
   6  -2  12    1.45    0.18 
   6   2  12    1.60    0.17 
  -6   2 -12    1.29    0.24 
   7  -2  12    0.23    0.14 
  -7  -2 -12    0.35    0.19 
   7   2  12    0.14    0.13 
  -7   2 -12    0.02    0.17 
  -8  -3  12    3.57    0.28 
   8  -3 -12    3.67    0.27 
  -8   3  12    3.93    0.31 
   8   3 -12    3.87    0.30 
  -7  -3  12    6.39    0.35 
   7  -3 -12    5.70    0.34 
   7   3 -12    6.50    0.39 
  -7   3  12    6.55    0.40 
   6  -3 -12    8.12    0.42 
  -6  -3  12    8.50    0.40 
  -6   3  12    7.47    0.45 
   6   3 -12    8.56    0.47 
  -5  -3  12   10.80    0.53 
   5  -3 -12   10.79    0.51 
  -5  -3  12   11.29    0.48 
  -5   3  12    9.20    0.51 
  -4  -3  12   29.29    1.04 
   4  -3 -12   25.20    1.15 
  -4  -3  12   25.82    1.01 
  -4   3  12   24.09    1.01 
   4   3 -12   24.62    1.14 
  -4   3  12   25.71    1.04 
   3  -3 -12    3.92    0.31 
  -3  -3  12    4.66    0.25 
  -3  -3  12    3.94    0.27 
  -3   3  12    3.88    0.24 
  -3   3  12    4.35    0.27 
   3   3 -12    4.33    0.31 
  -2  -3  12    9.23    0.41 
   2  -3 -12    9.01    0.51 
   2   3 -12    9.25    0.52 
  -2   3  12    8.45    0.39 
  -2   3  12    9.30    0.40 
   1  -3 -12    0.61    0.08 
  -1  -3  12    0.69    0.12 
   1  -3 -12    0.55    0.19 
   1   3 -12    0.72    0.20 
  -1   3  12    0.77    0.11 
   0  -3  12    1.70    0.16 
   0  -3 -12    1.77    0.27 
   0   3  12    1.42    0.14 
   0   3 -12    1.33    0.24 
  -1  -3 -12    0.69    0.23 
   1  -3  12    0.71    0.13 
   1   3  12    0.80    0.11 
  -1   3 -12    0.64    0.24 
   2  -3  12    8.89    0.41 
  -2  -3 -12    8.72    0.59 
  -2   3 -12    9.45    0.62 
   2   3  12    9.16    0.39 
  -3  -3 -12    8.82    0.62 
   3  -3  12    9.31    0.42 
  -3   3 -12    9.29    0.60 
   3   3  12    9.59    0.40 
   4  -3  12    3.84    0.24 
  -4  -3 -12    3.60    0.38 
  -4   3 -12    3.99    0.39 
   4   3  12    4.16    0.24 
   5  -3  12    1.58    0.17 
  -5  -3 -12    1.79    0.30 
   5   3  12    1.52    0.15 
  -5   3 -12    1.43    0.25 
  -6  -3 -12    6.31    0.46 
   6  -3  12    5.38    0.31 
   6   3  12    5.25    0.30 
  -6   3 -12    5.41    0.43 
   8  -4 -12    1.25    0.16 
  -8  -4  12    0.94    0.17 
  -8   4  12    1.39    0.21 
   8   4 -12    0.91    0.17 
  -7  -4  12    1.41    0.18 
   7  -4 -12    1.38    0.17 
  -7   4  12    1.77    0.23 
   7   4 -12    1.51    0.18 
   6  -4 -12    0.19    0.12 
  -6  -4  12    0.32    0.12 
   6   4 -12    0.08    0.14 
  -6   4  12    0.09    0.15 
  -5  -4  12    0.43    0.17 
   5  -4 -12    0.44    0.13 
  -5  -4  12    0.67    0.13 
  -5   4  12    0.77    0.16 
  -4  -4  12    0.69    0.12 
  -4  -4  12    0.56    0.15 
   4  -4 -12    0.64    0.14 
   4  -4 -12    0.44    0.14 
   4   4 -12    0.64    0.13 
  -4   4  12    0.57    0.13 
  -3  -4  12    6.41    0.34 
  -3   4  12    6.46    0.32 
   3   4 -12    6.53    0.40 
  -3   4  12    6.41    0.34 
  -3   4  12    6.37    0.39 
   2  -4 -12    1.07    0.12 
  -2  -4  12    0.92    0.14 
   2   4 -12    0.87    0.19 
  -2   4  12    0.66    0.12 
  -2   4  12    0.82    0.18 
   1  -4 -12   40.56    1.61 
  -1  -4  12   43.06    1.57 
  -1   4  12   41.56    1.87 
  -1   4  12   42.54    1.56 
   1   4 -12   44.44    1.90 
   0  -4  12    3.78    0.23 
   0   4 -12    4.13    0.37 
   0   4  12    4.12    0.36 
   0   4  12    3.53    0.22 
   1  -4  12   16.76    0.68 
  -1   4 -12   17.30    0.90 
   1   4  12   17.69    0.91 
   1   4  12   16.29    0.66 
  -2  -4 -12    0.85    0.23 
   2  -4  12    0.78    0.13 
  -2   4 -12    0.54    0.25 
   2   4  12    0.70    0.11 
  -3  -4 -12    2.17    0.33 
   3  -4  12    1.89    0.17 
   3   4  12    2.01    0.17 
  -3   4 -12    2.11    0.32 
   4  -4  12   -0.07    0.11 
  -4  -4 -12   -0.03    0.21 
   4   4  12    0.16    0.10 
  -4   4 -12    0.07    0.19 
   5  -4  12    2.70    0.22 
  -5  -4 -12    2.91    0.35 
  -5   4 -12    3.28    0.35 
   5   4  12    2.61    0.20 
   6  -4  12    0.11    0.13 
  -6  -4 -12    0.09    0.19 
   6   4  12    0.05    0.10 
  -6   4 -12    0.33    0.20 
   8  -5 -12    9.65    0.46 
  -8  -5  12    9.68    0.49 
  -8   5  12   10.14    0.54 
   8   5 -12   10.71    0.49 
  -7  -5  12    1.45    0.18 
   7  -5 -12    1.47    0.17 
   7   5 -12    1.38    0.19 
  -7   5  12    1.53    0.22 
  -6  -5  12   10.66    0.49 
   6  -5 -12   10.17    0.47 
  -6   5  12    9.37    0.53 
   6   5 -12   10.60    0.52 
   5  -5 -12    2.76    0.23 
  -5  -5  12    2.96    0.22 
  -5  -5  12    2.74    0.25 
  -5   5  12    2.51    0.24 
  -4  -5  12   13.13    0.57 
  -4  -5  12   13.05    0.58 
   4  -5 -12   12.83    0.57 
  -4   5  12   13.23    0.64 
   4   5 -12   12.67    0.63 
  -4   5  12   12.93    0.58 
  -3  -5  12    2.33    0.20 
   3   5 -12    2.35    0.23 
  -3   5  12    2.46    0.20 
  -3   5  12    2.15    0.19 
  -3   5  12    2.70    0.26 
   2  -5 -12    1.16    0.12 
  -2  -5  12    1.16    0.15 
  -2   5  12    0.94    0.13 
   2   5 -12    1.13    0.20 
  -2   5  12    1.15    0.20 
   1  -5 -12    0.31    0.09 
  -1  -5  12    0.40    0.12 
  -1   5  12    0.22    0.09 
   1   5 -12    0.58    0.18 
  -1   5  12    0.28    0.17 
   0  -5 -12    3.35    0.21 
   0  -5  12    3.29    0.24 
   0   5  12    3.50    0.21 
   0   5  12    4.16    0.38 
   0   5 -12    4.31    0.38 
   1  -5  12    0.97    0.13 
  -1   5 -12    0.80    0.24 
   1   5  12    1.09    0.23 
   1   5  12    0.78    0.11 
   2  -5  12    2.94    0.23 
   2   5  12    3.34    0.20 
  -2   5 -12    2.69    0.34 
   2   5  12    3.74    0.38 
   3  -5  12    2.50    0.19 
  -3  -5 -12    2.50    0.33 
  -3   5 -12    3.10    0.36 
   3   5  12    2.69    0.18 
   4  -5  12    4.24    0.26 
  -4  -5 -12    3.91    0.41 
  -4   5 -12    4.84    0.44 
   4   5  12    4.47    0.24 
   5  -5  12    2.45    0.20 
  -5  -5 -12    2.74    0.34 
  -5   5 -12    1.91    0.27 
   5   5  12    2.56    0.19 
   6  -5  12    8.39    0.41 
  -6  -5 -12    9.87    0.60 
  -6   5 -12    8.69    0.55 
  -7  -6  12    0.99    0.18 
   7  -6 -12    1.19    0.16 
  -7   6  12    1.28    0.22 
   7   6 -12    1.42    0.18 
  -6  -6  12    1.54    0.19 
   6  -6 -12    1.89    0.17 
  -6   6  12    1.44    0.22 
   6   6 -12    1.51    0.19 
   5  -6 -12    3.48    0.23 
  -5  -6  12    3.01    0.26 
  -5   6  12    3.10    0.28 
  -4  -6  12    9.04    0.44 
  -4  -6  12    9.42    0.46 
   4  -6 -12    8.91    0.42 
  -4   6  12    9.08    0.50 
   4   6 -12    8.88    0.48 
  -4   6  12    9.33    0.45 
   3  -6 -12    9.58    0.45 
   3  -6 -12    9.00    0.44 
  -3  -6  12    9.69    0.45 
  -3   6  12    9.93    0.54 
   3   6 -12    9.70    0.53 
  -2  -6  12    2.36    0.19 
   2  -6 -12    2.03    0.18 
  -2   6  12    2.08    0.25 
   2   6 -12    2.28    0.26 
  -2   6  12    2.14    0.18 
   1  -6 -12   16.16    0.67 
  -1  -6  12   16.74    0.67 
   1   6 -12   18.07    0.86 
  -1   6  12   16.31    0.83 
  -1   6  12   15.95    0.65 
   0  -6  12    1.46    0.14 
   0  -6 -12    1.70    0.14 
   0   6  12    1.65    0.14 
   0   6 -12    1.83    0.29 
   0   6  12    1.59    0.24 
   1  -6  12   14.64    0.60 
  -1   6 -12   14.10    0.81 
   1   6  12   14.92    0.81 
   1   6  12   14.92    0.58 
   2  -6  12    6.59    0.34 
  -2   6 -12    8.27    0.54 
   2   6  12    6.81    0.53 
   3  -6  12    4.18    0.26 
   3   6  12    3.89    0.44 
  -3   6 -12    4.67    0.43 
  -4  -6 -12   -0.19    0.21 
   4  -6  12   -0.06    0.12 
  -4   6 -12   -0.13    0.21 
  -5  -6 -12    1.53    0.30 
   5  -6  12    1.66    0.17 
  -5   6 -12    1.34    0.25 
  -7  -7  12    7.37    0.41 
   7   7 -12    7.03    0.36 
  -7   7  12    5.80    0.44 
  -6  -7  12   13.71    0.65 
  -6   7  12   14.08    0.68 
   6   7 -12   14.47    0.62 
  -5  -7  12    3.39    0.27 
   5   7 -12    3.50    0.28 
  -5   7  12    3.86    0.30 
  -4  -7  12    3.08    0.25 
   4  -7 -12    2.64    0.24 
   4   7 -12    2.69    0.26 
  -4   7  12    3.10    0.28 
  -3  -7  12    5.73    0.34 
   3  -7 -12    5.93    0.33 
   3   7 -12    6.88    0.41 
  -3   7  12    6.79    0.42 
  -2  -7  12    1.76    0.16 
   2  -7 -12    1.59    0.16 
   2   7 -12    2.01    0.26 
  -2   7  12    1.58    0.21 
  -1  -7  12    0.27    0.11 
   1  -7 -12    0.20    0.10 
  -1   7  12    0.12    0.17 
   1   7 -12    0.34    0.19 
   0  -7 -12    1.16    0.13 
   0  -7  12    0.83    0.13 
   0   7  12    0.54    0.22 
   0   7 -12    1.17    0.24 
   1  -7  12    2.00    0.17 
  -1  -7 -12    2.15    0.17 
   1   7  12    2.38    0.31 
  -1   7 -12    2.30    0.32 
   2  -7  12    0.28    0.11 
  -2   7 -12    0.01    0.19 
   2   7  12    0.24    0.23 
   3  -7  12    1.55    0.16 
  -3   7 -12    1.86    0.30 
   3   7  12    1.79    0.34 
   4  -7  12    6.39    0.34 
  -4   7 -12    6.98    0.51 
   4   7  12    6.61    0.57 
   5  -7  12    1.43    0.17 
  -5  -7 -12    1.31    0.30 
  -5   7 -12    1.15    0.25 
  -6  -8  12    0.35    0.15 
   6   8 -12    0.77    0.14 
  -6   8  12    0.26    0.18 
   5  -8 -12   -0.04    0.12 
   5   8 -12    0.32    0.13 
  -4  -8  12    0.27    0.15 
   4  -8 -12    0.05    0.12 
  -4   8  12    0.17    0.15 
   4   8 -12    0.30    0.13 
   3  -8 -12    0.96    0.15 
  -3  -8  12    0.76    0.15 
   3   8 -12    0.89    0.18 
  -3   8  12    0.99    0.20 
  -2  -8  12   17.56    0.69 
   2  -8 -12   16.09    0.71 
  -2   8  12   16.40    0.84 
   2   8 -12   17.55    0.86 
   1  -8 -12    0.43    0.12 
  -1  -8  12    0.29    0.12 
   1   8 -12    0.47    0.21 
  -1   8  12    0.74    0.21 
   0  -8  12   14.62    0.61 
   0  -8 -12   14.30    0.63 
   0   8 -12   16.59    0.85 
   0   8  12   16.00    0.83 
   1  -8  12    1.32    0.15 
  -1  -8 -12    1.57    0.15 
   1   8  12    1.43    0.27 
  -1   8 -12    1.49    0.27 
   2  -8  12    3.54    0.23 
   2   8  12    3.36    0.40 
  -2   8 -12    2.78    0.37 
   3  -8  12    0.73    0.13 
   3   8  12    0.69    0.29 
  -3   8 -12    0.50    0.24 
   4  -8  12    1.29    0.16 
  -4   8 -12    1.67    0.28 
   4   8  12    2.14    0.36 
   5  -9 -12    1.29    0.18 
   4  -9 -12    0.47    0.14 
  -4  -9  12    0.73    0.18 
  -4   9  12    0.67    0.18 
   4   9 -12    0.49    0.15 
   3  -9 -12    4.23    0.28 
  -3  -9  12    4.57    0.30 
  -3   9  12    3.91    0.35 
   3   9 -12    4.09    0.35 
  -2  -9  12    0.58    0.14 
   2  -9 -12    0.78    0.14 
  -2   9  12    0.77    0.21 
   2   9 -12    0.51    0.19 
  -1  -9  12    0.20    0.12 
   1  -9 -12    0.02    0.11 
   1   9 -12    0.36    0.19 
  -1   9  12    0.12    0.19 
   0  -9  12    0.01    0.11 
   0  -9 -12    0.24    0.11 
   0   9  12    0.20    0.21 
   0   9 -12    0.47    0.23 
   1  -9  12    5.04    0.29 
  -1  -9 -12    5.22    0.29 
   1   9  12    5.79    0.47 
  -1   9 -12    6.39    0.48 
   2  -9  12    0.75    0.13 
  -2   9 -12    0.62    0.26 
   2   9  12    0.66    0.26 
   3  -9  12    2.38    0.19 
  -3   9 -12    2.33    0.34 
   3   9  12    2.67    0.40 
   4 -10 -12    4.79    0.33 
  -4  10  12    5.28    0.40 
   4  10 -12    5.26    0.35 
   3 -10 -12    1.21    0.17 
   3  10 -12    1.47    0.22 
  -3  10  12    1.07    0.21 
   2 -10 -12    8.00    0.42 
  -2  10  12    8.15    0.52 
   2  10 -12    8.53    0.54 
   1 -10 -12   -0.20    0.11 
   1  10 -12    0.21    0.21 
  -1  10  12    0.26    0.19 
   0 -10 -12    6.46    0.37 
   0  10 -12    9.44    0.59 
   0  10  12    7.12    0.53 
  -1 -10 -12    4.05    0.27 
  -1  10 -12    3.71    0.42 
   1  10  12    5.03    0.48 
  -2  10 -12    2.43    0.34 
   2  10  12    2.83    0.38 
   1 -11 -12    1.35    0.17 
   1  11 -12    1.46    0.27 
  -1  11  12    1.15    0.24 
  -8   0  13    0.22    0.12 
   8   0 -13    0.02    0.14 
  -7   0  13    8.15    0.42 
   7   0 -13    8.80    0.46 
   6   0 -13    0.03    0.14 
  -6   0  13    0.24    0.13 
  -5   0  13   26.37    1.08 
  -5   0  13   26.14    1.06 
  -4   0  13   -0.06    0.13 
   4   0 -13   -0.07    0.10 
  -4   0  13   -0.01    0.11 
   3   0 -13    0.29    0.13 
  -3   0  13    0.27    0.13 
  -3   0  13    0.40    0.10 
   2   0 -13   -0.02    0.12 
  -2   0  13   -0.06    0.10 
   1   0 -13    6.42    0.45 
  -1   0  13    6.52    0.32 
   0   0  13   -0.02    0.09 
   0   0 -13    0.10    0.17 
  -1   0 -13    3.42    0.38 
   1   0  13    3.72    0.24 
  -2   0 -13    0.19    0.20 
   2   0  13   -0.02    0.10 
  -3   0 -13   19.03    1.01 
   3   0  13   19.58    0.76 
   4   0  13    0.05    0.11 
  -4   0 -13   -0.11    0.18 
   5   0  13   10.02    0.44 
  -5   0 -13    9.42    0.60 
   6   0  13   -0.09    0.12 
  -6   0 -13    0.21    0.20 
   8  -1 -13    0.82    0.17 
  -8  -1  13    0.79    0.15 
   8   1 -13    0.69    0.16 
  -8   1  13    0.67    0.14 
  -7  -1  13    5.00    0.31 
   7  -1 -13    5.35    0.34 
  -7   1  13    5.68    0.34 
   7   1 -13    5.68    0.35 
   6  -1 -13    2.10    0.24 
  -6  -1  13    2.73    0.23 
   6   1 -13    2.26    0.25 
  -6   1  13    2.38    0.22 
  -5  -1  13    1.03    0.15 
  -5  -1  13    0.74    0.17 
  -5   1  13    0.98    0.16 
  -4  -1  13   18.06    0.73 
   4  -1 -13   16.96    0.80 
  -4  -1  13   17.27    0.71 
  -4   1  13   16.46    0.71 
  -4   1  13   16.55    0.72 
   4   1 -13   16.64    0.79 
  -3  -1  13    0.23    0.11 
   3  -1 -13    0.04    0.12 
  -3   1  13    0.05    0.12 
  -3   1  13   -0.11    0.08 
   3   1 -13    0.09    0.12 
  -2  -1  13   30.72    1.11 
   2  -1 -13   28.14    1.31 
   2   1 -13   28.45    1.32 
  -2   1  13   28.86    1.10 
   1  -1 -13    8.00    0.51 
  -1  -1  13    8.56    0.39 
   1   1 -13    8.57    0.52 
  -1   1  13    7.65    0.38 
   0  -1  13    4.45    0.25 
   0  -1 -13    4.14    0.40 
   0   1  13    4.40    0.24 
   0   1 -13    3.72    0.37 
   1  -1  13    3.96    0.25 
  -1  -1 -13    4.71    0.40 
   1   1  13    4.04    0.23 
  -1   1 -13    4.05    0.40 
   2  -1  13    3.79    0.23 
  -2  -1 -13    3.72    0.39 
  -2   1 -13    4.21    0.41 
   2   1  13    3.68    0.22 
  -3  -1 -13    3.76    0.43 
   3  -1  13    4.57    0.25 
  -3   1 -13    4.99    0.47 
   3   1  13    4.48    0.26 
   4  -1  13    0.18    0.11 
  -4  -1 -13    0.15    0.20 
   4   1  13    0.00    0.11 
  -4   1 -13    0.21    0.20 
   5  -1  13    0.11    0.11 
  -5  -1 -13   -0.03    0.21 
  -5   1 -13   -0.09    0.20 
   5   1  13    0.08    0.11 
   6  -1  13    3.77    0.27 
  -6  -1 -13    4.00    0.39 
  -6   1 -13    3.93    0.37 
   6   1  13    3.62    0.26 
  -8  -2  13   12.67    0.58 
   8  -2 -13   12.45    0.58 
  -8   2  13   13.06    0.60 
   8   2 -13   12.99    0.60 
  -7  -2  13   16.60    0.71 
   7  -2 -13   15.48    0.70 
   7   2 -13   17.43    0.74 
  -7   2  13   16.97    0.74 
  -6  -2  13    3.74    0.26 
   6  -2 -13    3.74    0.30 
   6   2 -13    3.77    0.31 
  -6   2  13    3.19    0.29 
   5  -2 -13    1.89    0.23 
  -5  -2  13    2.06    0.22 
  -5  -2  13    2.33    0.19 
  -5   2  13    1.70    0.20 
  -4  -2  13    0.23    0.13 
   4  -2 -13    0.30    0.12 
  -4  -2  13    0.44    0.12 
  -4   2  13    0.15    0.12 
   4   2 -13    0.27    0.12 
  -4   2  13    0.15    0.14 
   3  -2 -13    0.74    0.15 
  -3  -2  13    1.02    0.15 
  -3   2  13    1.18    0.13 
  -3   2  13    0.88    0.14 
   3   2 -13    0.94    0.17 
  -2  -2  13   -0.03    0.11 
   2  -2 -13    0.00    0.14 
  -2   2  13    0.01    0.10 
   2   2 -13    0.03    0.14 
   1  -2 -13    0.98    0.21 
  -1  -2  13    1.09    0.15 
   1   2 -13    0.82    0.20 
  -1   2  13    1.01    0.13 
   0  -2 -13    8.72    0.57 
   0  -2  13    8.83    0.40 
   0   2  13    8.61    0.39 
   0   2 -13    9.50    0.59 
  -1  -2 -13   13.94    0.80 
   1  -2  13   14.57    0.59 
  -1   2 -13   15.19    0.82 
   1   2  13   14.00    0.58 
  -2  -2 -13   12.95    0.75 
   2  -2  13   12.87    0.54 
  -2   2 -13   12.92    0.76 
   2   2  13   13.11    0.53 
  -3  -2 -13    5.94    0.49 
   3  -2  13    6.31    0.32 
  -3   2 -13    6.17    0.52 
   3   2  13    5.97    0.30 
   4  -2  13    0.09    0.12 
  -4  -2 -13    0.16    0.20 
  -4   2 -13    0.26    0.23 
   4   2  13    0.10    0.10 
   5  -2  13    1.51    0.18 
  -5  -2 -13    1.98    0.30 
   5   2  13    1.77    0.17 
  -5   2 -13    1.77    0.29 
  -6  -2 -13    1.98    0.29 
   6  -2  13    1.68    0.18 
   6   2  13    1.81    0.18 
  -6   2 -13    1.62    0.27 
  -8  -3  13    0.32    0.12 
   8  -3 -13    0.15    0.13 
   8   3 -13   -0.03    0.13 
  -8   3  13    0.48    0.16 
   7  -3 -13    1.39    0.17 
  -7  -3  13    1.68    0.18 
  -7   3  13    1.84    0.22 
   7   3 -13    1.64    0.20 
  -6  -3  13    7.86    0.37 
   6  -3 -13    7.22    0.38 
   6   3 -13    6.91    0.42 
  -6   3  13    5.69    0.40 
  -5  -3  13    7.12    0.34 
   5  -3 -13    6.37    0.37 
  -5  -3  13    6.16    0.38 
  -5   3  13    6.22    0.37 
  -4  -3  13    0.24    0.13 
   4  -3 -13    0.15    0.12 
  -4  -3  13    0.57    0.13 
  -4   3  13    0.26    0.12 
   4   3 -13    0.21    0.12 
  -4   3  13    0.31    0.15 
  -3  -3  13    7.95    0.40 
   3  -3 -13    8.49    0.47 
  -3   3  13    8.80    0.41 
   3   3 -13    7.93    0.47 
  -3   3  13    7.95    0.38 
   2  -3 -13    9.70    0.42 
   2  -3 -13    9.73    0.55 
  -2  -3  13    9.69    0.44 
  -2   3  13    9.87    0.44 
   2   3 -13   10.58    0.57 
   1  -3 -13   13.72    0.71 
  -1  -3  13   12.92    0.55 
  -1   3  13   12.68    0.53 
   1   3 -13   13.11    0.70 
   0  -3 -13   12.29    0.69 
   0  -3  13   12.18    0.53 
   0   3 -13   12.59    0.72 
   0   3  13   12.53    0.51 
  -1  -3 -13    7.89    0.54 
   1  -3  13    7.89    0.38 
   1   3  13    7.89    0.36 
  -1   3 -13    8.62    0.58 
   2  -3  13    1.49    0.16 
  -2  -3 -13    1.66    0.28 
  -2   3 -13    1.14    0.28 
   2   3  13    1.31    0.14 
  -3  -3 -13    2.00    0.30 
   3  -3  13    1.85    0.17 
   3   3  13    1.54    0.15 
  -3   3 -13    1.69    0.29 
  -4  -3 -13    1.14    0.26 
   4  -3  13    1.05    0.14 
   4   3  13    1.09    0.13 
  -4   3 -13    1.12    0.25 
  -5  -3 -13    1.64    0.29 
   5  -3  13    1.34    0.17 
   5   3  13    1.28    0.15 
  -5   3 -13    1.30    0.27 
   6  -3  13   -0.05    0.12 
  -6  -3 -13   -0.05    0.19 
  -6   3 -13    0.09    0.18 
   6   3  13   -0.05    0.11 
   8  -4 -13    1.13    0.16 
  -8  -4  13    1.83    0.19 
   8   4 -13    1.70    0.20 
  -8   4  13    1.79    0.21 
  -7  -4  13    0.14    0.12 
   7  -4 -13    0.23    0.12 
   7   4 -13    0.29    0.16 
  -7   4  13    0.16    0.16 
  -6  -4  13    8.80    0.42 
   6  -4 -13    8.43    0.41 
  -6   4  13    7.57    0.47 
   6   4 -13    9.62    0.49 
   5  -4 -13    0.20    0.13 
  -5  -4  13    0.14    0.17 
  -5  -4  13    0.43    0.11 
  -5   4  13    0.38    0.15 
   4  -4 -13    7.84    0.43 
  -4  -4  13    8.23    0.41 
  -4   4  13    6.83    0.39 
  -4   4  13    7.50    0.38 
   4   4 -13    7.09    0.42 
   3  -4 -13    1.00    0.18 
  -3  -4  13    0.60    0.15 
  -3   4  13    0.72    0.14 
   3   4 -13    0.64    0.16 
  -3   4  13    0.68    0.11 
   2  -4 -13    0.98    0.11 
   2  -4 -13    0.70    0.19 
  -2  -4  13    0.74    0.13 
  -2   4  13    0.75    0.13 
   2   4 -13    0.95    0.19 
   1  -4 -13    2.90    0.30 
  -1  -4  13    3.34    0.22 
   1   4 -13    3.56    0.35 
  -1   4  13    2.96    0.21 
   0  -4  13    8.69    0.40 
   0  -4 -13    8.96    0.58 
   0   4  13    9.19    0.39 
   0   4 -13    8.91    0.57 
   1  -4  13    0.98    0.14 
  -1  -4 -13    0.92    0.23 
  -1   4 -13    1.11    0.24 
   1   4  13    1.05    0.13 
  -2  -4 -13    6.41    0.51 
   2  -4  13    5.47    0.30 
   2   4  13    6.25    0.30 
  -2   4 -13    6.03    0.49 
   3  -4  13    0.95    0.14 
  -3  -4 -13    1.15    0.28 
   3   4  13    1.04    0.13 
  -3   4 -13    0.57    0.23 
  -4  -4 -13   13.43    0.80 
   4  -4  13   12.95    0.56 
   4   4  13   13.84    0.55 
  -4   4 -13   13.94    0.79 
  -5  -4 -13   -0.03    0.21 
   5  -4  13   -0.03    0.12 
  -5   4 -13   -0.07    0.18 
   5   4  13   -0.11    0.10 
   7  -5 -13    0.65    0.13 
  -7  -5  13    0.69    0.15 
  -7   5  13    0.32    0.17 
   7   5 -13    0.74    0.17 
  -6  -5  13    0.90    0.14 
   6  -5 -13    0.83    0.14 
   6   5 -13    1.13    0.18 
  -6   5  13    0.40    0.18 
   5  -5 -13   16.54    0.70 
  -5  -5  13   17.49    0.73 
  -5  -5  13   16.62    0.73 
  -5   5  13   16.61    0.75 
   4  -5 -13    0.04    0.11 
  -4  -5  13   -0.08    0.13 
  -4   5  13    0.10    0.11 
   4   5 -13    0.05    0.11 
   3  -5 -13   31.82    1.29 
  -3  -5  13   33.13    1.25 
   3   5 -13   33.66    1.47 
  -3   5  13   33.81    1.47 
  -3   5  13   32.65    1.26 
   2  -5 -13    0.06    0.08 
  -2  -5  13   -0.07    0.10 
  -2   5  13    0.15    0.16 
   2   5 -13    0.21    0.15 
  -2   5  13    0.00    0.10 
  -1  -5  13    7.64    0.37 
   1  -5 -13    6.81    0.35 
  -1   5  13    7.53    0.49 
   1   5 -13    8.21    0.52 
  -1   5  13    7.53    0.35 
   0  -5  13    4.99    0.29 
   0   5 -13    4.86    0.45 
   0   5  13    5.17    0.26 
   0   5  13    4.95    0.40 
   1  -5  13    1.56    0.16 
   1   5  13    1.67    0.15 
   1   5  13    1.40    0.28 
  -1   5 -13    2.27    0.33 
  -2  -5 -13    0.43    0.24 
   2  -5  13    0.27    0.12 
  -2   5 -13    0.40    0.22 
   2   5  13    0.42    0.10 
  -3  -5 -13    1.00    0.28 
   3  -5  13    1.22    0.15 
  -3   5 -13    1.00    0.27 
   3   5  13    1.08    0.13 
  -4  -5 -13    0.24    0.22 
   4  -5  13    0.15    0.13 
   4   5  13    0.37    0.10 
  -4   5 -13    0.39    0.23 
  -5  -5 -13    2.66    0.36 
   5  -5  13    2.68    0.21 
   5   5  13    2.46    0.20 
  -5   5 -13    2.62    0.31 
   7  -6 -13    4.06    0.26 
  -7  -6  13    4.23    0.30 
   7   6 -13    4.43    0.30 
  -7   6  13    3.36    0.31 
   6  -6 -13    3.81    0.25 
  -6  -6  13    4.17    0.28 
  -6   6  13    3.56    0.33 
   6   6 -13    4.19    0.31 
  -5  -6  13    0.30    0.16 
   5  -6 -13    0.36    0.11 
  -5   6  13    0.11    0.14 
   4  -6 -13    0.87    0.14 
  -4  -6  13    0.81    0.17 
  -4   6  13    0.54    0.13 
   4   6 -13    0.58    0.15 
  -4   6  13    0.62    0.17 
   3  -6 -13    0.49    0.12 
  -3  -6  13    0.68    0.15 
  -3   6  13    0.85    0.19 
   3   6 -13    0.51    0.16 
  -2  -6  13    0.92    0.15 
   2  -6 -13    0.84    0.12 
  -2   6  13    0.82    0.18 
  -2   6  13    0.83    0.13 
   2   6 -13    0.88    0.20 
   1  -6 -13    0.01    0.09 
  -1  -6  13    0.04    0.11 
   1   6 -13    0.13    0.18 
  -1   6  13    0.11    0.16 
  -1   6  13    0.02    0.09 
   0  -6  13    3.84    0.26 
   0   6 -13    4.41    0.40 
   0   6  13    4.05    0.38 
   1  -6  13    3.95    0.25 
   1   6  13    4.44    0.43 
  -1   6 -13    5.53    0.48 
   2  -6  13    8.92    0.41 
   2   6  13    9.27    0.62 
  -2   6 -13    9.73    0.64 
   3  -6  13    2.27    0.19 
  -3   6 -13    2.46    0.34 
  -4  -6 -13    1.88    0.34 
   4  -6  13    2.01    0.18 
  -4   6 -13    1.81    0.29 
  -5  -6 -13    0.62    0.25 
   5  -6  13    0.50    0.14 
  -5   6 -13    0.57    0.20 
  -6   7  13    1.02    0.21 
   6   7 -13    1.13    0.17 
   5   7 -13    2.57    0.23 
  -5   7  13    2.23    0.23 
   4  -7 -13    7.31    0.39 
  -4  -7  13    8.34    0.43 
   4   7 -13    7.50    0.44 
  -4   7  13    8.04    0.46 
  -3  -7  13    1.92    0.18 
   3  -7 -13    2.22    0.19 
  -3   7  13    2.27    0.25 
   3   7 -13    2.01    0.23 
  -2  -7  13    8.23    0.39 
   2  -7 -13    7.54    0.38 
  -2   7  13    8.21    0.50 
   2   7 -13    8.19    0.50 
   1  -7 -13    8.42    0.38 
  -1  -7  13    8.00    0.39 
  -1   7  13    7.73    0.50 
   1   7 -13    8.94    0.54 
   0  -7  13    3.92    0.26 
   0   7 -13    4.01    0.40 
   0   7  13    3.79    0.38 
   1  -7  13    3.62    0.23 
  -1   7 -13    3.79    0.40 
   1   7  13    3.85    0.40 
   2  -7  13    0.62    0.12 
   2   7  13    0.71    0.28 
  -2   7 -13    0.56    0.25 
   3  -7  13    0.87    0.14 
  -3   7 -13    0.81    0.27 
   3   7  13    1.30    0.31 
  -4  -7 -13   -0.16    0.22 
   4  -7  13   -0.13    0.12 
  -4   7 -13   -0.13    0.18 
  -6   8  13    0.50    0.19 
   6   8 -13    0.81    0.15 
   5  -8 -13    3.28    0.28 
   5   8 -13    3.96    0.28 
   4  -8 -13    0.05    0.12 
  -4  -8  13    0.08    0.15 
   4   8 -13    0.09    0.13 
  -4   8  13    0.19    0.15 
  -3  -8  13    0.23    0.13 
   3  -8 -13    0.07    0.11 
   3   8 -13    0.24    0.15 
  -3   8  13    0.23    0.16 
   2  -8 -13    0.54    0.13 
  -2  -8  13    0.76    0.14 
   2   8 -13    0.57    0.19 
  -2   8  13    0.60    0.18 
   1  -8 -13    2.72    0.22 
  -1  -8  13    3.06    0.23 
  -1   8  13    3.06    0.32 
   1   8 -13    3.15    0.33 
   0  -8  13    0.27    0.12 
   0   8 -13    0.38    0.20 
   0   8  13    0.49    0.22 
   1  -8  13    1.57    0.16 
  -1   8 -13    1.65    0.31 
   1   8  13    2.04    0.32 
   2  -8  13    1.23    0.15 
  -2   8 -13    1.46    0.29 
   2   8  13    1.24    0.31 
   3  -8  13    7.48    0.39 
   3   8  13    9.25    0.67 
  -3   8 -13    9.14    0.61 
   5  -9 -13   -0.17    0.13 
   4  -9 -13   11.75    0.59 
  -4  -9  13   15.07    0.62 
   4   9 -13   13.09    0.67 
  -4   9  13   12.77    0.68 
   3  -9 -13    0.34    0.13 
  -3  -9  13    0.21    0.14 
  -3   9  13    0.26    0.18 
   3   9 -13    0.17    0.14 
  -2  -9  13   13.25    0.57 
   2  -9 -13   12.03    0.57 
  -2   9  13   12.65    0.70 
   2   9 -13   14.02    0.72 
   1  -9 -13    0.22    0.12 
  -1  -9  13    0.09    0.12 
  -1   9  13    0.14    0.20 
   1   9 -13    0.27    0.18 
   0  -9  13    2.42    0.19 
   0  -9 -13    2.39    0.21 
   0   9 -13    2.36    0.31 
   0   9  13    2.13    0.31 
   1  -9  13    0.70    0.14 
  -1   9 -13    1.10    0.29 
   1   9  13    0.95    0.28 
   2  -9  13    0.05    0.12 
   2   9  13    0.17    0.26 
  -2   9 -13    0.33    0.25 
   3 -10 -13   -0.10    0.12 
   3  10 -13    0.15    0.15 
  -3  10  13   -0.10    0.16 
   2 -10 -13    1.71    0.18 
   2  10 -13    1.73    0.26 
  -2  10  13    1.61    0.25 
   1 -10 -13    0.42    0.13 
  -1  10  13    0.16    0.18 
   1  10 -13    0.81    0.23 
   0 -10 -13   -0.04    0.11 
   0  10  13    0.06    0.19 
   0  10 -13    0.21    0.21 
  -8   0  14    0.60    0.14 
   8   0 -14    0.68    0.17 
  -7   0  14    0.18    0.13 
   7   0 -14    0.12    0.16 
  -6   0  14   16.29    0.70 
   6   0 -14   15.35    0.72 
  -5   0  14    0.05    0.12 
  -5   0  14   -0.04    0.16 
   4   0 -14   25.40    1.16 
  -4   0  14   26.79    1.04 
  -3   0  14    0.08    0.11 
   3   0 -14   -0.17    0.11 
  -2   0  14    3.22    0.23 
   2   0 -14    4.13    0.33 
   1   0 -14   -0.13    0.15 
  -1   0  14    0.07    0.10 
   0   0 -14    4.63    0.42 
   0   0  14    4.23    0.27 
   1   0  14   -0.01    0.11 
  -1   0 -14    0.01    0.21 
   2   0  14    0.00    0.11 
  -2   0 -14   -0.05    0.19 
  -3   0 -14    0.04    0.20 
   3   0  14   -0.11    0.09 
   4   0  14    3.54    0.25 
  -4   0 -14    3.52    0.40 
   5   0  14   -0.10    0.10 
  -5   0 -14   -0.05    0.21 
   8  -1 -14    0.19    0.15 
  -8  -1  14    0.12    0.12 
  -8   1  14    0.28    0.14 
   8   1 -14   -0.14    0.14 
  -7  -1  14    8.57    0.44 
   7  -1 -14    9.41    0.47 
   7   1 -14    9.30    0.48 
  -7   1  14    9.20    0.47 
   6  -1 -14    0.23    0.17 
  -6  -1  14    0.42    0.12 
   6   1 -14   -0.09    0.17 
  -6   1  14    0.25    0.14 
  -5  -1  14    0.17    0.12 
  -5  -1  14    0.01    0.16 
  -5   1  14    0.02    0.15 
  -5   1  14   -0.01    0.13 
   4  -1 -14    0.73    0.15 
  -4  -1  14    0.66    0.15 
   4   1 -14    0.71    0.14 
  -4   1  14    0.60    0.16 
  -4   1  14    0.47    0.13 
   3  -1 -14    8.92    0.50 
  -3  -1  14    8.75    0.42 
   3   1 -14    8.49    0.49 
  -3   1  14    8.55    0.42 
  -2  -1  14    2.30    0.19 
   2  -1 -14    1.84    0.23 
   2   1 -14    2.21    0.25 
  -2   1  14    2.16    0.18 
   1  -1 -14    5.79    0.43 
  -1  -1  14    5.61    0.31 
   1   1 -14    6.77    0.45 
  -1   1  14    5.63    0.31 
   0  -1  14   13.52    0.56 
   0  -1 -14   12.88    0.74 
   0   1  14   13.47    0.56 
   0   1 -14   13.34    0.75 
  -1  -1 -14   13.93    0.79 
   1  -1  14   13.74    0.58 
  -1   1 -14   15.07    0.82 
   1   1  14   14.30    0.58 
  -2  -1 -14    0.40    0.22 
   2  -1  14    0.10    0.10 
  -2   1 -14    0.06    0.22 
   2   1  14    0.24    0.10 
  -3  -1 -14    9.55    0.65 
   3  -1  14    9.50    0.42 
  -3   1 -14    9.51    0.63 
   3   1  14    8.72    0.41 
  -4  -1 -14   -0.14    0.22 
   4  -1  14    0.17    0.11 
  -4   1 -14    0.15    0.24 
   4   1  14    0.13    0.11 
  -5  -1 -14    1.59    0.29 
   5  -1  14    1.58    0.17 
  -5   1 -14    1.77    0.28 
   5   1  14    1.26    0.15 
  -8  -2  14    9.29    0.46 
   8  -2 -14    9.26    0.48 
   8   2 -14   10.38    0.50 
  -8   2  14    9.96    0.49 
  -7  -2  14    3.51    0.26 
   7  -2 -14    3.88    0.28 
  -7   2  14    4.60    0.33 
   7   2 -14    3.81    0.31 
  -6  -2  14    4.07    0.26 
   6  -2 -14    3.63    0.30 
  -6   2  14    3.19    0.28 
   6   2 -14    3.84    0.33 
  -5  -2  14    2.04    0.24 
   5  -2 -14    2.08    0.22 
  -5   2  14    2.18    0.22 
   4  -2 -14    4.72    0.33 
  -4  -2  14    5.72    0.34 
  -4   2  14    4.67    0.33 
   4   2 -14    5.08    0.33 
  -4   2  14    4.93    0.30 
   3  -2 -14    8.51    0.50 
  -3  -2  14    9.09    0.44 
  -3   2  14    9.28    0.43 
   3   2 -14    9.00    0.51 
  -2  -2  14   18.46    0.75 
   2  -2 -14   18.24    0.91 
  -2   2  14   19.73    0.76 
   2   2 -14   18.91    0.92 
   1  -2 -14    4.58    0.38 
  -1  -2  14    4.90    0.29 
   1   2 -14    4.42    0.39 
  -1   2  14    4.37    0.27 
   0  -2 -14    0.10    0.17 
   0  -2  14    0.11    0.10 
   0   2 -14   -0.02    0.19 
   0   2  14    0.05    0.11 
  -1  -2 -14    0.47    0.21 
   1  -2  14    0.58    0.12 
  -1   2 -14    0.55    0.24 
   1   2  14    0.32    0.10 
   2  -2  14    0.37    0.11 
  -2  -2 -14    0.63    0.25 
   2   2  14    0.42    0.12 
  -2   2 -14    0.30    0.21 
  -3  -2 -14    0.22    0.21 
   3  -2  14   -0.04    0.10 
  -3   2 -14   -0.08    0.20 
   3   2  14    0.12    0.11 
  -4  -2 -14    2.70    0.37 
   4  -2  14    2.77    0.24 
  -4   2 -14    2.88    0.36 
   4   2  14    2.63    0.21 
  -5  -2 -14    1.72    0.30 
   5  -2  14    1.31    0.17 
   5   2  14    1.50    0.16 
  -5   2 -14    1.51    0.28 
  -8  -3  14    7.07    0.37 
   8  -3 -14    6.68    0.38 
  -8   3  14    6.79    0.40 
   8   3 -14    6.97    0.41 
  -7  -3  14    0.22    0.12 
   7  -3 -14    0.31    0.14 
   7   3 -14    0.20    0.15 
  -7   3  14    0.65    0.17 
   6  -3 -14    0.47    0.15 
  -6  -3  14    0.53    0.12 
  -6   3  14    0.46    0.16 
   6   3 -14    0.36    0.19 
   5  -3 -14    0.23    0.14 
  -5  -3  14    0.54    0.18 
  -5   3  14    0.14    0.14 
   4  -3 -14    0.56    0.15 
  -4  -3  14    0.84    0.17 
  -4   3  14    1.01    0.15 
   4   3 -14    1.01    0.16 
  -4   3  14    1.09    0.16 
   3  -3 -14    0.10    0.13 
  -3  -3  14    0.02    0.13 
  -3   3  14   -0.03    0.11 
   3   3 -14    0.13    0.14 
  -3   3  14    0.05    0.10 
   2  -3 -14    1.86    0.24 
  -2  -3  14    1.72    0.17 
   2   3 -14    2.16    0.26 
  -2   3  14    2.06    0.18 
   1  -3 -14   13.72    0.73 
  -1  -3  14   13.62    0.57 
   1   3 -14   13.11    0.73 
  -1   3  14   13.41    0.56 
   0  -3 -14    8.61    0.58 
   0  -3  14    9.22    0.43 
   0   3  14    9.24    0.41 
   0   3 -14    9.41    0.58 
  -1  -3 -14    2.21    0.30 
   1  -3  14    2.29    0.19 
  -1   3 -14    2.53    0.34 
   1   3  14    2.55    0.20 
   2  -3  14   13.02    0.55 
  -2  -3 -14   12.83    0.78 
  -2   3 -14   13.87    0.78 
   2   3  14   13.27    0.54 
   3  -3  14   -0.05    0.10 
  -3  -3 -14    0.04    0.22 
   3   3  14    0.10    0.11 
  -3   3 -14   -0.13    0.23 
   4  -3  14    2.05    0.19 
  -4  -3 -14    1.65    0.31 
   4   3  14    1.55    0.15 
  -4   3 -14    1.94    0.30 
  -5  -3 -14    2.12    0.32 
   5  -3  14    2.04    0.20 
  -5   3 -14    1.78    0.28 
   5   3  14    1.98    0.17 
   7  -4 -14    4.79    0.31 
  -7  -4  14    4.68    0.30 
   7   4 -14    5.79    0.37 
  -7   4  14    4.62    0.36 
   6  -4 -14    0.08    0.12 
   6   4 -14   -0.07    0.14 
  -6   4  14   -0.08    0.15 
   5  -4 -14   22.78    0.92 
  -5  -4  14   22.64    0.94 
  -5   4  14   22.21    0.95 
  -4  -4  14    0.29    0.14 
   4  -4 -14    0.47    0.15 
   4   4 -14    0.40    0.13 
  -4   4  14    0.35    0.12 
  -4   4  14    0.38    0.15 
  -3  -4  14   10.45    0.49 
   3  -4 -14   10.76    0.58 
  -3   4  14   10.61    0.49 
   3   4 -14   10.13    0.57 
  -2  -4  14    0.84    0.14 
   2  -4 -14    0.51    0.17 
  -2   4  14    0.76    0.14 
   2   4 -14    0.90    0.20 
   1  -4 -14    1.24    0.22 
  -1  -4  14    1.29    0.16 
  -1   4  14    1.61    0.15 
   1   4 -14    1.67    0.26 
   0  -4  14   -0.04    0.10 
   0  -4 -14    0.53    0.22 
   0   4  14   -0.08    0.09 
   0   4 -14    0.07    0.20 
  -1  -4 -14    2.87    0.35 
   1  -4  14    2.73    0.23 
   1   4  14    3.12    0.21 
  -1   4 -14    2.60    0.35 
   2  -4  14   -0.09    0.11 
  -2  -4 -14   -0.32    0.20 
   2   4  14    0.01    0.09 
  -2   4 -14    0.08    0.23 
  -3  -4 -14    1.92    0.33 
   3  -4  14    2.10    0.19 
   3   4  14    2.28    0.19 
  -3   4 -14    1.84    0.32 
  -4  -4 -14   -0.22    0.21 
   4  -4  14   -0.22    0.12 
   4   4  14   -0.02    0.10 
  -4   4 -14   -0.08    0.21 
   5  -4  14    3.28    0.27 
  -5  -4 -14    3.42    0.39 
   5   4  14    3.41    0.23 
  -5   4 -14    4.19    0.39 
   7  -5 -14    0.10    0.12 
   7   5 -14    0.18    0.15 
  -7   5  14    0.08    0.17 
   6  -5 -14    1.16    0.16 
   6   5 -14    1.10    0.20 
  -6   5  14    1.02    0.20 
   5  -5 -14    0.55    0.14 
  -5  -5  14    0.61    0.19 
  -5   5  14    0.56    0.16 
   4  -5 -14    1.97    0.20 
   4  -5 -14    2.08    0.23 
  -4  -5  14    1.93    0.22 
   4   5 -14    2.19    0.21 
  -4   5  14    2.04    0.19 
   3  -5 -14   -0.05    0.10 
   3  -5 -14   -0.13    0.14 
  -3  -5  14   -0.16    0.12 
  -3   5  14   -0.03    0.12 
   3   5 -14    0.11    0.14 
   2  -5 -14    3.20    0.31 
  -2  -5  14    2.81    0.23 
   2   5 -14    3.08    0.30 
  -2   5  14    2.83    0.23 
  -1  -5  14    9.67    0.46 
  -1   5  14   10.17    0.45 
   1   5 -14   10.61    0.60 
   0  -5 -14   11.92    0.68 
   0  -5  14   10.60    0.49 
   0   5 -14   11.69    0.69 
   0   5  14   11.02    0.47 
  -1  -5 -14    0.25    0.20 
   1  -5  14    0.15    0.12 
   1   5  14    0.15    0.10 
  -1   5 -14    0.27    0.23 
   2  -5  14   14.67    0.63 
  -2  -5 -14   14.91    0.88 
  -2   5 -14   16.33    0.90 
   2   5  14   16.72    0.63 
  -3  -5 -14   -0.17    0.23 
   3  -5  14    0.04    0.11 
   3   5  14    0.07    0.10 
  -3   5 -14   -0.03    0.20 
  -4  -5 -14    1.83    0.31 
   4  -5  14    1.78    0.18 
   4   5  14    1.88    0.18 
  -4   5 -14    1.75    0.30 
   6  -6 -14    0.74    0.14 
  -6   6  14    0.50    0.19 
   6   6 -14    1.03    0.19 
   5  -6 -14    6.77    0.36 
  -5  -6  14    6.42    0.41 
  -5   6  14    6.91    0.41 
   4  -6 -14    1.85    0.19 
   4  -6 -14    2.17    0.20 
  -4  -6  14    1.69    0.21 
   4   6 -14    2.24    0.22 
   3  -6 -14   10.25    0.49 
  -3  -6  14   11.24    0.51 
  -3   6  14   10.51    0.49 
   3   6 -14   11.34    0.59 
  -3   6  14   11.28    0.60 
  -2  -6  14    5.46    0.31 
  -2   6  14    5.02    0.38 
   2   6 -14    5.09    0.40 
  -1  -6  14    1.84    0.17 
  -1   6  14    2.13    0.27 
   1   6 -14    2.45    0.28 
   0  -6  14   -0.10    0.11 
   0   6 -14   -0.01    0.21 
   0   6  14    0.14    0.18 
   1  -6  14   -0.02    0.12 
   1   6  14    0.34    0.23 
  -1   6 -14    0.26    0.24 
  -2  -6 -14    0.01    0.20 
   2  -6  14    0.09    0.12 
  -2   6 -14    0.01    0.22 
  -3  -6 -14    0.16    0.24 
   3  -6  14    0.27    0.13 
  -3   6 -14    0.32    0.24 
  -4  -6 -14    0.06    0.25 
   4  -6  14   -0.04    0.12 
  -4   6 -14    0.14    0.20 
  -6   7  14    0.79    0.20 
   6   7 -14    0.58    0.15 
   5  -7 -14    0.42    0.14 
   4  -7 -14    0.13    0.12 
  -4  -7  14    0.33    0.16 
  -4   7  14    0.05    0.15 
   4   7 -14    0.15    0.13 
   3  -7 -14    1.70    0.17 
  -3  -7  14    1.50    0.19 
   3   7 -14    1.82    0.23 
  -3   7  14    1.50    0.22 
   2  -7 -14    3.08    0.22 
  -2  -7  14    3.16    0.25 
  -2   7  14    3.30    0.32 
   2   7 -14    3.10    0.30 
  -1  -7  14    2.69    0.23 
  -1   7  14    2.47    0.30 
   1   7 -14    2.67    0.31 
   0  -7  14    7.98    0.39 
   0   7  14    8.10    0.53 
   0   7 -14    8.43    0.55 
   1  -7  14    3.19    0.24 
   1   7  14    3.01    0.37 
  -1   7 -14    2.76    0.36 
   2  -7  14    0.01    0.11 
   2   7  14    0.05    0.24 
  -2   7 -14    0.07    0.20 
  -3  -7 -14    4.09    0.44 
   3  -7  14    3.66    0.24 
  -3   7 -14    3.54    0.40 
   5  -8 -14    0.54    0.14 
   5   8 -14    0.56    0.15 
  -4  -8  14    7.21    0.40 
   4  -8 -14    6.26    0.37 
  -3  -8  14    3.89    0.28 
   3  -8 -14    3.15    0.25 
   3   8 -14    3.36    0.31 
  -3   8  14    3.38    0.33 
  -2  -8  14    1.68    0.18 
   2  -8 -14    1.58    0.17 
   2   8 -14    1.79    0.25 
  -2   8  14    1.27    0.23 
  -1  -8  14   -0.05    0.12 
  -1   8  14    0.20    0.20 
   1   8 -14   -0.04    0.16 
   0  -8  14    4.96    0.30 
   0   8 -14    5.59    0.47 
   0   8  14    4.98    0.42 
   1  -8  14   -0.03    0.12 
  -1   8 -14    0.15    0.20 
   1   8  14   -0.10    0.21 
   2  -8  14    1.17    0.16 
  -2   8 -14    1.06    0.27 
   2   8  14    1.88    0.34 
   3  -9 -14    2.61    0.22 
  -3  -9  14    2.84    0.24 
  -3   9  14    2.64    0.29 
   3   9 -14    2.28    0.26 
   2  -9 -14    0.41    0.13 
  -2  -9  14    0.07    0.14 
  -2   9  14    0.24    0.19 
   2   9 -14    0.50    0.19 
  -1  -9  14    3.03    0.26 
   1   9 -14    3.35    0.35 
  -1   9  14    3.07    0.33 
   0  -9  14    0.48    0.13 
   0   9 -14    0.27    0.20 
   0   9  14    0.28    0.20 
   1  -9  14    6.63    0.35 
  -1   9 -14    7.57    0.58 
   1   9  14    7.28    0.57 
   7   0 -15    0.27    0.15 
  -7   0  15    0.53    0.14 
  -6   0  15    0.18    0.13 
   6   0 -15    0.05    0.15 
  -5   0  15    6.60    0.41 
   4   0 -15    0.05    0.12 
  -4   0  15    0.15    0.15 
  -3   0  15    4.10    0.29 
   3   0 -15    3.50    0.30 
  -2   0  15    0.03    0.12 
   2   0 -15   -0.11    0.14 
   1   0 -15   24.06    1.17 
  -1   0  15   25.32    0.96 
   0   0 -15   -0.10    0.18 
   0   0  15    0.03    0.12 
  -1   0 -15    7.85    0.54 
   1   0  15    7.14    0.35 
  -2   0 -15    0.29    0.24 
   2   0  15   -0.01    0.11 
   3   0  15    0.10    0.12 
  -3   0 -15    0.06    0.21 
   4   0  15   -0.07    0.10 
  -4   0 -15   -0.13    0.23 
  -5   0 -15    1.32    0.29 
   5   0  15    1.05    0.15 
  -7  -1  15    1.26    0.16 
   7  -1 -15    0.95    0.19 
   7   1 -15    1.01    0.21 
  -7   1  15    1.44    0.18 
   6  -1 -15    7.90    0.46 
   6   1 -15    8.13    0.49 
  -6   1  15    7.73    0.43 
  -5  -1  15    3.31    0.27 
  -5   1  15    2.88    0.26 
   4  -1 -15    5.48    0.37 
  -4  -1  15    6.39    0.35 
   4   1 -15    5.96    0.37 
  -4   1  15    6.51    0.35 
   3  -1 -15   -0.07    0.13 
  -3  -1  15    0.13    0.12 
   3   1 -15    0.14    0.13 
  -3   1  15    0.15    0.13 
   2  -1 -15    3.76    0.32 
  -2  -1  15    3.81    0.25 
   2   1 -15    3.72    0.31 
  -2   1  15    3.59    0.26 
  -1  -1  15    1.15    0.16 
   1  -1 -15    0.98    0.22 
   1   1 -15    1.23    0.23 
  -1   1  15    1.22    0.15 
   0  -1 -15    0.12    0.20 
   0  -1  15    0.02    0.12 
   0   1 -15    0.31    0.20 
   0   1  15    0.10    0.12 
  -1  -1 -15    0.54    0.22 
   1  -1  15    0.43    0.12 
  -1   1 -15    0.56    0.22 
   1   1  15    0.44    0.12 
   2  -1  15    4.39    0.28 
  -2  -1 -15    5.11    0.46 
   2   1  15    4.57    0.27 
  -2   1 -15    5.11    0.46 
  -3  -1 -15    0.30    0.23 
   3  -1  15    0.34    0.11 
  -3   1 -15    0.31    0.25 
   3   1  15    0.25    0.12 
   4  -1  15    6.77    0.35 
  -4  -1 -15    6.15    0.51 
   4   1  15    5.97    0.33 
  -4   1 -15    6.95    0.55 
   5  -1  15    3.97    0.28 
  -5  -1 -15    3.73    0.39 
   5   1  15    4.48    0.26 
  -5   1 -15    4.74    0.45 
   7  -2 -15    0.15    0.14 
   7   2 -15    0.23    0.18 
  -7   2  15    0.46    0.16 
   6  -2 -15    0.24    0.16 
   6   2 -15    0.17    0.19 
  -6   2  15    0.26    0.15 
  -5  -2  15    1.00    0.19 
  -5   2  15    0.80    0.18 
   4  -2 -15    5.65    0.39 
  -4  -2  15    6.33    0.36 
   4   2 -15    6.21    0.38 
  -4   2  15    6.33    0.37 
  -3  -2  15   15.86    0.65 
   3  -2 -15   13.91    0.74 
   3   2 -15   15.46    0.75 
  -3   2  15   15.00    0.63 
  -2  -2  15    8.73    0.42 
   2  -2 -15    7.88    0.50 
  -2   2  15    8.30    0.40 
   2   2 -15    7.89    0.50 
   1  -2 -15    8.43    0.55 
  -1  -2  15    9.31    0.42 
  -1   2  15    9.18    0.42 
   1   2 -15    9.15    0.56 
   0  -2  15    2.55    0.21 
   0  -2 -15    1.95    0.29 
   0   2  15    2.46    0.19 
   0   2 -15    2.81    0.33 
   1  -2  15    3.29    0.22 
  -1  -2 -15    2.30    0.33 
  -1   2 -15    3.31    0.38 
   1   2  15    3.01    0.22 
  -2  -2 -15    2.27    0.32 
   2  -2  15    2.07    0.17 
  -2   2 -15    2.18    0.34 
   2   2  15    2.20    0.18 
   3  -2  15    1.04    0.14 
  -3  -2 -15    1.82    0.32 
   3   2  15    1.51    0.15 
  -3   2 -15    1.18    0.28 
   4  -2  15    0.25    0.12 
  -4  -2 -15   -0.11    0.23 
   4   2  15    0.22    0.11 
  -4   2 -15    0.40    0.24 
  -5  -2 -15    0.09    0.22 
   5  -2  15    0.12    0.13 
  -5   2 -15    0.04    0.22 
   5   2  15    0.09    0.12 
   7  -3 -15    3.02    0.25 
  -7   3  15    3.12    0.27 
   7   3 -15    3.26    0.30 
   6  -3 -15    2.87    0.25 
   6   3 -15    3.79    0.33 
  -6   3  15    3.21    0.28 
   5  -3 -15    3.92    0.31 
  -5  -3  15    3.50    0.30 
  -5   3  15    3.62    0.30 
   4  -3 -15    6.30    0.42 
  -4  -3  15    6.88    0.37 
   4   3 -15    6.16    0.39 
  -4   3  15    6.71    0.38 
  -3  -3  15    8.18    0.42 
   3  -3 -15    7.37    0.47 
  -3   3  15    7.87    0.40 
   3   3 -15    8.47    0.48 
   2  -3 -15    2.35    0.27 
  -2  -3  15    3.19    0.26 
  -2   3  15    2.77    0.23 
   2   3 -15    3.33    0.32 
   1  -3 -15    1.49    0.25 
  -1  -3  15    1.92    0.19 
  -1   3  15    1.82    0.17 
   1   3 -15    1.28    0.23 
   0  -3  15    0.04    0.11 
   0  -3 -15   -0.16    0.18 
   0   3  15    0.15    0.11 
   0   3 -15   -0.03    0.20 
  -1  -3 -15    2.14    0.30 
   1  -3  15    2.14    0.19 
  -1   3 -15    2.05    0.30 
   1   3  15    2.04    0.17 
  -2  -3 -15    0.05    0.22 
   2  -3  15   -0.08    0.12 
  -2   3 -15    0.15    0.24 
   2   3  15    0.25    0.11 
  -3  -3 -15    5.00    0.46 
   3  -3  15    4.41    0.27 
  -3   3 -15    5.25    0.47 
   3   3  15    5.00    0.28 
  -4  -3 -15    3.34    0.41 
   4  -3  15    3.51    0.25 
  -4   3 -15    4.20    0.42 
   4   3  15    3.85    0.25 
   7  -4 -15    0.16    0.13 
   7   4 -15    0.24    0.17 
  -7   4  15    0.13    0.16 
   6  -4 -15    4.08    0.29 
  -6   4  15    3.03    0.29 
   6   4 -15    4.67    0.37 
   5  -4 -15   -0.03    0.12 
  -5  -4  15    0.03    0.17 
  -5   4  15   -0.07    0.13 
  -4  -4  15    3.68    0.28 
  -4   4  15    3.30    0.27 
   3  -4 -15    0.46    0.16 
  -3  -4  15    0.39    0.14 
  -3   4  15    0.60    0.15 
   3   4 -15    0.51    0.16 
   2  -4 -15    2.43    0.27 
  -2  -4  15    3.07    0.23 
  -2   4  15    2.38    0.20 
   2   4 -15    2.75    0.29 
  -1  -4  15    0.25    0.14 
   1  -4 -15    0.14    0.18 
   1   4 -15    0.12    0.17 
  -1   4  15    0.08    0.11 
   0  -4  15   19.39    0.76 
   0  -4 -15   18.00    0.96 
   0   4 -15   19.07    0.96 
   0   4  15   18.07    0.73 
   1  -4  15    1.02    0.14 
  -1  -4 -15    0.98    0.24 
  -1   4 -15    1.59    0.29 
   1   4  15    1.36    0.15 
   2  -4  15    5.08    0.29 
  -2  -4 -15    5.50    0.50 
  -2   4 -15    5.34    0.51 
   2   4  15    5.45    0.29 
  -3  -4 -15    0.00    0.23 
   3  -4  15    0.26    0.13 
  -3   4 -15    0.33    0.23 
   3   4  15    0.33    0.11 
  -4  -4 -15    0.03    0.23 
   4  -4  15   -0.09    0.13 
  -4   4 -15    0.18    0.24 
   4   4  15    0.04    0.11 
   6  -5 -15    0.64    0.14 
   6   5 -15    0.63    0.18 
  -6   5  15    0.50    0.18 
   5  -5 -15    7.38    0.38 
  -5  -5  15    6.60    0.40 
  -5   5  15    6.52    0.40 
  -4  -5  15    1.62    0.21 
   4  -5 -15    1.82    0.20 
   3  -5 -15    3.87    0.36 
  -3  -5  15    3.57    0.29 
   3   5 -15    3.76    0.33 
  -3   5  15    4.14    0.28 
  -2  -5  15    1.49    0.18 
   2  -5 -15    1.43    0.24 
  -2   5  15    1.94    0.18 
   2   5 -15    1.24    0.21 
  -1  -5  15    0.09    0.13 
   1  -5 -15   -0.13    0.15 
  -1   5  15    0.10    0.11 
   1   5 -15    0.10    0.16 
   0  -5  15   -0.03    0.12 
   0  -5 -15    0.06    0.20 
   0   5 -15   -0.01    0.17 
   0   5  15    0.07    0.10 
  -1  -5 -15    5.20    0.47 
   1  -5  15    4.35    0.29 
  -1   5 -15    4.43    0.44 
   1   5  15    4.74    0.27 
  -2  -5 -15    0.38    0.25 
   2  -5  15    0.55    0.14 
  -2   5 -15    0.50    0.23 
   2   5  15    0.54    0.12 
   3  -5  15    3.11    0.23 
  -3  -5 -15    2.84    0.38 
  -3   5 -15    2.97    0.37 
   4  -5  15    0.80    0.15 
  -4  -5 -15    1.06    0.29 
  -4   5 -15    0.51    0.23 
   6   6 -15   -0.01    0.14 
  -6   6  15   -0.01    0.16 
  -5  -6  15    0.88    0.18 
  -5   6  15    0.70    0.17 
   4  -6 -15    3.22    0.25 
  -4  -6  15    3.73    0.31 
  -3  -6  15    6.27    0.36 
   3  -6 -15    6.94    0.46 
   3   6 -15    6.78    0.42 
   2  -6 -15    8.74    0.56 
  -2  -6  15    8.68    0.43 
   2   6 -15    8.61    0.53 
  -1  -6  15    1.39    0.16 
   1  -6 -15    1.72    0.26 
   1   6 -15    1.70    0.26 
   0  -6  15    5.94    0.33 
   0  -6 -15    6.42    0.48 
   0   6 -15    7.48    0.53 
   1  -6  15    0.22    0.11 
  -1  -6 -15    0.21    0.22 
  -1   6 -15    0.04    0.23 
  -2  -6 -15    3.17    0.40 
   2  -6  15    3.75    0.26 
  -2   6 -15    3.60    0.40 
  -3  -6 -15    2.16    0.35 
   3  -6  15    1.78    0.18 
  -3   6 -15    2.81    0.37 
  -5  -7  15    8.14    0.43 
   5  -7 -15    6.05    0.37 
  -4  -7  15    1.28    0.20 
   4  -7 -15    1.30    0.17 
  -3  -7  15    1.43    0.18 
  -3   7  15    1.71    0.23 
   3   7 -15    1.67    0.22 
  -2  -7  15    1.58    0.18 
  -2   7  15    1.69    0.25 
   2   7 -15    1.68    0.24 
  -1  -7  15    2.99    0.25 
   1   7 -15    2.81    0.31 
  -1   7  15    2.71    0.32 
   0  -7  15    0.01    0.12 
   0   7 -15   -0.03    0.21 
   0   7  15    0.09    0.21 
   1  -7  15    0.14    0.13 
   1   7  15    0.15    0.22 
  -1   7 -15   -0.15    0.22 
  -2  -7 -15    2.32    0.32 
   2  -7  15    1.93    0.19 
  -2   7 -15    2.05    0.32 
   4  -8 -15    0.19    0.13 
  -3  -8  15    0.71    0.16 
   3   8 -15    0.44    0.16 
  -3   8  15    0.67    0.19 
  -2  -8  15    0.48    0.15 
   2   8 -15    0.46    0.19 
  -2   8  15    0.50    0.18 
  -1  -8  15    8.34    0.41 
  -1   8  15    8.02    0.54 
   1   8 -15    8.65    0.55 
   0  -8  15   -0.01    0.12 
   0   8  15    0.29    0.22 
   0   8 -15    0.48    0.22 
   1  -8  15    6.30    0.34 
   1   8  15    6.18    0.50 
  -1   8 -15    6.65    0.53 
   7   0 -16    0.14    0.17 
   6   0 -16    3.00    0.29 
  -5   0  16    0.14    0.15 
  -4   0  16    9.34    0.48 
   3   0 -16    0.06    0.14 
  -3   0  16   -0.07    0.14 
  -2   0  16    1.40    0.17 
   2   0 -16    1.56    0.23 
   1   0 -16   -0.11    0.17 
  -1   0  16   -0.04    0.12 
   0   0 -16    6.97    0.51 
   0   0  16    7.19    0.35 
   1   0  16   -0.02    0.10 
  -1   0 -16    0.28    0.22 
  -2   0 -16    3.12    0.39 
   2   0  16    2.85    0.23 
  -3   0 -16    0.15    0.22 
   3   0  16   -0.11    0.12 
  -4   0 -16    5.13    0.49 
   4   0  16    5.06    0.30 
   7  -1 -16    2.83    0.26 
   7   1 -16    3.34    0.30 
   6  -1 -16    3.33    0.30 
   6   1 -16    3.66    0.34 
  -5  -1  16    3.70    0.30 
  -5   1  16    3.38    0.29 
  -4  -1  16    1.14    0.19 
  -4   1  16    1.30    0.18 
  -3  -1  16    9.82    0.46 
   3  -1 -16    9.29    0.53 
   3   1 -16    9.55    0.54 
  -3   1  16    9.80    0.47 
  -2  -1  16    0.08    0.14 
   2  -1 -16   -0.04    0.13 
   2   1 -16    0.14    0.16 
  -2   1  16    0.15    0.13 
   1  -1 -16   10.44    0.64 
  -1  -1  16   11.40    0.50 
   1   1 -16   11.21    0.63 
  -1   1  16   11.52    0.50 
   0  -1  16    2.18    0.19 
   0  -1 -16    2.81    0.33 
   0   1 -16    2.64    0.32 
   0   1  16    1.91    0.17 
   1  -1  16    0.38    0.12 
  -1  -1 -16    0.54    0.22 
   1   1  16    0.31    0.12 
  -1   1 -16    0.39    0.22 
  -2  -1 -16    1.24    0.30 
   2  -1  16    1.30    0.16 
  -2   1 -16    1.58    0.29 
   2   1  16    1.48    0.16 
  -3  -1 -16   -0.03    0.23 
   3  -1  16    0.02    0.11 
   3   1  16    0.12    0.11 
  -3   1 -16    0.06    0.24 
   4  -1  16    2.35    0.19 
  -4  -1 -16    1.62    0.33 
  -4   1 -16    2.71    0.37 
   4   1  16    2.58    0.20 
   7  -2 -16    7.73    0.43 
   7   2 -16    7.85    0.48 
   6  -2 -16    9.93    0.53 
   6   2 -16   11.00    0.58 
  -5  -2  16    1.60    0.23 
  -4  -2  16    0.13    0.16 
  -4   2  16    0.14    0.15 
  -3  -2  16    0.07    0.15 
   3  -2 -16   -0.07    0.14 
  -3   2  16    0.15    0.14 
   3   2 -16    0.12    0.14 
  -2  -2  16    3.02    0.24 
   2  -2 -16    2.20    0.26 
   2   2 -16    2.34    0.27 
  -2   2  16    2.58    0.21 
  -1  -2  16    0.20    0.14 
   1  -2 -16    0.05    0.17 
   1   2 -16    0.37    0.19 
  -1   2  16    0.29    0.11 
   0  -2  16    1.36    0.16 
   0  -2 -16    1.71    0.28 
   0   2 -16    0.96    0.25 
   0   2  16    1.40    0.16 
  -1  -2 -16    4.25    0.41 
   1  -2  16    4.16    0.26 
  -1   2 -16    4.75    0.43 
   1   2  16    4.12    0.26 
   2  -2  16    6.74    0.34 
  -2  -2 -16    5.39    0.49 
  -2   2 -16    6.33    0.55 
   2   2  16    6.18    0.31 
  -3  -2 -16    5.90    0.54 
   3  -2  16    6.08    0.34 
  -3   2 -16    6.71    0.57 
   3   2  16    6.68    0.33 
   4  -2  16    3.48    0.26 
  -4  -2 -16    3.07    0.40 
   4   2  16    3.22    0.24 
  -4   2 -16    3.29    0.40 
   6  -3 -16    4.05    0.31 
   6   3 -16    4.06    0.36 
  -5  -3  16    5.75    0.40 
   5  -3 -16    5.68    0.37 
  -4  -3  16    5.65    0.37 
  -4   3  16    6.01    0.37 
   3  -3 -16    0.34    0.15 
  -3  -3  16    0.32    0.16 
  -3   3  16    0.37    0.15 
   3   3 -16    0.67    0.16 
  -2  -3  16    4.40    0.30 
   2  -3 -16    3.51    0.35 
   2   3 -16    4.46    0.36 
  -2   3  16    3.91    0.27 
  -1  -3  16    3.85    0.26 
   1  -3 -16    3.53    0.35 
   1   3 -16    4.01    0.38 
  -1   3  16    4.02    0.26 
   0  -3 -16    2.99    0.34 
   0  -3  16    2.66    0.22 
   0   3 -16    2.61    0.32 
   0   3  16    2.54    0.20 
   1  -3  16    3.93    0.27 
  -1  -3 -16    3.11    0.36 
  -1   3 -16    3.46    0.38 
   1   3  16    3.80    0.25 
   2  -3  16    0.69    0.14 
  -2  -3 -16    0.53    0.23 
  -2   3 -16    0.86    0.28 
   2   3  16    0.98    0.14 
   3  -3  16    0.59    0.13 
  -3  -3 -16    0.48    0.26 
  -3   3 -16    1.00    0.27 
   3   3  16    0.75    0.13 
   6  -4 -16    0.05    0.13 
   6   4 -16    0.05    0.16 
  -5  -4  16    1.63    0.23 
   5  -4 -16    1.85    0.21 
  -4  -4  16    0.35    0.15 
  -4   4  16    0.50    0.15 
   3  -4 -16    2.26    0.25 
  -3  -4  16    1.61    0.19 
  -3   4  16    2.08    0.21 
   3   4 -16    2.10    0.24 
   2  -4 -16   -0.22    0.15 
  -2  -4  16   -0.15    0.13 
   2   4 -16    0.02    0.16 
  -2   4  16   -0.16    0.11 
   1  -4 -16    2.43    0.30 
  -1  -4  16    1.99    0.19 
  -1   4  16    2.03    0.18 
   1   4 -16    1.86    0.26 
   0  -4 -16    1.17    0.25 
   0  -4  16    1.17    0.17 
   0   4  16    0.84    0.14 
   0   4 -16    1.09    0.26 
  -1  -4 -16    7.80    0.55 
   1  -4  16    7.33    0.38 
  -1   4 -16    9.02    0.58 
   1   4  16    7.85    0.37 
  -2  -4 -16    0.28    0.24 
   2  -4  16    0.10    0.13 
   2   4  16    0.19    0.11 
  -2   4 -16    0.12    0.21 
  -3  -4 -16    1.54    0.32 
   3  -4  16    1.78    0.19 
  -3   4 -16    2.34    0.35 
   3   4  16    2.07    0.18 
   5  -5 -16    1.17    0.17 
  -5  -5  16    0.99    0.21 
   4  -5 -16   10.49    0.52 
  -4  -5  16   10.79    0.53 
   3  -5 -16   -0.05    0.15 
  -3  -5  16    0.10    0.15 
  -3   5  16   -0.14    0.13 
   3   5 -16    0.05    0.13 
   2  -5 -16   17.61    0.89 
  -2  -5  16   17.04    0.72 
  -2   5  16   17.77    0.72 
   2   5 -16   17.42    0.87 
   1  -5 -16    0.02    0.16 
  -1  -5  16   -0.04    0.13 
   1   5 -16    0.07    0.19 
  -1   5  16   -0.23    0.11 
   0  -5 -16    2.26    0.32 
   0  -5  16    2.73    0.22 
   0   5  16    2.47    0.19 
   0   5 -16    2.69    0.34 
  -1  -5 -16    1.45    0.29 
   1  -5  16    1.49    0.16 
   1   5  16    1.57    0.16 
  -1   5 -16    1.77    0.29 
   2  -5  16    0.07    0.13 
  -2  -5 -16    0.19    0.21 
  -2   5 -16    0.10    0.21 
  -5  -6  16    1.72    0.23 
  -4  -6  16    0.38    0.17 
   3  -6 -16    0.03    0.16 
  -3  -6  16    0.33    0.15 
   3   6 -16    0.19    0.14 
   2  -6 -16   -0.07    0.17 
  -2  -6  16    0.19    0.14 
   2   6 -16   -0.01    0.16 
   1  -6 -16    1.80    0.28 
  -1  -6  16    1.55    0.18 
   1   6 -16    2.11    0.26 
   0  -6 -16    0.01    0.18 
   0  -6  16   -0.01    0.13 
   0   6 -16   -0.05    0.19 
   1  -6  16    1.99    0.19 
  -1  -6 -16    2.24    0.31 
  -1   6 -16    1.38    0.28 
   2  -6  16    1.29    0.17 
  -2  -6 -16    1.50    0.29 
  -2   6 -16    1.95    0.33 
   3  -7 -16    4.94    0.41 
  -3  -7  16    5.13    0.34 
   3   7 -16    4.53    0.36 
   2  -7 -16    1.26    0.25 
  -2  -7  16    0.92    0.17 
   2   7 -16    0.82    0.19 
  -1  -7  16    2.67    0.22 
   1  -7 -16    3.12    0.35 
   1   7 -16    2.80    0.30 
   0  -7  16    1.77    0.18 
   0  -7 -16    1.66    0.30 
   0   7 -16    2.48    0.32 
  -1  -7 -16    0.84    0.27 
   1  -7  16    0.87    0.15 
  -1   7 -16    1.05    0.25 
   6   0 -17   -0.08    0.17 
  -5   0  17    9.91    0.52 
  -4   0  17   -0.08    0.16 
   3   0 -17   12.76    0.66 
  -3   0  17   12.51    0.58 
   2   0 -17   -0.06    0.13 
  -2   0  17    0.09    0.12 
   1   0 -17    0.24    0.16 
  -1   0  17    0.30    0.12 
   0   0  17    0.03    0.13 
   0   0 -17    0.04    0.19 
   1   0  17    0.06    0.12 
  -1   0 -17    0.13    0.21 
  -2   0 -17   -0.18    0.19 
   2   0  17    0.03    0.12 
  -3   0 -17    0.16    0.25 
   3   0  17    0.01    0.12 
   6  -1 -17    2.82    0.28 
   6   1 -17    3.25    0.30 
  -5  -1  17    0.57    0.20 
  -5   1  17    0.51    0.18 
  -4  -1  17    0.16    0.15 
  -4   1  17    0.34    0.17 
   3  -1 -17   -0.12    0.13 
  -3  -1  17    0.04    0.15 
  -3   1  17    0.01    0.14 
   3   1 -17   -0.24    0.12 
   2  -1 -17    7.53    0.49 
  -2  -1  17    8.83    0.42 
   2   1 -17    7.12    0.49 
  -2   1  17    8.17    0.40 
  -1  -1  17    0.51    0.15 
   1  -1 -17    0.72    0.21 
   1   1 -17    0.84    0.20 
  -1   1  17    0.77    0.14 
   0  -1  17    3.81    0.28 
   0  -1 -17    3.79    0.38 
   0   1 -17    4.29    0.41 
   0   1  17    3.78    0.27 
   1  -1  17    5.67    0.33 
  -1  -1 -17    6.32    0.48 
   1   1  17    5.74    0.32 
  -1   1 -17    6.02    0.48 
  -2  -1 -17    4.55    0.45 
   2  -1  17    4.40    0.27 
   2   1  17    4.37    0.28 
  -2   1 -17    4.17    0.43 
   3  -1  17   -0.05    0.12 
  -3  -1 -17   -0.01    0.23 
  -3   1 -17    0.03    0.21 
   3   1  17   -0.08    0.12 
   6  -2 -17    3.05    0.29 
   6   2 -17    4.16    0.36 
  -5  -2  17    2.49    0.25 
  -4  -2  17    0.69    0.18 
  -4   2  17    0.83    0.18 
   3  -2 -17    1.45    0.22 
  -3  -2  17    1.82    0.21 
   3   2 -17    1.18    0.20 
  -3   2  17    1.46    0.19 
  -2  -2  17    2.69    0.23 
   2  -2 -17    2.22    0.28 
   2   2 -17    2.32    0.27 
  -2   2  17    2.73    0.23 
   1  -2 -17    4.72    0.42 
  -1  -2  17    5.15    0.32 
  -1   2  17    5.33    0.31 
   1   2 -17    4.99    0.39 
   0  -2  17    1.21    0.17 
   0  -2 -17    1.23    0.25 
   0   2  17    1.33    0.15 
   0   2 -17    1.68    0.26 
  -1  -2 -17    0.04    0.22 
   1  -2  17   -0.14    0.11 
   1   2  17   -0.04    0.12 
  -1   2 -17    0.13    0.23 
  -2  -2 -17    0.74    0.27 
   2  -2  17    1.00    0.14 
  -2   2 -17    1.03    0.27 
   2   2  17    1.03    0.15 
   3  -2  17    0.85    0.15 
  -3  -2 -17    1.02    0.30 
  -3   2 -17    1.09    0.28 
   3   2  17    0.93    0.15 
  -5  -3  17    0.04    0.18 
   5  -3 -17    0.08    0.14 
  -4  -3  17    0.02    0.15 
  -4   3  17   -0.12    0.15 
  -3  -3  17    1.42    0.20 
   3  -3 -17    1.37    0.21 
  -3   3  17    1.37    0.19 
   3   3 -17    1.19    0.20 
  -2  -3  17    0.34    0.16 
   2  -3 -17    0.00    0.16 
   2   3 -17    0.39    0.17 
  -2   3  17    0.31    0.14 
   1  -3 -17    2.02    0.28 
  -1  -3  17    2.37    0.21 
  -1   3  17    2.35    0.20 
   1   3 -17    2.19    0.29 
   0  -3 -17    5.65    0.47 
   0  -3  17    6.04    0.34 
   0   3  17    5.24    0.31 
   0   3 -17    5.54    0.45 
  -1  -3 -17    4.24    0.42 
   1  -3  17    4.05    0.28 
  -1   3 -17    4.50    0.43 
   1   3  17    3.88    0.26 
  -2  -3 -17    1.15    0.28 
   2  -3  17    1.23    0.17 
  -2   3 -17    1.32    0.31 
   2   3  17    1.06    0.14 
   5  -4 -17    0.18    0.14 
  -5  -4  17    0.00    0.17 
  -4  -4  17   13.89    0.64 
  -4   4  17   13.67    0.63 
   3  -4 -17    0.01    0.15 
  -3  -4  17    0.07    0.16 
  -3   4  17    0.05    0.14 
   3   4 -17    0.11    0.14 
  -2  -4  17    4.38    0.31 
   2  -4 -17    4.45    0.37 
  -2   4  17    3.82    0.29 
   2   4 -17    4.04    0.36 
  -1  -4  17    0.18    0.14 
   1  -4 -17    0.35    0.18 
  -1   4  17    0.25    0.13 
   1   4 -17    0.58    0.21 
   0  -4  17    0.09    0.14 
   0  -4 -17   -0.06    0.17 
   0   4 -17    0.25    0.20 
   0   4  17   -0.07    0.11 
   1  -4  17    0.03    0.13 
  -1  -4 -17    0.27    0.22 
   1   4  17   -0.02    0.11 
  -1   4 -17    0.20    0.23 
   2  -4  17    0.13    0.12 
  -2  -4 -17    0.07    0.23 
   2   4  17    0.13    0.12 
  -2   4 -17    0.34    0.25 
  -4  -5  17   -0.05    0.15 
   4  -5 -17   -0.05    0.13 
   3  -5 -17    3.23    0.31 
  -3  -5  17    3.37    0.27 
   3   5 -17    3.07    0.29 
  -3   5  17    3.22    0.28 
   2  -5 -17   -0.15    0.16 
  -2  -5  17   -0.03    0.14 
  -2   5  17   -0.06    0.13 
   2   5 -17   -0.06    0.15 
   1  -5 -17    2.83    0.33 
  -1  -5  17    3.16    0.27 
  -1   5  17    3.12    0.26 
   1   5 -17    3.44    0.34 
   0  -5  17    3.39    0.27 
   0  -5 -17    3.53    0.36 
   0   5 -17    3.08    0.35 
  -1  -5 -17    4.23    0.43 
   1  -5  17    4.14    0.29 
  -1   5 -17    4.29    0.44 
  -3  -6  17    0.21    0.16 
   3  -6 -17    0.35    0.18 
   3   6 -17    0.53    0.16 
  -2  -6  17    2.88    0.25 
   2  -6 -17    3.08    0.32 
   2   6 -17    2.50    0.28 
  -1  -6  17    1.72    0.20 
   1  -6 -17    1.83    0.29 
   1   6 -17    2.06    0.28 
   0  -6 -17    0.32    0.21 
   0  -6  17    0.46    0.14 
   0   6 -17    0.38    0.22 
  -5   0  18   -0.02    0.18 
  -4   0  18    8.10    0.45 
  -3   0  18   -0.05    0.15 
   3   0 -18   -0.07    0.14 
  -2   0  18    2.22    0.22 
   2   0 -18    2.16    0.26 
  -1   0  18   -0.18    0.13 
   1   0 -18   -0.25    0.16 
   0   0 -18    8.59    0.56 
   0   0  18    7.79    0.39 
  -1   0 -18   -0.05    0.21 
   1   0  18   -0.32    0.12 
  -5  -1  18    3.26    0.29 
  -5   1  18    3.46    0.29 
  -4  -1  18    0.87    0.18 
  -4   1  18    1.27    0.21 
   3  -1 -18    1.03    0.20 
  -3  -1  18    1.64    0.21 
   3   1 -18    1.13    0.20 
  -3   1  18    1.18    0.19 
  -2  -1  18   -0.04    0.13 
   2  -1 -18    0.33    0.16 
  -2   1  18    0.02    0.14 
   2   1 -18    0.10    0.15 
   1  -1 -18    0.12    0.18 
  -1  -1  18    0.07    0.14 
   1   1 -18    0.06    0.15 
  -1   1  18    0.04    0.13 
   0  -1 -18    1.43    0.27 
   0  -1  18    1.30    0.16 
   0   1 -18    1.42    0.27 
   0   1  18    1.17    0.16 
   1  -1  18    0.49    0.14 
  -1  -1 -18    0.48    0.22 
  -1   1 -18    0.20    0.20 
   1   1  18    0.21    0.12 
  -4  -2  18    0.81    0.19 
  -4   2  18    0.93    0.19 
  -3  -2  18    4.13    0.30 
   3  -2 -18    3.36    0.33 
   3   2 -18    3.26    0.31 
  -3   2  18    3.94    0.30 
   2  -2 -18    9.01    0.54 
  -2  -2  18    9.49    0.46 
  -2   2  18    9.06    0.44 
   2   2 -18    8.10    0.52 
   1  -2 -18    5.18    0.44 
  -1  -2  18    5.56    0.34 
   1   2 -18    5.58    0.44 
  -1   2  18    5.79    0.33 
   0  -2 -18    4.40    0.43 
   0  -2  18    4.11    0.30 
   0   2 -18    5.30    0.44 
   0   2  18    4.46    0.29 
  -1  -2 -18    1.11    0.25 
   1  -2  18    0.60    0.15 
   1   2  18    0.72    0.15 
  -1   2 -18    0.67    0.23 
  -4  -3  18    1.03    0.20 
  -4   3  18    0.93    0.19 
   3  -3 -18    2.52    0.28 
  -3  -3  18    2.60    0.24 
   3   3 -18    2.74    0.27 
  -3   3  18    2.54    0.23 
  -2  -3  18    1.33    0.20 
   2  -3 -18    1.22    0.22 
   2   3 -18    1.01    0.20 
  -2   3  18    0.98    0.17 
  -1  -3  18    1.72    0.20 
   1  -3 -18    1.68    0.27 
  -1   3  18    1.38    0.17 
   1   3 -18    1.80    0.26 
   0  -3 -18    0.01    0.21 
   0  -3  18    0.10    0.13 
   0   3 -18    0.12    0.19 
   0   3  18    0.18    0.12 
  -1  -3 -18    0.30    0.23 
   1  -3  18    0.35    0.15 
  -1   3 -18    0.88    0.27 
   1   3  18    0.47    0.14 
  -3  -4  18    4.52    0.32 
   3  -4 -18    4.28    0.36 
   3   4 -18    4.04    0.35 
  -3   4  18    4.80    0.32 
   2  -4 -18    0.17    0.18 
  -2  -4  18    0.19    0.16 
  -2   4  18    0.44    0.15 
   2   4 -18    0.35    0.17 
   1  -4 -18    0.74    0.22 
  -1  -4  18    0.61    0.16 
  -1   4  18    0.45    0.15 
   1   4 -18    0.60    0.20 
   0  -4 -18   -0.15    0.18 
   0  -4  18    0.15    0.13 
   0   4  18   -0.14    0.12 
   0   4 -18    0.28    0.21 
  -2   0  19    0.11    0.15 
   2   0 -19    0.08    0.16 
  -1   0  19    1.55    0.19 
   1   0 -19    1.53    0.25 
  -2  -1  19    3.64    0.31 
   2  -1 -19    3.82    0.35 
   2   1 -19    3.88    0.35 
  -2   1  19    4.17    0.31 
   1  -1 -19    0.06    0.17 
   1   1 -19    0.21    0.18 
   0   0   0    0.00    0.00 
;
_shelx_hkl_checksum              78904
loop_
_space_group_symop_operation_xyz
'x, y, z'
'-x+1/2, y+1/2, -z+1/2'
'-x, -y, -z'
'x-1/2, -y-1/2, z-1/2'
loop_
_atom_site_label
_atom_site_type_symbol
_atom_site_fract_x
_atom_site_fract_y
_atom_site_fract_z
_atom_site_U_iso_or_equiv
_atom_site_adp_type
_atom_site_occupancy
_atom_site_site_symmetry_order
_atom_site_calc_flag
_atom_site_refinement_flags_posn
_atom_site_refinement_flags_adp
_atom_site_refinement_flags_occupancy
_atom_site_disorder_assembly
_atom_site_disorder_group
Se1 Se 0.20826(2) 0.44431(2) 0.41459(2) 0.01848(5) Uani 1 1 d . . . . .
Cl1 Cl 0.41177(5) 0.18071(4) 0.34852(3) 0.02341(8) Uani 1 1 d . . . . .
N1 N 0.10637(18) 0.61179(14) 0.45849(10) 0.0212(2) Uani 1 1 d . . . . .
N2 N 0.36590(17) 0.69710(13) 0.38842(9) 0.0179(2) Uani 1 1 d . . . . .
C1 C 0.2028(2) 0.72185(15) 0.43850(12) 0.0198(2) Uani 1 1 d . . . . .
C2 C 0.3952(2) 0.55663(14) 0.36642(11) 0.0183(2) Uani 1 1 d . . . . .
C3 C 0.5510(2) 0.51739(16) 0.31691(12) 0.0211(3) Uani 1 1 d . . . . .
H3 H 0.5724 0.4200 0.3011 0.025 Uiso 1 1 calc R U . . .
C4 C 0.6733(2) 0.62265(17) 0.29134(13) 0.0247(3) Uani 1 1 d . . . . .
H4 H 0.7802 0.5982 0.2579 0.030 Uiso 1 1 calc R U . . .
C5 C 0.6384(2) 0.76596(18) 0.31511(13) 0.0262(3) Uani 1 1 d . . . . .
H5 H 0.7222 0.8384 0.2974 0.031 Uiso 1 1 calc R U . . .
C6 C 0.4858(2) 0.80264(16) 0.36322(12) 0.0223(3) Uani 1 1 d . . . . .
H6 H 0.4629 0.8998 0.3791 0.027 Uiso 1 1 calc R U . . .
C7 C 0.1519(2) 0.87099(16) 0.46517(14) 0.0252(3) Uani 1 1 d . . . . .
H7A H 0.0336 0.8700 0.4964 0.038 Uiso 1 1 calc R U . . .
H7B H 0.1329 0.9290 0.3995 0.038 Uiso 1 1 calc R U . . .
H7C H 0.2557 0.9119 0.5171 0.038 Uiso 1 1 calc R U . . .
loop_
_atom_site_aniso_label
_atom_site_aniso_U_11
_atom_site_aniso_U_22
_atom_site_aniso_U_33
_atom_site_aniso_U_23
_atom_site_aniso_U_13
_atom_site_aniso_U_12
Se1 0.01780(7) 0.01699(7) 0.02177(8) -0.00047(5) 0.00661(5) -0.00104(4)
Cl1 0.02523(16) 0.01933(15) 0.02571(16) -0.00165(12) 0.00423(12) 0.00126(12)
N1 0.0200(5) 0.0197(5) 0.0251(6) -0.0010(4) 0.0075(4) 0.0015(4)
N2 0.0173(5) 0.0178(5) 0.0195(5) 0.0001(4) 0.0049(4) -0.0001(4)
C1 0.0184(6) 0.0204(6) 0.0214(6) -0.0003(5) 0.0054(5) 0.0022(5)
C2 0.0190(6) 0.0179(6) 0.0185(6) -0.0001(4) 0.0045(4) -0.0002(4)
C3 0.0209(6) 0.0220(6) 0.0222(6) -0.0014(5) 0.0087(5) 0.0007(5)
C4 0.0230(7) 0.0274(7) 0.0259(7) 0.0004(5) 0.0102(5) -0.0010(5)
C5 0.0255(7) 0.0246(7) 0.0306(8) 0.0028(6) 0.0109(6) -0.0051(5)
C6 0.0246(7) 0.0177(6) 0.0254(7) 0.0010(5) 0.0068(5) -0.0025(5)
C7 0.0250(7) 0.0199(6) 0.0314(7) -0.0024(5) 0.0068(6) 0.0040(5)
loop_
_atom_type_symbol
_atom_type_description
_atom_type_scat_dispersion_real
_atom_type_scat_dispersion_imag
_atom_type_scat_source
C C 0.0033 0.0016 'International Tables Vol C Tables 4.2.6.8 and 6.1.1.4'
H H 0.0000 0.0000 'International Tables Vol C Tables 4.2.6.8 and 6.1.1.4'
N N 0.0061 0.0033 'International Tables Vol C Tables 4.2.6.8 and 6.1.1.4'
Cl Cl 0.1484 0.1585 'International Tables Vol C Tables 4.2.6.8 and 6.1.1.4'
Se Se -0.0929 2.2259 'International Tables Vol C Tables 4.2.6.8 and 6.1.1.4'
loop_
_geom_angle_atom_site_label_1
_geom_angle_atom_site_label_2
_geom_angle_atom_site_label_3
_geom_angle
_geom_angle_site_symmetry_1
_geom_angle_site_symmetry_3
_geom_angle_publ_flag
N1 Se1 C2 87.16(6) . . ?
C1 N1 Se1 112.16(10) . . ?
C2 N2 C6 121.74(12) . . ?
C2 N2 C1 114.05(12) . . ?
C6 N2 C1 124.21(12) . . ?
N1 C1 N2 116.88(13) . . ?
N1 C1 C7 123.46(14) . . ?
N2 C1 C7 119.66(13) . . ?
N2 C2 C3 119.92(13) . . ?
N2 C2 Se1 109.73(10) . . ?
C3 C2 Se1 130.34(11) . . ?
C4 C3 C2 118.94(14) . . ?
C4 C3 H3 120.5 . . ?
C2 C3 H3 120.5 . . ?
C3 C4 C5 119.49(14) . . ?
C3 C4 H4 120.3 . . ?
C5 C4 H4 120.3 . . ?
C6 C5 C4 120.93(14) . . ?
C6 C5 H5 119.5 . . ?
C4 C5 H5 119.5 . . ?
C5 C6 N2 118.99(14) . . ?
C5 C6 H6 120.5 . . ?
N2 C6 H6 120.5 . . ?
C1 C7 H7A 109.5 . . ?
C1 C7 H7B 109.5 . . ?
H7A C7 H7B 109.5 . . ?
C1 C7 H7C 109.5 . . ?
H7A C7 H7C 109.5 . . ?
H7B C7 H7C 109.5 . . ?
loop_
_geom_bond_atom_site_label_1
_geom_bond_atom_site_label_2
_geom_bond_distance
_geom_bond_site_symmetry_2
_geom_bond_publ_flag
Se1 N1 1.8455(13) . ?
Se1 C2 1.8646(14) . ?
N1 C1 1.2820(19) . ?
N2 C2 1.3654(18) . ?
N2 C6 1.3714(18) . ?
N2 C1 1.4192(18) . ?
C1 C7 1.492(2) . ?
C2 C3 1.399(2) . ?
C3 C4 1.382(2) . ?
C3 H3 0.9500 . ?
C4 C5 1.404(2) . ?
C4 H4 0.9500 . ?
C5 C6 1.363(2) . ?
C5 H5 0.9500 . ?
C6 H6 0.9500 . ?
C7 H7A 0.9800 . ?
C7 H7B 0.9800 . ?
C7 H7C 0.9800 . ?
loop_
_geom_torsion_atom_site_label_1
_geom_torsion_atom_site_label_2
_geom_torsion_atom_site_label_3
_geom_torsion_atom_site_label_4
_geom_torsion
_geom_torsion_site_symmetry_1
_geom_torsion_site_symmetry_2
_geom_torsion_site_symmetry_3
_geom_torsion_site_symmetry_4
_geom_torsion_publ_flag
C2 Se1 N1 C1 -0.42(11) . . . . ?
Se1 N1 C1 N2 -0.30(17) . . . . ?
Se1 N1 C1 C7 179.76(12) . . . . ?
C2 N2 C1 N1 1.19(19) . . . . ?
C6 N2 C1 N1 -178.92(14) . . . . ?
C2 N2 C1 C7 -178.87(13) . . . . ?
C6 N2 C1 C7 1.0(2) . . . . ?
C6 N2 C2 C3 0.0(2) . . . . ?
C1 N2 C2 C3 179.92(13) . . . . ?
C6 N2 C2 Se1 178.68(11) . . . . ?
C1 N2 C2 Se1 -1.42(14) . . . . ?
N1 Se1 C2 N2 1.03(10) . . . . ?
N1 Se1 C2 C3 179.51(15) . . . . ?
N2 C2 C3 C4 0.2(2) . . . . ?
Se1 C2 C3 C4 -178.19(12) . . . . ?
C2 C3 C4 C5 -0.2(2) . . . . ?
C3 C4 C5 C6 0.1(2) . . . . ?
C4 C5 C6 N2 0.0(2) . . . . ?
C2 N2 C6 C5 -0.1(2) . . . . ?
C1 N2 C6 C5 180.00(14) . . . . ?
