#------------------------------------------------------------------------------
#$Date: 2021-09-06 14:11:36 +0300 (Mon, 06 Sep 2021) $
#$Revision: 268763 $
#$URL: file:///home/coder/svn-repositories/cod/cif/7/70/76/7707684.cif $
#------------------------------------------------------------------------------
#
# This file is available in the Crystallography Open Database (COD),
# http://www.crystallography.net/
#
# All data on this site have been placed in the public domain by the
# contributors.
#
data_7707684
loop_
_publ_author_name
'Vinogradova, Katerina A.'
'Shekhovtsov, Nikita A.'
'Berezin, Alexey S.'
'Sukhikh, Taisiya S.'
'Rogovoy, Maxim I.'
'Artem'ev, Alexander V.'
'Bushuev, Mark B.'
_publ_section_title
;
 Coordination-induced emission enhancement in copper(I) iodide
 coordination polymers supported by 2-(alkylsulfanyl)pyrimidines.
;
_journal_issue                   26
_journal_name_full
'Dalton transactions (Cambridge, England : 2003)'
_journal_page_first              9317
_journal_page_last               9330
_journal_paper_doi               10.1039/d1dt00826a
_journal_volume                  50
_journal_year                    2021
_chemical_formula_moiety         'C6 H8 Cu2 I2 N2 S'
_chemical_formula_sum            'C6 H8 Cu2 I2 N2 S'
_chemical_formula_weight         521.08
_space_group_crystal_system      triclinic
_space_group_IT_number           2
_space_group_name_Hall           '-P 1'
_space_group_name_H-M_alt        'P -1'
_atom_sites_solution_hydrogens   geom
_atom_sites_solution_primary     dual
_audit_creation_date             2020-07-14
_audit_creation_method
;
Olex2 1.2
(compiled 2018.05.29 svn.r3508 for OlexSys, GUI svn.r5506)
;
_audit_update_record
;
2020-07-18 deposited with the CCDC.	2021-06-16 downloaded from the CCDC.
;
_cell_angle_alpha                61.958(3)
_cell_angle_beta                 82.979(3)
_cell_angle_gamma                66.443(2)
_cell_formula_units_Z            2
_cell_length_a                   7.5758(6)
_cell_length_b                   9.4445(9)
_cell_length_c                   9.9008(8)
_cell_measurement_reflns_used    3268
_cell_measurement_temperature    150(2)
_cell_measurement_theta_max      27.16
_cell_measurement_theta_min      2.34
_cell_volume                     571.24(9)
_computing_molecular_graphics    'Olex2 (Dolomanov et al., 2009)'
_computing_publication_material  'Olex2 (Dolomanov et al., 2009)'
_computing_structure_refinement  'ShelXL (Sheldrick, 2015)'
_computing_structure_solution    'ShelXT (Sheldrick, 2015)'
_diffrn_ambient_temperature      150(2)
_diffrn_measured_fraction_theta_full 0.996
_diffrn_measured_fraction_theta_max 0.969
_diffrn_measurement_device_type  'Bruker APEX-II CCD'
_diffrn_measurement_method       '\f and \w scans'
_diffrn_radiation_type           MoK\a
_diffrn_radiation_wavelength     0.71073
_diffrn_reflns_av_R_equivalents  0.0207
_diffrn_reflns_av_unetI/netI     0.0275
_diffrn_reflns_Laue_measured_fraction_full 0.996
_diffrn_reflns_Laue_measured_fraction_max 0.969
_diffrn_reflns_limit_h_max       9
_diffrn_reflns_limit_h_min       -9
_diffrn_reflns_limit_k_max       9
_diffrn_reflns_limit_k_min       -12
_diffrn_reflns_limit_l_max       11
_diffrn_reflns_limit_l_min       -12
_diffrn_reflns_number            5668
_diffrn_reflns_point_group_measured_fraction_full 0.996
_diffrn_reflns_point_group_measured_fraction_max 0.969
_diffrn_reflns_theta_full        25.242
_diffrn_reflns_theta_max         27.228
_diffrn_reflns_theta_min         2.338
_diffrn_standards_number         0
_exptl_absorpt_coefficient_mu    9.266
_exptl_absorpt_correction_T_max  0.7455
_exptl_absorpt_correction_T_min  0.6461
_exptl_absorpt_correction_type   multi-scan
_exptl_absorpt_process_details
'SADABS-2012/1 (Bruker,2012) was used for absorption correction. wR2(int) was 0.0524 before and 0.0322 after correction. The Ratio of minimum to maximum transmission is 0.8667. The \l/2 correction factor is 0.0015.'
_exptl_crystal_colour            yellow
_exptl_crystal_colour_primary    yellow
_exptl_crystal_density_diffrn    3.029
_exptl_crystal_description       block
_exptl_crystal_F_000             476
_exptl_crystal_preparation       Luminescent
_exptl_crystal_size_max          0.13
_exptl_crystal_size_mid          0.12
_exptl_crystal_size_min          0.12
_refine_diff_density_max         0.604
_refine_diff_density_min         -0.655
_refine_diff_density_rms         0.138
_refine_ls_extinction_method     none
_refine_ls_goodness_of_fit_ref   1.072
_refine_ls_hydrogen_treatment    constr
_refine_ls_matrix_type           full
_refine_ls_number_parameters     119
_refine_ls_number_reflns         2468
_refine_ls_number_restraints     0
_refine_ls_restrained_S_all      1.072
_refine_ls_R_factor_all          0.0229
_refine_ls_R_factor_gt           0.0203
_refine_ls_shift/su_max          0.001
_refine_ls_shift/su_mean         0.000
_refine_ls_structure_factor_coef Fsqd
_refine_ls_weighting_details
'w=1/[\s^2^(Fo^2^)+(0.0150P)^2^+0.3139P] where P=(Fo^2^+2Fc^2^)/3'
_refine_ls_weighting_scheme      calc
_refine_ls_wR_factor_gt          0.0404
_refine_ls_wR_factor_ref         0.0415
_reflns_Friedel_coverage         0.000
_reflns_number_gt                2295
_reflns_number_total             2468
_reflns_threshold_expression     'I > 2\s(I)'
_cod_data_source_file            d1dt00826a2.cif
_cod_data_source_block           mbb235_1
_cod_depositor_comments
'Adding full bibliography for 7707683--7707685.cif.'
_cod_database_code               7707684
_shelx_shelxl_version_number     2017/1
_shelx_space_group_comment
;
The symmetry employed for this shelxl refinement is uniquely defined
by the following loop, which should always be used as a source of
symmetry information in preference to the above space-group names.
They are only intended as comments.
;
_shelx_estimated_absorpt_t_max   0.403
_shelx_estimated_absorpt_t_min   0.379
_olex2_refinement_description
;
1. Fixed Uiso
 At 1.2 times of:
  All C(H) groups, All C(H,H) groups
 At 1.5 times of:
  All C(H,H,H) groups
2.a Secondary CH2 refined with riding coordinates:
 C5(H5A,H5B)
2.b Aromatic/amide H refined with riding coordinates:
 C2(H2), C3(H3), C4(H4)
2.c Idealised Me refined as rotating group:
 C6(H6A,H6B,H6C)
;
_shelx_res_file
;
TITL mbb235_1_a.res in P-1
    mbb235_1.res
    created by SHELXL-2017/1 at 18:44:08 on 14-Jul-2020
REM Old TITL MBB235_1 in P-1
REM SHELXT solution in P-1
REM R1 0.122, Rweak 0.010, Alpha 0.032, Orientation as input
REM Formula found by SHELXT: C8 S Cu4
CELL 0.71073 7.5758 9.4445 9.9008 61.958 82.979 66.443
ZERR 2 0.0006 0.0009 0.0008 0.003 0.003 0.002
LATT 1
SFAC C H Cu I N S
UNIT 12 16 4 4 4 2

L.S. 6
PLAN  20
SIZE 0.13 0.12 0.12
TEMP -123(2)
list 4
fmap 2 53
acta
REM <olex2.extras>
REM <HklSrc "%.\\MBB235_1.hkl">
REM </olex2.extras>

WGHT    0.015000    0.313900
FVAR       0.39890
I1    4    0.488456    0.256790    1.009387    11.00000    0.01148    0.01358 =
         0.01512   -0.00832    0.00161   -0.00442
I2    4    0.932286    0.485737    0.782577    11.00000    0.01239    0.01916 =
         0.01158   -0.00880    0.00368   -0.00769
CU1   3    0.574926    0.535951    0.859496    11.00000    0.01460    0.01775 =
         0.01564   -0.00834    0.00123   -0.00530
CU2   3    0.154078    0.534322    0.934526    11.00000    0.01491    0.01406 =
         0.01451   -0.00553    0.00220   -0.00637
S1    6    0.362404    0.697462    0.634580    11.00000    0.01311    0.01329 =
         0.01176   -0.00639    0.00277   -0.00552
N1    5    0.094638    0.794385    0.802197    11.00000    0.00973    0.01340 =
         0.01371   -0.00689   -0.00145   -0.00365
N2    5    0.160121    1.024998    0.589265    11.00000    0.01686    0.01353 =
         0.01591   -0.00594    0.00353   -0.00718
C1    1    0.186743    0.859337    0.677532    11.00000    0.00914    0.01326 =
         0.01090   -0.00629   -0.00122   -0.00334
C2    1   -0.040243    0.912272    0.840635    11.00000    0.01186    0.01634 =
         0.01496   -0.00567    0.00142   -0.00388
AFIX  43
H2    2   -0.111426    0.873467    0.926639    11.00000   -1.20000
AFIX   0
C3    1   -0.077500    1.088867    0.757552    11.00000    0.01422    0.01278 =
         0.02245   -0.00930    0.00112   -0.00238
AFIX  43
H3    2   -0.170809    1.171523    0.785739    11.00000   -1.20000
AFIX   0
C4    1    0.027899    1.138757    0.631596    11.00000    0.01894    0.01304 =
         0.01968   -0.00534   -0.00018   -0.00594
AFIX  43
H4    2    0.005422    1.258786    0.572739    11.00000   -1.20000
AFIX   0
C5    1    0.475065    0.821358    0.474997    11.00000    0.01972    0.01818 =
         0.01105   -0.00582    0.00735   -0.00928
AFIX  23
H5A   2    0.374747    0.930486    0.400491    11.00000   -1.20000
H5B   2    0.562064    0.852207    0.513175    11.00000   -1.20000
AFIX   0
C6    1    0.590135    0.709236    0.397197    11.00000    0.02219    0.03382 =
         0.02210   -0.01833    0.00562   -0.00990
AFIX 137
H6A   2    0.648518    0.775358    0.309131    11.00000   -1.50000
H6B   2    0.503554    0.676987    0.361946    11.00000   -1.50000
H6C   2    0.692060    0.603524    0.470666    11.00000   -1.50000
AFIX   0
HKLF 4




REM  mbb235_1_a.res in P-1
REM R1 =  0.0203 for    2295 Fo > 4sig(Fo)  and  0.0229 for all    2468 data
REM    119 parameters refined using      0 restraints

END

WGHT      0.0150      0.3127

REM Highest difference peak  0.604,  deepest hole -0.655,  1-sigma level  0.138
Q1    1   0.4816  0.4604  0.7642  11.00000  0.05    0.60
Q2    1   0.0464  1.3045  0.4785  11.00000  0.05    0.55
Q3    1   0.1385  1.0631  0.6394  11.00000  0.05    0.49
Q4    1   0.3606  0.3981  0.7986  11.00000  0.05    0.47
Q5    1   0.2346  0.8630  0.4682  11.00000  0.05    0.47
Q6    1  -0.1613  0.7783  1.0549  11.00000  0.05    0.47
Q7    1   0.1158  1.0574  0.4473  11.00000  0.05    0.46
Q8    1  -0.1478  0.8930  0.8785  11.00000  0.05    0.45
Q9    1   0.1408  0.6938  0.8547  11.00000  0.05    0.45
Q10   1   0.6513  0.9151  0.3992  11.00000  0.05    0.45
Q11   1  -0.0005  1.0001  0.5322  11.00000  0.05    0.45
Q12   1   0.2874  0.2264  0.9487  11.00000  0.05    0.45
Q13   1   0.5812  0.7414  0.7804  11.00000  0.05    0.44
Q14   1   0.0469  1.1048  0.4598  11.00000  0.05    0.44
Q15   1   0.1550  1.0377  0.7635  11.00000  0.05    0.44
Q16   1   0.1701  1.2161  0.2914  11.00000  0.05    0.44
Q17   1   0.8213  0.9001  0.1771  11.00000  0.05    0.44
Q18   1   0.7425  0.9406  0.2541  11.00000  0.05    0.44
Q19   1   0.2020  1.2159  0.2648  11.00000  0.05    0.44
Q20   1   0.5227  0.1379  0.8903  11.00000  0.05    0.44
;
_shelx_res_checksum              42651
_shelx_hkl_file
;
  -2  -2  -1 1825.82   37.50
  -2  -2  -1 1794.12   35.90
   2   2   1 1830.92   37.40
  -4  -4  -2  646.34   20.00
  -4  -4  -2  654.83   18.90
   4   4   2  624.54   19.90
  -6  -6  -3    8.50    3.50
  -8  -8  -4   12.70    5.40
  -7  -8  -4  786.32   29.60
  -5  -6  -3 1618.74   41.70
   3   4   2 4113.99   81.99
  -3  -4  -2 4230.18   79.89
  -3  -4  -2 4069.59   81.89
   1   2   1   34.90    2.40
   1   2   1   33.90    1.70
  -1  -2  -1   32.80    2.30
  -1   0   0   36.70    2.20
  -1   0   0   42.70    1.90
   1   0   0   35.60    1.80
   1   0   0   35.10    2.10
  -3  -2  -1  458.55   12.80
  -3  -2  -1  456.45   14.10
   3   2   1  474.05   14.30
  -5  -4  -2   40.20    5.30
  -5  -4  -2   46.00    6.30
  -7  -6  -3  902.61   31.40
  -9  -8  -4  678.13   30.80
  -6  -8  -4  186.38   12.40
   4   6   3   34.60    3.20
  -4  -6  -3   39.10    5.50
   2   4   2  764.22   19.00
   2   4   2  724.83   16.00
  -2  -4  -2  723.73   18.60
   0   2   1  217.68    5.40
   0   2   1  224.08    6.50
   0  -2  -1  227.78    6.60
   0  -2  -1  213.28    5.30
  -2   0   0 5357.46   94.29
  -2   0   0 5072.59  102.19
   2   0   0 5196.38   99.79
   2   0   0 5256.07   96.09
  -4  -2  -1 5124.99   94.59
  -4  -2  -1 4947.21   99.39
   4   2   1 5077.59   94.49
   4   2   1 5058.99   99.49
  -6  -4  -2 2245.88   54.69
  -8  -6  -3  300.17   18.10
  -7 -10  -5  132.59   14.10
   5   8   4  794.12   18.30
  -5  -8  -4  791.62   26.30
   3   6   3  423.96   11.40
   3   6   3  425.56   14.90
  -3  -6  -3  406.26   14.50
   1   4   2 4683.63   84.89
  -1  -4  -2 4467.65   86.29
  -1  -4  -2 4704.73   85.29
  -1   2   1 1972.20   36.50
   1  -2  -1 1936.91   36.50
   1  -2  -1 1914.51   38.90
   1  -2  -1 1909.91   37.00
   1  -2  -1 1931.71   36.50
  -3   0   0 1490.95   29.70
  -3   0   0 1499.25   32.70
   3   0   0 1499.05   32.80
   3   0   0 1425.36   29.60
  -5  -2  -1   86.29    5.70
  -5  -2  -1   94.09    7.10
   5   2   1   81.49    5.50
   5   2   1   86.49    6.90
  -7  -4  -2  127.39   12.80
  -9  -6  -3   44.70    9.00
  -6 -10  -5  189.18   13.00
   4   8   4  146.99    6.30
  -4  -8  -4  182.48   10.30
   2   6   3    7.60    2.20
   2   6   3   -0.40    0.60
  -2  -6  -3    1.10    1.10
  -2  -6  -3    1.00    1.20
   0   4   2 1137.79   23.20
   0  -4  -2 1174.78   26.60
   0  -4  -2 1146.79   23.30
  -2   2   1   42.20    2.80
   2  -2  -1   33.20    2.60
   2  -2  -1   49.99    3.00
   2  -2  -1   43.10    4.60
   2  -2  -1   40.10    2.80
  -4   0   0    0.90    0.90
  -4   0   0    2.80    1.50
   4   0   0    2.10    1.20
   4   0   0    2.50    1.60
  -6  -2  -1  997.90   26.10
  -6  -2  -1  984.90   30.20
   6   2   1 1067.29   31.10
  -8  -4  -2  825.62   30.90
  -5 -10  -5    8.00    3.60
   3   8   4  745.43   19.40
  -3  -8  -4  749.62   22.30
   1   6   3  815.22   19.20
   1   6   3  796.72   20.60
  -1  -6  -3  757.22   18.90
  -1  -6  -3  783.62   21.20
   1  -4  -2 1940.71   38.40
   1  -4  -2 2069.29   38.50
   1  -4  -2 2018.60   43.60
  -3   2   1 3175.58   59.59
  -3   2   1 3186.98   62.19
   3  -2  -1 3128.19   59.59
   3  -2  -1 3196.28   62.49
   3  -2  -1 3128.49   65.19
  -5   0   0  454.95   16.60
  -5   0   0  461.25   13.80
   5   0   0  472.45   13.70
   5   0   0  459.85   16.70
  -7  -2  -1  693.43   25.60
  -9  -4  -2    5.50    4.20
   9   4   2    3.20    2.80
  -4 -10  -5 1118.89   32.20
  -2  -8  -4 1356.86   32.90
  -2  -8  -4 1315.67   31.70
   0   6   3    2.60    0.80
   0  -6  -3    6.90    2.40
   0  -6  -3    3.70    1.10
   2  -4  -2   39.10    2.90
   2  -4  -2   45.80    5.90
   2  -4  -2   28.40    3.60
   2  -4  -2   39.00    2.70
  -4   2   1  345.37   10.60
  -4   2   1  326.07   11.90
   4  -2  -1  328.87   10.40
   4  -2  -1  338.07   14.60
   4  -2  -1  351.16   12.60
  -6   0   0   12.80    2.70
  -6   0   0    9.70    3.20
   6   0   0   12.00    3.90
   6   0   0   17.80    4.40
   6   0   0    9.60    2.50
  -8  -2  -1  138.69   14.10
   8   2   1  150.08   11.10
  -5 -12  -6   57.19    8.10
  -3 -10  -5  160.68    9.30
   1   8   4   36.20    3.60
  -1  -8  -4   25.90    3.30
  -1  -8  -4   22.00    4.40
   1  -6  -3  634.74   13.60
   1  -6  -3  580.84   13.40
   1  -6  -3  601.64   20.50
  -3   4   2  573.64   14.90
   3  -4  -2  581.94   15.50
   3  -4  -2  557.04   20.20
   3  -4  -2  528.65   15.80
   3  -4  -2  555.74   15.10
  -5   2   1 2424.86   53.99
  -5   2   1 2488.35   49.60
   5  -2  -1 2446.36   49.50
   5  -2  -1 2530.85   58.49
   5  -2  -1 2456.95   54.79
  -7   0   0  462.95   19.60
   7   0   0  487.65   20.80
   7   0   0  462.55   15.30
   9   2   1  427.76   20.80
  -4 -12  -6   47.70    7.10
  -2 -10  -5  614.64   21.70
  -2 -10  -5  587.64   18.00
   0  -8  -4 1465.85   30.40
   0  -8  -4 1523.05   31.00
   0  -8  -4 1542.15   39.80
   2  -6  -3 1908.71   43.90
   2  -6  -3 1868.11   37.50
   2  -6  -3 1974.00   48.30
   2  -6  -3 1987.90   37.60
  -4   4   2    8.40    2.20
   4  -4  -2    9.40    2.50
   4  -4  -2   22.90    3.60
   4  -4  -2   10.30    4.00
   4  -4  -2    8.80    2.20
  -6   2   1   22.20    4.50
   6  -2  -1   10.20    3.90
   6  -2  -1   21.70    3.30
   6  -2  -1   17.30    4.20
   8   0   0   29.50    6.80
  -3 -12  -6  540.15   18.90
  -1 -10  -5   71.59    4.40
  -1 -10  -5   72.69    8.90
   1  -8  -4   57.59    8.20
   3  -6  -3   10.90    2.00
   3  -6  -3   16.90    3.60
   3  -6  -3   15.00    4.60
   3  -6  -3   13.60    2.20
   5  -4  -2    9.40    2.40
   5  -4  -2    6.50    2.60
   5  -4  -2   14.20    4.60
   7  -2  -1  470.55   19.90
   7  -2  -1  487.55   23.00
   0 -10  -5   10.80    4.30
   2  -8  -4   71.69    8.30
   2  -8  -4   80.79   10.60
   4  -6  -3 1809.42   42.20
   4  -6  -3 1876.11   51.89
   4  -6  -3 1888.01   40.10
   6  -4  -2  610.54   26.20
   6  -4  -2  566.24   20.30
   8  -2  -1  179.68   17.80
   8  -2  -1  182.58   13.00
   1 -10  -5  669.63   25.30
   1 -10  -5  666.83   27.70
   3  -8  -4   -2.40    2.70
   5  -6  -3   23.60    6.60
   5  -6  -3   28.10    4.40
   7  -4  -2   35.40    6.30
   3  -9  -4   82.39   12.20
   6  -5  -2  509.05   25.70
   6  -5  -2  573.64   20.60
   4  -7  -3 1054.29   37.60
   2  -9  -4   57.89    9.70
   0 -11  -5   49.20    8.90
   7  -3  -1  594.04   23.00
   7  -3  -1  559.94   26.10
   5  -5  -2    3.60    2.20
   5  -5  -2    6.60    4.10
   3  -7  -3    4.50    2.20
   3  -7  -3    0.30    2.50
   3  -7  -3    1.80    1.20
   1  -9  -4  212.08   12.50
   1  -9  -4  232.48   14.70
  -1 -11  -5   12.60    4.30
   8  -1   0  177.38   13.70
   8  -1   0  145.39   14.30
   6  -3  -1    6.20    2.90
   6  -3  -1    1.50    2.50
   4  -5  -2   10.40    2.70
   4  -5  -2    8.20    3.70
   4  -5  -2    7.00    2.00
   2  -7  -3 1150.08   30.70
   2  -7  -3 1155.08   24.70
   2  -7  -3 1173.18   24.70
   2  -7  -3 1146.59   35.50
   0  -9  -4 1078.09   33.20
   0  -9  -4 1058.59   23.50
  -2 -11  -5  218.18   10.20
   9   1   1  355.56   19.60
   7  -1   0   99.29   10.50
   7  -1   0  116.29   12.30
   5  -3  -1  912.21   26.50
   5  -3  -1  884.11   26.10
   5  -3  -1  958.20   30.80
   5  -3  -1  918.01   21.20
  -5   3   1  964.90   26.20
   3  -5  -2  359.66   11.90
   3  -5  -2  342.87   11.40
   3  -5  -2  349.87   16.50
   3  -5  -2  344.67   12.10
   1  -7  -3  121.49    5.10
   1  -7  -3  122.89    9.10
   1  -7  -3  125.09    5.20
  -1  -9  -4   29.20    5.50
  -1  -9  -4   26.60    3.60
  -3 -11  -5  341.77   14.60
   8   1   1  153.08   11.90
  -8  -1  -1  159.98   12.20
   6  -1   0   23.70    3.30
   6  -1   0   21.20    4.70
   6  -1   0   25.60    5.30
  -6   1   0   21.80    4.60
  -6   1   0   25.60    3.40
   4  -3  -1   45.40    5.10
   4  -3  -1   51.59    3.50
   4  -3  -1   41.50    5.00
   4  -3  -1   46.50    7.00
  -4   3   1   67.89    6.30
   2  -5  -2  225.98    8.10
   2  -5  -2  224.08    9.40
   2  -5  -2  221.28    7.80
   2  -5  -2  206.18   11.40
   0  -7  -3    8.50    1.90
   0  -7  -3   12.70    2.20
   0  -7  -3   11.30    3.30
   0   7   3   11.10    1.70
  -2  -9  -4  656.63   19.70
  -2  -9  -4  669.83   22.20
  -4 -11  -5  270.17   14.00
   9   3   2   90.39   10.50
  -9  -3  -2   88.19   12.20
   7   1   1  238.88   13.40
  -7  -1  -1  243.58   14.20
   5  -1   0  373.36   14.80
   5  -1   0  351.36   15.20
   5  -1   0  326.47   10.20
  -5   1   0  328.77   10.40
  -5   1   0  322.07   13.50
   3  -3  -1  542.45   13.80
   3  -3  -1  525.15   18.60
   3  -3  -1  510.65   15.30
   3  -3  -1  580.74   15.80
  -3   3   1  559.84   15.50
   1  -5  -2  491.15   12.60
   1  -5  -2  493.05   16.90
   1  -5  -2  460.35   12.40
  -1  -7  -3   26.30    3.50
  -1  -7  -3   14.20    3.40
   1   7   3   19.30    3.10
   1   7   3   14.90    3.30
  -3  -9  -4  512.95   18.10
   3   9   4  496.45   16.30
  -5 -11  -5   63.59    8.90
   8   3   2  317.87   15.30
  -8  -3  -2  326.47   18.10
   6   1   1  127.79    8.80
   6   1   1  127.19    9.30
  -6  -1  -1  120.69    8.90
  -6  -1  -1  115.19    6.60
   4  -1   0   38.60    5.40
   4  -1   0   38.00    4.80
   4  -1   0   39.40    2.90
  -4   1   0   35.60    2.80
  -4   1   0   37.50    4.70
   2  -3  -1    3.60    1.30
   2  -3  -1    5.00    1.50
   2  -3  -1    9.00    2.60
   2  -3  -1    4.00    1.40
  -2   3   1    5.40    1.50
   0  -5  -2   73.39    4.00
   0  -5  -2   79.09    5.60
   0   5   2   76.89    5.40
   0   5   2   72.79    3.80
  -2  -7  -3  313.57   11.90
  -2  -7  -3  305.37   12.10
   2   7   3  339.57   12.40
   2   7   3  337.87   11.90
  -4  -9  -4   49.40    6.70
  -6 -11  -5   59.69    9.50
  -9  -5  -3    1.40    3.30
   7   3   2  509.65   18.30
  -7  -3  -2  513.25   21.70
   5   1   1  253.57   11.20
   5   1   1  258.47    9.60
   5   1   1  284.07   12.80
  -5  -1  -1  259.47   12.30
  -5  -1  -1  272.97    9.80
   3  -1   0   71.09    5.30
   3  -1   0   82.99    3.60
   3  -1   0   72.19    4.80
  -3   1   0   95.49    3.90
   1  -3  -1  402.06   10.60
   1  -3  -1  420.76   10.60
   1  -3  -1  409.86   13.00
  -1   3   1  394.26    9.90
  -1  -5  -2 2244.68   46.70
  -1  -5  -2 2208.68   45.70
   1   5   2 2317.27   46.30
   1   5   2 2292.67   46.10
  -3  -7  -3    4.50    2.10
   3   7   3    4.20    1.60
  -5  -9  -4  103.39   10.40
   8   5   3   54.49    6.40
  -8  -5  -3   57.69    9.40
  -6  -3  -2 1070.69   27.80
  -6  -3  -2 1039.40   31.70
   4   1   1 1706.43   35.00
   4   1   1 1731.13   39.70
  -4  -1  -1 1677.13   39.20
  -4  -1  -1 1730.33   35.20
   2  -1   0 1291.17   28.20
   2  -1   0 1287.07   27.40
   2  -1   0 1271.77   24.20
  -2   1   0 1257.57   24.20
   0  -3  -1  803.42   17.20
   0  -3  -1  806.22   18.80
   0   3   1  787.12   17.30
   0   3   1  753.72   18.40
  -2  -5  -2   13.90    2.60
   2   5   2   25.30    3.10
   2   5   2   23.30    3.50
  -6  -9  -4   15.90    4.70
  -9  -7  -4  164.28   17.10
  -7  -5  -3   94.19   10.80
   5   3   2   13.50    3.60
  -5  -3  -2    9.30    3.00
  -5  -3  -2    3.30    1.60
   3   1   1 2917.51   58.69
   3   1   1 2830.12   54.39
  -3  -1  -1 2932.91   54.49
  -3  -1  -1 2909.81   58.69
   1  -1   0  480.05   11.10
   1  -1   0  473.65   11.10
   1  -1   0  492.85    9.60
   1  -1   0  472.45   11.90
  -1   1   0  485.95   11.20
  -1  -3  -1 1024.90   21.60
  -1  -3  -1 1016.70   22.30
   1   3   1 1004.20   21.50
   1   3   1 1045.90   22.50
  -3  -5  -2 1997.80   44.70
   3   5   2 1998.00   40.00
   3   5   2 2066.49   45.30
  -7  -9  -4   78.69   10.80
  -8  -7  -4  129.29   14.40
  -6  -5  -3  831.22   27.60
   4   3   2    4.80    2.30
  -4  -3  -2    6.80    2.20
  -4  -3  -2   -0.70    1.30
   2   1   1  616.64   15.30
  -2  -1  -1  615.64   15.50
  -2  -1  -1  611.04   13.60
   0  -1   0 4011.70   77.49
   0  -1   0 4129.59   76.19
   0   1   0 4031.20   74.99
   0   1   0 3943.41   74.39
  -4  -5  -2   35.80    5.30
  -4  -5  -2   40.50    5.40
  -6  -7  -3  124.79   10.00
  -8  -9  -4  412.56   22.20
  -7  -7  -4  161.88   12.30
  -5  -5  -3   69.69    7.70
   3   3   2 1059.69   25.10
  -3  -3  -2  994.70   23.40
  -3  -3  -2  936.51   24.50
  -1  -1   0    4.30    1.10
  -1  -1   0    3.10    0.90
   1   1   0    0.00    0.70
   1   1   0    3.60    0.90
  -3  -3  -1 3003.50   61.69
  -3  -3  -1 2987.10   59.29
   3   3   1 3090.49   61.89
  -5  -5  -2  603.44   21.20
  -7  -7  -3  273.47   16.10
  -8  -9  -5   50.29    9.60
  -6  -7  -4   26.00    5.50
   4   5   3  650.53   21.10
  -4  -5  -3  702.13   21.50
  -4  -5  -3  747.33   21.20
   2   3   2  248.18    5.50
  -2  -3  -2  227.98    8.30
   0   1   1 3352.26   60.69
   0   1   1 3263.07   60.59
   0  -1  -1 3284.97   60.59
  -2  -1   0  117.99    4.80
  -2  -1   0  133.39    5.60
   2   1   0  119.99    5.40
   2   1   0  118.49    4.90
  -4  -3  -1 1538.25   34.00
  -4  -3  -1 1428.76   35.70
   4   3   1 1486.45   35.90
  -6  -5  -2  152.38   10.70
  -8  -7  -3   75.19   10.70
  -7  -9  -5   87.09   11.30
   5   7   4  116.59    3.90
  -5  -7  -4  111.99    8.60
   3   5   3    9.80    2.40
   3   5   3    0.60    0.60
  -3  -5  -3    0.50    1.10
   1   3   2  681.93   15.30
   1   3   2  681.13   14.20
  -1  -3  -2  662.43   15.20
  -1  -3  -2  674.63   14.30
  -1   1   1  112.89    3.40
  -1   1   1  107.69    4.10
   1  -1  -1  109.19    3.40
   1  -1  -1  109.19    4.10
  -3  -1   0    8.00    2.30
  -3  -1   0   11.70    2.30
   3   1   0   10.40    2.20
   3   1   0   11.60    2.60
  -5  -3  -1    2.50    1.60
  -5  -3  -1    3.50    2.20
   5   3   1    0.10    1.10
   5   3   1    2.90    1.90
  -7  -5  -2 1431.16   42.00
  -9  -7  -3  192.48   19.10
  -6  -9  -5   72.39    9.70
   4   7   4   13.00    1.70
  -4  -7  -4    9.00    2.80
   2   5   3 1065.39   24.90
   2   5   3 1029.30   21.70
  -2  -5  -3 1016.10   24.40
   0   3   2  134.19    3.40
   0  -3  -2  129.69    5.40
   0  -3  -2  128.09    3.50
  -2   1   1  901.11   19.70
  -2   1   1  954.20   20.10
   2  -1  -1  915.41   19.70
   2  -1  -1  908.61   20.10
  -4  -1   0 1111.89   28.20
  -4  -1   0 1094.89   25.50
   4   1   0 1138.89   28.40
   4   1   0 1119.59   25.70
  -6  -3  -1   34.80    6.00
  -6  -3  -1   40.90    5.60
  -8  -5  -2   24.10    6.50
  -5  -9  -5  834.42   27.40
  -3  -7  -4    4.30    1.90
   1   5   3    8.50    1.80
  -1  -5  -3    3.30    1.60
  -1  -5  -3    3.20    1.40
   1  -3  -2  526.25   14.20
   1  -3  -2  504.85   10.70
   1  -3  -2  541.65   10.70
   1  -3  -2  533.75   15.10
  -3   1   1   21.10    2.70
  -3   1   1   25.30    3.10
   3  -1  -1   18.80    2.80
   3  -1  -1   15.40    2.20
  -5  -1   0  213.78   10.70
  -5  -1   0  215.98    9.10
   5   1   0  241.48   11.50
   5   1   0  209.38    9.00
  -7  -3  -1  118.09   12.20
  -9  -5  -2  164.68   17.40
  -6 -11  -6  227.68   14.70
  -4  -9  -5  151.88    9.60
   2   7   4   90.69    5.50
  -2  -7  -4   75.29    5.10
  -2  -7  -4   68.89    4.90
   0  -5  -3  833.92   17.40
   0  -5  -3  870.71   22.20
  -2   3   2 1138.79   23.20
   2  -3  -2 1156.58   23.50
   2  -3  -2 1102.09   23.40
   2  -3  -2 1162.68   28.50
   2  -3  -2 1127.39   25.80
  -4   1   1   54.29    5.50
   4  -1  -1   50.99    5.40
   4  -1  -1   51.49    3.90
  -6  -1   0  909.51   24.10
  -6  -1   0  911.21   28.00
   6   1   0  907.11   28.30
   6   1   0  894.01   24.10
  -8  -3  -1   37.90    7.30
  -5 -11  -6   39.20    6.70
  -3  -9  -5  772.22   22.80
   1   7   4 1283.97   27.50
  -1  -7  -4 1332.27   31.80
  -1  -7  -4 1259.67   27.90
   1  -5  -3  528.45   17.30
  -3   3   2   40.20    3.10
   3  -3  -2   38.00    3.70
   3  -3  -2   39.00    4.20
   3  -3  -2   39.30    5.60
   3  -3  -2   36.80    3.70
  -5   1   1  644.54   17.80
  -5   1   1  623.34   19.70
   5  -1  -1  630.44   17.60
   5  -1  -1  678.23   20.80
  -7  -1   0   34.10    6.40
  -7  -1   0   43.00    5.90
   7   1   0   37.40    5.20
  -9  -3  -1   25.60    7.10
   9   3   1   23.50    5.90
  -4 -11  -6  179.08   10.90
  -2  -9  -5    8.10    2.80
  -2  -9  -5    5.40    2.00
   0  -7  -4  643.44   20.90
   0  -7  -4  613.94   13.70
   0  -7  -4  655.73   14.20
   2  -5  -3  298.67   13.60
   2  -5  -3  302.47   12.10
   2  -5  -3  317.17    7.60
   2  -5  -3  297.07    7.60
  -4   3   2  539.65   15.50
   4  -3  -2  529.35   16.00
   4  -3  -2  500.75   19.70
   4  -3  -2  540.35   15.70
   4  -3  -2  569.34   16.40
  -6   1   1  312.17   14.10
  -6   1   1  311.97   12.00
   6  -1  -1  323.67   16.00
   6  -1  -1  289.47   14.20
   6  -1  -1  308.67   11.80
  -8  -1   0  367.06   18.60
   8   1   0  353.06   18.30
  -3 -11  -6    9.00    3.00
  -1  -9  -5   18.90    4.30
  -1  -9  -5   14.00    2.30
   1  -7  -4 1287.77   35.40
   3  -5  -3 1014.60   23.30
   3  -5  -3 1087.79   23.30
   3  -5  -3 1073.69   27.60
   3  -5  -3 1076.49   32.00
  -5   3   2 1545.55   37.00
   5  -3  -2 1627.94   38.60
   5  -3  -2 1589.44   43.60
   5  -3  -2 1605.84   35.90
   5  -3  -2 1605.14   38.10
   7  -1  -1    1.00    1.70
   7  -1  -1    0.00    2.20
   9   1   0   42.80    8.60
  -2 -11  -6  574.74   16.80
   0  -9  -5  458.55   19.30
   2  -7  -4  111.09    8.40
   2  -7  -4  144.09   10.60
   4  -5  -3  501.55   21.40
   4  -5  -3  464.65   16.10
   4  -5  -3  477.45   14.40
   6  -3  -2   47.50    8.10
   6  -3  -2   71.59    5.50
   6  -3  -2   63.09    7.30
   8  -1  -1   28.40    6.90
  -1 -11  -6   20.00    5.30
   1  -9  -5    8.90    4.10
   1  -9  -5    9.80    3.70
   3  -7  -4  170.08   10.30
   3  -7  -4  177.08   13.00
   5  -5  -3  140.39   14.70
   5  -5  -3  154.38    8.30
   7  -3  -2  882.91   34.00
   7  -3  -2  894.91   28.70
   0 -11  -6  260.77   16.20
   0 -11  -6  241.48   15.80
   2  -9  -5  139.69   10.70
   2  -9  -5  163.58   15.40
   4  -7  -4  873.51   33.10
   6  -5  -3   52.99    9.50
   6  -5  -3   53.99    6.60
   3  -9  -5    8.30    4.80
   7  -4  -1   45.90    7.50
   5  -6  -2  224.58   11.60
   5  -6  -2  233.88   16.80
   3  -8  -3  716.13   29.80
   1 -10  -4  927.31   34.20
   8  -2   0  666.73   29.80
   8  -2   0  615.94   26.00
   6  -4  -1  346.07   19.90
   6  -4  -1  382.76   16.80
   4  -6  -2  368.96   14.10
   4  -6  -2  423.36   21.00
   2  -8  -3    8.60    3.30
   2  -8  -3   14.30    5.00
   2  -8  -3   11.90    2.20
   0 -10  -4   26.60    6.30
   7  -2   0  249.88   14.60
   7  -2   0  284.57   17.10
   5  -4  -1    2.80    2.00
   5  -4  -1    1.00    2.60
   3  -6  -2    7.50    2.30
   3  -6  -2   11.00    2.60
   3  -6  -2   11.10    4.00
   1  -8  -3   87.29   10.20
   1  -8  -3   85.89    4.90
  -1 -10  -4  497.15   20.80
  -1 -10  -4  453.35   14.80
  -3 -12  -5 1071.39   30.70
   8   0   1   51.29    8.50
   8   0   1   66.49    9.60
   6  -2   0  579.34   21.30
   6  -2   0  588.04   23.50
  -6   2   0  539.95   20.40
   4  -4  -1  833.22   28.00
   4  -4  -1  829.92   23.10
   4  -4  -1  793.72   18.40
   4  -4  -1  784.22   23.10
  -4   4   1  829.82   22.60
   2  -6  -2  521.95   15.20
   2  -6  -2  531.95   14.90
   2  -6  -2  522.25   16.50
   2  -6  -2  538.25   21.10
   0  -8  -3 1127.29   26.70
   0  -8  -3 1142.59   33.00
   0  -8  -3 1103.79   26.10
   0   8   3 1088.29   23.90
  -2 -10  -4   11.40    3.10
  -4 -12  -5   74.49    9.10
   9   2   2  963.00   32.90
   7   0   1   47.10    7.90
  -7   0  -1   29.20    6.00
   5  -2   0   60.59    6.90
   5  -2   0   72.69    3.60
   5  -2   0   81.49    8.20
   5  -2   0   60.79    7.80
  -5   2   0   67.59    7.30
   3  -4  -1  351.66   12.60
   3  -4  -1  382.56   16.20
   3  -4  -1  371.16   10.80
   3  -4  -1  360.56   12.50
  -3   4   1  369.66   12.40
   1  -6  -2   68.49    7.90
   1  -6  -2   67.59    4.30
   1  -6  -2   63.79    4.30
  -1  -8  -3  107.29    8.10
  -1  -8  -3  103.19    6.30
  -3 -10  -4    0.50    1.90
  -5 -12  -5  472.55   21.10
   8   2   2   27.30    5.80
  -8  -2  -2   19.90    5.60
   6   0   1   46.00    6.90
   6   0   1   52.89    7.20
  -6   0  -1   29.00    3.60
  -6   0  -1   36.30    5.70
   4  -2   0  536.85   19.20
   4  -2   0  557.64   12.60
   4  -2   0  536.95   17.50
   4  -2   0  584.74   18.00
  -4   2   0  527.15   17.20
   2  -4  -1 2113.69   44.80
   2  -4  -1 2177.48   49.10
   2  -4  -1 2147.19   43.10
   2  -4  -1 2208.38   44.70
   0  -6  -2  617.84   17.20
   0  -6  -2  670.03   20.80
   0  -6  -2  673.13   17.40
   0   6   2  647.74   20.10
   0   6   2  666.23   16.70
  -2  -8  -3 1678.03   39.20
   2   8   3 1675.63   39.30
  -4 -10  -4   87.79    9.40
  -9  -4  -3  194.98   19.00
   7   2   2 2226.28   53.49
  -7  -2  -2 2411.16   58.79
  -7  -2  -2 2340.57   50.29
   5   0   1 3431.66   72.29
   5   0   1 3310.87   70.19
  -5   0  -1 3348.66   63.49
  -5   0  -1 3309.37   71.29
   3  -2   0  194.88    8.50
   3  -2   0  217.68   10.10
   3  -2   0  197.48    5.60
   3  -2   0  216.68    9.00
  -3   2   0  198.28    8.50
   1  -4  -1  208.18    9.70
   1  -4  -1  212.58    7.70
   1  -4  -1  212.28    7.80
  -1   4   1  212.58    7.20
  -1   4   1  201.48    9.30
  -1  -6  -2   54.69    4.30
  -1  -6  -2   62.99    6.30
   1   6   2   65.79    4.70
   1   6   2   52.69    5.50
  -3  -8  -3  633.04   20.50
   3   8   3  630.84   18.50
  -5 -10  -4   12.60    4.40
   8   4   3  181.68   10.50
  -8  -4  -3  194.38   14.10
   6   2   2   18.50    3.80
  -6  -2  -2   10.80    3.40
  -6  -2  -2   23.50    3.80
   4   0   1   16.60    3.30
   4   0   1   27.40    4.40
  -4   0  -1   22.60    4.00
  -4   0  -1   19.00    2.30
   2  -2   0    3.50    1.40
   2  -2   0    1.50    1.20
   2  -2   0    3.20    1.60
   2  -2   0    5.00    0.90
  -2   2   0   17.30    2.60
   0  -4  -1 2756.82   54.09
   0  -4  -1 2785.82   55.79
   0   4   1 2731.43   55.19
  -2  -6  -2 1017.10   25.70
  -2  -6  -2 1045.90   26.90
   2   6   2  995.40   24.50
   2   6   2  995.00   25.90
  -4  -8  -3 1868.91   46.30
   4   8   3 1908.41   40.90
  -6 -10  -4  487.75   21.70
  -9  -6  -4   22.80    6.80
   7   4   3    5.50    2.30
  -7  -4  -3   11.40    4.20
   5   2   2  372.26   13.00
   5   2   2  379.66   15.50
  -5  -2  -2  363.46   12.20
  -5  -2  -2  371.26   15.20
   3   0   1 6462.75  121.69
   3   0   1 6353.16  118.59
  -3   0  -1 6330.77  121.29
  -3   0  -1 6544.85  118.19
   1  -2   0 5072.89   93.89
   1  -2   0 4958.90   96.39
   1  -2   0 5139.79   94.09
  -1   2   0 5088.49   93.99
  -1   2   0 4955.80   97.89
  -1  -4  -1 2795.92   53.99
  -1  -4  -1 2737.63   54.39
   1   4   1 2775.22   54.69
   1   4   1 2628.54   53.39
  -3  -6  -2    1.20    1.50
   3   6   2    0.60    1.00
   3   6   2    5.40    2.20
  -5  -8  -3   -1.20    2.00
   5   8   3    2.80    1.60
  -7 -10  -4   85.49   11.60
  -8  -6  -4 1095.69   37.90
   6   4   3 2776.02   54.99
  -6  -4  -3 2621.54   63.19
   4   2   2 1095.69   24.90
   4   2   2 1156.98   29.10
  -4  -2  -2 1071.09   28.30
   2   0   1  812.92   19.00
   2   0   1  804.12   18.30
  -2   0  -1  787.52   15.40
  -2   0  -1  764.52   18.80
   0  -2   0  575.74   13.80
   0  -2   0  561.04   12.50
   0   2   0  572.84   13.80
  -2  -4  -1   67.49    4.70
  -2  -4  -1   61.09    4.60
   2   4   1   67.89    4.00
   2   4   1   57.79    4.40
  -6  -8  -3  864.61   29.90
   7   6   4   37.90    3.90
  -7  -6  -4   36.00    7.20
  -5  -4  -3  305.57   14.10
  -5  -4  -3  327.47   12.70
   3   2   2  589.04   16.90
   3   2   2  574.94   13.60
  -3  -2  -2  582.34   14.80
  -3  -2  -2  602.84   17.10
   1   0   1  607.94   13.20
   1   0   1  602.44   13.80
   1   0   1  586.84   13.90
  -1   0  -1  631.94   14.00
  -1   0  -1  576.84   13.00
  -1  -2   0 4899.71   88.99
  -1  -2   0 4734.23   89.49
   1   2   0 4751.42   92.69
   1   2   0 4811.52   91.29
  -3  -4  -1 6180.88  120.39
  -3  -4  -1 6359.76  117.19
  -5  -6  -2 2385.26   56.59
  -7  -8  -3    6.10    3.90
  -8  -8  -5  280.97   17.70
   6   6   4  319.87    8.80
  -6  -6  -4  321.87   16.20
   4   4   3 2852.31   61.89
  -4  -4  -3 2908.11   62.09
  -4  -4  -3 2935.91   59.29
   2   2   2 5764.82  103.19
  -2  -2  -2 5682.63  107.09
   0   0   1 3305.77   67.19
   0   0   1 3315.17   61.49
   0   0  -1 3331.97   62.89
  -2  -2   0  662.53   15.90
  -2  -2   0  628.64   16.50
   2   2   0  629.44   16.60
   2   2   0  656.73   15.80
  -4  -4  -1   87.09    6.20
  -4  -4  -1   78.79    6.20
   4   4   1   79.69    6.40
  -6  -6  -2   15.90    4.40
  -8  -8  -3   39.70    8.20
  -7  -8  -5  486.55   22.40
  -5  -6  -4   23.90    4.70
   3   4   3  749.33   20.40
  -3  -4  -3  742.53   20.40
   1   2   2   14.90    2.20
  -1  -2  -2   11.80    2.00
  -1   0   1  353.26    8.70
  -1   0   1  347.27    8.80
   1   0  -1  356.66    8.70
   1   0  -1  345.17    8.80
  -3  -2   0  255.77    9.90
   3   2   0  237.38    8.80
   3   2   0  267.47   10.10
  -5  -4  -1  865.01   23.90
  -5  -4  -1  771.72   25.00
   5   4   1  803.22   25.50
  -7  -6  -2 2979.00   72.19
  -9  -8  -3  655.53   30.10
  -6  -8  -5  499.95   21.20
  -4  -6  -4  460.85   16.70
   2   4   3 2748.02   54.39
  -2  -4  -3 2677.83   54.09
   0   2   2 3354.86   60.49
   0   2   2 3212.68   59.99
   0  -2  -2 3165.88   60.59
  -2   0   1 2594.04   49.30
  -2   0   1 2582.64   50.59
   2   0  -1 2572.04   50.59
   2   0  -1 2646.14   49.40
  -4  -2   0 2839.72   59.49
  -4  -2   0 2798.82   56.09
   4   2   0 2754.42   55.99
   4   2   0 2755.62   59.09
  -6  -4  -1    5.00    2.90
  -8  -6  -2  148.09   15.10
  -7 -10  -6  621.44   26.50
  -5  -8  -5 2509.25   58.99
   3   6   4  282.07   11.30
  -3  -6  -4  253.37   10.70
   1   4   3  141.39    5.30
  -1  -4  -3  148.89    5.40
  -1  -4  -3  147.49    5.40
  -1   2   2  189.98    4.20
   1  -2  -2  190.18    7.10
   1  -2  -2  191.58    4.70
  -3   0   1   65.09    4.50
  -3   0   1   75.09    4.40
   3   0  -1   60.49    4.40
   3   0  -1   66.39    4.30
  -5  -2   0  814.32   22.20
  -5  -2   0  796.92   24.40
   5   2   0  864.91   25.10
   5   2   0  801.22   22.20
  -7  -4  -1    4.20    2.70
  -9  -6  -2  444.66   24.00
  -6 -10  -6  147.49   13.90
  -4  -8  -5    3.20    2.10
   2   6   4   16.20    2.80
  -2  -6  -4    8.30    2.00
  -2  -6  -4   11.00    2.00
   0  -4  -3  807.02   19.60
   0  -4  -3  790.02   15.60
  -2   2   2 3032.80   58.99
  -2   2   2 3067.39   57.69
   2  -2  -2 3153.68   58.19
   2  -2  -2 3055.39   59.29
  -4   0   1 1406.66   32.90
  -4   0   1 1400.36   31.00
   4   0  -1 1332.27   30.70
   4   0  -1 1414.86   33.20
  -6  -2   0 1875.41   48.10
  -6  -2   0 1953.60   44.50
   6   2   0 2031.60   49.20
   6   2   0 2010.20   44.90
  -8  -4  -1  105.39   12.40
  -5 -10  -6   37.80    6.70
  -3  -8  -5 2266.47   50.09
   1   6   4 3896.91   73.49
  -1  -6  -4 3881.41   73.79
  -1  -6  -4 3932.71   75.59
   1  -4  -3 1778.72   39.20
   1  -4  -3 1831.32   39.90
  -3   2   2  191.88    7.20
   3  -2  -2  194.98    8.00
   3  -2  -2  195.08    7.60
  -5   0   1  293.07   11.10
  -5   0   1  265.47   12.00
   5   0  -1  284.87   11.00
   5   0  -1  306.27   12.90
  -7  -2   0  211.78   13.10
   7   2   0  197.18   10.60
  -9  -4  -1   28.10    7.40
  -4 -10  -6  372.46   16.00
  -2  -8  -5    5.40    1.80
  -2  -8  -5    9.10    2.50
   0  -6  -4   29.90    4.30
   0  -6  -4   37.10    1.70
   2  -4  -3  329.67    7.70
   2  -4  -3  315.87   13.10
   2  -4  -3  301.37    7.60
   2  -4  -3  331.17   12.10
  -4   2   2 1032.60   24.90
  -4   2   2 1000.40   24.80
   4  -2  -2 1040.10   25.70
   4  -2  -2  989.90   24.70
  -6   0   1  440.76   15.20
  -6   0   1  410.66   16.60
   6   0  -1  402.26   17.00
   6   0  -1  424.46   15.00
  -8  -2   0 1529.85   44.50
   8   2   0 1509.55   39.40
  -3 -10  -6   10.70    3.10
   1   8   5   81.29    2.80
  -1  -8  -5   77.49    4.20
  -1  -8  -5   61.89    6.70
   1  -6  -4 1869.91   43.70
   1  -6  -4 1872.11   44.10
  -3   4   3 2415.26   44.40
   3  -4  -3 2272.07   49.50
   3  -4  -3 2263.77   53.39
   3  -4  -3 2323.87   45.70
   3  -4  -3 2265.77   45.60
  -5   2   2 2456.05   51.39
  -5   2   2 2402.56   52.59
   5  -2  -2 2358.06   50.89
   5  -2  -2 2510.95   54.09
  -7   0   1   14.60    4.20
   7   0  -1   28.30    4.80
   9   2   0   91.09   11.90
  -4 -12  -7  288.37   14.20
  -2 -10  -6  931.51   26.90
  -2 -10  -6  878.81   22.90
   0  -8  -5  386.96   16.20
   2  -6  -4  377.46   16.50
   2  -6  -4  406.86   15.70
  -4   4   3  234.18    8.30
   4  -4  -3  225.78   10.30
   4  -4  -3  245.68   13.60
   4  -4  -3  218.58    8.80
   4  -4  -3  212.88    8.80
  -6   2   2    1.00    1.70
   6  -2  -2    1.70    1.60
   6  -2  -2    4.50    3.30
   8   0  -1    1.70    3.20
  -1 -10  -6  197.18   12.10
   1  -8  -5   11.90    3.70
   1  -8  -5   24.50    5.20
   3  -6  -4  135.49   10.60
   3  -6  -4  124.59    8.60
   5  -4  -3  147.29   11.40
   5  -4  -3  131.79    7.90
   5  -4  -3  125.99    7.40
   7  -2  -2 1156.98   38.30
   0 -10  -6  529.55   22.10
   2  -8  -5  323.37   15.60
   2  -8  -5  308.67   16.80
   4  -6  -4  580.74   24.60
   4  -6  -4  599.54   13.80
   4  -6  -4  583.84   20.30
   6  -4  -3   68.09   10.40
   6  -4  -3   70.29    7.40
   8  -2  -2    4.90    3.40
   8  -2  -2   -0.30    2.80
   1 -10  -6    6.10    3.80
   1 -10  -6    9.60    4.20
   3  -8  -5    7.70    3.50
   3  -8  -5    1.30    2.50
   5  -6  -4   61.99   10.00
   7  -4  -3   14.70    4.10
   6  -5  -1  151.38   10.70
   6  -5  -1  135.69   15.90
   4  -7  -2  286.27   18.30
   4  -7  -2  298.07   12.40
   2  -9  -3   80.39   11.40
   7  -3   0   81.09   12.00
   7  -3   0   63.99    9.20
   5  -5  -1   23.90    4.90
   5  -5  -1   15.20    5.20
   3  -7  -2   70.99    5.70
   3  -7  -2   72.89   10.70
   1  -9  -3   80.99   10.60
   1  -9  -3  101.89    5.80
  -1 -11  -4  201.58   14.10
  -1 -11  -4  169.18    9.10
   8  -1   1   22.40    6.40
   8  -1   1   31.90    7.30
   6  -3   0  488.75   19.90
   6  -3   0  502.55   23.00
   4  -5  -1  444.16   20.70
   4  -5  -1  456.75   16.60
   2  -7  -2  250.17   11.10
   2  -7  -2  238.78   14.60
   2  -7  -2  255.97   10.20
   0  -9  -3  389.86   13.40
   0  -9  -3  441.36   19.80
  -2 -11  -4   44.40    5.90
   9   1   2  387.36   20.60
   7  -1   1    1.10    2.70
   7  -1   1    1.10    2.70
   5  -3   0    0.00    2.40
   5  -3   0   -0.30    1.60
  -5   3   0    2.50    2.40
   3  -5  -1   23.20    4.10
   3  -5  -1   29.20    3.30
   3  -5  -1   31.60    4.30
   3  -5  -1   31.40    6.00
   1  -7  -2  124.29    9.60
   1  -7  -2  149.99    7.30
   1  -7  -2  129.89    6.90
  -1  -9  -3   29.40    5.50
  -1  -9  -3   42.70    5.30
  -3 -11  -4   13.40    4.10
   8   1   2   62.79    9.50
   8   1   2   52.29    8.30
  -8  -1  -2   57.49    9.40
   6  -1   1   24.50    5.50
   6  -1   1   19.90    4.90
   6  -1   1   11.60    3.70
  -6   1  -1   13.90    4.10
   4  -3   0   83.59    9.20
   4  -3   0   85.09    6.40
   4  -3   0   87.69    6.60
  -4   3   0   86.69    6.40
   2  -5  -1 1958.80   43.20
   2  -5  -1 1988.40   48.10
   2  -5  -1 1944.21   40.90
   2  -5  -1 2038.10   42.90
   0  -7  -2  170.78    8.00
   0  -7  -2  169.38   10.40
   0  -7  -2  158.38    7.90
   0   7   2  165.58    7.50
  -2  -9  -3  268.27   12.20
  -4 -11  -4   26.10    5.70
   9   3   3   25.30    5.80
  -9  -3  -3   58.69   10.30
   7   1   2 1300.67   36.10
  -7  -1  -2 1230.88   37.60
   5  -1   1 1029.60   30.00
   5  -1   1 1088.69   30.30
   5  -1   1 1040.30   29.70
  -5   1  -1 1025.90   29.20
  -5   1  -1 1068.39   21.40
   3  -3   0   20.40    3.50
   3  -3   0   19.40    1.70
   3  -3   0   14.20    3.00
   3  -3   0   16.00    3.70
  -3   3   0    9.90    2.50
   1  -5  -1    1.20    1.00
   1  -5  -1   -0.30    0.70
   1  -5  -1    0.30    1.40
  -1   5   1    0.00    1.40
  -1   5   1    1.60    1.20
  -1  -7  -2  217.78    9.60
  -1  -7  -2  193.28   11.10
  -1  -7  -2  201.58   10.70
   1   7   2  208.78   10.60
   1   7   2  201.58   11.10
  -3  -9  -3    3.70    2.30
  -5 -11  -4    4.70    3.20
   8   3   3   24.60    5.20
  -8  -3  -3   15.50    5.00
   6   1   2  106.39    8.00
  -6  -1  -2  112.89    8.90
  -6  -1  -2  121.59    6.20
   4  -1   1  141.09    8.20
   4  -1   1  149.09    8.60
   4  -1   1  133.09    8.00
  -4   1  -1  139.99    8.00
  -4   1  -1  133.49    4.20
   2  -3   0 1471.65   28.40
   2  -3   0 1459.45   35.00
   2  -3   0 1462.15   32.80
   2  -3   0 1466.05   33.00
  -2   3   0 1533.25   33.10
  -2   3   0 1388.76   34.30
   0  -5  -1  436.96   13.50
   0  -5  -1  450.75   15.60
   0   5   1  468.95   15.40
   0   5   1  445.06   13.60
  -2  -7  -2  526.75   17.10
   2   7   2  503.85   16.70
  -4  -9  -3  629.64   22.50
  -6 -11  -4   27.20    6.50
  -9  -5  -4   57.29   10.20
   7   3   3  229.88   11.40
  -7  -3  -3  232.78   14.20
  -7  -3  -3  247.88   11.60
   5   1   2   56.89    7.00
   5   1   2   36.40    4.90
  -5  -1  -2   45.80    6.20
   3  -1   1 3275.17   66.19
   3  -1   1 3249.18   65.59
   3  -1   1 3363.86   66.49
  -3   1  -1 3180.28   65.79
   1  -3   0 1463.45   33.00
   1  -3   0 1447.86   31.50
   1  -3   0 1423.96   31.70
  -1   3   0 1430.66   31.00
  -1   3   0 1451.85   32.80
  -1  -5  -1  888.31   23.60
  -1  -5  -1  970.00   23.30
  -1  -5  -1  912.91   23.20
   1   5   1  921.41   23.50
   1   5   1  945.91   23.50
  -3  -7  -2  193.58   10.30
   3   7   2  199.88    9.10
  -5  -9  -3  143.29   10.60
  -8  -5  -4  246.08   16.10
   6   3   3  801.52   22.20
  -6  -3  -3  831.62   22.70
  -6  -3  -3  828.52   27.30
   4   1   2    9.50    2.80
   4   1   2   13.40    2.70
  -4  -1  -2   12.60    2.00
  -4  -1  -2   11.00    2.90
   2  -1   1  181.68    7.50
   2  -1   1  195.38    7.80
   2  -1   1  189.18    7.80
  -2   1  -1  183.78    7.60
  -2   1  -1  164.78    7.40
   0  -3   0 2885.61   57.39
   0  -3   0 2928.11   54.59
   0  -3   0 2927.61   57.49
  -2  -5  -1 1235.28   30.60
  -2  -5  -1 1287.07   30.50
   2   5   1 1322.37   31.30
   2   5   1 1295.37   29.30
  -4  -7  -2   11.00    3.40
   4   7   2   12.00    2.70
  -6  -9  -3  174.98   12.80
  -9  -7  -5    5.90    4.20
   7   5   4   34.50    4.20
  -7  -5  -4   34.70    6.80
   5   3   3   19.30    4.30
   5   3   3   28.80    3.50
  -5  -3  -3   28.90    4.20
  -5  -3  -3   30.30    5.20
   3   1   2 1783.22   39.60
   3   1   2 1758.22   36.40
  -3  -1  -2 1860.21   35.10
  -3  -1  -2 1780.72   39.60
   1  -1   1   26.60    3.10
   1  -1   1   31.10    3.30
   1  -1   1   27.80    3.10
   1  -1   1   27.90    1.10
  -1   1  -1   28.90    3.20
  -1   1  -1   28.00    1.10
  -1   1  -1   25.10    2.90
  -1   1  -1   29.40    3.20
  -1  -3   0 1039.00   22.60
  -1  -3   0  994.20   23.60
   1   3   0 1013.40   23.00
  -3  -5  -1 2022.10   45.50
  -3  -5  -1 1977.50   44.00
   3   5   1 2005.90   45.80
  -5  -7  -2  481.35   19.60
   5   7   2  512.15   15.70
  -7  -9  -3   54.19    9.20
  -8  -7  -5   13.30    5.20
   6   5   4    6.50    1.60
  -6  -5  -4   10.60    3.60
   4   3   3 1238.48   31.30
   4   3   3 1213.18   25.10
  -4  -3  -3 1168.68   30.70
  -4  -3  -3 1188.48   27.80
   2   1   2  328.47    8.70
   2   1   2  325.27   10.30
  -2  -1  -2  331.57    8.70
  -2  -1  -2  299.97   10.10
  -2  -3   0   12.00    2.70
  -2  -3   0   17.80    2.90
   2   3   0    8.50    2.20
  -4  -5  -1  699.33   21.20
  -4  -5  -1  656.93   21.50
   4   5   1  671.43   22.00
  -6  -7  -2  682.33   25.70
  -8  -9  -3  236.78   16.80
  -7  -7  -5   13.00    4.60
   5   5   4  678.83   14.30
  -5  -5  -4  666.93   22.80
   3   3   3   62.49    2.50
   3   3   3   64.29    4.90
  -3  -3  -3   60.99    4.70
   1   1   2   50.29    3.10
  -1  -1  -2   51.39    2.30
  -1  -1  -2   47.10    3.00
  -1  -1   1 1100.09   24.00
  -1  -1   1 1060.69   22.60
   1   1  -1 1096.29   24.00
   1   1  -1 1159.38   23.00
  -3  -3   0  159.08    7.40
  -3  -3   0  143.39    7.80
   3   3   0  147.49    7.80
   3   3   0  145.49    7.30
  -5  -5  -1    2.00    1.90
  -7  -7  -2  800.82   29.70
  -8  -9  -6  374.06   21.30
  -6  -7  -5   41.00    6.90
  -4  -5  -4  215.18   10.70
  -2  -3  -3  483.15   13.80
   0   1   2   45.60    2.60
   0   1   2   49.99    2.50
   0  -1  -2   45.30    2.50
   0  -1  -2   41.60    2.70
   0  -1  -2   42.80    2.50
  -2  -1   1    8.30    2.00
  -2  -1   1   28.90    3.00
   2   1  -1   10.00    2.00
   2   1  -1   13.20    2.40
  -4  -3   0   97.99    6.80
  -4  -3   0   89.89    6.10
   4   3   0   83.19    5.90
   4   3   0   86.79    6.60
  -6  -5  -1   39.70    6.70
  -8  -7  -2   18.90    5.80
  -7  -9  -6   88.69   11.20
  -5  -7  -5 1066.29   31.50
   3   5   4  118.49    6.80
  -3  -5  -4   98.69    6.30
   1   3   3  799.72   17.80
  -1  -3  -3  798.52   18.00
  -1   1   2  447.36   11.70
  -1   1   2  433.06   10.40
   1  -1  -2  437.26   11.70
   1  -1  -2  436.46   10.50
  -3  -1   1  625.04   17.40
   3   1  -1  607.44   17.30
   3   1  -1  615.84   16.40
  -5  -3   0   61.09    7.20
  -5  -3   0   73.39    7.30
   5   3   0   71.19    7.00
   5   3   0   62.99    7.40
  -7  -5  -1  414.66   19.70
  -9  -7  -2   22.90    6.80
  -6  -9  -6  476.15   21.00
  -4  -7  -5  808.12   24.50
   2   5   4 1620.94   34.60
  -2  -5  -4 1567.24   30.30
  -2  -5  -4 1533.35   34.30
   0   3   3  407.36    9.00
   0   3   3  412.76    8.70
   0  -3  -3  408.06    9.20
  -2   1   2 1385.96   29.50
  -2   1   2 1389.06   28.60
   2  -1  -2 1371.36   29.60
   2  -1  -2 1382.36   28.80
  -4  -1   1   13.60    3.10
  -4  -1   1    3.90    1.70
   4   1  -1    6.40    2.20
   4   1  -1    6.50    1.90
  -6  -3   0  149.88   10.20
   6   3   0  170.88    9.70
  -8  -5  -1   46.40    8.50
  -5  -9  -6  210.28   12.50
  -3  -7  -5  478.75   16.00
   1   5   4 2063.59   40.10
  -1  -5  -4 2018.00   40.60
  -1  -5  -4 1993.40   40.20
   1  -3  -3  465.45   14.20
  -3   1   2  121.89    6.50
  -3   1   2  159.68    6.70
   3  -1  -2  185.98    7.40
   3  -1  -2  170.28    7.40
  -5  -1   1 1718.23   41.60
  -5  -1   1 1758.92   39.00
   5   1  -1 1694.43   39.10
   5   1  -1 1749.92   42.00
  -7  -3   0  190.28   12.50
   7   3   0  182.58   10.60
  -9  -5  -1  237.08   16.80
  -6 -11  -7  137.89   13.60
  -4  -9  -6    1.40    1.90
   2   7   5  442.36   13.90
  -2  -7  -5  478.85   13.80
  -2  -7  -5  474.95   14.30
   0  -5  -4  717.33   19.10
   0  -5  -4  690.13   13.90
  -2   3   3 3803.72   68.49
   2  -3  -3 3848.01   69.69
   2  -3  -3 3616.84   73.09
  -4   1   2  121.09    6.70
  -4   1   2  122.99    6.80
   4  -1  -2  123.49    6.90
   4  -1  -2  126.49    6.90
  -6  -1   1    3.70    2.30
  -6  -1   1    0.80    1.70
   6   1  -1    4.10    2.60
   6   1  -1    1.10    1.60
  -8  -3   0  280.27   16.60
   8   3   0  288.47   14.60
  -5 -11  -7  132.19   10.40
  -3  -9  -6  677.73   20.70
   1   7   5 1529.25   30.00
   1   7   5 1517.25   30.20
  -1  -7  -5 1498.75   31.50
  -1  -7  -5 1543.55   35.30
   1  -5  -4  464.65   16.00
   1  -5  -4  479.25   16.40
  -3   3   3  112.09    4.70
   3  -3  -3  118.99    5.40
   3  -3  -3  104.99    6.50
  -5   1   2  370.36   14.10
  -5   1   2  416.76   14.20
   5  -1  -2  378.46   14.50
   5  -1  -2  343.87   13.30
  -7  -1   1  417.76   18.80
   7   1  -1  444.96   16.80
  -9  -3   0  294.07   18.40
  -4 -11  -7    9.90    3.60
  -2  -9  -6  263.57   11.50
  -2  -9  -6  270.57   10.30
   0  -7  -5   77.29    7.60
   2  -5  -4   12.70    3.60
   2  -5  -4   13.90    3.50
  -4   3   3 1549.05   33.90
   4  -3  -3 1610.34   35.30
   4  -3  -3 1546.75   36.40
  -6   1   2  835.92   25.40
  -6   1   2  837.12   24.00
   6  -1  -2  832.82   26.00
   6  -1  -2  823.32   23.80
  -8  -1   1  554.74   23.70
   8   1  -1  536.15   20.20
  -3 -11  -7  218.48   10.60
  -1  -9  -6  149.09    9.30
  -1  -9  -6  130.19    4.80
   1  -7  -5 1597.44   40.80
   1  -7  -5 1614.34   41.30
   3  -5  -4  491.25   17.40
   3  -5  -4  454.35   10.50
   3  -5  -4  483.95   19.40
   3  -5  -4  484.45   10.80
  -5   3   3   79.39    5.60
   5  -3  -3   86.09    6.40
   5  -3  -3   84.69    9.90
   5  -3  -3   75.79    7.50
   7  -1  -2  107.49    8.00
   9   1  -1  104.79   13.00
   0  -9  -6   78.49    9.20
   2  -7  -5   79.99    9.10
   2  -7  -5   64.49    8.50
   4  -5  -4    2.70    2.50
   4  -5  -4    0.90    1.10
   4  -5  -4    2.20    1.30
   4  -5  -4   21.80    4.70
   6  -3  -3  104.29    7.60
   6  -3  -3  113.39   12.80
   8  -1  -2  247.68   16.70
   1  -9  -6  178.28   12.30
   1  -9  -6  163.18   12.00
   3  -7  -5  371.56   18.60
   3  -7  -5  369.26   16.70
   5  -5  -4  468.35   17.80
   5  -5  -4  495.45   15.00
   5  -5  -4  490.75   22.80
   7  -3  -3  270.37   13.80
   7  -3  -3  257.37   17.10
   0 -11  -7  262.57   17.00
   0 -11  -7  326.77   19.50
   2  -9  -6   23.70    6.00
   2  -9  -6   24.90    6.10
   4  -7  -5    3.90    3.30
   4  -7  -5   10.10    3.70
   6  -5  -4    5.00    4.40
   6  -5  -4   16.90    3.50
   3  -9  -6  342.77   20.30
   5  -6  -1  604.94   22.10
   5  -6  -1  612.04   28.00
   3  -8  -2  471.25   24.00
   3  -8  -2  473.65   16.00
   1 -10  -3   45.50    8.70
   6  -4   0   -0.20    3.20
   6  -4   0   -0.40    2.40
   4  -6  -1   89.49    9.00
   4  -6  -1   93.89   11.90
   2  -8  -2  144.99   14.50
   2  -8  -2  160.08    8.40
   0 -10  -3    9.00    4.60
   0 -10  -3    8.30    2.60
   7  -2   1  261.57   16.70
   7  -2   1  228.88   14.50
   5  -4   0  391.86   17.00
   5  -4   0  399.36   20.00
   3  -6  -1  292.97    9.70
   3  -6  -1  288.27   16.30
   3  -6  -1  273.97   12.30
   1  -8  -2  805.32   22.60
   1  -8  -2  860.01   29.80
  -1 -10  -3  155.48   14.50
  -1 -10  -3  156.38    9.10
   8   0   2  774.52   30.40
   8   0   2  805.22   30.10
   6  -2   1  949.71   31.70
   6  -2   1  919.71   29.80
  -6   2  -1  890.51   28.90
   4  -4   0  105.99    7.80
   4  -4   0  120.29   12.20
   4  -4   0  112.89    7.90
  -4   4   0   97.89    7.40
   2  -6  -1    3.80    1.90
   2  -6  -1    0.80    1.20
   2  -6  -1    3.00    1.60
   2  -6  -1    5.70    2.20
   2  -6  -1   -0.30    2.00
   0  -8  -2  278.67   14.90
   0  -8  -2  281.97   11.60
  -2 -10  -3   80.69    8.30
   9   2   3   78.59   10.60
   7   0   2   25.00    5.50
   7   0   2   39.10    7.20
  -7   0  -2   35.50    6.80
   5  -2   1   55.49    7.70
   5  -2   1   43.90    6.40
   5  -2   1   45.20    6.70
  -5   2  -1   55.59    6.90
   3  -4   0  531.35   20.60
   3  -4   0  547.05   11.40
   3  -4   0  541.35   11.50
   3  -4   0  548.25   17.70
   3  -4   0  553.94   18.20
  -3   4   0  569.34   17.90
   1  -6  -1  159.98    7.50
   1  -6  -1  174.28    8.50
   1  -6  -1  143.49    7.90
   1  -6  -1  155.78   10.40
  -1   6   1  176.48    7.80
  -1  -8  -2 1578.14   40.40
  -1  -8  -2 1458.55   36.50
  -3 -10  -3  456.75   18.50
   8   2   3   12.50    4.60
   8   2   3   20.60    5.10
  -8  -2  -3   13.50    4.90
   6   0   2  920.31   28.60
   6   0   2  923.71   29.60
   6   0   2  913.71   30.00
  -6   0  -2  930.51   20.40
  -6   0  -2  934.11   29.40
   4  -2   1 2297.27   53.79
   4  -2   1 2396.66   53.39
   4  -2   1 2351.16   53.09
  -4   2  -1 2380.56   52.79
   2  -4   0 4453.55   81.59
   2  -4   0 4497.95   80.99
   2  -4   0 4593.94   88.39
   2  -4   0 4348.86   88.59
   2  -4   0 4474.75   90.69
   0  -6  -1  176.58    8.60
   0  -6  -1  173.98    8.40
   0  -6  -1  176.38    8.40
   0  -6  -1  167.28    9.90
   0   6   1  162.88    8.10
  -2  -8  -2    2.10    2.00
  -4 -10  -3   33.20    6.10
  -9  -4  -4  895.61   35.40
   7   2   3 1203.08   33.40
  -7  -2  -3 1230.58   37.50
   5   0   2  888.51   27.00
   5   0   2  941.01   27.70
   5   0   2  898.41   26.10
  -5   0  -2  899.41   19.20
  -5   0  -2  864.31   26.60
   3  -2   1  465.15   15.40
   3  -2   1  456.35   15.30
   3  -2   1  433.76   15.90
  -3   2  -1  454.35   15.20
   1  -4   0   10.30    2.70
   1  -4   0   24.60    3.80
   1  -4   0   13.70    2.20
   1  -4   0   12.40    3.40
  -1   4   0   17.00    3.00
  -1  -6  -1    3.80    1.90
  -1  -6  -1    6.70    2.30
  -1  -6  -1    0.40    1.40
   1   6   1    0.70    1.40
   1   6   1    0.20    1.30
  -3  -8  -2  417.06   16.80
   3   8   2  432.26   15.80
  -5 -10  -3  879.31   30.30
   8   4   4  105.99    7.80
  -8  -4  -4   97.19   12.40
   6   2   3   34.50    5.00
  -6  -2  -3   57.29    5.60
  -6  -2  -3   43.20    6.90
   4   0   2  444.36   15.20
   4   0   2  466.55   16.30
   4   0   2  458.95   16.30
  -4   0  -2  414.26   15.60
  -4   0  -2  452.85   10.50
   2  -2   1  139.39    7.20
   2  -2   1  161.68    8.10
   2  -2   1  160.58    7.60
  -2   2  -1  143.79    7.60
  -2   2  -1  153.78    7.50
   0  -4   0 5096.39   98.09
   0  -4   0 5277.87   94.09
   0  -4   0 5062.69   98.19
   0   4   0 5002.00   98.09
   0   4   0 5067.59   97.49
  -2  -6  -1 3794.22   74.59
  -2  -6  -1 3607.84   75.49
   2   6   1 3697.73   73.59
   2   6   1 3623.34   75.99
  -4  -8  -2  548.15   20.80
   4   8   2  581.94   18.50
  -6 -10  -3   37.80    7.70
   7   4   4  890.21   24.00
  -7  -4  -4  881.81   30.90
   5   2   3  743.33   20.40
   5   2   3  775.62   24.50
  -5  -2  -3  742.93   19.40
  -5  -2  -3  766.32   24.30
   3   0   2 5937.51  114.19
   3   0   2 5773.92  110.29
   3   0   2 5901.91  113.99
  -3   0  -2 6138.69  105.29
  -3   0  -2 5832.12  113.59
   1  -2   1  567.04   16.20
   1  -2   1  623.54   16.40
   1  -2   1  581.24   12.00
   1  -2   1  569.64   15.90
  -1   2  -1  586.54   16.10
  -1  -4   0  397.36   12.00
  -1  -4   0  367.96   12.60
   1   4   0  371.86   12.50
   1   4   0  411.36   13.20
  -3  -6  -1    4.50    2.10
   3   6   1    3.80    1.60
  -5  -8  -2   45.60    7.10
   5   8   2   49.99    5.90
  -7 -10  -3  271.07   17.30
  -8  -6  -5   84.79   11.90
   6   4   4  460.15   13.90
  -6  -4  -4  487.15   19.90
  -6  -4  -4  448.26   18.10
   4   2   3    5.70    2.50
   4   2   3    9.70    2.30
  -4  -2  -3    8.70    3.00
   2   0   2  858.91   21.50
   2   0   2  880.11   20.20
   2   0   2  853.01   21.30
  -2   0  -2  833.02   21.30
  -2   0  -2  827.22   19.80
   0  -2   1    2.50    0.90
   0  -2   1    3.10    1.40
   0  -2   1    1.70    1.20
   0   2  -1    0.00    0.70
   0   2  -1    6.10    1.20
   0   2  -1    0.70    0.90
  -2  -4   0   42.30    4.80
  -2  -4   0   48.70    5.20
   2   4   0   42.80    4.40
   2   4   0   39.20    5.00
  -4  -6  -1 2644.24   60.69
   4   6   1 2706.13   55.69
  -6  -8  -2 1219.08   38.00
  -7  -6  -5   89.99   11.10
   5   4   4 1442.86   29.90
  -5  -4  -4 1450.55   38.50
  -5  -4  -4 1496.85   35.10
   3   2   3  444.46   14.60
   3   2   3  439.96   11.20
  -3  -2  -3  441.76   14.50
   1   0   2 6254.67  120.29
   1   0   2 6572.34  124.29
   1   0   2 6478.65  121.59
  -1   0  -2 6662.33  122.19
  -1   0  -2 6554.64  117.99
  -1   0  -2 6446.35  120.59
  -1   0  -2 6413.06  120.39
  -1  -2   1 3851.01   70.29
  -1  -2   1 3733.73   73.49
   1   2  -1 3768.22   70.19
  -3  -4   0 1117.19   28.70
  -3  -4   0 1145.29   27.60
   3   4   0 1080.09   28.60
   3   4   0 1040.40   26.60
  -5  -6  -1  612.54   22.40
  -7  -8  -2    1.60    2.80
  -8  -8  -6 1558.44   48.40
  -6  -6  -5  771.02   27.10
   4   4   4 1636.34   30.60
   4   4   4 1702.83   40.10
  -4  -4  -4 1594.74   39.60
   2   2   3  129.89    6.20
  -2  -2  -3  134.59    4.20
  -2  -2  -3  133.99    6.40
   0   0   2   62.99    3.30
   0   0   2   61.89    3.80
   0   0  -2   57.99    3.10
   0   0  -2   61.49    3.70
  -2  -2   1 1108.19   26.90
   2   2  -1 1130.99   25.60
   2   2  -1 1189.88   27.30
  -4  -4   0    0.50    1.40
  -4  -4   0    1.40    1.40
   4   4   0    0.60    1.40
   4   4   0    0.20    1.20
  -6  -6  -1  300.97   15.90
  -8  -8  -2  199.88   15.30
  -7  -8  -6    8.80    4.10
  -5  -6  -5  159.48   10.20
   3   4   4  601.94   18.20
  -3  -4  -4  635.74   18.60
   1   2   3 3126.19   59.69
   1   2   3 3121.09   59.49
  -1  -2  -3 3037.10   59.49
  -1   0   2 2212.88   44.50
   1   0  -2 2245.58   44.60
   1   0  -2 2272.17   43.50
  -3  -2   1 5089.49  100.79
  -3  -2   1 5217.58   97.49
   3   2  -1 5197.68   97.59
   3   2  -1 5244.48  101.09
  -5  -4   0  640.74   22.10
   5   4   0  636.64   20.50
  -7  -6  -1  796.52   29.80
  -9  -8  -2   38.60    9.20
  -6  -8  -6  953.80   31.70
  -4  -6  -5 2182.88   50.09
   2   4   4 4307.27   82.39
  -2  -4  -4 4215.88   82.29
   0   2   3 2350.16   44.30
   0   2   3 2248.68   43.50
   0  -2  -3 2274.07   45.40
   0  -2  -3 2270.57   43.90
   0  -2  -3 2274.27   43.80
  -2   0   2  350.06   10.70
  -2   0   2  334.97   10.50
   2   0  -2  326.97   10.50
   2   0  -2  339.87   10.60
  -4  -2   1   73.39    5.40
  -4  -2   1   58.29    6.30
   4   2  -1   68.79    7.20
   4   2  -1   53.99    5.50
  -6  -4   0   39.20    6.70
   6   4   0   34.40    5.70
  -8  -6  -1  259.77   16.90
  -7 -10  -7  680.13   28.00
  -5  -8  -6  474.25   19.20
  -3  -6  -5   12.70    2.90
   1   4   4  503.35   12.90
  -1  -4  -4  508.35   13.10
  -1   2   3  578.04   12.60
  -1   2   3  567.44   12.60
   1  -2  -3  556.64   15.50
   1  -2  -3  546.25   12.90
  -3   0   2  365.16   11.80
  -3   0   2  333.87   11.60
   3   0  -2  367.06   12.00
   3   0  -2  334.37   11.50
  -5  -2   1 3387.46   68.59
  -5  -2   1 3289.17   71.99
   5   2  -1 3339.27   68.79
   5   2  -1 3366.46   72.19
  -7  -4   0  971.00   32.30
   7   4   0  955.90   29.20
  -9  -6  -1  402.16   22.80
  -6 -10  -7    0.80    2.70
  -4  -8  -6   12.50    3.40
   2   6   5  745.93   19.20
  -2  -6  -5  704.83   19.20
  -2  -6  -5  732.73   16.70
   0   4   4 1994.70   36.40
   0   4   4 1912.41   36.00
   0  -4  -4 1931.21   37.10
  -2   2   3 9999.00  183.28
  -2   2   3 9803.72  182.98
   2  -2  -3 9877.61  182.98
   2  -2  -3 9647.73  177.98
  -4   0   2  801.92   22.30
  -4   0   2  817.82   21.70
   4   0  -2  826.82   22.70
   4   0  -2  816.52   21.90
  -6  -2   1   38.00    6.30
   6   2  -1   32.50    5.20
   6   2  -1   35.70    6.20
  -8  -4   0   17.20    5.50
   8   4   0   19.00    5.00
  -5 -10  -7  803.92   27.40
  -3  -8  -6 1279.57   32.20
   1   6   5 2320.27   45.20
   1   6   5 2313.57   45.30
  -1  -6  -5 2379.96   47.50
  -1  -6  -5 2303.87   46.00
   1  -4  -4  224.68   10.20
  -3   2   3    7.40    1.80
  -3   2   3    4.20    1.80
   3  -2  -3    9.00    2.50
   3  -2  -3   11.30    2.30
  -5   0   2  117.69    7.50
  -5   0   2  125.59    8.00
   5   0  -2  137.39    8.00
   5   0  -2  124.99    8.10
  -7  -2   1  132.49   10.50
   7   2  -1  116.09    8.60
  -9  -4   0  636.34   28.30
  -4 -10  -7   19.10    4.30
   2   8   6    1.10    1.00
  -2  -8  -6    0.40    1.00
  -2  -8  -6   14.90    2.90
   0  -6  -5  286.07   11.50
   2  -4  -4    6.40    0.90
   2  -4  -4    9.70    2.70
  -4   2   3 1831.52   42.00
  -4   2   3 1854.81   40.40
   4  -2  -3 1899.91   42.20
   4  -2  -3 1908.81   41.50
  -6   0   2 2990.30   65.99
   6   0  -2 2881.91   62.89
   6   0  -2 3030.00   66.89
  -8  -2   1  840.82   30.40
   8   2  -1  788.32   26.60
  -3 -10  -7  583.14   18.90
  -1  -8  -6  201.48    6.70
  -1  -8  -6  178.98    9.50
   1  -6  -5 2348.27   53.79
   1  -6  -5 2376.86   52.99
   3  -4  -4  492.15   17.40
   3  -4  -4  514.75   12.80
  -5   2   3  127.49    8.10
  -5   2   3  116.09    7.20
   5  -2  -3  116.59    7.70
   5  -2  -3  108.69    7.40
  -7   0   2   41.30    6.80
   7   0  -2   46.20    6.60
   9   2  -1   94.59   10.50
  -2 -10  -7   66.59    4.80
   0  -8  -6   18.90    4.10
   2  -6  -5  259.77   13.40
   2  -6  -5  269.87   13.20
  -4   4   4   72.79    3.90
   4  -4  -4   82.19    8.30
   4  -4  -4   68.09    4.60
   6  -2  -3   -0.70    1.60
   8   0  -2  627.54   22.30
  -1 -10  -7  523.25   20.10
   1  -8  -6  186.18   11.80
   1  -8  -6  176.78   11.80
   3  -6  -5  519.55   21.50
   3  -6  -5  521.65   19.70
   5  -4  -4  643.54   21.70
   5  -4  -4  671.33   26.10
   5  -4  -4  684.13   19.10
   7  -2  -3  108.19    8.30
   7  -2  -3  109.69   12.80
   0 -10  -7  368.46   18.00
   0 -10  -7  409.46   20.30
   2  -8  -6   39.20    7.10
   2  -8  -6   33.50    6.60
   4  -6  -5   31.90    6.90
   4  -6  -5   24.50    5.20
   6  -4  -4  125.29    8.00
   6  -4  -4  103.09   12.60
   6  -4  -4  132.29    9.30
   1 -10  -7   14.00    5.20
   1 -10  -7   24.60    6.20
   3  -8  -6  226.98   15.40
   3  -8  -6  216.58   13.60
   5  -6  -5  152.58   15.80
   7  -4  -4  448.36   17.60
   4  -8  -6  322.47   20.00
   6  -5   0    6.90    3.70
   4  -7  -1   27.00    5.20
   4  -7  -1   26.40    7.30
   2  -9  -2   41.80    5.40
   2  -9  -2   24.80    7.00
   7  -3   1    8.60    4.40
   7  -3   1   13.00    6.00
   5  -5   0  159.98   10.90
   5  -5   0  164.88   16.60
   3  -7  -1  252.27   12.30
   3  -7  -1  257.27   16.60
   1  -9  -2  440.26   21.80
   1  -9  -2  407.96   15.30
  -1 -11  -3   18.30    4.30
   8  -1   2  694.43   29.50
   6  -3   1  351.36   19.40
   6  -3   1  331.17   17.00
   4  -5   0  111.69    8.60
   4  -5   0  134.19   13.50
   2  -7  -1  189.98   10.00
   2  -7  -1  168.28    8.30
   2  -7  -1  177.08   12.70
   0  -9  -2   82.69    6.70
   0  -9  -2  106.79   12.00
  -2 -11  -3   29.30    5.50
   7  -1   2   68.29    9.70
   7  -1   2   67.69    9.50
   5  -3   1  489.85   21.40
   5  -3   1  446.66   18.80
  -5   3  -1  489.15   19.00
   3  -5   0   -1.10    1.90
   3  -5   0   -0.10    1.50
   3  -5   0    2.60    0.70
   3  -5   0    3.20    2.10
   3  -5   0    2.00    0.70
   1  -7  -1  118.49    7.80
   1  -7  -1   98.89    6.50
   1  -7  -1  120.39   12.00
   1  -7  -1  102.39    7.10
  -1  -9  -2  847.02   25.50
  -1  -9  -2  896.41   30.10
  -3 -11  -3  198.48   12.20
   8   1   3   74.19    9.90
   8   1   3   49.40    9.30
  -8  -1  -3   52.99    9.30
   6  -1   2  475.25   20.10
   6  -1   2  465.55   20.00
   6  -1   2  464.85   20.40
  -6   1  -2  443.36   19.40
   4  -3   1 1119.09   33.30
   4  -3   1 1130.89   31.20
   4  -3   1 1106.09   31.30
  -4   3  -1 1126.09   30.80
   2  -5   0 1903.91   43.50
   2  -5   0 1888.01   37.40
   2  -5   0 1883.11   44.00
   2  -5   0 1910.21   47.30
   0  -7  -1   34.70    6.00
   0  -7  -1   33.10    4.70
   0  -7  -1   36.60    5.10
   0  -7  -1   32.50    5.00
  -2  -9  -2   11.90    3.50
  -4 -11  -3   28.30    6.10
  -9  -3  -4  362.36   21.50
   7   1   3  124.29    9.60
   7   1   3  128.09   13.10
  -7  -1  -3  114.49   12.30
   5  -1   2  354.76   15.90
   5  -1   2  361.66   15.90
   5  -1   2  349.07   15.80
  -5   1  -2  372.76   16.00
   3  -3   1  513.55   18.70
   3  -3   1  528.05   17.60
   3  -3   1  429.56   16.30
  -3   3  -1  506.75   17.10
   1  -5   0  166.48    8.70
   1  -5   0  168.98   10.00
   1  -5   0  170.18    6.80
   1  -5   0  155.58    8.40
  -1   5   0  159.78    8.10
  -1  -7  -1  533.95   17.70
  -1  -7  -1  490.75   18.70
  -1  -7  -1  473.45   16.90
  -3  -9  -2   58.89    7.80
  -5 -11  -3  496.45   22.30
   8   3   4   19.00    4.60
   8   3   4   13.70    5.50
  -8  -3  -4    8.20    4.40
   6   1   3  339.07   14.80
   6   1   3  361.86   17.00
  -6  -1  -3  361.96   16.90
   4  -1   2  102.19    7.40
   4  -1   2   90.79    7.10
   4  -1   2   87.29    6.90
  -4   1  -2   92.09    7.00
   2  -3   1   62.89    6.30
   2  -3   1   50.19    6.00
   2  -3   1   44.00    5.30
  -2   3  -1   63.49    5.00
  -2   3  -1   57.09    6.30
  -2   3  -1   59.09    6.10
   0  -5   0 2056.29   42.60
   0  -5   0 2082.69   46.00
   0  -5   0 2047.20   45.80
   0  -5   0 2061.19   47.10
   0   5   0 2038.50   46.40
   0   5   0 2102.09   46.00
  -2  -7  -1 1373.06   35.30
  -4  -9  -2   13.10    4.20
  -6 -11  -3    8.70    4.60
  -9  -5  -5    9.80    5.10
   7   3   4  292.87   12.90
  -7  -3  -4  289.87   16.40
   5   1   3   63.39    6.40
   5   1   3   75.39    8.50
   5   1   3   63.99    7.60
  -5  -1  -3   78.09    4.30
  -5  -1  -3   80.69    8.70
   3  -1   2 1342.47   32.40
   3  -1   2 1342.87   33.20
   3  -1   2 1353.96   33.20
  -3   1  -2 1332.57   32.30
  -3   1  -2 1374.36   33.20
   1  -3   1  174.38    8.70
   1  -3   1  172.48    5.50
   1  -3   1  156.68    8.00
   1  -3   1  185.38    8.60
  -1   3  -1  162.18    8.30
  -1   3  -1  158.38    7.80
  -1  -5   0   46.70    5.10
  -1  -5   0   45.70    5.40
   1   5   0   50.09    5.80
   1   5   0   35.40    4.90
  -3  -7  -1  229.68   11.80
   3   7   1  239.68   11.10
  -5  -9  -2  635.94   24.60
  -8  -5  -5  117.89   13.50
   6   3   4    3.10    1.60
  -6  -3  -4    3.20    2.00
  -6  -3  -4    7.20    3.30
   4   1   3  266.97   12.30
   4   1   3  257.07   11.90
   4   1   3  251.37   10.20
  -4  -1  -3  295.57   12.60
  -4  -1  -3  269.37    8.20
   2  -1   2   75.29    5.30
   2  -1   2   72.39    5.00
   2  -1   2   76.39    5.40
  -2   1  -2   83.29    5.40
  -2   1  -2   75.39    5.10
  -2   1  -2   91.99    5.90
   0  -3   1  837.82   22.20
   0  -3   1  875.01   22.70
   0  -3   1  869.11   19.50
   0   3  -1  895.81   22.60
   0   3  -1  900.21   23.00
  -2  -5   0  105.79    6.60
  -2  -5   0  102.89    7.00
   2   5   0  115.09    7.50
   2   5   0  117.99    7.00
  -4  -7  -1  854.61   27.30
   4   7   1  850.31   24.20
  -6  -9  -2  285.07   16.60
   7   5   5  192.38    8.20
  -7  -5  -5  201.08   13.80
   5   3   4  410.66   12.50
  -5  -3  -4  398.66   13.60
  -5  -3  -4  399.16   16.70
   3   1   3  175.28    8.80
   3   1   3  190.08    7.60
   3   1   3  204.68    9.50
  -3  -1  -3  179.68    7.50
  -3  -1  -3  180.18    8.90
   1  -1   2  398.96   12.20
   1  -1   2  400.76   12.80
   1  -1   2  390.16   12.80
   1  -1   2  417.46    9.40
  -1   1  -2  410.66   12.30
  -1   1  -2  407.96    9.20
  -1  -3   1  680.23   17.10
  -1  -3   1  694.83   19.00
   1   3  -1  668.83   16.90
   1   3  -1  660.83   18.10
  -3  -5   0   62.09    6.70
  -3  -5   0   56.39    6.30
   3   5   0   56.69    5.70
   3   5   0   46.60    6.20
  -5  -7  -1  136.79   10.20
   5   7   1  150.28    8.70
  -7  -9  -2  332.77   19.20
  -8  -7  -6  755.72   31.00
   6   5   5  104.29    4.60
  -6  -5  -5   82.89    9.50
   4   3   4  231.48    7.60
   4   3   4  243.58   11.50
  -4  -3  -4  224.18   11.00
   2   1   3  631.94   17.70
   2   1   3  619.84   17.40
   2   1   3  605.44   15.00
  -2  -1  -3  605.54   15.00
  -2  -1  -3  628.34   17.40
   0  -1   2  898.51   21.90
   0  -1   2  895.91   19.00
   0   1  -2  864.11   20.50
   0   1  -2  871.21   18.80
   0   1  -2  883.41   21.80
  -2  -3   1   70.09    4.70
  -2  -3   1   71.39    5.40
   2   3  -1   65.09    4.60
   2   3  -1   75.29    5.50
  -4  -5   0 1121.29   31.90
   4   5   0 1209.68   31.10
  -6  -7  -1   30.60    6.30
  -8  -9  -2   29.30    7.20
  -7  -7  -6  145.59   14.40
  -5  -5  -5 1035.30   30.50
   3   3   4   77.49    5.60
  -3  -3  -4   81.39    5.80
   1   1   3   57.99    4.10
  -1  -1  -3   63.49    4.30
  -1  -1  -3   70.99    3.90
  -1  -1  -3   71.29    4.50
  -1  -1  -3   63.19    3.50
  -1  -1   2   53.29    4.10
  -1  -1   2   56.49    3.70
   1   1  -2   63.79    3.90
   1   1  -2   59.59    4.30
  -3  -3   1 1309.37   32.90
   3   3  -1 1319.07   33.00
   3   3  -1 1367.26   31.40
  -5  -5   0   82.49    9.10
   5   5   0   94.29    9.00
  -7  -7  -1    7.10    4.10
  -6  -7  -6   21.40    5.40
  -4  -5  -5  848.12   25.00
   2   3   4  569.64   16.30
   2   3   4  571.34   16.40
  -2  -3  -4  582.54   16.50
  -2  -3  -4  593.74   11.90
   0   1   3  163.38    6.60
   0   1   3  175.28    6.90
   0   1   3  157.78    6.40
   0  -1  -3  157.08    6.50
   0  -1  -3  148.99    6.40
   0  -1  -3  157.38    6.50
  -2  -1   2 4085.59   80.89
   2   1  -2 4126.79   78.59
   2   1  -2 4243.98   81.29
  -4  -3   1    8.30    2.70
  -4  -3   1   12.30    3.10
   4   3  -1   15.00    3.40
   4   3  -1   32.00    5.20
  -6  -5   0  510.55   21.10
   6   5   0  490.65   19.20
  -8  -7  -1   18.80    5.90
  -7  -9  -7   78.09   10.70
  -5  -7  -6    3.20    2.30
   3   5   5  605.24   18.50
  -3  -5  -5  584.24   18.20
   1   3   4 3699.43   71.09
  -1  -3  -4 3699.93   71.19
  -1   1   3  601.14   15.10
   1  -1  -3  590.14   15.90
   1  -1  -3  606.94   15.30
  -3  -1   2  806.02   21.90
  -3  -1   2  823.42   21.10
   3   1  -2  808.72   22.00
   3   1  -2  814.62   21.30
  -5  -3   1  595.74   21.00
   5   3  -1  598.84   21.20
   5   3  -1  606.34   19.70
  -7  -5   0  158.08   12.20
   7   5   0  160.88   11.20
  -9  -7  -1   -0.80    3.80
  -6  -9  -7  466.95   20.80
  -4  -7  -6 1031.00   29.20
   2   5   5   11.10    2.50
   2   5   5   14.50    2.80
  -2  -5  -5   12.30    2.60
  -2  -5  -5   16.30    1.60
   0   3   4  409.26   10.30
   0   3   4  405.86   10.80
   0  -3  -4  405.86   13.40
   0  -3  -4  434.16   10.80
   0  -3  -4  399.26   10.80
  -2   1   3 2806.32   55.89
  -2   1   3 2850.01   56.59
   2  -1  -3 2848.71   56.09
   2  -1  -3 2853.01   56.89
  -4  -1   2   26.90    4.20
  -4  -1   2   31.40    4.80
   4   1  -2   30.20    4.70
   4   1  -2   28.10    4.30
  -6  -3   1  272.87   14.40
   6   3  -1  253.87   12.60
  -8  -5   0  410.66   21.20
  -5  -9  -7   57.19    7.80
  -3  -7  -6   46.50    5.50
   1   5   5   27.90    3.00
   1   5   5   24.50    2.80
  -1  -5  -5   23.60    2.90
  -1  -5  -5   34.70    3.40
  -1   3   4 1186.18   23.20
  -1   3   4 1159.88   23.00
   1  -3  -4 1173.48   23.90
   1  -3  -4 1148.89   28.30
  -3   1   3 1123.39   26.40
  -3   1   3 1144.99   27.70
   3  -1  -3 1159.78   27.10
   3  -1  -3 1112.59   27.50
  -5  -1   2 2137.49   47.30
  -5  -1   2 2102.69   49.50
   5   1  -2 2123.89   47.60
   5   1  -2 2116.09   49.60
  -7  -3   1  412.76   19.10
   7   3  -1  393.56   17.20
  -9  -5   0  108.29   13.90
  -6 -11  -8  156.48   12.30
  -4  -9  -7   38.40    5.90
   2   7   6  792.52   20.20
   2   7   6  796.32   20.40
  -2  -7  -6  783.52   19.00
  -2  -7  -6  779.62   20.80
   0  -5  -5  469.15   11.00
  -2   3   4 1501.35   29.00
   2  -3  -4 1421.96   34.70
   2  -3  -4 1501.95   30.30
  -4   1   3  218.38   10.00
  -4   1   3  202.48    9.10
   4  -1  -3  202.68    9.80
   4  -1  -3  208.18    9.50
  -6  -1   2  553.44   20.30
   6   1  -2  546.85   20.60
   6   1  -2  506.35   18.70
  -8  -3   1    4.30    3.20
   8   3  -1    2.90    2.60
  -5 -11  -8  143.99   10.80
  -3  -9  -7   10.40    3.00
   1   7   6   32.70    2.30
   1   7   6   43.20    2.60
  -1  -7  -6   39.10    4.70
  -1  -7  -6   43.00    3.10
   1  -5  -5   81.89    8.10
  -3   3   4   37.80    2.80
  -3   3   4   40.50    5.50
   3  -3  -4   37.50    3.80
   3  -3  -4   34.80    5.00
  -5   1   3  357.16   14.20
  -5   1   3  361.86   13.80
   5  -1  -3  323.47   13.80
   5  -1  -3  366.96   14.40
  -7  -1   2  139.39   10.30
   7   1  -2  142.89   11.00
   7   1  -2  131.69    9.40
  -9  -3   1  875.71   34.10
   9   3  -1  950.80   31.30
  -4 -11  -8  120.19    9.10
  -2  -9  -7  161.08    7.80
  -2  -9  -7  190.78    9.10
   0  -7  -6  804.52   23.50
   2  -5  -5  244.28   12.20
  -4   3   4  569.54   19.20
  -4   3   4  607.04   16.00
   4  -3  -4  576.24   16.90
   4  -3  -4  582.84   19.40
  -6   1   3  787.22   24.30
   6  -1  -3  769.92   25.10
   6  -1  -3  733.13   23.80
   8   1  -2    1.00    2.00
  -3 -11  -8  593.64   19.00
  -1  -9  -7   23.60    4.40
   1  -7  -6   77.99    8.60
   1  -7  -6   71.59    8.70
   3  -5  -5   14.20    3.80
   5  -3  -4    8.50    3.00
   7  -1  -3  189.78   11.30
   0  -9  -7   16.50    4.50
   0  -9  -7   17.80    5.50
   2  -7  -6  683.03   24.50
   2  -7  -6  654.33   24.10
   4  -5  -5  969.20   22.60
   4  -5  -5  962.90   20.90
   4  -5  -5  939.91   29.30
   4  -5  -5 1023.80   32.70
   6  -3  -4  103.29   10.00
   1  -9  -7  476.75   22.00
   1  -9  -7  521.05   21.60
   3  -7  -6  195.68   13.50
   3  -7  -6  223.48   13.30
   5  -5  -5   45.90    7.10
   5  -5  -5   44.90    8.20
   5  -5  -5   42.60    4.20
   7  -3  -4  143.09   15.50
   2  -9  -7   80.59   10.60
   2  -9  -7   91.39   11.20
   4  -7  -6    6.40    3.10
   4  -7  -6    9.20    4.40
   6  -5  -5  661.93   29.20
   5  -6   0    8.70    4.00
   3  -8  -1   51.59    9.80
   3  -8  -1   44.10    6.50
   1 -10  -2    1.30    3.50
   1 -10  -2    1.10    2.00
   6  -4   1   50.79    9.40
   6  -4   1   59.99    8.90
   4  -6   0   81.99    9.40
   4  -6   0  117.09   13.70
   2  -8  -1  676.63   22.10
   2  -8  -1  647.74   28.00
   0 -10  -2  255.67   12.60
   0 -10  -2  241.58   16.30
   7  -2   2  380.36   20.50
   7  -2   2  353.26   19.30
   5  -4   1 1776.32   50.49
   5  -4   1 1765.62   46.80
   3  -6   0  277.47   16.50
   3  -6   0  275.67   13.70
   1  -8  -1  215.78   11.20
   1  -8  -1  194.58   13.60
  -1 -10  -2   58.09    7.40
   8   0   3  764.72   29.50
   8   0   3  750.72   30.80
   6  -2   2    3.10    3.00
   6  -2   2    4.30    3.20
  -6   2  -2    3.60    3.00
   4  -4   1   75.19    8.50
   4  -4   1   67.49    9.30
  -4   4  -1   64.19    7.60
   2  -6   0   96.89    5.00
   2  -6   0  102.39    8.20
   2  -6   0   80.99    9.80
   2  -6   0   94.59    7.40
   0  -8  -1  308.47   16.20
   0  -8  -1  288.07   13.20
  -2 -10  -2  341.87   15.70
   7   0   3   50.59    8.40
   7   0   3   40.90    7.40
  -7   0  -3   53.79    8.60
   5  -2   2   14.60    4.00
   5  -2   2   10.50    4.00
   5  -2   2    9.50    3.70
  -5   2  -2   18.10    4.60
   3  -4   1 1072.99   32.70
   3  -4   1 1130.09   30.70
   3  -4   1 1119.19   31.00
   1  -6   0 1762.92   45.80
   1  -6   0 1735.93   42.30
   1  -6   0 1798.22   42.90
   1  -6   0 1814.02   38.10
  -1  -8  -1 1712.53   42.40
  -3 -10  -2  171.78   11.50
   8   2   4  182.18   12.10
   8   2   4  202.28   14.90
  -8  -2  -4  213.58   15.20
   6   0   3 2266.37   55.19
   6   0   3 2354.66   58.19
  -6   0  -3 2358.46   57.99
   4  -2   2 1000.40   29.50
   4  -2   2  975.00   29.00
   4  -2   2  969.10   29.30
  -4   2  -2 1087.09   29.90
   2  -4   1  993.60   27.50
   2  -4   1  958.60   19.30
   2  -4   1  980.80   28.80
   2  -4   1  967.40   26.90
   0  -6   0   22.20    4.20
   0  -6   0   29.00    4.00
   0  -6   0   18.20    4.30
   0  -6   0   23.40    4.40
  -2  -8  -1   23.10    4.80
  -4 -10  -2   53.29    8.10
  -9  -4  -5  248.48   18.00
   7   2   4    4.10    2.50
   7   2   4   -1.20    2.40
  -7  -2  -4    2.50    2.90
   5   0   3  260.17   12.60
   5   0   3  300.47   14.50
   5   0   3  282.97   14.20
  -5   0  -3  299.37   14.40
   3  -2   2    9.70    2.80
   3  -2   2   24.40    4.50
   3  -2   2   20.50    4.10
  -3   2  -2   19.70    4.00
   1  -4   1  132.19    8.50
   1  -4   1  136.09    5.40
   1  -4   1  132.59    7.90
   1  -4   1  123.39    7.80
  -1   4  -1  107.29    7.10
  -1   4  -1  142.99    8.60
  -1  -6   0  467.85   15.60
  -1  -6   0  462.45   16.70
  -3  -8  -1 1241.18   35.00
  -5 -10  -2 1844.12   50.69
   8   4   5  498.45   24.10
  -8  -4  -5  524.85   24.80
   6   2   4  256.37   14.60
   6   2   4  260.77   11.90
  -6  -2  -4  277.27   14.90
  -6  -2  -4  294.37   10.50
   4   0   3 1461.25   37.70
   4   0   3 1474.15   35.40
   4   0   3 1455.25   37.50
  -4   0  -3 1453.75   37.30
  -4   0  -3 1474.45   27.60
  -4   0  -3 1469.25   27.50
   2  -2   2 1562.94   37.90
   2  -2   2 1676.43   39.00
   2  -2   2 1622.94   38.60
  -2   2  -2 1773.32   39.20
  -2   2  -2 1620.44   37.90
  -2   2  -2 1658.03   38.40
   0  -4   1 1648.44   38.40
   0  -4   1 1620.94   34.10
   0  -4   1 1603.74   38.30
   0  -4   1 1673.63   38.80
   0   4  -1 1659.63   38.30
   0   4  -1 1618.04   38.40
  -2  -6   0 1425.16   34.30
  -2  -6   0 1387.26   35.60
   2   6   0 1337.37   34.20
  -4  -8  -1    9.30    3.70
  -6 -10  -2    9.10    3.90
   9   6   6  528.25   26.80
  -9  -6  -6  546.65   27.30
   7   4   5 1058.59   27.40
   7   4   5 1072.89   35.50
  -7  -4  -5 1117.09   36.10
   5   2   4   86.29    9.30
   5   2   4   78.49    5.70
  -5  -2  -4  106.39    8.30
  -5  -2  -4   99.49    5.50
   3   0   3   67.79    5.10
   3   0   3   72.59    5.80
   3   0   3   69.09    6.90
  -3   0  -3   71.69    5.20
  -3   0  -3   59.09    6.30
  -3   0  -3   65.49    2.90
   1  -2   2  885.91   18.10
   1  -2   2  881.91   23.60
   1  -2   2  886.61   22.90
   1  -2   2  835.12   23.30
  -1   2  -2  838.52   17.70
  -1   2  -2  861.21   23.20
  -1   2  -2  888.71   22.80
  -1  -4   1  202.08    9.60
  -1  -4   1  204.58    8.40
   1   4  -1  198.78    9.80
   1   4  -1  177.38    7.80
   1   4  -1  178.58    9.00
  -3  -6   0  481.15   18.20
   3   6   0  462.15   16.40
  -5  -8  -1   21.30    5.30
  -7 -10  -2  813.22   32.60
  -8  -6  -6  168.28   16.60
   6   4   5  109.49    6.10
  -6  -4  -5  131.99   10.20
   4   2   4  333.07   14.10
   4   2   4  324.57   13.90
   4   2   4  315.67   10.80
  -4  -2  -4  315.87   13.70
   2   0   3 1515.45   32.80
   2   0   3 1506.65   35.00
   2   0   3 1476.25   35.10
  -2   0  -3 1511.35   29.20
  -2   0  -3 1549.05   33.00
  -2   0  -3 1460.75   34.70
  -2   0  -3 1488.65   34.90
  -2  -4   1  840.92   24.20
  -2  -4   1  866.21   22.40
   2   4  -1  835.92   22.30
   2   4  -1  867.41   23.20
  -4  -6   0 1615.84   42.10
  -6  -8  -1  192.08   13.50
  -7  -6  -6  528.75   23.40
   5   4   5 3111.29   58.39
  -5  -4  -5 3037.50   69.09
   3   2   4 4805.92   89.09
   3   2   4 5132.89   96.59
   3   2   4 4741.13   95.79
  -3  -2  -4 4581.74   95.49
  -3  -2  -4 4911.21   89.19
   1   0   3   69.99    3.70
   1   0   3   60.89    4.70
   1   0   3   71.59    5.00
  -1   0  -3   74.99    4.50
  -1   0  -3   62.69    3.50
  -1   0  -3   67.99    4.90
  -1   0  -3   67.69    5.00
  -1  -2   2  345.07   12.70
   1   2  -2  381.96   13.20
   1   2  -2  375.46   11.20
  -3  -4   1   46.70    6.00
  -3  -4   1   49.00    5.80
   3   4  -1   45.20    5.50
   3   4  -1   50.19    6.40
  -5  -6   0 1070.89   33.10
  -7  -8  -1   14.50    5.70
  -8  -8  -7 1068.49   38.40
  -6  -6  -6   74.39    9.40
   4   4   5  321.77   13.70
  -4  -4  -5  321.67   13.90
   2   2   4   62.59    4.90
  -2  -2  -4   62.19    3.40
  -2  -2  -4   72.29    5.30
   0   0   3   71.59    4.10
   0   0   3   65.99    4.70
   0   0   3   55.19    4.10
   0   0  -3   58.69    4.40
   0   0  -3   58.69    3.80
  -2  -2   2 3938.61   74.59
  -2  -2   2 3834.02   77.99
   2   2  -2 3938.11   78.19
   2   2  -2 3799.82   74.39
  -4  -4   1 1053.69   30.40
  -4  -4   1 1016.00   30.60
   4   4  -1 1085.09   28.70
   4   4  -1 1107.29   30.80
  -6  -6   0 1201.08   37.00
  -8  -8  -1  608.24   28.10
  -7  -8  -7   43.60    8.20
  -5  -6  -6  111.29    8.80
   3   4   5 1069.19   27.60
   3   4   5 1043.10   27.30
  -3  -4  -5 1030.20   27.40
   1   2   4 8194.08  154.18
   1   2   4 8535.15  161.38
  -1  -2  -4 8202.08  155.38
  -1  -2  -4 8105.39  157.88
  -1  -2  -4 8507.55  158.58
  -1   0   3 4417.66   82.69
  -1   0   3 4373.36   85.19
   1   0  -3 4312.57   82.39
   1   0  -3 4488.15   85.29
  -3  -2   2 2114.69   47.60
  -3  -2   2 2146.79   45.40
   3   2  -2 2150.38   47.60
   3   2  -2 2081.39   45.40
  -5  -4   1  158.98   10.50
   5   4  -1  147.69    9.40
  -7  -6   0    1.80    2.90
  -9  -8  -1   93.89   14.10
  -6  -8  -7  945.71   31.80
  -4  -6  -6 2500.25   56.89
   2   4   5  304.67   11.00
   2   4   5  307.37   11.10
  -2  -4  -5  291.87   11.00
   0   2   4  112.69    5.60
   0  -2  -4  108.79    5.40
   0  -2  -4  102.39    5.40
  -2   0   3 1504.45   34.90
  -2   0   3 1594.44   34.80
   2   0  -3 1611.24   35.30
   2   0  -3 1581.34   34.80
  -4  -2   2  245.78   11.00
  -4  -2   2  286.37   12.60
   4   2  -2  269.67   12.30
   4   2  -2  266.37   11.50
  -6  -4   1  636.74   24.00
   6   4  -1  656.93   22.70
  -8  -6   0  663.83   28.60
  -5  -8  -7    9.00    3.50
   3   6   6  251.87   10.90
  -3  -6  -6  246.88   11.10
   1   4   5  153.68    6.50
   1   4   5  158.48    6.80
  -1  -4  -5  149.29    6.70
  -1   2   4 1675.93   37.30
  -1   2   4 1673.53   35.00
   1  -2  -4 1702.63   35.40
   1  -2  -4 1708.23   37.40
  -3   0   3 2857.71   57.09
  -3   0   3 2705.73   57.19
   3   0  -3 2767.12   56.79
   3   0  -3 2698.63   57.29
  -5  -2   2 3654.53   80.49
   5   2  -2 3782.52   78.29
   5   2  -2 3962.50   81.69
  -7  -4   1  861.61   30.70
   7   4  -1  859.41   28.40
  -9  -6   0   27.00    8.10
  -6 -10  -8  283.07   16.20
   4   8   7  150.78    9.40
  -4  -8  -7  169.48   10.20
   2   6   6 2314.37   48.50
   2   6   6 2331.37   48.30
  -2  -6  -6 2268.37   48.80
  -2  -6  -6 2277.37   43.90
   0   4   5 2178.58   42.50
   0   4   5 2166.88   41.60
   0  -4  -5 2116.59   42.60
   0  -4  -5 2096.29   47.20
  -2   2   4 2290.87   45.70
  -2   2   4 2301.97   48.90
   2  -2  -4 2228.88   46.20
   2  -2  -4 2299.37   48.90
  -4   0   3    1.10    1.40
  -4   0   3   -0.10    1.10
   4   0  -3    1.50    1.50
   4   0  -3    0.40    1.40
  -6  -2   2  116.99    9.20
   6   2  -2  122.29    8.80
   6   2  -2  131.79    9.80
  -8  -4   1   34.70    7.40
   8   4  -1   25.80    6.00
  -5 -10  -8  262.97   14.40
   3   8   7   34.10    4.80
  -3  -8  -7   34.30    4.90
   1   6   6  260.97    8.60
   1   6   6  270.27    8.50
  -1  -6  -6  255.57    9.50
  -1  -6  -6  248.78    8.90
  -1   4   5    3.50    0.60
  -1   4   5    4.10    0.70
   1  -4  -5    2.90    0.90
   1  -4  -5    2.30    1.80
  -3   2   4  153.98    8.60
  -3   2   4  166.68    7.10
   3  -2  -4  168.88    7.60
   3  -2  -4  150.78    8.60
  -5   0   3  115.19    8.00
   5   0  -3  131.79    8.60
   5   0  -3  127.69    8.40
  -7  -2   2  606.84   23.60
   7   2  -2  591.54   22.10
   9   4  -1 1457.75   43.10
  -4 -10  -8  530.35   19.70
   2   8   7  302.57   10.70
  -2  -8  -7  317.67   10.90
  -2  -8  -7  309.27   11.40
   0  -6  -6 1380.76   36.80
   0  -6  -6 1401.26   33.20
   2  -4  -5  774.92   23.80
   2  -4  -5  813.72   17.40
  -4   2   4 1517.75   34.40
  -4   2   4 1553.34   37.50
   4  -2  -4 1533.05   35.60
   4  -2  -4 1480.65   37.30
  -6   0   3  912.61   27.80
   6   0  -3  896.61   27.30
   6   0  -3  916.41   28.40
   8   2  -2   13.80    4.60
  -3 -10  -8  825.62   24.10
  -1  -8  -7   53.89    3.50
  -1  -8  -7   45.40    5.60
   1  -6  -6    0.50    1.70
   1  -6  -6   -0.20    1.60
  -3   4   5    3.50    0.80
  -3   4   5    2.70    0.70
   3  -4  -5    3.90    2.10
   3  -4  -5    2.30    1.10
  -5   2   4    0.10    1.20
   5  -2  -4   -0.30    1.60
   5  -2  -4    1.50    1.60
  -7   0   3  240.48   13.60
   7   0  -3  268.87   14.00
   9   2  -2   23.10    6.00
  -2 -10  -8    2.10    1.50
   0  -8  -7   58.79    7.10
   0  -8  -7   53.59    7.90
   2  -6  -6  689.93   23.70
   2  -6  -6  705.13   24.30
  -4   4   5  886.11   20.00
   4  -4  -5  934.21   22.70
   4  -4  -5  963.40   28.50
   6  -2  -4  437.86   18.00
   8   0  -3  482.55   20.40
   1  -8  -7 1091.39   34.80
   1  -8  -7 1088.69   32.50
   3  -6  -6   85.49    9.80
   3  -6  -6  117.19   11.60
   5  -4  -5    7.50    3.20
   7  -2  -4  174.38   11.50
   0 -10  -8  101.69   12.40
   0 -10  -8   83.49   10.00
   2  -8  -7   54.99    8.40
   2  -8  -7   52.49    8.20
   4  -6  -6   38.30    7.90
   4  -6  -6   17.60    4.70
   6  -4  -5  382.56   20.60
   6  -4  -5  375.46   17.40
   1 -10  -8   44.30    8.70
   1 -10  -8   27.30    6.60
   3  -8  -7  717.73   27.70
   3  -8  -7  770.42   29.80
   5  -6  -6  398.46   21.70
   5  -6  -6  412.46   19.00
   4  -7   0   11.30    4.20
   2  -9  -1  328.27   15.10
   2  -9  -1  336.07   21.10
   5  -5   1 1353.26   44.00
   5  -5   1 1314.17   39.80
   3  -7   0  135.59   10.10
   3  -7   0  136.19   15.00
   1  -9  -1   21.90    6.30
   1  -9  -1   29.20    5.30
   6  -3   2    3.70    3.50
   6  -3   2    3.30    3.00
   4  -5   1   31.40    6.20
   4  -5   1   26.80    6.40
   2  -7   0  341.97   15.50
   2  -7   0  320.37   18.20
   0  -9  -1   12.70    4.80
   0  -9  -1   10.50    3.50
  -2 -11  -2  110.09   10.90
   7  -1   3   28.60    6.90
   7  -1   3    7.20    4.00
   5  -3   2  276.87   16.10
   5  -3   2  288.27   15.40
  -5   3  -2  322.37   15.80
   3  -5   1  833.82   29.20
   3  -5   1  789.92   26.20
   1  -7   0  925.81   31.50
   1  -7   0  954.20   28.30
  -1  -9  -1  561.64   21.00
  -3 -11  -2   46.00    7.60
   8   1   4   55.39    8.90
   8   1   4   35.50    7.90
  -8  -1  -4   58.89   10.00
   6  -1   3  804.22   28.40
   6  -1   3  862.81   29.90
  -6   1  -3  819.62   28.90
   4  -3   2  118.69   11.70
   4  -3   2   90.79    9.60
   4  -3   2  113.69    9.00
  -4   3  -2  105.49    8.40
   2  -5   1   65.89    7.60
   2  -5   1   78.69    3.60
   2  -5   1   75.09    9.10
   2  -5   1   80.59    8.50
   0  -7   0   14.00    3.90
   0  -7   0   20.80    3.90
   0  -7   0   18.10    4.20
   0  -7   0   18.10    4.80
  -2  -9  -1  437.36   18.60
  -4 -11  -2   27.50    6.70
   7   1   4   78.99   10.80
   7   1   4  102.29   10.80
  -7  -1  -4  125.19   13.50
   5  -1   3   74.89    9.00
   5  -1   3  103.09   10.30
   5  -1   3   80.29    9.60
  -5   1  -3  116.99    9.20
   3  -3   2  250.97   12.50
   3  -3   2  239.78   12.90
   3  -3   2  246.88   12.50
  -3   3  -2  277.77   12.90
   1  -5   1  224.38   11.40
   1  -5   1  204.08   11.70
   1  -5   1  201.28    7.70
   1  -5   1  205.58   10.80
  -1  -7   0  137.29    9.20
  -3  -9  -1  386.76   17.70
  -5 -11  -2  579.24   25.20
   8   3   5   62.29   10.50
  -8  -3  -5   66.69   10.50
   6   1   4   11.10    3.70
   6   1   4   11.60    4.30
  -6  -1  -4   16.50    4.70
   4  -1   3  402.46   17.20
   4  -1   3  427.66   16.60
   4  -1   3  440.66   17.70
  -4   1  -3  442.96   17.40
   2  -3   2  366.66   15.30
   2  -3   2  378.36   14.90
   2  -3   2  368.36   14.80
   0  -5   1  131.79    8.80
   0  -5   1  132.89    8.50
   0  -5   1  131.69    6.70
   0  -5   1  139.49    8.70
  -2  -7   0  181.38   10.80
  -4  -9  -1   72.89    9.50
  -9  -5  -6  165.48   17.70
   7   3   5  346.87   18.60
   7   3   5  332.67   14.00
  -7  -3  -5  323.17   18.10
   5   1   4  238.38   11.30
   5   1   4  256.77   13.60
  -5  -1  -4  256.47    8.20
  -5  -1  -4  252.37   13.40
   3  -1   3   82.79    8.30
   3  -1   3   79.09    6.30
   3  -1   3   75.69    7.70
  -3   1  -3   91.19    7.00
  -3   1  -3   82.49    7.80
   1  -3   2   21.60    4.00
   1  -3   2   15.10    3.50
   1  -3   2   22.20    2.40
   1  -3   2   21.70    4.00
  -1   3  -2   23.30    4.20
  -1  -5   1  296.47   13.00
  -1  -5   1  276.57   11.00
   1   5  -1  292.27   12.70
  -3  -7   0    7.80    3.00
  -5  -9  -1   86.49   10.90
   8   5   6  582.94   26.70
  -8  -5  -6  596.74   27.00
   6   3   5  128.79   10.40
   6   3   5  144.69    8.00
  -6  -3  -5  135.09   10.60
  -6  -3  -5  147.49    7.90
   4   1   4   58.79    6.10
   4   1   4   81.29    8.60
   4   1   4   58.49    7.10
  -4  -1  -4   49.70    6.70
  -4  -1  -4   60.49    3.60
  -4  -1  -4   65.69    6.40
   2  -1   3   59.89    6.70
   2  -1   3   39.20    4.70
   2  -1   3   50.59    6.10
  -2   1  -3   52.49    6.10
  -2   1  -3   47.70    5.40
  -2   1  -3   62.19    6.50
  -2   1  -3   56.49    2.50
   0  -3   2 1489.25   30.70
   0  -3   2 1452.05   35.20
   0  -3   2 1391.46   35.00
   0   3  -2 1414.76   30.30
   0   3  -2 1444.06   34.50
   0   3  -2 1500.45   35.70
  -2  -5   1   26.80    4.30
  -2  -5   1   20.40    4.10
   2   5  -1   31.60    4.50
   2   5  -1   26.50    4.50
  -4  -7   0  245.58   13.70
  -6  -9  -1    7.10    3.80
   7   5   6   77.09   10.30
  -7  -5  -6   65.29    9.60
   5   3   5 1586.84   42.50
   5   3   5 1634.94   35.60
  -5  -3  -5 1611.14   42.60
  -5  -3  -5 1648.64   36.90
   3   1   4  538.55   15.60
   3   1   4  546.35   18.40
   3   1   4  522.85   18.00
  -3  -1  -4  547.15   14.00
  -3  -1  -4  532.15   18.20
  -3  -1  -4  543.65   15.60
   1  -1   3  546.35   17.60
   1  -1   3  569.04   17.90
   1  -1   3  598.34   14.00
  -1   1  -3  578.54   17.90
  -1   1  -3  554.94   17.70
  -1   1  -3  577.04   16.80
  -1   1  -3  573.84   13.60
  -1  -3   2  514.05   14.70
  -1  -3   2  514.95   17.20
   1   3  -2  494.75   16.10
   1   3  -2  510.75   14.60
   1   3  -2  508.15   17.20
  -3  -5   1  586.04   20.70
  -3  -5   1  614.64   21.80
   3   5  -1  605.34   19.20
  -5  -7   0   37.40    7.00
  -7  -9  -1   32.00    7.60
   8   7   7  228.78   16.20
  -8  -7  -7  196.98   15.40
   6   5   6  241.28   14.10
  -6  -5  -6  255.07   14.60
   4   3   5 1015.70   28.80
  -4  -3  -5  977.00   28.60
   2   1   4  666.23   19.80
   2   1   4  687.63   20.40
  -2  -1  -4  677.33   20.00
  -2  -1  -4  698.13   20.30
  -2  -1  -4  692.83   16.90
  -2  -1  -4  653.53   17.30
   0  -1   3 1213.58   30.00
   0  -1   3 1223.08   26.50
   0  -1   3 1200.18   29.70
   0   1  -3 1267.97   30.50
   0   1  -3 1225.78   28.50
   0   1  -3 1181.68   26.10
  -2  -3   2  357.46   12.40
  -2  -3   2  352.16   13.80
   2   3  -2  353.06   12.40
   2   3  -2  331.77   13.70
  -4  -5   1  353.76   16.00
   4   5  -1  387.26   15.50
  -6  -7   0  390.46   19.50
  -8  -9  -1   -3.30    3.00
   7   7   7  258.67   16.10
  -7  -7  -7  244.48   15.80
   5   5   6  235.68   12.90
  -5  -5  -6  230.68   12.80
   3   3   5  104.79    7.10
   3   3   5  100.69    7.00
  -3  -3  -5   95.39    6.80
  -3  -3  -5  105.29    4.50
   1   1   4 3352.46   68.59
  -1  -1  -4 3443.86   68.79
  -1  -1  -4 3321.97   64.99
  -1  -1  -4 3508.05   68.99
  -1  -1   3  468.25   15.40
  -1  -1   3  490.65   14.10
   1   1  -3  480.55   13.90
   1   1  -3  467.15   15.40
  -3  -3   2   27.80    4.30
  -3  -3   2    2.90    2.10
   3   3  -2    0.70    1.40
   3   3  -2    1.70    1.80
  -5  -5   1 1000.80   31.70
   5   5  -1 1016.90   29.80
  -7  -7   0  429.76   21.50
   6   7   7  137.69   10.70
  -6  -7  -7  161.68   11.80
   4   5   6  491.55   18.20
  -4  -5  -6  496.65   18.40
   2   3   5  249.58   10.30
   2   3   5  226.88    9.90
  -2  -3  -5  239.38    7.40
  -2  -3  -5  238.78   10.20
   0   1   4  419.36   13.00
   0   1   4  420.86   13.30
   0   1   4  405.06   13.30
   0  -1  -4  407.06   13.20
   0  -1  -4  397.26   12.60
  -2  -1   3 2473.45   49.90
  -2  -1   3 2439.96   51.89
   2   1  -3 2449.55   51.99
   2   1  -3 2243.48   49.10
  -4  -3   2  986.10   29.40
  -4  -3   2  969.60   28.70
   4   3  -2 1022.20   27.70
   4   3  -2 1047.60   29.50
  -6  -5   1    4.10    2.90
   6   5  -1    5.90    3.10
  -8  -7   0   83.49   12.10
  -7  -9  -8   63.79   10.20
   5   7   7  421.86   18.10
  -5  -7  -7  440.56   18.70
   3   5   6  178.28    9.30
  -3  -5  -6  173.98    9.40
   1   3   5 2976.80   59.59
   1   3   5 2924.61   59.89
  -1  -3  -5 3021.30   60.69
  -1  -3  -5 2890.51   60.09
  -1  -3  -5 3004.80   59.89
  -1   1   4    2.80    1.60
  -1   1   4    4.10    1.70
  -1   1   4    0.00    1.00
   1  -1  -4    1.40    1.30
   1  -1  -4   -0.50    1.20
  -3  -1   3  260.37   10.90
  -3  -1   3  243.48   11.10
   3   1  -3  260.07   11.10
   3   1  -3  295.97   11.90
  -5  -3   2  777.52   26.20
   5   3  -2  828.02   25.20
   5   3  -2  839.22   26.80
  -7  -5   1   69.89   10.00
   7   5  -1   53.09    7.90
  -9  -7   0  348.77   21.60
  -6  -9  -8    0.10    2.80
   4   7   7   81.69    8.40
  -4  -7  -7   93.59    9.10
   2   5   6  687.73   19.40
   2   5   6  690.93   19.30
  -2  -5  -6  681.13   19.50
   0   3   5   91.79    4.90
   0   3   5   90.29    5.20
   0  -3  -5   88.09    6.40
   0  -3  -5   93.09    5.20
   0  -3  -5  113.09    5.60
  -2   1   4   55.19    4.40
  -2   1   4   63.69    6.40
   2  -1  -4   55.39    5.70
   2  -1  -4   53.29    4.40
  -4  -1   3  321.27   13.00
  -4  -1   3  291.07   12.80
   4   1  -3  299.27   12.80
   4   1  -3  331.27   13.60
  -6  -3   2 1246.68   36.60
   6   3  -2 1242.48   34.80
  -8  -5   1  476.15   23.60
   8   5  -1  470.75   21.20
  -5  -9  -8   24.40    5.40
   3   7   7 1470.35   36.10
  -3  -7  -7 1501.95   36.90
   1   5   6   27.70    3.50
   1   5   6   19.90    2.90
  -1  -5  -6   22.50    3.20
  -1   3   5  989.10   22.80
  -1   3   5 1023.80   22.60
   1  -3  -5 1027.40   27.00
   1  -3  -5 1016.80   23.30
  -3   1   4  923.41   23.70
  -3   1   4  936.31   25.10
   3  -1  -4  931.61   24.10
   3  -1  -4  879.41   24.70
  -5  -1   3  189.48   10.60
   5   1  -3  170.08   10.10
   5   1  -3  185.58   10.70
  -7  -3   2    1.50    2.70
   7   3  -2    2.70    2.50
  -9  -5   1  439.66   24.00
   9   5  -1  485.45   23.00
  -4  -9  -8   10.30    3.60
   2   7   7  258.47   10.20
  -2  -7  -7  256.07    8.60
  -2  -7  -7  260.77   10.60
   0   5   6   50.39    3.10
   0   5   6   51.69    2.80
   0  -5  -6   43.10    6.00
  -2   3   5    9.10    1.70
  -2   3   5   10.80    2.00
   2  -3  -5    8.90    1.90
   2  -3  -5    4.80    2.20
  -4   1   4   58.79    6.00
  -4   1   4   74.59    8.70
   4  -1  -4   69.59    7.40
   4  -1  -4   68.59    6.90
  -6  -1   3    3.40    2.70
   6   1  -3   10.90    3.80
   6   1  -3    8.60    3.00
  -8  -3   2  379.46   19.90
   8   3  -2  341.67   17.70
  -5 -11  -9    1.70    2.70
  -3  -9  -8  317.67   13.40
   1   7   7  590.84   14.80
   1   7   7  578.64   14.30
  -1  -7  -7  565.34   15.80
  -1  -7  -7  631.54   17.70
   1  -5  -6  916.01   27.40
  -3   3   5  706.63   17.50
   3  -3  -5  703.73   22.50
   3  -3  -5  714.03   18.80
  -5   1   4  331.07   13.70
   5  -1  -4  323.57   14.00
   5  -1  -4  341.47   14.90
  -7  -1   3  101.49   11.10
   7   1  -3   99.99   10.40
   9   3  -2  301.97   17.40
  -4 -11  -9  740.83   24.60
  -2  -9  -8  638.64   18.40
   0  -7  -7  626.24   20.10
   0  -7  -7  638.64   23.60
   2  -5  -6  193.78   11.40
  -4   3   5  114.29    5.90
   4  -3  -5  107.99    6.50
   4  -3  -5  126.99    9.00
  -6   1   4   84.09    8.70
   6  -1  -4   79.89    8.80
   8   1  -3    7.00    3.70
  -3 -11  -9  122.89    8.00
  -1  -9  -8  139.19    8.80
  -1  -9  -8  132.69   13.20
   1  -7  -7  352.26   17.10
   1  -7  -7  342.27   15.40
   3  -5  -6  234.28   13.20
   5  -3  -5  473.15   19.10
   7  -1  -4  873.31   28.80
   0  -9  -8  770.42   29.10
   0  -9  -8  718.63   24.60
   2  -7  -7  844.12   28.30
   2  -7  -7  808.02   28.40
   4  -5  -6 1443.16   40.50
   6  -3  -5   64.59    8.40
   8  -1  -4    2.20    2.80
  -1 -11  -9  365.36   21.30
   1  -9  -8  493.95   21.00
   1  -9  -8  488.35   22.70
   3  -7  -7  137.19   13.60
   3  -7  -7  118.89   12.40
   5  -5  -6   56.89    4.00
   5  -5  -6   55.59    8.20
   7  -3  -5    4.90    3.80
   2  -9  -8  161.08   12.70
   2  -9  -8  159.08   15.20
   4  -7  -7  178.78   13.00
   4  -7  -7  176.98   17.10
   3  -8   0   29.20    6.00
   6  -4   2  276.27   18.70
   6  -4   2  302.67   17.90
   4  -6   1  281.47   18.30
   4  -6   1  279.57   15.80
   2  -8   0 1306.37   37.30
   2  -8   0 1317.57   43.40
   0 -10  -1  413.66   18.10
   7  -2   3  414.56   22.00
   7  -2   3  420.66   22.00
   5  -4   2  706.83   26.90
   5  -4   2  709.13   29.00
   3  -6   1   33.70    6.30
   3  -6   1   29.90    7.00
   1  -8   0   34.90    7.50
   1  -8   0   24.30    5.30
  -1 -10  -1    7.70    3.60
   8   0   4  119.09   13.70
   6  -2   3    6.10    4.00
   6  -2   3   11.50    4.40
   4  -4   2  144.29   10.70
   4  -4   2  147.49   11.60
   2  -6   1   26.10    5.90
   2  -6   1   14.50    4.10
   0  -8   0  376.16   16.70
   0  -8   0  356.06   18.70
  -2 -10  -1 1331.47   38.90
   7   0   4  487.25   23.40
   7   0   4  516.25   22.00
  -7   0  -4  481.15   22.90
   5  -2   3  201.88   12.90
   5  -2   3  162.98   11.80
  -5   2  -3  191.08   12.40
   3  -4   2 1467.75   39.60
   3  -4   2 1358.86   39.60
   3  -4   2 1431.76   38.70
   1  -6   1 1287.77   35.10
   1  -6   1 1253.47   28.60
   1  -6   1 1237.98   35.00
   1  -6   1 1263.77   37.00
  -1  -8   0   63.69    8.20
  -3 -10  -1   54.39    8.40
   8   2   5  180.38   12.30
   8   2   5  205.28   15.80
  -8  -2  -5  206.48   15.80
   6   0   4  214.28   14.00
   6   0   4  234.78   13.30
  -6   0  -4  222.38   14.10
   4  -2   3    1.30    2.20
   4  -2   3    6.60    3.10
   4  -2   3    3.00    2.20
  -4   2  -3    2.50    2.20
   2  -4   2  129.69    3.80
   2  -4   2  129.79    9.40
   2  -4   2  105.79    8.40
   2  -4   2  145.69    9.60
   0  -6   1  445.16   19.00
   0  -6   1  495.35   18.60
   0  -6   1  453.25   14.90
   0  -6   1  463.15   18.10
  -2  -8   0    5.30    3.00
  -4 -10  -1  368.16   18.90
   7   2   5    1.30    2.70
   7   2   5   -0.10    1.80
  -7  -2  -5    1.20    2.70
   5   0   4 1032.90   30.10
   5   0   4 1059.49   32.80
  -5   0  -4 1062.19   32.60
   3  -2   3 1216.18   33.30
   3  -2   3 1153.18   32.70
   3  -2   3 1136.99   32.10
  -3   2  -3 1171.78   32.50
   1  -4   2  478.45   18.20
   1  -4   2  512.85   18.70
   1  -4   2  501.15   13.10
   1  -4   2  487.35   18.30
  -1  -6   1 1798.52   45.30
  -1  -6   1 1868.21   41.70
  -3  -8   0  439.66   19.30
  -5 -10  -1  330.17   18.60
   8   4   6 1171.28   41.00
  -8  -4  -6 1176.28   40.60
   6   2   5 1194.28   31.80
   6   2   5 1206.88   37.50
  -6  -2  -5 1238.08   37.40
   4   0   4 1113.09   32.40
   4   0   4 1098.79   31.90
   4   0   4 1080.19   29.10
  -4   0  -4 1094.79   21.10
  -4   0  -4 1056.19   31.30
  -4   0  -4 1066.89   20.90
  -4   0  -4 1076.39   29.30
   2  -2   3  166.38    9.50
   2  -2   3  137.09    8.60
   2  -2   3  154.08    9.40
  -2   2  -3  148.89   10.10
  -2   2  -3  152.18    4.20
  -2   2  -3  166.68    9.50
  -2   2  -3  138.49    8.60
   0  -4   2   60.59    4.30
   0  -4   2   53.89    6.80
   0  -4   2   65.29    7.50
  -2  -6   1  437.66   17.80
  -4  -8   0   58.79    8.50
  -6 -10  -1  151.98   15.50
   7   4   6   80.39   10.90
  -7  -4  -6   89.09   11.70
   5   2   5  154.78    8.40
   5   2   5  151.18   10.60
  -5  -2  -5  154.38   10.60
  -5  -2  -5  167.98    7.40
   3   0   4    1.60    1.50
   3   0   4   -0.20    1.40
   3   0   4   -0.10    1.50
  -3   0  -4    1.60    0.80
  -3   0  -4    7.60    2.90
  -3   0  -4    1.10    1.30
   1  -2   3 2139.79   49.90
   1  -2   3 2251.37   42.70
   1  -2   3 2214.18   48.40
   1  -2   3 2114.09   49.90
  -1   2  -3 2254.67   48.50
  -1   2  -3 2192.68   42.20
  -1  -4   2  747.63   20.10
  -1  -4   2  710.73   22.70
   1   4  -2  759.12   22.60
   1   4  -2  703.33   19.50
   1   4  -2  752.42   23.50
  -3  -6   1 1946.01   48.80
  -5  -8   0  410.16   19.90
   8   6   7    2.00    3.20
  -8  -6  -7   -2.30    2.60
   6   4   6  155.98   11.50
   6   4   6  127.39    6.70
  -6  -4  -6  127.89   12.60
   4   2   5 2083.39   50.89
   4   2   5 2130.29   44.80
  -4  -2  -5 2155.28   51.19
  -4  -2  -5 2140.69   45.00
   2   0   4 3014.60   62.29
   2   0   4 2749.43   61.19
  -2   0  -4 2782.72   61.19
  -2   0  -4 2785.02   61.29
  -2   0  -4 2830.12   57.99
  -2   0  -4 2915.41   54.19
   0  -2   3 5086.39  102.09
   0  -2   3 5037.20  102.39
   0  -2   3 5241.98   95.19
   0   2  -3 5065.49  102.29
   0   2  -3 5207.38   99.29
   0   2  -3 5173.58   94.89
  -2  -4   2    1.80    1.70
  -2  -4   2    0.70    1.30
   2   4  -2    1.70    1.50
   2   4  -2    0.80    1.50
   2   4  -2    1.20    1.50
  -4  -6   1   12.90    4.20
   4   6  -1   12.90    3.60
  -6  -8   0   14.60    5.10
   7   6   7 1094.39   37.20
  -7  -6  -7 1126.89   37.70
   5   4   6 1956.40   49.99
  -5  -4  -6 2009.10   50.49
   3   2   5  602.54   20.00
   3   2   5  590.04   19.70
  -3  -2  -5  573.94   19.60
  -3  -2  -5  591.34   16.00
   1   0   4  958.50   22.10
   1   0   4  918.11   25.20
   1   0   4  948.81   25.70
  -1   0  -4  900.91   23.20
  -1   0  -4  936.21   25.50
  -1   0  -4  914.31   25.20
  -1   0  -4  942.11   21.60
  -1  -2   3   17.30    3.80
  -1  -2   3   15.40    2.90
   1   2  -3   16.40    3.00
   1   2  -3   13.00    3.40
  -3  -4   2  207.58   10.30
  -3  -4   2  205.48   11.40
   3   4  -2  197.78   11.30
   3   4  -2  210.88   10.30
  -5  -6   1  677.33   25.40
  -7  -8   0  746.93   30.60
   8   8   8   17.80    6.10
   6   6   7   12.30    4.10
  -6  -6  -7   22.00    5.70
   4   4   6  112.99    8.30
  -4  -4  -6   98.59    7.90
   2   2   5  963.30   26.10
   2   2   5 1003.70   26.40
  -2  -2  -5 1002.90   24.20
  -2  -2  -5  937.41   22.50
  -2  -2  -5  968.40   26.20
  -2  -2  -5  953.20   25.90
   0   0   4  503.15   16.60
   0   0   4  511.35   14.80
   0   0   4  531.75   16.50
   0   0  -4  502.65   16.40
   0   0  -4  494.15   14.50
  -2  -2   3 6862.91  124.49
  -2  -2   3 6393.06  129.19
   2   2  -3 6855.31  129.99
   2   2  -3 6551.94  124.29
  -4  -4   2 2705.23   62.39
   4   4  -2 2688.13   59.19
  -6  -6   1  438.06   20.80
   6   6  -1  446.06   19.30
  -8  -8   0   -2.00    2.90
   7   8   8  202.28   14.40
  -7  -8  -8  176.98   13.80
   5   6   7  992.40   30.70
  -5  -6  -7  957.90   30.50
   3   4   6 1029.60   28.60
  -3  -4  -6 1061.49   28.80
  -3  -4  -6 1060.09   21.40
   1   2   5 5652.83  106.09
   1   2   5 5485.75  106.39
  -1  -2  -5 5493.35  106.09
  -1  -2  -5 5468.85  103.49
  -1  -2  -5 5262.17  105.89
  -1   0   4  458.85   14.30
  -1   0   4  415.36   14.80
   1   0  -4  434.16   14.80
   1   0  -4  427.46   13.80
  -3  -2   3   50.69    5.70
  -3  -2   3   65.29    7.30
   3   2  -3   56.99    6.80
   3   2  -3   64.79    6.70
  -5  -4   2   49.80    7.20
   5   4  -2   50.79    7.00
  -7  -6   1    4.70    3.40
   7   6  -1    5.70    3.00
   6   8   8   26.90    6.10
  -6  -8  -8   22.80    5.80
   4   6   7  315.07   14.30
  -4  -6  -7  301.07   14.30
   2   4   6    5.30    2.20
   2   4   6   13.00    3.10
  -2  -4  -6    8.30    2.60
   0   2   5  340.67   12.30
   0   2   5  359.36   12.10
   0  -2  -5  343.57   12.60
   0  -2  -5  345.87   12.20
  -2   0   4  104.09    6.70
   2   0  -4  110.79    6.90
   2   0  -4  116.29    6.90
  -4  -2   3  533.55   19.40
   4   2  -3  542.85   19.70
   4   2  -3  553.34   18.80
  -6  -4   2 2094.29   54.09
   6   4  -2 2044.00   50.89
  -8  -6   1  966.40   36.30
   8   6  -1  897.21   32.70
   5   8   8  172.08   11.40
  -5  -8  -8  158.38   11.10
   3   6   7 1296.47   33.00
  -3  -6  -7 1231.68   32.80
   1   4   6  409.46   13.10
   1   4   6  402.06   13.40
  -1  -4  -6  380.76   14.90
  -1  -4  -6  393.16   13.50
  -1   2   5 2051.89   44.10
  -1   2   5 2146.89   45.00
   1  -2  -5 2157.38   45.00
   1  -2  -5 2040.70   45.90
  -3   0   4 2510.55   53.59
  -3   0   4 2441.06   53.59
   3   0  -4 2502.75   54.09
   3   0  -4 2390.56   53.09
  -5  -2   3  213.08   12.10
   5   2  -3  208.08   11.50
   5   2  -3  200.78   11.80
  -7  -4   2  137.09   14.10
   7   4  -2  102.99   11.10
  -9  -6   1   56.49   10.60
  -6 -10  -9 1016.50   34.50
   4   8   8  278.97   13.70
  -4  -8  -8  330.47   15.10
   2   6   7  612.94   18.60
  -2  -6  -7  614.84   19.00
  -2  -6  -7  630.74   14.90
   0   4   6   21.80    2.90
   0   4   6   16.60    2.80
   0  -4  -6   14.00    3.40
   0  -4  -6   20.50    3.00
  -2   2   5   10.80    3.20
  -2   2   5    7.20    2.10
   2  -2  -5    5.60    2.10
   2  -2  -5    5.90    2.30
  -4   0   4  612.94   19.50
   4   0  -4  559.54   19.30
   4   0  -4  564.64   19.50
  -6  -2   3    6.90    3.10
   6   2  -3    2.30    2.20
  -8  -4   2  255.07   16.80
   8   4  -2  241.58   15.20
  -5 -10  -9   40.40    7.00
  -3  -8  -8  113.49    7.90
   1   6   7  507.55   14.90
   1   6   7  503.65   14.30
  -1  -6  -7  518.05   19.90
  -1  -6  -7  536.45   15.70
  -1   4   6 1698.83   34.70
  -1   4   6 1716.93   35.30
   1  -4  -6 1709.83   35.90
   1  -4  -6 1744.23   42.20
  -3   2   5  333.27   11.70
   3  -2  -5  328.47   14.10
   3  -2  -5  335.67   12.40
  -5   0   4 2013.10   48.10
   5   0  -4 2057.29   48.90
   5   0  -4 2029.60   48.80
  -7  -2   3  244.68   14.90
   7   2  -3  262.67   14.70
  -9  -4   2  435.46   23.50
   9   4  -2  384.56   20.50
  -4 -10  -9  890.81   28.00
  -2  -8  -8 1194.98   30.20
  -2  -8  -8 1240.78   27.70
   0   6   7 1245.08   25.00
   0   6   7 1330.67   25.60
   0  -6  -7 1250.17   35.80
  -2   4   6  626.14   14.70
  -2   4   6  650.03   14.80
   2  -4  -6  607.14   21.70
   2  -4  -6  666.53   16.50
  -4   2   5  330.37   12.10
   4  -2  -5  295.77   14.00
   4  -2  -5  308.87   12.50
  -6   0   4    3.80    2.70
   6   0  -4    3.80    2.80
   6   0  -4    0.80    2.20
  -8  -2   3   -1.50    2.70
   8   2  -3   -0.40    2.60
  -3 -10  -9  103.49    7.60
  -1  -8  -8  204.08   13.40
  -1  -8  -8  193.68    7.70
  -1  -8  -8  207.78    9.80
   1  -6  -7  324.57   15.90
  -3   4   6  368.16    9.60
  -3   4   6  352.26    9.60
   3  -4  -6  360.16   11.50
   3  -4  -6  339.17   15.80
  -5   2   5  287.77   12.20
   5  -2  -5  289.87   13.30
   5  -2  -5  329.47   15.40
   7   0  -4 1310.77   38.30
   9   2  -3  270.67   16.70
  -2 -10  -9   39.40    4.50
   0  -8  -8  659.93   26.00
   0  -8  -8  661.63   21.90
   2  -6  -7  706.53   25.50
   4  -4  -6 2335.37   56.49
   6  -2  -5   38.00    6.50
   8   0  -4   11.30    4.30
  -1 -10  -9  497.45   24.30
   1  -8  -8  318.47   15.70
   1  -8  -8  309.37   17.20
   3  -6  -7  239.38   14.60
   5  -4  -6   59.19    8.40
   7  -2  -5   13.70    4.90
   0 -10  -9    9.40    5.50
   2  -8  -8  124.39   13.40
   2  -8  -8   93.19   10.90
   4  -6  -7    7.90    3.90
   4  -6  -7   19.30    5.60
   6  -4  -6  572.94   23.80
   3  -8  -8  562.34   25.10
   3  -8  -8  550.84   24.80
   5  -6  -7  105.39   12.20
   5  -6  -7  112.79   13.90
   5  -5   2  410.16   22.80
   5  -5   2  372.16   20.00
   3  -7   1    1.60    2.90
   3  -7   1   -1.20    2.70
   1  -9   0   15.00    4.70
   1  -9   0    6.90    5.10
   6  -3   3   81.99   11.30
   6  -3   3   78.19   11.10
   4  -5   2   17.20    5.10
   4  -5   2   22.50    6.30
   2  -7   1   46.00    8.50
   2  -7   1   38.60    6.90
   0  -9   0   75.59    9.50
   7  -1   4  149.99   15.10
   7  -1   4  145.19   15.50
   5  -3   3  207.38   13.90
   5  -3   3  199.58   13.90
  -5   3  -3  189.18   13.10
   3  -5   2  353.36   18.40
   3  -5   2  352.16   17.30
   1  -7   1  241.98   15.10
   1  -7   1  238.18   13.60
  -1  -9   0   -0.30    2.40
  -3 -11  -1   20.50    5.90
   8   1   5    5.60    3.30
  -8  -1  -5   11.70    5.40
   6  -1   4    5.60    3.40
   6  -1   4    9.70    4.30
  -6   1  -4    1.80    3.10
   4  -3   3   76.89    9.50
   4  -3   3   79.69    9.80
   4  -3   3   70.79    9.30
  -4   3  -3   60.29    8.40
   2  -5   2    2.60    2.50
   2  -5   2    1.90    2.40
   2  -5   2    2.70    0.90
   2  -5   2    1.70    2.50
   0  -7   1    5.70    2.90
   0  -7   1    0.00    1.60
  -2  -9   0  140.69   10.90
  -4 -11  -1   51.19    9.10
   7   1   5   61.79    8.70
   7   1   5   53.89    9.40
  -7  -1  -5   57.29    9.50
   5  -1   4   16.40    4.90
   5  -1   4   18.80    4.70
  -5   1  -4   30.00    6.50
   3  -3   3  245.38   13.60
   3  -3   3  254.37   13.80
   3  -3   3  260.97   13.90
  -3   3  -3  254.57   13.60
   1  -5   2   88.89    9.70
   1  -5   2  105.29    8.50
   1  -5   2  117.69    5.80
   1  -5   2  107.29    8.60
  -1  -7   1  522.35   20.50
  -1  -7   1  482.15   19.80
  -3  -9   0   10.10    4.20
   8   3   6  344.67   20.80
  -8  -3  -6  298.67   19.50
   6   1   5  635.14   22.60
   6   1   5  683.23   26.70
  -6  -1  -5  640.94   25.80
   4  -1   4   88.09    9.40
   4  -1   4   88.39    9.80
  -4   1  -4   87.39    9.60
   2  -3   3   11.00    1.40
   2  -3   3    8.00    3.00
   2  -3   3    6.30    3.00
   2  -3   3    7.20    3.10
   0  -5   2  886.11   28.10
   0  -5   2  929.21   23.30
   0  -5   2  942.01   28.40
  -2  -7   1   28.10    5.60
  -4  -9   0   40.90    7.60
   7   3   6  107.39   13.10
   7   3   6  113.39    8.10
  -7  -3  -6  126.89   14.00
   5   1   5  409.66   18.70
   5   1   5  419.66   16.10
  -5  -1  -5  403.86   11.10
  -5  -1  -5  389.16   18.20
  -5  -1  -5  404.36   11.30
   3  -1   4 1257.17   35.20
   3  -1   4 1290.77   35.40
   3  -1   4 1272.57   33.20
  -3   1  -4 1260.97   23.30
  -3   1  -4 1249.38   34.70
   1  -3   3   80.89    4.40
   1  -3   3   88.39    9.00
   1  -3   3   92.69    9.00
   1  -3   3   68.79    7.90
  -1   3  -3   67.69    4.00
  -1  -5   2    7.50    2.90
  -1  -5   2   11.20    2.90
   1   5  -2    5.30    2.10
  -3  -7   1  623.24   23.70
  -5  -9   0   78.89   10.80
   8   5   7  287.17   18.70
  -8  -5  -7  276.77   18.40
   6   3   6  115.29    7.40
   6   3   6  123.99   12.90
  -6  -3  -6  109.29   11.90
   4   1   5  712.63   24.60
   4   1   5  715.13   21.20
  -4  -1  -5  728.73   17.80
  -4  -1  -5  730.73   21.50
  -4  -1  -5  715.03   24.50
   2  -1   4 1107.99   30.30
   2  -1   4 1008.40   29.60
   2  -1   4 1052.69   28.10
  -2   1  -4 1072.09   29.90
  -2   1  -4 1063.49   28.30
  -2   1  -4 1037.90   22.20
  -2   1  -4 1066.39   30.00
   0  -3   3 1678.73   41.90
   0  -3   3 1696.23   42.10
   0  -3   3 1744.63   36.40
   0   3  -3 1707.23   36.10
  -2  -5   2  405.56   17.30
  -2  -5   2  464.85   16.10
   2   5  -2  414.46   15.20
  -4  -7   1  339.77   17.20
  -6  -9   0   92.29   12.30
   7   5   7  389.86   20.60
  -7  -5  -7  421.36   21.20
   5   3   6    1.80    2.00
  -5  -3  -6   -0.70    1.90
   3   1   5   12.90    3.80
   3   1   5   11.70    3.40
  -3  -1  -5   27.10    3.30
  -3  -1  -5   13.10    2.90
  -3  -1  -5   12.60    3.70
   1  -1   4 3184.08   60.79
   1  -1   4 3131.39   68.09
   1  -1   4 3157.08   67.89
  -1   1  -4 3205.48   65.09
  -1   1  -4 3093.39   67.59
  -1   1  -4 3136.79   60.19
  -1  -3   3  499.25   15.20
  -1  -3   3  464.45   17.70
   1   3  -3  457.75   14.70
   1   3  -3  486.65   18.10
   1   3  -3  487.75   17.00
  -3  -5   2  895.81   28.50
   3   5  -2  879.51   25.80
  -5  -7   1   88.09   11.00
  -7  -9   0  326.17   20.20
   8   7   8  120.69   14.80
  -8  -7  -8  141.69   18.40
   6   5   7   28.60    6.40
  -6  -5  -7   27.10    5.90
   4   3   6  794.62   26.10
  -4  -3  -6  824.02   20.50
  -4  -3  -6  836.92   26.70
   2   1   5  119.59    7.90
   2   1   5  116.09    7.80
  -2  -1  -5  101.29    6.20
  -2  -1  -5  104.79    5.80
  -2  -1  -5  106.39    7.60
  -2  -1  -5   92.39    7.00
   0  -1   4   85.59    6.50
   0  -1   4   82.99    5.20
   0  -1   4   93.79    7.10
   0   1  -4   67.09    4.70
   0   1  -4   87.99    6.70
   0   1  -4   80.09    6.00
  -2  -3   3 2417.36   51.09
  -2  -3   3 2409.36   55.29
   2   3  -3 2395.46   55.19
   2   3  -3 2330.67   50.69
  -4  -5   2  911.01   29.60
   4   5  -2  881.01   27.00
  -6  -7   1  111.39   12.90
   7   7   8   36.00    7.60
  -7  -7  -8   41.90    8.20
   5   5   7   77.19    9.50
  -5  -5  -7   85.59    9.70
   3   3   6    9.90    3.10
  -3  -3  -6    3.10    1.30
  -3  -3  -6    0.50    1.60
   1   1   5  696.43   20.90
   1   1   5  669.03   20.70
  -1  -1  -5  691.03   21.10
  -1  -1  -5  664.43   20.60
  -1  -1  -5  686.23   18.60
  -1  -1   4  331.97   13.80
  -1  -1   4  324.07   11.90
   1   1  -4  330.77   13.60
   1   1  -4  330.37   11.90
  -3  -3   3  619.14   21.60
  -3  -3   3  589.34   19.30
   3   3  -3  642.14   22.00
   3   3  -3  597.94   19.40
  -5  -5   2  739.53   26.40
   5   5  -2  639.94   23.40
  -7  -7   1  465.85   23.40
   6   7   8  287.87   16.30
  -6  -7  -8  290.27   16.60
   4   5   7   64.79    8.10
  -4  -5  -7   58.09    7.40
   2   3   6  808.22   23.70
   2   3   6  816.22   23.60
  -2  -3  -6  773.02   22.50
  -2  -3  -6  816.62   19.70
  -2  -3  -6  829.22   23.90
   0   1   5   84.69    6.10
   0   1   5   91.89    6.60
   0   1   5   83.89    5.90
   0  -1  -5   90.69    6.40
   0  -1  -5   86.79    5.90
  -2  -1   4 1136.79   30.30
  -2  -1   4 1153.38   28.70
   2   1  -4 1124.49   30.10
   2   1  -4 1100.79   28.40
  -4  -3   3  208.28   12.00
   4   3  -3  224.88   12.40
   4   3  -3  201.68   11.00
  -6  -5   2  486.45   22.20
   6   5  -2  494.95   20.80
  -8  -7   1  122.29   15.50
   5   7   8  198.18   12.50
  -5  -7  -8  205.48   12.90
   3   5   7   57.99    6.80
  -3  -5  -7   56.19    2.60
  -3  -5  -7   53.79    6.60
   1   3   6    8.10    2.60
   1   3   6    8.20    2.40
  -1  -3  -6    4.80    2.30
  -1  -3  -6    5.40    2.10
  -1  -3  -6    7.60    2.50
  -1   1   5   23.30    4.00
  -1   1   5   27.40    4.30
  -1   1   5   12.00    3.00
   1  -1  -5   19.10    3.70
   1  -1  -5   22.00    3.80
  -3  -1   4  143.49    8.90
   3   1  -4  134.29    8.30
   3   1  -4  139.89    8.80
  -5  -3   3  185.58   11.90
   5   3  -3  170.88   10.80
  -7  -5   2   43.10    8.10
   7   5  -2   37.50    7.40
  -6  -9  -9  345.27   18.60
   4   7   8    0.50    1.90
  -4  -7  -8    1.50    2.00
   2   5   7  472.05   16.30
  -2  -5  -7  461.75   16.40
   0   3   6 1192.68   29.40
   0   3   6 1235.48   28.70
   0  -3  -6 1146.09   30.70
   0  -3  -6 1203.28   29.00
  -2   1   5  941.81   24.90
  -2   1   5  939.91   25.90
   2  -1  -5  890.51   24.80
   2  -1  -5  916.41   25.60
  -4  -1   4   43.30    6.10
   4   1  -4   46.60    6.30
   4   1  -4   51.89    6.80
  -6  -3   3  960.00   31.60
   6   3  -3  911.41   29.70
  -8  -5   2    6.80    4.10
   8   5  -2    5.60    3.70
  -5  -9  -9  632.74   24.30
   3   7   8  913.71   26.40
  -3  -7  -8  877.21   26.50
   1   5   7  172.38    8.30
   1   5   7  166.18    7.80
  -1  -5  -7  161.68    8.30
  -1  -5  -7  149.79    9.90
  -1   3   6   39.60    4.30
  -1   3   6   38.10    4.40
   1  -3  -6   38.10    4.40
   1  -3  -6   41.50    5.70
  -3   1   5    7.20    2.40
   3  -1  -5   22.90    4.10
   3  -1  -5    6.30    2.50
  -5  -1   4  265.47   13.70
   5   1  -4  287.27   14.10
   5   1  -4  276.87   14.10
  -7  -3   3   77.49   10.20
   7   3  -3   93.79   10.80
  -9  -5   2   48.80    9.90
   9   5  -2   45.90    8.70
  -4  -9  -9   10.20    3.60
   2   7   8  310.47   12.30
  -2  -7  -8  291.67   12.40
  -2  -7  -8  295.07    9.60
   0   5   7   57.49    3.90
   0   5   7   50.39    4.10
   0  -5  -7   57.29    7.50
  -2   3   6  195.68    8.20
  -2   3   6  207.98    8.50
   2  -3  -6  209.98    9.10
   2  -3  -6  189.78   11.00
  -4   1   5 2815.02   61.69
   4  -1  -5 2932.91   62.89
   4  -1  -5 2844.92   63.39
  -6  -1   4  220.18   12.90
   6   1  -4  229.18   13.20
   6   1  -4  244.98   13.90
  -8  -3   3  267.67   17.10
   8   3  -3  299.37   16.90
  -3  -9  -9  189.08   10.70
   1   7   8  948.51   23.20
  -1  -7  -8  896.91   24.00
  -1  -7  -8  995.80   31.50
  -1  -7  -8  996.80   24.90
  -1   5   7 2588.44   48.50
  -1   5   7 2467.05   47.90
   1  -5  -7 2417.36   58.19
   1  -5  -7 2555.34   50.09
  -3   3   6   53.29    5.10
   3  -3  -6   51.39    7.10
   3  -3  -6   63.79    5.10
  -5   1   5  260.37   12.40
   5  -1  -5  271.07   13.10
   5  -1  -5  275.47   14.20
  -7  -1   4   95.29   10.80
   7   1  -4  111.79   11.90
   9   3  -3   17.50    6.00
  -4 -11 -10  482.05   19.60
  -2  -9  -9  581.74   18.20
   0  -7  -8   27.50    6.20
   2  -5  -7   33.20    6.00
   2  -5  -7   36.70    2.90
  -4   3   6  446.76   14.30
   4  -3  -6  414.86   18.20
   4  -3  -6  463.15   15.70
   6  -1  -5  189.78   12.50
   8   1  -4  583.74   24.70
  -3 -11 -10   12.70    4.10
  -1  -9  -9    1.70    3.00
   1  -7  -8   20.00    5.20
   3  -5  -7 1480.65   42.50
   3  -5  -7 1597.74   32.20
   5  -3  -6  710.83   25.90
   7  -1  -5  787.82   28.70
   0  -9  -9  661.83   28.10
   0  -9  -9  687.43   23.50
   2  -7  -8  321.17   17.50
   4  -5  -7  515.45   22.20
   6  -3  -6   60.49    9.00
   8  -1  -5  127.79   13.30
   1  -9  -9   36.40    7.90
   1  -9  -9   61.89    8.90
   3  -7  -8   49.30    8.50
   3  -7  -8   29.50    6.40
   5  -5  -7  180.18   13.10
   7  -3  -6  377.86   19.50
   2  -9  -9  514.45   23.60
   2  -9  -9  526.05   25.10
   4  -7  -8  165.28   15.80
   4  -7  -8  144.99   15.10
   4  -6   2  480.65   24.60
   4  -6   2  426.16   21.40
   2  -8   1  299.97   16.80
   2  -8   1  336.17   20.30
   5  -4   3  134.79   14.40
   5  -4   3  131.29   14.70
   3  -6   2   65.89    9.30
   3  -6   2   56.49    9.70
   1  -8   1   54.49    9.70
   1  -8   1   58.59    8.80
  -1 -10   0  117.49   12.50
   6  -2   4  333.17   18.60
   6  -2   4  261.47   17.10
   4  -4   3  235.68   14.90
   4  -4   3  236.78   15.30
   2  -6   2  570.74   23.10
   2  -6   2  607.04   25.10
   0  -8   1  248.08   14.50
  -2 -10   0  563.44   24.20
   7   0   5  793.02   29.30
   7   0   5  825.32   32.60
  -7   0  -5  748.83   31.20
   5  -2   4  407.76   19.60
   5  -2   4  382.86   19.80
  -5   2  -4  434.86   20.10
   3  -4   3    3.00    3.10
   3  -4   3    2.30    2.60
   3  -4   3    3.00    2.70
   1  -6   2   88.49   10.30
   1  -6   2  104.79   11.40
  -1  -8   1   51.69    8.10
  -3 -10   0  281.47   16.90
  -8  -2  -6   32.50    8.60
   6   0   5   89.89   10.10
   6   0   5  110.49   12.90
  -6   0  -5   93.29   12.20
   4  -2   4  247.88   14.50
   4  -2   4  248.68   13.90
  -4   2  -4  265.37   14.70
   2  -4   3  476.05   10.60
   2  -4   3  484.35   20.10
   2  -4   3  492.25   20.20
   2  -4   3  444.36   19.30
   0  -6   2 1265.17   36.90
   0  -6   2 1287.07   30.70
   0  -6   2 1228.68   36.30
  -2  -8   1  230.98   14.20
  -4 -10   0  589.04   25.70
   7   2   6  425.66   18.20
   7   2   6  474.45   23.60
  -7  -2  -6  489.75   23.80
   5   0   5 1093.69   32.20
   5   0   5 1154.98   36.30
  -5   0  -5 1143.29   35.90
   3  -2   4 2997.50   68.19
   3  -2   4 2851.71   65.09
   3  -2   4 2937.21   67.79
  -3   2  -4 2888.71   67.19
   1  -4   3  409.36   17.90
   1  -4   3  418.56   12.30
   1  -4   3  397.46   17.60
  -1  -6   2  230.48   13.20
  -1  -6   2  206.78   10.40
  -1  -6   2  202.58   12.60
  -3  -8   1   50.59    8.10
  -5 -10   0   37.40    8.30
   8   4   7  775.42   33.30
  -8  -4  -7  817.72   34.00
   6   2   6  964.20   28.00
   6   2   6  948.71   33.60
  -6  -2  -6  986.50   33.90
   4   0   5   91.29    8.90
   4   0   5   87.09    9.80
  -4   0  -5   93.69    3.80
  -4   0  -5   77.89    9.40
   2  -2   4    3.40    2.40
   2  -2   4   16.60    4.10
   2  -2   4    3.50    2.30
  -2   2  -4    2.80    1.00
   0  -4   3   80.79    9.00
   0  -4   3   75.09    5.20
   0  -4   3   97.39    9.90
   0   4  -3   73.19    5.10
  -2  -6   2  972.60   31.00
  -4  -8   1  773.52   29.00
   7   4   7    6.20    3.70
  -7  -4  -7    9.60    4.50
   5   2   6  191.18   12.60
   5   2   6  155.38    9.00
  -5  -2  -6  171.88    8.10
  -5  -2  -6  164.38   11.70
   3   0   5   88.19    9.20
  -3   0  -5   88.39    6.80
  -3   0  -5   82.09    4.40
  -3   0  -5   80.29    8.90
   1  -2   4 2732.63   53.99
   1  -2   4 2769.22   62.69
   1  -2   4 2822.42   62.79
  -1   2  -4 2746.63   53.59
  -1   2  -4 2705.23   63.09
  -1  -4   3 2503.65   58.79
  -1  -4   3 2547.84   52.89
   1   4  -3 2457.75   52.29
  -3  -6   2 1259.37   37.40
   3   6  -2 1279.57   34.00
  -5  -8   1  142.19   14.60
   8   6   8  197.98   15.80
  -8  -6  -8  152.48   17.00
   6   4   7  332.67   18.00
  -6  -4  -7  285.27   16.70
   4   2   6 3084.89   71.69
  -4  -2  -6 3186.48   71.79
  -4  -2  -6 3167.68   64.39
  -4  -2  -6 3174.58   63.29
   2   0   5 1203.48   33.70
   2   0   5 1274.17   34.20
  -2   0  -5 1247.18   27.40
  -2   0  -5 1229.48   31.00
  -2   0  -5 1220.18   33.70
  -2   0  -5 1228.78   33.70
   0  -2   4  526.95   19.40
   0  -2   4  576.84   20.50
   0  -2   4  599.94   16.80
   0   2  -4  594.24   19.40
   0   2  -4  575.54   16.40
   0   2  -4  584.74   20.50
  -2  -4   3  126.19    9.30
  -2  -4   3  131.39    8.00
   2   4  -3  123.19    7.80
  -4  -6   2   15.60    4.80
   4   6  -2    7.30    3.30
  -6  -8   1  254.67   17.00
   7   6   8  418.66   21.50
  -7  -6  -8  358.26   20.20
   5   4   7   21.20    5.30
  -5  -4  -7   40.00    7.00
   3   2   6  307.07   14.40
  -3  -2  -6  302.17   14.30
  -3  -2  -6  291.37   11.30
  -3  -2  -6  318.47   11.90
   1   0   5    5.70    2.60
   1   0   5    9.70    2.40
   1   0   5    5.40    2.50
  -1   0  -5   11.20    3.40
  -1   0  -5    6.70    2.00
  -1   0  -5    4.00    2.10
  -1   0  -5    7.90    2.40
  -1  -2   4  367.56   15.60
  -1  -2   4  340.17   12.70
   1   2  -4  359.36   12.80
   1   2  -4  365.56   15.60
  -3  -4   3  871.11   28.20
   3   4  -3  833.92   25.10
  -5  -6   2 1033.10   34.40
   5   6  -2 1034.20   32.20
  -7  -8   1 1653.63   51.69
   6   6   8  828.42   30.10
  -6  -6  -8  764.22   29.30
   4   4   7  390.86   17.00
  -4  -4  -7  363.56   10.80
  -4  -4  -7  346.97   16.30
   2   2   6 1439.56   37.10
  -2  -2  -6 1482.35   37.20
  -2  -2  -6 1437.46   37.20
  -2  -2  -6 1412.06   32.90
  -2  -2  -6 1474.85   33.90
   0   0   5 2254.37   50.29
   0   0   5 2212.58   46.80
   0   0   5 2080.49   49.99
   0   0  -5 2273.97   50.69
   0   0  -5 2108.29   46.10
  -2  -2   4 1777.42   41.10
  -2  -2   4 1782.92   44.40
   2   2  -4 1758.02   40.90
   2   2  -4 1850.91   44.90
  -4  -4   3 1139.29   33.90
   4   4  -3 1023.10   30.40
  -6  -6   2  150.68   15.00
   6   6  -2  130.39   12.90
  -8  -8   1   10.20    5.70
  -7  -8  -9  302.67   18.40
   5   6   8  868.21   29.40
  -5  -6  -8  834.32   28.90
   3   4   7    6.10    2.90
  -3  -4  -7    5.30    2.60
  -3  -4  -7   14.70    2.40
   1   2   6   88.69    6.70
   1   2   6   91.79    6.60
  -1  -2  -6   80.09    6.50
  -1  -2  -6   89.59    6.80
  -1  -2  -6   77.29    6.00
  -1   0   5   31.30    5.20
  -1   0   5   20.30    3.80
  -1   0   5   32.70    4.60
   1   0  -5   32.10    5.10
   1   0  -5   31.60    4.50
  -3  -2   4   35.70    5.90
   3   2  -4   35.90    5.60
   3   2  -4   41.00    6.40
  -5  -4   3  437.66   19.90
   5   4  -3  468.55   19.20
  -7  -6   2   49.60    9.30
   7   6  -2   52.39    8.80
  -6  -8  -9  238.38   15.30
   4   6   8  170.78   11.10
  -4  -6  -8  206.58   12.30
   2   4   7  643.74   20.90
  -2  -4  -7  672.33   21.40
  -2  -4  -7  640.14   21.20
   0   2   6 1695.63   39.80
   0   2   6 1739.13   40.80
   0  -2  -6 1727.33   40.30
   0  -2  -6 1695.73   40.00
  -2   0   5 2016.80   46.70
  -2   0   5 1985.50   45.40
   2   0  -5 2002.30   46.60
   2   0  -5 1929.91   44.90
  -4  -2   4  453.75   18.50
   4   2  -4  443.16   18.40
   4   2  -4  429.96   17.30
  -6  -4   3 1257.27   39.00
   6   4  -3 1192.98   36.30
  -8  -6   2   62.49   10.80
   8   6  -2   56.59    9.60
  -5  -8  -9  470.85   20.70
   3   6   8 2045.50   48.40
  -3  -6  -8 1997.00   48.70
   1   4   7 1197.18   31.30
  -1  -4  -7 1267.87   33.60
  -1  -4  -7 1251.67   31.20
  -1  -4  -7 1247.78   31.70
  -1   2   6   10.40    2.70
  -1   2   6   14.50    3.20
  -1   2   6   20.30    4.20
   1  -2  -6   14.10    3.10
  -3   0   5   10.40    3.10
   3   0  -5    2.90    2.10
   3   0  -5    8.70    2.90
  -5  -2   4   36.00    6.30
   5   2  -4   45.70    7.00
   5   2  -4   30.80    6.10
  -7  -4   3  373.86   19.80
   7   4  -3  384.16   19.00
  -4  -8  -9    1.70    2.20
   2   6   8  355.06   14.20
  -2  -6  -8  363.76   14.60
  -2  -6  -8  370.36   16.90
   0   4   7    3.10    1.60
   0   4   7   -0.10    1.30
   0  -4  -7    2.60    2.10
   0  -4  -7    1.90    1.40
  -2   2   6  251.57   10.90
  -2   2   6  264.27   10.90
   2  -2  -6  269.57   12.80
   2  -2  -6  261.27   11.30
  -4   0   5 2062.49   49.50
   4   0  -5 2182.78   50.49
   4   0  -5 2037.20   49.70
  -6  -2   4  436.16   19.60
   6   2  -4  407.66   18.60
  -8  -4   3  482.35   24.40
   8   4  -3  506.85   23.30
  -5 -10 -10   11.90    4.70
  -3  -8  -9  147.79    9.70
   1   6   8 1046.20   26.40
  -1  -6  -8  981.80   31.20
  -1  -6  -8 1003.40   26.70
  -1   4   7 2866.11   57.89
  -1   4   7 2886.31   58.89
   1  -4  -7 2852.21   64.29
   1  -4  -7 2925.81   59.39
  -3   2   6 1431.66   34.30
   3  -2  -6 1389.46   35.10
   3  -2  -6 1418.96   37.50
  -5   0   5  310.57   14.80
   5   0  -5  320.67   15.20
   5   0  -5  352.26   16.50
  -7  -2   4   93.19   11.40
   7   2  -4   96.89   11.50
   9   4  -3   22.10    6.60
  -4 -10 -10  520.95   20.90
  -2  -8  -9 1008.80   28.00
  -2  -8  -9 1061.49   34.80
   0   6   8    6.00    1.80
   0   6   8    7.90    1.80
   0  -6  -8    1.50    2.30
  -2   4   7   56.69    4.00
  -2   4   7   50.59    3.90
   2  -4  -7   51.69    5.20
   2  -4  -7   43.80    6.80
  -4   2   6  765.02   22.70
   4  -2  -6  787.42   23.80
   4  -2  -6  785.82   26.20
  -6   0   5  177.38   11.30
   6   0  -5  170.18   12.10
   8   2  -4  410.36   20.80
  -3 -10 -10   38.80    5.90
  -1  -8  -9   40.30    5.30
  -1  -8  -9   42.80    7.80
   1  -6  -8    2.30    2.40
  -3   4   7  978.70   23.00
  -3   4   7  959.40   24.40
   3  -4  -7  984.90   31.20
   3  -4  -7 1004.30   25.10
   5  -2  -6 1315.77   38.30
   7   0  -5  984.90   33.20
  -2 -10 -10   68.89    5.50
  -2 -10 -10   60.19   10.40
   0  -8  -9  799.12   25.30
   0  -8  -9  801.02   30.30
   2  -6  -8  385.46   19.00
   4  -4  -7  284.97   15.80
   6  -2  -6  128.09   12.90
   8   0  -5  203.08   14.60
  -1 -10 -10   72.59   11.60
   1  -8  -9   30.20    6.00
   1  -8  -9   38.10    7.90
   3  -6  -8   20.80    5.50
   5  -4  -7   71.59    9.80
   7  -2  -6  137.99   14.50
   0 -10 -10   88.49   12.90
   2  -8  -9  294.57   18.10
   2  -8  -9  313.97   17.20
   4  -6  -8   91.99   11.90
   6  -4  -7  334.47   18.60
   3  -8  -9    1.40    3.20
   3  -8  -9    8.70    4.60
   5  -6  -8   25.70    6.60
   3  -7   2   25.80    6.60
   6  -3   4   15.80    6.00
   4  -5   3   64.29    9.80
   2  -7   2  313.27   19.10
   2  -7   2  297.07   17.00
   0  -9   1   24.60    6.20
   7  -1   5  504.75   23.90
   5  -3   4   50.99    8.80
   5  -3   4   47.60    8.70
   3  -5   3  236.98   15.60
   3  -5   3  276.37   16.20
   1  -7   2    6.40    3.50
  -1  -9   1   37.40    7.50
   6  -1   5  326.57   17.40
   6  -1   5  286.47   17.90
  -6   1  -5  259.37   16.80
   4  -3   4   -2.90    1.90
   4  -3   4   -3.10    1.70
  -4   3  -4   -1.00    2.50
   2  -5   3   19.60    5.50
   2  -5   3   20.10    5.20
   0  -7   2  526.95   22.30
  -2  -9   1   79.29   10.60
   7   1   6    1.80    3.10
   7   1   6   -0.10    2.50
  -7  -1  -6    2.40    3.50
   5  -1   5  265.77   16.30
   5  -1   5  247.18   14.30
  -5   1  -5  227.58   14.70
   3  -3   4 1526.15   44.30
   3  -3   4 1615.84   43.40
   1  -5   3   37.40    6.80
   1  -5   3   14.90    4.40
   1  -5   3   14.30    2.70
  -1  -7   2   94.49   11.00
  -3  -9   1  268.27   16.50
  -8  -3  -7  229.08   17.50
   6   1   6  164.98   13.20
   6   1   6  160.38   10.80
  -6  -1  -6  163.58   13.00
   4  -1   5  359.96   16.30
   4  -1   5  348.87   17.70
  -4   1  -5  335.37   17.10
   2  -3   4  357.46   17.40
   2  -3   4  401.96   18.20
   2  -3   4  376.86   17.00
   0  -5   3  570.04   22.80
   0  -5   3  636.94   18.30
   0  -5   3  588.44   22.80
  -2  -7   2    0.90    2.10
  -4  -9   1  120.29   13.80
   7   3   7  176.38   17.80
  -7  -3  -7  188.58   14.80
   5   1   6  131.39   13.70
   5   1   6  142.49    9.40
  -5  -1  -6  134.59    5.90
  -5  -1  -6  109.09   12.00
   3  -1   5  416.06   18.90
   3  -1   5  414.36   17.10
  -3   1  -5  465.45   19.40
  -3   1  -5  430.76   10.70
   1  -3   4  663.73   17.40
   1  -3   4  615.04   23.10
   1  -3   4  656.63   23.80
  -1   3  -4  645.94   16.70
  -1  -5   3  965.80   30.50
  -1  -5   3  937.01   25.40
  -1  -5   3  886.51   29.50
   1   5  -3  903.81   25.00
  -3  -7   2  255.57   15.30
  -5  -9   1   28.90    7.20
   8   5   8   24.70    7.40
  -8  -5  -8   24.30    7.40
   6   3   7   11.50    4.70
  -6  -3  -7   19.90    5.90
  -6  -3  -7   17.00    3.60
   4   1   6  980.30   31.50
  -4  -1  -6  887.71   30.20
  -4  -1  -6  955.00   22.70
   2  -1   5   30.20    5.70
  -2   1  -5   31.20    5.60
  -2   1  -5   41.50    4.00
   0  -3   4   32.80    6.00
   0  -3   4   24.70    3.70
   0  -3   4   23.70    5.20
   0   3  -4   23.30    3.60
  -2  -5   3  595.74   22.70
   2   5  -3  557.84   19.10
  -4  -7   2  877.21   31.70
   4   7  -2  883.61   29.20
  -6  -9   1   19.30    6.50
   7   5   8   79.39   11.60
  -7  -5  -8   78.49   11.40
   5   3   7  420.96   20.00
  -5  -3  -7  453.35   20.60
  -5  -3  -7  449.86   15.90
   3   1   6   40.80    6.80
  -3  -1  -6   38.60    5.30
  -3  -1  -6   31.00    5.80
  -3  -1  -6   37.50    4.40
   1  -1   5  585.94   21.00
   1  -1   5  553.04   20.80
   1  -1   5  581.44   16.70
  -1   1  -5  599.74   23.60
  -1   1  -5  550.54   19.10
  -1   1  -5  538.55   15.80
  -1  -3   4  732.23   21.00
  -1  -3   4  740.43   24.40
  -1  -3   4  706.63   24.50
   1   3  -4  679.33   20.20
  -3  -5   3  189.58   12.50
   3   5  -3  205.58   11.20
  -5  -7   2  310.27   17.80
   5   7  -2  284.57   15.60
   6   5   8  109.49   12.70
  -6  -5  -8  118.29   13.10
   4   3   7   83.39    9.70
  -4  -3  -7  105.89   10.60
  -4  -3  -7   82.29    5.80
  -4  -3  -7   71.89    7.00
   2   1   6  210.38   11.80
  -2  -1  -6  206.18   11.60
  -2  -1  -6  195.68   11.40
  -2  -1  -6  233.68    9.60
  -2  -1  -6  217.88   10.30
   0  -1   5  171.48   10.20
   0  -1   5  147.19    9.90
   0  -1   5  192.08    8.90
   0   1  -5  172.18   10.50
   0   1  -5  166.58    8.20
  -2  -3   4   12.10    3.30
  -2  -3   4    4.00    2.80
   2   3  -4    4.90    2.20
  -4  -5   3   16.30    4.90
   4   5  -3   17.40    4.30
  -6  -7   2  507.55   24.60
   6   7  -2  574.24   23.80
   7   7   9   12.90    5.10
  -7  -7  -9   19.20    6.10
   5   5   8   56.69    8.40
  -5  -5  -8   52.79    8.10
   3   3   7  858.51   27.40
  -3  -3  -7  850.91   24.60
  -3  -3  -7  825.92   27.30
  -3  -3  -7  899.01   22.50
   1   1   6  791.12   24.90
   1   1   6  807.62   27.10
  -1  -1  -6  785.22   24.40
  -1  -1  -6  790.12   24.70
  -1  -1  -6  745.43   22.00
  -1  -1  -6  762.02   21.60
  -1  -1   5   44.90    5.60
  -1  -1   5   41.60    6.40
  -1  -1   5   32.00    5.30
   1   1  -5   45.70    6.70
   1   1  -5   35.90    4.90
  -3  -3   4  626.84   23.10
   3   3  -4  601.34   20.60
  -5  -5   3   14.70    4.60
   5   5  -3   11.30    3.90
  -7  -7   2   93.39   13.00
   7   7  -2  102.99   12.60
   6   7   9 1112.19   37.10
  -6  -7  -9 1111.69   37.20
   4   5   8  139.89   10.30
  -4  -5  -8  154.08    5.40
  -4  -5  -8  150.98   10.80
   2   3   7   13.60    3.60
  -2  -3  -7   19.40    4.00
  -2  -3  -7   18.80    4.20
  -2  -3  -7   18.00    3.20
  -2  -3  -7   12.50    3.40
   0   1   6    8.50    3.10
   0   1   6    1.20    1.60
   0   1   6    1.40    1.60
   0  -1  -6    2.20    1.80
   0  -1  -6    3.60    2.20
  -2  -1   5  221.58   11.20
  -2  -1   5  216.38   11.90
   2   1  -5  229.88   11.10
   2   1  -5  218.98   11.90
  -4  -3   4   42.00    7.00
   4   3  -4   32.80    5.70
  -6  -5   3   42.90    8.30
   6   5  -3   53.39    8.30
  -8  -7   2  134.49   16.20
   8   7  -2  138.59   15.50
   5   7   9   18.90    4.80
  -5  -7  -9   25.90    6.10
   3   5   8  694.73   23.60
  -3  -5  -8  673.13   23.40
  -3  -5  -8  667.43   23.40
  -3  -5  -8  701.73   16.80
   1   3   7   58.29    6.90
  -1  -3  -7   50.59    6.50
  -1  -3  -7   44.30    5.90
  -1  -3  -7   50.99    6.30
  -1   1   6 1318.47   34.80
  -1   1   6 1357.86   34.10
  -1   1   6 1284.07   33.90
   1  -1  -6 1350.86   33.90
   1  -1  -6 1338.67   34.40
  -3  -1   5  495.65   19.30
   3   1  -5  503.95   18.60
   3   1  -5  537.75   19.70
  -5  -3   4  741.63   27.40
   5   3  -4  833.22   27.20
  -7  -5   3   23.60    6.70
   7   5  -3   33.00    7.20
  -6  -9 -10   69.39   10.20
   4   7   9  810.52   27.10
  -4  -7  -9  779.22   27.20
   2   5   8 1814.82   44.10
  -2  -5  -8 1845.02   45.90
  -2  -5  -8 1809.32   44.60
   0   3   7  883.01   25.50
   0  -3  -7  880.31   24.80
   0  -3  -7  881.81   26.20
  -2   1   6  663.43   21.60
   2  -1  -6  694.23   22.10
   2  -1  -6  713.33   22.50
  -4  -1   5  107.29   10.80
   4   1  -5  129.29    9.40
   4   1  -5  138.79    9.90
  -6  -3   4   17.50    5.20
   6   3  -4   18.90    5.10
  -8  -5   3   83.39   12.70
   8   5  -3   70.29   10.80
  -5  -9 -10  228.68   14.70
   3   7   9  195.58   11.30
  -3  -7  -9  195.68   11.50
   1   5   8   12.20    3.20
  -1  -5  -8   13.80    3.30
  -1  -5  -8   12.90    4.00
  -1   3   7 1511.65   36.30
   1  -3  -7 1530.85   36.20
   1  -3  -7 1417.66   38.20
  -3   1   6    7.00    2.60
   3  -1  -6   28.50    4.90
   3  -1  -6    2.50    2.00
  -5  -1   5  132.79   10.00
   5   1  -5  117.99   11.70
   5   1  -5  145.19   10.60
  -7  -3   4 1224.48   40.00
   7   3  -4 1265.07   39.30
  -4  -9 -10   21.40    5.10
  -2  -7  -9   92.69    7.30
  -2  -7  -9   76.69    9.80
   0   5   8  929.21   24.70
   0  -5  -8  954.90   24.80
   0  -5  -8  909.21   29.30
  -2   3   7 1180.68   29.50
   2  -3  -7 1118.39   33.20
   2  -3  -7 1171.48   29.90
  -4   1   6 1766.92   43.90
   4  -1  -6 1835.62   46.50
   4  -1  -6 1836.02   45.10
  -6  -1   5  268.17   15.00
   6   1  -5  277.87   15.50
  -8  -3   4    9.90    5.70
   8   3  -4    2.90    3.70
  -3  -9 -10  456.55   18.50
  -3  -9 -10  482.85   23.40
  -1  -7  -9  279.87   16.00
  -1   5   8 1000.20   24.30
   1  -5  -8  954.70   31.10
   1  -5  -8 1046.20   25.40
  -3   3   7    4.70    2.20
   3  -3  -7    0.20    2.20
   3  -3  -7    3.60    2.10
  -5   1   6   37.80    5.80
   5  -1  -6   43.90    7.50
   7   1  -5  157.58   12.20
  -2  -9 -10  184.78   10.00
  -2  -9 -10  194.18   14.80
   0  -7  -9  114.19   12.30
  -2   5   8   68.79    3.80
   2  -5  -8   73.69    9.70
   2  -5  -8   73.19    5.10
   4  -3  -7   45.60    7.30
   6  -1  -6  605.34   24.80
   8   1  -5  676.93   28.30
  -1  -9 -10  732.53   30.20
   1  -7  -9  228.28   14.90
   3  -5  -8  534.05   23.10
   5  -3  -7  501.35   22.20
   7  -1  -6   99.79   12.50
   0  -9 -10  195.48   15.10
   2  -7  -9    1.10    2.40
   4  -5  -8    1.30    2.80
   6  -3  -7   47.20    8.60
   1  -9 -10  325.37   19.70
   1  -9 -10  345.57   17.80
   3  -7  -9  847.22   32.70
   5  -5  -8  382.46   20.40
   5  -4   4   85.79   12.40
   5  -4   4   83.59   12.40
   3  -6   3  811.32   32.40
   3  -6   3  752.12   30.00
   1  -8   2  118.09   13.30
   6  -2   5  639.64   27.60
   6  -2   5  679.53   30.30
   4  -4   4  513.45   23.70
   4  -4   4  471.45   23.00
   2  -6   3  411.26   20.30
   0  -8   2   25.70    6.40
   7   0   6  156.08   15.20
  -7   0  -6  137.69   15.90
   5  -2   5    3.30    3.20
   5  -2   5    1.30    2.70
  -5   2  -5    6.00    4.20
   3  -4   4  210.98   14.50
   3  -4   4  228.98   14.70
   1  -6   3  346.57   18.40
  -1  -8   2  283.37   16.60
  -3 -10   1  444.46   23.20
   6   0   6   16.90    4.80
   6   0   6   12.50    5.00
  -6   0  -6    6.70    4.10
   4  -2   5  902.91   30.60
   4  -2   5  933.51   32.80
  -4   2  -5  967.70   32.80
   2  -4   4  629.24   25.10
   0  -6   3 1888.11   51.19
  -2  -8   2  519.85   23.60
   7   2   7  747.53   31.90
  -7  -2  -7  717.43   31.00
   5   0   6  609.94   26.10
   5   0   6  632.84   23.30
  -5   0  -6  646.04   26.50
   3  -2   5 1345.07   40.00
  -3   2  -5 1288.67   38.90
   1  -4   4   19.90    3.20
   1  -4   4   22.60    5.30
  -1   4  -4   10.50    2.30
  -1  -6   3   57.89    8.50
  -3  -8   2    5.70    3.70
   6   2   7   92.59   12.30
  -6  -2  -7  114.89   13.50
   4   0   6    5.70    3.30
  -4   0  -6    3.90    1.30
  -4   0  -6   13.40    4.40
   2  -2   5  318.47   16.40
  -2   2  -5  313.37    9.80
   0  -4   4  268.67   11.10
   0  -4   4  276.27   15.10
   0   4  -4  259.77   10.70
  -2  -6   3  885.71   30.90
   2   6  -3  913.01   26.80
  -4  -8   2 1740.73   51.19
   7   4   8  152.18   16.40
  -7  -4  -8  150.38   16.30
   5   2   7  875.41   31.40
  -5  -2  -7  864.91   22.70
  -5  -2  -7  794.12   30.20
   3   0   6  223.78   13.60
  -3   0  -6  227.78    8.70
  -3   0  -6  253.37   14.20
   1  -2   5 1997.00   42.70
   1  -2   5 2026.10   51.29
  -1   2  -5 1985.10   42.00
  -1  -4   4  979.50   26.70
  -1  -4   4  943.41   31.40
   1   4  -4 1033.80   26.90
  -3  -6   3   60.19    8.90
   3   6  -3   48.10    7.00
  -5  -8   2    2.00    3.70
   6   4   8  177.28   13.60
  -6  -4  -8  148.09    9.60
  -6  -4  -8  142.39   14.50
   4   2   7  325.77   16.90
  -4  -2  -7  350.86   13.00
  -4  -2  -7  331.47   17.00
  -4  -2  -7  313.77   13.20
   2   0   6   20.40    4.70
  -2   0  -6   13.50    4.00
  -2   0  -6   12.20    2.70
   0  -2   5  125.79    7.40
   0  -2   5   87.79    9.70
   0   2  -5  115.69    6.90
  -2  -4   4  569.44   22.60
   2   4  -4  533.25   18.90
  -4  -6   3    7.90    4.10
   4   6  -3   10.20    4.00
  -6  -8   2  503.75   25.20
   7   6   9    2.80    3.90
  -7  -6  -9    8.50    5.10
   5   4   8   29.60    6.60
  -5  -4  -8   10.30    4.10
  -5  -4  -8   17.70    4.10
   3   2   7 1307.27   37.70
  -3  -2  -7 1308.57   32.70
  -3  -2  -7 1297.67   37.60
  -3  -2  -7 1349.36   32.50
   1   0   6 1172.38   29.80
   1   0   6 1212.28   34.50
  -1   0  -6 1186.18   29.10
  -1   0  -6 1208.38   34.30
  -1   0  -6 1200.68   31.80
  -1  -2   5  368.26   16.90
  -1  -2   5  382.06   14.50
   1   2  -5  337.47   13.50
  -3  -4   4 1348.67   39.30
   3   4  -4 1276.97   35.00
  -5  -6   3  491.35   23.50
   5   6  -3  552.24   22.50
  -7  -8   2  176.98   19.10
   6   6   9 1414.26   44.20
  -6  -6  -9 1445.36   45.00
   4   4   8  904.51   30.30
  -4  -4  -8  929.11   30.60
  -4  -4  -8  913.61   27.20
  -4  -4  -8  882.91   22.40
   2   2   7  715.43   24.60
  -2  -2  -7  734.23   24.80
  -2  -2  -7  781.32   25.30
  -2  -2  -7  740.13   21.60
  -2  -2  -7  729.33   21.70
   0   0   6  176.98   11.00
   0   0   6  203.38   10.20
   0   0  -6  205.28   11.60
   0   0  -6  179.28    9.30
  -2  -2   5   91.19   10.10
   2   2  -5   76.59    9.40
   2   2  -5   75.49    7.80
  -4  -4   4  249.48   14.80
   4   4  -4  232.38   13.00
  -6  -6   3   63.19   10.20
   6   6  -3   61.39    9.50
   5   6   9   -1.20    2.30
  -5  -6  -9    4.60    3.50
   3   4   8  222.98   12.70
  -3  -4  -8  198.68   11.30
  -3  -4  -8  209.78   12.50
  -3  -4  -8  207.28    8.90
   1   2   7   39.80    6.30
  -1  -2  -7   24.20    4.40
  -1  -2  -7   36.40    5.90
  -1  -2  -7   38.90    6.20
  -1   0   6 2398.96   56.69
  -1   0   6 2310.17   53.39
   1   0  -6 2497.65   56.59
   1   0  -6 2451.05   53.29
  -3  -2   5  813.62   27.50
   3   2  -5  832.52   27.90
   3   2  -5  806.52   25.50
  -5  -4   4 1148.79   37.30
   5   4  -4 1150.58   35.00
  -7  -6   3  208.18   16.20
   7   6  -3  264.87   16.80
  -6  -8 -10   10.20    5.00
   4   6   9  465.85   20.10
  -4  -6  -9  450.15   19.70
  -4  -6  -9  447.26   19.90
   2   4   8 2411.36   56.69
  -2  -4  -8 2377.86   56.59
  -2  -4  -8 2485.45   56.39
   0   2   7 1569.24   40.70
   0  -2  -7 1583.84   39.50
   0  -2  -7 1656.13   40.50
  -2   0   6 2015.60   50.39
   2   0  -6 2113.59   50.69
   2   0  -6 2145.69   49.00
  -4  -2   5   54.19    7.70
   4   2  -5   52.89    7.40
  -6  -4   4    2.70    2.80
   6   4  -4   -1.00    2.60
  -8  -6   3    2.20    4.00
   8   6  -3    1.50    3.50
  -5  -8 -10  842.92   30.70
   3   6   9  599.84   22.20
  -3  -6  -9  640.74   24.00
  -3  -6  -9  601.84   22.60
   1   4   8  183.98   10.40
  -1  -4  -8  160.88   10.40
  -1  -4  -8  163.68   10.00
  -1  -4  -8  174.68    9.90
  -1   2   7 1232.98   33.40
   1  -2  -7 1245.48   33.30
   1  -2  -7 1279.27   34.20
  -3   0   6   44.00    6.70
   3   0  -6   91.19    9.50
   3   0  -6   51.99    7.00
  -5  -2   5  319.87   16.50
   5   2  -5  263.17   14.80
  -7  -4   4  720.93   30.00
   7   4  -4  733.73   28.80
  -4  -8 -10    7.40    3.70
   2   6   9   46.60    6.40
  -2  -6  -9   51.29    6.80
  -2  -6  -9   62.29    8.80
   0   4   8  846.02   24.70
   0  -4  -8  859.41   24.70
   0  -4  -8  835.72   27.10
  -2   2   7  447.36   16.60
   2  -2  -7  402.16   17.50
   2  -2  -7  431.26   16.50
  -4   0   6 2750.32   63.39
   4   0  -6 2778.22   63.69
   4   0  -6 2650.43   62.89
  -6  -2   5  801.82   29.20
   6   2  -5  726.63   27.60
  -8  -4   4   44.80    9.10
   8   4  -4   52.79    9.30
  -3  -8 -10  708.43   28.00
  -3  -8 -10  664.13   24.10
   1   6   9  345.67   14.00
  -1  -6  -9  335.57   17.20
  -1   4   8 2516.55   55.09
   1  -4  -8 2566.74   60.29
   1  -4  -8 2551.54   55.59
  -3   2   7    9.90    3.20
   3  -2  -7   -0.60    1.70
   3  -2  -7    0.60    2.10
  -5   0   6  122.39    9.50
   5   0  -6  117.39   11.70
   5   0  -6  128.59   10.00
  -7  -2   5  109.89   12.80
   7   2  -5   92.29   12.00
  -4 -10 -11    9.30    3.90
  -2  -8 -10   40.30    7.80
  -2  -8 -10   41.90    6.20
   0  -6  -9  114.59   12.10
  -2   4   8   20.30    3.60
   2  -4  -8   21.80    5.00
   2  -4  -8   16.80    3.50
  -4   2   7   60.19    7.00
   4  -2  -7   50.49    7.70
   6   0  -6  365.56   18.90
   8   2  -5  888.41   33.70
  -3 -10 -11  107.79   10.20
  -1  -8 -10  751.62   30.00
   1  -6  -9  129.69   13.10
   3  -4  -8  758.52   27.80
   5  -2  -7  539.95   23.20
   7   0  -6   42.50    8.60
   0  -8 -10   41.20    8.40
   2  -6  -9   22.20    6.10
   4  -4  -8   28.70    6.50
   6  -2  -7   65.69    9.70
   1  -8 -10  247.68   16.80
   3  -6  -9  497.85   23.60
   5  -4  -8   75.59   10.70
   7  -2  -7  381.26   21.00
   2  -8 -10  102.79   13.20
   2  -8 -10  108.79   12.50
   4  -6  -9   80.69   11.50
   6  -4  -8  152.88   15.80
   4  -5   4  200.18   15.80
   2  -7   3   73.19   10.90
   5  -3   5   50.19    9.60
   5  -3   5   45.80    8.30
   3  -5   4  442.66   22.60
   3  -5   4  398.36   21.40
   1  -7   3    8.00    4.30
  -1  -9   2    5.40    4.30
   6  -1   6  146.89   14.40
   6  -1   6  152.18   16.50
  -6   1  -6  150.78   16.00
   4  -3   5   64.99    9.90
   4  -3   5   44.70    8.70
   2  -5   4  234.48   15.40
   0  -7   3  835.42   31.20
  -2  -9   2   75.49   11.10
   7   1   7  240.38   16.60
  -7  -1  -7  268.67   19.10
   5  -1   6  109.19   12.00
   5  -1   6  114.59   14.00
  -5   1  -6  121.39   13.60
   3  -3   5  247.08   15.70
   1  -5   4  344.77   18.30
  -1  -7   3  310.57   17.80
  -3  -9   2   52.29    9.50
   6   1   7    0.60    3.00
  -6  -1  -7   -4.10    2.30
   4  -1   6  389.06   19.90
  -4   1  -6  341.07   18.60
   2  -3   5   38.00    7.40
  -2   3  -5   35.10    3.40
   0  -5   4   86.69   11.00
   0  -5   4   85.49    7.80
   0   5  -4   84.19    6.20
  -2  -7   3   84.29   11.40
  -4  -9   2  538.45   25.90
   7   3   8   33.90    8.40
  -7  -3  -8   37.50    8.70
   5   1   7   96.19   12.30
  -5  -1  -7   87.19   11.50
   3  -1   6   16.50    4.90
  -3   1  -6   13.20    4.30
  -3   1  -6   17.80    2.50
   1  -3   5  303.97   11.50
   1  -3   5  304.67   16.70
  -1   3  -5  307.87   11.10
  -1  -5   4  110.69   11.90
   1   5  -4  140.49    8.70
  -3  -7   3  165.08   13.10
   3   7  -3  167.68   11.40
  -5  -9   2   28.30    7.90
   6   3   8   97.79   13.00
  -6  -3  -8  105.49   13.10
   4   1   7   80.99   10.60
  -4  -1  -7   99.69    6.00
  -4  -1  -7   94.99   11.20
   2  -1   6  373.36   18.40
  -2   1  -6  409.96   12.90
   0  -3   5  160.98    8.70
   0  -3   5  151.48   11.30
   0   3  -5  153.18    8.20
  -2  -5   4   86.99   10.60
   2   5  -4   77.39    8.10
  -4  -7   3  302.07   18.00
   4   7  -3  283.47   15.40
   7   5   9  151.98   17.10
  -7  -5  -9  178.08   18.00
   5   3   8  142.39   14.40
  -5  -3  -8  157.78    9.20
  -5  -3  -8  137.39   14.00
   3   1   7   50.79    8.00
  -3  -1  -7   40.90    4.90
  -3  -1  -7   52.89    8.10
   1  -1   6   47.90    7.80
   1  -1   6   46.80    5.50
  -1   1  -6   39.90    4.90
  -1  -3   5   27.80    5.90
   1   3  -5   33.60    5.10
  -3  -5   4  378.26   19.20
   3   5  -4  355.96   16.00
  -5  -7   3   48.80    9.30
   5   7  -3   42.90    7.80
   6   5   9  248.08   16.70
  -6  -5  -9  249.88   13.90
  -6  -5  -9  248.98   16.60
   4   3   8  305.37   16.60
  -4  -3  -8  278.77   16.00
  -4  -3  -8  299.17   12.40
  -4  -3  -8  292.77   13.10
   2   1   7   40.90    6.90
  -2  -1  -7   60.99    7.40
  -2  -1  -7   38.30    5.10
  -2  -1  -7   49.99    7.50
   0  -1   6  361.86   16.90
   0  -1   6  355.56   14.00
   0   1  -6  352.76   13.60
  -2  -3   5 1779.02   48.10
   2   3  -5 1772.92   43.00
  -4  -5   4    6.80    3.70
   4   5  -4   14.80    4.30
  -6  -7   3  118.39   14.40
   6   7  -3  121.69   13.70
   5   5   9  523.15   23.70
  -5  -5  -9  554.74   21.50
  -5  -5  -9  586.54   24.90
   3   3   8 1196.08   35.80
  -3  -3  -8 1189.68   30.20
  -3  -3  -8 1145.99   35.40
  -3  -3  -8 1187.58   31.90
   1   1   7  722.63   25.20
  -1  -1  -7  741.23   22.90
  -1  -1  -7  742.23   25.20
  -1  -1  -7  711.73   21.80
  -1  -1   6   88.19    9.90
   1   1  -6   91.89    7.10
   1   1  -6  104.79   10.70
  -3  -3   5    3.80    2.80
   3   3  -5    2.90    2.50
  -5  -5   4  200.38   14.70
   5   5  -4  221.88   13.90
  -7  -7   3   12.60    5.60
   7   7  -3   14.50    5.40
  -6  -7 -10  237.68   16.30
   4   5   9   67.89    9.40
  -4  -5  -9   91.59   10.00
  -4  -5  -9   78.99   10.20
   2   3   8  406.96   17.90
  -2  -3  -8  417.26   18.10
  -2  -3  -8  430.36   16.90
  -2  -3  -8  453.35   15.70
  -2  -3  -8  424.86   18.10
   0   1   7  137.99    9.90
   0  -1  -7  136.99    8.70
   0  -1  -7  142.59    9.90
  -2  -1   6  266.67   14.40
   2   1  -6  280.27   14.60
   2   1  -6  295.47   13.60
  -4  -3   5  985.20   33.50
   4   3  -5 1061.09   32.00
  -6  -5   4  625.64   27.70
   6   5  -4  652.73   26.20
  -5  -7 -10  196.68   14.10
  -5  -7 -10  214.58   14.30
   3   5   9   36.50    6.50
  -3  -5  -9   30.20    5.80
  -3  -5  -9   29.80    6.00
   1   3   8  237.98   12.80
  -1  -3  -8  236.28   12.40
  -1  -3  -8  257.17   13.00
  -1   1   7 3022.00   68.39
   1  -1  -7 3008.50   67.59
   1  -1  -7 3008.00   65.69
  -3  -1   6  595.44   22.90
   3   1  -6  608.74   23.20
   3   1  -6  597.34   21.70
  -5  -3   5  243.08   15.30
   5   3  -5  226.18   13.90
  -7  -5   4    1.70    3.70
   7   5  -4    6.80    4.00
  -4  -7 -10  214.38   14.00
  -4  -7 -10  215.28   14.30
   2   5   9 1055.59   31.40
  -2  -5  -9 1096.59   32.90
  -2  -5  -9 1014.20   31.20
   0   3   8   76.09    8.40
   0  -3  -8   84.29    9.20
   0  -3  -8   68.79    7.90
  -2   1   7   58.49    7.70
   2  -1  -7   43.40    6.60
   2  -1  -7   40.30    6.40
  -4  -1   6  753.12   26.90
   4   1  -6  775.62   26.80
   4   1  -6  792.32   27.40
  -6  -3   5  166.38   13.00
   6   3  -5  176.18   13.00
  -8  -5   4  295.67   19.90
   8   5  -4  319.87   19.90
  -5  -9 -11   83.19   12.10
  -5  -9 -11   87.39   11.50
  -3  -7 -10   11.30    3.90
  -3  -7 -10   10.20    4.50
   1   5   9    7.60    3.10
  -1  -5  -9    7.40    3.20
  -1   3   8   71.59    7.80
   1  -3  -8   74.29    8.60
   1  -3  -8   58.69    7.20
  -3   1   7  682.93   23.40
   3  -1  -7  665.83   23.40
   3  -1  -7  635.04   23.60
  -5  -1   6 1351.46   39.60
   5   1  -6 1314.37   39.20
  -7  -3   5  496.65   24.20
   7   3  -5  541.45   24.60
  -4  -9 -11  411.26   19.80
  -4  -9 -11  404.76   22.00
  -2  -7 -10  232.78   15.20
  -2  -7 -10  245.08   13.20
   0   5   9  996.00   28.00
   0  -5  -9  975.50   31.90
   0  -5  -9 1032.20   28.80
  -2   3   8  127.09    8.40
   2  -3  -8  127.19    8.60
   2  -3  -8  142.79   10.60
  -4   1   7  394.16   17.00
   4  -1  -7  386.66   17.60
   4  -1  -7  409.66   18.90
  -6  -1   6   90.59   11.00
   6   1  -6   81.09   10.60
   8   3  -5  252.07   17.30
  -3  -9 -11  147.89   10.60
  -3  -9 -11  114.49   13.80
  -1  -7 -10   10.60    4.40
   1  -5  -9  110.79   11.80
  -3   3   8   17.70    4.20
   3  -3  -8   16.10    4.60
   5  -1  -7    7.00    3.80
   7   1  -6  466.15   22.90
  -2  -9 -11   71.89   11.30
   0  -7 -10  305.97   18.00
   2  -5  -9  862.41   31.00
   4  -3  -8  455.65   21.20
   6  -1  -7   63.59    9.80
  -1  -9 -11  598.54   27.70
   1  -7 -10   66.29   10.10
   3  -5  -9   11.40    4.60
   5  -3  -8   56.79    9.30
   7  -1  -7   17.70    6.50
   2  -7 -10    2.40    3.40
   4  -5  -9  243.48   16.40
   6  -3  -8 1090.99   38.40
   3  -7 -10  919.11   35.60
   5  -5  -9   18.20    6.20
   4  -4   5   36.40    8.30
   2  -6   4   -2.80    2.60
   0  -8   3   44.00    8.80
   5  -2   6   61.89   10.40
  -5   2  -6   77.79   11.70
   3  -4   5   56.29    9.80
   1  -6   4  304.97   18.40
  -1  -8   3  683.33   29.00
   6   0   7  135.29   16.00
  -6   0  -7  121.69   14.80
   4  -2   6  623.94   27.60
   2  -4   5  814.72   31.30
   0  -6   4  516.85   24.10
  -2  -8   3   29.30    7.50
  -7  -2  -8  240.18   18.60
   5   0   7   10.30    4.80
  -5   0  -7    2.30    3.70
   3  -2   6   66.79   10.30
   1  -4   5   68.69    9.80
  -1   4  -5   59.49    5.70
  -1  -6   4   14.70    5.00
  -3  -8   3  379.26   21.20
   6   2   8  445.76   23.80
  -6  -2  -8  471.55   24.40
   4   0   7  678.43   27.70
  -4   0  -7  632.64   26.80
   2  -2   6  537.75   23.50
  -2   2  -6  533.65   15.30
   0  -4   5  807.12   23.40
   0  -4   5  794.52   29.70
   0   4  -5  780.62   22.50
  -2  -6   4  303.67   17.70
   2   6  -4  297.17   14.40
  -4  -8   3  668.33   29.30
   7   4   9  420.46   24.30
  -7  -4  -9  456.95   25.10
   5   2   8  640.14   27.30
  -5  -2  -8  576.14   26.10
   3   0   7  287.87   16.60
  -3   0  -7  298.47   16.60
  -3   0  -7  304.67   11.10
   1  -2   6   23.80    6.00
   1  -2   6   25.40    4.30
  -1   2  -6   32.90    4.60
  -1  -4   5  239.98   15.10
   1   4  -5  258.57   12.20
  -3  -6   4    0.50    2.60
   3   6  -4    2.40    2.50
  -5  -8   3  398.96   22.70
   6   4   9   94.79   12.80
  -6  -4  -9   82.39   11.90
   4   2   8   51.39    8.60
  -4  -2  -8   67.99    9.70
  -4  -2  -8   55.49    6.30
   2   0   7  454.55   20.90
  -2   0  -7  475.45   15.60
   0  -2   6  893.81   30.70
   0  -2   6  864.41   25.30
   0   2  -6  970.60   25.80
  -2  -4   5 1396.26   41.90
   2   4  -5 1318.27   35.90
  -4  -6   4  116.49   13.70
   4   6  -4  125.39   12.60
  -6  -8   3  409.66   23.60
   6   8  -3  385.06   21.30
   5   4   9  743.43   29.80
  -5  -4  -9  768.72   25.20
  -5  -4  -9  796.92   30.70
   3   2   8 1223.48   37.60
  -3  -2  -8 1245.48   31.70
  -3  -2  -8 1118.29   36.30
   1   0   7 2225.28   56.39
  -1   0  -7 2225.48   49.10
  -1  -2   6   73.59    9.70
   1   2  -6   80.19    8.00
  -3  -4   5  259.47   15.80
   3   4  -5  228.18   13.00
  -5  -6   4   72.99   11.20
   5   6  -4   72.59    9.80
   6   6  10  805.62   32.10
  -6  -6 -10  708.43   30.40
  -6  -6 -10  737.93   27.40
   4   4   9  596.14   25.00
  -4  -4  -9  630.64   25.70
  -4  -4  -9  592.04   21.60
   2   2   8  179.38   12.10
  -2  -2  -8  175.28   10.30
  -2  -2  -8  186.88   10.40
  -2  -2  -8  188.98   12.40
   0   0   7   67.09    8.70
   0   0  -7   72.49    7.60
  -2  -2   6   22.50    5.50
   2   2  -6   42.70    6.40
  -4  -4   5 1149.29   38.00
   4   4  -5 1117.39   34.40
  -6  -6   4  608.54   28.40
   6   6  -4  638.24   26.80
   5   6  10   22.20    6.30
  -5  -6 -10   43.20    8.30
  -5  -6 -10   25.80    5.90
   3   4   9  124.89   12.80
  -3  -4  -9  110.09   11.30
  -3  -4  -9  105.49    7.50
  -3  -4  -9  104.79   10.20
   1   2   8  385.26   17.50
  -1  -2  -8  361.56   15.50
  -1  -2  -8  353.76   16.70
  -1   0   7 2774.12   67.19
   1   0  -7 2924.21   67.39
   1   0  -7 2903.01   63.19
  -3  -2   6 1363.46   40.80
   3   2  -6 1384.26   38.00
  -5  -4   5  606.94   26.60
   5   4  -5  611.84   24.60
  -7  -6   4   15.50    6.00
   7   6  -4   12.20    5.80
   4   6  10  318.47   17.30
  -4  -6 -10  346.67   18.30
  -4  -6 -10  323.57   17.20
   2   4   9 1838.82   47.60
  -2  -4  -9 1703.83   46.70
  -2  -4  -9 1817.82   46.10
  -2  -4  -9 1805.32   41.70
   0   2   8  440.36   18.50
   0  -2  -8  452.85   18.60
   0  -2  -8  420.46   17.50
  -2   0   7   14.60    4.40
   2   0  -7   21.30    5.10
   2   0  -7   17.00    4.30
  -4  -2   6  317.27   17.10
   4   2  -6  299.37   15.80
  -6  -4   5   28.40    7.10
   6   4  -5   30.30    7.20
  -5  -8 -11  154.48   15.40
  -5  -8 -11  190.58   14.60
   3   6  10   39.40    6.90
  -3  -6 -10   35.40    6.60
  -3  -6 -10   31.60    6.60
   1   4   9   43.90    7.00
  -1  -4  -9   36.70    6.30
  -1  -4  -9   37.50    6.20
  -1   2   8    0.10    1.60
   1  -2  -8    1.60    2.20
   1  -2  -8   -1.10    1.90
  -3   0   7  417.66   18.60
   3   0  -7  425.96   18.90
   3   0  -7  388.76   17.70
  -5  -2   6  884.11   31.30
   5   2  -6  780.92   28.90
  -7  -4   5  581.74   27.80
   7   4  -5  578.94   26.20
  -4  -8 -11  507.15   23.00
  -4  -8 -11  567.94   25.50
  -2  -6 -10  179.38   12.70
  -2  -6 -10  203.48   12.40
   0   4   9  514.25   19.50
   0  -4  -9  528.15   21.50
   0  -4  -9  529.65   19.50
  -2   2   8  875.51   27.40
   2  -2  -8  906.01   28.00
   2  -2  -8  825.72   28.20
  -4   0   7  516.55   21.40
   4   0  -7  531.15   22.10
   4   0  -7  532.95   22.10
  -6  -2   6  219.78   15.00
   6   2  -6  212.78   14.60
  -8  -4   5  224.28   17.30
  -3  -8 -11  262.97   17.00
  -3  -8 -11  234.68   14.10
  -1  -6 -10   24.30    6.10
  -1   4   9    2.70    2.20
   1  -4  -9    6.80    3.60
  -3   2   8    0.30    1.80
   3  -2  -8   -0.20    2.00
  -5   0   7    5.30    3.20
   5   0  -7   -1.40    2.20
   7   2  -6  262.07   17.00
  -2  -8 -11   99.39   12.60
   0  -6 -10  298.27   17.10
   2  -4  -9  659.13   26.00
   4  -2  -8  633.94   25.50
   6   0  -7  107.99   13.00
  -1  -8 -11  555.24   25.80
   1  -6 -10  181.18   13.70
   3  -4  -9   23.20    5.80
   5  -2  -8    6.70    3.80
   7   0  -7  102.29   13.00
   0  -8 -11  201.28   15.30
   2  -6 -10    0.90    2.70
   4  -4  -9  149.99   15.20
   6  -2  -8  717.23   29.90
   1  -8 -11  345.37   21.10
   3  -6 -10  624.84   27.90
   5  -4  -9   81.49   11.70
   3  -5   5  107.59   14.10
   1  -7   4    2.40    3.60
   4  -3   6  222.38   16.80
   2  -5   5  212.38   15.60
   0  -7   4    0.70    3.30
   5  -1   7  157.18   17.10
  -5   1  -7  143.79   15.90
   3  -3   6   83.29   11.70
   1  -5   5    2.40    2.90
  -1  -7   4   88.29   12.30
   6   1   8    3.30    4.00
  -6  -1  -8   -1.80    3.20
   4  -1   7   26.10    6.90
  -4   1  -7   17.30    5.90
   2  -3   6    0.80    2.60
   0  -5   5  178.48   13.90
   0   5  -5  178.58    9.60
  -2  -7   4    0.00    2.60
   5   1   8  186.98   15.00
  -5  -1  -8  185.58   14.60
   3  -1   7   -0.90    2.40
   1  -3   6  544.85   24.40
  -1   3  -6  559.04   17.40
  -1  -5   5   37.10    7.90
   1   5  -5   62.39    7.40
  -3  -7   4   80.59   11.80
   3   7  -4   82.59    9.90
   6   3   9  545.75   27.30
  -6  -3  -9  603.34   28.30
   4   1   8  699.33   29.00
  -4  -1  -8  748.63   21.10
  -4  -1  -8  743.03   29.50
   2  -1   7   35.00    7.40
   0  -3   6   85.19   11.20
   0   3  -6   75.69    7.50
  -2  -5   5  323.37   18.60
   2   5  -5  330.47   15.30
  -4  -7   4    1.50    3.50
   4   7  -4    3.80    3.30
   5   3   9   25.20    7.00
  -5  -3  -9   22.90    6.30
  -5  -3  -9   21.10    4.50
   3   1   8  148.79   14.70
  -3  -1  -8  139.89   13.90
  -3  -1  -8  120.29    7.80
   1  -1   7 1119.89   36.20
   1  -1   7 1119.09   29.80
  -1   1  -7 1069.99   28.70
  -1  -3   6   91.69   11.50
   1   3  -6   79.49    8.20
  -3  -5   5  422.86   21.50
   3   5  -5  374.46   17.50
  -5  -7   4  422.16   23.60
   5   7  -4  424.86   21.10
   6   5  10  129.19   15.60
  -6  -5 -10  122.69   14.90
   4   3   9    0.90    2.90
  -4  -3  -9    0.00    1.70
  -4  -3  -9    7.10    3.90
   2   1   8 1505.25   44.20
  -2  -1  -8 1517.95   37.40
   0  -1   7  892.21   31.10
   0   1  -7  928.71   26.60
  -2  -3   6  602.24   25.70
   2   3  -6  705.13   23.40
  -4  -5   5   23.60    6.80
   4   5  -5   20.70    5.60
  -6  -7   4   61.19   11.60
   6   7  -4   60.69    9.80
   5   5  10  473.05   23.40
  -5  -5 -10  458.35   23.30
  -5  -5 -10  477.25   20.40
   3   3   9   51.79    8.50
  -3  -3  -9   38.90    6.20
  -3  -3  -9   41.10    7.20
   1   1   8  333.27   17.10
  -1  -1  -8  306.17   14.00
  -1  -1   7  521.45   22.60
   1   1  -7  544.35   19.80
  -3  -3   6  353.26   18.90
   3   3  -6  306.77   15.50
  -5  -5   5   30.30    7.50
   5   5  -5   22.90    6.10
   4   5  10   13.10    4.80
  -4  -5 -10   18.40    4.90
  -4  -5 -10    8.00    4.00
   2   3   9  369.76   18.40
  -2  -3  -9  377.66   16.60
  -2  -3  -9  359.16   17.90
   0   1   8   55.59    8.30
   0  -1  -8   43.50    6.20
  -2  -1   7  324.97   17.10
   2   1  -7  357.86   16.10
  -4  -3   6 1159.38   38.50
   4   3  -6 1130.29   35.30
  -6  -5   5  583.54   27.80
   6   5  -5  606.64   26.30
  -5  -7 -11  108.39   12.90
  -5  -7 -11   98.99   12.70
   3   5  10  816.62   28.80
  -3  -5 -10  781.72   28.60
  -3  -5 -10  739.13   27.00
   1   3   9  132.89   10.40
  -1  -3  -9  155.48   10.90
  -1  -3  -9  150.38   10.50
  -1   1   8  761.22   26.90
   1  -1  -8  742.43   25.10
   1  -1  -8  748.23   26.40
  -3  -1   7  276.17   15.80
   3   1  -7  261.27   14.40
  -5  -3   6   54.69    9.90
   5   3  -6   33.40    6.70
  -7  -5   5  116.79   15.10
   7   5  -5   86.79   12.20
  -4  -7 -11   21.60    6.00
  -4  -7 -11   19.20    5.50
   2   5  10  114.59   11.70
  -2  -5 -10  132.79   10.40
  -2  -5 -10  127.79   12.60
   0   3   9   15.50    4.30
   0  -3  -9   15.30    4.20
   0  -3  -9   15.50    4.40
  -2   1   8   26.40    5.70
   2  -1  -8   28.80    5.70
   2  -1  -8   18.90    4.90
  -4  -1   7   11.20    4.40
   4   1  -7    5.10    3.40
  -6  -3   6  169.08   16.80
   6   3  -6  199.48   14.50
  -3  -7 -11    3.60    3.20
  -3  -7 -11   10.70    4.50
   1   5  10 1038.00   32.30
  -1  -5 -10 1050.19   33.90
  -1   3   9  737.03   25.70
   1  -3  -9  789.52   27.80
   1  -3  -9  837.82   26.60
  -3   1   8  325.47   16.40
   3  -1  -8  352.96   17.40
   3  -1  -8  317.87   16.80
  -5  -1   7  341.87   18.60
   5   1  -7  361.36   18.90
  -7  -3   6   52.49   10.20
   7   3  -6   64.49   10.40
  -2  -7 -11  117.59   13.10
   0  -5 -10    5.20    3.30
  -2   3   9   19.60    4.50
   2  -3  -9   19.60    5.40
  -4   1   8    6.90    3.60
   4  -1  -8   12.70    4.70
   6   1  -7   53.79    9.20
  -1  -7 -11   53.59    9.40
   1  -5 -10   81.69   11.00
   3  -3  -9  909.91   32.10
   5  -1  -8  651.73   27.20
   7   1  -7  451.65   23.50
   0  -7 -11 1271.27   41.90
   2  -5 -10  267.97   16.90
   4  -3  -9  187.38   14.10
   6  -1  -8   49.00    9.20
   1  -7 -11   16.90    6.20
   3  -5 -10  252.87   17.20
   5  -3  -9   79.99   11.60
   2  -7 -11  831.52   37.20
   4  -5 -10  687.03   30.00
   3  -4   6  187.68   18.80
   1  -6   5  181.78   18.30
   4  -2   7  117.29   15.00
   2  -4   6   77.59   11.70
   0  -6   5    1.30    3.30
   5   0   8   -2.00    2.90
  -5   0  -8   -1.10    3.50
   3  -2   7  270.37   18.10
   1  -4   6 1208.88   40.80
  -1  -6   5  243.88   16.80
   1   6  -5  225.48   12.20
  -3  -8   4  392.26   23.20
   6   2   9  780.72   33.80
  -6  -2  -9  704.53   32.20
   4   0   8 1043.20   37.90
  -4   0  -8 1022.60   37.40
   2  -2   7  304.47   18.30
  -2   2  -7  309.77   11.90
   0  -4   6  234.88   16.10
   0   4  -6  223.58   11.40
  -2  -6   5   12.40    5.00
   2   6  -5   18.40    4.80
  -4  -8   4    8.60    4.80
   5   2   9   71.29   11.40
  -5  -2  -9   69.29   10.80
   3   0   8   20.30    6.00
  -3   0  -8   24.40    4.10
   1  -2   7  158.18    9.90
   1  -2   7  195.48   14.10
  -1   2  -7  169.38    9.30
  -1  -4   6  526.05   24.50
   1   4  -6  518.25   19.50
  -3  -6   5  641.44   29.00
   3   6  -5  669.63   25.10
   5   8  -4  463.75   23.10
   6   4  10   -2.00    2.50
  -6  -4 -10    0.20    3.50
   4   2   9   35.60    8.00
  -4  -2  -9   34.60    7.50
  -4  -2  -9   46.10    6.20
   2   0   8 1594.54   47.40
  -2   0  -8 1597.64   38.40
   0  -2   7  630.44   26.40
   0   2  -7  644.74   21.30
  -2  -4   6 1173.68   39.40
   2   4  -6 1106.59   33.10
  -4  -6   5  202.68   16.10
   4   6  -5  214.68   14.20
   5   4  10  693.73   29.80
  -5  -4 -10  669.43   23.80
  -5  -4 -10  679.03   29.50
   3   2   9  560.44   24.80
  -3  -2  -9  562.34   20.00
  -3  -2  -9  552.24   24.50
   1   0   8  847.52   31.10
  -1   0  -8  848.32   25.50
  -1  -2   7   58.99    9.50
   1   2  -7   32.60    5.70
  -3  -4   6  190.68   14.50
   3   4  -6  176.08   12.10
  -5  -6   5   64.59   11.50
   5   6  -5   68.99   10.50
   4   4  10   66.19   10.30
  -4  -4 -10   58.19    8.20
  -4  -4 -10   67.19   10.10
   2   2   9  181.68   13.10
  -2  -2  -9  171.08   10.60
   0   0   8  263.47   15.60
   0   0  -8  251.67   12.90
  -2  -2   7  405.96   20.30
   2   2  -7  388.16   17.40
  -4  -4   6  812.62   32.30
   4   4  -6  820.42   29.50
  -6  -6   5  858.71   36.00
   6   6  -5  824.02   32.40
  -5  -6 -11  124.09   13.00
  -5  -6 -11  157.78   16.30
   3   4  10  911.31   32.30
  -3  -4 -10  893.01   29.30
  -3  -4 -10  898.11   32.50
   1   2   9  268.47   15.50
  -1  -2  -9  247.78   13.40
  -1   0   8 1251.97   38.80
   1   0  -8 1241.28   35.20
  -3  -2   7  544.95   24.40
   3   2  -7  559.64   22.40
  -5  -4   6    3.90    4.20
   5   4  -6   12.80    4.80
  -4  -6 -11    4.70    3.90
  -4  -6 -11   10.90    4.60
   2   4  10  224.08   14.10
  -2  -4 -10  193.38   13.20
  -2  -4 -10  184.48   12.40
   0   2   9   30.60    6.40
   0  -2  -9   27.80    5.60
   0  -2  -9   31.60    7.10
  -2   0   8   15.20    4.90
   2   0  -8    6.20    3.40
  -4  -2   7  192.98   14.40
   4   2  -7  202.78   13.60
  -6  -4   6   65.99   11.40
   6   4  -6   66.09   10.20
  -3  -6 -11   29.00    6.90
  -3  -6 -11   32.30    7.10
   1   4  10 1034.20   33.10
  -1  -4 -10  997.10   32.50
  -1   2   9  687.03   25.30
   1  -2  -9  642.64   24.60
   1  -2  -9  638.04   24.40
  -3   0   8  149.59   11.60
   3   0  -8  144.39   11.00
  -5  -2   7  583.74   26.30
   5   2  -7  629.24   26.20
  -7  -4   6   94.79   14.10
  -4  -8 -12  795.32   32.50
  -2  -6 -11  119.79   12.90
   0   4  10  201.68   12.60
   0  -4 -10  211.48   13.90
  -2   2   9   16.20    4.60
   2  -2  -9   23.10    5.60
  -4   0   8   48.40    8.40
   4   0  -8   60.39    9.20
  -6  -2   7   45.20    9.10
   6   2  -7   33.80    7.60
  -3  -8 -12   25.40    7.00
  -3  -8 -12   20.90    5.70
  -1  -6 -11  177.28   13.60
   1  -4 -10    4.80    3.30
   3  -2  -9  991.40   33.60
   5   0  -8  336.97   19.20
  -2  -8 -12  367.06   21.70
   0  -6 -11 1194.08   39.80
   2  -4 -10  387.86   20.30
   4  -2  -9  290.67   17.60
   6   0  -8   47.30    9.30
   1  -6 -11    7.00    4.30
   3  -4 -10  660.93   28.00
   5  -2  -9    2.20    3.60
   2  -6 -11  505.25   25.30
   4  -4 -10  262.77   17.60
   3  -3   7   11.50    5.30
   1  -5   6  202.58   16.00
  -1  -7   5    3.30    4.00
   4  -1   8  327.47   21.00
   2  -3   7   34.30    8.10
   0  -5   6    3.00    3.30
  -2  -7   5  426.26   23.80
   5   1   9   92.19   13.10
  -5  -1  -9  117.99   15.00
   3  -1   8  322.47   19.80
   1  -3   7  901.81   34.70
  -1   3  -7  948.41   26.10
  -1  -5   6   -0.10    2.80
   1   5  -6    0.90    2.20
  -3  -7   5    2.60    3.80
   3   7  -5   -0.20    2.50
   4   1   9  218.58   16.40
  -4  -1  -9  163.38   16.50
   2  -1   8   41.50    8.40
  -2   1  -8   33.60    5.00
   0  -3   7  205.88   15.50
   0   3  -7  203.38   11.20
  -2  -5   6  388.16   21.90
   2   5  -6  400.86   18.00
  -4  -7   5    6.90    4.50
   4   7  -5    0.10    2.80
   5   3  10  168.38   17.80
  -5  -3 -10  162.18   17.50
   3   1   9   34.40    8.20
  -3  -1  -9   40.90    5.90
   1  -1   8   25.00    6.80
  -1   1  -8   33.10    5.30
  -1  -3   7 1084.79   38.40
   1   3  -7 1137.69   32.60
  -3  -5   6  723.33   30.70
   3   5  -6  632.54   25.10
  -5  -7   5  116.19   15.80
   5   7  -5  125.39   14.30
   4   3  10  160.48   16.90
  -4  -3 -10  108.69   13.60
  -4  -3 -10  125.89   11.60
   2   1   9  533.35   24.70
  -2  -1  -9  585.14   20.30
   0  -1   8  106.39   12.70
   0   1  -8   98.79    9.70
  -2  -3   7   21.70    6.50
   2   3  -7   25.70    5.70
  -4  -5   6   50.19   10.10
   4   5  -6   29.30    6.50
   5   5  11   21.30    6.50
  -5  -5 -11   13.10    6.40
  -5  -5 -11   17.40    5.30
   3   3  10   11.70    5.30
  -3  -3 -10   11.20    4.80
  -3  -3 -10   15.50    4.60
   1   1   9   16.10    5.20
  -1  -1  -9   15.70    4.40
  -1  -1   8   69.59   10.10
   1   1  -8   43.50    6.80
  -3  -3   7    3.10    3.50
   3   3  -7    2.90    2.90
  -5  -5   6  578.24   28.50
   5   5  -6  596.14   25.90
   4   5  11  241.98   16.60
  -4  -5 -11  251.77   15.00
  -4  -5 -11  234.48   16.20
   2   3  10  261.17   16.10
  -2  -3 -10  243.28   14.00
   0   1   9  485.95   22.10
   0  -1  -9  450.35   19.00
  -2  -1   8  400.36   20.40
   2   1  -8  400.16   18.40
  -4  -3   7   53.29    9.80
   4   3  -7   66.19    9.60
  -6  -5   6  135.79   16.50
   6   5  -6  149.29   15.80
  -3  -5 -11  123.39   12.70
  -3  -5 -11  106.79   12.50
   1   3  10    5.20    3.60
  -1  -3 -10    3.00    2.70
  -1   1   9   -3.40    1.30
   1  -1  -9    0.70    2.30
  -3  -1   8   43.20    8.30
   3   1  -8   39.60    7.20
  -5  -3   7   96.39   13.40
   5   3  -7  100.79   12.50
  -4  -7 -12  111.89   13.30
  -2  -5 -11   25.60    5.90
   0   3  10  202.48   13.40
   0  -3 -10  200.78   13.40
  -2   1   9  403.26   19.60
   2  -1  -9  358.36   18.00
  -4  -1   8 1357.66   43.00
   4   1  -8 1339.07   41.30
  -6  -3   7   35.30    8.60
   6   3  -7   27.00    7.10
  -3  -7 -12  928.51   33.40
  -3  -7 -12  886.61   34.00
  -1  -5 -11 1132.09   37.10
  -1   3  10  408.76   21.10
   1  -3 -10  418.06   20.20
  -3   1   9   99.59   11.60
   3  -1  -9  107.99   12.20
  -5  -1   8   40.10    8.20
   5   1  -8   38.70    8.40
  -2  -7 -12   -0.40    2.90
   0  -5 -11  121.49   13.50
   2  -3 -10    5.80    3.40
   4  -1  -9   -0.10    2.70
   6   1  -8  851.21   33.80
  -1  -7 -12  155.98   16.50
   1  -5 -11  423.86   21.90
   3  -3 -10 1851.11   52.69
   5  -1  -9  190.48   14.90
   2  -5 -11    5.50    3.90
   4  -3 -10   10.50    5.30
   2  -4   7   20.90    6.80
   3  -2   8  498.85   26.20
   1  -4   7 1225.88   43.40
  -1  -6   6  275.87   19.20
   4   0   9  700.13   32.20
   2  -2   8    2.70    3.70
   0  -4   7    2.90    3.70
   0   4  -7   -0.70    2.10
  -2  -6   6  137.59   16.70
   2   6  -6  136.69   13.10
   5   2  10   29.60    8.00
  -5  -2 -10   50.19   10.30
   3   0   9   84.09   12.30
   1  -2   8   97.09   12.90
  -1   2  -8  114.09    8.30
  -1  -4   7  760.72   31.70
   1   4  -7  719.13   25.20
  -3  -6   6  798.62   34.40
   3   6  -6  792.82   29.10
   4   2  10  157.08   17.50
  -4  -2 -10  163.48   17.30
   2   0   9  512.15   25.20
  -2   0  -9  563.94   19.80
   0  -2   8  435.06   23.00
   0   2  -8  473.45   18.70
  -2  -4   7  266.97   18.30
   2   4  -7  272.67   15.10
  -4  -6   6    5.60    4.50
   4   6  -6   -0.10    2.70
   5   4  11  223.88   17.40
   3   2  10    2.80    3.70
  -3  -2 -10   11.40    3.90
   1   0   9   48.60    9.10
  -1   0  -9   38.20    6.30
  -1  -2   8    8.70    4.30
   1   2  -8   10.80    3.90
  -3  -4   7   55.39   10.40
   3   4  -7   62.19    9.20
  -5  -6   6  440.16   25.50
   5   6  -6  418.26   22.00
   4   4  11  278.37   18.30
  -4  -4 -11  238.18   14.40
  -4  -4 -11  249.58   17.80
   2   2  10  612.84   27.00
  -2  -2 -10  578.24   22.20
   0   0   9  392.86   20.90
   0   0  -9  416.16   18.00
  -2  -2   8  461.25   23.50
   2   2  -8  505.35   21.30
  -4  -4   7  168.28   18.00
   4   4  -7  158.48   15.30
   3   4  11  244.38   16.80
  -3  -4 -11  268.87   15.40
  -3  -4 -11  242.68   16.70
   1   2  10   81.19   11.30
  -1  -2 -10   66.49    8.90
  -1   0   9   21.70    6.30
   1   0  -9   24.40    5.50
  -3  -2   8   61.69   10.60
   3   2  -8   74.49   10.10
  -5  -4   7    0.70    3.70
   5   4  -7   17.90    5.60
  -4  -6 -12  128.49   14.10
   2   4  11   78.49   11.00
  -2  -4 -11   79.29   10.60
   0   2  10  426.26   20.90
   0  -2 -10  421.36   19.50
  -2   0   9  575.64   25.60
   2   0  -9  599.14   24.00
  -4  -2   8  829.02   33.00
   4   2  -8  790.42   30.20
  -6  -4   7   52.19   11.00
  -3  -6 -12  661.43   27.50
  -3  -6 -12  644.74   27.70
  -1  -4 -11  628.64   25.60
  -1   2  10  631.24   25.90
   1  -2 -10  631.64   25.20
  -3   0   9    8.30    4.20
   3   0  -9   -0.50    2.50
  -5  -2   8   10.70    5.60
   5   2  -8   16.10    5.60
  -2  -6 -12  247.18   16.60
   0  -4 -11  295.67   17.50
   2  -2 -10   25.00    6.00
   4   0  -9    2.10    2.90
  -1  -6 -12   28.50    7.00
   1  -4 -11  277.57   17.20
   3  -2 -10 1176.28   39.10
   5   0  -9  263.77   17.80
   0  -6 -12  628.64   28.50
   2  -4 -11   21.20    6.10
   4  -2 -10    6.70    4.70
   3  -4 -11    9.10    4.60
   2  -3   8  115.29   14.90
   0  -5   7  329.27   21.90
   3  -1   9   62.29   11.40
   1  -3   8  154.58   17.20
  -1  -5   7    0.90    3.40
   1   5  -7    2.20    2.90
   4   1  10   71.89   12.80
   2  -1   9  168.48   18.30
   0  -3   8   90.39   13.50
   0   3  -8   81.59    9.10
  -2  -5   7   24.80    7.40
   2   5  -7   26.30    6.10
   3   1  10  355.76   21.80
   1  -1   9  423.46   22.60
  -1   1  -9  371.46   16.60
  -1  -3   8   67.99   11.40
   1   3  -8   83.49    9.90
  -3  -5   7  203.78   20.40
   3   5  -7  213.08   14.50
   4   3  11   16.10    6.90
  -4  -3 -11   10.50    5.90
   2   1  10    7.10    4.30
  -2  -1 -10    9.20    3.40
   0  -1   9    3.90    3.70
   0   1  -9    2.20    2.40
  -2  -3   8   25.50    7.50
   2   3  -8   19.20    4.90
  -4  -5   7    0.30    3.60
   4   5  -7   -3.60    2.60
   3   3  11    4.40    3.80
  -3  -3 -11    0.20    2.90
   1   1  10  122.39   14.30
  -1  -1 -10  127.39   10.00
  -1  -1   9  706.63   30.10
   1   1  -9  709.13   26.00
  -3  -3   8  171.08   18.10
   3   3  -8  202.48   14.00
  -5  -5   7  235.28   18.90
   5   5  -7  220.28   16.50
   2   3  11  597.84   27.00
  -2  -3 -11  594.54   23.90
   0   1  10   13.00    5.00
   0  -1 -10    5.30    3.20
  -2  -1   9   25.10    7.40
   2   1  -9    4.60    3.30
  -4  -3   8   80.79   13.00
   4   3  -8   60.69   10.00
  -3  -5 -12   23.00    6.00
   1   3  11   36.10    7.70
  -1  -3 -11   28.00    6.30
  -1   1  10  174.28   16.80
   1  -1 -10  153.18   11.90
  -3  -1   9  224.98   16.30
   3   1  -9  226.98   15.10
  -5  -3   8  410.56   24.00
   5   3  -8  451.55   23.00
  -2  -5 -12   81.19   11.30
   0  -3 -11 1529.45   45.20
  -2   1  10  926.61   34.10
   2  -1 -10  983.50   33.80
  -4  -1   9  220.78   16.40
   4   1  -9  211.08   15.20
  -1  -5 -12   13.40    5.00
   1  -3 -11   47.60    8.40
   3  -1 -10  148.49   14.90
   5   1  -9   42.80    9.40
   0  -5 -12   31.50    7.70
   2  -3 -11  192.18   14.70
   4  -1 -10  641.94   28.40
   1  -5 -12  244.38   17.40
   3  -3 -11  231.38   16.70
   2  -2   9    0.10    3.50
   0  -4   8    2.60    3.40
   3   0  10  639.24   31.00
   1  -2   9  229.08   17.80
  -1  -4   8  123.09   16.00
   1   4  -8  112.49   11.40
   2   0  10   28.40    8.10
   0  -2   9  121.09   15.60
   0   2  -9  101.69   10.40
  -2  -4   8   13.70    6.00
   2   4  -8   23.30    6.00
   3   2  11   -4.10    2.80
   1   0  10  233.38   17.20
  -1   0 -10  242.28   13.80
  -1  -2   9 1021.00   38.80
   1   2  -9 1013.50   32.90
  -3  -4   8  122.09   16.20
   3   4  -8  134.29   14.20
   2   2  11  729.13   31.80
  -2  -2 -11  707.63   26.10
   0   0  10   66.19   11.20
   0   0 -10   56.69    8.10
  -2  -2   9   80.09   12.40
   2   2  -9   76.09   10.10
  -4  -4   8   20.50    8.00
   4   4  -8   16.40    6.00
  -3  -4 -12    2.70    3.30
   1   2  11   71.69   11.30
  -1  -2 -11   65.49    9.20
  -1   0  10  126.59   15.40
   1   0 -10  139.29   13.50
  -3  -2   9  334.27   21.10
   3   2  -9  382.96   20.10
  -2  -4 -12   95.79   11.80
   0   2  11 1294.07   43.00
   0  -2 -11 1275.47   39.50
  -2   0  10  423.66   22.90
   2   0 -10  449.26   21.70
  -4  -2   9  384.56   23.00
   4   2  -9  380.96   20.90
  -1  -4 -12  114.29   13.60
   1  -2 -11  126.49   13.30
   3   0 -10  185.58   17.20
   0  -4 -12  122.69   13.70
   2  -2 -11  113.49   12.90
   4   0 -10  426.46   23.00
   1  -4 -12   93.19   12.60
   3  -2 -11  299.77   18.90
   2  -1  10   91.49   14.40
   0  -3   9  148.39   17.80
   1  -1  10   10.10    5.50
  -1  -3   9  113.99   16.00
   1   3  -9  103.39   11.30
   2   1  11  179.68   19.40
   0  -1  10   26.90    8.30
   0   1 -10   29.60    6.30
  -2  -3   9    8.80    5.60
   2   3  -9   27.10    6.60
   1   1  11  521.45   26.40
  -1  -1 -11  502.75   21.80
  -1  -1  10  979.50   38.10
   1   1 -10  949.71   32.90
  -3  -3   9    7.80    5.30
   3   3  -9    3.00    3.20
  -2  -3 -12  161.08   12.70
   0   1  11  105.69   14.00
   0  -1 -11  119.19   12.90
  -2  -1  10   10.20    5.50
   2   1 -10   19.70    5.60
  -1  -3 -12    6.30    4.20
   1  -1 -11   22.40    6.10
  -3  -1  10 1050.99   40.60
   3   1 -10 1187.58   39.50
   0  -3 -12  692.43   28.60
   2  -1 -11   23.80    6.40
   1  -3 -12   27.70    7.20
   1   0  11  475.25   26.30
  -1  -2  10  683.23   32.60
   1   2 -10  708.93   27.60
   0   0  11   25.70    7.70
   0   0 -11   28.70    6.90
  -2  -2  10   21.20    7.80
   2   2 -10   15.90    5.50
  -1   0  11   90.99   13.70
   1   0 -11   98.89   12.00
   0  -2 -12  274.87   17.30
   2   0 -11  147.99   15.50
   1  -2 -12    1.40    3.80
   0   0   0    0.00    0.00

_computing_structure_solution     'SHELXT 2014/5 (Sheldrick, 2014)'
;
_shelx_hkl_checksum              48696
_olex2_submission_special_instructions 'No special instructions were received'
loop_
_space_group_symop_operation_xyz
'x, y, z'
'-x, -y, -z'
loop_
_atom_site_label
_atom_site_type_symbol
_atom_site_fract_x
_atom_site_fract_y
_atom_site_fract_z
_atom_site_U_iso_or_equiv
_atom_site_adp_type
_atom_site_occupancy
_atom_site_site_symmetry_order
_atom_site_calc_flag
_atom_site_refinement_flags_posn
_atom_site_refinement_flags_adp
_atom_site_refinement_flags_occupancy
_atom_site_disorder_assembly
_atom_site_disorder_group
I1 I 0.48846(3) 0.25679(3) 1.00939(2) 0.01288(6) Uani 1 1 d . . . . .
I2 I 0.93229(3) 0.48574(3) 0.78258(2) 0.01337(6) Uani 1 1 d . . . . .
Cu1 Cu 0.57493(6) 0.53595(5) 0.85950(5) 0.01609(10) Uani 1 1 d . . . . .
Cu2 Cu 0.15408(6) 0.53432(5) 0.93453(5) 0.01481(10) Uani 1 1 d . . . . .
S1 S 0.36240(11) 0.69746(11) 0.63458(9) 0.01251(17) Uani 1 1 d . . . . .
N1 N 0.0946(4) 0.7944(3) 0.8022(3) 0.0121(6) Uani 1 1 d . . . . .
N2 N 0.1601(4) 1.0250(4) 0.5893(3) 0.0156(6) Uani 1 1 d . . . . .
C1 C 0.1867(4) 0.8593(4) 0.6775(4) 0.0110(7) Uani 1 1 d . . . . .
C2 C -0.0402(5) 0.9123(4) 0.8406(4) 0.0157(7) Uani 1 1 d . . . . .
H2 H -0.111426 0.873467 0.926639 0.019 Uiso 1 1 calc R . . . .
C3 C -0.0775(5) 1.0889(4) 0.7576(4) 0.0170(7) Uani 1 1 d . . . . .
H3 H -0.170809 1.171523 0.785739 0.020 Uiso 1 1 calc R . . . .
C4 C 0.0279(5) 1.1388(5) 0.6316(4) 0.0181(8) Uani 1 1 d . . . . .
H4 H 0.005422 1.258786 0.572739 0.022 Uiso 1 1 calc R . . . .
C5 C 0.4751(5) 0.8214(5) 0.4750(4) 0.0167(7) Uani 1 1 d . . . . .
H5A H 0.374747 0.930486 0.400491 0.020 Uiso 1 1 calc R . . . .
H5B H 0.562064 0.852207 0.513175 0.020 Uiso 1 1 calc R . . . .
C6 C 0.5901(5) 0.7092(5) 0.3972(4) 0.0244(9) Uani 1 1 d . . . . .
H6A H 0.648518 0.775358 0.309131 0.037 Uiso 1 1 calc GR . . . .
H6B H 0.503554 0.676987 0.361946 0.037 Uiso 1 1 calc GR . . . .
H6C H 0.692060 0.603524 0.470666 0.037 Uiso 1 1 calc GR . . . .
loop_
_atom_site_aniso_label
_atom_site_aniso_U_11
_atom_site_aniso_U_22
_atom_site_aniso_U_33
_atom_site_aniso_U_23
_atom_site_aniso_U_13
_atom_site_aniso_U_12
I1 0.01148(11) 0.01358(11) 0.01512(12) -0.00832(9) 0.00161(8) -0.00442(9)
I2 0.01239(11) 0.01916(12) 0.01158(11) -0.00880(10) 0.00368(8) -0.00769(9)
Cu1 0.0146(2) 0.0177(2) 0.0156(2) -0.00834(19) 0.00123(17) -0.00530(18)
Cu2 0.0149(2) 0.0141(2) 0.0145(2) -0.00553(18) 0.00220(16) -0.00637(17)
S1 0.0131(4) 0.0133(4) 0.0118(4) -0.0064(3) 0.0028(3) -0.0055(3)
N1 0.0097(13) 0.0134(14) 0.0137(15) -0.0069(12) -0.0014(11) -0.0037(11)
N2 0.0169(14) 0.0135(15) 0.0159(15) -0.0059(13) 0.0035(12) -0.0072(12)
C1 0.0091(15) 0.0133(17) 0.0109(16) -0.0063(14) -0.0012(12) -0.0033(13)
C2 0.0119(16) 0.0163(18) 0.0150(18) -0.0057(15) 0.0014(13) -0.0039(14)
C3 0.0142(16) 0.0128(17) 0.0224(19) -0.0093(16) 0.0011(14) -0.0024(14)
C4 0.0189(17) 0.0130(17) 0.0197(19) -0.0053(16) -0.0002(15) -0.0059(14)
C5 0.0197(18) 0.0182(18) 0.0110(17) -0.0058(15) 0.0073(14) -0.0093(15)
C6 0.0222(19) 0.034(2) 0.022(2) -0.0183(18) 0.0056(16) -0.0099(17)
loop_
_atom_type_symbol
_atom_type_description
_atom_type_scat_dispersion_real
_atom_type_scat_dispersion_imag
_atom_type_scat_source
C C 0.0033 0.0016 'International Tables Vol C Tables 4.2.6.8 and 6.1.1.4'
H H 0.0000 0.0000 'International Tables Vol C Tables 4.2.6.8 and 6.1.1.4'
Cu Cu 0.3201 1.2651 'International Tables Vol C Tables 4.2.6.8 and 6.1.1.4'
I I -0.4742 1.8119 'International Tables Vol C Tables 4.2.6.8 and 6.1.1.4'
N N 0.0061 0.0033 'International Tables Vol C Tables 4.2.6.8 and 6.1.1.4'
S S 0.1246 0.1234 'International Tables Vol C Tables 4.2.6.8 and 6.1.1.4'
loop_
_geom_angle_atom_site_label_1
_geom_angle_atom_site_label_2
_geom_angle_atom_site_label_3
_geom_angle
_geom_angle_site_symmetry_1
_geom_angle_site_symmetry_3
_geom_angle_publ_flag
Cu1 I1 Cu1 61.917(17) . 2_667 ?
Cu1 I1 Cu2 73.472(15) . . ?
Cu2 I1 Cu1 61.273(14) . 2_667 ?
Cu1 I2 Cu2 116.998(15) . 1_655 ?
Cu1 I2 Cu2 61.228(13) . 2_667 ?
Cu2 I2 Cu2 59.587(17) 1_655 2_667 ?
I1 Cu1 I1 118.083(17) . 2_667 ?
I1 Cu1 Cu1 59.664(17) . 2_667 ?
I1 Cu1 Cu1 58.419(16) 2_667 2_667 ?
I1 Cu1 Cu2 59.124(13) 2_667 2_667 ?
I1 Cu1 Cu2 100.637(17) . 2_667 ?
I2 Cu1 I1 102.417(16) . 2_667 ?
I2 Cu1 I1 117.378(16) . . ?
I2 Cu1 Cu1 130.87(2) . 2_667 ?
I2 Cu1 Cu2 61.125(14) . 2_667 ?
Cu2 Cu1 Cu1 71.108(19) 2_667 2_667 ?
S1 Cu1 I1 101.61(3) . . ?
S1 Cu1 I1 107.63(3) . 2_667 ?
S1 Cu1 I2 109.37(3) . . ?
S1 Cu1 Cu1 119.38(3) . 2_667 ?
S1 Cu1 Cu2 157.66(3) . 2_667 ?
I1 Cu2 I2 100.249(15) . 2_667 ?
I1 Cu2 I2 104.514(17) . 1_455 ?
I1 Cu2 Cu1 59.603(14) . 2_667 ?
I1 Cu2 Cu2 115.50(2) . 2_567 ?
I2 Cu2 I2 120.414(17) 1_455 2_667 ?
I2 Cu2 Cu1 160.60(2) 1_455 2_667 ?
I2 Cu2 Cu1 57.646(14) 2_667 2_667 ?
I2 Cu2 Cu2 61.167(17) 1_455 2_567 ?
Cu2 Cu2 I2 59.248(16) 2_567 2_667 ?
Cu2 Cu2 Cu1 113.35(2) 2_567 2_667 ?
N1 Cu2 I1 130.66(8) . . ?
N1 Cu2 I2 101.24(7) . 1_455 ?
N1 Cu2 I2 101.84(8) . 2_667 ?
N1 Cu2 Cu1 97.90(7) . 2_667 ?
N1 Cu2 Cu2 113.75(8) . 2_567 ?
C1 S1 Cu1 99.83(10) . . ?
C1 S1 C5 102.88(16) . . ?
C5 S1 Cu1 109.18(12) . . ?
C1 N1 Cu2 124.0(2) . . ?
C1 N1 C2 115.8(3) . . ?
C2 N1 Cu2 120.2(2) . . ?
C1 N2 C4 115.6(3) . . ?
N1 C1 S1 113.3(2) . . ?
N2 C1 S1 119.3(2) . . ?
N2 C1 N1 127.3(3) . . ?
N1 C2 C3 121.6(3) . . ?
C4 C3 C2 116.8(3) . . ?
N2 C4 C3 122.8(3) . . ?
C6 C5 S1 108.4(3) . . ?
loop_
_geom_bond_atom_site_label_1
_geom_bond_atom_site_label_2
_geom_bond_distance
_geom_bond_site_symmetry_2
_geom_bond_publ_flag
I1 Cu1 2.6546(6) . ?
I1 Cu1 2.6894(5) 2_667 ?
I1 Cu2 2.6761(5) . ?
I2 Cu1 2.6351(5) . ?
I2 Cu2 2.7315(5) 2_667 ?
I2 Cu2 2.6796(5) 1_655 ?
Cu1 Cu1 2.7492(9) 2_667 ?
Cu1 Cu2 2.7342(6) 2_667 ?
Cu1 S1 2.3659(9) . ?
Cu2 Cu2 2.6890(9) 2_567 ?
Cu2 N1 2.046(3) . ?
S1 C1 1.771(3) . ?
S1 C5 1.823(4) . ?
N1 C1 1.344(4) . ?
N1 C2 1.350(4) . ?
N2 C1 1.326(4) . ?
N2 C4 1.339(4) . ?
C2 C3 1.389(5) . ?
C3 C4 1.385(5) . ?
C5 C6 1.530(5) . ?
