#------------------------------------------------------------------------------
#$Date: 2021-07-05 20:45:25 +0300 (Mon, 05 Jul 2021) $
#$Revision: 267201 $
#$URL: file:///home/coder/svn-repositories/cod/cif/7/70/74/7707467.cif $
#------------------------------------------------------------------------------
#
# This file is available in the Crystallography Open Database (COD),
# http://www.crystallography.net/
#
# All data on this site have been placed in the public domain by the
# contributors.
#
data_7707467
loop_
_publ_author_name
'Omondi, Reinner O.'
'Sibuyi, Nicole R. S.'
'Fadaka, Adewale O.'
'Meyer, Mervin'
'Jaganyi, Deogratius'
'Ojwach, Stephen O.'
_publ_section_title
;
 Role of \p-conjugation on the coordination behaviour, substitution
 kinetics, DNA/BSA interactions, and <i>in vitro</i> cytotoxicity of
 carboxamide palladium(II) complexes.
;
_journal_issue                   23
_journal_name_full
'Dalton transactions (Cambridge, England : 2003)'
_journal_page_first              8127
_journal_page_last               8143
_journal_paper_doi               10.1039/d1dt00412c
_journal_volume                  50
_journal_year                    2021
_chemical_absolute_configuration unk
_chemical_formula_moiety         'C19 H12 Cl N3 O Pd'
_chemical_formula_sum            'C19 H12 Cl N3 O Pd'
_chemical_formula_weight         440.17
_space_group_crystal_system      monoclinic
_space_group_IT_number           7
_space_group_name_Hall           'P -2yac'
_space_group_name_H-M_alt        'P 1 n 1'
_atom_sites_solution_hydrogens   geom
_audit_creation_date             2021-04-09
_audit_creation_method
;
Olex2 1.3
(compiled 2020.11.12 svn.r5f609507 for OlexSys, GUI svn.r6272)
;
_audit_update_record
;
2021-04-21 deposited with the CCDC.	2021-05-17 downloaded from the CCDC.
;
_cell_angle_alpha                90
_cell_angle_beta                 94.978(2)
_cell_angle_gamma                90
_cell_formula_units_Z            2
_cell_length_a                   4.5553(3)
_cell_length_b                   18.3946(9)
_cell_length_c                   9.1957(4)
_cell_measurement_reflns_used    4659
_cell_measurement_temperature    100(2)
_cell_measurement_theta_max      28.08
_cell_measurement_theta_min      2.48
_cell_volume                     767.63(7)
_computing_cell_refinement       'COSMOS (Bruker, 2008)'
_computing_data_collection       'APEX2 (Bruker, 2008)'
_computing_data_reduction        'SAINT and XPREP (Bruker, 2008)'
_computing_molecular_graphics    'Olex2 1.3 (Dolomanov et al., 2009)'
_computing_publication_material  'Olex2 1.3 (Dolomanov et al., 2009)'
_computing_structure_refinement  'SHELXL 2016/6 (Sheldrick, 2015)'
_computing_structure_solution    'SHELXT (Sheldrick, 2015)'
_diffrn_ambient_temperature      100.15
_diffrn_detector_area_resol_mean 7.9
_diffrn_detector_type            'CCD area detector'
_diffrn_measured_fraction_theta_full 0.956
_diffrn_measured_fraction_theta_max 0.947
_diffrn_measurement_device       'three-circle diffractometer'
_diffrn_measurement_device_type  'Bruker SMART APEX2 area detector'
_diffrn_measurement_method       '\w and \f scans'
_diffrn_radiation_type           MoK\a
_diffrn_radiation_wavelength     0.71073
_diffrn_reflns_av_R_equivalents  0.0175
_diffrn_reflns_av_unetI/netI     0.0204
_diffrn_reflns_Laue_measured_fraction_full 0.956
_diffrn_reflns_Laue_measured_fraction_max 0.947
_diffrn_reflns_limit_h_max       5
_diffrn_reflns_limit_h_min       -2
_diffrn_reflns_limit_k_max       22
_diffrn_reflns_limit_k_min       -22
_diffrn_reflns_limit_l_max       11
_diffrn_reflns_limit_l_min       -11
_diffrn_reflns_number            5873
_diffrn_reflns_point_group_measured_fraction_full 0.717
_diffrn_reflns_point_group_measured_fraction_max 0.707
_diffrn_reflns_theta_full        25.242
_diffrn_reflns_theta_max         25.978
_diffrn_reflns_theta_min         2.214
_exptl_absorpt_coefficient_mu    1.395
_exptl_absorpt_correction_T_max  0.7453
_exptl_absorpt_correction_T_min  0.5792
_exptl_absorpt_correction_type   multi-scan
_exptl_absorpt_process_details
;
SADABS-2012/1 (Bruker,2012) was used for absorption correction.
wR2(int) was 0.1686 before and 0.0282 after correction.
The Ratio of minimum to maximum transmission is 0.7771.
The \l/2 correction factor is 0.0015.
;
_exptl_crystal_colour            orange
_exptl_crystal_colour_primary    orange
_exptl_crystal_density_diffrn    1.904
_exptl_crystal_description       Needle
_exptl_crystal_F_000             436
_exptl_crystal_size_max          0.36
_exptl_crystal_size_mid          0.02
_exptl_crystal_size_min          0.02
_refine_diff_density_max         3.863
_refine_diff_density_min         -0.894
_refine_diff_density_rms         0.169
_refine_ls_abs_structure_details
;
 Refined as an inversion twin.
;
_refine_ls_abs_structure_Flack   0.46(9)
_refine_ls_extinction_method     none
_refine_ls_goodness_of_fit_ref   1.083
_refine_ls_hydrogen_treatment    constr
_refine_ls_matrix_type           full
_refine_ls_number_parameters     224
_refine_ls_number_reflns         2134
_refine_ls_number_restraints     164
_refine_ls_restrained_S_all      1.068
_refine_ls_R_factor_all          0.0479
_refine_ls_R_factor_gt           0.0474
_refine_ls_shift/su_max          0.000
_refine_ls_shift/su_mean         0.000
_refine_ls_structure_factor_coef Fsqd
_refine_ls_weighting_details
'w=1/[\s^2^(Fo^2^)+(0.0875P)^2^+2.5432P] where P=(Fo^2^+2Fc^2^)/3'
_refine_ls_weighting_scheme      calc
_refine_ls_wR_factor_gt          0.1175
_refine_ls_wR_factor_ref         0.1184
_reflns_Friedel_coverage         0.481
_reflns_Friedel_fraction_full    0.474
_reflns_Friedel_fraction_max     0.462
_reflns_number_gt                2103
_reflns_number_total             2134
_reflns_threshold_expression     'I > 2\s(I)'
_cod_data_source_file            d1dt00412c2.cif
_cod_data_source_block           PdL4
_cod_depositor_comments
'Adding full bibliography for 7707465--7707467.cif.'
_cod_database_code               7707467
_shelx_shelxl_version_number     2018/3
_shelx_space_group_comment
;
The symmetry employed for this shelxl refinement is uniquely defined
by the following loop, which should always be used as a source of
symmetry information in preference to the above space-group names.
They are only intended as comments.
;
_shelx_estimated_absorpt_t_max   0.973
_shelx_estimated_absorpt_t_min   0.634
_olex2_refinement_description
;
1. Twinned data refinement
 Scales: 0.54311
 0.45689
2. Uiso/Uaniso restraints and constraints
All non-hydrogen atoms have similar U: within 2A with sigma of 0.001 and sigma
for terminal atoms of 0.002 within 2A
3. Others
 Fixed U11: N2(0.018199)
 Fixed U22: N2(0.015)
 Fixed U33: N2(0.022)
4.a Aromatic/amide H refined with riding coordinates:
 C12(H12), C8(H8), C14(H14), C3(H3), C2(H2), C16(H16), C7(H7), C13(H13),
 C18(H18), C17(H17), C5(H5), C4(H4)
;
_shelx_res_file
;
TITL SIR92 run in space group P n
    shelx.res
    created by SHELXL-2018/3 at 19:54:21 on 09-Apr-2021
CELL 0.71073 4.5553 18.3946 9.1957 90 94.978 90
ZERR 2 0.0003 0.0009 0.0004 0 0.002 0
LATT -1
SYMM 0.5+X,-Y,0.5+Z
SFAC C H Cl N O Pd
UNIT 38 24 2 6 2 2
SIMU 0.001 0.002 2

L.S. 10
PLAN  5
SIZE 0.02 0.02 0.36
TEMP -173
CONF
BOND $H
MORE -1
fmap 2
acta
MERG 2
TWIN -1 0 0 0 -1 0 0 0 -1 2
REM <olex2.extras>
REM <HklSrc "%.\\shelx.hkl">
REM </olex2.extras>

WGHT    0.087500    2.543200
BASF   0.45689
FVAR       0.21248
PD1   6    0.463551    0.237082    0.850949    11.00000    0.01654    0.01645 =
         0.01340    0.00116    0.00126    0.00302
CL1   3    0.362487    0.167936    1.052387    11.00000    0.02722    0.02707 =
         0.01243    0.00211    0.00054   -0.00774
O1    5    0.574714    0.315229    0.448132    11.00000    0.01949    0.01956 =
         0.01844    0.00302   -0.00080   -0.00023
C1    1    0.008488    0.136916    0.658489    11.00000    0.01833    0.01743 =
         0.02056   -0.00023   -0.00180    0.00388
C19   1    0.888576    0.351285    0.894258    11.00000    0.01870    0.01728 =
         0.02278   -0.00060   -0.00027    0.00246
N2    4    0.604672    0.297832    0.696031    11.00000   10.01751   10.01455 =
        10.02189    0.00062    0.00059    0.00291
N3    4    0.744717    0.302486    0.977315    11.00000    0.01902    0.01782 =
         0.02245   -0.00117   -0.00056    0.00225
C12   1    0.957954    0.397031    0.653451    11.00000    0.01871    0.01747 =
         0.02378    0.00047   -0.00043    0.00243
AFIX  43
H12   2    0.910267    0.397177    0.550809    11.00000   -1.20000
AFIX   0
C8    1    0.177217    0.198867    0.406680    11.00000    0.01842    0.01825 =
         0.01988   -0.00006   -0.00095    0.00360
AFIX  43
H8    2    0.241254    0.222053    0.322698    11.00000   -1.20000
AFIX   0
C15   1    1.092019    0.400949    0.959823    11.00000    0.01886    0.01805 =
         0.02345   -0.00030   -0.00052    0.00256
C14   1    1.238269    0.448678    0.869062    11.00000    0.01869    0.01806 =
         0.02432    0.00017   -0.00068    0.00215
AFIX  43
H14   2    1.379372    0.482388    0.910859    11.00000   -1.20000
AFIX   0
C11   1    0.820147    0.349718    0.742167    11.00000    0.01829    0.01643 =
         0.02283    0.00033    0.00007    0.00279
C3    1   -0.307271    0.053029    0.774998    11.00000    0.01859    0.01777 =
         0.02134    0.00039   -0.00233    0.00375
AFIX  43
H3    2   -0.379280    0.033111    0.860348    11.00000   -1.20000
AFIX   0
C6    1   -0.116904    0.112043    0.520689    11.00000    0.01858    0.01830 =
         0.02059   -0.00075   -0.00224    0.00385
C2    1   -0.097618    0.105901    0.789059    11.00000    0.01842    0.01754 =
         0.02127    0.00013   -0.00190    0.00370
AFIX  43
H2    2   -0.022044    0.122215    0.882955    11.00000   -1.20000
AFIX   0
C16   1    1.146508    0.399435    1.114329    11.00000    0.01923    0.01876 =
         0.02305   -0.00085   -0.00069    0.00252
AFIX  43
H16   2    1.286486    0.431577    1.162379    11.00000   -1.20000
AFIX   0
N1    4    0.213229    0.191710    0.671677    11.00000    0.01837    0.01710 =
         0.02015    0.00004   -0.00126    0.00371
C7    1   -0.019261    0.144316    0.391634    11.00000    0.01849    0.01844 =
         0.02006   -0.00056   -0.00183    0.00386
AFIX  43
H7    2   -0.091689    0.127554    0.297576    11.00000   -1.20000
AFIX   0
C13   1    1.174974    0.445975    0.720111    11.00000    0.01871    0.01810 =
         0.02437    0.00061   -0.00066    0.00210
AFIX  43
H13   2    1.277579    0.477313    0.659876    11.00000   -1.20000
AFIX   0
C18   1    0.795332    0.303524    1.120149    11.00000    0.01937    0.01867 =
         0.02234   -0.00143   -0.00066    0.00245
AFIX  43
H18   2    0.692120    0.270545    1.176756    11.00000   -1.20000
AFIX   0
C17   1    0.998429    0.352193    1.191667    11.00000    0.01940    0.01894 =
         0.02249   -0.00133   -0.00054    0.00238
AFIX  43
H17   2    1.030661    0.351554    1.295122    11.00000   -1.20000
AFIX   0
C5    1   -0.326909    0.056661    0.511819    11.00000    0.01892    0.01872 =
         0.02130   -0.00045   -0.00248    0.00353
AFIX  43
H5    2   -0.404840    0.039566    0.418891    11.00000   -1.20000
AFIX   0
C9    1    0.289307    0.221883    0.548495    11.00000    0.01823    0.01735 =
         0.02008    0.00035   -0.00048    0.00343
C10   1    0.507432    0.283208    0.556913    11.00000    0.01811    0.01660 =
         0.02042    0.00091    0.00026    0.00265
C4    1   -0.421651    0.026751    0.635562    11.00000    0.01893    0.01867 =
         0.02151    0.00002   -0.00252    0.00351
AFIX  43
H4    2   -0.562975   -0.011347    0.628688    11.00000   -1.20000
AFIX   0
HKLF 4




REM  SIR92 run in space group P n
REM wR2 = 0.1184, GooF = S = 1.083, Restrained GooF = 1.068 for all data
REM R1 = 0.0474 for 2103 Fo > 4sig(Fo) and 0.0479 for all 2134 data
REM 224 parameters refined using 164 restraints

END

WGHT      0.0873      2.5627

REM Highest difference peak  3.863,  deepest hole -0.894,  1-sigma level  0.169
Q1    1   0.4481  0.2603  0.6758  11.00000  0.05    3.86
Q2    1   0.4810  0.2614  1.0302  11.00000  0.05    2.71
Q3    1   0.3316  0.2091  0.8294  11.00000  0.05    1.98
Q4    1   0.5950  0.2086  0.8771  11.00000  0.05    1.61
Q5    1   1.3834  0.3325  1.2308  11.00000  0.05    1.16
;
_shelx_res_checksum              97478
_shelx_hkl_file
;
   3   0   0    0.54    0.11
   4   0   0   58.00    1.31
   1  -1   0  220.17    4.52
   2  -1   0   14.19    0.37
   3  -1   0   67.48    1.47
   4  -1   0    3.60    0.25
   4   1   0    3.35    0.27
   0  -2   0  928.43   21.74
   0  -2   0  901.55   20.68
   0  -2   0  851.37   18.27
   0   2   0  886.01   18.26
   0   2   0  863.84   20.66
   0   2   0  916.42   20.68
   1  -2   0   58.16    1.33
   1  -2   0   62.05    1.29
   1  -2   0   60.07    1.29
   1   2   0   59.91    1.32
   1   2   0   62.38    1.29
  -1   2   0   61.80    1.29
   2  -2   0  243.03    5.03
   2  -2   0  242.02    5.01
   2  -2   0  245.95    4.99
   2   2   0  239.18    5.01
   3  -2   0   17.99    0.47
   3  -2   0   17.34    0.55
   3  -2   0   16.44    0.47
   4  -2   0   47.72    1.11
   4  -2   0   48.78    1.19
   4  -2   0   47.26    1.11
   4   2   0   46.50    1.13
   0  -3   0    3.04    0.18
   0  -3   0    2.79    0.29
   0   3   0    3.09    0.17
   0   3   0    3.25    0.31
   1  -3   0  982.03   19.92
   1  -3   0  933.30   19.87
   1  -3   0 1000.00   22.45
   1   3   0  997.58   19.92
   1   3   0  942.79   19.81
   2  -3   0   77.72    1.65
   2  -3   0   76.83    1.72
   2  -3   0   75.58    1.67
   2   3   0   79.46    1.66
   2   3   0   76.71    1.71
   3  -3   0  141.72    2.98
   3  -3   0  136.90    2.90
   3  -3   0  136.30    2.91
   3   3   0  138.72    2.91
   3   3   0  133.59    2.95
   4  -3   0   12.43    0.44
   4   3   0   13.35    0.52
   5  -3   0   28.24    0.77
   0  -4   0   28.16    0.83
   0  -4   0   27.49    0.67
   0   4   0   27.88    0.78
   0   4   0   28.79    0.72
   1  -4   0  907.66   18.65
   1  -4   0  924.85   21.00
  -1   4   0  904.24   18.76
   1   4   0  915.93   21.07
   1   4   0  892.96   18.56
   1   4   0  898.90   18.61
   2  -4   0   26.78    0.67
   2  -4   0   27.22    0.77
   2   4   0   28.37    0.69
   2   4   0   27.33    0.76
   3  -4   0   12.62    0.41
   3  -4   0   12.43    0.55
   3   4   0   12.40    0.53
   4  -4   0   70.16    1.58
   5  -4   0    0.52    0.21
   5   4   0   -0.06    0.26
   0  -5   0   46.60    1.07
   0  -5   0   45.64    1.27
   0   5   0   46.79    1.18
   0   5   0   49.40    1.18
   1  -5   0  550.57   13.08
   1  -5   0  560.55   11.51
  -1  -5   0  590.71   12.99
  -1  -5   0  558.00   13.01
  -1   5   0  567.89   13.04
   1   5   0  569.96   13.03
   1   5   0  536.62   11.58
   2  -5   0    5.67    0.44
   2  -5   0    5.60    0.28
   2   5   0    5.95    0.28
   2   5   0    5.37    0.42
   3  -5   0  112.31    2.47
   3  -5   0  106.87    2.35
   3   5   0  106.06    2.44
   3   5   0  110.17    2.36
   4  -5   0   10.63    0.43
   4   5   0   10.54    0.59
   5  -5   0   62.56    1.48
   0  -6   0   53.01    1.50
   0  -6   0   56.44    1.27
   0   6   0   57.66    1.40
   0   6   0   57.38    1.40
   1  -6   0   67.53    1.56
   1  -6   0   70.55    1.84
  -1  -6   0   75.04    1.72
   1   6   0   65.96    1.67
  -1   6   0   74.32    1.79
   1   6   0   71.07    1.73
   2  -6   0   80.82    1.88
   2  -6   0   79.13    1.76
   2   6   0   80.54    1.76
   2   6   0   77.77    1.86
   3  -6   0   16.60    0.53
   3  -6   0   16.57    0.69
   3   6   0   16.97    0.68
   3   6   0   15.93    0.52
   4  -6   0   81.87    1.85
   4   6   0   81.66    1.98
   5  -6   0   13.26    0.54
   5   6   0   12.37    0.65
   0  -7   0   16.88    0.68
   0  -7   0   15.56    0.49
   0   7   0   15.88    0.51
   0   7   0   16.10    0.65
  -1  -7   0    4.36    0.25
  -1  -7   0    3.82    0.36
   1  -7   0    3.84    0.29
   1  -7   0    3.69    0.45
  -1   7   0    4.19    0.39
   1   7   0    3.95    0.26
   1   7   0    3.60    0.47
   2  -7   0   21.77    0.77
   2  -7   0   21.04    0.61
   2  -7   0   22.34    0.77
   2   7   0   21.42    0.76
   2   7   0   21.41    0.61
   2   7   0   21.23    0.63
   3  -7   0   94.44    2.08
   3   7   0   91.89    2.21
   4  -7   0   18.30    0.61
   4   7   0   17.35    0.80
   5  -7   0   56.86    1.41
   5   7   0   57.27    1.53
   0  -8   0    9.64    0.40
   0  -8   0    9.92    0.59
   0   8   0    9.41    0.40
   0   8   0   10.15    0.58
   1  -8   0   13.24    0.46
  -1  -8   0   12.65    0.55
   1  -8   0   12.57    0.66
  -1  -8   0   12.36    0.44
  -1  -8   0   12.90    0.44
  -1   8   0   13.14    0.58
  -1   8   0   12.51    0.61
   1   8   0   11.86    0.63
   1   8   0   12.43    0.45
   2  -8   0  360.34    7.50
   2  -8   0  372.58    7.68
   2  -8   0  368.42    8.57
   2   8   0  345.34    8.43
   2   8   0  355.28    7.63
   2   8   0  363.46    7.49
   3  -8   0   55.92    1.35
   3   8   0   56.23    1.51
   4  -8   0   33.92    0.94
   4   8   0   33.46    1.11
   5  -8   0   32.49    0.95
   0  -9   0   34.46    1.14
   0  -9   0   33.64    0.88
   0   9   0   32.76    1.06
   0   9   0   34.97    0.95
  -1  -9   0   31.78    0.87
  -1  -9   0   31.26    0.84
   1  -9   0   32.04    0.85
   1  -9   0   31.46    1.08
   1   9   0   31.39    1.03
  -1   9   0   34.23    1.04
  -1   9   0   32.10    1.01
   1   9   0   31.21    0.89
   2  -9   0   44.48    1.09
   2  -9   0   43.35    1.34
   2   9   0   42.60    1.15
   2   9   0   42.74    1.26
   3  -9   0   29.23    0.85
   3   9   0   29.19    1.04
   4  -9   0   25.34    0.79
   4   9   0   23.05    0.97
   5  -9   0   30.28    0.94
   0 -10   0   45.33    1.39
   0 -10   0   46.02    1.13
   0  10   0   46.36    1.22
   0  10   0   43.99    1.31
  -1 -10   0   28.11    0.80
   1 -10   0   27.05    0.78
   1 -10   0   26.25    1.00
  -1 -10   0   27.65    0.77
   1  10   0   28.18    0.99
   1  10   0   28.34    0.82
  -1  10   0   28.08    0.95
   2 -10   0   86.75    2.03
   2 -10   0   88.17    2.41
   2  10   0   91.70    2.25
   2  10   0   89.17    2.22
   3 -10   0   29.64    0.88
   3  10   0   29.89    1.09
   4 -10   0   34.09    0.98
   4  10   0   32.89    1.20
   0 -11   0  100.49    2.71
   0 -11   0  102.30    2.29
   0  11   0  101.39    2.48
   0  11   0  104.07    2.53
   1 -11   0   75.32    1.78
  -1 -11   0   75.12    1.77
   1 -11   0   74.17    2.13
   1  11   0   76.60    1.97
   1  11   0   76.25    1.94
  -1  11   0   78.63    1.95
  -1  11   0   76.40    1.95
   2 -11   0   65.88    1.63
   2 -11   0   69.11    1.99
   2  11   0   66.94    1.82
   3 -11   0   42.29    1.14
   3  11   0   39.04    1.34
   4 -11   0   25.59    0.86
   4  11   0   25.58    1.11
   0 -12   0    6.19    0.39
   0 -12   0    6.66    0.62
   0  12   0    6.08    0.64
   0  12   0    6.52    0.42
  -1 -12   0   79.13    1.87
   1 -12   0   81.23    2.27
   1 -12   0   81.01    1.89
  -1  12   0   83.78    2.09
   1  12   0   80.12    2.11
   1  12   0   81.26    2.06
  -1  12   0   76.76    2.05
   2 -12   0   75.20    1.82
   2  12   0   76.68    2.05
   3 -12   0   51.79    1.36
   3  12   0   51.22    1.61
   4 -12   0    3.85    0.47
   4  12   0    2.27    0.57
   0 -13   0   75.26    1.82
   0 -13   0   73.84    2.20
   0  13   0   78.24    1.99
   0  13   0   78.54    2.06
   1 -13   0   48.28    1.28
   1 -13   0   47.69    1.59
   1  13   0   48.12    1.52
  -1  13   0   50.71    1.37
   1  13   0   48.85    1.36
   2 -13   0   45.09    1.22
  -2  13   0   44.92    1.18
   2  13   0   42.88    1.46
   3 -13   0   21.93    0.81
   3  13   0   24.21    1.13
   4 -13   0   19.78    0.79
   4  13   0   20.29    1.13
   0 -14   0   30.54    0.92
   0 -14   0   29.81    1.19
   0  14   0   29.94    1.18
   0  14   0   30.59    0.96
   1 -14   0  142.58    3.15
  -1 -14   0  138.01    3.60
   1 -14   0  138.73    3.70
  -1  14   0  139.99    3.46
   1  14   0  137.51    3.38
   1  14   0  139.91    3.47
   2 -14   0   10.24    0.57
  -2  14   0    9.87    0.49
   2  14   0    9.23    0.85
   3 -14   0   29.45    0.98
   3  14   0   30.12    1.28
   4 -14   0    5.31    0.54
   4  14   0    5.99    0.78
   0 -15   0   97.56    2.79
   0 -15   0   99.30    2.34
   0  15   0  101.55    2.57
   0  15   0   97.78    2.60
   1 -15   0   17.26    0.71
  -1 -15   0   16.79    0.85
   1 -15   0   16.08    0.98
   1  15   0   16.88    0.71
  -1  15   0   16.69    0.70
   1  15   0   16.40    0.99
   2 -15   0   60.25    1.59
   2  15   0   61.01    1.90
  -2  15   0   60.04    1.60
   3 -15   0    9.65    0.61
   3  15   0    9.14    0.93
   4 -15   0    5.42    0.56
   4  15   0    4.43    0.74
   0 -16   0    1.91    0.35
   0 -16   0    2.09    0.53
   0  16   0    2.40    0.55
   0  16   0    2.68    0.48
   1 -16   0   96.05    2.81
  -1 -16   0   97.62    2.68
   1 -16   0   97.26    2.33
  -1  16   0   94.84    2.51
   1  16   0   97.35    2.64
   1  16   0   97.64    2.53
   2 -16   0    3.24    0.50
   2  16   0    2.84    0.61
  -2  16   0    2.28    0.39
   3 -16   0   29.54    1.03
   3  16   0   27.98    1.35
   0 -17   0  102.58    2.90
   0  17   0  100.33    2.65
   1 -17   0    4.26    0.68
   1 -17   0    4.74    0.53
  -1 -17   0    5.45    0.67
   1  17   0    5.59    0.89
   1  17   0    5.14    0.53
  -1  17   0    5.36    0.51
   2 -17   0   49.45    1.41
  -2 -17   0   46.30    1.38
   2  17   0   47.48    1.72
  -2  17   0   47.68    1.36
   3 -17   0    3.76    0.57
   3  17   0    2.91    0.68
   0 -18   0    1.20    0.56
   0  18   0    1.55    0.41
  -1 -18   0   23.66    1.09
   1 -18   0   23.49    1.24
   1 -18   0   24.06    0.93
   1  18   0   25.04    1.25
  -1  18   0   21.71    0.89
   1  18   0   23.38    0.91
  -2 -18   0    8.10    0.59
   2 -18   0    7.14    0.63
  -2  18   0    6.94    0.54
   2  18   0    8.32    1.03
   3 -18   0   33.42    1.18
   3  18   0   34.14    1.53
   0 -19   0   61.06    2.07
   0  19   0   59.12    1.76
   1 -19   0   14.44    1.09
   1 -19   0   14.05    0.75
  -1 -19   0   15.39    0.93
   1  19   0   14.29    0.74
  -1  19   0   13.90    0.75
   1  19   0   16.34    1.16
   2 -19   0   36.43    1.23
  -2 -19   0   35.56    1.17
   2  19   0   38.03    1.62
  -2  19   0   35.41    1.16
   3 -19   0    2.54    0.49
   3  19   0    4.00    0.81
   0 -20   0   21.75    1.23
   0  20   0   19.57    0.91
  -1 -20   0   22.37    1.13
   1 -20   0   21.91    1.27
   1  20   0   23.74    0.99
  -1  20   0   20.72    0.94
   2 -20   0    5.54    0.63
  -2 -20   0    4.39    0.57
   2  20   0    5.37    0.88
  -2  20   0    5.69    0.56
   0 -21   0    6.47    0.92
   0  21   0    5.87    0.66
  -1 -21   0   11.66    0.92
   1 -21   0   10.57    1.06
  -1  21   0    8.11    0.69
   1  21   0    8.95    0.72
   2 -21   0   29.32    1.17
  -2 -21   0   28.77    1.07
  -2  21   0   28.60    1.05
   2  21   0   32.13    1.62
   0 -22   0    0.86    0.61
   0  22   0    0.31    0.42
  -1 -22   0   27.39    1.29
   1 -22   0   26.78    1.47
   1  22   0   27.26    1.13
   0   0   1    0.34    0.10
   0   0   1    0.53    0.09
   0   0   1    0.35    0.09
   0   0  -1    0.12    0.10
   0   0   1    0.05    0.06
   0   0  -1    0.09    0.06
   1   0   1  450.71    9.66
   1   0   1  484.65    9.57
   1   0   1  478.87   10.81
   1   0   1  450.42    9.57
   2   0   1    0.79    0.22
   2   0   1    0.36    0.14
   2   0   1    0.67    0.18
   3   0   1  346.91    7.15
   3   0   1  345.81    7.11
   3   0   1  337.35    7.14
   4   0   1    0.49    0.17
   4   0   1    0.40    0.22
   5   0   1   38.48    1.02
   0  -1   1  603.85   13.87
   0  -1  -1  617.26   12.34
   0  -1   1  573.75   12.26
   0  -1   1  576.09   12.35
   0   1  -1  604.43   13.90
   0   1   1  575.12   12.24
   0   1   1  617.70   13.93
   0   1  -1  616.08   12.24
   0   1  -1  586.43   12.33
   1  -1   1  142.23    2.99
   1  -1   1  140.35    2.97
   1  -1   1  143.07    2.96
   1  -1   1  140.37    3.34
   1   1   1  138.33    2.97
   1   1   1  141.38    3.33
   1   1   1  146.18    2.98
   2  -1   1  346.07    7.16
   2  -1   1  338.94    7.15
   2  -1   1  342.10    7.12
   2   1   1  362.53    7.16
   2   1   1  339.12    7.13
   3  -1   1    3.86    0.28
   3  -1   1    4.92    0.38
   3  -1   1    4.48    0.30
   3   1   1    4.51    0.32
   3   1   1    3.93    0.33
   3   1   1    3.68    0.31
   4  -1   1   74.40    1.70
   4  -1   1   74.07    1.70
   4   1   1   74.27    1.71
   4   1   1   73.73    1.70
   5  -1   1    1.59    0.26
   5   1   1    1.18    0.27
   1  -2  -1  555.08   11.26
   1   2  -1  535.57   11.23
   1   2  -1  556.58   11.21
   0  -2  -1   46.38    1.03
   0  -2   1   47.17    1.02
   0  -2   1   44.93    1.03
   0  -2   1   46.15    1.18
   0   2  -1   47.15    1.03
   0   2  -1   47.03    1.08
   0   2  -1   47.81    1.14
   0   2   1   49.22    1.14
   1  -2   1  122.26    2.58
   1  -2   1  121.46    2.63
   1  -2   1  122.48    2.57
   1  -2   1  121.86    2.92
   1   2   1  122.81    2.59
   1   2   1  124.32    2.89
   1   2   1  121.71    2.62
   2  -2   1   75.10    1.71
   2  -2   1   79.45    1.70
   2  -2   1   77.74    1.76
   2   2   1   80.06    1.73
   3  -2   1  213.33    4.43
   3  -2   1  199.98    4.37
   3  -2   1  209.13    4.36
   3   2   1  207.81    4.38
   4  -2   1    6.59    0.37
   4  -2   1    6.66    0.39
   4   2   1    6.85    0.41
   4   2   1    6.42    0.42
   5  -2   1   36.53    1.00
   5   2   1   37.57    1.04
   2  -3  -1  127.39    2.68
   2  -3  -1  130.48    2.73
   1  -3  -1  605.79   12.50
   1  -3  -1  614.70   12.52
   1   3  -1  617.27   12.50
   1   3  -1  604.84   12.49
   0  -3  -1   81.80    1.74
   0  -3   1   79.47    1.72
   0  -3   1   79.25    1.99
   0  -3  -1   80.74    1.99
   0   3   1   83.91    1.93
   0   3   1   80.04    1.79
   0   3  -1   84.65    1.94
   0   3  -1   79.79    1.74
   0   3  -1   79.09    1.79
   1  -3   1  109.32    2.33
   1  -3   1  110.43    2.65
   1  -3   1  109.74    2.32
   1   3   1  107.01    2.60
  -1   3  -1  114.35    2.61
   1   3   1  106.30    2.38
  -1   3  -1  109.34    2.33
   2  -3   1  286.38    5.82
   2  -3   1  279.35    5.89
   2  -3   1  279.82    5.85
   2   3   1  274.12    5.88
   2   3   1  285.61    5.84
   3  -3   1   13.82    0.46
   3  -3   1   14.30    0.58
   3  -3   1   13.80    0.46
   3   3   1   13.39    0.50
   3   3   1   12.48    0.54
   4  -3   1   65.26    1.54
   4  -3   1   67.24    1.55
   4   3   1   64.58    1.59
   4   3   1   68.20    1.59
   5  -3   1    2.94    0.38
   5   3   1    3.58    0.43
   4  -4  -1   20.68    0.57
   3  -4  -1   90.62    1.93
   3  -4  -1   90.55    2.02
   3   4  -1   89.55    1.93
   3   4  -1   90.30    2.00
   2  -4  -1   46.60    1.04
   2  -4  -1   47.05    1.12
   2   4  -1   45.90    1.12
   2   4  -1   47.39    1.04
   1  -4  -1  602.65   12.56
   1  -4  -1  610.73   12.57
   1   4  -1  631.24   12.51
   1   4  -1  613.98   14.20
   1   4  -1  604.56   12.57
   0  -4  -1   92.04    1.94
   0  -4  -1   89.75    2.25
   0  -4   1   89.33    1.93
   0  -4   1   88.54    2.23
   0   4   1   88.60    2.01
   0   4   1   91.19    2.16
   0   4  -1   93.82    2.17
   0   4  -1   89.97    2.02
   1  -4   1  213.68    4.52
   1  -4   1  216.66    4.54
   1  -4   1  216.57    5.16
  -1  -4  -1  227.02    5.08
  -1  -4  -1  212.68    5.10
   1   4   1  217.56    5.09
   1   4   1  205.10    4.58
  -1   4  -1  227.22    5.12
  -1   4  -1  219.48    4.54
   2  -4   1   27.38    0.71
   2  -4   1   27.52    0.82
   2  -4   1   27.87    0.72
   2   4   1   29.11    0.73
   2   4   1   26.56    0.81
   3  -4   1   58.48    1.40
   3  -4   1   58.60    1.40
   3  -4   1   62.63    1.52
   3   4   1   62.61    1.43
   4  -4   1   26.77    0.75
   4  -4   1   26.00    0.76
   4   4   1   25.32    0.84
   5  -4   1   28.68    0.85
   5   4   1   28.90    0.90
   5  -5  -1   10.98    0.45
   4  -5  -1  115.62    2.49
   3  -5  -1    8.93    0.48
   3  -5  -1    9.88    0.35
   3   5  -1    9.67    0.50
   3   5  -1    9.44    0.34
   2  -5  -1  153.13    3.24
   2  -5  -1  155.56    3.33
   2   5  -1  158.12    3.24
   2   5  -1  151.88    3.32
   1  -5  -1   69.15    1.69
   1  -5  -1   65.46    1.46
  -1   5   1   67.38    1.58
   1   5  -1   65.74    1.60
   1   5  -1   65.19    1.56
   0  -5  -1  381.36    9.01
   0  -5  -1  387.04    7.91
   0  -5   1  379.43    7.90
   0  -5   1  376.73    9.00
   0   5  -1  398.98    8.93
   0   5   1  394.29    8.93
   0   5   1  379.27    7.98
   0   5  -1  374.78    7.99
   1  -5   1   69.01    1.56
  -1  -5  -1   75.19    1.73
   1  -5   1   68.21    1.83
  -1   5  -1   70.75    1.57
   1   5   1   70.93    1.73
   1   5   1   66.31    1.64
  -1   5  -1   72.65    1.79
   2  -5   1   90.18    2.31
   2  -5   1   92.75    2.03
   2  -5   1   94.15    2.14
   2  -5   1   94.33    2.04
   2   5   1   92.72    2.04
   2   5   1   89.40    2.11
   3  -5   1   16.74    0.55
   3  -5   1   16.77    0.55
   3  -5   1   18.79    0.74
   3   5   1   16.90    0.69
   3   5   1   17.22    0.57
   4  -5   1   53.35    1.32
   4   5   1   54.29    1.40
   5  -5   1    1.92    0.29
   5   5   1    1.40    0.36
   5  -6  -1   18.27    0.61
   4  -6  -1    2.71    0.31
   4   6  -1    2.71    0.39
   3  -6  -1  136.24    3.01
   3  -6  -1  132.29    2.88
   3   6  -1  136.71    2.99
   3   6  -1  135.32    2.88
   2  -6  -1  204.85    4.30
   2  -6  -1  198.08    4.20
   2   6  -1  198.90    4.30
   2   6  -1  200.35    4.19
   1  -6  -1  108.31    2.38
  -1  -6   1  116.88    2.63
   1  -6  -1  112.42    2.75
   1   6  -1  107.73    2.49
   1   6  -1  110.68    2.65
   0  -6  -1   32.66    1.01
   0  -6  -1   34.25    0.82
   0  -6   1   32.50    1.00
   0  -6   1   32.84    0.80
   0   6   1   33.48    0.87
   0   6  -1   33.82    0.87
   0   6  -1   31.16    0.95
   0   6   1   31.67    0.93
   1  -6   1  120.50    3.09
  -1  -6  -1  130.78    2.98
   1  -6   1  125.07    2.67
  -1   6  -1  123.20    2.69
   1   6   1  126.29    2.98
   1   6   1  118.89    2.77
  -1   6  -1  128.28    3.06
   2  -6   1   51.12    1.44
   2  -6   1   52.24    1.23
   2  -6   1   52.49    1.37
   2   6   1   51.34    1.34
   2   6   1   53.11    1.36
   2   6   1   53.95    1.25
   3  -6   1   23.23    0.68
   3   6   1   22.59    0.82
   4  -6   1    8.52    0.45
   5  -6   1   32.85    0.95
   5   6   1   32.61    1.03
   5  -7  -1    9.81    0.48
   5   7  -1    9.31    0.66
   4  -7  -1   30.22    0.82
   4   7  -1   28.83    0.97
   3  -7  -1   52.42    1.23
   3   7  -1   50.73    1.36
   2  -7  -1  617.77   12.91
   2  -7  -1  623.53   14.66
   2  -7  -1  643.86   13.04
   2   7  -1  622.91   13.02
   2   7  -1  636.15   12.90
  -1  -7   1   75.54    1.88
  -1  -7   1   78.29    1.82
   1  -7  -1   73.78    1.97
   1  -7  -1   74.59    1.68
   1   7  -1   71.11    1.80
   1   7  -1   74.74    1.84
  -1   7   1   78.15    1.83
   0  -7  -1  117.44    2.47
   0  -7   1  112.13    2.44
   0  -7  -1  107.89    2.85
   0  -7   1  110.99    2.85
   0   7   1  116.21    2.73
   0   7  -1  117.83    2.74
   0   7  -1  111.92    2.58
   0   7   1  113.75    2.57
  -1  -7  -1   25.08    0.72
   1  -7   1   25.98    0.89
  -1  -7  -1   25.26    0.70
   1  -7   1   24.65    0.69
  -1   7  -1   25.56    0.84
   1   7   1   24.56    0.85
  -1   7  -1   25.37    0.69
  -1   7  -1   26.50    0.86
   1   7   1   25.16    0.73
   2  -7   1   19.40    0.59
   2  -7   1   19.37    0.76
   2   7   1   18.59    0.60
   2   7   1   19.60    0.77
   2   7   1   19.75    0.60
   3  -7   1    9.92    0.45
   3   7   1   10.02    0.64
   4  -7   1   33.80    0.95
   5  -7   1   16.09    0.64
   5   7   1   15.34    0.77
   5  -8  -1   18.43    0.65
   5   8  -1   18.06    0.84
   4  -8  -1   47.96    1.19
   4   8  -1   46.29    1.36
   3  -8  -1  106.16    2.33
   3   8  -1  103.55    2.46
   2  -8  -1  234.63    5.02
   2  -8  -1  247.57    5.75
   2  -8  -1  237.35    5.16
   2   8  -1  234.33    5.15
   2   8  -1  248.25    5.03
   2   8  -1  232.35    5.62
  -1  -8   1  101.87    2.39
  -1  -8   1   99.35    2.47
   1  -8  -1   98.30    2.18
   1  -8  -1   98.04    2.56
  -1   8   1   97.69    2.29
   1   8  -1   99.43    2.42
   1   8  -1   97.57    2.33
  -1   8   1  101.05    2.40
   0  -8   1   57.35    1.36
   0  -8   1   60.16    1.64
   0  -8  -1   55.69    1.63
   0  -8  -1   57.32    1.36
   0   8  -1   58.94    1.49
   0   8   1   60.85    1.49
   0   8   1   57.87    1.51
   0   8  -1   59.98    1.53
  -1  -8  -1  116.01    2.51
  -1  -8  -1  117.53    2.77
   1  -8   1  114.27    2.50
   1  -8   1  113.39    2.92
  -1   8  -1  116.36    2.63
   1   8   1  116.95    2.78
  -1   8  -1  106.98    2.79
  -1   8  -1  112.80    2.51
   1   8   1  114.01    2.64
   2  -8   1    4.02    0.32
   2  -8   1    4.44    0.51
   2   8   1    3.90    0.29
   2   8   1    3.66    0.50
   3  -8   1   28.15    0.82
   3   8   1   28.27    0.99
   4  -8   1   13.01    0.56
   4   8   1   11.89    0.76
   5  -8   1   24.66    0.83
   5   8   1   25.00    0.96
   5  -9  -1   17.32    0.66
   5   9  -1   16.65    0.88
   4  -9  -1   12.90    0.56
   4   9  -1   12.66    0.77
   3  -9  -1   62.16    1.49
   3   9  -1   61.73    1.64
   2  -9  -1   82.18    1.89
   2  -9  -1   87.03    2.24
   2   9  -1   84.12    2.07
   2   9  -1   80.55    2.06
  -1  -9   1  114.72    2.52
   1  -9  -1  114.45    2.98
  -1  -9   1  118.06    2.79
  -1  -9   1  117.35    2.89
   1  -9  -1  113.70    2.55
   1   9  -1  115.96    2.82
   1   9  -1  114.18    2.71
  -1   9   1  120.59    2.68
   0  -9   1  106.74    2.36
   0  -9  -1  108.75    2.37
   0  -9  -1  105.83    2.77
   0  -9   1  105.11    2.76
   0   9  -1  109.64    2.62
   0   9   1  110.96    2.62
   0   9  -1  104.55    2.52
   0   9   1  105.59    2.51
   1  -9   1    4.78    0.35
   1  -9   1    4.51    0.52
  -1  -9  -1    4.80    0.34
  -1   9  -1    5.56    0.35
  -1   9  -1    5.22    0.54
   1   9   1    4.25    0.55
   1   9   1    5.30    0.33
   2  -9   1   36.14    0.96
   2  -9   1   35.22    1.19
   2   9   1   35.77    1.01
   2   9   1   36.03    1.13
   3  -9   1   28.65    0.85
   3   9   1   28.67    1.05
   4  -9   1   27.36    0.85
   4   9   1   27.07    1.07
   5  -9   1   20.37    0.77
   5   9   1   21.48    0.93
   5 -10  -1   14.13    0.63
   5  10  -1   15.11    0.89
   4 -10  -1   38.69    1.07
   4  10  -1   38.09    1.28
   3 -10  -1  125.58    2.85
   3  10  -1  131.48    3.03
   2 -10  -1   79.94    2.21
   2 -10  -1   82.18    1.88
   2  10  -1   80.61    2.06
   1 -10  -1   63.75    1.87
   1 -10  -1   66.15    1.57
  -1 -10   1   69.57    1.85
  -1 -10   1   66.51    1.55
  -1 -10   1   68.34    1.67
  -1  10   1   67.98    1.71
   1  10  -1   63.54    1.75
   1  10  -1   66.90    1.71
   0 -10   1   62.83    1.49
   0 -10  -1   65.00    1.51
   0 -10   1   61.12    1.79
   0 -10  -1   59.47    1.79
   0  10   1   64.67    1.63
   0  10  -1   65.62    1.64
   0  10  -1   63.22    1.68
   0  10   1   62.85    1.67
   1 -10   1  124.40    3.29
  -1 -10  -1  123.91    2.81
   1 -10   1  130.05    2.82
   1  10   1  128.05    3.12
  -1  10  -1  128.87    3.11
   1  10   1  128.21    2.99
  -1  10  -1  132.02    2.99
   2 -10   1   24.49    0.98
   2 -10   1   23.82    0.74
   2  10   1   22.94    0.75
   2  10   1   22.99    0.94
   3 -10   1   27.86    0.86
   3  10   1   27.35    1.09
   4 -10   1   30.52    0.93
   4  10   1   28.73    1.16
   4 -11  -1    7.07    0.50
   4  11  -1    7.13    0.76
   3 -11  -1  165.62    3.56
   3  11  -1  158.82    3.74
   2 -11  -1   35.55    0.99
   2  11  -1   35.64    1.21
  -1 -11   1   48.46    1.26
   1 -11  -1   47.95    1.51
  -1 -11   1   47.67    1.20
   1 -11  -1   47.37    1.21
  -1  11   1   48.80    1.36
   1  11  -1   47.89    1.42
   1  11  -1   47.18    1.29
   0 -11  -1   76.04    1.78
   0 -11  -1   72.93    2.11
   0 -11   1   75.00    1.77
   0 -11   1   75.08    2.12
   0  11  -1   78.82    1.99
   0  11  -1   75.98    1.94
   0  11   1   75.97    1.97
   0  11   1   78.53    1.95
  -1 -11  -1   68.00    1.62
   1 -11   1   67.33    1.63
   1 -11   1   67.24    1.96
   1  11   1   68.55    1.76
  -1  11  -1   66.04    1.80
   1  11   1   69.53    1.83
  -1  11  -1   68.48    1.76
   2 -11   1   38.29    1.34
   2 -11   1   39.02    1.07
   2  11   1   39.14    1.28
   3 -11   1   24.08    0.80
   3  11   1   24.14    1.06
   4 -11   1   24.58    0.84
   4  11   1   22.69    1.08
   4 -12  -1   20.59    0.78
   4  12  -1   20.68    1.03
   3 -12  -1   28.77    0.91
   3  12  -1   28.66    1.16
   2 -12  -1   56.47    1.42
   2  12  -1   54.87    1.65
   1 -12  -1   19.92    0.70
   1 -12  -1   21.89    0.98
  -1 -12   1   21.08    0.68
  -1  12   1   22.96    0.89
   1  12  -1   20.14    0.95
   1  12  -1   21.57    0.72
   0 -12   1   40.14    1.08
   0 -12   1   38.26    1.35
   0 -12  -1   39.68    1.09
   0 -12  -1   40.22    1.35
   0  12  -1   41.46    1.32
   0  12   1   41.83    1.16
   0  12   1   39.76    1.29
   0  12  -1   41.90    1.16
   1 -12   1   69.54    2.06
   1 -12   1   69.37    1.69
  -1 -12  -1   68.97    1.69
   1  12   1   70.51    1.91
  -1  12  -1   70.16    1.87
   1  12   1   70.47    1.83
  -1  12  -1   70.77    1.83
   2 -12   1   50.91    1.35
   2  12   1   52.72    1.58
   3 -12   1   37.58    1.11
   3  12   1   39.29    1.40
   4 -12   1   39.55    1.16
   4  12   1   36.69    1.39
   4 -13  -1    3.19    0.49
   4  13  -1    5.56    0.84
   3 -13  -1   62.43    1.59
   3  13  -1   61.02    1.84
   2 -13  -1   37.53    1.07
   2  13  -1   36.43    1.32
   1 -13  -1   87.81    2.50
   1 -13  -1   86.19    2.07
   1  13  -1   89.29    2.27
   1  13  -1   89.69    2.33
   0 -13   1   46.14    1.50
   0 -13  -1   44.22    1.21
   0 -13  -1   45.43    1.51
   0 -13   1   44.71    1.19
   0  13   1   43.49    1.42
   0  13  -1   45.78    1.29
   0  13  -1   46.23    1.47
   0  13   1   45.50    1.28
   1 -13   1   67.92    2.03
   1 -13   1   66.75    1.65
  -1  13  -1   69.67    1.94
   1  13   1   66.37    1.78
   1  13   1   67.60    1.90
  -1  13  -1   65.28    1.78
   2 -13   1   42.40    1.19
  -2  13  -1   43.91    1.19
   2  13   1   41.07    1.43
   3 -13   1   46.88    1.31
   3  13   1   45.85    1.59
   4 -13   1   15.50    0.74
   4  13   1   17.26    1.04
   4 -14  -1   32.45    1.07
   4  14  -1   33.34    1.37
   3 -14  -1    2.03    0.38
   3  14  -1    0.68    0.49
   2 -14  -1    6.02    0.51
   2  14  -1    7.18    0.83
   1 -14  -1   12.09    0.85
  -1 -14   1   13.16    0.69
   1 -14  -1   13.33    0.60
   1  14  -1   13.05    0.90
  -1  14   1   11.93    0.55
   1  14  -1   13.04    0.61
   0 -14   1  101.85    2.77
   0 -14  -1   95.86    2.76
   0 -14   1   99.36    2.33
   0 -14  -1   97.99    2.34
   0  14   1  102.55    2.58
   0  14   1  100.19    2.55
   0  14  -1  101.84    2.56
   0  14  -1  100.35    2.56
   1 -14   1   27.72    1.19
  -1 -14  -1   26.29    1.08
   1 -14   1   27.51    0.88
   1  14   1   27.69    0.91
   1  14   1   27.87    1.17
  -1  14  -1   27.16    0.91
   2 -14   1   91.95    2.20
  -2 -14  -1   90.92    2.34
  -2  14  -1   92.45    2.31
   2  14   1   89.95    2.45
   3 -14   1   16.68    0.75
   3  14   1   16.37    1.07
   4 -14   1   34.15    1.13
   4  14   1   35.73    1.46
   4 -15  -1   53.41    1.50
   4  15  -1   50.89    1.77
   3 -15  -1   10.22    0.62
   3  15  -1    9.38    0.91
   2 -15  -1    0.83    0.33
  -2  15   1    0.81    0.23
   2  15  -1    1.02    0.54
  -1 -15   1   51.53    1.59
   1 -15  -1   53.94    1.41
   1 -15  -1   52.07    1.77
   1  15  -1   52.29    1.49
   1  15  -1   52.35    1.67
  -1  15   1   51.15    1.45
   0 -15   1   16.07    0.93
   0 -15  -1   15.27    0.66
   0 -15  -1   17.15    0.95
   0 -15   1   15.17    0.66
   0  15   1   15.47    0.67
   0  15  -1   15.05    0.94
   0  15  -1   15.16    0.68
   0  15   1   17.37    0.97
   1 -15   1   85.66    2.48
   1 -15   1   87.85    2.07
  -1 -15  -1   84.04    2.39
   1  15   1   85.71    2.33
  -1  15  -1   80.84    2.20
   1  15   1   81.08    2.20
  -2 -15  -1    7.50    0.57
   2 -15   1    7.73    0.56
  -2  15  -1    7.71    0.49
   2  15   1    7.04    0.85
   3 -15   1   72.89    1.90
   3  15   1   73.81    2.23
   4 -15   1    5.46    0.58
   4  15   1    4.41    0.74
   3 -16  -1    6.10    0.58
   3  16  -1    3.06    0.64
   2 -16  -1   32.72    1.08
  -2  16   1   33.77    1.00
   2  16  -1   33.58    1.41
   1 -16  -1   18.73    1.06
   1 -16  -1   18.29    0.78
  -1 -16   1   18.69    0.88
   1  16  -1   18.98    1.10
  -1  16   1   17.96    0.74
   1  16  -1   18.62    0.77
   0 -16  -1   99.18    2.40
   0 -16  -1   98.77    2.86
   0 -16   1   97.03    2.82
   0  16  -1  101.27    2.68
   0  16  -1  102.19    2.62
   0  16   1   99.15    2.61
   0  16   1  104.29    2.68
   1 -16   1    1.29    0.54
   1 -16   1    1.08    0.33
  -1 -16  -1    1.15    0.47
   1  16   1    0.96    0.56
  -1  16  -1    0.63    0.32
   1  16   1    0.59    0.32
   2 -16   1   72.81    1.90
  -2 -16  -1   72.67    2.00
  -2  16  -1   76.39    1.97
   2  16   1   74.10    2.21
   3 -16   1    0.27    0.33
   3  16   1    1.32    0.63
   3 -17  -1   24.10    0.95
   3  17  -1   22.54    1.31
   2 -17  -1    0.63    0.35
  -2  17   1    0.46    0.30
   2  17  -1    0.47    0.56
  -1 -17   1   23.31    1.01
   1 -17  -1   21.96    0.89
   1 -17  -1   23.22    1.21
   1  17  -1   24.69    1.23
   1  17  -1   24.74    0.92
  -1  17   1   20.62    0.84
   0 -17   1    1.64    0.52
   0 -17  -1    1.40    0.53
   0  17   1    2.05    0.40
   0  17  -1    1.53    0.38
   1 -17   1   78.57    2.00
  -1 -17  -1   77.52    2.34
   1 -17   1   77.57    2.41
   1  17   1   77.88    2.13
   1  17   1   80.70    2.32
  -2 -17  -1    3.87    0.56
   2 -17   1    4.61    0.57
   2  17   1    3.92    0.75
  -2  17  -1    4.53    0.50
   3 -17   1   44.33    1.38
   3  17   1   46.38    1.77
   3 -18  -1    4.16    0.58
   3  18  -1    4.00    0.75
   2 -18  -1   34.02    1.16
   2  18  -1   35.95    1.53
   1 -18  -1   25.78    1.30
  -1 -18   1   24.87    1.12
   1 -18  -1   25.99    0.96
  -1  18   1   22.94    0.93
   1  18  -1   26.48    0.98
   1  18  -1   29.19    1.37
   0 -18   1   85.71    2.57
   0 -18  -1   84.40    2.58
   0  18  -1   85.83    2.31
   0  18   1   84.11    2.31
   1 -18   1    2.64    0.64
  -1 -18  -1    2.52    0.57
   1 -18   1    3.81    0.53
   1  18   1    2.20    0.42
  -1  18  -1    2.29    0.42
   1  18   1    2.21    0.61
   2 -18   1   30.97    1.11
  -2 -18  -1   30.36    1.11
   2  18   1   33.36    1.50
  -2  18  -1   32.06    1.07
   3 -18   1    0.63    0.40
   3  18   1    0.53    0.65
   3 -19  -1   27.75    1.10
   3  19  -1   28.70    1.50
   2 -19  -1    0.63    0.39
   2  19  -1    1.22    0.65
  -2  19   1    0.04    0.33
   1 -19  -1   44.47    1.37
   1 -19  -1   44.35    1.74
  -1 -19   1   44.16    1.54
   1  19  -1   44.11    1.42
   1  19  -1   46.47    1.74
  -1  19   1   39.63    1.36
   0 -19  -1    1.83    0.62
   0 -19   1    1.94    0.55
   0  19   1    1.05    0.43
   0  19  -1    1.67    0.42
  -1 -19  -1   32.65    1.34
   1 -19   1   33.23    1.47
   1  19   1   32.19    1.15
  -1  19  -1   29.39    1.10
   1  19   1   30.60    1.46
  -2 -19  -1    0.65    0.41
   2 -19   1    1.29    0.43
   2  19   1    0.73    0.67
  -2  19  -1    1.67    0.39
   2 -20  -1   30.60    1.18
   2  20  -1   30.99    1.60
  -1 -20   1    2.96    0.56
   1 -20  -1    2.69    0.69
   1  20  -1    2.07    0.70
  -1  20   1    3.15    0.55
   1  20  -1    2.81    0.54
   0 -20   1   36.14    1.51
   0 -20  -1   38.60    1.57
   0  20   1   36.30    1.27
   0  20  -1   35.59    1.25
   1 -20   1    2.08    0.68
  -1 -20  -1    1.02    0.52
  -1  20  -1    1.24    0.41
   1  20   1    1.58    0.41
   2 -20   1   23.84    1.00
  -2 -20  -1   23.88    1.01
   2  20   1   28.91    1.55
  -2  20  -1   22.62    0.95
   2 -21  -1    0.84    0.43
   2  21  -1   -0.08    0.69
  -2  21   1    0.74    0.39
   1 -21  -1   50.73    1.92
  -1 -21   1   46.03    1.65
   1  21  -1   47.23    1.53
  -1  21   1   42.67    1.47
   0 -21   1    2.35    0.64
   0 -21  -1    1.69    0.65
   0  21   1    1.27    0.43
   0  21  -1    1.45    0.44
  -1 -21  -1   23.00    1.17
   1 -21   1   23.26    1.33
   1  21   1   21.74    0.97
  -1  21  -1   20.70    0.97
  -2  21  -1    1.23    0.42
   1 -22  -1    2.46    0.78
  -1 -22   1    1.92    0.56
   1  22  -1    0.98    0.47
  -1  22   1    1.56    0.44
   0 -22   1   18.98    1.20
   0 -22  -1   18.82    1.24
   0  22   1   15.46    0.86
   0  22  -1   16.02    0.89
   1 -22   1    1.71    0.68
  -1 -22  -1    2.29    0.61
  -1  22  -1    1.38    0.45
   1  22   1    1.15    0.51
   1   0  -2   -0.51    0.13
   1   0  -2   -0.58    0.10
   1   0  -2   -0.52    0.12
  -1   0   2   -0.60    0.08
   0   0   2   42.28    1.04
   0   0  -2   41.40    0.96
   0   0   2   37.14    0.94
   0   0   2   39.95    0.94
   0   0  -2   41.76    0.98
   1   0   2    0.60    0.18
  -1   0  -2    0.51    0.22
   1   0   2    0.29    0.14
  -1   0  -2    0.29    0.15
   1   0   2    0.47    0.21
   2   0   2  184.92    3.84
   2   0   2  175.04    3.81
   2   0   2  177.55    3.80
   3   0   2    1.21    0.27
   3   0   2    1.59    0.25
   3   0   2    1.08    0.18
   4   0   2   97.76    2.24
   4   0   2   98.31    2.24
   5   0   2   -0.38    0.24
   1  -1  -2  103.02    2.15
   1  -1  -2  100.72    2.15
   1  -1  -2  101.99    2.17
   1   1  -2  101.68    2.14
   1   1  -2  101.72    2.16
   1   1  -2  101.89    2.17
  -1   1   2  101.89    2.15
   0  -1  -2    5.98    0.34
   0  -1   2    6.25    0.30
   0  -1   2    6.15    0.30
   0  -1   2    6.60    0.33
   0  -1  -2    6.24    0.35
   0   1  -2    6.42    0.33
   0   1  -2    6.27    0.36
   0   1   2    6.88    0.33
   0   1   2    6.24    0.32
   0   1   2    6.79    0.30
   0   1  -2    6.34    0.31
  -1  -1  -2  176.33    4.03
   1  -1   2  166.22    3.59
   1  -1   2  171.12    4.05
  -1  -1  -2  176.37    4.02
   1  -1   2  166.72    3.57
  -1   1  -2  175.87    4.03
   1   1   2  166.39    3.58
   1   1   2  164.25    3.60
   1   1   2  169.45    4.03
  -1   1  -2  163.38    3.58
   2  -1   2   17.37    0.54
   2  -1   2   16.98    0.54
   2  -1   2   17.29    0.62
   2   1   2   16.69    0.55
   2   1   2   16.55    0.54
   2   1   2   17.47    0.58
   3  -1   2  126.56    2.83
   3  -1   2  125.95    2.76
   3  -1   2  122.46    2.76
   3   1   2  126.14    2.79
   3   1   2  126.12    2.78
   3   1   2  130.20    2.82
   4  -1   2   11.34    0.52
   4  -1   2   11.95    0.53
   4   1   2   11.26    0.52
   4   1   2   12.37    0.56
   5  -1   2   22.19    0.77
   5   1   2   22.85    0.79
   1  -2  -2   45.50    1.02
   1  -2  -2   44.76    0.99
   1   2  -2   44.00    0.98
  -1   2   2   44.22    1.00
   1   2  -2   43.00    1.03
   1   2  -2   44.02    0.99
   0  -2   2  135.10    3.22
   0  -2   2  136.49    2.83
   0  -2   2  132.31    2.85
   0  -2  -2  133.37    2.86
   0   2  -2  135.83    2.85
   0   2  -2  136.02    2.90
   0   2   2  132.51    2.86
   0   2  -2  136.70    3.19
   0   2   2  136.01    3.18
   0   2   2  130.09    2.87
   1  -2   2    5.79    0.32
   1  -2   2    5.56    0.31
   1  -2   2    5.79    0.41
  -1  -2  -2    6.47    0.36
  -1   2  -2    5.68    0.32
  -1   2  -2    6.17    0.39
   1   2   2    6.26    0.34
   1   2   2    5.71    0.36
   2  -2   2  194.68    4.11
   2  -2   2  200.50    4.17
   2  -2   2  194.80    4.09
   2  -2   2  189.69    4.63
   2   2   2  190.97    4.61
   2   2   2  193.88    4.14
   2   2   2  197.25    4.13
   2   2   2  188.11    4.11
   3  -2   2   16.31    0.55
   3  -2   2   17.71    0.69
   3  -2   2   15.35    0.55
   3   2   2   15.11    0.57
   3   2   2   16.77    0.59
   3   2   2   15.73    0.60
   4  -2   2   52.29    1.32
   4  -2   2   52.54    1.32
   4   2   2   52.81    1.35
   4   2   2   51.71    1.34
   5  -2   2    3.04    0.37
   5   2   2    3.17    0.39
   2  -3  -2    5.97    0.25
   2   3  -2    5.79    0.31
   2   3  -2    5.94    0.23
   1  -3  -2  132.82    2.85
   1  -3  -2  133.09    2.88
   1   3  -2  135.68    2.86
   1   3  -2  137.69    3.17
   1   3  -2  137.92    2.91
  -1   3   2  136.82    2.87
   1   3  -2  136.19    2.84
   0  -3  -2   23.03    0.62
   0  -3   2   21.63    0.59
   0  -3   2   21.52    0.58
   0  -3   2   21.58    0.70
   0   3  -2   22.56    0.71
   0   3  -2   23.30    0.65
   0   3   2   22.78    0.62
   0   3  -2   22.75    0.60
   0   3   2   21.35    0.64
   1  -3   2  166.81    3.56
  -1  -3  -2  176.46    3.99
   1  -3   2  165.05    3.54
   1  -3   2  165.86    4.04
   1   3   2  164.89    3.98
  -1   3  -2  167.46    3.56
  -1   3  -2  174.34    4.03
   1   3   2  160.81    3.57
   2  -3   2   82.64    1.84
   2  -3   2   82.70    1.92
   2  -3   2   81.77    1.85
   2  -3   2   80.66    2.10
   2   3   2   81.26    1.88
   2   3   2   83.90    1.87
   2   3   2   81.84    2.05
   3  -3   2   82.97    1.88
   3  -3   2   80.76    1.86
   3   3   2   80.80    1.91
   4  -3   2   17.24    0.64
   4  -3   2   18.95    0.63
   4   3   2   15.58    0.66
   4   3   2   16.99    0.68
   5  -3   2   18.48    0.70
   5   3   2   17.82    0.74
   3  -4  -2   12.97    0.39
   3  -4  -2   12.69    0.49
   3   4  -2   12.70    0.50
   2  -4  -2  110.23    2.34
   2  -4  -2  106.67    2.26
   2   4  -2  102.94    2.33
   2   4  -2  107.27    2.26
   1  -4  -2   11.19    0.37
   1   4  -2   10.42    0.35
   1   4  -2   11.10    0.49
   1   4  -2   11.19    0.35
   0  -4  -2  192.41    4.09
   0  -4   2  192.49    4.64
   0  -4  -2  195.98    4.67
   0  -4   2  191.30    4.07
   0  -4   2  193.32    4.10
   0   4  -2  190.33    4.16
   0   4   2  199.88    4.58
   0   4   2  193.67    4.12
   0   4  -2  203.71    4.59
   0   4  -2  194.96    4.10
  -1  -4  -2   45.95    1.17
   1  -4   2   42.92    1.07
   1  -4   2   44.53    1.25
  -1  -4  -2   44.49    1.10
   1  -4   2   44.82    1.06
   1   4   2   45.23    1.17
  -1   4  -2   44.76    1.07
  -1   4  -2   45.03    1.24
  -1   4  -2   43.13    1.16
   2  -4   2  117.58    2.95
   2  -4   2  119.56    2.60
   2  -4   2  115.84    2.58
   2  -4   2  117.08    2.67
   2   4   2  114.82    2.63
   2   4   2  116.57    2.88
   2   4   2  127.62    2.63
   3  -4   2   50.26    1.26
   3  -4   2   50.85    1.28
   3   4   2   54.55    1.35
   4  -4   2   30.80    0.87
   4  -4   2   29.91    0.87
   4   4   2   28.80    0.94
   4   4   2   28.47    0.92
   5  -4   2    8.27    0.51
   5   4   2    8.43    0.58
   4  -5  -2   12.06    0.43
   3  -5  -2   75.18    1.76
   3  -5  -2   76.27    1.66
   3   5  -2   75.77    1.76
   3   5  -2   75.02    1.65
   2  -5  -2   14.50    0.44
   2  -5  -2   14.28    0.56
   2   5  -2   13.74    0.56
   2   5  -2   14.36    0.43
   1  -5  -2  231.85    4.87
   1   5  -2  230.35    4.96
   1   5  -2  239.89    5.47
   0  -5  -2    3.98    0.42
   0  -5   2    3.74    0.42
   0  -5   2    3.91    0.27
   0  -5  -2    4.10    0.30
   0   5   2    4.29    0.26
   0   5   2    3.72    0.41
   0   5  -2    4.30    0.28
   0   5  -2    4.27    0.29
   0   5  -2    3.62    0.44
   1  -5   2  272.36    5.71
  -1  -5  -2  272.81    6.41
  -1  -5  -2  281.55    5.72
   1  -5   2  269.31    6.49
   1  -5   2  273.57    5.69
   1   5   2  272.71    6.40
   1   5   2  269.33    5.78
  -1   5  -2  270.77    5.71
  -1   5  -2  268.41    5.78
  -1   5  -2  274.83    6.47
   2  -5   2   22.29    0.81
   2  -5   2   22.67    0.66
   2  -5   2   23.41    0.68
   2   5   2   22.21    0.71
   2   5   2   23.14    0.69
   3  -5   2   74.79    1.72
   3  -5   2   74.79    1.73
   3   5   2   71.06    1.78
   4  -5   2   17.40    0.63
   4  -5   2   18.39    0.66
   4   5   2   16.60    0.74
   4   5   2   17.51    0.72
   5  -5   2   28.19    0.91
   5   5   2   28.42    0.96
   5  -6  -2    8.19    0.43
   4  -6  -2   47.26    1.14
   4   6  -2   47.49    1.27
   3  -6  -2   51.02    1.32
   3  -6  -2   51.40    1.20
   3   6  -2   52.58    1.19
   3   6  -2   50.74    1.32
   2  -6  -2  131.94    2.86
   2  -6  -2  129.63    2.75
   2   6  -2  124.10    2.85
   2   6  -2  129.06    2.74
  -1  -6   2   22.25    0.59
  -1  -6   2   22.91    0.63
   1  -6  -2   21.95    0.62
   1  -6  -2   21.79    0.75
  -1   6   2   22.25    0.60
   1   6  -2   21.12    0.62
   1   6  -2   20.87    0.76
   0  -6   2  202.83    4.92
   0  -6  -2  202.97    4.94
   0  -6   2  204.25    4.29
   0  -6  -2  201.95    4.31
   0   6  -2  212.69    4.84
   0   6  -2  200.29    4.32
   0   6   2  208.00    4.82
   0   6   2  203.27    4.40
   0   6  -2  204.08    4.42
   1  -6   2  126.19    2.71
  -1  -6  -2  124.63    3.02
   1  -6   2  123.84    3.13
  -1  -6  -2  126.04    2.73
   1   6   2  125.97    3.02
  -1   6  -2  124.15    2.72
   1   6   2  122.47    2.81
  -1   6  -2  123.38    2.82
  -1   6  -2  127.85    3.02
   2  -6   2   75.95    2.04
   2  -6   2   77.68    1.77
   2  -6   2   76.40    1.75
   2   6   2   75.93    1.93
   2   6   2   76.09    1.88
   3  -6   2   50.66    1.27
   3  -6   2   51.13    1.28
   4  -6   2   11.29    0.54
   4  -6   2   11.12    0.53
   4   6   2   11.56    0.66
   5  -6   2    8.57    0.53
   5   6   2    7.53    0.60
   5  -7  -2   15.73    0.57
   5   7  -2   15.27    0.73
   4  -7  -2    2.73    0.33
   4   7  -2    2.47    0.40
   3  -7  -2   78.64    1.75
   3   7  -2   75.85    1.87
   2  -7  -2   91.77    2.02
   2  -7  -2   93.78    2.15
   2   7  -2   87.89    2.15
   2   7  -2   92.04    2.01
   1  -7  -2  167.03    3.66
  -1  -7   2  174.53    4.10
  -1  -7   2  179.59    4.04
   1  -7  -2  171.24    4.19
  -1   7   2  174.12    4.05
   1   7  -2  173.90    4.08
   1   7  -2  163.45    3.77
   0  -7   2  162.52    4.11
   0  -7  -2  166.96    4.14
   0  -7   2  166.83    3.58
   0  -7  -2  168.54    3.60
   0   7   2  166.35    3.69
   0   7  -2  168.41    3.61
   0   7  -2  172.63    4.02
   0   7   2  177.93    4.01
   0   7  -2  165.89    3.72
  -1  -7  -2  230.17    4.72
   1  -7   2  222.91    5.40
  -1  -7  -2  205.53    5.35
   1  -7   2  218.25    4.68
  -1   7  -2  226.79    4.82
  -1   7  -2  226.83    5.27
   1   7   2  227.21    5.27
  -1   7  -2  221.28    4.72
   1   7   2  221.80    4.82
   2  -7   2   32.46    0.88
   2  -7   2   31.95    1.08
   2   7   2   32.24    1.03
   2   7   2   33.19    0.95
   3  -7   2   30.20    0.88
   4  -7   2   13.09    0.59
   4   7   2   14.39    0.73
   5  -7   2   18.83    0.73
   5   7   2   18.69    0.85
   5  -8  -2    3.06    0.41
   5   8  -2    2.39    0.45
   4  -8  -2   13.36    0.53
   4   8  -2   11.52    0.70
   3  -8  -2   67.54    1.58
   3   8  -2   67.23    1.73
   2  -8  -2   78.37    1.90
   2  -8  -2   75.93    1.75
   2  -8  -2   78.27    2.03
   2   8  -2   73.52    1.89
   2   8  -2   76.38    1.90
   2   8  -2   79.95    1.75
   1  -8  -2  126.19    3.27
  -1  -8   2  136.58    3.11
   1  -8  -2  128.94    2.84
  -1  -8   2  130.42    3.18
  -1   8   2  132.80    3.12
  -1   8   2  131.35    2.97
   1   8  -2  129.36    3.14
   1   8  -2  127.23    2.98
   0  -8  -2  130.42    3.37
   0  -8   2  129.79    3.33
   0  -8   2  130.93    2.88
   0  -8  -2  134.46    2.91
   0   8   2  132.32    3.02
   0   8  -2  132.40    3.05
   0   8   2  138.22    3.22
   0   8  -2  137.41    3.22
   1  -8   2   60.10    1.75
  -1  -8  -2   63.36    1.49
   1  -8   2   62.37    1.47
   1   8   2   62.27    1.60
  -1   8  -2   61.12    1.61
  -1   8  -2   62.38    1.61
   1   8   2   63.14    1.63
   2  -8   2   86.29    2.32
   2  -8   2   88.94    1.99
   2   8   2   84.53    2.18
   2   8   2   84.64    2.13
   3  -8   2   12.54    0.55
   3   8   2   13.00    0.76
   4  -8   2   27.86    0.87
   4   8   2   26.73    1.01
   5  -8   2    2.65    0.38
   5   8   2    3.30    0.49
   5  -9  -2   17.89    0.68
   4  -9  -2   26.58    0.82
   4   9  -2   26.51    1.00
   3  -9  -2   71.38    1.68
   3   9  -2   71.53    1.87
   2  -9  -2   81.98    1.89
   2  -9  -2   83.95    2.22
   2   9  -2   82.78    2.07
   1  -9  -2   29.49    1.05
  -1  -9   2   31.75    0.83
  -1  -9   2   31.49    0.93
  -1  -9   2   30.59    0.83
   1  -9  -2   29.80    0.84
  -1   9   2   29.93    0.96
   1   9  -2   30.61    0.87
   1   9  -2   29.78    1.01
  -1   9   2   29.77    0.85
   0  -9  -2  248.13    5.18
   0  -9  -2  238.64    5.94
   0  -9   2  245.44    5.91
   0  -9   2  242.70    5.15
   0   9   2  240.38    5.29
   0   9   2  250.53    5.78
   0   9  -2  238.26    5.31
   0   9  -2  248.58    5.79
   1  -9   2   63.35    1.83
  -1  -9  -2   64.60    1.54
   1  -9   2   63.17    1.51
  -1  -9  -2   63.51    1.78
   1   9   2   65.12    1.66
   1   9   2   62.20    1.67
  -1   9  -2   64.80    1.66
  -1   9  -2   64.90    1.69
   2  -9   2   52.12    1.30
   2  -9   2   52.28    1.58
   2   9   2   51.46    1.49
   2   9   2   50.52    1.39
   3  -9   2   26.40    0.83
   3   9   2   25.81    1.05
   4  -9   2   11.54    0.59
   4   9   2   11.37    0.76
   4 -10  -2   19.35    0.69
   4  10  -2   17.93    0.91
   3 -10  -2   66.44    1.60
   3  10  -2   65.13    1.81
   2 -10  -2   15.60    0.56
   2  10  -2   14.56    0.80
   1 -10  -2  142.99    3.13
   1 -10  -2  144.93    3.65
  -1 -10   2  144.68    3.52
  -1 -10   2  145.42    3.41
  -1 -10   2  137.36    3.08
   1  10  -2  140.67    3.30
  -1  10   2  141.96    3.24
   1  10  -2  141.82    3.45
   0 -10  -2  133.14    2.92
   0 -10  -2  129.38    3.40
   0 -10   2  130.49    2.89
   0 -10   2  131.63    3.37
   0  10   2  130.90    3.06
   0  10   2  135.74    3.22
   0  10  -2  133.11    3.22
   0  10  -2  131.96    3.09
   1 -10   2   94.94    2.15
   1 -10   2   94.79    2.55
  -1 -10  -2   92.41    2.50
  -1 -10  -2   92.10    2.15
  -1  10  -2   95.19    2.33
  -1  10  -2   93.00    2.36
   1  10   2   96.56    2.37
   1  10   2   92.16    2.32
   2 -10   2   41.55    1.43
   2 -10   2   43.32    1.17
  -2  10  -2   48.53    1.27
   2  10   2   43.64    1.25
   2  10   2   43.39    1.39
   3 -10   2   15.52    0.65
   3  10   2   16.32    0.90
   4 -10   2   48.99    1.35
   4 -11  -2   22.96    0.80
   4  11  -2   23.50    1.01
   3 -11  -2   64.12    1.56
   3  11  -2   61.21    1.78
   2 -11  -2  105.86    2.41
   2  11  -2  105.79    2.63
   1 -11  -2   13.83    0.56
  -1 -11   2   13.65    0.49
   1 -11  -2   13.75    0.76
  -1 -11   2   13.87    0.63
  -1 -11   2   13.89    0.51
   1  11  -2   15.20    0.80
   1  11  -2   13.73    0.55
  -1  11   2   14.29    0.72
   0 -11   2   82.61    2.31
   0 -11   2   85.45    1.97
   0 -11  -2   83.44    2.35
   0 -11  -2   84.41    1.99
   0  11  -2   84.58    2.19
   0  11   2   86.44    2.15
   0  11  -2   87.06    2.17
   0  11   2   85.78    2.15
   1 -11   2   42.90    1.11
  -1 -11  -2   41.02    1.11
   1 -11   2   40.81    1.39
  -1 -11  -2   41.17    1.34
  -1  11  -2   40.83    1.17
   1  11   2   41.56    1.17
   1  11   2   40.93    1.31
  -1  11  -2   42.04    1.33
   2 -11   2   47.81    1.29
  -2 -11  -2   51.36    1.34
  -2 -11  -2   48.87    1.35
   2 -11   2   49.69    1.60
   2  11   2   48.54    1.52
   3 -11   2   24.57    0.84
   3  11   2   25.01    1.09
   4 -11   2   16.75    0.74
   4 -12  -2   19.29    0.76
   4  12  -2   20.26    1.01
   3 -12  -2   36.83    1.07
   3  12  -2   35.65    1.32
   2 -12  -2   34.23    1.00
   2  12  -2   35.16    1.27
   1 -12  -2  125.41    2.82
   1 -12  -2  124.99    3.32
   1  12  -2  125.38    3.05
   1  12  -2  124.74    3.09
   0 -12  -2   17.78    0.91
   0 -12   2   18.71    0.65
   0 -12  -2   19.03    0.67
   0 -12   2   16.90    0.85
   0  12  -2   18.11    0.68
   0  12   2   18.44    0.66
   0  12  -2   18.77    0.91
   0  12   2   19.14    0.87
   1 -12   2  120.00    3.18
   1 -12   2  115.88    2.68
  -1 -12  -2  117.50    3.12
  -1 -12  -2  118.57    2.70
  -1  12  -2  116.30    2.95
  -1  12  -2  121.92    2.91
   1  12   2  120.57    2.91
   1  12   2  119.86    2.96
   2 -12   2   29.24    1.21
   2 -12   2   29.74    0.93
  -2 -12  -2   29.85    0.97
   2  12   2   30.38    1.16
   3 -12   2   29.12    0.96
   3  12   2   29.64    1.22
   4 -12   2   22.83    0.86
   4 -13  -2   57.20    1.50
   4  13  -2   52.18    1.72
   3 -13  -2    9.06    0.56
   3  13  -2    9.56    0.91
   2 -13  -2   43.99    1.23
   2  13  -2   45.81    1.50
   1 -13  -2   11.33    0.81
   1 -13  -2   11.36    0.56
   1  13  -2   10.83    0.83
   1  13  -2   11.24    0.56
   0 -13  -2   59.75    1.88
   0 -13  -2   59.35    1.53
   0 -13   2   60.78    1.51
   0 -13   2   61.33    1.83
   0  13   2   59.43    1.62
   0  13   2   62.50    1.74
   0  13  -2   59.85    1.63
   0  13  -2   59.84    1.76
  -1 -13  -2   30.87    1.19
   1 -13   2   31.20    0.94
   1 -13   2   30.77    1.24
   1  13   2   31.18    1.22
   1  13   2   30.98    0.98
  -1  13  -2   29.30    0.97
   2 -13   2   66.03    1.67
  -2 -13  -2   63.73    1.79
   2  13   2   67.05    1.92
   3 -13   2   29.84    1.00
   3  13   2   30.68    1.28
   4 -13   2   24.53    0.94
   4 -14  -2   30.28    1.01
   4  14  -2   28.08    1.26
   3 -14  -2   19.64    0.81
   3  14  -2   21.32    1.10
   2 -14  -2   16.02    0.71
   2  14  -2   14.90    0.99
   1 -14  -2   49.67    1.70
  -1 -14   2   49.82    1.50
   1 -14  -2   50.62    1.37
  -1  14   2   48.52    1.37
   1  14  -2   50.70    1.62
   1  14  -2   49.35    1.42
   0 -14  -2    6.15    0.74
   0 -14   2    5.26    0.45
   0 -14   2    6.82    0.69
   0 -14  -2    6.34    0.47
   0  14  -2    6.37    0.47
   0  14   2    5.84    0.47
   0  14  -2    5.99    0.76
   0  14   2    4.73    0.71
   1 -14   2   41.45    1.50
  -1 -14  -2   40.82    1.44
   1 -14   2   41.39    1.17
   1  14   2   41.25    1.47
  -1  14  -2   41.61    1.25
   1  14   2   41.54    1.24
   2 -14   2   12.96    0.66
  -2 -14  -2   12.70    0.68
   2  14   2   12.88    0.94
  -2  14  -2   12.47    0.61
   3 -14   2   60.84    1.65
   3  14   2   61.80    1.95
   4 -14   2    6.35    0.61
   4  14   2    6.09    0.89
   4 -15  -2   58.85    1.59
   4  15  -2   55.07    1.87
   3 -15  -2    4.60    0.52
   3  15  -2    5.38    0.86
   2 -15  -2   25.28    0.92
   2  15  -2   24.22    1.20
   1 -15  -2   36.99    1.14
   1 -15  -2   37.75    1.48
  -1 -15   2   38.23    1.27
   1  15  -2   39.45    1.46
   1  15  -2   39.19    1.19
  -1  15   2   37.85    1.15
   0 -15   2   38.84    1.42
   0 -15   2   40.56    1.15
   0 -15  -2   38.88    1.48
   0 -15  -2   39.41    1.17
   0  15  -2   38.95    1.21
   0  15   2   40.73    1.41
   0  15   2   39.54    1.21
   0  15  -2   40.33    1.45
   1 -15   2    6.14    0.51
   1 -15   2    6.16    0.78
  -1 -15  -2    6.93    0.73
  -1  15  -2    5.53    0.51
   1  15   2    6.75    0.51
   1  15   2    8.14    0.87
   2 -15   2  109.76    2.56
  -2 -15  -2  105.00    2.78
   2  15   2  105.73    2.83
  -2  15  -2  105.70    2.72
   3 -15   2    4.64    0.56
   3  15   2    5.03    0.76
   3 -16  -2   30.00    1.05
   3  16  -2   29.61    1.38
   2 -16  -2    8.83    0.61
  -2  16   2    7.02    0.45
   2  16  -2    9.27    0.99
   1 -16  -2   20.69    0.82
  -1 -16   2   20.68    0.92
   1 -16  -2   17.90    1.12
   1  16  -2   21.24    0.83
  -1  16   2   20.15    0.79
   1  16  -2   20.55    1.15
   0 -16  -2   10.03    0.89
   0 -16  -2   10.82    0.61
   0 -16   2   10.82    0.85
   0  16   2   11.27    0.62
   0  16  -2    9.53    0.61
   0  16  -2   10.94    0.91
   1 -16   2   49.02    1.74
   1 -16   2   50.01    1.40
  -1 -16  -2   48.49    1.68
   1  16   2   50.67    1.46
  -1  16  -2   47.52    1.46
   1  16   2   48.70    1.68
   2 -16   2    4.41    0.56
  -2 -16  -2    4.98    0.61
   2  16   2    4.46    0.71
  -2  16  -2    4.59    0.50
   3 -16   2   53.39    1.55
   3  16   2   54.64    1.90
   3 -17  -2    2.47    0.45
   3  17  -2    3.05    0.70
   2 -17  -2   39.02    1.22
   2  17  -2   36.83    1.54
  -1 -17   2   21.93    0.97
   1 -17  -2   21.83    0.87
   1 -17  -2   19.54    1.17
   1  17  -2   21.46    0.86
  -1  17   2   20.17    0.80
   1  17  -2   22.00    1.24
   0 -17   2   28.91    1.28
   0 -17  -2   30.31    1.34
   0  17   2   30.34    1.04
   0  17  -2   30.38    1.06
   1 -17   2    4.50    0.53
   1 -17   2    5.55    0.82
  -1 -17  -2    6.90    0.80
   1  17   2    5.46    0.54
   1  17   2    6.15    0.89
  -1  17  -2    5.21    0.54
   2 -17   2   62.66    1.73
  -2 -17  -2   64.34    1.86
  -2  17  -2   60.67    1.75
   2  17   2   66.56    2.08
   3 -17   2    0.36    0.38
   3  17   2    1.62    0.69
   3 -18  -2   28.68    1.10
   3  18  -2   29.62    1.47
   2 -18  -2    6.66    0.63
   2  18  -2    9.29    1.06
  -2  18   2    5.84    0.47
  -1 -18   2   41.65    1.43
   1 -18  -2   41.25    1.29
   1 -18  -2   39.96    1.63
   1  18  -2   40.54    1.32
  -1  18   2   36.31    1.24
   1  18  -2   44.80    1.66
   0 -18  -2    6.65    0.89
   0 -18   2    7.08    0.83
   0  18   2    6.49    0.59
   0  18  -2    5.83    0.58
   1 -18   2   57.09    1.94
  -1 -18  -2   54.24    1.84
   1 -18   2   56.17    1.59
  -1  18  -2   49.61    1.61
   1  18   2   53.67    1.63
   1  18   2   56.34    1.90
  -2 -18  -2    5.98    0.69
   2 -18   2    6.49    0.62
  -2  18  -2    6.19    0.56
   2  18   2    6.42    1.01
   3 -18   2   47.69    1.50
   3  18   2   50.24    1.90
   2 -19  -2   29.26    1.14
   2  19  -2   32.90    1.51
   1 -19  -2    2.11    0.45
   1 -19  -2    2.69    0.71
  -1 -19   2    3.81    0.65
   1  19  -2    3.51    0.58
   1  19  -2    4.21    0.79
  -1  19   2    2.98    0.49
   0 -19  -2   34.03    1.48
   0 -19   2   32.27    1.37
   0  19  -2   30.86    1.14
   0  19   2   30.66    1.12
   1 -19   2    4.39    0.71
  -1 -19  -2    3.55    0.64
   1  19   2    3.40    0.55
  -1  19  -2    3.67    0.57
  -2 -19  -2   37.17    1.33
   2 -19   2   38.76    1.28
  -2  19  -2   35.77    1.23
   2  19   2   42.16    1.73
   2 -20  -2    0.94    0.42
  -2  20   2    0.81    0.35
   2  20  -2    1.48    0.71
   1 -20  -2   52.14    1.96
  -1 -20   2   47.37    1.67
   1  20  -2   53.06    1.95
   1  20  -2   50.99    1.62
   0 -20   2    7.60    0.87
   0 -20  -2    7.18    0.97
   0  20  -2    6.17    0.64
   0  20   2    7.00    0.64
   1 -20   2   41.80    1.66
  -1 -20  -2   41.59    1.60
   1  20   2   39.75    1.34
  -1  20  -2   34.57    1.30
  -2 -20  -2    1.82    0.50
   2 -20   2    1.95    0.47
  -2  20  -2    2.27    0.43
   2  20   2    2.77    0.80
  -1 -21   2    0.65    0.48
   1 -21  -2    1.23    0.66
  -1  21   2    0.50    0.39
   1  21  -2    0.70    0.47
   0 -21   2   51.12    1.85
   0 -21  -2   48.18    1.91
   0  21  -2   49.23    1.63
   0  21   2   49.57    1.60
  -1 -21  -2    1.56    0.61
   1 -21   2    1.44    0.62
  -1  21  -2    1.56    0.46
   1  21   2    1.30    0.44
  -1  22   2   29.42    1.18
   1  22  -2   32.62    1.28
   0 -22  -2    3.11    0.76
   0 -22   2    5.44    0.92
   0  22  -2    3.38    0.55
   0  22   2    3.26    0.53
   2   0  -3   -0.03    0.13
   2   0  -3    0.02    0.14
   2   0  -3   -0.07    0.11
  -1   0   3  158.38    3.41
   1   0  -3  165.48    3.44
   1   0  -3  163.14    3.82
   1   0  -3  162.86    3.44
   0   0   3    0.04    0.14
   0   0   3    0.18    0.18
   0   0  -3   -0.03    0.22
   0   0   3   -0.07    0.19
   0   0  -3    0.18    0.16
   1   0   3  178.34    4.28
  -1   0  -3  185.84    4.29
  -1   0  -3  171.93    3.81
   1   0   3  177.37    3.81
   1   0   3  173.98    3.79
  -1   0  -3  179.08    3.84
   2   0   3    0.64    0.26
   2   0   3    0.59    0.18
   2   0   3    0.52    0.23
   3   0   3   85.95    2.03
   3   0   3   87.50    2.04
   4   0   3    0.44    0.27
   4   0   3    0.40    0.22
   5   0   3   87.85    2.14
   2  -1  -3  194.63    4.10
   2  -1  -3  193.59    4.07
   2  -1  -3  197.97    4.07
   2   1  -3  196.07    4.06
   2   1  -3  197.10    4.08
   2   1  -3  193.31    4.09
   1  -1  -3    7.46    0.35
   1  -1  -3    7.73    0.36
  -1  -1   3    7.56    0.30
   1  -1  -3    7.10    0.34
   1  -1  -3    7.94    0.33
   1   1  -3    7.48    0.31
   1   1  -3    7.95    0.34
   1   1  -3    8.29    0.33
  -1   1   3    7.58    0.32
   1   1  -3    7.95    0.39
   0  -1  -3  125.22    2.65
   0  -1   3  117.63    2.60
   0  -1   3  122.57    2.93
   0  -1  -3  121.13    2.64
   0  -1   3  120.19    2.62
   0   1   3  119.72    2.61
   0   1  -3  123.57    2.67
   0   1   3  122.11    2.91
   0   1  -3  122.13    2.63
   0   1   3  116.73    2.63
   1  -1   3   36.87    0.96
  -1  -1  -3   39.75    1.09
   1  -1   3   37.17    0.97
  -1  -1  -3   38.95    1.02
   1  -1   3   37.16    1.08
   1   1   3   37.41    1.06
   1   1   3   36.74    0.98
   1   1   3   37.18    0.98
  -1   1  -3   39.43    1.12
  -1   1  -3   39.64    1.05
  -1   1  -3   37.21    0.97
   2  -1   3  143.47    3.52
   2  -1   3  144.03    3.12
   2  -1   3  142.91    3.13
   2   1   3  142.86    3.14
   2   1   3  143.12    3.13
   2   1   3  142.91    3.51
   3  -1   3    4.09    0.39
   3  -1   3    4.62    0.38
   3   1   3    4.24    0.42
   3   1   3    4.63    0.39
   4  -1   3   40.98    1.13
   4  -1   3   38.66    1.11
   4   1   3   39.08    1.13
   4   1   3   39.66    1.14
   5  -1   3    9.29    0.59
   5   1   3    9.40    0.60
   3   2  -3   90.58    1.93
   2  -2  -3   21.12    0.56
   2  -2  -3   21.64    0.58
   2   2  -3   20.78    0.56
   2   2  -3   20.40    0.60
   2   2  -3   20.72    0.54
   1  -2  -3  166.40    3.52
   1  -2  -3  170.86    3.55
  -1  -2   3  158.98    3.49
   1   2  -3  169.86    3.50
   1   2  -3  171.66    3.91
  -1   2   3  162.66    3.51
   1   2  -3  164.78    3.52
   1   2  -3  164.97    3.55
   0  -2   3   19.34    0.64
   0  -2   3   18.72    0.58
   0  -2   3   19.53    0.57
   0  -2  -3   20.64    0.64
   0   2  -3   19.21    0.63
   0   2   3   20.25    0.61
   0   2   3   19.74    0.60
   0   2  -3   19.55    0.67
   0   2   3   20.30    0.60
   0   2  -3   20.06    0.59
   1  -2   3  151.90    3.78
  -1  -2  -3  166.55    3.80
   1  -2   3  154.96    3.36
  -1  -2  -3  160.37    3.39
   1  -2   3  156.34    3.34
  -1   2  -3  154.53    3.36
   1   2   3  153.13    3.38
  -1   2  -3  156.65    3.41
   1   2   3  152.72    3.75
   1   2   3  150.84    3.36
   2  -2   3   14.02    0.52
   2  -2   3   12.88    0.50
   2  -2   3   12.74    0.60
   2   2   3   12.72    0.54
   2   2   3   13.16    0.53
   2   2   3   12.62    0.54
   3  -2   3  110.09    2.49
   3  -2   3  108.87    2.50
   3   2   3  110.37    2.53
   3   2   3  110.46    2.52
   4  -2   3    3.88    0.44
   4  -2   3    3.95    0.43
   4   2   3    4.14    0.46
   4   2   3    4.67    0.47
   5  -2   3   23.32    0.85
   5   2   3   23.38    0.89
   3  -3  -3   25.89    0.65
   3   3  -3   26.03    0.65
   3   3  -3   25.33    0.71
   3   3  -3   25.87    0.63
   2  -3  -3  168.84    3.52
   2  -3  -3  166.72    3.48
   2   3  -3  165.72    3.47
   2   3  -3  166.13    3.50
   2   3  -3  161.15    3.53
   1  -3  -3   94.65    2.08
   1   3  -3   97.24    2.28
   1   3  -3   93.75    2.08
   1   3  -3   95.32    2.14
  -1   3   3   93.85    2.09
   0  -3   3  143.67    3.11
   0  -3   3  147.37    3.51
   0  -3   3  143.87    3.08
   0  -3  -3  147.32    3.13
   0   3  -3  147.72    3.12
   0   3   3  141.01    3.12
   0   3   3  140.09    3.13
   0   3   3  146.22    3.46
   0   3  -3  145.19    3.47
   0   3  -3  146.34    3.18
   1  -3   3   25.64    0.74
  -1  -3  -3   26.70    0.87
   1  -3   3   26.01    0.87
   1  -3   3   26.45    0.73
  -1  -3  -3   26.44    0.78
  -1   3  -3   25.85    0.74
  -1   3  -3   26.94    0.85
   1   3   3   25.97    0.78
   1   3   3   26.03    0.79
   1   3   3   26.22    0.80
   2  -3   3  204.20    5.01
   2  -3   3  203.28    4.41
   2  -3   3  213.42    4.44
   2   3   3  204.44    4.45
   2   3   3  203.20    4.96
   2   3   3  213.72    4.48
   3  -3   3   10.01    0.50
   3  -3   3   10.19    0.50
   3   3   3    9.76    0.56
   3   3   3    9.52    0.53
   4  -3   3   59.96    1.53
   4  -3   3   59.74    1.51
   4   3   3   59.69    1.56
   4   3   3   58.34    1.55
   5  -3   3   18.90    0.76
   5   3   3   16.97    0.80
   3  -4  -3   81.01    1.80
   3  -4  -3   85.23    1.89
   3   4  -3   82.57    1.78
   3   4  -3   82.46    1.80
   3   4  -3   80.76    1.88
   2  -4  -3   14.02    0.45
   2   4  -3   13.71    0.56
  -2   4   3   14.26    0.41
   2   4  -3   14.38    0.45
   2   4  -3   14.19    0.43
   1  -4  -3  225.15    4.91
  -1   4   3  246.14    5.45
  -1   4   3  243.55    5.47
  -1   4   3  235.47    4.95
   1   4  -3  238.72    5.50
   1   4  -3  225.76    4.98
   1   4  -3  226.95    4.92
   0  -4   3   15.00    0.49
   0  -4  -3   15.62    0.53
   0  -4   3   14.78    0.50
   0  -4   3   14.71    0.59
   0   4   3   15.15    0.56
   0   4  -3   14.55    0.50
   0   4   3   15.64    0.51
   0   4  -3   14.43    0.52
   0   4  -3   14.98    0.64
   1  -4   3  195.44    4.72
  -1  -4  -3  199.04    4.17
   1  -4   3  189.08    4.15
   1  -4   3  195.79    4.13
  -1  -4  -3  196.19    4.71
   1   4   3  188.05    4.17
  -1   4  -3  191.96    4.23
   1   4   3  199.81    4.65
  -1   4  -3  195.64    4.16
   2  -4   3    1.23    0.20
   2  -4   3    1.62    0.25
   2  -4   3    1.41    0.33
   2   4   3    1.16    0.29
   2   4   3    1.38    0.27
   3  -4   3   55.02    1.41
   3  -4   3   57.70    1.43
   3   4   3   57.77    1.47
   3   4   3   54.82    1.47
   4  -4   3    2.87    0.36
   4  -4   3    2.28    0.29
   4   4   3    3.19    0.46
   4   4   3    3.65    0.44
   5  -4   3   20.47    0.78
   5   4   3   19.05    0.86
   4  -5  -3   62.80    1.45
   4   5  -3   64.07    1.56
   3  -5  -3   26.23    0.81
   3  -5  -3   24.62    0.68
   3   5  -3   25.03    0.66
   3   5  -3   25.47    0.80
   2  -5  -3   74.50    1.76
   2  -5  -3   73.83    1.66
   2   5  -3   74.15    1.66
  -2   5   3   76.72    1.64
   2   5  -3   72.22    1.64
   2   5  -3   72.59    1.75
   1  -5  -3  128.20    2.82
  -1  -5   3  133.90    3.09
  -1  -5   3  134.50    3.07
   1   5  -3  125.75    2.91
  -1   5   3  134.93    3.08
   1   5  -3  127.59    2.82
   1   5  -3  128.15    3.11
   0  -5   3  317.96    6.67
   0  -5  -3  318.98    7.62
   0  -5   3  324.31    7.60
   0  -5  -3  318.38    6.70
   0  -5   3  314.26    6.70
   0   5  -3  319.29    7.53
   0   5  -3  324.44    6.72
   0   5   3  315.96    6.73
   0   5   3  331.48    7.52
   0   5  -3  323.27    6.80
   1  -5   3    5.61    0.36
   1  -5   3    5.07    0.48
  -1  -5  -3    5.18    0.51
   1  -5   3    5.50    0.36
  -1  -5  -3    5.51    0.42
   1   5   3    5.40    0.37
   1   5   3    5.56    0.46
  -1   5  -3    5.23    0.37
  -1   5  -3    5.99    0.52
   2  -5   3  109.90    2.46
   2  -5   3  111.67    2.81
   2  -5   3  108.24    2.44
   2   5   3  107.78    2.72
   2   5   3  106.93    2.50
   3  -5   3   12.61    0.55
   3  -5   3   12.67    0.56
   3   5   3   13.06    0.65
   4  -5   3   33.81    1.00
   4  -5   3   31.47    0.99
   4   5   3   32.91    1.06
   4   5   3   33.12    1.08
   5  -5   3    7.24    0.55
   5   5   3    6.71    0.63
   4  -6  -3   11.94    0.47
   4   6  -3   13.17    0.65
   3  -6  -3   35.49    0.91
   3   6  -3   35.47    0.91
   3   6  -3   35.17    1.05
   2  -6  -3   35.87    1.00
   2  -6  -3   35.25    0.88
  -2   6   3   34.15    0.87
   2   6  -3   33.87    0.86
   2   6  -3   32.04    1.00
  -1  -6   3  201.94    4.69
  -1  -6   3  205.95    4.73
   1  -6  -3  197.05    4.25
   1   6  -3  194.97    4.26
   1   6  -3  193.19    4.35
   1   6  -3  199.99    4.74
  -1   6   3  209.62    4.70
   0  -6   3   60.51    1.39
   0  -6  -3   59.69    1.42
   0  -6   3   58.33    1.61
   0  -6  -3   56.85    1.64
   0   6  -3   56.87    1.53
   0   6   3   58.73    1.47
   0   6   3   62.06    1.52
   0   6  -3   59.39    1.53
   0   6  -3   60.38    1.41
  -1  -6  -3  227.77    5.50
   1  -6   3  227.13    4.84
  -1  -6  -3  233.23    4.86
   1  -6   3  221.86    5.50
   1  -6   3  226.55    4.81
  -1   6  -3  227.96    5.40
  -1   6  -3  227.91    4.84
   1   6   3  227.15    5.40
   1   6   3  223.72    4.88
  -1   6  -3  226.39    4.93
   2  -6   3   32.25    1.11
   2  -6   3   32.57    0.92
   2  -6   3   33.64    0.91
   2   6   3   32.36    1.01
   2   6   3   32.17    0.98
   3  -6   3   67.05    1.64
   3  -6   3   66.64    1.63
   3   6   3   65.43    1.72
   4  -6   3   13.35    0.62
   4  -6   3   14.55    0.64
   4   6   3   13.75    0.70
   4   6   3   12.88    0.74
   5  -6   3   24.38    0.88
   5   6   3   22.55    0.95
   5  -7  -3    2.59    0.37
   5   7  -3    3.40    0.54
   4  -7  -3   17.48    0.60
   4   7  -3   18.36    0.79
   3  -7  -3    6.85    0.39
   3   7  -3    6.10    0.59
   2  -7  -3   68.72    1.71
   2  -7  -3   67.16    1.58
   2   7  -3   72.22    1.72
   2   7  -3   67.05    1.72
   2   7  -3   65.71    1.56
  -1  -7   3   14.05    0.51
   1  -7  -3   13.59    0.52
  -1  -7   3   13.68    0.43
  -1   7   3   13.26    0.44
   1   7  -3   13.83    0.50
   1   7  -3   12.70    0.48
   1   7  -3   12.88    0.66
   0  -7  -3  250.10    6.27
   0  -7  -3  255.94    5.51
   0  -7   3  266.94    5.49
   0  -7   3  258.96    6.26
   0   7  -3  264.89    6.17
   0   7   3  266.08    6.16
   0   7   3  257.48    5.56
   0   7  -3  266.12    5.53
   0   7  -3  262.02    5.64
   1  -7   3   60.98    1.49
   1  -7   3   62.15    1.48
   1  -7   3   59.50    1.74
  -1  -7  -3   64.70    1.53
  -1  -7  -3   60.09    1.73
  -1   7  -3   61.82    1.64
   1   7   3   63.42    1.61
  -1   7  -3   61.01    1.61
   2  -7   3   64.16    1.83
   2  -7   3   61.93    1.56
   2  -7   3   62.47    1.55
  -2   7  -3   68.01    1.68
   2   7   3   61.63    1.65
   2   7   3   63.93    1.70
   3  -7   3   20.80    0.73
   3  -7   3   20.61    0.74
   3   7   3   19.78    0.85
   4  -7   3   21.64    0.80
   4  -7   3   22.90    0.82
   4   7   3   21.29    0.93
   4   7   3   21.52    0.91
   5  -8  -3   10.42    0.52
   5   8  -3    9.60    0.68
   4  -8  -3    3.31    0.38
   4   8  -3    2.79    0.45
   3  -8  -3   47.39    1.19
   3   8  -3   47.54    1.38
   2  -8  -3   54.31    1.32
   2   8  -3   54.01    1.49
  -1  -8   3  114.31    2.66
   1  -8  -3  109.56    2.48
  -1  -8   3  112.02    2.73
   1  -8  -3  109.48    2.85
  -1   8   3  114.19    2.68
   1   8  -3  110.96    2.48
  -1   8   3  112.00    2.53
   1   8  -3  107.46    2.61
   1   8  -3  108.21    2.71
   0  -8   3  255.57    6.34
   0  -8  -3  259.69    5.57
   0  -8   3  260.49    5.55
   0  -8  -3  260.44    6.38
   0   8   3  272.89    6.23
   0   8  -3  268.83    6.24
   0   8  -3  269.02    5.60
   0   8  -3  259.71    5.72
   1  -8   3   77.61    1.84
  -1  -8  -3   77.76    2.15
  -1  -8  -3   79.49    1.88
   1  -8   3   77.80    2.15
  -1   8  -3   81.36    2.02
  -1   8  -3   80.87    2.03
   1   8   3   78.46    2.02
   2  -8   3  144.28    3.23
   2  -8   3  144.32    3.75
  -2  -8  -3  144.04    3.56
   2  -8   3  148.37    3.27
   2   8   3  140.98    3.59
  -2   8  -3  156.89    3.61
   3  -8   3   53.36    1.41
   3  -8   3   53.60    1.41
   3   8   3   54.33    1.53
   4  -8   3   14.26    0.67
   4   8   3   13.51    0.81
   5  -9  -3    7.43    0.51
   5   9  -3    7.26    0.68
   4  -9  -3   24.51    0.79
   4   9  -3   24.72    1.00
   3   9  -3    5.87    0.65
   2  -9  -3   33.42    0.92
   2   9  -3   31.81    1.10
   1  -9  -3   62.18    1.53
   1  -9  -3   59.89    1.79
  -1  -9   3   63.48    1.49
  -1  -9   3   64.52    1.67
  -1  -9   3   64.61    1.58
   1   9  -3   60.81    1.68
   1   9  -3   62.03    1.63
  -1   9   3   64.39    1.59
  -1   9   3   63.95    1.59
   0  -9   3  114.28    2.60
   0  -9   3  114.99    3.01
   0  -9  -3  117.54    2.64
   0  -9  -3  118.12    3.07
   0   9   3  116.62    2.75
   0   9  -3  117.00    2.81
   0   9  -3  118.75    2.90
   0   9   3  122.64    2.89
   0   9  -3  118.29    2.64
   1  -9   3   81.19    2.26
  -1  -9  -3   81.03    2.24
  -1  -9  -3   80.29    1.95
   1  -9   3   81.68    1.91
   1   9   3   85.21    2.10
   1   9   3   81.53    2.07
  -1   9  -3   82.37    2.11
  -1   9  -3   82.31    2.10
  -2  -9  -3   15.97    0.65
   2  -9   3   15.49    0.82
  -2  -9  -3   16.05    0.60
   2  -9   3   15.02    0.62
   2   9   3   15.47    0.62
   3  -9   3   30.82    0.97
   3   9   3   32.16    1.14
   4  -9   3   36.88    1.13
   4   9   3   39.01    1.32
   4 -10  -3    7.62    0.50
   4  10  -3    7.57    0.73
   3 -10  -3   42.04    1.13
   3  10  -3   41.17    1.35
   2 -10  -3   34.72    0.97
   2  10  -3   33.38    1.18
   1 -10  -3   38.12    1.05
  -1 -10   3   37.87    0.99
   1 -10  -3   38.57    1.28
  -1 -10   3   38.61    1.13
  -1 -10   3   38.68    1.02
   1  10  -3   38.17    1.24
   1  10  -3   37.71    1.08
   0 -10  -3  125.16    2.80
   0 -10   3  124.55    2.76
   0 -10  -3  119.90    3.25
   0 -10   3  123.15    3.20
   0  10  -3  125.76    2.99
   0  10   3  125.98    3.06
   0  10  -3  126.23    3.08
   0  10  -3  124.04    2.81
   0  10   3  125.44    2.94
   1 -10   3   43.17    1.14
  -1 -10  -3   40.97    1.16
  -1 -10  -3   43.41    1.40
   1 -10   3   42.18    1.40
  -1  10  -3   45.47    1.35
   1  10   3   42.50    1.34
   1  10   3   41.94    1.21
  -1  10  -3   43.52    1.23
   2 -10   3   86.42    2.07
   2 -10   3   87.02    2.46
  -2 -10  -3   86.77    2.26
   2  10   3   87.95    2.26
   2  10   3   87.29    2.26
   3 -10   3    2.54    0.37
   4 -10   3   14.78    0.70
   4  10   3   15.21    0.89
   4 -11  -3   20.34    0.75
   4  11  -3   19.41    0.99
   3 -11  -3   27.04    0.87
   3  11  -3   27.46    1.14
   2 -11  -3   30.47    0.91
   2  11  -3   28.93    1.14
   1 -11  -3   90.20    2.12
  -1 -11   3   90.37    2.35
   1 -11  -3   91.39    2.51
   1  11  -3   89.02    2.31
   1  11  -3   90.27    2.29
   0 -11   3   42.62    1.36
   0 -11   3   41.40    1.12
   0 -11  -3   41.56    1.41
   0 -11  -3   39.70    1.15
   0  11   3   43.51    1.33
   0  11  -3   41.98    1.35
   0  11   3   44.05    1.20
   0  11  -3   42.35    1.22
   0  11  -3   43.05    1.15
  -1 -11  -3  208.22    5.15
   1 -11   3  209.95    4.49
   1 -11   3  204.15    5.17
  -1 -11  -3  205.76    4.50
   1  11   3  206.86    4.67
   1  11   3  207.33    4.99
  -1  11  -3  211.44    4.69
  -1  11  -3  198.93    4.98
  -2 -11  -3   21.09    0.82
   2 -11   3   19.13    0.74
   2 -11   3   19.95    0.99
   2  11   3   20.40    1.01
   3 -11   3   57.00    1.52
   4 -11   3   38.09    1.18
   4  11   3   37.54    1.36
   4 -12  -3   18.43    0.75
   4  12  -3   18.58    1.00
   3 -12  -3   31.77    0.99
   3  12  -3   29.39    1.23
   2 -12  -3    2.50    0.41
   2  12  -3    2.07    0.53
   1 -12  -3   27.77    0.88
   1 -12  -3   27.17    1.12
   1  12  -3   28.44    1.13
   1  12  -3   27.46    0.89
   0 -12  -3   49.76    1.64
   0 -12  -3   50.11    1.34
   0 -12   3   49.08    1.30
   0 -12   3   49.31    1.56
   0  12   3   51.47    1.54
   0  12   3   51.35    1.39
   0  12  -3   50.09    1.42
   0  12  -3   50.79    1.57
  -1 -12  -3    4.81    0.66
   1 -12   3    5.62    0.67
   1 -12   3    5.49    0.45
  -1  12  -3    5.11    0.46
  -1  12  -3    6.85    0.71
   1  12   3    5.65    0.44
   1  12   3    5.66    0.72
  -2 -12  -3   25.79    0.96
   2 -12   3   26.20    0.88
   2 -12   3   25.98    1.16
   2  12   3   27.12    1.16
   3 -12   3   20.95    0.82
   4 -12   3   14.52    0.74
   4  12   3   15.88    0.95
   4 -13  -3   11.49    0.64
   4  13  -3   10.70    0.95
   3 -13  -3   47.58    1.34
   3  13  -3   47.71    1.60
   2 -13  -3   39.39    1.16
   2  13  -3   38.91    1.42
  -1 -13   3   87.52    2.38
   1 -13  -3   87.98    2.56
   1 -13  -3   90.59    2.17
   1  13  -3   89.25    2.39
  -1  13   3   91.06    2.29
   1  13  -3   91.89    2.34
   0 -13  -3    3.36    0.45
   0 -13  -3    3.78    0.68
   0 -13   3    3.68    0.61
   0 -13   3    4.09    0.40
   0  13   3    2.96    0.39
   0  13  -3    3.38    0.44
   0  13   3    3.12    0.54
   0  13  -3    4.74    0.62
  -1 -13  -3  106.74    2.95
   1 -13   3  108.34    2.98
   1 -13   3  109.97    2.53
   1  13   3  109.56    2.77
  -1  13  -3  103.81    2.75
   1  13   3  109.87    2.76
  -2 -13  -3    5.22    0.58
   2 -13   3    4.77    0.48
   2  13   3    4.84    0.66
   3 -13   3   58.54    1.60
   4 -13   3   12.85    0.74
   4  13   3   14.44    0.99
   4 -14  -3   44.89    1.33
   4  14  -3   43.97    1.59
   3 -14  -3    8.60    0.61
   3  14  -3    8.12    0.90
   2 -14  -3   57.66    1.56
   2  14  -3   58.35    1.85
   1 -14  -3   13.24    0.65
  -1 -14   3   12.60    0.67
   1 -14  -3   13.40    0.91
  -1  14   3   11.17    0.54
   1  14  -3   12.49    0.93
   1  14  -3   12.64    0.62
   0 -14   3   39.34    1.39
   0 -14  -3   40.25    1.48
   0 -14   3   38.82    1.13
   0 -14  -3   37.58    1.16
   0  14  -3   40.46    1.22
   0  14   3   37.44    1.17
   0  14  -3   39.13    1.42
   0  14   3   40.94    1.39
   1 -14   3    1.91    0.53
   1 -14   3    2.60    0.38
  -1 -14  -3    2.58    0.52
  -1  14  -3    2.28    0.38
   1  14   3    2.34    0.57
   1  14   3    2.22    0.36
  -2 -14  -3   35.09    1.19
   2 -14   3   33.59    1.09
   2  14   3   32.53    1.38
   3 -14   3   17.92    0.80
   3  14   3   17.94    1.13
   4 -15  -3    4.58    0.57
   4  15  -3    2.94    0.70
   3 -15  -3   54.92    1.54
   3  15  -3   53.03    1.83
   2 -15  -3    2.01    0.40
   2  15  -3    1.77    0.61
   1 -15  -3   21.41    1.14
  -1 -15   3   20.62    0.89
   1 -15  -3   21.35    0.84
   1  15  -3   21.85    1.15
  -1  15   3   19.94    0.76
   1  15  -3   21.45    0.84
   0 -15   3   15.43    0.89
   0 -15  -3   15.79    0.72
   0 -15  -3   15.17    1.00
   0  15  -3   17.04    1.07
   0  15   3   14.66    0.68
   0  15  -3   15.53    0.72
  -1 -15  -3   13.98    0.92
   1 -15   3   13.60    0.93
   1 -15   3   13.93    0.66
   1  15   3   12.15    0.64
  -1  15  -3   12.57    0.67
   1  15   3   13.98    0.97
  -2 -15  -3   12.88    0.80
   2 -15   3   11.90    0.68
   2  15   3   12.52    1.03
   3 -15   3   28.93    1.06
   3  15   3   30.52    1.39
   3 -16  -3    1.33    0.37
   3  16  -3    2.95    0.68
   2 -16  -3   96.95    2.40
   2  16  -3   97.55    2.71
  -1 -16   3    6.13    0.62
   1 -16  -3    6.86    0.57
   1 -16  -3    7.00    0.88
   1  16  -3    7.32    0.91
   1  16  -3    5.73    0.54
  -1  16   3    5.59    0.47
   0 -16   3   80.41    2.36
   0 -16  -3   77.63    2.44
   0  16   3   79.51    2.17
   0  16  -3   84.69    2.35
   0  16  -3   78.90    2.18
   1 -16   3   11.96    0.92
   1 -16   3   10.79    0.64
  -1 -16  -3   10.98    0.92
   1  16   3   11.04    0.96
  -1  16  -3   10.68    0.65
   1  16   3   10.14    0.62
   2 -16   3   49.39    1.45
  -2 -16  -3   49.40    1.59
   2  16   3   49.23    1.79
   3 -16   3    5.67    0.61
   3  16   3    5.53    0.84
   3 -17  -3   43.36    1.40
   3  17  -3   46.89    1.78
   2 -17  -3    1.67    0.41
   2  17  -3    1.52    0.65
  -1 -17   3   17.00    0.88
   1 -17  -3   18.15    1.17
   1 -17  -3   17.45    0.82
   1  17  -3   18.68    0.84
   1  17  -3   18.26    1.17
  -1  17   3   15.37    0.72
   0 -17  -3    0.69    0.58
   0 -17   3    0.41    0.47
   0  17   3    0.27    0.35
   0  17  -3    0.82    0.36
   1 -17   3   29.97    1.35
   1 -17   3   31.86    1.06
  -1 -17  -3   29.88    1.32
   1  17   3   29.10    1.36
   1  17   3   28.95    1.06
   2 -17   3   13.24    0.76
  -2 -17  -3   12.80    0.84
  -2  17  -3   12.86    0.73
   2  17   3   13.07    1.13
   3 -17   3   24.28    1.03
   3  17   3   26.79    1.41
   3 -18  -3    1.20    0.43
   3  18  -3    2.10    0.71
   2 -18  -3   65.37    1.82
   2  18  -3   61.91    2.11
   1 -18  -3    4.65    0.77
  -1 -18   3    4.05    0.64
   1 -18  -3    4.30    0.59
  -1  18   3    3.75    0.50
   1  18  -3    4.77    0.60
   1  18  -3    3.96    0.77
   0 -18  -3   44.38    1.68
   0 -18   3   43.57    1.58
   0  18  -3   42.16    1.37
   0  18   3   39.55    1.32
   1 -18   3    1.96    0.59
  -1 -18  -3    2.14    0.60
  -1  18  -3    1.75    0.43
   1  18   3    1.40    0.39
   2 -18   3   37.40    1.25
  -2 -18  -3   34.82    1.34
  -2  18  -3   36.61    1.24
   2  18   3   39.87    1.68
   2 -19  -3    2.84    0.50
   2  19  -3    3.04    0.81
   1 -19  -3   77.75    2.50
  -1 -19   3   72.31    2.20
   1  19  -3   75.41    2.14
   1  19  -3   81.83    2.43
  -1  19   3   68.32    2.07
   0 -19   3    1.11    0.55
   0 -19  -3    1.45    0.64
   0  19   3    0.78    0.36
   0  19  -3    1.63    0.44
   1 -19   3   45.51    1.73
  -1 -19  -3   44.21    1.71
   1  19   3   44.19    1.46
  -2 -19  -3    2.06    0.52
   2 -19   3    3.90    0.61
   2  19   3    3.08    0.79
  -2  19  -3    3.15    0.48
   2 -20  -3   36.34    1.33
   2  20  -3   35.80    1.67
   1 -20  -3    0.94    0.65
  -1 -20   3    1.06    0.48
  -1  20   3    0.49    0.39
   1  20  -3    2.53    0.84
   1  20  -3    0.92    0.45
   0 -20   3   27.32    1.29
   0 -20  -3   27.85    1.44
   0  20  -3   25.44    1.09
   0  20   3   25.15    1.05
  -1 -20  -3    0.01    0.54
   1 -20   3    0.24    0.57
  -1  20  -3    1.44    0.46
   1  20   3    0.87    0.40
  -2 -20  -3   39.46    1.46
  -2  20  -3   40.18    1.36
   2  20   3   41.17    1.83
  -1 -21   3   48.10    1.64
   1 -21  -3   50.57    1.98
   1  21  -3   50.17    1.59
  -1  21   3   40.60    1.46
   0 -21  -3    2.43    0.71
   0 -21   3    2.22    0.65
   0  21   3    1.43    0.46
   0  21  -3    1.46    0.47
   1 -21   3   75.63    2.47
  -1 -21  -3   75.95    2.41
   1  21   3   69.37    2.15
   3   0  -4    0.25    0.21
   3   0  -4   -0.29    0.15
   3   0  -4    0.20    0.18
   2   0  -4  496.45   10.34
   2   0  -4  504.42   10.36
   2   0  -4  501.84   10.32
  -1   0   4    0.12    0.14
   1   0  -4    0.20    0.16
   1   0  -4    0.29    0.23
   1   0  -4    0.17    0.20
   0   0   4  167.52    3.74
   0   0  -4  175.30    3.77
   0   0   4  173.58    3.73
   0   0   4  179.62    4.18
   0   0  -4  175.94    3.80
  -1   0  -4    1.21    0.23
   1   0   4    1.80    0.27
   1   0   4    1.12    0.20
   1   0   4    1.99    0.29
  -1   0  -4    2.30    0.33
   2   0   4   38.62    1.08
  -2   0  -4   40.10    1.09
   2   0   4   38.98    1.07
  -2   0  -4   40.26    1.10
   2   0   4   37.88    1.18
   3   0   4    0.77    0.30
   3   0   4    0.63    0.23
   4   0   4   34.23    1.09
   4   0   4   35.70    1.10
   5   0   4    0.66    0.37
   3  -1  -4  141.49    3.09
   3  -1  -4  147.99    3.09
   3   1  -4  141.32    3.11
   3   1  -4  144.22    3.07
   3   1  -4  148.66    3.10
   2  -1  -4   32.29    0.84
   2  -1  -4   32.51    0.85
   2  -1  -4   32.41    0.85
   2   1  -4   30.73    0.86
   2   1  -4   31.34    0.81
   2   1  -4   31.12    0.82
   1  -1  -4  199.57    4.65
   1  -1  -4  195.13    4.18
   1  -1  -4  193.31    4.18
  -1  -1   4  195.49    4.14
   1   1  -4  193.88    4.19
   1   1  -4  196.22    4.17
  -1   1   4  193.74    4.14
   1   1  -4  196.97    4.63
   0  -1  -4   79.15    1.85
   0  -1  -4   80.08    1.87
   0  -1   4   78.81    1.81
   0  -1   4   77.73    1.82
   0  -1   4   81.96    2.02
   0   1  -4   79.06    1.84
   0   1  -4   79.98    1.89
   0   1   4   76.77    1.83
   0   1   4   78.67    1.82
   0   1   4   83.19    2.00
   1  -1   4  228.66    4.91
  -1  -1  -4  233.03    4.95
   1  -1   4  230.49    4.89
   1  -1   4  227.92    5.52
   1   1   4  229.59    4.92
   1   1   4  229.90    5.50
  -1   1  -4  231.44    4.97
  -1   1  -4  227.10    4.92
   1   1   4  230.39    4.90
  -2  -1  -4    3.63    0.40
  -2  -1  -4    3.59    0.39
   2  -1   4    3.35    0.43
   2  -1   4    3.50    0.37
   2  -1   4    3.45    0.38
   2   1   4    3.11    0.38
   2   1   4    2.82    0.39
  -2   1  -4    3.32    0.36
   2   1   4    3.68    0.40
  -2   1  -4    3.91    0.38
   3  -1   4   36.67    1.08
   3  -1   4   35.65    1.07
   3   1   4   37.73    1.10
   3   1   4   38.96    1.11
   4  -1   4   12.63    0.64
   4  -1   4   11.20    0.63
   4   1   4   11.90    0.65
   4   1   4   11.94    0.65
   5  -1   4   57.24    1.59
   5   1   4   56.84    1.60
   3  -2  -4   18.57    0.58
   3  -2  -4   17.30    0.55
   3   2  -4   16.86    0.54
   3   2  -4   17.36    0.52
   3   2  -4   16.62    0.60
   2  -2  -4  210.99    4.51
   2  -2  -4  217.81    4.52
   2   2  -4  214.06    4.49
   2   2  -4  212.96    4.56
   2   2  -4  213.42    4.52
   1  -2  -4    3.40    0.37
  -1  -2   4    3.55    0.29
  -1  -2   4    4.09    0.21
   1  -2  -4    4.20    0.38
  -1   2   4    3.97    0.21
   1   2  -4    3.85    0.31
   1   2  -4    3.67    0.41
   1   2  -4    3.89    0.33
  -1   2   4    3.66    0.32
  -1   2   4    3.79    0.24
   0  -2   4  156.65    3.37
   0  -2  -4  158.79    3.44
   0  -2   4  156.21    3.40
   0  -2   4  156.87    3.80
   0   2   4  159.54    3.40
   0   2   4  159.87    3.77
   0   2  -4  155.17    3.46
   0   2  -4  155.82    3.80
   0   2   4  154.15    3.41
   1  -2   4   21.99    0.79
   1  -2   4   21.88    0.69
   1  -2   4   21.43    0.70
  -1  -2  -4   21.64    0.76
   1   2   4   21.86    0.75
  -1   2  -4   22.31    0.80
   1   2   4   21.23    0.72
  -1   2  -4   21.74    0.71
   1   2   4   21.54    0.73
  -2  -2  -4   90.86    2.20
  -2  -2  -4   88.57    2.20
   2  -2   4   86.65    2.04
   2  -2   4   84.57    2.04
   2  -2   4   85.05    2.31
  -2   2  -4   90.86    2.22
   2   2   4   85.21    2.06
   2   2   4   83.74    2.26
  -2   2  -4   90.44    2.20
   2   2   4   86.04    2.07
   3  -2   4    1.02    0.29
   3  -2   4    1.16    0.25
   3   2   4    0.94    0.34
   3   2   4    1.32    0.26
   4  -2   4   66.86    1.73
   4  -2   4   67.93    1.75
   4   2   4   67.51    1.77
   4   2   4   66.33    1.76
   5  -2   4    2.71    0.43
   5   2   4    2.47    0.46
   3  -3  -4  123.96    2.66
   3  -3  -4  120.91    2.62
   3   3  -4  115.16    2.67
   3   3  -4  120.22    2.59
   3   3  -4  124.54    2.62
   2  -3  -4   45.47    1.16
   2  -3  -4   48.48    1.19
   2   3  -4   46.44    1.22
  -2   3   4   49.70    1.10
   2   3  -4   47.98    1.13
   2   3  -4   48.78    1.15
  -1  -3   4  264.89    6.01
   1  -3  -4  250.25    5.45
  -1  -3   4  254.10    5.41
  -1  -3   4  262.14    5.99
  -1   3   4  267.94    6.00
  -1   3   4  256.96    5.44
  -1   3   4  264.28    6.02
   1   3  -4  261.11    6.07
   1   3  -4  248.46    5.43
   1   3  -4  246.44    5.48
   0  -3   4  118.31    2.60
   0  -3  -4  119.35    2.66
   0  -3   4  116.55    2.63
   0  -3   4  118.46    2.94
   0   3   4  115.02    2.63
   0   3   4  117.49    2.66
   0   3  -4  119.64    2.93
   0   3  -4  119.95    2.72
   0   3  -4  119.72    2.64
   0   3   4  124.56    2.90
   1  -3   4   47.72    1.23
  -1  -3  -4   48.89    1.28
   1  -3   4   48.34    1.39
  -1  -3  -4   47.85    1.40
   1  -3   4   47.67    1.21
  -1   3  -4   47.92    1.23
  -1   3  -4   50.16    1.33
   1   3   4   47.33    1.33
   1   3   4   47.24    1.25
   1   3   4   47.62    1.25
   2  -3   4   11.15    0.63
   2  -3   4   11.10    0.54
  -2  -3  -4   12.75    0.55
  -2  -3  -4   13.14    0.56
   2  -3   4   12.69    0.55
  -2   3  -4   12.72    0.56
   2   3   4   12.92    0.58
   2   3   4   12.38    0.58
   2   3   4   12.59    0.58
   3  -3   4   77.17    1.91
   3  -3   4   78.46    1.90
   3   3   4   79.08    1.95
   3   3   4   77.06    1.93
   4  -3   4   23.37    0.86
   4  -3   4   23.72    0.85
   4   3   4   23.10    0.89
   4   3   4   23.83    0.91
   4  -4  -4   24.43    0.72
   4   4  -4   26.03    0.84
   3  -4  -4   15.78    0.54
   3   4  -4   15.77    0.50
   3   4  -4   15.11    0.51
   3   4  -4   14.48    0.64
   2  -4  -4   64.48    1.54
   2  -4  -4   63.59    1.49
   2   4  -4   63.06    1.46
   2   4  -4   62.50    1.48
  -2   4   4   66.77    1.45
   2   4  -4   62.48    1.57
   1  -4  -4   90.41    2.09
  -1  -4   4   92.78    2.21
  -1  -4   4   94.39    2.19
   1   4  -4   93.12    2.26
  -1   4   4   94.64    2.22
  -1   4   4   92.54    2.20
   1   4  -4   89.33    2.16
   1   4  -4   88.62    2.07
  -1   4   4   90.12    2.08
   0  -4   4  173.26    3.74
   0  -4   4  174.60    4.23
   0  -4   4  170.37    3.71
   0  -4  -4  168.76    3.76
   0   4  -4  176.07    4.19
   0   4   4  173.21    3.76
   0   4  -4  178.29    3.77
   0   4  -4  176.70    3.85
   0   4   4  167.93    3.78
   0   4   4  179.33    4.16
   1  -4   4   65.81    1.54
   1  -4   4   63.79    1.77
  -1  -4  -4   65.06    1.77
   1  -4   4   63.45    1.55
  -1  -4  -4   64.52    1.59
   1   4   4   63.55    1.58
  -1   4  -4   62.57    1.66
   1   4   4   61.36    1.59
   1   4   4   65.83    1.69
   2  -4   4  159.73    3.59
  -2  -4  -4  163.21    3.93
   2  -4   4  162.82    4.06
   2  -4   4  162.64    3.57
  -2  -4  -4  165.31    3.92
   2   4   4  155.87    3.60
   2   4   4  160.21    3.63
  -2   4  -4  168.55    3.95
   2   4   4  161.23    3.98
   3  -4   4    2.86    0.43
   3  -4   4    2.59    0.30
   3   4   4    2.65    0.39
   3   4   4    2.54    0.34
   4  -4   4   58.45    1.57
   4  -4   4   59.03    1.56
   4   4   4   57.77    1.62
   4   4   4   59.73    1.63
   4  -5  -4   14.39    0.54
   4   5  -4   12.59    0.66
   3  -5  -4   55.78    1.34
   3   5  -4   54.33    1.32
   3   5  -4   57.09    1.46
   2  -5  -4   25.11    0.73
   2   5  -4   23.47    0.82
   2   5  -4   24.41    0.68
  -2   5   4   24.42    0.67
   2   5  -4   24.37    0.70
  -1  -5   4  101.75    2.48
   1  -5  -4  103.77    2.34
  -1  -5   4  105.58    2.52
  -1   5   4  111.98    2.54
  -1   5   4  106.69    2.50
   1   5  -4   97.34    2.42
   1   5  -4  105.17    2.34
   1   5  -4  105.15    2.56
  -1   5   4  100.55    2.35
   0  -5   4   94.00    2.44
   0  -5   4   96.93    2.15
   0  -5  -4   94.40    2.20
   0  -5   4   95.19    2.16
   0   5   4   95.20    2.20
   0   5   4   94.22    2.22
   0   5   4   97.03    2.37
   0   5  -4   96.42    2.30
   0   5  -4   97.57    2.18
   0   5  -4   96.08    2.40
   1  -5   4  225.62    5.48
   1  -5   4  223.22    4.84
   1  -5   4  221.56    4.81
  -1  -5  -4  227.76    4.86
  -1  -5  -4  222.02    5.48
  -1   5  -4  227.38    4.95
   1   5   4  228.41    5.40
   1   5   4  228.73    4.87
  -2  -5  -4    3.91    0.39
   2  -5   4    3.75    0.39
   2  -5   4    3.62    0.39
  -2  -5  -4    3.30    0.46
   2  -5   4    4.48    0.53
   2   5   4    3.27    0.47
   2   5   4    3.48    0.42
  -2   5  -4    4.55    0.47
   2   5   4    3.56    0.46
   3  -5   4   86.97    2.07
   3  -5   4   82.18    2.07
   3   5   4   85.31    2.13
   3   5   4   87.52    2.16
   4  -5   4   11.99    0.65
   4   5   4   12.26    0.71
   5  -6  -4    3.38    0.42
   4  -6  -4   39.02    1.03
   4   6  -4   37.95    1.17
   3  -6  -4   49.68    1.23
   3   6  -4   49.09    1.36
   2  -6  -4   29.46    0.85
  -2   6   4   31.95    0.84
   2   6  -4   29.65    0.99
   2   6  -4   29.73    0.83
   2   6  -4   32.25    0.87
  -1  -6   4   45.15    1.17
   1  -6  -4   47.02    1.19
  -1  -6   4   46.79    1.22
   1   6  -4   46.83    1.18
   1   6  -4   49.33    1.26
  -1   6   4   44.15    1.20
   1   6  -4   46.12    1.32
  -1   6   4   48.16    1.19
   0  -6  -4  107.47    2.52
   0  -6   4  110.90    2.47
   0  -6   4  108.92    2.82
   0  -6  -4  111.42    2.88
   0  -6   4  111.32    2.49
   0   6  -4  110.30    2.63
   0   6   4  108.34    2.53
   0   6  -4  112.75    2.51
   0   6  -4  113.83    2.76
   0   6   4  116.79    2.74
  -1  -6  -4   86.30    2.33
   1  -6   4   85.20    2.00
  -1  -6  -4   88.93    2.07
   1  -6   4   85.77    2.03
   1  -6   4   88.97    2.34
   1   6   4   86.79    2.09
   1   6   4   85.23    2.21
  -1   6  -4   88.61    2.17
   2  -6   4  118.12    2.73
  -2  -6  -4  122.25    3.02
   2  -6   4  120.42    2.76
   2  -6   4  119.40    3.15
   2   6   4  120.34    3.04
   2   6   4  115.06    2.80
  -2   6  -4  130.34    3.07
   3  -6   4    9.19    0.54
   3  -6   4    8.37    0.54
   3   6   4    9.54    0.67
   3   6   4    8.47    0.64
   4  -6   4   55.29    1.49
   4   6   4   53.07    1.55
   5  -7  -4   20.78    0.73
   5   7  -4   20.26    0.88
   4  -7  -4    3.70    0.38
   4   7  -4    4.90    0.59
   3  -7  -4    2.71    0.35
   3   7  -4    2.73    0.43
   2  -7  -4    5.95    0.41
  -2   7   4    6.40    0.40
   2   7  -4    5.87    0.37
   2   7  -4    5.41    0.57
   1  -7  -4   62.91    1.55
  -1  -7   4   64.79    1.59
  -1  -7   4   64.44    1.65
  -1   7   4   66.54    1.61
   1   7  -4   64.12    1.66
   1   7  -4   64.24    1.54
   1   7  -4   61.37    1.68
   0  -7  -4   29.63    0.87
   0  -7  -4   28.81    1.03
   0  -7   4   27.95    0.82
   0  -7   4   29.23    0.99
   0   7  -4   29.45    0.90
   0   7  -4   30.52    0.86
   0   7  -4   26.38    1.01
   0   7   4   28.95    0.91
   0   7   4   29.01    0.86
  -1  -7  -4  134.36    3.07
  -1  -7  -4  136.87    3.50
   1  -7   4  133.04    3.48
   1  -7   4  139.04    3.06
   1  -7   4  138.68    3.03
  -1   7  -4  136.43    3.19
  -1   7  -4  137.98    3.37
   1   7   4  139.36    3.36
   1   7   4  133.48    3.11
   2  -7   4   38.62    1.30
  -2  -7  -4   38.70    1.18
   2  -7   4   38.56    1.09
   2  -7   4   38.56    1.08
   2   7   4   37.73    1.18
   2   7   4   37.82    1.16
   3  -7   4  158.14    3.54
   3  -7   4  153.19    3.49
   3   7   4  153.63    3.60
   3   7   4  159.68    3.61
   4  -7   4   17.45    0.78
   4   7   4   18.76    0.89
   4   8  -4   36.92    1.22
   3  -8  -4    9.18    0.49
   3   8  -4    9.05    0.71
   2  -8  -4   30.37    0.90
  -2   8   4   31.99    0.91
   2   8  -4   29.09    1.05
  -1  -8   4   40.76    1.15
   1  -8  -4   38.57    1.09
  -1  -8   4   41.41    1.07
   1   8  -4   40.99    1.09
  -1   8   4   42.43    1.13
   1   8  -4   38.77    1.25
   1   8  -4   40.87    1.15
  -1   8   4   42.42    1.09
   0  -8  -4  127.78    3.31
   0  -8  -4  128.27    2.89
   0  -8   4  128.12    2.84
   0  -8   4  128.17    3.26
   0   8   4  130.21    3.15
   0   8  -4  128.73    3.17
   0   8  -4  128.26    3.03
   0   8  -4  129.67    2.88
   0   8   4  125.79    2.92
   1  -8   4   80.29    2.24
  -1  -8  -4   80.31    2.26
  -1  -8  -4   77.88    1.96
   1  -8   4   81.81    1.92
   1  -8   4   83.34    1.95
   1   8   4   82.01    2.02
  -1   8  -4   80.74    2.12
  -1   8  -4   85.51    2.13
   1   8   4   80.33    2.09
   2  -8   4   83.73    2.03
   2  -8   4   83.42    2.00
  -2  -8  -4   84.71    2.21
   2  -8   4   82.66    2.34
   2   8   4   82.78    2.19
   2   8   4   83.13    2.11
   3  -8   4   33.12    1.04
   3  -8   4   32.61    1.04
   3   8   4   32.37    1.17
   4  -8   4   32.60    1.07
   4   8   4   32.87    1.21
   4  -9  -4   17.49    0.69
   4   9  -4   18.49    0.92
   3  -9  -4   11.31    0.56
   3   9  -4   11.92    0.80
   2  -9  -4   21.26    0.74
   2   9  -4   20.59    0.93
  -1  -9   4   94.30    2.31
   1  -9  -4   93.85    2.20
  -1  -9   4   91.14    2.16
   1  -9  -4   96.88    2.56
  -1  -9   4   94.52    2.39
   1   9  -4   94.12    2.38
   1   9  -4   94.55    2.37
  -1   9   4   96.41    2.23
   1   9  -4   96.03    2.20
  -1   9   4   93.56    2.33
   0  -9  -4   35.76    1.03
   0  -9   4   35.49    0.98
   0  -9  -4   35.07    1.24
   0  -9   4   34.25    1.17
   0   9  -4   35.12    1.20
   0   9   4   35.82    1.04
   0   9   4   35.34    1.09
   0   9  -4   36.64    1.02
   0   9  -4   36.44    1.08
   1  -9   4   70.57    1.69
  -1  -9  -4   68.47    1.99
  -1  -9  -4   69.64    1.74
   1  -9   4   68.91    1.99
   1   9   4   66.18    1.78
  -1   9  -4   67.13    1.84
  -1   9  -4   71.07    1.89
   1   9   4   69.69    1.83
   2  -9   4   24.14    0.84
   2  -9   4   24.59    0.83
   2  -9   4   25.36    1.07
  -2  -9  -4   25.29    0.94
   2   9   4   24.41    0.98
   2   9   4   24.49    0.87
   3  -9   4   29.90    0.99
   3  -9   4   30.77    1.00
   3   9   4   29.08    1.14
   4  -9   4   23.99    0.91
   4   9   4   24.46    1.07
   4 -10  -4   21.19    0.78
   4  10  -4   21.45    1.03
   3 -10  -4    9.94    0.55
   3  10  -4    9.87    0.82
   2 -10  -4   38.22    1.10
   2  10  -4   40.77    1.33
   1 -10  -4   51.33    1.63
   1 -10  -4   52.80    1.38
  -1 -10   4   53.64    1.47
   1  10  -4   52.23    1.36
   1  10  -4   52.18    1.44
   1  10  -4   52.38    1.57
   0 -10  -4   59.04    1.52
   0 -10  -4   58.72    1.79
   0 -10   4   58.90    1.47
   0 -10   4   58.04    1.72
   0  10  -4   58.14    1.70
   0  10  -4   60.77    1.51
   0  10   4   57.42    1.59
   0  10  -4   58.89    1.60
   0  10   4   58.89    1.58
   1 -10   4   41.21    1.40
   1 -10   4   39.97    1.13
  -1 -10  -4   40.07    1.40
  -1 -10  -4   41.04    1.19
   1  10   4   40.18    1.20
   1  10   4   44.04    1.30
  -1  10  -4   42.35    1.36
  -1  10  -4   40.96    1.24
   2 -10   4   81.06    2.39
  -2 -10  -4   82.41    2.26
   2 -10   4   85.59    2.05
   2  10   4   85.69    2.18
   2  10   4   83.26    2.22
   3 -10   4   42.97    1.26
   3  10   4   42.84    1.41
   4 -10   4    8.39    0.61
   4  10   4    9.53    0.81
   4 -11  -4   34.41    1.06
   4  11  -4   32.36    1.29
   3 -11  -4   29.88    0.96
   3  11  -4   29.78    1.20
   2 -11  -4   63.08    1.61
   2  11  -4   60.29    1.78
   1 -11  -4   62.68    1.62
  -1 -11   4   61.67    1.72
   1 -11  -4   64.50    1.93
   1  11  -4   63.62    1.83
   1  11  -4   62.87    1.70
   0 -11  -4   45.84    1.55
   0 -11   4   45.74    1.46
   0 -11  -4   45.02    1.28
   0 -11   4   46.59    1.23
   0  11  -4   46.80    1.35
   0  11  -4   46.29    1.50
   0  11   4   45.80    1.31
   0  11   4   48.16    1.38
   0  11  -4   47.43    1.28
  -1 -11  -4   37.08    1.35
   1 -11   4   36.91    1.08
   1 -11   4   36.34    1.32
  -1  11  -4   37.40    1.16
   1  11   4   37.27    1.25
  -1  11  -4   39.87    1.35
   1  11   4   37.06    1.14
  -2 -11  -4   46.99    1.48
   2 -11   4   48.48    1.35
   2 -11   4   47.20    1.63
   2  11   4   50.45    1.53
   3 -11   4    4.09    0.51
   3  11   4    3.51    0.56
   4 -11   4   21.26    0.87
   4  11   4   19.60    1.06
   4 -12  -4   20.40    0.83
   4  12  -4   22.35    1.17
   3 -12  -4   48.69    1.37
   3  12  -4   48.86    1.62
   2 -12  -4   28.44    0.96
   2  12  -4   27.36    1.20
  -1 -12   4   39.42    1.22
   1 -12  -4   39.46    1.43
   1 -12  -4   38.17    1.15
   1  12  -4   39.34    1.19
   1  12  -4   40.20    1.42
  -1  12   4   39.08    1.11
   0 -12   4   39.33    1.33
   0 -12  -4   38.57    1.15
   0 -12  -4   36.53    1.40
   0 -12   4   38.79    1.09
   0  12  -4   38.48    1.40
   0  12   4   38.60    1.16
   0  12  -4   38.45    1.19
   1 -12   4   26.05    1.13
   1 -12   4   28.77    0.91
  -1 -12  -4   27.63    1.18
   1  12   4   27.99    0.95
  -1  12  -4   26.93    0.96
   2 -12   4    9.42    0.84
   2 -12   4    9.87    0.60
  -2 -12  -4    8.87    0.70
   2  12   4    9.57    0.81
   3 -12   4   38.33    1.21
   3  12   4   40.36    1.43
   4 -12   4    8.88    0.66
   4  12   4    8.67    0.87
   4 -13  -4   30.54    1.05
   4  13  -4   29.06    1.33
   3 -13  -4   17.95    0.79
   3  13  -4   18.60    1.09
   2 -13  -4   74.83    1.93
   2  13  -4   75.30    2.17
   1 -13  -4   44.61    1.28
   1 -13  -4   44.81    1.59
  -1 -13   4   44.40    1.36
   1  13  -4   43.32    1.31
   1  13  -4   41.97    1.51
  -1  13   4   43.75    1.25
   0 -13  -4   68.58    2.13
   0 -13   4   70.50    2.05
   0 -13  -4   69.78    1.80
   0  13  -4   68.72    2.03
   0  13  -4   69.91    1.91
   0  13   4   70.21    1.89
   1 -13   4    9.31    0.79
  -1 -13  -4    8.60    0.83
   1 -13   4   10.91    0.57
   1  13   4    9.37    0.56
  -1  13  -4    8.97    0.58
   2 -13   4   35.86    1.14
   2 -13   4   37.59    1.46
  -2 -13  -4   35.57    1.28
   3 -13   4    6.35    0.58
   3  13   4    6.47    0.83
   4 -14  -4   12.94    0.73
   4  14  -4   11.31    1.04
   3 -14  -4   41.46    1.29
   3  14  -4   44.66    1.62
   2 -14  -4   19.09    0.83
   2  14  -4   19.91    1.15
   1 -14  -4  134.16    3.17
   1 -14  -4  141.83    3.76
  -1 -14   4  133.82    3.49
   1  14  -4  139.10    3.44
  -1  14   4  134.34    3.39
   1  14  -4  139.58    3.47
   0 -14  -4   14.10    0.70
   0 -14   4   12.86    0.83
   0 -14  -4   13.92    0.97
   0  14  -4   13.63    0.68
   0  14   4   13.65    0.64
   0  14  -4   15.28    1.01
   1 -14   4    8.44    0.57
  -1 -14  -4    7.33    0.83
   1 -14   4    8.45    0.79
  -1  14  -4    7.96    0.59
   1  14   4    8.03    0.54
   2 -14   4    3.11    0.50
  -2 -14  -4    2.61    0.50
   3 -14   4   20.15    0.88
   3  14   4   21.20    1.15
   3 -15  -4   15.40    0.78
   3  15  -4   15.55    1.18
   2 -15  -4   94.05    2.37
   2  15  -4   92.89    2.63
  -1 -15   4    8.79    0.63
   1 -15  -4    9.27    0.65
   1 -15  -4    9.66    0.89
   1  15  -4   10.97    0.96
   1  15  -4    9.65    0.60
  -1  15   4    8.83    0.52
   0 -15   4   74.36    2.20
   0 -15  -4   73.29    1.93
   0 -15  -4   76.86    2.35
   0  15   4   71.50    2.01
   0  15  -4   72.57    2.05
   0  15  -4   77.51    2.23
   1 -15   4   18.20    1.02
   1 -15   4   18.33    0.78
  -1 -15  -4   15.68    1.01
   1  15   4   16.56    0.76
  -1  15  -4   16.33    0.79
   2 -15   4   25.36    0.96
  -2 -15  -4   25.28    1.09
   3 -15   4    5.11    0.58
   3  15   4    4.13    0.69
   3 -16  -4   52.76    1.57
   3  16  -4   53.35    1.89
   2 -16  -4    0.97    0.37
   2  16  -4    0.20    0.58
   1 -16  -4   90.27    2.27
  -1 -16   4   87.48    2.45
   1 -16  -4   92.05    2.75
  -1  16   4   86.42    2.34
   1  16  -4   90.15    2.60
   1  16  -4   88.69    2.41
   0 -16  -4    3.35    0.69
   0 -16   4    2.44    0.51
   0  16   4    2.62    0.48
   0  16  -4    3.31    0.46
   0  16  -4    2.92    0.69
   1 -16   4   40.23    1.54
  -1 -16  -4   42.74    1.58
  -1  16  -4   39.06    1.32
   1  16   4   39.85    1.30
  -2 -16  -4   11.29    0.82
   2 -16   4   10.30    0.71
   3 -16   4   33.25    1.21
   3  16   4   34.24    1.49
   3 -17  -4    2.61    0.47
   3  17  -4    4.95    0.84
   2 -17  -4   45.44    1.49
   2  17  -4   52.87    1.89
   1 -17  -4    1.48    0.62
   1 -17  -4    1.65    0.44
  -1 -17   4    2.05    0.47
  -1  17   4    1.42    0.35
   1  17  -4    1.71    0.42
   1  17  -4    3.02    0.71
   0 -17  -4   42.61    1.69
   0 -17   4   40.39    1.51
   0  17  -4   42.14    1.36
   0  17   4   40.46    1.32
  -1 -17  -4    5.39    0.85
   1 -17   4    6.99    0.86
   1  17   4    6.84    0.58
  -1  17  -4    6.75    0.64
  -2 -17  -4   32.71    1.29
   2 -17   4   33.98    1.18
   2 -18  -4    0.45    0.38
   2  18  -4    0.23    0.69
   1 -18  -4   57.07    2.07
  -1 -18   4   54.86    1.74
   1 -18  -4   56.47    1.66
   1  18  -4   57.20    1.72
   1  18  -4   58.46    2.03
  -1  18   4   51.33    1.61
   0 -18  -4   42.86    1.70
   0 -18   4   40.56    1.52
   0  18   4   37.77    1.30
   0  18  -4   40.03    1.35
  -1 -18  -4   52.74    1.87
   1 -18   4   53.48    1.87
  -1  18  -4   48.49    1.60
   1  18   4   50.28    1.57
   2 -18   4    5.75    0.66
  -2 -18  -4    5.44    0.79
   2 -19  -4   28.66    1.19
   2  19  -4   29.96    1.57
  -1 -19   4    4.42    0.69
   1 -19  -4    5.62    1.02
  -1  19   4    5.66    0.55
   1  19  -4    5.58    0.89
   1  19  -4    4.00    0.58
   0 -19   4   54.15    1.84
   0 -19  -4   57.85    2.02
   0  19  -4   50.38    1.65
   0  19   4   47.77    1.60
   1 -19   4    1.24    0.58
  -1 -19  -4    0.74    0.59
   1  19   4    1.00    0.39
  -1  19  -4    0.98    0.44
  -2 -19  -4   35.41    1.41
   1 -20  -4   23.45    1.39
  -1 -20   4   23.19    1.08
  -1  20   4   20.63    0.95
   0 -20   4   10.79    0.93
   0 -20  -4   10.41    1.05
   0  20   4    9.83    0.71
   0  20  -4   10.35    0.77
  -1 -20  -4   41.04    1.65
   1 -20   4   39.17    1.63
   1  20   4   35.80    1.32
  -1  20  -4   34.72    1.34
   0 -21  -4   27.44    1.48
   0 -21   4   28.52    1.33
   0  21  -4   26.27    1.13
   0  21   4   24.09    1.09
   4   0  -5   -0.44    0.22
   3   0  -5   50.29    1.25
   3   0  -5   47.11    1.24
   2   0  -5    0.25    0.16
  -2   0   5   -0.21    0.11
   2   0  -5   -0.10    0.22
   2   0  -5   -0.13    0.21
   1   0  -5  348.16    7.30
  -1   0   5  362.36    8.06
  -1   0   5  338.90    7.25
   1   0  -5  331.66    7.30
  -1   0   5  354.47    8.06
   1   0  -5  340.32    8.16
   0   0   5    1.13    0.27
   0   0  -5    0.82    0.22
   0   0   5    0.80    0.20
   0   0   5    1.06    0.26
   0   0  -5    1.33    0.32
   1   0   5  317.10    6.76
  -1   0  -5  321.11    6.84
   1   0   5  319.77    6.79
   1   0   5  319.48    7.61
   2   0   5    1.24    0.25
   2   0   5    1.73    0.35
   2   0   5    0.92    0.30
  -2   0  -5    1.57    0.34
   3   0   5    4.15    0.50
   3   0   5    4.58    0.49
   4   0   5    0.49    0.35
   4  -1  -5   26.40    0.82
   4   1  -5   27.85    0.86
   3  -1  -5    2.33    0.33
   3   1  -5    2.28    0.33
   2  -1  -5  139.80    3.05
  -2  -1   5  138.41    2.96
   2  -1  -5  144.05    3.08
   2  -1  -5  138.13    3.06
   2   1  -5  141.17    3.04
   2   1  -5  129.53    3.07
  -2   1   5  140.06    2.97
   2   1  -5  140.30    3.05
  -1  -1   5   18.55    0.54
  -1  -1   5   18.53    0.54
   1  -1  -5   18.47    0.65
  -1  -1   5   17.69    0.58
   1  -1  -5   17.23    0.68
  -1   1   5   18.22    0.54
   1   1  -5   16.82    0.68
   1   1  -5   16.47    0.62
  -1   1   5   18.22    0.55
   1   1  -5   17.61    0.65
  -1   1   5   17.77    0.60
   0  -1  -5  218.24    4.70
   0  -1  -5  214.56    4.72
   0  -1   5  219.94    4.64
   0  -1   5  221.32    5.21
   0  -1   5  216.96    4.67
   0   1   5  215.93    4.65
   0   1   5  214.54    4.67
   0   1  -5  211.66    4.73
   0   1  -5  225.91    4.70
   0   1   5  211.15    5.18
   1  -1   5    6.27    0.44
   1  -1   5    6.41    0.43
  -1  -1  -5    6.52    0.51
   1  -1   5    5.97    0.48
  -1   1  -5    6.31    0.51
   1   1   5    6.30    0.45
   1   1   5    5.74    0.45
   1   1   5    5.81    0.44
   2  -1   5  165.90    3.70
   2  -1   5  165.64    3.71
   2  -1   5  165.29    4.17
  -2  -1  -5  169.03    4.09
   2   1   5  166.31    4.14
   2   1   5  164.61    3.71
   2   1   5  166.07    3.72
  -2   1  -5  167.08    4.09
   3  -1   5   18.31    0.76
   3  -1   5   17.54    0.76
   3   1   5   18.83    0.78
   3   1   5   17.84    0.77
   4  -1   5   52.36    1.52
   4   1   5   54.83    1.56
   4  -2  -5    0.92    0.28
   4   2  -5   -0.16    0.30
   3  -2  -5   78.65    1.82
   3   2  -5   77.31    1.87
   2  -2  -5    8.32    0.48
   2  -2  -5    8.17    0.47
   2   2  -5    8.80    0.43
  -2   2   5    7.44    0.35
   2   2  -5    8.01    0.41
   2   2  -5    7.52    0.49
  -1  -2   5  256.87    5.86
  -1  -2   5  254.18    5.85
  -1  -2   5  243.56    5.29
   1  -2  -5  248.05    5.35
   1  -2  -5  250.03    5.36
   1   2  -5  244.03    5.33
  -1   2   5  246.90    5.31
  -1   2   5  255.60    5.86
  -1   2   5  256.12    5.86
   1   2  -5  241.05    5.38
   1   2  -5  253.75    5.95
   0  -2  -5   53.37    1.40
   0  -2   5   52.42    1.32
   0  -2   5   53.56    1.34
   0  -2   5   53.66    1.46
   0   2   5   52.94    1.35
   0   2  -5   53.99    1.36
   0   2   5   55.67    1.44
   0   2  -5   50.92    1.43
   0   2   5   54.01    1.36
   1  -2   5  111.56    2.57
   1  -2   5  110.73    2.87
  -1  -2  -5  113.05    2.62
   1  -2   5  113.59    2.55
   1   2   5  110.79    2.84
   1   2   5  111.75    2.59
  -1   2  -5  113.46    2.66
   1   2   5  112.71    2.58
  -2  -2  -5    5.08    0.51
   2  -2   5    5.44    0.54
   2  -2   5    5.96    0.46
   2  -2   5    6.08    0.47
   2   2   5    5.58    0.49
   2   2   5    5.36    0.50
   2   2   5    5.35    0.50
   3  -2   5   54.24    1.51
   3  -2   5   58.06    1.54
   3   2   5   53.72    1.53
   3   2   5   56.88    1.55
   4  -2   5    3.41    0.54
   4   2   5    4.46    0.57
   4  -3  -5   46.82    1.21
   4   3  -5   47.52    1.28
   3  -3  -5   19.44    0.67
   3   3  -5   17.83    0.74
   2  -3  -5   81.03    1.95
  -2   3   5   85.25    1.88
   2   3  -5   83.20    2.01
   2   3  -5   85.90    1.94
  -1  -3   5   23.06    0.70
   1  -3  -5   22.40    0.78
  -1  -3   5   24.04    0.66
  -1  -3   5   24.94    0.69
  -1   3   5   25.36    0.70
   1   3  -5   22.65    0.73
  -1   3   5   22.53    0.72
   1   3  -5   22.10    0.83
   1   3  -5   23.10    0.76
  -1   3   5   23.82    0.67
   0  -3   5  165.45    4.05
   0  -3  -5  166.78    3.68
   0  -3   5  161.90    3.62
   0  -3   5  168.32    3.59
   0   3  -5  167.10    4.04
   0   3   5  164.23    3.64
   0   3  -5  162.27    3.71
   0   3  -5  168.54    3.65
   0   3   5  168.05    4.01
   0   3   5  163.31    3.63
   1  -3   5   23.64    0.79
   1  -3   5   23.63    0.88
  -1  -3  -5   23.85    0.85
   1  -3   5   24.39    0.78
  -1   3  -5   24.05    0.90
   1   3   5   24.43    0.84
   1   3   5   24.41    0.82
   1   3   5   23.86    0.82
   2  -3   5   83.17    2.01
  -2  -3  -5   82.87    2.20
   2  -3   5   83.35    2.28
   2  -3   5   83.56    2.02
   2   3   5   83.33    2.05
   2   3   5   80.83    2.21
   2   3   5   82.72    2.04
   3  -3   5   29.48    1.00
   3  -3   5   30.04    1.02
   3   3   5   32.28    1.06
   3   3   5   30.19    1.05
   4  -3   5   23.29    0.91
   4   3   5   23.22    0.97
   4  -4  -5   17.54    0.64
   4   4  -5   16.40    0.76
   3  -4  -5   86.44    1.98
   3   4  -5   82.66    2.04
   2  -4  -5   30.27    0.89
  -2   4   5   29.85    0.79
   2   4  -5   28.50    0.96
   2   4  -5   28.43    0.84
  -1  -4   5   72.91    1.72
  -1  -4   5   73.78    1.81
  -1  -4   5   75.34    1.85
   1  -4  -5   72.72    1.79
  -1   4   5   75.51    1.83
   1   4  -5   73.87    1.91
   1   4  -5   72.69    1.86
  -1   4   5   79.97    1.86
   1   4  -5   73.10    1.76
  -1   4   5   72.11    1.76
   0  -4  -5   78.47    1.94
   0  -4   5   78.87    2.10
   0  -4   5   83.70    1.90
   0  -4   5   81.13    1.87
   0   4   5   80.07    1.91
   0   4  -5   82.88    1.92
   0   4  -5   77.35    2.00
   0   4   5   82.14    2.05
   0   4  -5   80.80    2.09
   0   4   5   77.25    1.93
   1  -4   5   91.34    2.42
   1  -4   5   92.01    2.14
   1  -4   5   91.09    2.15
  -1  -4  -5   90.53    2.20
  -1  -4  -5   90.99    2.46
   1   4   5   91.94    2.20
  -1   4  -5   93.36    2.28
   1   4   5   91.55    2.19
   1   4   5   92.21    2.36
   2  -4   5   47.49    1.47
  -2  -4  -5   44.47    1.38
   2  -4   5   47.18    1.29
   2  -4   5   45.35    1.27
   2   4   5   46.74    1.32
   2   4   5   46.68    1.39
   2   4   5   47.32    1.34
   3  -4   5  106.17    2.55
   3  -4   5  106.83    2.55
   3   4   5  107.99    2.61
   3   4   5  106.45    2.60
   4  -4   5    7.91    0.61
   4   4   5    6.41    0.67
   5  -5  -5    3.04    0.45
   5   5  -5    3.13    0.45
   4  -5  -5   51.93    1.32
   4   5  -5   49.82    1.41
   3  -5  -5    9.78    0.52
   3   5  -5   11.15    0.65
   2  -5  -5  107.80    2.48
   2   5  -5  107.32    2.46
  -2   5   5  114.88    2.44
   2   5  -5  105.04    2.56
  -1  -5   5   17.11    0.52
   1  -5  -5   15.48    0.65
  -1  -5   5   18.03    0.57
  -1  -5   5   16.33    0.57
   1   5  -5   16.60    0.62
  -1   5   5   18.03    0.59
   1   5  -5   16.54    0.61
  -1   5   5   15.97    0.62
  -1   5   5   17.31    0.54
   1   5  -5   15.47    0.74
   0  -5   5   42.67    1.26
   0  -5  -5   41.88    1.18
   0  -5   5   42.28    1.10
   0  -5   5   42.99    1.12
   0   5  -5   42.04    1.14
   0   5  -5   40.97    1.22
   0   5   5   39.38    1.15
   0   5  -5   41.13    1.26
   0   5   5   42.32    1.17
   0   5   5   41.21    1.15
  -1  -5  -5   32.37    1.15
   1  -5   5   32.69    1.13
   1  -5   5   34.39    1.00
  -1  -5  -5   33.88    1.05
   1  -5   5   34.31    0.98
   1   5   5   34.12    1.04
  -1   5  -5   33.20    1.15
   1   5   5   33.60    1.05
   1   5   5   34.41    1.04
   2  -5   5   48.59    1.33
   2  -5   5   48.61    1.54
  -2  -5  -5   47.64    1.45
   2  -5   5   50.37    1.33
   2   5   5   48.86    1.39
   2   5   5   49.73    1.45
   2   5   5   48.48    1.38
   3  -5   5   11.15    0.63
   3  -5   5   10.90    0.62
   3   5   5   12.26    0.73
   3   5   5   10.65    0.69
   4  -5   5   40.93    1.26
   4   5   5   40.37    1.33
   4  -6  -5   16.26    0.67
   4   6  -5   17.70    0.83
   3  -6  -5   63.06    1.58
   3   6  -5   65.29    1.72
   2  -6  -5   16.47    0.67
  -2   6   5   19.78    0.63
   2   6  -5   16.35    0.79
  -1  -6   5   25.81    0.73
   1  -6  -5   25.60    0.84
  -1  -6   5   26.51    0.80
  -1   6   5   28.48    0.81
  -1   6   5   25.73    0.83
   1   6  -5   26.86    0.82
  -1   6   5   26.83    0.76
   1   6  -5   23.98    0.95
   1   6  -5   25.87    0.83
   0  -6   5   30.65    0.90
   0  -6   5   29.77    1.01
   0  -6   5   31.79    0.88
   0  -6  -5   28.97    0.94
   0   6  -5   30.53    1.07
   0   6   5   31.41    0.93
   0   6  -5   31.03    0.93
   0   6   5   30.72    0.97
   0   6   5   30.59    0.96
   0   6  -5   30.41    0.97
   1  -6   5   53.15    1.36
  -1  -6  -5   52.99    1.43
   1  -6   5   52.17    1.38
   1  -6   5   53.04    1.60
  -1  -6  -5   51.72    1.60
  -1   6  -5   54.57    1.56
   1   6   5   53.71    1.45
   1   6   5   53.16    1.48
   1   6   5   51.77    1.43
   2  -6   5   34.25    1.04
   2  -6   5   35.23    1.07
   2  -6   5   34.09    1.24
  -2  -6  -5   35.40    1.18
   2   6   5   35.27    1.14
   2   6   5   35.15    1.12
   2   6   5   33.65    1.11
   3  -6   5   78.04    1.99
   3  -6   5   79.34    1.98
   3   6   5   76.66    2.04
   3   6   5   78.65    2.07
   4  -6   5   11.60    0.71
   4   6   5   12.32    0.78
   4  -7  -5   73.50    1.76
   4   7  -5   69.53    1.90
   3  -7  -5   42.17    1.18
   3   7  -5   44.37    1.36
   2  -7  -5   75.88    1.84
   2   7  -5   75.85    1.98
  -1  -7   5   36.05    1.02
   1  -7  -5   35.11    1.04
  -1  -7   5   35.77    0.96
  -1   7   5   35.25    0.97
  -1   7   5   35.57    1.03
   1   7  -5   35.83    1.05
   1   7  -5   33.93    1.18
   1   7  -5   34.85    1.01
   0  -7  -5   12.95    0.72
   0  -7   5   12.28    0.52
   0  -7   5   12.72    0.55
   0  -7   5   12.34    0.62
   0  -7  -5   12.31    0.60
   0   7   5   12.65    0.53
   0   7   5   12.74    0.62
   0   7  -5   11.87    0.57
   0   7  -5   12.03    0.74
   0   7   5   12.37    0.64
   0   7  -5   13.12    0.56
  -1  -7  -5   10.63    0.59
   1  -7   5   11.21    0.70
   1  -7   5   11.34    0.55
   1  -7   5   10.34    0.54
  -1  -7  -5   10.53    0.72
   1   7   5   10.49    0.64
   1   7   5   11.09    0.63
   1   7   5   10.98    0.54
  -1   7  -5   10.72    0.73
  -2  -7  -5   48.55    1.49
   2  -7   5   50.14    1.37
   2  -7   5   48.08    1.33
   2  -7   5   50.09    1.60
   2   7   5   47.38    1.44
   2   7   5   48.51    1.44
   2   7   5   48.78    1.44
   3  -7   5   37.90    1.19
   3  -7   5   36.38    1.16
   3   7   5   37.96    1.28
   3   7   5   40.02    1.31
   4  -7   5   66.60    1.77
   4   7   5   63.92    1.86
   4  -8  -5   35.79    1.09
   4   8  -5   36.58    1.27
   3  -8  -5   53.66    1.39
   3   8  -5   50.76    1.55
   2  -8  -5   20.63    0.76
   2   8  -5   19.08    0.92
  -1  -8   5   43.09    1.21
   1  -8  -5   42.30    1.20
   1   8  -5   43.83    1.19
   1   8  -5   43.07    1.24
   1   8  -5   42.20    1.36
  -1   8   5   43.67    1.16
  -1   8   5   43.31    1.22
   0  -8  -5   11.17    0.73
   0  -8  -5    9.97    0.58
   0  -8   5   10.23    0.50
   0  -8   5    9.24    0.62
   0   8  -5    9.43    0.54
   0   8   5   11.09    0.61
   0   8   5   10.23    0.51
   0   8  -5   11.26    0.76
   0   8  -5   10.19    0.54
   1  -8   5   34.81    1.04
   1  -8   5   36.95    1.07
  -1  -8  -5   34.30    1.10
  -1  -8  -5   34.15    1.27
   1  -8   5   35.86    1.23
  -1   8  -5   37.12    1.25
   1   8   5   35.69    1.15
   1   8   5   34.77    1.09
   2  -8   5   27.82    1.17
   2  -8   5   26.93    0.93
  -2  -8  -5   28.41    1.08
   2  -8   5   29.34    0.96
   2   8   5   28.40    0.99
   2   8   5   29.39    1.05
   3  -8   5   56.40    1.56
   3  -8   5   55.59    1.55
   3   8   5   55.83    1.66
   3   8   5   54.63    1.65
   4  -8   5   22.07    0.92
   4   8   5   22.15    1.02
   4  -9  -5   16.54    0.73
   4   9  -5   17.74    0.94
   3  -9  -5   47.68    1.29
   3   9  -5   44.05    1.46
   2  -9  -5   29.98    0.95
   2   9  -5   29.43    1.15
  -1  -9   5   48.37    1.35
   1  -9  -5   47.80    1.33
   1  -9  -5   49.22    1.56
  -1   9   5   47.40    1.30
   1   9  -5   47.76    1.49
   1   9  -5   49.36    1.38
   0  -9  -5   61.11    1.88
   0  -9   5   62.87    1.81
   0  -9  -5   60.74    1.63
   0  -9   5   64.58    1.56
   0   9   5   62.01    1.67
   0   9   5   61.50    1.65
   0   9  -5   65.21    1.62
   0   9  -5   61.45    1.71
   0   9  -5   61.92    1.79
  -1  -9  -5   31.68    1.23
   1  -9   5   32.52    1.18
   1  -9   5   33.85    1.02
   1  -9   5   32.44    1.00
  -1  -9  -5   32.01    1.05
   1   9   5   32.53    1.04
  -1   9  -5   31.30    1.07
  -1   9  -5   32.33    1.21
   1   9   5   33.06    1.13
  -2  -9  -5   70.74    2.06
   2  -9   5   73.85    1.87
   2  -9   5   73.74    2.18
   2  -9   5   74.56    1.86
   2   9   5   71.53    1.97
   2   9   5   72.16    2.00
   3  -9   5   29.09    1.03
   3  -9   5   29.21    1.02
   3   9   5   29.88    1.16
   3   9   5   29.79    1.18
   4  -9   5   28.08    1.05
   4   9   5   27.34    1.17
   4 -10  -5   29.01    0.98
   4  10  -5   27.25    1.20
   3 -10  -5   52.34    1.44
   3  10  -5   52.96    1.66
   2 -10  -5   68.33    1.73
   2  10  -5   65.59    1.91
   1 -10  -5   47.88    1.33
  -1 -10   5   47.76    1.36
   1 -10  -5   47.11    1.57
  -1  10   5   47.07    1.29
   1  10  -5   45.07    1.51
   1  10  -5   48.40    1.37
   0 -10   5   25.76    1.01
   0 -10   5   26.45    0.84
   0 -10  -5   27.29    1.13
   0 -10  -5   26.62    0.93
   0  10   5   27.02    0.90
   0  10  -5   27.10    1.12
   0  10   5   26.88    0.98
   0  10  -5   25.23    0.92
   0  10  -5   27.90    0.95
   1 -10   5   53.12    1.68
  -1 -10  -5   52.03    1.71
   1 -10   5   53.08    1.41
  -1  10  -5   52.11    1.54
   1  10   5   50.44    1.49
   1  10   5   53.75    1.55
   2 -10   5   61.55    1.62
   2 -10   5   60.35    1.94
  -2 -10  -5   61.12    1.82
   2  10   5   58.55    1.72
   2  10   5   59.40    1.75
   3 -10   5   30.19    1.05
   3  10   5   29.70    1.21
   4 -10   5   19.11    0.88
   4  10   5   18.76    1.02
   4 -11  -5    4.02    0.56
   4  11  -5    5.82    0.85
   3 -11  -5   32.20    1.06
   3  11  -5   30.16    1.27
   2 -11  -5   36.52    1.14
   2  11  -5   37.06    1.36
  -1 -11   5   47.58    1.41
   1 -11  -5   49.02    1.38
   1 -11  -5   50.25    1.65
  -1  11   5   48.69    1.34
   1  11  -5   48.39    1.42
   1  11  -5   48.57    1.60
   0 -11  -5   61.36    1.92
   0 -11  -5   59.57    1.62
   0 -11   5   60.71    1.81
   0 -11   5   61.51    1.59
   0  11  -5   61.09    1.84
   0  11  -5   59.85    1.70
   0  11   5   58.06    1.66
   0  11   5   61.42    1.69
   1 -11   5   28.91    1.19
  -1 -11  -5   28.10    1.21
   1 -11   5   30.98    0.97
   1  11   5   29.28    1.00
   1  11   5   30.81    1.13
  -1  11  -5   29.25    1.02
   2 -11   5   52.20    1.47
   2 -11   5   51.91    1.77
  -2 -11  -5   51.29    1.65
   2  11   5   53.97    1.66
   3 -11   5   31.75    1.11
   3  11   5   33.85    1.31
   4 -12  -5   20.99    0.88
   4  12  -5   19.45    1.12
   3 -12  -5   17.39    0.80
   3  12  -5   16.86    1.06
   2 -12  -5  105.22    2.56
   2  12  -5  107.81    2.82
  -1 -12   5   53.79    1.60
   1 -12  -5   57.55    1.56
   1 -12  -5   56.67    1.86
  -1  12   5   56.24    1.53
   1  12  -5   56.94    1.61
   1  12  -5   57.34    1.78
   0 -12   5   44.85    1.46
   0 -12  -5   40.92    1.29
   0 -12  -5   42.95    1.57
   0  12   5   42.13    1.28
   0  12  -5   46.01    1.55
   0  12  -5   41.79    1.32
   1 -12   5   65.89    1.68
   1 -12   5   62.43    1.98
  -1 -12  -5   63.45    2.02
   1  12   5   63.72    1.81
   1  12   5   65.61    1.84
  -1  12  -5   61.92    1.81
   2 -12   5   55.01    1.54
   2 -12   5   54.04    1.84
  -2 -12  -5   54.86    1.73
   2  12   5   54.75    1.70
   3 -12   5   18.41    0.84
   3  12   5   19.58    1.07
   4 -13  -5    6.95    0.66
   4  13  -5    4.92    0.74
   3 -13  -5   25.14    0.97
   3  13  -5   21.98    1.21
   2 -13  -5   18.94    0.86
   2  13  -5   20.90    1.16
   1 -13  -5   49.77    1.71
  -1 -13   5   47.50    1.42
   1 -13  -5   49.40    1.41
  -1  13   5   43.03    1.32
   1  13  -5   47.30    1.62
   1  13  -5   46.57    1.42
   0 -13   5   62.51    1.92
   0 -13  -5   61.81    1.71
   0 -13  -5   63.97    2.06
   0  13  -5   62.57    1.79
   0  13   5   62.21    1.76
   0  13  -5   64.44    1.97
  -1 -13  -5   58.35    1.93
   1 -13   5   59.12    1.56
   1 -13   5   58.24    1.88
  -1  13  -5   55.86    1.70
   1  13   5   57.98    1.67
   1  13   5   58.39    1.75
   2 -13   5   21.31    0.88
  -2 -13  -5   20.63    1.02
   2 -13   5   21.93    1.14
   2  13   5   19.72    1.06
   3 -13   5   22.73    0.95
   3  13   5   22.66    1.18
   3 -14  -5    1.18    0.41
   3  14  -5    1.43    0.65
   2 -14  -5   58.64    1.66
   2  14  -5   58.36    1.94
   1 -14  -5   20.84    1.17
  -1 -14   5   20.98    0.87
   1 -14  -5   21.28    0.89
   1  14  -5   21.80    1.20
   1  14  -5   21.39    0.87
  -1  14   5   19.89    0.76
   0 -14   5   75.83    2.26
   0 -14  -5   74.70    2.38
   0 -14  -5   76.33    2.03
   0  14   5   76.66    2.10
   0  14  -5   82.54    2.33
   0  14  -5   77.24    2.14
   1 -14   5   57.11    1.90
  -1 -14  -5   58.19    1.96
   1 -14   5   59.39    1.59
   1  14   5   56.13    1.69
  -1  14  -5   55.57    1.71
   1  14   5   59.99    1.80
  -2 -14  -5   34.84    1.33
   2 -14   5   35.04    1.18
   2 -14   5   33.22    1.46
   2  14   5   35.89    1.40
   3 -14   5    7.72    0.66
   3  14   5    6.52    0.88
   3 -15  -5   33.25    1.20
   3  15  -5   34.12    1.50
   2 -15  -5    8.50    0.70
   2  15  -5    9.67    1.03
   1 -15  -5   85.42    2.16
   1 -15  -5   85.69    2.60
  -1 -15   5   79.81    2.26
  -1  15   5   78.95    2.17
   1  15  -5   82.66    2.42
   1  15  -5   81.63    2.26
   0 -15  -5   23.96    1.24
   0 -15   5   23.16    1.08
   0  15   5   23.09    0.90
   0  15  -5   23.54    1.25
   0  15  -5   24.30    0.96
   1 -15   5   78.93    2.43
  -1 -15  -5   82.99    2.49
   1  15   5   81.24    2.22
  -1  15  -5   76.54    2.23
  -2 -15  -5    4.41    0.73
   2 -15   5    4.52    0.58
   2  15   5    3.35    0.65
   3 -15   5   24.11    1.04
   3  15   5   25.37    1.29
   3 -16  -5    9.45    0.77
   3  16  -5    8.25    1.06
   2 -16  -5   40.21    1.36
   2  16  -5   40.07    1.65
   1 -16  -5    3.75    0.72
   1 -16  -5    3.34    0.51
  -1 -16   5    3.70    0.57
   1  16  -5    3.54    0.60
  -1  16   5    4.00    0.46
   1  16  -5    2.54    0.71
   0 -16  -5   26.64    1.34
   0 -16   5   26.09    1.17
   0  16   5   23.83    0.96
   0  16  -5   26.64    1.03
   1 -16   5    4.85    0.75
  -1 -16  -5    4.18    0.70
   1  16   5    4.63    0.56
  -1  16  -5    4.03    0.58
  -2 -16  -5   37.66    1.45
   2 -16   5   37.72    1.29
   2  16   5   40.84    1.56
   2 -17  -5    3.32    0.52
   2  17  -5    2.73    0.76
   1 -17  -5   59.14    2.12
   1 -17  -5   62.54    1.76
  -1 -17   5   57.23    1.77
  -1  17   5   55.95    1.68
   1  17  -5   58.73    2.08
   0 -17  -5    6.39    0.98
   0 -17   5    7.01    0.80
   0  17  -5    6.06    0.63
   0  17   5    6.38    0.60
   1 -17   5   37.78    1.51
  -1 -17  -5   40.15    1.60
  -1  17  -5   33.92    1.28
   1  17   5   37.08    1.27
  -2 -17  -5   10.59    0.89
   2  17   5   13.05    1.06
   2 -18  -5   30.15    1.21
   2  18  -5   28.00    1.55
   1 -18  -5    0.43    0.44
   1 -18  -5    0.96    0.65
  -1 -18   5    1.19    0.42
  -1  18   5    0.95    0.37
   1  18  -5    0.56    0.68
   0 -18  -5   31.22    1.52
   0 -18   5   29.02    1.28
   0  18  -5   29.19    1.15
   0  18   5   27.75    1.09
   1 -18   5    1.84    0.58
  -1 -18  -5    1.43    0.64
   1  18   5    1.07    0.41
  -1  18  -5    1.53    0.43
  -2 -18  -5   30.75    1.34
  -1 -19   5   12.40    0.80
   1 -19  -5   13.87    1.20
   1  19  -5   14.38    1.34
  -1  19   5   10.61    0.70
   0 -19  -5    1.71    0.74
   0 -19   5    0.84    0.55
   0  19   5    0.80    0.43
   0  19  -5    1.19    0.46
  -1 -19  -5   22.69    1.30
   1 -19   5   22.19    1.25
  -1  19  -5   20.28    1.01
   1  19   5   22.54    0.99
   1 -20  -5    1.93    0.78
  -1 -20   5    2.01    0.48
  -1  20   5    1.80    0.44
   0 -20  -5   24.48    1.41
   0 -20   5   23.27    1.20
   0  20   5   20.59    1.00
   0  20  -5   20.32    1.04
   4   0  -6   46.95    1.29
   3   0  -6   -0.39    0.27
   2   0  -6   43.55    1.26
  -2   0   6   45.90    1.11
   1   0  -6    0.32    0.30
   1   0  -6    0.20    0.21
  -1   0   6    0.29    0.19
  -1   0   6    0.32    0.18
  -1   0   6    0.71    0.18
   0   0  -6  188.53    4.28
   0   0   6  187.75    4.19
   0   0   6  196.23    4.19
   0   0   6  192.52    4.65
   0   0  -6  194.08    4.24
  -1   0  -6    3.33    0.54
   1   0   6    2.76    0.44
   1   0   6    1.60    0.32
   1   0   6    1.59    0.27
   2   0   6  183.43    4.15
   2   0   6  189.12    4.18
   2   0   6  184.98    4.65
  -2   0  -6  185.90    4.61
   3   0   6    0.15    0.27
   3   0   6    0.27    0.32
   4   0   6   74.46    2.02
   4  -1  -6    0.28    0.31
   4   1  -6    0.35    0.31
   3  -1  -6   31.73    0.98
   3   1  -6   30.85    1.00
   2  -1  -6    0.52    0.29
  -2  -1   6    0.00    0.15
  -2   1   6    0.32    0.17
   2   1  -6    0.89    0.33
   1  -1  -6   92.05    2.21
  -1  -1   6   92.73    2.26
  -1  -1   6   94.42    2.26
   1  -1  -6   90.61    2.23
  -1  -1   6   89.87    2.13
   1   1  -6   89.75    2.25
  -1   1   6   94.68    2.27
   1   1  -6   91.63    2.39
  -1   1   6   96.25    2.27
   1   1  -6   91.33    2.19
  -1   1   6   93.16    2.15
   0  -1   6    4.76    0.42
   0  -1  -6    4.55    0.52
   0  -1   6    4.29    0.41
   0  -1   6    4.54    0.42
   0  -1  -6    4.79    0.49
   0   1   6    4.96    0.42
   0   1  -6    4.52    0.50
   0   1   6    4.10    0.42
   0   1   6    5.10    0.43
   0   1  -6    4.70    0.45
   1  -1   6  200.70    4.47
  -1  -1  -6  199.70    4.54
   1  -1   6  203.55    4.45
   1  -1   6  203.71    4.98
   1   1   6  204.87    4.48
   1   1   6  200.87    4.96
  -1   1  -6  202.48    4.55
   1   1   6  206.74    4.46
  -2  -1  -6    4.82    0.56
   2  -1   6    5.24    0.51
   2  -1   6    5.38    0.50
   2  -1   6    4.47    0.54
   2   1   6    4.65    0.51
   2   1   6    5.65    0.57
   2   1   6    4.62    0.53
   3  -1   6   29.74    1.07
   3  -1   6   31.25    1.09
   3   1   6   31.27    1.08
   3   1   6   31.03    1.10
   4  -1   6    1.84    0.44
   4   1   6    2.21    0.45
   4  -2  -6   37.07    1.09
   4   2  -6   36.88    1.13
   3  -2  -6    0.60    0.33
   3   2  -6    0.69    0.33
   2  -2  -6   90.31    2.17
   2   2  -6   91.35    2.22
  -1  -2   6    7.79    0.43
  -1  -2   6    7.29    0.37
   1  -2  -6    7.04    0.54
  -1  -2   6    7.04    0.35
   1  -2  -6    7.08    0.53
   1   2  -6    8.27    0.56
   1   2  -6    7.08    0.48
   1   2  -6    7.65    0.48
  -1   2   6    7.24    0.37
  -1   2   6    7.84    0.38
  -1   2   6    7.36    0.44
   0  -2  -6  156.59    3.61
   0  -2   6  161.93    3.53
   0  -2   6  159.48    3.50
   0  -2   6  152.38    3.89
   0   2   6  158.11    3.88
   0   2  -6  156.65    3.63
   0   2   6  158.41    3.52
   0   2   6  162.58    3.56
   0   2  -6  161.79    3.57
   1  -2   6   22.14    0.87
   1  -2   6   22.26    0.80
   1  -2   6   21.43    0.78
  -1  -2  -6   21.85    0.87
   1   2   6   21.40    0.82
   1   2   6   21.37    0.80
  -1   2  -6   21.66    0.90
   1   2   6   21.13    0.81
   2  -2   6   93.97    2.31
   2  -2   6   97.74    2.34
   2  -2   6   96.25    2.60
  -2  -2  -6   92.12    2.53
   2   2   6   94.08    2.55
   2   2   6   98.45    2.37
   2   2   6   95.55    2.35
   3  -2   6   29.50    1.05
   3  -2   6   30.08    1.06
   3   2   6   31.40    1.10
   3   2   6   30.67    1.08
   4  -2   6   43.54    1.39
   4   2   6   45.60    1.44
   4  -3  -6    1.45    0.33
   4   3  -6    0.47    0.39
   3  -3  -6   77.09    1.88
   3   3  -6   76.02    1.94
   2  -3  -6    0.70    0.31
   2   3  -6    0.07    0.35
  -1  -3   6  120.06    2.83
  -1  -3   6  113.85    2.61
   1  -3  -6  114.19    2.70
  -1  -3   6  114.53    2.79
   1   3  -6  116.62    2.93
   1   3  -6  112.30    2.74
  -1   3   6  118.44    2.81
  -1   3   6  113.21    2.63
  -1   3   6  121.76    2.83
   1   3  -6  113.12    2.66
   0  -3  -6   66.58    1.71
   0  -3   6   66.95    1.62
   0  -3   6   65.63    1.64
   0  -3   6   63.76    1.79
   0   3   6   68.20    1.66
   0   3  -6   64.76    1.76
   0   3   6   65.57    1.75
   0   3   6   66.04    1.67
   0   3  -6   65.83    1.67
   1  -3   6  138.88    3.57
   1  -3   6  139.13    3.17
  -1  -3  -6  140.94    3.28
   1  -3   6  142.37    3.21
  -1   3  -6  141.82    3.32
   1   3   6  141.90    3.53
   1   3   6  143.01    3.23
   1   3   6  135.53    3.20
   2  -3   6   10.90    0.62
   2  -3   6   10.97    0.63
   2  -3   6   11.27    0.71
  -2  -3  -6   11.43    0.70
   2   3   6   11.01    0.67
   2   3   6   11.07    0.66
   2   3   6   10.99    0.67
   3  -3   6   66.57    1.78
   3  -3   6   64.86    1.76
   3   3   6   64.00    1.79
   3   3   6   64.14    1.81
   4  -3   6    2.30    0.47
   4   3   6    2.27    0.46
   4  -4  -6   40.91    1.18
   4   4  -6   40.53    1.25
   3  -4  -6    3.45    0.49
   3   4  -6    2.42    0.45
   2  -4  -6  100.67    2.32
   2   4  -6   94.63    2.38
  -1  -4   6   20.47    0.63
  -1  -4   6   20.99    0.67
   1  -4  -6   20.45    0.80
  -1  -4   6   19.97    0.68
  -1   4   6   22.65    0.68
   1   4  -6   19.03    0.86
  -1   4   6   20.55    0.64
   1   4  -6   19.88    0.74
   1   4  -6   20.17    0.77
  -1   4   6   20.59    0.72
   0  -4   6  114.77    2.92
   0  -4   6  115.10    2.60
   0  -4   6  115.00    2.63
   0  -4  -6  114.22    2.69
   0   4   6  111.37    2.64
   0   4   6  114.93    2.66
   0   4  -6  118.16    2.66
   0   4   6  111.00    2.85
   0   4  -6  113.28    2.77
   1  -4   6   31.95    1.09
  -1  -4  -6   29.00    1.03
   1  -4   6   30.85    0.97
   1  -4   6   30.79    0.95
  -1   4  -6   32.70    1.14
   1   4   6   30.45    1.02
   1   4   6   29.50    1.00
   1   4   6   29.00    1.01
   2  -4   6   21.73    0.83
   2  -4   6   21.93    0.85
  -2  -4  -6   21.24    0.93
   2  -4   6   20.54    0.96
   2   4   6   21.86    0.89
   2   4   6   21.23    0.88
   2   4   6   21.03    0.89
   3  -4   6   15.71    0.77
   3  -4   6   14.87    0.74
   3   4   6   14.34    0.80
   3   4   6   15.38    0.82
   4  -4   6   21.87    0.94
   4   4   6   22.33    1.03
   4  -5  -6    9.47    0.60
   4   5  -6    8.63    0.75
   3  -5  -6   96.45    2.34
   3   5  -6  101.20    2.45
   2  -5  -6    0.74    0.31
   2   5  -6    0.75    0.39
  -1  -5   6  102.22    2.52
  -1  -5   6  102.19    2.34
   1  -5  -6  101.79    2.42
  -1   5   6  103.06    2.39
  -1   5   6  102.50    2.50
   1   5  -6  105.21    2.62
   1   5  -6   94.84    2.49
   0  -5   6   24.84    0.79
   0  -5  -6   24.14    0.91
   0  -5   6   24.28    0.90
   0  -5   6   25.11    0.82
   0   5  -6   25.42    0.86
   0   5  -6   23.83    0.99
   0   5   6   25.29    0.86
   0   5   6   24.51    0.87
   0   5   6   25.64    0.84
   0   5  -6   25.48    0.92
   1  -5   6  123.79    2.83
   1  -5   6  122.67    2.85
  -1  -5  -6  122.83    2.91
   1  -5   6  122.45    3.21
  -1  -5  -6  121.79    3.25
   1   5   6  125.30    2.92
   1   5   6  124.12    3.11
  -1   5  -6  123.12    3.01
   1   5   6  118.53    2.86
  -2  -5  -6   48.38    1.53
   2  -5   6   47.25    1.36
   2  -5   6   47.60    1.56
   2  -5   6   49.61    1.39
   2   5   6   49.17    1.43
   2   5   6   49.71    1.45
   2   5   6   47.20    1.48
   3  -5   6   34.41    1.15
   3  -5   6   35.29    1.15
   3   5   6   34.30    1.22
   3   5   6   34.27    1.22
   4  -5   6    7.87    0.67
   4   5   6    7.90    0.73
   4  -6  -6   55.71    1.51
   4   6  -6   57.42    1.64
   3  -6  -6    6.37    0.52
   3   6  -6    6.10    0.70
   2  -6  -6  129.79    2.97
   2   6  -6  126.94    3.06
  -1  -6   6   39.75    1.10
   1  -6  -6   37.35    1.16
   1   6  -6   37.96    1.27
   1   6  -6   38.83    1.18
  -1   6   6   38.55    1.12
  -1   6   6   38.56    1.07
   0  -6   6   96.29    2.56
   0  -6   6   99.57    2.31
   0  -6   6  101.73    2.29
   0  -6  -6   92.39    2.36
   0   6  -6   99.69    2.34
   0   6  -6   94.35    2.54
   0   6   6   97.10    2.49
   0   6  -6   96.74    2.48
   0   6   6   98.23    2.34
   0   6   6  101.97    2.38
  -1  -6  -6   12.47    0.67
   1  -6   6   12.31    0.61
   1  -6   6   11.37    0.61
   1  -6   6   13.59    0.74
  -1  -6  -6   11.49    0.77
   1   6   6   13.39    0.70
  -1   6  -6   11.75    0.80
   1   6   6   12.75    0.63
   1   6   6   12.60    0.69
   2  -6   6   26.71    0.96
   2  -6   6   28.82    1.14
  -2  -6  -6   26.13    1.07
   2  -6   6   27.82    0.96
   2   6   6   26.75    1.02
   2   6   6   28.22    1.05
   2   6   6   26.72    1.00
   3  -6   6   11.37    0.69
   3  -6   6   11.15    0.68
   3   6   6   10.91    0.75
   3   6   6   10.03    0.75
   4  -6   6   11.83    0.75
   4   6   6   10.74    0.83
   4  -7  -6   18.96    0.80
   4   7  -6   21.41    0.99
   3  -7  -6   59.98    1.58
   3   7  -6   59.13    1.72
   2  -7  -6   16.94    0.75
   2   7  -6   17.86    0.91
  -1  -7   6  160.07    3.89
   1  -7  -6  162.35    3.63
   1   7  -6  156.61    3.74
  -1   7   6  157.24    3.84
   1   7  -6  162.01    3.95
   0  -7  -6   21.71    0.88
   0  -7   6   23.13    0.80
   0  -7   6   23.29    0.78
   0  -7   6   22.08    0.89
   0   7  -6   23.10    0.87
   0   7   6   22.35    0.87
   0   7   6   22.91    0.85
   0   7  -6   22.17    1.02
   0   7  -6   23.65    0.84
   0   7   6   22.71    0.80
  -1  -7  -6   25.66    1.10
   1  -7   6   27.14    0.92
   1  -7   6   27.03    1.06
   1  -7   6   27.19    0.91
  -1  -7  -6   26.17    1.03
   1   7   6   26.90    0.94
  -1   7  -6   28.02    1.13
   1   7   6   27.14    1.02
   1   7   6   27.66    1.00
  -2  -7  -6   20.66    0.96
   2  -7   6   22.35    1.06
   2  -7   6   21.78    0.88
   2  -7   6   23.79    0.87
   2   7   6   22.19    0.91
   2   7   6   25.06    0.98
   2   7   6   22.11    0.95
   3  -7   6   23.98    0.96
   3  -7   6   23.62    0.95
   3   7   6   25.28    1.08
   3   7   6   25.77    1.07
   4  -7   6    4.55    0.62
   4   7   6    4.01    0.59
   4  -8  -6   33.51    1.07
   4   8  -6   32.22    1.26
   3  -8  -6   43.20    1.26
   3   8  -6   40.67    1.41
   2  -8  -6   73.92    1.90
   2   8  -6   74.27    2.05
  -1  -8   6   33.26    1.02
   1  -8  -6   34.06    1.11
   1   8  -6   34.03    1.25
  -1   8   6   33.55    0.98
   1   8  -6   34.59    1.10
   0  -8   6   64.48    1.85
   0  -8  -6   64.59    1.98
   0  -8   6   64.51    1.65
   0  -8   6   66.59    1.63
   0  -8  -6   62.86    1.71
   0   8  -6   65.32    1.82
   0   8   6   64.61    1.72
   0   8   6   66.31    1.72
   0   8   6   61.89    1.75
   0   8  -6   62.71    1.86
  -1  -8  -6   37.03    1.37
   1  -8   6   38.87    1.16
   1  -8   6   37.76    1.13
   1  -8   6   36.70    1.32
   1   8   6   37.79    1.24
   1   8   6   36.51    1.17
   1   8   6   38.05    1.26
   2  -8   6   66.66    2.11
  -2  -8  -6   67.63    2.04
   2  -8   6   72.35    1.84
   2  -8   6   69.14    1.82
   2   8   6   68.29    1.96
   2   8   6   68.83    1.93
   2   8   6   70.79    1.94
   3  -8   6    9.84    0.67
   3  -8   6    7.11    0.62
   3   8   6    8.82    0.77
   3   8   6    9.56    0.77
   4  -8   6   12.95    0.79
   4   8   6   12.34    0.87
   4  -9  -6   28.16    1.01
   4   9  -6   26.39    1.19
   3  -9  -6   34.84    1.12
   3   9  -6   33.75    1.31
   2  -9  -6   42.09    1.28
   2   9  -6   42.77    1.47
  -1  -9   6   52.60    1.49
   1  -9  -6   49.92    1.49
  -1   9   6   52.68    1.44
   1   9  -6   58.09    1.70
   1   9  -6   55.30    1.55
   0  -9  -6   35.91    1.15
   0  -9  -6   34.01    1.31
   0  -9   6   33.72    1.20
   0   9   6   35.42    1.09
   0   9   6   34.86    1.17
   0   9  -6   34.32    1.15
   0   9  -6   34.44    1.31
   1  -9   6   26.54    0.92
   1  -9   6   27.08    0.95
  -1  -9  -6   26.07    1.17
   1  -9   6   24.75    1.08
   1   9   6   25.96    1.04
   1   9   6   26.95    0.96
   1   9   6   27.97    1.05
   2  -9   6   14.57    0.92
   2  -9   6   13.40    0.71
   2  -9   6   13.15    0.72
  -2  -9  -6   14.16    0.85
   2   9   6   13.14    0.83
   2   9   6   12.72    0.70
   2   9   6   14.34    0.85
   3  -9   6   35.25    1.21
   3  -9   6   37.33    1.24
   3   9   6   36.19    1.37
   3   9   6   39.86    1.40
   4 -10  -6   12.35    0.73
   4  10  -6   12.05    0.97
   3 -10  -6   35.19    1.16
   3  10  -6   36.02    1.38
   2 -10  -6   14.43    0.76
   2  10  -6   14.67    0.96
   1 -10  -6   27.95    1.23
  -1 -10   6   28.41    0.95
   1 -10  -6   28.99    1.03
   1  10  -6   29.85    1.03
  -1  10   6   27.92    0.90
   1  10  -6   28.89    1.21
   0 -10  -6   83.38    2.44
   0 -10   6   80.94    2.31
   0 -10  -6   83.02    2.13
   0  10   6   85.33    2.27
   0  10  -6   81.86    2.25
   0  10  -6   83.96    2.32
   0  10   6   82.65    2.20
   1 -10   6   29.36    0.98
   1 -10   6   29.30    1.19
  -1 -10  -6   28.38    1.25
   1  10   6   29.42    1.12
   1  10   6   29.06    1.01
   2 -10   6   67.39    1.78
   2 -10   6   66.38    1.81
  -2 -10  -6   64.44    2.01
   2 -10   6   64.01    2.07
   2  10   6   66.75    1.91
   2  10   6   66.93    1.93
   2  10   6   66.22    1.93
   3 -10   6   12.55    0.75
   3 -10   6   12.27    0.75
   3  10   6   13.82    0.88
   3  10   6   12.50    0.88
   4 -11  -6   21.64    0.94
   4  11  -6   22.06    1.19
   3 -11  -6   13.78    0.77
   3  11  -6   12.71    0.98
   2 -11  -6   46.79    1.41
   2  11  -6   47.48    1.64
   1 -11  -6   27.25    1.01
  -1 -11   6   26.30    0.93
   1 -11  -6   27.65    1.21
  -1  11   6   26.69    0.88
   1  11  -6   27.05    0.99
   1  11  -6   27.24    1.23
   0 -11  -6   39.19    1.49
   0 -11  -6   39.92    1.27
   0 -11   6   38.10    1.34
   0  11  -6   40.46    1.47
   0  11  -6   38.31    1.27
   0  11   6   37.97    1.20
  -1 -11  -6   30.88    1.33
   1 -11   6   31.62    1.28
   1 -11   6   33.01    1.05
   1  11   6   31.27    1.08
   1  11   6   33.23    1.19
  -1  11  -6   31.93    1.14
   2 -11   6   36.39    1.47
   2 -11   6   38.70    1.22
  -2 -11  -6   39.35    1.42
   2  11   6   37.17    1.32
   2  11   6   37.53    1.38
   3 -11   6   35.31    1.23
   3  11   6   36.31    1.40
   3 -12  -6   20.40    0.93
   3  12  -6   21.28    1.19
   2 -12  -6    3.67    0.59
   2  12  -6    3.87    0.69
  -1 -12   6   36.99    1.18
   1 -12  -6   38.58    1.49
   1 -12  -6   36.95    1.24
   1  12  -6   37.40    1.23
  -1  12   6   35.91    1.12
   1  12  -6   37.04    1.47
   0 -12   6   18.55    0.93
   0 -12  -6   18.24    0.87
   0 -12  -6   17.92    1.08
   0  12  -6   19.36    0.87
   0  12   6   18.50    0.77
   0  12  -6   20.04    1.12
   1 -12   6   50.35    1.72
   1 -12   6   53.08    1.45
  -1 -12  -6   46.09    1.73
   1  12   6   53.91    1.61
   1  12   6   49.96    1.53
  -1  12  -6   49.20    1.57
   2 -12   6   59.04    1.95
  -2 -12  -6   52.97    1.83
   2 -12   6   58.23    1.62
   2  12   6   60.45    1.84
   3 -12   6   19.80    0.93
   3  12   6   20.16    1.12
   3 -13  -6   -0.25    0.38
   3  13  -6   -0.21    0.57
   2 -13  -6   28.30    1.09
   2  13  -6   27.78    1.35
   1 -13  -6   18.28    0.87
   1 -13  -6   18.58    1.08
  -1 -13   6   16.92    0.78
   1  13  -6   17.58    1.13
  -1  13   6   17.98    0.73
   0 -13  -6   35.17    1.46
   0 -13   6   33.29    1.25
   0 -13  -6   32.49    1.17
   0  13   6   31.24    1.10
   0  13  -6   31.66    1.15
   0  13  -6   35.61    1.44
   1 -13   6   21.50    1.09
  -1 -13  -6   20.47    1.15
  -1  13  -6   19.76    0.93
   1  13   6   20.72    0.88
  -2 -13  -6   29.75    1.27
   2 -13   6   30.87    1.38
   2 -13   6   30.38    1.11
   2  13   6   31.09    1.30
   3 -13   6   54.57    1.67
   3  13   6   55.84    1.86
   3 -14  -6   17.99    0.94
   3  14  -6   19.43    1.24
   2 -14  -6    2.03    0.47
   2  14  -6    0.97    0.63
   1 -14  -6   22.54    0.99
   1 -14  -6   22.57    1.24
  -1 -14   6   21.42    0.88
  -1  14   6   21.08    0.82
   1  14  -6   21.31    1.25
   0 -14  -6    7.77    0.90
   0 -14   6    8.11    0.75
   0  14  -6   10.24    0.99
   0  14   6    6.67    0.56
   0  14  -6    7.97    0.66
  -1 -14  -6   87.19    2.66
   1 -14   6   90.64    2.61
  -1  14  -6   84.97    2.42
   1  14   6   85.89    2.39
   2 -14   6   22.29    0.95
  -2 -14  -6   20.48    1.10
   2 -14   6   21.89    1.20
   2  14   6   22.86    1.19
   3 -15  -6    8.06    0.76
   3  15  -6    8.89    1.10
   2 -15  -6   21.88    1.01
   2  15  -6   20.62    1.29
   1 -15  -6    2.56    0.68
  -1 -15   6    1.53    0.41
   1 -15  -6    1.64    0.46
  -1  15   6    1.68    0.35
   1  15  -6    1.87    0.71
   0 -15  -6   52.73    1.89
   0 -15   6   51.69    1.71
   0  15   6   48.01    1.53
   0  15  -6   51.62    1.61
  -1 -15  -6   15.15    1.09
   1 -15   6   12.89    0.96
  -1  15  -6   14.01    0.80
   1  15   6   12.95    0.74
  -2 -15  -6   34.58    1.44
   2 -15   6   38.19    1.59
   2 -15   6   37.14    1.30
   2  15   6   41.05    1.54
   2 -16  -6    7.15    0.76
   2  16  -6    7.78    1.06
   1 -16  -6   34.20    1.56
   1 -16  -6   33.11    1.27
  -1 -16   6   32.31    1.20
   1  16  -6   35.27    1.57
  -1  16   6   34.13    1.14
   0 -16  -6    8.16    1.00
   0 -16   6    9.85    0.81
   0  16  -6    9.63    0.72
   0  16   6    7.92    0.62
   1 -16   6   51.77    1.81
  -1 -16  -6   51.76    1.89
   1  16   6   48.41    1.57
  -1  16  -6   47.36    1.59
   2 -16   6    0.88    0.61
  -2 -16  -6    0.72    0.57
   2 -17  -6   28.14    1.20
   2  17  -6   28.40    1.55
   1 -17  -6    4.43    0.71
  -1 -17   6    4.02    0.60
   1 -17  -6    4.32    0.78
  -1  17   6    3.62    0.51
   1  17  -6    3.00    0.81
   0 -17   6   39.45    1.50
   0 -17  -6   42.89    1.76
   0  17  -6   40.30    1.40
   0  17   6   38.62    1.34
  -1 -17  -6    5.07    0.82
   1 -17   6    6.33    0.86
  -1  17  -6    4.09    0.65
   1  17   6    3.58    0.58
  -1 -18   6   36.28    1.31
   1 -18  -6   38.84    1.80
  -1  18   6   36.73    1.28
   1  18  -6   40.36    1.77
   0 -18   6    6.57    0.79
   0 -18  -6    7.20    1.06
   0  18   6    5.80    0.62
   0  18  -6    5.99    0.69
  -1 -18  -6   26.95    1.42
   1 -18   6   26.74    1.31
   1  18   6   23.62    1.05
  -1  18  -6   25.01    1.12
  -1  19   6    4.99    0.60
   0 -19  -6   38.09    1.72
   0 -19   6   34.63    1.42
   0  19   6   32.04    1.26
   0  19  -6   34.31    1.33
   4   0  -7   -0.30    0.33
   3   0  -7  112.06    2.69
   2   0  -7   -0.26    0.34
   1   0  -7  108.96    2.66
  -1   0   7  111.21    2.71
   0   0  -7    1.26    0.41
   0   0   7    0.50    0.29
   0   0  -7    0.38    0.27
   0   0   7    0.68    0.25
   0   0   7    1.05    0.30
  -1   0  -7   81.96    2.20
   1   0   7   83.78    2.29
   1   0   7   84.53    2.11
   1   0   7   84.33    2.10
   2   0   7    0.92    0.38
   2   0   7    0.68    0.36
   2   0   7    0.94    0.30
   3   0   7   96.19    2.43
   3   0   7   92.69    2.43
   4   0   7    0.66    0.43
   4  -1  -7   48.14    1.38
   4   1  -7   44.84    1.37
   3  -1  -7    1.21    0.35
   3   1  -7    1.72    0.38
   2  -1  -7   25.95    0.97
   2   1  -7   24.10    0.97
   1  -1  -7    6.50    0.58
  -1  -1   7    6.28    0.39
  -1   1   7    6.67    0.40
   1   1  -7    6.92    0.62
   0  -1  -7  118.22    2.74
   0  -1  -7  109.75    2.74
   0  -1   7  110.80    2.62
   0  -1   7  111.84    2.63
   0  -1   7  109.10    2.87
   0   1  -7  114.44    2.73
   0   1   7  114.35    2.65
   0   1  -7  113.06    2.78
   0   1   7  112.50    2.63
   0   1   7  109.74    2.85
  -1  -1  -7    2.02    0.44
   1  -1   7    2.16    0.38
   1  -1   7    2.36    0.42
   1  -1   7    1.60    0.30
   1   1   7    1.56    0.31
   1   1   7    2.13    0.37
   1   1   7    2.05    0.37
  -1   1  -7    1.68    0.44
   2  -1   7   57.27    1.76
   2  -1   7   57.02    1.62
   2  -1   7   56.00    1.59
  -2  -1  -7   53.49    1.71
   2   1   7   58.09    1.63
   2   1   7   57.63    1.61
   2   1   7   56.97    1.73
   3  -1   7    8.70    0.69
   3  -1   7    8.52    0.66
   3   1   7    9.29    0.69
   3   1   7    8.22    0.68
   4  -1   7   41.61    1.40
   4   1   7   40.03    1.40
   4  -2  -7    7.17    0.62
   4   2  -7    6.55    0.64
   3  -2  -7   40.03    1.20
   3   2  -7   37.05    1.21
   2  -2  -7    6.31    0.59
   2   2  -7    6.25    0.62
  -1  -2   7  150.65    3.59
   1  -2  -7  149.36    3.45
  -1   2   7  145.36    3.59
   1   2  -7  148.93    3.49
   0  -2  -7   20.02    0.90
   0  -2   7   20.62    0.76
   0  -2   7   22.11    0.79
   0  -2   7   21.04    0.82
   0   2   7   21.66    0.81
   0   2   7   20.95    0.78
   0   2   7   20.69    0.78
   0   2  -7   19.81    0.94
   1  -2   7   77.59    2.00
   1  -2   7   79.05    1.98
  -1  -2  -7   77.35    2.10
   1  -2   7   78.70    2.19
   1   2   7   79.45    2.00
  -1   2  -7   80.30    2.15
   1   2   7   80.33    2.03
   1   2   7   77.12    2.15
   2  -2   7    6.96    0.58
   2  -2   7    6.88    0.60
   2  -2   7    5.59    0.64
  -2  -2  -7    5.10    0.61
   2   2   7    6.36    0.61
   2   2   7    6.39    0.62
   2   2   7    5.93    0.59
   3  -2   7   52.17    1.56
   3  -2   7   52.25    1.58
   3   2   7   52.42    1.60
   3   2   7   52.53    1.58
   4  -2   7    8.11    0.74
   4   2   7    7.38    0.74
   4  -3  -7   27.15    1.00
   4   3  -7   26.88    1.05
   3  -3  -7    1.88    0.39
   3   3  -7    1.79    0.44
   2  -3  -7  103.74    2.58
   2   3  -7  110.47    2.66
  -1  -3   7   10.99    0.48
   1  -3  -7   10.66    0.66
   1   3  -7   10.11    0.65
  -1   3   7   10.76    0.48
   1   3  -7   11.33    0.76
   0  -3  -7  175.75    3.99
   0  -3   7  178.34    3.89
   0  -3   7  170.35    3.84
   0  -3   7  172.16    4.29
   0   3   7  168.04    4.24
   0   3   7  171.58    3.87
   0   3   7  177.53    3.92
   0   3  -7  171.78    4.02
   1  -3   7    6.39    0.52
   1  -3   7    6.27    0.54
   1  -3   7    5.49    0.58
   1   3   7    5.42    0.53
  -1   3  -7    5.33    0.70
   1   3   7    5.37    0.56
   1   3   7    5.59    0.55
  -2  -3  -7   48.79    1.60
   2  -3   7   53.74    1.52
   2  -3   7   50.83    1.49
   2  -3   7   50.57    1.63
   2   3   7   51.03    1.60
   2   3   7   52.13    1.53
   2   3   7   53.03    1.54
   3  -3   7   20.55    0.91
   3  -3   7   19.85    0.90
   3   3   7   20.88    0.98
   3   3   7   19.28    0.93
   4  -3   7   41.08    1.41
   4   3   7   43.03    1.47
   4  -4  -7   13.26    0.75
   4   4  -7   13.20    0.83
   3  -4  -7   36.76    1.15
   3   4  -7   34.24    1.21
   2  -4  -7    7.98    0.63
   2   4  -7    7.65    0.67
   1  -4  -7   69.13    1.85
  -1  -4   7   70.20    1.80
   1   4  -7   68.69    1.93
   1   4  -7   68.80    1.92
  -1   4   7   71.08    1.79
   0  -4   7    4.05    0.49
   0  -4  -7    3.44    0.47
   0  -4   7    4.65    0.48
   0   4   7    4.14    0.51
   0   4  -7    5.04    0.66
   0   4   7    4.18    0.51
   0   4   7    3.88    0.44
   1  -4   7   89.00    2.20
   1  -4   7   85.53    2.42
   1  -4   7   88.38    2.17
   1   4   7   90.49    2.23
   1   4   7   86.77    2.23
   1   4   7   87.15    2.36
  -2  -4  -7    8.97    0.73
   2  -4   7    7.99    0.63
   2  -4   7    8.47    0.71
   2  -4   7    9.92    0.65
   2   4   7    9.48    0.70
   2   4   7    8.60    0.65
   2   4   7    7.93    0.66
   3  -4   7   29.15    1.08
   3  -4   7   27.87    1.08
   3   4   7   27.67    1.14
   3   4   7   27.61    1.13
   4  -5  -7   33.14    1.13
   4   5  -7   33.32    1.23
   3  -5  -7    6.12    0.62
   3   5  -7    5.68    0.70
   2  -5  -7  115.52    2.73
   2   5  -7  112.38    2.82
   1  -5  -7   22.19    0.91
  -1  -5   7   22.68    0.76
   1   5  -7   22.88    0.91
  -1   5   7   22.22    0.73
   1   5  -7   21.94    1.00
   0  -5   7  138.05    3.58
   0  -5  -7  141.07    3.35
   0  -5   7  145.10    3.25
   0   5   7  143.21    3.30
   0   5  -7  140.40    3.42
   0   5   7  142.57    3.54
   1  -5   7    8.70    0.61
   1  -5   7    8.49    0.58
   1  -5   7    9.78    0.69
  -1  -5  -7    7.72    0.75
   1   5   7    9.36    0.65
   1   5   7    8.72    0.59
   1   5   7    9.02    0.66
   2  -5   7   60.13    1.66
  -2  -5  -7   56.38    1.81
   2  -5   7   57.92    1.63
   2  -5   7   58.25    1.85
   2   5   7   59.56    1.70
   2   5   7   57.67    1.75
   2   5   7   61.89    1.73
   3  -5   7   18.20    0.88
   3  -5   7   16.75    0.86
   3   5   7   18.99    0.97
   3   5   7   18.51    0.93
   4  -6  -7    9.47    0.69
   4   6  -7    8.57    0.81
   3  -6  -7   42.96    1.28
   3   6  -7   39.24    1.38
   2  -6  -7   26.34    1.00
   2   6  -7   27.05    1.11
  -1  -6   7   97.57    2.47
   1  -6  -7   92.28    2.42
  -1   6   7  102.70    2.46
   1   6  -7   99.17    2.53
   1   6  -7   98.12    2.60
   0  -6   7    0.69    0.25
   0  -6   7    1.13    0.37
   0  -6  -7    1.19    0.39
   0   6  -7    0.87    0.48
   0   6   7    0.95    0.28
   0   6   7    1.07    0.30
   1  -6   7  122.32    2.84
   1  -6   7  118.09    2.79
   1  -6   7  118.66    3.17
  -1  -6  -7  115.75    3.21
   1   6   7  120.08    2.90
   1   6   7  118.50    2.87
   1   6   7  117.35    3.07
  -2  -6  -7   34.78    1.31
   2  -6   7   35.31    1.18
   2  -6   7   34.13    1.32
   2  -6   7   34.65    1.15
   2   6   7   34.91    1.23
   2   6   7   34.60    1.23
   2   6   7   34.11    1.23
   3  -6   7   25.08    1.03
   3  -6   7   26.10    1.05
   3   6   7   27.83    1.13
   3   6   7   27.38    1.13
   4  -7  -7   21.83    0.92
   4   7  -7   21.16    1.08
   3  -7  -7   14.55    0.77
   3   7  -7   13.75    0.93
   2  -7  -7   61.01    1.68
   2   7  -7   59.46    1.81
  -1  -7   7   61.08    1.65
   1  -7  -7   61.28    1.70
   1   7  -7   59.98    1.75
  -1   7   7   61.48    1.62
   1   7  -7   60.86    1.84
   0  -7   7   73.41    2.08
   0  -7  -7   72.54    1.99
   0   7  -7   75.75    2.14
   0   7   7   74.80    2.01
   0   7  -7   76.61    2.11
  -1  -7  -7   36.80    1.42
   1  -7   7   37.44    1.17
   1  -7   7   36.78    1.19
   1  -7   7   36.67    1.33
   1   7   7   38.73    1.28
   1   7   7   37.75    1.23
   1   7   7   39.04    1.25
   2  -7   7   45.72    1.57
  -2  -7  -7   42.78    1.52
   2  -7   7   43.51    1.34
   2  -7   7   42.66    1.36
   2   7   7   45.41    1.44
   2   7   7   43.07    1.42
   2   7   7   46.33    1.47
   3  -7   7   10.92    0.74
   3  -7   7   10.74    0.74
   3   7   7   11.13    0.83
   3   7   7   11.43    0.85
   4  -8  -7   12.15    0.74
   4   8  -7   13.75    0.95
   3  -8  -7   33.80    1.17
   3   8  -7   33.23    1.31
   2  -8  -7   44.08    1.38
   2   8  -7   47.03    1.56
   1  -8  -7   81.50    2.15
  -1  -8   7   82.62    2.18
   1   8  -7   86.19    2.34
   1   8  -7   86.95    2.30
  -1   8   7   80.71    2.13
   0  -8   7   46.25    1.46
   0  -8  -7   46.69    1.62
   0  -8  -7   45.67    1.42
   0   8  -7   44.21    1.57
   0   8  -7   46.58    1.46
   0   8   7   44.64    1.36
   1  -8   7   52.07    1.49
   1  -8   7   54.72    1.52
  -1  -8  -7   53.84    1.79
   1  -8   7   53.47    1.73
   1   8   7   53.26    1.59
   1   8   7   54.06    1.59
   1   8   7   53.81    1.61
   2  -8   7    4.29    0.56
   2  -8   7    2.85    0.55
   2  -8   7    4.16    0.56
  -2  -8  -7    2.89    0.52
   2   8   7    1.79    0.40
   2   8   7    4.70    0.66
   2   8   7    3.31    0.55
   3  -8   7   21.48    0.95
   3   8   7   21.02    1.05
   4  -9  -7   14.03    0.81
   4   9  -7   14.85    1.03
   3  -9  -7   31.28    1.15
   3   9  -7   31.05    1.31
   2  -9  -7   25.83    1.04
   2   9  -7   28.27    1.24
   1  -9  -7   69.20    1.84
  -1  -9   7   63.68    1.79
  -1   9   7   64.23    1.74
   1   9  -7   68.14    2.01
   0  -9  -7   16.12    0.86
   0  -9  -7   17.45    1.01
   0  -9   7   17.34    0.84
   0   9  -7   16.29    0.82
   0   9  -7   16.30    1.03
   0   9   7   16.48    0.73
   1  -9   7   52.65    1.51
   1  -9   7   50.88    1.45
  -1  -9  -7   48.08    1.73
   1  -9   7   50.72    1.67
   1   9   7   50.07    1.55
   1   9   7   52.26    1.59
   1   9   7   50.18    1.55
   2  -9   7   57.47    1.62
  -2  -9  -7   52.55    1.78
   2  -9   7   55.18    1.86
   2  -9   7   54.65    1.58
   2   9   7   56.56    1.71
   2   9   7   53.45    1.67
   2   9   7   54.09    1.69
   3  -9   7    4.01    0.63
   3   9   7    5.09    0.77
   3 -10  -7   30.14    1.11
   3  10  -7   30.10    1.33
   2 -10  -7   48.71    1.51
   2  10  -7   51.81    1.73
   1 -10  -7    7.53    0.84
  -1 -10   7    8.38    0.54
   1 -10  -7    8.27    0.68
  -1  10   7    7.61    0.49
   1  10  -7    9.49    0.93
   0 -10  -7   54.07    1.87
   0 -10   7   54.83    1.70
   0 -10  -7   53.98    1.62
   0  10  -7   55.54    1.67
   0  10   7   52.58    1.58
   0  10  -7   57.20    1.81
   1 -10   7   33.51    1.32
  -1 -10  -7   35.86    1.43
   1  10   7   33.59    1.17
   1  10   7   34.59    1.34
   2 -10   7   13.03    0.78
   2 -10   7   13.10    0.76
  -2 -10  -7   12.58    0.91
   2 -10   7   14.26    0.96
   2  10   7   14.07    0.93
   2  10   7   14.14    0.92
   2  10   7   13.17    0.76
   3 -10   7   21.48    0.99
   3  10   7   21.37    1.12
   3 -11  -7   35.57    1.25
   3  11  -7   35.90    1.49
   2 -11  -7   12.76    0.78
   2  11  -7   12.45    1.01
  -1 -11   7   60.23    1.71
   1 -11  -7   61.30    1.78
   1 -11  -7   62.46    2.04
   1  11  -7   62.88    1.99
  -1  11   7   59.20    1.66
   0 -11   7   24.92    1.06
   0 -11  -7   24.21    1.23
   0 -11  -7   26.66    1.06
   0  11   7   24.95    0.95
   0  11  -7   25.81    1.05
   0  11  -7   25.96    1.25
   1 -11   7   28.68    1.23
  -1 -11  -7   28.07    1.32
   1  11   7   28.38    1.05
   2 -11   7   46.18    1.44
  -2 -11  -7   44.51    1.62
   2 -11   7   42.94    1.65
   2  11   7   48.27    1.59
   2  11   7   44.82    1.48
   2  11   7   46.43    1.59
   3 -11   7    4.60    0.65
   3  11   7    5.28    0.82
   3 -12  -7    9.17    0.73
   3  12  -7   11.61    1.03
   2 -12  -7   38.68    1.35
   2  12  -7   42.48    1.61
   1 -12  -7    6.71    0.88
  -1 -12   7    6.03    0.54
   1 -12  -7    6.13    0.70
   1  12  -7    7.84    0.96
  -1  12   7    5.77    0.48
   0 -12  -7   52.81    1.85
   0 -12   7   50.19    1.64
   0  12  -7   55.55    1.84
   0  12  -7   51.01    1.62
   0  12   7   47.71    1.52
   1 -12   7    7.19    0.78
  -1 -12  -7    8.60    0.91
   1  12   7    8.87    0.63
  -2 -12  -7   27.52    1.29
   2 -12   7   28.03    1.09
   2 -12   7   28.75    1.34
   2  12   7   29.98    1.28
   2  12   7   28.82    1.13
   3 -13  -7   29.09    1.17
   3  13  -7   26.76    1.42
   2 -13  -7    6.98    0.73
   2  13  -7    8.37    1.02
  -1 -13   7   11.01    0.65
   1 -13  -7   11.33    0.80
   1  13  -7   11.62    1.09
  -1  13   7   12.30    0.63
   0 -13  -7    1.85    0.65
   0 -13   7    1.13    0.43
   0  13  -7    1.03    0.42
   0  13   7    0.75    0.36
  -1 -13  -7   55.65    1.94
   1 -13   7   54.18    1.85
   1  13   7   52.77    1.66
   2 -13   7   12.96    1.05
  -2 -13  -7   13.56    1.00
   2  13   7   14.58    1.01
   2 -14  -7   21.62    1.02
   2  14  -7   21.01    1.32
   1 -14  -7    5.28    0.68
  -1 -14   7    5.10    0.55
   1  14  -7    6.16    0.98
  -1  14   7    6.08    0.53
   0 -14   7   53.55    1.79
   0 -14  -7   58.75    2.04
   0  14   7   53.35    1.64
   0  14  -7   55.53    1.75
  -1 -14  -7    8.53    0.96
   1 -14   7    8.15    0.84
   1  14   7    9.28    0.69
  -2 -14  -7    9.19    0.92
   2 -14   7    8.08    0.96
   2 -15  -7   11.56    0.87
   2  15  -7   12.52    1.16
   1 -15  -7    7.84    0.77
  -1 -15   7    7.98    0.63
  -1  15   7    7.13    0.56
   1  15  -7    9.62    1.10
   0 -15   7    2.95    0.55
   0 -15  -7    2.53    0.67
   0  15   7    2.55    0.45
   0  15  -7    3.49    0.64
  -1 -15  -7   57.60    2.04
   1 -15   7   55.83    1.92
  -1  15  -7   54.91    1.78
   1  15   7   53.27    1.70
  -2 -15  -7    1.62    0.60
   2 -15   7    1.73    0.66
   2 -16  -7   26.06    1.19
   2  16  -7   28.31    1.54
   1 -16  -7   -0.09    0.42
  -1 -16   7    0.99    0.39
  -1  16   7    0.55    0.34
   1  16  -7    0.48    0.69
   0 -16   7   17.29    0.98
   0 -16  -7   17.19    1.21
   0  16   7   16.30    0.83
   0  16  -7   18.67    0.95
   1 -16   7    4.73    0.81
  -1 -16  -7    6.29    1.00
  -1  16  -7    4.84    0.74
   1  16   7    4.64    0.61
  -1 -17   7   27.19    1.07
  -1  17   7   26.64    1.03
   1  17  -7   29.86    1.58
   0 -17  -7    8.50    1.04
   0 -17   7    8.46    0.78
   0  17  -7    6.86    0.72
   0  17   7    6.08    0.63
  -1  17  -7   38.11    1.44
   4   0  -8   24.98    1.04
   3   0  -8    0.48    0.38
   2   0  -8   32.95    1.21
   1   0  -8    1.14    0.40
  -1   0   8    1.05    0.26
   0   0   8   14.33    0.70
   0   0  -8   14.53    0.85
   1   0   8    0.41    0.28
   1   0   8    0.61    0.37
   1   0   8    0.62    0.33
   2   0   8   26.91    1.13
   2   0   8   27.86    1.07
   2   0   8   27.88    1.08
   3   0   8    0.82    0.36
   3   0   8    0.41    0.38
   4  -1  -8    0.32    0.42
   4   1  -8    0.69    0.47
   3  -1  -8   89.14    2.29
   3   1  -8   87.18    2.30
   2  -1  -8   24.04    1.03
   2   1  -8   25.07    1.07
   1  -1  -8  127.68    3.10
  -1  -1   8  127.71    3.13
  -1   1   8  126.61    3.12
   1   1  -8  125.78    3.10
   0  -1  -8   14.55    0.86
   0  -1   8   15.67    0.73
   0   1  -8   15.93    0.91
   0   1   8   15.89    0.72
   1  -1   8   38.43    1.23
   1  -1   8   36.89    1.20
   1  -1   8   36.60    1.28
   1   1   8   37.96    1.22
   1   1   8   37.92    1.23
   1   1   8   36.08    1.26
   2  -1   8    1.26    0.36
   2  -1   8    1.00    0.45
   2  -1   8    1.68    0.44
  -2  -1  -8    2.24    0.48
   2   1   8    2.18    0.45
   2   1   8    1.84    0.47
   2   1   8    1.29    0.37
   3  -1   8   53.67    1.68
   3  -1   8   54.01    1.67
   3   1   8   52.96    1.67
   3   1   8   56.53    1.77
   4  -2  -8   31.69    1.17
   4   2  -8   31.58    1.19
   3  -2  -8    5.06    0.62
   3   2  -8    4.44    0.70
   2  -2  -8   44.27    1.41
   2   2  -8   43.10    1.44
  -1  -2   8   17.69    0.65
   1  -2  -8   17.60    0.88
  -1   2   8   16.60    0.65
   1   2  -8   17.19    0.93
   0  -2  -8   54.72    1.68
   0  -2   8   56.89    1.64
   0   2  -8   58.94    1.74
   0   2   8   55.57    1.61
   1  -2   8    1.26    0.31
   1  -2   8    1.65    0.38
   1  -2   8    1.15    0.41
   1   2   8    1.58    0.39
   1   2   8    1.45    0.38
   1   2   8    1.06    0.30
   2  -2   8   61.33    1.71
   2  -2   8   59.90    1.74
   2  -2   8   60.33    1.88
  -2  -2  -8   58.53    1.85
   2   2   8   58.94    1.73
   2   2   8   60.37    1.76
   2   2   8   58.27    1.83
   3  -2   8    1.05    0.42
   3  -2   8    0.92    0.39
   3   2   8    0.89    0.42
   4  -3  -8   13.51    0.81
   4   3  -8   12.59    0.87
   3  -3  -8   20.11    0.92
   3   3  -8   22.38    0.99
   2  -3  -8   36.61    1.25
   2   3  -8   38.62    1.36
  -1  -3   8   44.73    1.29
   1  -3  -8   48.61    1.49
  -1   3   8   46.58    1.30
   1   3  -8   47.05    1.52
   0  -3  -8    8.85    0.76
   0  -3   8    8.88    0.61
   0   3  -8    9.76    0.82
   0   3   8    9.58    0.58
   1  -3   8   52.63    1.66
   1  -3   8   54.76    1.53
   1  -3   8   52.92    1.55
   1   3   8   54.40    1.57
   1   3   8   52.75    1.63
   1   3   8   52.47    1.55
   2  -3   8   11.57    0.75
  -2  -3  -8   10.60    0.78
   2  -3   8   12.13    0.76
   2  -3   8   11.72    0.83
   2   3   8   11.41    0.78
   2   3   8   11.67    0.78
   2   3   8   10.91    0.76
   3  -3   8   30.35    1.19
   3   3   8   30.61    1.22
   4  -4  -8   30.65    1.13
   4   4  -8   33.06    1.27
   3  -4  -8   25.60    1.02
   3   4  -8   23.82    1.08
   2  -4  -8   85.99    2.24
   2   4  -8   85.48    2.32
  -1  -4   8    6.33    0.44
   1  -4  -8    6.62    0.66
  -1   4   8    5.97    0.44
   1   4  -8    6.21    0.75
   0  -4  -8   88.51    2.32
   0  -4   8   84.31    2.34
   0   4   8   84.77    2.30
   0   4  -8   89.06    2.39
   1  -4   8    2.60    0.39
   1  -4   8    2.87    0.44
   1  -4   8    2.70    0.49
   1   4   8    2.29    0.37
   1   4   8    3.47    0.52
   1   4   8    2.89    0.46
   2  -4   8   68.17    2.09
   2  -4   8   69.49    1.91
   2  -4   8   68.53    1.87
  -2  -4  -8   64.29    2.03
   2   4   8   68.66    1.92
   2   4   8   67.42    1.92
   2   4   8   66.23    2.00
   3  -4   8    1.37    0.44
   3   4   8    0.29    0.46
   4  -5  -8    3.90    0.54
   4   5  -8    3.11    0.60
   3  -5  -8   15.59    0.86
   3   5  -8   13.53    0.92
   2  -5  -8   68.08    1.88
   2   5  -8   65.76    1.95
  -1  -5   8   60.11    1.64
   1  -5  -8   60.53    1.76
   1   5  -8   62.59    1.86
  -1   5   8   61.31    1.63
   0  -5  -8    2.70    0.49
   0  -5   8    2.49    0.43
   0   5  -8    3.03    0.59
   0   5   8    2.52    0.46
  -1  -5  -8   43.66    1.58
   1  -5   8   44.64    1.48
   1   5   8   44.90    1.53
   1   5   8   43.28    1.41
   2  -5   8    4.43    0.60
  -2  -5  -8    5.41    0.69
   2  -5   8    4.66    0.59
   2  -5   8    4.99    0.71
   2   5   8    4.35    0.67
   2   5   8    4.45    0.63
   2   5   8    4.09    0.58
   3  -5   8   42.04    1.39
   3   5   8   39.64    1.46
   3  -6  -8   18.77    0.91
   3   6  -8   17.90    1.02
   2  -6  -8   34.58    1.22
   2   6  -8   31.74    1.32
   1  -6  -8   35.13    1.23
  -1  -6   8   33.67    1.05
   1   6  -8   32.80    1.33
  -1   6   8   34.15    1.02
   0  -6   8   72.62    2.04
   0  -6  -8   70.18    1.99
   0   6   8   69.69    1.97
   0   6  -8   74.40    2.11
   1  -6   8    6.15    0.68
  -1  -6  -8    5.29    0.78
   1   6   8    6.58    0.56
   2  -6   8   42.13    1.38
   2  -6   8   42.24    1.56
   2  -6   8   43.26    1.37
  -2  -6  -8   39.42    1.49
   2   6   8   42.50    1.44
   2   6   8   44.96    1.47
   2   6   8   42.24    1.46
   3  -6   8    6.09    0.70
   3   6   8    5.22    0.78
   3  -7  -8   26.68    1.10
   3   7  -8   27.25    1.23
   2  -7  -8   53.99    1.64
   2   7  -8   54.77    1.77
   1  -7  -8   64.61    1.86
  -1  -7   8   62.45    1.73
   1   7  -8   66.47    1.99
  -1   7   8   64.08    1.72
   0  -7   8   14.46    0.77
   0  -7  -8   13.32    0.82
   0   7   8   12.82    0.67
   0   7  -8   13.65    0.98
  -1  -7  -8   75.04    2.38
   1  -7   8   82.85    2.34
   1   7   8   80.35    2.22
   2  -7   8   42.96    1.40
   2  -7   8   42.74    1.56
  -2  -7  -8   41.67    1.53
   2  -7   8   42.33    1.36
   2   7   8   43.28    1.48
   2   7   8   40.51    1.42
   2   7   8   42.62    1.45
   3  -7   8   30.49    1.20
   3   7   8   31.00    1.28
   3  -8  -8   18.72    0.95
   3   8  -8   18.82    1.10
   2  -8  -8   20.96    1.01
   2   8  -8   20.63    1.15
   1  -8  -8   44.05    1.42
  -1  -8   8   40.10    1.23
   1   8  -8   42.01    1.57
  -1   8   8   40.52    1.21
   0  -8  -8   32.33    1.37
   0  -8  -8   32.55    1.22
   0  -8   8   32.20    1.17
   0   8   8   31.05    1.09
   0   8  -8   32.89    1.40
   1  -8   8   39.87    1.44
  -1  -8  -8   40.58    1.56
   1   8   8   41.35    1.33
  -2  -8  -8   16.71    0.98
   2  -8   8   17.59    0.88
   2  -8   8   18.19    1.03
   2   8   8   18.50    1.00
   2   8   8   17.29    0.87
   3  -8   8    5.35    0.70
   3   8   8    6.28    0.79
   3  -9  -8   41.09    1.39
   3   9  -8   39.46    1.57
   2  -9  -8   12.12    0.84
   2   9  -8   12.78    1.00
   1  -9  -8   49.41    1.56
  -1  -9   8   47.26    1.40
   1   9  -8   48.21    1.72
  -1   9   8   47.79    1.39
   0  -9   8   51.64    1.62
   0  -9  -8   53.24    1.85
   0  -9  -8   50.47    1.62
   0   9   8   49.65    1.53
   0   9  -8   51.41    1.66
   0   9  -8   52.72    1.80
   1  -9   8   24.66    1.13
  -1  -9  -8   23.87    1.21
   1   9   8   24.89    0.99
  -2  -9  -8   35.13    1.43
   2  -9   8   38.28    1.51
   2  -9   8   40.14    1.33
   2   9   8   41.71    1.47
   2   9   8   38.61    1.37
   3 -10  -8   22.25    1.05
   3  10  -8   21.32    1.23
   2 -10  -8   27.02    1.14
   2  10  -8   28.34    1.35
  -1 -10   8   42.00    1.30
   1 -10  -8   44.57    1.48
  -1  10   8   42.83    1.28
   1  10  -8   45.06    1.68
   0 -10  -8   18.61    1.13
   0 -10   8   18.42    0.92
   0  10  -8   19.52    0.96
   0  10   8   18.98    0.83
   0  10  -8   21.93    1.20
  -1 -10  -8   50.68    1.88
   1 -10   8   53.88    1.77
   1  10   8   53.03    1.63
  -2 -10  -8    7.45    0.84
   2 -10   8    7.70    0.82
   2  10   8    7.15    0.68
   3 -11  -8   28.07    1.17
   3  11  -8   28.00    1.38
   2 -11  -8   23.35    1.08
   2  11  -8   24.86    1.31
  -1 -11   8   12.61    0.67
   1 -11  -8   15.39    0.92
  -1  11   8   14.99    0.68
   1  11  -8   15.21    1.13
   0 -11  -8   42.92    1.68
   0 -11   8   42.34    1.45
   0  11  -8   42.83    1.47
   0  11   8   39.82    1.34
  -1 -11  -8    2.64    0.66
   1 -11   8    3.02    0.58
   1  11   8    3.80    0.54
   2 -11   8   23.22    1.20
  -2 -11  -8   20.71    1.16
   2  11   8   21.52    1.01
   2 -12  -8   23.91    1.11
   2  12  -8   25.88    1.36
  -1 -12   8   21.83    0.87
   1 -12  -8   24.13    1.13
  -1  12   8   21.90    0.86
   1  12  -8   23.57    1.31
   0 -12  -8    9.21    0.98
   0 -12   8   10.58    0.78
   0  12   8    9.56    0.65
   0  12  -8   11.79    0.80
   1 -12   8   34.38    1.38
  -1 -12  -8   33.18    1.47
   1  12   8   32.50    1.21
  -2 -12  -8    9.59    0.94
   2 -12   8    9.42    0.92
   2  12   8    7.80    0.71
   2 -13  -8   16.51    0.99
   2  13  -8   18.52    1.26
   1 -13  -8    6.12    0.77
  -1 -13   8    6.20    0.56
   1  13  -8    5.94    0.87
  -1  13   8    6.01    0.54
   0 -13   8   50.88    1.68
   0 -13  -8   53.32    1.95
   0  13  -8   50.79    1.67
   0  13   8   47.96    1.56
  -1 -13  -8    3.20    0.70
   1 -13   8    4.22    0.71
   1  13   8    2.49    0.48
   2 -14  -8   11.31    0.93
   2  14  -8   10.96    1.14
   1 -14  -8   16.90    0.98
  -1 -14   8   14.07    0.74
   1  14  -8   17.30    1.27
  -1  14   8   15.23    0.74
   0 -14  -8    6.66    1.00
   0 -14   8    5.27    0.69
   0  14   8    4.52    0.57
   0  14  -8    5.99    0.72
  -1 -14  -8   21.42    1.27
   1 -14   8   21.60    1.14
   1  14   8   20.42    0.98
  -1 -15   8    4.63    0.57
   1 -15  -8    4.89    0.74
   1  15  -8    5.78    0.92
  -1  15   8    5.08    0.59
   0 -15  -8   30.98    1.51
   0 -15   8   27.56    1.22
   0  15  -8   30.42    1.24
   0  15   8   27.54    1.10
  -1 -15  -8    6.70    0.99
   1 -15   8    5.43    0.79
   1  15   8    5.33    0.63
   0  16  -8    5.11    0.75
   3   0  -9   76.55    2.16
   2   0  -9    0.00    0.44
   1   0  -9   65.42    1.93
  -1   0   9   61.49    1.69
   0   0  -9    1.00    0.48
   0   0   9    1.11    0.37
   1   0   9   29.41    1.13
   2   0   9    0.79    0.42
   2   0   9    0.43    0.44
   3  -1  -9    1.25    0.47
   3   1  -9    0.24    0.47
   2  -1  -9   64.32    1.91
   2   1  -9   63.27    1.90
  -1  -1   9    8.39    0.50
   1  -1  -9    9.17    0.79
   1   1  -9   10.26    0.85
  -1   1   9    8.25    0.51
   0  -1   9   64.60    1.87
   0  -1  -9   66.55    1.96
   0   1   9   62.01    1.84
   0   1  -9   69.06    2.02
   1  -1   9    1.93    0.47
   1   1   9    1.34    0.43
   2  -1   9   31.18    1.16
  -2  -1  -9   26.29    1.21
   2  -1   9   28.43    1.19
   2   1   9   27.43    1.12
   2   1   9   27.26    1.19
   3  -2  -9   61.16    1.86
   3   2  -9   63.74    1.90
   2  -2  -9   14.69    0.91
   2   2  -9   13.71    0.94
  -1  -2   9   40.84    1.22
   1  -2  -9   43.04    1.47
   1   2  -9   44.32    1.53
  -1   2   9   41.72    1.24
   0  -2   9   13.42    0.74
   0  -2  -9   14.52    0.92
   0   2  -9   16.54    0.98
   0   2   9   14.71    0.72
   1  -2   9   36.69    1.33
   1   2   9   36.04    1.30
  -2  -2  -9    2.30    0.54
   2  -2   9    3.51    0.59
   2  -2   9    2.56    0.50
   2   2   9    1.96    0.50
   2   2   9    3.12    0.53
   3  -3  -9    8.49    0.75
   3   3  -9    8.43    0.80
   2  -3  -9   36.41    1.33
   2   3  -9   36.58    1.38
   1  -3  -9   10.09    0.83
  -1  -3   9    8.80    0.51
   1   3  -9   10.27    0.86
  -1   3   9    8.64    0.52
   0  -3  -9   28.03    1.20
   0  -3   9   26.91    1.02
   0   3  -9   27.65    1.22
   0   3   9   27.14    1.00
   1  -3   9   14.18    0.84
   1   3   9   12.96    0.77
  -2  -3  -9   33.75    1.36
   2  -3   9   34.42    1.36
   2   3   9   34.73    1.31
   2   3   9   35.22    1.30
   3  -4  -9   20.75    1.03
   3   4  -9   22.41    1.13
   2  -4  -9   22.45    1.05
   2   4  -9   21.20    1.12
   1  -4  -9   49.94    1.63
  -1  -4   9   46.70    1.38
   1   4  -9   51.47    1.70
  -1   4   9   49.26    1.38
   0  -4  -9   26.88    1.19
   0  -4   9   28.60    1.06
   0   4  -9   29.16    1.26
   0   4   9   27.02    1.00
   1  -4   9   63.32    1.95
   1   4   9   64.03    1.90
  -2  -4  -9    2.80    0.57
   2  -4   9    3.67    0.61
   2   4   9    3.08    0.55
   3  -5  -9   11.95    0.83
   3   5  -9   13.49    0.96
   2  -5  -9    9.78    0.79
   2   5  -9    9.05    0.87
  -1  -5   9   12.98    0.60
   1  -5  -9   12.60    0.88
   1   5  -9   12.86    0.98
  -1   5   9   12.37    0.60
   0  -5   9   34.66    1.23
   0  -5  -9   35.64    1.34
   0   5   9   33.03    1.17
   0   5  -9   37.51    1.46
   1  -5   9   22.91    1.04
  -1  -5  -9   21.08    1.15
   1   5   9   21.74    0.95
   2  -5   9   39.48    1.49
  -2  -5  -9   37.61    1.47
   2   5   9   39.54    1.42
   3  -6  -9   14.30    0.90
   3   6  -9   15.34    1.05
   2  -6  -9   19.40    0.99
   2   6  -9   20.40    1.13
  -1  -6   9   17.39    0.71
   1  -6  -9   18.69    0.98
  -1   6   9   17.52    0.71
   1   6  -9   20.67    1.11
   0  -6   9   24.55    1.02
   0   6   9   26.04    0.98
   0   6  -9   25.85    1.25
  -1  -6  -9   51.87    1.87
   1  -6   9   54.58    1.75
   2  -6   9    7.76    0.83
  -2  -6  -9    8.66    0.84
   2   6   9    7.73    0.73
   3  -7  -9   13.90    0.94
   3   7  -9   16.66    1.08
   2  -7  -9   14.18    0.91
   2   7  -9   16.85    1.08
  -1  -7   9    7.79    0.52
   1  -7  -9    9.83    0.82
  -1   7   9    7.77    0.51
   1   7  -9    8.55    0.95
   0  -7   9   26.40    1.04
   0   7   9   25.28    0.96
   1  -7   9   24.51    1.12
  -1  -7  -9   24.90    1.23
   1   7   9   24.12    1.01
   2  -7   9   52.22    1.82
  -2  -7  -9   50.57    1.81
   2   7   9   52.31    1.70
   3  -8  -9   12.30    0.89
   3   8  -9   13.29    1.05
   2  -8  -9    0.86    0.49
   2   8  -9    0.45    0.59
   1  -8  -9   14.05    0.92
  -1  -8   9   12.59    0.64
  -1   8   9   12.90    0.62
   1   8  -9   15.47    1.11
   0  -8   9   16.77    0.85
   0  -8  -9   18.49    1.12
   0   8   9   15.86    0.79
   1  -8   9   36.19    1.38
  -1  -8  -9   36.07    1.50
   1   8   9   33.39    1.25
  -2  -8  -9   24.42    1.21
   2  -8   9   26.95    1.26
   2   8   9   26.61    1.12
   2  -9  -9   21.78    1.08
   2   9  -9   22.68    1.28
  -1  -9   9    9.76    0.59
   1  -9  -9    9.72    0.88
  -1   9   9    9.09    0.58
   1   9  -9    9.96    1.03
   0  -9  -9   41.99    1.65
   0  -9   9   38.58    1.36
   0   9   9   36.46    1.27
   1  -9   9   25.75    1.17
  -1  -9  -9   25.22    1.26
   1   9   9   24.56    1.04
  -2  -9  -9   20.80    1.17
   2  -9   9   24.25    1.20
   2   9   9   23.42    1.07
   2 -10  -9   10.01    0.88
   2  10  -9   10.40    1.09
   1 -10  -9   26.20    1.20
  -1 -10   9   24.68    0.92
  -1  10   9   25.88    0.91
   1  10  -9   27.76    1.41
   0 -10   9   23.63    1.04
   0 -10  -9   24.91    1.30
   0  10   9   22.69    0.97
  -1 -10  -9   15.70    1.13
   1 -10   9   15.43    0.97
   1  10   9   14.78    0.83
   2 -11  -9   25.43    1.22
   2  11  -9   24.26    1.37
   1 -11  -9   16.31    1.01
  -1 -11   9   13.95    0.70
  -1  11   9   14.61    0.70
   1  11  -9   18.31    1.25
   0 -11  -9   31.46    1.47
   0 -11   9   29.53    1.19
   0  11   9   29.47    1.12
  -1 -11  -9   21.73    1.29
   1 -11   9   22.86    1.13
   1  11   9   20.12    0.97
   1 -12  -9   22.01    1.16
  -1 -12   9   20.62    0.86
  -1  12   9   22.05    0.87
   1  12  -9   23.40    1.38
   0 -12  -9   17.46    1.17
   0 -12   9   17.82    0.94
   0  12  -9   17.25    0.99
   0  12   9   16.91    0.84
  -1 -12  -9   11.63    1.11
   1 -12   9   11.27    0.90
   1  12   9   11.12    0.78
  -1 -13   9   30.08    1.06
   1 -13  -9   32.38    1.42
  -1  13   9   29.20    1.07
   1  13  -9   35.18    1.64
   0 -13  -9   11.26    1.10
   0 -13   9    8.90    0.78
   0  13  -9   11.19    0.89
   0  13   9   10.10    0.71
   3   0 -10   -0.24    0.44
   2   0 -10   58.73    1.89
  -1   0  10    0.17    0.31
   1   0 -10    0.90    0.54
   0   0  10   77.43    2.16
   1   0  10    1.07    0.44
   2   0  10   42.86    1.56
  -2   0 -10   40.39    1.57
   3  -1 -10   21.28    1.13
   3   1 -10   22.30    1.17
   2  -1 -10    1.18    0.53
   2   1 -10    1.17    0.57
  -1  -1  10   83.58    2.27
   1  -1 -10   93.97    2.55
  -1   1  10   84.51    2.28
   1   1 -10   93.50    2.56
   0  -1  10    1.57    0.39
   0   1  10    1.85    0.41
   1  -1  10   85.10    2.43
   1   1  10   83.40    2.41
  -2  -1 -10    1.70    0.56
   2  -1  10    1.98    0.55
   2   1  10    1.66    0.51
   2  -2 -10   55.85    1.82
   2   2 -10   53.47    1.83
  -1  -2  10    6.09    0.48
   1  -2 -10    8.07    0.85
   1   2 -10    7.16    0.85
  -1   2  10    5.23    0.49
   0  -2  10   59.71    1.78
   0   2  10   59.96    1.77
   1  -2  10   13.80    0.85
   1   2  10   13.20    0.81
  -2  -2 -10   25.70    1.24
   2  -2  10   28.19    1.25
   2   2  10   26.40    1.20
   2  -3 -10    7.63    0.86
   2   3 -10    5.65    0.88
   1  -3 -10   52.87    1.76
  -1  -3  10   50.60    1.46
   1   3 -10   51.56    1.81
  -1   3  10   51.58    1.47
   0  -3  10   13.13    0.76
   0   3  10   11.65    0.70
   1  -3  10   43.40    1.51
   1   3  10   41.94    1.47
  -2  -3 -10    7.85    0.85
   2  -3  10    8.35    0.81
   2   3  10    8.36    0.81
   2  -4 -10   32.35    1.34
   2   4 -10   32.90    1.45
  -1  -4  10    5.62    0.47
   1  -4 -10    5.62    0.85
   1   4 -10    6.61    0.90
  -1   4  10    5.53    0.52
   0  -4  10   34.84    1.23
   0   4  10   34.32    1.20
   1  -4  10    8.75    0.76
   1   4  10    7.50    0.69
   2  -5 -10    6.99    0.82
   2   5 -10    7.84    0.96
   1  -5 -10   21.53    1.14
  -1  -5  10   21.59    0.81
  -1   5  10   22.11    0.82
   1   5 -10   24.06    1.26
   0  -5  10   17.32    0.86
   0   5  10   18.24    0.84
   1  -5  10   11.07    0.81
  -1  -5 -10   12.11    1.01
   1   5  10   12.13    0.79
   2  -6 -10   29.53    1.30
   2   6 -10   31.83    1.42
   1  -6 -10    8.30    0.87
  -1  -6  10    5.54    0.49
  -1   6  10    6.48    0.51
   1   6 -10    7.84    0.96
   0  -6  10   16.11    0.83
   0   6  10   15.25    0.79
   1  -6  10    6.80    0.72
  -1  -6 -10    4.91    0.90
   1   6  10    5.88    0.64
   2  -7 -10    3.37    0.61
   2   7 -10    3.94    0.76
  -1  -7  10   12.25    0.62
   1  -7 -10   14.40    1.00
  -1   7  10   13.44    0.65
   1   7 -10   12.91    1.11
   0  -7  10    3.14    0.56
   0   7  10    3.12    0.53
   1  -7  10    7.06    0.76
  -1  -7 -10    7.93    0.95
   1   7  10    7.19    0.68
   2  -8 -10   14.88    1.03
   2   8 -10   16.79    1.23
  -1  -8  10   10.85    0.61
   1  -8 -10   10.58    0.91
  -1   8  10   11.62    0.62
   1   8 -10   12.52    1.15
   0  -8 -10   17.22    1.18
   0  -8  10   16.95    0.88
   0   8  10   16.28    0.85
   1  -8  10   10.82    0.86
  -1  -8 -10   10.89    1.02
   1   8  10    9.15    0.74
   1  -9 -10   19.18    1.14
  -1  -9  10   18.41    0.78
   1   9 -10   22.13    1.35
  -1   9  10   19.57    0.79
   0  -9  10    5.20    0.64
   0  -9 -10    5.01    0.92
   0   9  10    4.34    0.58
  -1 -10  10   13.01    0.67
   1 -10 -10   14.53    1.04
  -1  10  10   14.25    0.69
   1  10 -10   14.65    1.28
   0 -10 -10   19.82    1.26
   0 -10  10   18.57    0.93
   0  10  10   18.32    0.88
  -1   0  11   29.07    1.01
   1   0 -11   33.32    1.48
   0   0  11    1.28    0.42
  -1  -1  11   -0.02    0.29
   1  -1 -11    0.73    0.61
   1   1 -11    0.85    0.60
  -1   1  11   -0.23    0.31
   0  -1  11   44.80    1.44
   0   1  11   44.50    1.44
  -1  -2  11   26.05    0.93
   1  -2 -11   28.40    1.38
   1   2 -11   31.44    1.49
  -1   2  11   28.39    0.97
   0  -2  11   13.97    0.77
   0   2  11   13.34    0.76
  -1  -3  11    1.38    0.34
   1  -3 -11    2.52    0.69
   1   3 -11    2.05    0.69
  -1   3  11    1.02    0.35
   0  -3  11   29.37    1.13
   0   3  11   28.52    1.10
   1  -4 -11   45.71    1.73
  -1  -4  11   40.90    1.26
   1   4 -11   46.24    1.77
  -1   4  11   41.32    1.27
   0  -4  11   14.22    0.80
   0   4  11   14.28    0.78
   0   0   0    0.00    0.00
;
_shelx_hkl_checksum              87024
_olex2_submission_special_instructions 'No special instructions were received'
loop_
_space_group_symop_operation_xyz
'x, y, z'
'x+1/2, -y, z+1/2'
loop_
_atom_site_label
_atom_site_type_symbol
_atom_site_fract_x
_atom_site_fract_y
_atom_site_fract_z
_atom_site_U_iso_or_equiv
_atom_site_adp_type
_atom_site_occupancy
_atom_site_site_symmetry_order
_atom_site_calc_flag
_atom_site_refinement_flags_posn
_atom_site_refinement_flags_adp
_atom_site_refinement_flags_occupancy
_atom_site_disorder_assembly
_atom_site_disorder_group
Pd1 Pd 0.46355(13) 0.23708(3) 0.85095(10) 0.0155(2) Uani 1 1 d . U . . .
Cl1 Cl 0.3625(6) 0.16794(12) 1.0524(2) 0.0223(5) Uani 1 1 d . . . . .
O1 O 0.5747(17) 0.3152(4) 0.4481(7) 0.0193(11) Uani 1 1 d . U . . .
C1 C 0.008(2) 0.1369(5) 0.6585(10) 0.0190(7) Uani 1 1 d . U . . .
C19 C 0.889(3) 0.3513(5) 0.8943(10) 0.0197(7) Uani 1 1 d . U . . .
N2 N 0.605(2) 0.2978(4) 0.6960(9) 0.01805(6) Uani 1 1 d . U . . .
N3 N 0.745(2) 0.3025(4) 0.9773(9) 0.0199(8) Uani 1 1 d . U . . .
C12 C 0.958(3) 0.3970(5) 0.6535(11) 0.0201(8) Uani 1 1 d . U . . .
H12 H 0.910267 0.397177 0.550809 0.024 Uiso 1 1 calc R U . . .
C8 C 0.177(2) 0.1989(5) 0.4067(10) 0.0190(8) Uani 1 1 d . U . . .
H8 H 0.241254 0.222053 0.322698 0.023 Uiso 1 1 calc R U . . .
C15 C 1.092(3) 0.4009(5) 0.9598(11) 0.0203(7) Uani 1 1 d . U . . .
C14 C 1.238(3) 0.4487(5) 0.8691(11) 0.0205(8) Uani 1 1 d . U . . .
H14 H 1.379372 0.482388 0.910859 0.025 Uiso 1 1 calc R U . . .
C11 C 0.820(3) 0.3497(5) 0.7422(11) 0.0193(6) Uani 1 1 d . U . . .
C3 C -0.307(2) 0.0530(5) 0.7750(10) 0.0195(9) Uani 1 1 d . U . . .
H3 H -0.379280 0.033111 0.860348 0.023 Uiso 1 1 calc R U . . .
C6 C -0.117(3) 0.1120(5) 0.5207(10) 0.0194(8) Uani 1 1 d . U . . .
C2 C -0.098(3) 0.1059(5) 0.7891(11) 0.0193(8) Uani 1 1 d . U . . .
H2 H -0.022044 0.122215 0.882955 0.023 Uiso 1 1 calc R U . . .
C16 C 1.147(3) 0.3994(5) 1.1143(11) 0.0205(8) Uani 1 1 d . U . . .
H16 H 1.286486 0.431577 1.162379 0.025 Uiso 1 1 calc R U . . .
N1 N 0.213(2) 0.1917(4) 0.6717(9) 0.0187(7) Uani 1 1 d . U . . .
C7 C -0.019(3) 0.1443(5) 0.3916(10) 0.0192(8) Uani 1 1 d . U . . .
H7 H -0.091689 0.127554 0.297576 0.023 Uiso 1 1 calc R U . . .
C13 C 1.175(2) 0.4460(5) 0.7201(11) 0.0205(8) Uani 1 1 d . U . . .
H13 H 1.277579 0.477313 0.659876 0.025 Uiso 1 1 calc R U . . .
C18 C 0.795(3) 0.3035(5) 1.1201(11) 0.0203(9) Uani 1 1 d . U . . .
H18 H 0.692120 0.270545 1.176756 0.024 Uiso 1 1 calc R U . . .
C17 C 0.998(3) 0.3522(5) 1.1917(11) 0.0204(9) Uani 1 1 d . U . . .
H17 H 1.030661 0.351554 1.295122 0.024 Uiso 1 1 calc R U . . .
C5 C -0.327(3) 0.0567(5) 0.5118(10) 0.0199(9) Uani 1 1 d . U . . .
H5 H -0.404840 0.039566 0.418891 0.024 Uiso 1 1 calc R U . . .
C9 C 0.289(3) 0.2219(5) 0.5485(11) 0.0187(7) Uani 1 1 d . U . . .
C10 C 0.507(2) 0.2832(5) 0.5569(10) 0.0185(6) Uani 1 1 d . U . . .
C4 C -0.422(3) 0.0268(5) 0.6356(10) 0.0200(9) Uani 1 1 d . U . . .
H4 H -0.562975 -0.011347 0.628688 0.024 Uiso 1 1 calc R U . . .
loop_
_atom_site_aniso_label
_atom_site_aniso_U_11
_atom_site_aniso_U_22
_atom_site_aniso_U_33
_atom_site_aniso_U_23
_atom_site_aniso_U_13
_atom_site_aniso_U_12
Pd1 0.0165(4) 0.0165(3) 0.0134(3) 0.0012(3) 0.0013(2) 0.0030(4)
Cl1 0.0272(14) 0.0271(10) 0.0124(9) 0.0021(8) 0.0005(9) -0.0077(11)
O1 0.019(2) 0.020(2) 0.018(2) 0.0030(19) -0.001(2) 0.000(2)
C1 0.0183(15) 0.0174(13) 0.0206(14) -0.0002(13) -0.0018(14) 0.0039(14)
C19 0.0187(14) 0.0173(12) 0.0228(13) -0.0006(12) -0.0003(13) 0.0025(13)
N2 0.018 0.015 0.022 0.0006(9) 0.0006(10) 0.0029(10)
N3 0.0190(17) 0.0178(14) 0.0224(15) -0.0012(14) -0.0006(15) 0.0023(15)
C12 0.0187(15) 0.0175(13) 0.0238(14) 0.0005(14) -0.0004(14) 0.0024(15)
C8 0.0184(16) 0.0183(14) 0.0199(15) -0.0001(14) -0.0009(15) 0.0036(15)
C15 0.0189(15) 0.0181(13) 0.0234(14) -0.0003(12) -0.0005(13) 0.0026(14)
C14 0.0187(17) 0.0181(14) 0.0243(15) 0.0002(14) -0.0007(15) 0.0022(15)
C11 0.0183(11) 0.0164(10) 0.0228(11) 0.0003(11) 0.0001(12) 0.0028(12)
C3 0.0186(18) 0.0178(16) 0.0213(17) 0.0004(15) -0.0023(16) 0.0037(16)
C6 0.0186(16) 0.0183(14) 0.0206(14) -0.0007(13) -0.0022(14) 0.0038(14)
C2 0.0184(17) 0.0175(15) 0.0213(16) 0.0001(15) -0.0019(16) 0.0037(16)
C16 0.0192(17) 0.0188(15) 0.0231(16) -0.0008(14) -0.0007(15) 0.0025(16)
N1 0.0184(15) 0.0171(13) 0.0201(14) 0.0000(13) -0.0013(14) 0.0037(14)
C7 0.0185(16) 0.0184(14) 0.0201(15) -0.0006(14) -0.0018(15) 0.0039(15)
C13 0.0187(16) 0.0181(14) 0.0244(15) 0.0006(14) -0.0007(15) 0.0021(16)
C18 0.0194(18) 0.0187(15) 0.0223(16) -0.0014(14) -0.0007(16) 0.0025(16)
C17 0.0194(18) 0.0189(15) 0.0225(16) -0.0013(14) -0.0005(16) 0.0024(16)
C5 0.0189(18) 0.0187(16) 0.0213(16) -0.0004(14) -0.0025(16) 0.0035(16)
C9 0.0182(13) 0.0173(12) 0.0201(12) 0.0004(12) -0.0005(13) 0.0034(13)
C10 0.0181(11) 0.0166(10) 0.0204(10) 0.0009(11) 0.0003(12) 0.0026(12)
C4 0.0189(18) 0.0187(16) 0.0215(17) 0.0000(15) -0.0025(16) 0.0035(16)
loop_
_atom_type_symbol
_atom_type_description
_atom_type_scat_dispersion_real
_atom_type_scat_dispersion_imag
_atom_type_scat_source
C C 0.0033 0.0016 'International Tables Vol C Tables 4.2.6.8 and 6.1.1.4'
H H 0.0000 0.0000 'International Tables Vol C Tables 4.2.6.8 and 6.1.1.4'
Cl Cl 0.1484 0.1585 'International Tables Vol C Tables 4.2.6.8 and 6.1.1.4'
N N 0.0061 0.0033 'International Tables Vol C Tables 4.2.6.8 and 6.1.1.4'
O O 0.0106 0.0060 'International Tables Vol C Tables 4.2.6.8 and 6.1.1.4'
Pd Pd -0.9988 1.0072 'International Tables Vol C Tables 4.2.6.8 and 6.1.1.4'
loop_
_geom_angle_atom_site_label_1
_geom_angle_atom_site_label_2
_geom_angle_atom_site_label_3
_geom_angle
_geom_angle_site_symmetry_1
_geom_angle_site_symmetry_3
_geom_angle_publ_flag
N2 Pd1 Cl1 171.7(3) . . ?
N2 Pd1 N3 81.3(3) . . ?
N2 Pd1 N1 81.1(3) . . ?
N3 Pd1 Cl1 91.5(3) . . ?
N3 Pd1 N1 162.4(3) . . ?
N1 Pd1 Cl1 106.1(2) . . ?
C6 C1 C2 118.4(9) . . ?
N1 C1 C6 122.2(9) . . ?
N1 C1 C2 119.3(8) . . ?
N3 C19 C15 121.0(9) . . ?
N3 C19 C11 117.5(9) . . ?
C15 C19 C11 121.5(10) . . ?
C11 N2 Pd1 115.5(6) . . ?
C10 N2 Pd1 118.4(7) . . ?
C10 N2 C11 125.9(9) . . ?
C19 N3 Pd1 111.9(6) . . ?
C18 N3 Pd1 128.6(8) . . ?
C18 N3 C19 119.5(9) . . ?
C11 C12 H12 120.8 . . ?
C11 C12 C13 118.4(9) . . ?
C13 C12 H12 120.8 . . ?
C7 C8 H8 120.0 . . ?
C7 C8 C9 120.0(9) . . ?
C9 C8 H8 120.0 . . ?
C19 C15 C14 118.6(9) . . ?
C19 C15 C16 118.0(9) . . ?
C14 C15 C16 123.4(9) . . ?
C15 C14 H14 120.2 . . ?
C13 C14 C15 119.7(10) . . ?
C13 C14 H14 120.2 . . ?
C19 C11 N2 113.7(9) . . ?
C12 C11 C19 120.1(10) . . ?
C12 C11 N2 126.2(9) . . ?
C2 C3 H3 119.1 . . ?
C2 C3 C4 121.7(9) . . ?
C4 C3 H3 119.1 . . ?
C1 C6 C7 118.4(9) . . ?
C5 C6 C1 120.5(9) . . ?
C5 C6 C7 121.0(8) . . ?
C1 C2 H2 120.5 . . ?
C3 C2 C1 119.0(9) . . ?
C3 C2 H2 120.5 . . ?
C15 C16 H16 120.3 . . ?
C17 C16 C15 119.4(9) . . ?
C17 C16 H16 120.3 . . ?
C1 N1 Pd1 133.0(7) . . ?
C9 N1 Pd1 109.8(7) . . ?
C9 N1 C1 117.1(8) . . ?
C8 C7 C6 118.4(8) . . ?
C8 C7 H7 120.8 . . ?
C6 C7 H7 120.8 . . ?
C12 C13 H13 119.2 . . ?
C14 C13 C12 121.7(10) . . ?
C14 C13 H13 119.2 . . ?
N3 C18 H18 119.1 . . ?
N3 C18 C17 121.8(10) . . ?
C17 C18 H18 119.1 . . ?
C16 C17 C18 120.3(10) . . ?
C16 C17 H17 119.9 . . ?
C18 C17 H17 119.9 . . ?
C6 C5 H5 119.7 . . ?
C4 C5 C6 120.6(9) . . ?
C4 C5 H5 119.7 . . ?
C8 C9 C10 117.0(9) . . ?
N1 C9 C8 123.7(10) . . ?
N1 C9 C10 119.2(9) . . ?
O1 C10 N2 126.7(10) . . ?
O1 C10 C9 122.1(9) . . ?
N2 C10 C9 111.2(9) . . ?
C3 C4 H4 120.2 . . ?
C5 C4 C3 119.7(9) . . ?
C5 C4 H4 120.2 . . ?
loop_
_geom_bond_atom_site_label_1
_geom_bond_atom_site_label_2
_geom_bond_distance
_geom_bond_site_symmetry_2
_geom_bond_publ_flag
Pd1 Cl1 2.326(2) . ?
Pd1 N2 1.962(8) . ?
Pd1 N3 2.044(9) . ?
Pd1 N1 2.095(8) . ?
O1 C10 1.223(13) . ?
C1 C6 1.420(13) . ?
C1 C2 1.450(15) . ?
C1 N1 1.371(13) . ?
C19 N3 1.380(14) . ?
C19 C15 1.400(14) . ?
C19 C11 1.407(14) . ?
N2 C11 1.408(13) . ?
N2 C10 1.344(13) . ?
N3 C18 1.314(13) . ?
C12 H12 0.9500 . ?
C12 C11 1.381(15) . ?
C12 C13 1.435(14) . ?
C8 H8 0.9500 . ?
C8 C7 1.344(15) . ?
C8 C9 1.423(13) . ?
C15 C14 1.417(15) . ?
C15 C16 1.421(13) . ?
C14 H14 0.9500 . ?
C14 C13 1.376(14) . ?
C3 H3 0.9500 . ?
C3 C2 1.361(15) . ?
C3 C4 1.426(13) . ?
C6 C7 1.432(14) . ?
C6 C5 1.395(15) . ?
C2 H2 0.9500 . ?
C16 H16 0.9500 . ?
C16 C17 1.341(15) . ?
N1 C9 1.334(14) . ?
C7 H7 0.9500 . ?
C13 H13 0.9500 . ?
C18 H18 0.9500 . ?
C18 C17 1.409(14) . ?
C17 H17 0.9500 . ?
C5 H5 0.9500 . ?
C5 C4 1.367(15) . ?
C9 C10 1.501(15) . ?
C4 H4 0.9500 . ?
loop_
_geom_torsion_atom_site_label_1
_geom_torsion_atom_site_label_2
_geom_torsion_atom_site_label_3
_geom_torsion_atom_site_label_4
_geom_torsion
_geom_torsion_site_symmetry_1
_geom_torsion_site_symmetry_2
_geom_torsion_site_symmetry_3
_geom_torsion_site_symmetry_4
_geom_torsion_publ_flag
Pd1 N2 C11 C19 -2.7(11) . . . . ?
Pd1 N2 C11 C12 178.1(9) . . . . ?
Pd1 N2 C10 O1 -179.5(9) . . . . ?
Pd1 N2 C10 C9 2.4(11) . . . . ?
Pd1 N3 C18 C17 179.8(8) . . . . ?
Pd1 N1 C9 C8 174.7(8) . . . . ?
Pd1 N1 C9 C10 -4.6(11) . . . . ?
C1 C6 C7 C8 -2.8(14) . . . . ?
C1 C6 C5 C4 1.8(15) . . . . ?
C1 N1 C9 C8 -2.0(15) . . . . ?
C1 N1 C9 C10 178.6(9) . . . . ?
C19 N3 C18 C17 -1.5(16) . . . . ?
C19 C15 C14 C13 0.9(15) . . . . ?
C19 C15 C16 C17 -1.5(15) . . . . ?
N3 C19 C15 C14 178.6(9) . . . . ?
N3 C19 C15 C16 0.2(16) . . . . ?
N3 C19 C11 N2 1.1(13) . . . . ?
N3 C19 C11 C12 -179.7(10) . . . . ?
N3 C18 C17 C16 0.2(17) . . . . ?
C8 C9 C10 O1 4.2(15) . . . . ?
C8 C9 C10 N2 -177.6(9) . . . . ?
C15 C19 N3 Pd1 -179.8(8) . . . . ?
C15 C19 N3 C18 1.3(15) . . . . ?
C15 C19 C11 N2 -178.2(10) . . . . ?
C15 C19 C11 C12 1.1(16) . . . . ?
C15 C14 C13 C12 1.6(16) . . . . ?
C15 C16 C17 C18 1.3(16) . . . . ?
C14 C15 C16 C17 -179.7(10) . . . . ?
C11 C19 N3 Pd1 1.0(11) . . . . ?
C11 C19 N3 C18 -178.0(9) . . . . ?
C11 C19 C15 C14 -2.2(15) . . . . ?
C11 C19 C15 C16 179.4(9) . . . . ?
C11 N2 C10 O1 -5.0(17) . . . . ?
C11 N2 C10 C9 176.9(9) . . . . ?
C11 C12 C13 C14 -2.7(16) . . . . ?
C6 C1 C2 C3 1.6(14) . . . . ?
C6 C1 N1 Pd1 -175.0(7) . . . . ?
C6 C1 N1 C9 0.7(14) . . . . ?
C6 C5 C4 C3 0.8(15) . . . . ?
C2 C1 C6 C7 178.0(9) . . . . ?
C2 C1 C6 C5 -3.0(14) . . . . ?
C2 C1 N1 Pd1 8.7(14) . . . . ?
C2 C1 N1 C9 -175.6(9) . . . . ?
C2 C3 C4 C5 -2.2(15) . . . . ?
C16 C15 C14 C13 179.2(10) . . . . ?
N1 C1 C6 C7 1.6(15) . . . . ?
N1 C1 C6 C5 -179.3(9) . . . . ?
N1 C1 C2 C3 178.1(9) . . . . ?
N1 C9 C10 O1 -176.4(10) . . . . ?
N1 C9 C10 N2 1.8(13) . . . . ?
C7 C8 C9 N1 0.8(16) . . . . ?
C7 C8 C9 C10 -179.9(9) . . . . ?
C7 C6 C5 C4 -179.2(10) . . . . ?
C13 C12 C11 C19 1.4(15) . . . . ?
C13 C12 C11 N2 -179.5(10) . . . . ?
C5 C6 C7 C8 178.1(10) . . . . ?
C9 C8 C7 C6 1.7(15) . . . . ?
C10 N2 C11 C19 -177.3(9) . . . . ?
C10 N2 C11 C12 3.5(17) . . . . ?
C4 C3 C2 C1 0.9(15) . . . . ?
loop_
_twin_individual_id
_twin_individual_mass_fraction_refined
1 0.54311
2 0.45689
