#------------------------------------------------------------------------------
#$Date: 2021-09-06 14:11:36 +0300 (Mon, 06 Sep 2021) $
#$Revision: 268763 $
#$URL: file:///home/coder/svn-repositories/cod/cif/7/70/76/7707685.cif $
#------------------------------------------------------------------------------
#
# This file is available in the Crystallography Open Database (COD),
# http://www.crystallography.net/
#
# All data on this site have been placed in the public domain by the
# contributors.
#
data_7707685
loop_
_publ_author_name
'Vinogradova, Katerina A.'
'Shekhovtsov, Nikita A.'
'Berezin, Alexey S.'
'Sukhikh, Taisiya S.'
'Rogovoy, Maxim I.'
'Artem'ev, Alexander V.'
'Bushuev, Mark B.'
_publ_section_title
;
 Coordination-induced emission enhancement in copper(I) iodide
 coordination polymers supported by 2-(alkylsulfanyl)pyrimidines.
;
_journal_issue                   26
_journal_name_full
'Dalton transactions (Cambridge, England : 2003)'
_journal_page_first              9317
_journal_page_last               9330
_journal_paper_doi               10.1039/d1dt00826a
_journal_volume                  50
_journal_year                    2021
_chemical_formula_moiety         'C6 H8 Cu I N2 S'
_chemical_formula_sum            'C6 H8 Cu I N2 S'
_chemical_formula_weight         330.64
_space_group_crystal_system      monoclinic
_space_group_IT_number           14
_space_group_name_Hall           '-P 2ybc'
_space_group_name_H-M_alt        'P 1 21/c 1'
_atom_sites_solution_hydrogens   geom
_atom_sites_solution_primary     direct
_audit_creation_date             2020-07-14
_audit_creation_method
;
Olex2 1.2
(compiled 2018.05.29 svn.r3508 for OlexSys, GUI svn.r5506)
;
_audit_update_record
;
2020-07-18 deposited with the CCDC.	2021-06-16 downloaded from the CCDC.
;
_cell_angle_alpha                90
_cell_angle_beta                 97.948(3)
_cell_angle_gamma                90
_cell_formula_units_Z            4
_cell_length_a                   4.1293(4)
_cell_length_b                   15.0107(13)
_cell_length_c                   14.8554(13)
_cell_measurement_reflns_used    8088
_cell_measurement_temperature    150(2)
_cell_measurement_theta_max      27.98
_cell_measurement_theta_min      2.71
_cell_volume                     911.95(14)
_computing_molecular_graphics    'Olex2 (Dolomanov et al., 2009)'
_computing_publication_material  'Olex2 (Dolomanov et al., 2009)'
_computing_structure_refinement  'ShelXL (Sheldrick, 2015)'
_computing_structure_solution    'ShelXS (Sheldrick, 2008)'
_diffrn_ambient_temperature      150(2)
_diffrn_measured_fraction_theta_full 1.000
_diffrn_measured_fraction_theta_max 0.986
_diffrn_measurement_device_type  'Bruker APEX-II CCD'
_diffrn_measurement_method       '\f and \w scans'
_diffrn_radiation_type           MoK\a
_diffrn_radiation_wavelength     0.71073
_diffrn_reflns_av_R_equivalents  0.0320
_diffrn_reflns_av_unetI/netI     0.0257
_diffrn_reflns_Laue_measured_fraction_full 1.000
_diffrn_reflns_Laue_measured_fraction_max 0.986
_diffrn_reflns_limit_h_max       5
_diffrn_reflns_limit_h_min       -4
_diffrn_reflns_limit_k_max       19
_diffrn_reflns_limit_k_min       -19
_diffrn_reflns_limit_l_max       12
_diffrn_reflns_limit_l_min       -19
_diffrn_reflns_number            10024
_diffrn_reflns_point_group_measured_fraction_full 1.000
_diffrn_reflns_point_group_measured_fraction_max 0.986
_diffrn_reflns_theta_full        25.242
_diffrn_reflns_theta_max         28.104
_diffrn_reflns_theta_min         1.357
_diffrn_standards_number         0
_exptl_absorpt_coefficient_mu    5.946
_exptl_absorpt_correction_T_max  0.7456
_exptl_absorpt_correction_T_min  0.4904
_exptl_absorpt_correction_type   multi-scan
_exptl_absorpt_process_details
'SADABS-2012/1 (Bruker,2012) was used for absorption correction. wR2(int) was 0.0818 before and 0.0465 after correction. The Ratio of minimum to maximum transmission is 0.6577. The \l/2 correction factor is 0.0015.'
_exptl_crystal_colour            yellow
_exptl_crystal_colour_primary    yellow
_exptl_crystal_density_diffrn    2.408
_exptl_crystal_description       needle
_exptl_crystal_F_000             624
_exptl_crystal_preparation       Luminescent
_exptl_crystal_size_max          0.28
_exptl_crystal_size_mid          0.05
_exptl_crystal_size_min          0.05
_refine_diff_density_max         1.277
_refine_diff_density_min         -0.474
_refine_diff_density_rms         0.104
_refine_ls_extinction_method     none
_refine_ls_goodness_of_fit_ref   1.055
_refine_ls_hydrogen_treatment    constr
_refine_ls_matrix_type           full
_refine_ls_number_parameters     102
_refine_ls_number_reflns         2167
_refine_ls_number_restraints     0
_refine_ls_restrained_S_all      1.055
_refine_ls_R_factor_all          0.0196
_refine_ls_R_factor_gt           0.0190
_refine_ls_shift/su_max          0.001
_refine_ls_shift/su_mean         0.000
_refine_ls_structure_factor_coef Fsqd
_refine_ls_weighting_details
'w=1/[\s^2^(Fo^2^)+(0.0233P)^2^+0.8723P] where P=(Fo^2^+2Fc^2^)/3'
_refine_ls_weighting_scheme      calc
_refine_ls_wR_factor_gt          0.0461
_refine_ls_wR_factor_ref         0.0464
_reflns_Friedel_coverage         0.000
_reflns_number_gt                2128
_reflns_number_total             2167
_reflns_threshold_expression     'I > 2\s(I)'
_cod_data_source_file            d1dt00826a2.cif
_cod_data_source_block           mbb241
_cod_depositor_comments
'Adding full bibliography for 7707683--7707685.cif.'
_cod_database_code               7707685
_shelx_shelxl_version_number     2017/1
_shelx_space_group_comment
;
The symmetry employed for this shelxl refinement is uniquely defined
by the following loop, which should always be used as a source of
symmetry information in preference to the above space-group names.
They are only intended as comments.
;
_shelx_estimated_absorpt_t_max   0.755
_shelx_estimated_absorpt_t_min   0.287
_olex2_refinement_description
;
1. Twinned data refinement
 Scales: 0.6220(8)
 0.3780(8)
2. Fixed Uiso
 At 1.2 times of:
  All C(H) groups, All C(H,H) groups
 At 1.5 times of:
  All C(H,H,H) groups
3.a Secondary CH2 refined with riding coordinates:
 C5(H5A,H5B)
3.b Aromatic/amide H refined with riding coordinates:
 C2(H2), C3(H3), C4(H4)
3.c Idealised Me refined as rotating group:
 C6(H6A,H6B,H6C)
;
_shelx_res_file
;
TITL MBB241 in P21/c #14
    mbb241.res
    created by SHELXL-2017/1 at 18:48:40 on 14-Jul-2020
REM reset to P21/c #14
CELL 0.71073 4.1293 15.0107 14.8554 90 97.948 90
ZERR 4 0.0004 0.0013 0.0013 0 0.003 0
LATT 1
SYMM -X,0.5+Y,0.5-Z
SFAC C H Cu I N S
UNIT 24 32 4 4 8 4

L.S. 6
PLAN  50
SIZE 0.28 0.05 0.05
TEMP 23
BOND
fmap 2
acta
TWIN -1 0 0 0 -1 0 1 0 1 2
REM <olex2.extras>
REM <HklSrc "%.\\MBB241.hkl">
REM </olex2.extras>

WGHT    0.023300    0.872300
BASF   0.37804
FVAR       0.41956
I1    4    0.372170    0.448214    0.117184    11.00000    0.01496    0.01471 =
         0.01511    0.00071    0.00270   -0.00051
CU1   3    0.179456    0.578052   -0.009680    11.00000    0.02014    0.01552 =
         0.02121   -0.00311    0.00360   -0.00227
S1    6    0.340094    0.784401   -0.054701    11.00000    0.03184    0.01160 =
         0.01862   -0.00119    0.00803   -0.00318
C2    1   -0.026380    0.675374    0.144694    11.00000    0.02324    0.01814 =
         0.02167    0.00301    0.00177   -0.00110
AFIX  43
H2    2   -0.083868    0.618125    0.160442    11.00000   -1.20000
AFIX   0
N1    5    0.109735    0.686591    0.068460    11.00000    0.01771    0.01083 =
         0.01751    0.00097    0.00033   -0.00113
C3    1   -0.084681    0.745462    0.200809    11.00000    0.02459    0.02394 =
         0.01943    0.00212    0.00579    0.00029
AFIX  43
H3    2   -0.181348    0.736822    0.253083    11.00000   -1.20000
AFIX   0
N2    5    0.139236    0.843508    0.098367    11.00000    0.02709    0.01358 =
         0.02085   -0.00290    0.00335   -0.00337
C1    1    0.180735    0.771622    0.048153    11.00000    0.01386    0.01592 =
         0.01565    0.00090   -0.00101   -0.00023
C4    1    0.009123    0.829439    0.174766    11.00000    0.03187    0.01967 =
         0.02034   -0.00484    0.00326    0.00160
AFIX  43
H4    2   -0.019691    0.877828    0.211941    11.00000   -1.20000
AFIX   0
C6    1    0.532889    0.929535   -0.143718    11.00000    0.04179    0.02076 =
         0.02567   -0.00047    0.00692   -0.00616
AFIX 137
H6A   2    0.358540    0.918635   -0.192265    11.00000   -1.50000
H6B   2    0.720252    0.894701   -0.153149    11.00000   -1.50000
H6C   2    0.589166    0.991617   -0.142570    11.00000   -1.50000
AFIX   0
C5    1    0.422900    0.903588   -0.053507    11.00000    0.02867    0.01008 =
         0.02501    0.00064    0.00428   -0.00086
AFIX  23
H5A   2    0.227097    0.936386   -0.044920    11.00000   -1.20000
H5B   2    0.592676    0.917976   -0.003764    11.00000   -1.20000
AFIX   0
HKLF 4




REM  MBB241 in P21/c #14
REM R1 =  0.0190 for    2128 Fo > 4sig(Fo)  and  0.0196 for all    2167 data
REM    102 parameters refined using      0 restraints

END

WGHT      0.0233      0.8725

REM Highest difference peak  1.277,  deepest hole -0.474,  1-sigma level  0.104
Q1    1   0.3464  0.4477  0.1648  11.00000  0.05    1.28
Q2    1   0.3839  0.4482  0.0717  11.00000  0.05    0.99
Q3    1   0.2772  0.5793 -0.0613  11.00000  0.05    0.55
Q4    1   0.1066  0.5525 -0.1225  11.00000  0.05    0.47
Q5    1   0.1138  0.5729  0.0433  11.00000  0.05    0.44
Q6    1   0.6917  0.4478  0.1182  11.00000  0.05    0.40
Q7    1   0.4459  0.4568  0.2394  11.00000  0.05    0.39
Q8    1   0.1032  0.4264  0.1196  11.00000  0.05    0.37
Q9    1   0.3299  0.7782 -0.0020  11.00000  0.05    0.37
Q10   1   0.1043  0.4651  0.1227  11.00000  0.05    0.35
Q11   1   0.3415  0.7750 -0.1070  11.00000  0.05    0.33
Q12   1  -0.0308  0.7801  0.1758  11.00000  0.05    0.33
Q13   1   0.2927  0.6465 -0.0950  11.00000  0.05    0.32
Q14   1   0.6491  0.7862 -0.0399  11.00000  0.05    0.31
Q15   1  -0.0704  0.9442 -0.0707  11.00000  0.05    0.31
Q16   1   0.1116  0.8215  0.1380  11.00000  0.05    0.30
Q17   1   0.1868  0.9429 -0.1725  11.00000  0.05    0.30
Q18   1  -0.0072  0.9196  0.3168  11.00000  0.05    0.30
Q19   1   0.4956  0.4098  0.1422  11.00000  0.05    0.30
Q20   1   0.4558  0.5897  0.0557  11.00000  0.05    0.30
Q21   1  -0.0666  0.9439  0.2588  11.00000  0.05    0.30
Q22   1   0.5068  0.5380  0.0357  11.00000  0.05    0.29
Q23   1  -0.0609  0.5409 -0.0611  11.00000  0.05    0.29
Q24   1   0.0102  0.5492  0.1419  11.00000  0.05    0.28
Q25   1   0.0579  0.9443 -0.1201  11.00000  0.05    0.28
Q26   1   0.1069  0.6803  0.1236  11.00000  0.05    0.28
Q27   1   0.4024  0.5907 -0.0213  11.00000  0.05    0.27
Q28   1   0.7342  0.4291  0.1797  11.00000  0.05    0.27
Q29   1  -0.4535  0.6498  0.1573  11.00000  0.05    0.27
Q30   1   0.3939  0.5350 -0.0401  11.00000  0.05    0.26
Q31   1   0.4983  0.9165 -0.2155  11.00000  0.05    0.26
Q32   1   0.8012  0.8991  0.0834  11.00000  0.05    0.26
Q33   1  -0.2034  0.7426  0.2043  11.00000  0.05    0.26
Q34   1  -0.0473  0.6735 -0.0183  11.00000  0.05    0.26
Q35   1   0.5981  0.7681 -0.0560  11.00000  0.05    0.26
Q36   1   0.1062  0.8004 -0.1556  11.00000  0.05    0.26
Q37   1   0.0050  0.6620  0.0395  11.00000  0.05    0.25
Q38   1   0.3417  0.4397  0.0053  11.00000  0.05    0.25
Q39   1  -0.0363  0.7240  0.2849  11.00000  0.05    0.24
Q40   1   0.5103  0.9156 -0.0978  11.00000  0.05    0.24
Q41   1  -0.0339  0.6926  0.1844  11.00000  0.05    0.24
Q42   1  -0.0009  0.6840  0.0997  11.00000  0.05    0.24
Q43   1   0.1444  0.7971 -0.0720  11.00000  0.05    0.24
Q44   1  -0.1123  0.8049 -0.0464  11.00000  0.05    0.24
Q45   1   0.3653  0.5294  0.0401  11.00000  0.05    0.24
Q46   1   0.1966  0.8147  0.0775  11.00000  0.05    0.24
Q47   1  -0.0336  0.8979 -0.0237  11.00000  0.05    0.23
Q48   1   0.4961  0.6417 -0.0412  11.00000  0.05    0.23
Q49   1  -0.3350  0.5869  0.1873  11.00000  0.05    0.23
Q50   1   0.1397  0.7067  0.0583  11.00000  0.05    0.23
;
_shelx_res_checksum              66022
_shelx_hkl_file
;
   1   0   0  342.97   17.20
  -1   0   0  341.27   17.10
  -2   0   0 2588.34  117.09
   2   0   0 2602.74   86.89
   2   0   0 2635.64  117.29
  -2   0   0 2499.45   86.79
  -3   0   0  184.88    9.40
   3   0   0  176.98   14.40
   3   0   0  194.08    8.00
   4   0   0 1532.45   78.09
  -4   0   0 1676.53   55.59
   5   0   0  375.66   27.60
   0  -1   0   -2.00    0.30
   0  -1   0   -2.80    0.20
   0  -1   0   -2.90    0.20
   0   1   0   -2.90    0.20
   0   1   0   -3.00    0.10
   0   1   0   -2.80    0.30
   1  -1   0  847.32   29.60
   1  -1   0  875.31   40.00
  -1  -1   0  894.91   40.00
  -1  -1   0  883.31   29.30
  -1  -1   0  827.02   31.80
  -1   1   0  825.02   29.60
   1   1   0  903.51   40.10
  -1   1   0  860.01   31.50
  -1   1   0  917.71   40.10
   1   1   0  829.62   31.90
   2  -1   0  470.25   16.20
  -2  -1   0  443.26   22.80
  -2  -1   0  388.16   17.50
   2  -1   0  459.95   23.10
  -2   1   0  439.36   23.40
   2   1   0  429.86   17.90
   2   1   0  486.15   23.70
   3  -1   0  187.78    8.10
  -3  -1   0  176.48    7.60
   3  -1   0  175.88   13.80
  -3  -1   0  183.28    9.50
   3   1   0  177.48   14.30
  -3   1   0  177.18    8.90
   3   1   0  190.38   10.70
  -3   1   0  173.88    8.00
  -4  -1   0   64.99    4.90
   4  -1   0   95.09   12.60
  -4   1   0   63.79    5.50
   4   1   0   91.99   13.00
   5  -1   0   36.30   11.30
   5   1   0   24.10   11.70
   0  -2   0 2015.30   66.09
   0  -2   0 1947.01   77.99
   0  -2   0 1962.70   70.29
   0   2   0 1955.40   70.29
   0   2   0 1912.91   80.09
   0   2   0 1951.30   65.59
  -1  -2   0 1888.31   73.59
  -1  -2   0 2062.69   91.89
   1  -2   0 2081.09   91.99
   1  -2   0 2036.50   68.79
  -1   2   0 2190.98   92.09
   1   2   0 1929.51   73.69
  -1   2   0 1953.50   68.69
   1   2   0 2102.59   81.99
   1   2   0 2137.59   92.09
  -2  -2   0 1509.25   57.59
  -2  -2   0 1522.05   52.89
   2  -2   0 1565.54   72.29
  -2  -2   0 1520.75   72.09
   2  -2   0 1600.94   53.49
  -2   2   0 1548.35   56.79
  -2   2   0 1545.45   53.49
  -2   2   0 1645.44   72.59
   2   2   0 1629.84   64.29
   2   2   0 1569.44   57.79
  -3  -2   0  122.29    5.60
   3  -2   0  121.29    6.30
  -3  -2   0  124.49    7.60
   3  -2   0  125.69   11.60
   3   2   0  104.69   12.10
  -3   2   0  126.89    6.80
  -3   2   0  119.89    6.40
   4  -2   0  810.82   41.80
  -4  -2   0  798.72   27.60
  -4   2   0  799.52   28.60
   4   2   0  678.13   41.80
   5  -2   0  331.17   24.50
   5   2   0  287.97   25.00
   0  -3   0   -4.60    1.00
   0  -3   0   -3.50    1.10
   0  -3   0   -4.90    1.30
   0   3   0   -6.20    1.00
   0   3   0   -5.60    1.20
   0   3   0   -4.90    1.10
  -1  -3   0  290.17   15.10
   1  -3   0  297.47   15.20
   1  -3   0  299.97   11.10
  -1  -3   0  283.87   13.30
   1  -3   0  304.77   13.00
   1   3   0  289.07   13.30
  -1   3   0  278.67   11.00
  -1   3   0  298.77   15.10
   1   3   0  290.17   15.10
   1   3   0  279.67   12.00
   2  -3   0 4530.05  208.58
  -2  -3   0 4486.45  208.58
  -2  -3   0 4644.64  155.38
   2  -3   0 4823.72  156.18
  -2  -3   0 4653.43  167.38
   2   3   0 4762.62  186.18
   2   3   0 4372.16  167.38
  -2   3   0 4638.74  156.18
  -2   3   0 4735.43  208.98
   2   3   0 4880.51  209.08
  -3  -3   0  528.05   18.70
   3  -3   0  519.25   28.10
   3   3   0  486.85   28.70
  -3   3   0  557.14   20.60
  -3   3   0  508.35   19.70
   4  -3   0  382.46   23.50
  -4   3   0  361.96   15.00
   4   3   0  300.57   24.00
   5  -3   0  130.69   16.80
   5   3   0  143.89   19.80
   0  -4   0  113.59    5.40
   0  -4   0  100.79    5.40
   0  -4   0  108.19    6.30
   0   4   0  109.59    6.40
   0   4   0  100.89    5.30
   0   4   0  102.79    5.50
   1  -4   0  452.75   16.20
   1  -4   0  442.16   18.90
   1  -4   0  451.35   21.90
  -1  -4   0  420.86   19.20
  -1  -4   0  426.36   21.70
   1   4   0  416.36   21.70
  -1   4   0  468.05   19.00
   1   4   0  417.86   17.30
  -1   4   0  439.16   21.80
  -1   4   0  427.66   16.10
   2  -4   0   54.39    4.40
   2  -4   0   67.09    5.20
   2  -4   0   71.89    7.00
  -2  -4   0   55.49    5.00
  -2  -4   0   63.29    6.60
   2   4   0   52.89    5.20
   2   4   0   67.79    7.40
  -2   4   0   73.59    7.70
  -2   4   0   55.19    4.50
   3  -4   0  904.51   31.30
  -3  -4   0  855.81   29.80
   3  -4   0  886.81   43.10
  -3   4   0  874.71   31.20
   3   4   0  724.23   43.20
   3   4   0  894.51   34.40
   4  -4   0  117.09   13.00
   4  -4   0   85.29    8.30
  -4   4   0   94.69    7.00
   4   4   0  115.59   14.70
   5   4   0  126.39   17.60
   0  -5   0   -1.10    1.60
   0  -5   0   -2.50    1.20
   0  -5   0   -2.90    1.20
   0   5   0   -2.00    1.20
   0   5   0   -2.40    1.50
   0   5   0   -2.80    1.30
   1  -5   0  417.06   21.70
  -1  -5   0  443.16   22.10
  -1  -5   0  444.06   15.60
  -1  -5   0  433.76   19.30
   1  -5   0  431.66   16.20
   1  -5   0  424.46   18.80
   1   5   0  409.26   17.20
  -1   5   0  459.65   19.00
  -1   5   0  415.06   16.10
  -1   5   0  401.66   21.70
   1   5   0  426.36   21.90
   2  -5   0 2410.76   79.99
   2  -5   0 2288.77  106.99
  -2  -5   0 2281.57  106.89
   2  -5   0 2341.17   94.49
  -2  -5   0 2325.57   85.69
   2   5   0 2253.17   85.79
  -2   5   0 2303.37   79.89
   2   5   0 2404.16  107.29
   2   5   0 2395.46   95.49
  -2   5   0 2354.56  107.19
  -3  -5   0  954.00   33.90
   3  -5   0  935.91   48.30
   3  -5   0  996.00   35.60
   3  -5   0  988.20   41.80
   3   5   0  987.30   49.60
   3   5   0  997.80   38.90
  -3   5   0  996.10   35.60
   4  -5   0  268.07   15.30
   4  -5   0  284.27   20.00
  -4   5   0  274.97   13.00
   0  -6   0 4763.82  192.48
   0  -6   0 4818.32  172.78
   0   6   0 4975.00  192.68
   0   6   0 4840.82  161.88
   0   6   0 4727.13  172.68
  -1  -6   0 1718.03   73.69
   1  -6   0 1796.72   73.19
   1  -6   0 1868.21   62.09
  -1  -6   0 1613.84   61.29
  -1  -6   0 1854.11   66.39
  -1  -6   0 1886.01   83.09
   1   6   0 1843.82   83.09
  -1   6   0 1817.22   62.09
   1   6   0 1807.82   66.39
  -1   6   0 1847.32   73.49
  -1   6   0 1798.72   82.99
   1   6   0 1802.52   73.79
  -2  -6   0  974.20   39.00
   2  -6   0  995.10   48.90
   2  -6   0 1054.09   42.70
  -2  -6   0 1006.50   48.90
   2  -6   0 1057.49   36.50
   2   6   0  993.10   43.50
   2   6   0  994.40   39.20
   2   6   0 1054.79   49.40
  -2   6   0 1044.00   49.20
  -2   6   0  974.10   36.30
  -3  -6   0  392.66   15.30
   3  -6   0  410.96   24.10
   3  -6   0  419.96   19.80
  -3   6   0  417.66   17.30
   3   6   0  426.86   19.20
   3   6   0  431.86   25.10
   4  -6   0  209.38   17.60
   4  -6   0  247.18   13.60
  -4   6   0  231.38   11.80
   4   6   0  173.08   19.80
   0  -7   0    0.00    1.40
   0  -7   0    1.00    1.50
   0  -7   0    2.00    2.10
   0   7   0    0.40    2.80
   0   7   0   -0.70    1.50
   0   7   0    0.10    1.70
   0   7   0    0.60    1.60
   1  -7   0 1302.17   43.70
  -1  -7   0 1188.98   51.89
  -1  -7   0 1228.08   46.50
   1  -7   0 1188.08   51.19
  -1  -7   0 1293.47   43.10
  -1  -7   0 1256.67   58.59
  -1   7   0 1282.97   51.69
  -1   7   0 1192.28   58.49
   1   7   0 1217.58   46.50
   1   7   0 1268.67   58.69
  -1   7   0 1197.78   43.60
  -1   7   0 1243.48   45.20
  -2  -7   0 1152.68   50.39
   2  -7   0 1251.77   42.40
   2  -7   0 1157.18   56.59
  -2  -7   0 1189.38   56.89
   2  -7   0 1163.78   49.40
   2   7   0 1232.08   57.09
  -2   7   0 1150.18   42.10
   2   7   0 1146.19   45.30
   3  -7   0  277.77   18.50
   3  -7   0  292.67   14.90
  -3  -7   0  279.27   11.10
   3   7   0  273.07   19.00
  -3   7   0  271.67   13.00
   3   7   0  268.67   14.50
   4  -7   0   46.10    6.20
   4  -7   0   43.70    8.90
  -4   7   0   50.69    6.10
   4   7   0   25.60   12.60
   0  -8   0 7539.75  266.57
   0  -8   0 7857.31  249.88
   0  -8   0 7163.68  296.77
   0   8   0 7297.87  266.47
   0   8   0 7959.40  300.67
   0   8   0 7342.47  249.78
   0   8   0 7031.90  333.27
  -1  -8   0  930.61   43.50
  -1  -8   0  896.61   34.20
   1  -8   0  856.31   37.40
   1  -8   0  926.91   32.20
   1  -8   0  865.01   32.90
  -1  -8   0  923.91   31.60
  -1  -8   0  861.21   38.20
  -1   8   0  839.62   32.00
   1   8   0  871.51   34.20
  -1   8   0  861.11   43.40
  -1   8   0  886.51   32.80
  -1   8   0  875.71   38.00
   1   8   0  862.31   43.20
   2  -8   0  981.00   49.60
  -2  -8   0 1045.80   35.80
  -2  -8   0  940.31   44.00
   2  -8   0 1047.30   43.10
   2   8   0 1024.80   39.70
   2   8   0 1024.50   49.90
  -3  -8   0  554.34   20.40
   3  -8   0  569.34   31.00
   3  -8   0  569.94   25.70
  -3   8   0  552.54   22.40
   3   8   0  519.45   30.80
   3   8   0  538.15   24.50
   4  -8   0  668.73   38.20
   4  -8   0  678.43   31.60
  -4   8   0  693.93   27.60
   0  -9   0   -2.10    1.70
   0  -9   0    0.40    1.80
   0  -9   0    1.70    2.30
   0   9   0    0.90    2.10
   0   9   0   -1.40    1.70
   0   9   0    0.30    3.30
   1  -9   0 1032.10   37.20
  -1  -9   0 1099.79   36.70
   1  -9   0  949.80   43.30
  -1  -9   0 1053.79   39.60
   1  -9   0  983.90   38.10
  -1  -9   0 1048.60   44.40
   1   9   0 1014.60   39.50
   1   9   0 1055.39   50.19
   1   9   0  993.60   44.10
  -1   9   0  925.81   50.09
  -1   9   0 1013.50   37.20
  -1   9   0  991.00   38.00
  -1   9   0 1152.58   44.60
   2  -9   0   68.49    6.20
  -2  -9   0   61.89    4.80
  -2  -9   0   61.29    7.00
   2   9   0   69.89    8.80
  -2   9   0   64.69    5.80
   2   9   0   67.09    6.30
   3  -9   0   22.70    6.80
   3  -9   0   25.70    4.90
   3   9   0   33.20    8.30
   3   9   0   20.20    4.80
  -3   9   0   18.40    4.20
   4  -9   0   99.89    9.20
   4  -9   0   86.79   12.60
   4   9   0  100.29   10.20
   4   9   0   85.49   16.70
  -4   9   0   87.09    8.50
   0 -10   0 1737.43   58.99
   0 -10   0 1715.23   62.39
   0 -10   0 1625.74   69.79
   0  10   0 1580.64   79.09
   0  10   0 1674.73   62.29
   0  10   0 1743.93   70.49
   1 -10   0  799.52   30.90
  -1 -10   0  869.21   30.00
   1 -10   0  795.42   35.50
  -1 -10   0  779.82   36.10
  -1  10   0  792.22   30.40
   1  10   0  832.92   41.40
  -1  10   0  866.11   36.50
  -1  10   0  793.42   30.80
   1  10   0  784.02   32.20
   2 -10   0  770.42   33.20
  -2 -10   0  669.73   34.10
  -2 -10   0  765.12   27.40
  -2  10   0  808.62   34.50
  -2  10   0  731.33   28.60
   2  10   0  739.03   30.70
   2  10   0  701.73   38.70
   3 -10   0  352.16   23.10
   3 -10   0  356.26   18.40
   3  10   0  336.97   23.30
  -3  10   0  362.86   16.70
   3  10   0  366.06   18.30
   4 -10   0  666.53   32.90
   4 -10   0  687.43   39.40
   4  10   0  717.63   31.60
   4  10   0  626.24   40.60
  -4  10   0  729.53   28.70
   0 -11   0    7.10    3.10
   0 -11   0    2.60    1.90
   0  11   0   -1.90    3.40
   0  11   0   -0.80    1.70
   1 -11   0   47.70    4.20
   1 -11   0   49.99    5.80
  -1 -11   0   52.19    6.60
   1  11   0   49.99    5.50
  -1  11   0   55.09    5.40
   1  11   0   50.29    8.10
  -1  11   0   47.80    4.20
  -2 -11   0 1074.59   37.70
  -2 -11   0 1056.99   46.90
   2 -11   0 1018.10   45.10
   2  11   0 1014.10   41.60
  -2  11   0 1003.70   38.80
   2  11   0 1079.69   52.99
   3 -11   0  216.18   13.10
   3  11   0  204.88   13.30
   3  11   0  197.78   17.60
  -3  11   0  217.38   12.20
   4 -11   0  143.19   16.30
   4  11   0  149.49   12.50
  -4  11   0  138.29   10.70
   4  11   0  134.19   18.20
   0 -12   0   57.99    6.60
   0 -12   0   64.39    5.30
   0  12   0   85.49   11.20
   0  12   0   55.39    5.30
   1 -12   0 1229.88   46.30
  -1 -12   0 1252.67   53.69
   1 -12   0 1211.48   52.69
  -1  12   0 1228.08   46.20
   1  12   0 1245.38   60.89
   1  12   0 1237.18   47.80
  -1  12   0 1206.08   45.00
   2 -12   0   58.09    6.80
  -2 -12   0   51.39    8.00
   2  12   0   71.59    7.90
  -2  12   0   51.79    6.20
   2  12   0   64.79   10.70
   3 -12   0  859.81   38.40
  -3  12   0  840.62   33.50
   3  12   0  869.81   36.50
   3  12   0  803.62   46.10
   4  12   0  281.57   24.10
  -4  12   0  286.87   15.80
   0 -13   0    0.00    3.00
   0  13   0    4.40    2.60
   0  13   0    0.80    4.30
  -1 -13   0  229.28   14.30
   1 -13   0  229.38   11.10
   1 -13   0  218.58   13.60
  -1  13   0  240.58   12.20
   1  13   0  238.98   12.60
  -1  13   0  219.68   10.90
   1  13   0  233.48   17.10
  -2 -13   0  405.76   22.20
   2 -13   0  376.76   20.40
  -2  13   0  403.76   18.40
   2  13   0  407.56   19.70
   2  13   0  401.26   25.50
   3 -13   0  311.17   17.60
   3  13   0  319.97   17.80
  -3  13   0  320.87   16.30
   3  13   0  277.87   23.00
  -4  13   0   34.00    6.40
   0 -14   0  232.68   14.10
   0  14   0  221.68   11.70
   0  14   0  207.78   16.50
  -1 -14   0  593.84   30.40
   1 -14   0  646.94   25.70
   1 -14   0  652.23   30.00
  -1  14   0  640.94   25.40
   1  14   0  593.04   34.90
   1  14   0  628.94   27.10
  -2 -14   0  167.28   13.20
   2 -14   0  167.28   11.90
  -2  14   0  164.68   10.80
   2  14   0  167.98   15.70
   2  14   0  172.08   11.60
   3 -14   0  501.95   24.70
  -3  14   0  500.85   22.40
   3  14   0  408.96   30.50
   3  14   0  493.25   24.20
   0 -15   0    2.50    3.90
   0  15   0    1.00    2.50
   0  15   0    0.40    4.50
  -1 -15   0 1406.86   61.09
   1 -15   0 1349.66   59.99
   1  15   0 1397.86   69.49
   1  15   0 1406.16   54.49
  -1  15   0 1368.16   52.49
   2 -15   0  398.46   21.60
  -2 -15   0  425.26   23.50
   2  15   0  411.16   26.90
   2  15   0  392.86   20.40
   3 -15   0  179.78   13.30
   3  15   0  157.78   18.50
  -3  15   0  188.58   12.70
   3  15   0  215.68   14.40
   0 -16   0   49.20    8.00
   0  16   0   48.20    9.70
   0  16   0   58.89    6.60
   1 -16   0  671.33   31.90
  -1 -16   0  616.54   32.20
  -1  16   0  679.93   27.00
   1  16   0  592.94   36.90
   1  16   0  679.33   28.90
  -1  16   0  678.13   38.10
   2 -16   0  153.08   11.90
  -2 -16   0  132.29   12.80
   2  16   0  144.39   11.20
   2  16   0  132.59   15.20
   3  16   0  183.58   20.70
   0 -17   0    1.30    4.00
   0  17   0    0.00    2.70
   0  17   0    2.70    5.50
   1 -17   0  189.38   13.80
  -1 -17   0  193.78   14.50
  -1  17   0  212.28   18.20
   1  17   0  200.68   17.50
   1  17   0  188.48   12.40
   2 -17   0   87.49    9.60
  -2 -17   0   79.29   10.80
   2  17   0   74.59   13.00
   2  17   0   80.89    9.70
   0 -18   0  446.06   25.20
   0  18   0  496.35   31.10
   0  18   0  455.05   21.50
   1 -18   0  505.75   25.90
  -1 -18   0  460.85   26.00
   1  18   0  458.25   22.80
  -1  18   0  460.25   30.60
   1  18   0  461.45   30.40
   2 -18   0   81.79    9.80
   2  18   0   97.29   15.00
   0 -19   0    1.90    4.30
   0  19   0    0.20    6.40
   0  19   0   -3.80    2.40
   1 -19   0   29.70    6.50
  -1  19   0   32.40    9.50
   1  19   0   39.90   10.40
   1  19   0   36.10    6.40
   5   0  -1   11.10    9.40
  -4   0   1   -3.90    2.10
   4   0  -1    6.20    8.40
   3   0  -1   90.69   10.30
  -3   0   1   63.79    3.90
   3   0  -1   68.09    3.90
  -2   0   1    8.90    1.40
  -2   0   1    3.10    3.40
  -2   0   1    5.70    2.00
   2   0  -1   21.10    5.80
   2   0  -1    4.30    1.90
  -1   0   1  176.18    7.40
   1   0  -1  173.68    6.50
   1   0  -1  192.68   10.30
  -1   0   1  182.98    9.80
   1   0  -1  176.58    7.40
  -1   0   1  168.48    6.50
   0   0  -1   -9.70    0.20
   1   0   1  828.72   37.70
   1   0   1  812.32   27.80
  -1   0  -1  773.52   27.80
  -1   0  -1  833.62   37.70
  -2   0  -1    1.70    4.40
  -2   0  -1    0.20    1.30
  -2   0  -1    1.40    1.60
   2   0   1   -2.30    5.00
   2   0   1   -0.50    1.30
   3   0   1  734.33   37.70
  -3   0  -1  709.33   26.30
  -3   0  -1  724.83   28.80
   3   0   1  758.82   26.30
   3   0   1  726.43   31.90
   4   0   1   24.60    8.80
   5   0   1  320.47   25.60
   5  -1  -1   43.10   11.30
   5   1  -1   32.90   11.50
  -4  -1   1  567.24   20.60
   4  -1  -1  561.44   33.00
  -4   1   1  629.34   24.20
   4   1  -1  545.95   33.20
  -4   1   1  569.04   21.30
   3  -1  -1  514.45   27.70
  -3  -1   1  530.35   20.90
   3  -1  -1  524.45   18.60
  -3  -1   1  498.25   18.10
   3   1  -1  506.55   28.00
  -3   1   1  493.95   20.30
  -3   1   1  503.95   18.60
  -2  -1   1 4026.50  185.08
   2  -1  -1 4193.68  185.28
  -2  -1   1 3966.00  137.59
   2  -1  -1 4284.47  138.09
  -2   1   1 4135.69  147.79
  -2   1   1 3978.70  137.99
   2   1  -1 4428.36  185.78
   2   1  -1 4014.40  148.29
  -1  -1   1  705.83   26.80
   1  -1  -1  745.23   33.60
   1  -1  -1  701.03   24.70
   1   1  -1  765.22   33.70
  -1   1   1  681.33   24.70
  -1   1   1  765.42   33.60
   1   1  -1  696.63   26.80
   0  -1  -1 6104.19  269.37
   0  -1  -1 6113.69  241.28
   0  -1   1 6192.48  202.78
   0  -1   1 5865.01  239.98
   0   1  -1 6289.07  202.98
   0   1   1 5998.30  269.27
   0   1   1 5887.81  240.88
   0   1  -1 5939.01  239.98
   0   1  -1 5982.80  216.48
  -1  -1  -1  970.80   38.20
   1  -1   1 1055.49   35.60
   1  -1   1 1030.00   47.80
  -1  -1  -1 1076.79   35.50
  -1  -1  -1 1059.59   47.80
  -1   1  -1 1019.00   35.60
  -1   1  -1 1079.29   47.90
   1   1   1 1011.30   42.20
   1   1   1 1053.69   47.90
   2  -1   1 2067.39   69.59
   2  -1   1 2035.20   93.79
  -2  -1  -1 2055.59   69.49
  -2  -1  -1 2040.80   74.89
  -2  -1  -1 1970.90   93.59
   2   1   1 2170.38   94.29
  -2   1  -1 2024.20   69.69
  -3  -1  -1  347.47   13.70
   3  -1   1  346.67   21.40
   3  -1   1  375.36   14.20
  -3  -1  -1  355.06   15.70
   3   1   1  373.16   21.90
  -3   1  -1  331.37   14.00
  -3   1  -1  360.16   15.30
  -4  -1  -1  839.32   30.10
   4  -1   1  820.82   44.20
  -4   1  -1  862.41   30.60
   4   1   1  801.12   44.40
   5  -1   1  594.94   36.60
   5   1   1  584.34   37.50
   5  -2  -1  157.88   17.70
   5   2  -1  148.79   18.70
   4  -2  -1  804.82   42.00
  -4   2   1  798.92   28.60
   4   2  -1  745.63   42.50
  -3  -2   1  127.69    7.60
   3  -2  -1  133.09   11.60
   3  -2  -1  117.99    6.10
  -3  -2   1  124.79    5.30
   3   2  -1   98.49   12.00
   3   2  -1  128.09    7.80
   3   2  -1  140.99    9.20
  -3   2   1  124.09    6.30
  -3   2   1  123.49    6.60
   2  -2  -1 2463.35   80.79
  -2  -2   1 2399.16  108.69
  -2  -2   1 2425.06   86.99
   2  -2  -1 2426.86  108.69
   2   2  -1 2312.17  108.89
   2   2  -1 2372.86   86.99
  -2   2   1 2352.16   80.79
  -1  -2   1 1298.17   46.70
   1  -2  -1 1285.27   43.40
   1  -2  -1 1276.17   58.09
  -1   2   1 1272.57   58.09
   1   2  -1 1302.27   51.99
  -1   2   1 1247.88   43.40
   1   2  -1 1224.08   46.60
   1   2  -1 1330.37   58.29
   0  -2   1  676.43   27.70
   0  -2   1  686.63   25.00
   0  -2  -1  690.83   27.90
   0  -2   1  703.53   23.40
   0  -2  -1  688.23   24.90
   0   2  -1  693.13   27.70
   0   2  -1  684.03   23.40
   0   2  -1  661.03   25.00
   0   2   1  680.53   31.30
   0   2   1  691.73   24.90
  -1  -2  -1 1224.28   52.39
  -1  -2  -1 1288.07   47.40
   1  -2   1 1295.17   59.09
   1  -2   1 1261.97   44.10
  -1  -2  -1 1348.77   59.19
   1   2   1 1312.07   52.49
   1   2   1 1375.36   59.19
  -1   2  -1 1262.87   44.20
  -1   2  -1 1371.66   59.29
   1   2   1 1221.48   47.30
   2  -2   1 2047.90   68.09
  -2  -2  -1 1924.71   67.59
   2  -2   1 1969.10   91.49
  -2  -2  -1 1988.80   91.49
  -2  -2  -1 1900.21   73.09
  -2   2  -1 1998.30   72.49
   2   2   1 2009.30   81.09
  -2   2  -1 2057.99   91.79
  -2   2  -1 1961.50   68.09
   2   2   1 2138.19   92.19
  -3  -2  -1 1157.18   44.50
  -3  -2  -1 1168.88   40.40
   3  -2   1 1172.48   56.39
   3  -2   1 1207.38   41.00
   3   2   1 1122.09   56.69
  -3   2  -1 1191.88   43.70
   3   2   1 1163.58   49.20
  -3   2  -1 1102.49   40.90
   4  -2   1   22.20    8.10
  -4  -2  -1    2.70    2.20
  -4   2  -1    5.60    3.00
   4   2   1   10.10    9.00
   5  -2   1   59.19   11.50
   5   2   1    7.80   11.80
   5  -3  -1   63.29   11.80
   5   3  -1   30.60   11.80
   4  -3  -1  235.48   18.00
   4   3  -1  222.38   19.40
  -4   3   1  216.38   10.60
  -3  -3   1  548.95   22.00
   3  -3  -1  513.15   28.00
   3  -3  -1  548.75   19.70
  -3   3   1  501.95   19.50
   3   3  -1  476.45   28.80
   3   3  -1  548.25   22.20
  -2  -3   1  694.63   23.20
  -2  -3   1  675.43   26.40
   2  -3  -1  684.93   24.30
   2  -3  -1  672.13   33.10
  -2  -3   1  645.14   32.90
   2   3  -1  722.63   29.80
   2   3  -1  697.53   33.50
   2   3  -1  647.74   26.40
  -2   3   1  664.53   24.20
   1  -3  -1  183.58    7.60
   1  -3  -1  188.08   10.50
  -1  -3   1  183.18    6.90
  -1  -3   1  184.08    8.30
   1  -3  -1  199.18    9.10
   1   3  -1  192.08    9.20
   1   3  -1  177.48    8.20
   1   3  -1  178.48   10.50
   0  -3   1 2826.92  113.29
   0  -3   1 2903.21   94.09
   0  -3  -1 2744.63  100.89
   0  -3   1 2797.52  100.59
   0  -3  -1 2748.72  111.99
   0   3  -1 2771.82  100.59
   0   3  -1 2847.62  113.69
   0   3   1 2776.42  101.59
   0   3  -1 2810.62   94.09
   0   3   1 2836.12  125.59
   1  -3   1 1579.94   71.59
   1  -3   1 1617.24   53.59
  -1  -3  -1 1569.44   71.49
   1  -3   1 1623.34   63.09
  -1   3  -1 1583.84   71.59
   1   3   1 1483.75   57.29
   1   3   1 1619.44   71.59
  -1   3  -1 1498.85   53.49
  -2  -3  -1  173.98   11.20
  -2  -3  -1  160.48    8.70
   2  -3   1  198.98   11.90
  -2  -3  -1  167.68    7.20
   2  -3   1  181.78    8.00
   2   3   1  189.28    9.70
   2   3   1  159.58    8.90
   2   3   1  180.68   12.20
  -2   3  -1  179.68   11.80
  -2   3  -1  168.08    7.90
   3  -3   1   44.40    4.60
   3  -3   1   68.89    9.00
  -3  -3  -1   51.49    3.80
   3   3   1   61.49   10.80
   3   3   1   57.89    6.10
  -3   3  -1   60.69    4.70
  -3   3  -1   49.30    5.00
  -4  -3  -1  231.98   10.10
   4  -3   1  245.08   18.50
   4   3   1  229.78   19.80
  -4   3  -1  252.27   11.60
   5  -3   1  275.97   21.60
   5   3   1  178.98   22.50
   5  -4  -1  168.08   13.30
   5  -4  -1  160.18   17.30
   5   4  -1  152.98   18.90
   4  -4  -1 1489.15   75.19
  -4   4   1 1606.14   54.69
   3  -4  -1  155.78    7.90
   3  -4  -1  178.48   12.80
  -3   4   1  153.18    8.00
   3   4  -1  160.78    9.60
   2  -4  -1 2625.74  102.39
   2  -4  -1 2620.94   86.09
  -2  -4   1 2569.64   92.49
   2  -4  -1 2444.76  115.19
  -2  -4   1 2481.05  115.09
   2   4  -1 2607.24  103.09
  -2   4   1 2525.35   85.99
   2   4  -1 2549.94  115.49
   2   4  -1 2384.56   92.39
  -1  -4   1  360.66   18.80
  -1  -4   1  378.36   13.30
   1  -4  -1  371.46   13.90
   1  -4  -1  389.96   16.60
  -1  -4   1  348.97   16.60
   1  -4  -1  378.06   18.80
   1   4  -1  366.56   18.90
  -1   4   1  390.46   16.60
   1   4  -1  346.27   14.90
  -1   4   1  358.36   13.90
   0  -4   1 2457.15   79.59
   0  -4  -1 2258.37   94.59
   0  -4   1 2362.26   84.89
   0  -4  -1 2400.66   79.59
   0  -4   1 2302.67   94.39
   0  -4  -1 2346.67   84.79
   0   4   1 2345.77   84.79
   0   4  -1 2363.96   94.59
   0   4   1 2333.67  106.29
   0   4  -1 2339.97   84.89
   0   4  -1 2438.96   79.59
  -1  -4  -1  779.32   33.80
   1  -4   1  796.22   38.00
   1  -4   1  784.82   33.00
   1  -4   1  822.82   28.40
  -1  -4  -1  828.02   38.10
  -1   4  -1  782.92   28.40
  -1   4  -1  816.12   38.10
   1   4   1  779.22   30.40
  -1   4  -1  814.52   29.60
  -1   4  -1  846.32   33.20
   1   4   1  791.42   37.90
  -2  -4  -1 2417.36   91.79
   2  -4   1 2610.84  101.09
   2  -4   1 2644.44   85.79
   2  -4   1 2481.05  114.59
  -2  -4  -1 2375.56  114.29
  -2   4  -1 2491.15  114.79
   2   4   1 2602.44  114.89
   2   4   1 2610.64  102.09
   2   4   1 2455.95   91.99
  -2   4  -1 2449.75   85.59
   3  -4   1 1702.63   68.09
  -3  -4  -1 1677.03   56.69
   3  -4   1 1630.44   78.19
   3  -4   1 1721.53   57.79
   3   4   1 1445.86   78.69
  -3   4  -1 1739.93   57.99
   4  -4   1   88.69   12.10
   4  -4   1   72.29    7.60
  -4   4  -1   86.39    6.90
   4   4   1   97.49   14.10
   5  -4   1   19.20    9.10
   5   4   1    7.30   12.00
   4  -5  -1   69.89   10.50
   4  -5  -1   59.49    7.60
  -4   5   1   63.49    6.30
   4   5  -1   66.39   12.30
   3  -5  -1  325.27   16.10
   3  -5  -1  317.07   13.30
   3  -5  -1  317.17   19.30
  -3   5   1  296.57   13.40
   3   5  -1  316.87   20.60
   3   5  -1  310.07   15.10
  -2  -5   1  645.54   25.70
   2  -5  -1  626.74   32.00
   2  -5  -1  647.64   28.00
   2  -5  -1  634.34   23.60
  -2  -5   1  642.44   22.30
  -2  -5   1  662.43   32.20
   2   5  -1  643.54   28.60
  -2   5   1  612.24   23.50
   2   5  -1  644.44   32.30
  -2   5   1  656.63   32.10
   2   5  -1  640.34   25.70
   1  -5  -1  228.38   13.50
  -1  -5   1  248.18    9.40
   1  -5  -1  248.38   10.00
   1  -5  -1  247.18   11.80
  -1  -5   1  245.28   13.80
  -1  -5   1  238.48   12.00
  -1   5   1  244.48   11.80
   1   5  -1  229.18   10.70
  -1   5   1  242.08   10.00
   1   5  -1  243.88   13.90
   0  -5   1 1491.05   50.29
   0  -5  -1 1455.25   53.39
   0  -5  -1 1353.66   50.19
   0  -5   1 1438.56   59.69
   0  -5   1 1494.65   53.59
   0  -5  -1 1462.65   59.99
   0   5  -1 1496.35   50.39
   0   5   1 1455.25   53.39
   0   5  -1 1460.75   53.59
   0   5  -1 1548.45   59.99
   0   5   1 1458.55   67.49
   0   5   1 1528.95   60.09
   1  -5   1  148.09    9.90
  -1  -5  -1  169.08   10.20
  -1  -5  -1  149.88    8.60
   1  -5   1  153.28    7.20
  -1  -5  -1  152.28    7.60
   1  -5   1  149.09    7.80
   1   5   1  153.08    9.90
   1   5   1  152.38    8.50
   1   5   1  143.39    7.60
  -1   5  -1  159.38    6.80
  -1   5  -1  154.08    9.90
  -1   5  -1  145.99    7.20
  -1   5  -1  158.48    8.00
   2  -5   1  530.55   27.10
   2  -5   1  528.15   22.70
   2  -5   1  563.84   19.90
  -2  -5  -1  510.05   26.80
  -2  -5  -1  518.15   21.50
   2   5   1  504.45   23.60
   2   5   1  522.75   27.10
  -2   5  -1  489.75   19.70
  -2   5  -1  552.04   27.40
   2   5   1  483.15   21.40
   3  -5   1  391.76   23.20
   3  -5   1  394.36   18.80
   3  -5   1  396.46   16.60
  -3  -5  -1  378.96   15.10
   3   5   1  466.55   25.80
  -3   5  -1  389.86   16.50
   4  -5   1   29.10    8.20
   4  -5   1   30.70    5.40
   4   5   1   20.40    9.60
  -4   5  -1   30.10    4.80
   4  -6  -1  636.94   30.30
   4  -6  -1  632.14   36.20
  -4   6   1  670.83   25.60
   4   6  -1  664.83   28.80
  -3  -6   1   25.80    2.30
   3  -6  -1   24.80    4.60
   3  -6  -1   22.60    3.50
   3  -6  -1   20.60    5.80
  -3   6   1   18.10    3.70
   3   6  -1   34.50    8.20
   3   6  -1   25.40    4.60
  -2  -6   1 2520.45   90.99
   2  -6  -1 2520.05   84.79
  -2  -6   1 2504.85   83.49
   2  -6  -1 2529.75  100.59
   2  -6  -1 2395.46  113.29
  -2  -6   1 2450.55  113.29
   2   6  -1 2571.44  101.49
  -2   6   1 2458.75  113.39
  -2   6   1 2326.67   84.59
   2   6  -1 2406.26   90.99
   2   6  -1 2552.34  113.89
  -1  -6   1 2899.21   95.09
  -1  -6   1 2809.82  127.79
  -1  -6   1 2841.82  102.49
   1  -6  -1 2709.73  113.49
   1  -6  -1 2818.22   95.79
  -1  -6   1 2749.12  113.89
  -1   6   1 3018.70  113.89
   1   6  -1 2919.71  128.19
  -1   6   1 2737.13   95.69
   1   6  -1 2709.43  102.39
   0  -6   1  977.80   40.30
   0  -6  -1  958.60   35.80
   0  -6  -1  981.00   34.00
   0  -6   1  960.50   36.00
   0  -6  -1  932.11   40.40
   0   6   1  934.91   45.70
   0   6   1 1014.80   40.70
   0   6   1  941.71   35.80
   0   6  -1  979.10   34.00
   0   6  -1  962.40   36.00
   0   6  -1  999.20   40.50
  -1  -6  -1   94.39    6.60
  -1  -6  -1   96.29    7.90
   1  -6   1   97.69    5.40
  -1  -6  -1   94.09    5.70
   1  -6   1   91.69    5.70
   1   6   1   89.79    7.80
  -1   6  -1   85.79    5.40
  -1   6  -1   91.19    6.00
  -1   6  -1   99.29    7.90
   1   6   1   85.49    5.70
  -1   6  -1   87.49    4.80
   1   6   1   88.39    6.30
   2  -6   1 1828.72   86.79
   2  -6   1 1986.10   65.09
  -2  -6  -1 1848.12   77.49
  -2  -6  -1 1781.52   69.49
  -2  -6  -1 1847.82   86.89
   2  -6   1 1879.81   76.19
  -2   6  -1 1888.81   87.09
   2   6   1 1830.52   69.69
   2   6   1 1927.61   87.19
  -2   6  -1 1869.21   64.89
   2   6   1 1910.91   77.39
   3  -6   1 1084.29   54.39
   3  -6   1 1135.29   46.60
  -3  -6  -1 1087.49   38.50
  -3   6  -1 1125.99   40.20
   3   6   1 1116.49   43.60
   3   6   1 1059.19   54.89
   4  -6   1  228.08   13.40
   4  -6   1  233.68   18.50
  -4   6  -1  238.48   12.30
   4  -7  -1  250.97   19.20
   4  -7  -1  251.97   15.10
   4   7  -1  268.17   15.20
  -4   7   1  258.47   13.00
  -3  -7   1  141.59    6.30
   3  -7  -1  139.99   12.40
  -3  -7   1  134.99    6.20
   3  -7  -1  152.38    9.70
   3   7  -1  146.39   13.00
  -3   7   1  139.69    8.40
   3   7  -1  131.69    9.40
   2  -7  -1 1478.65   50.89
   2  -7  -1 1436.36   59.99
   2  -7  -1 1364.26   67.89
  -2   7   1 1442.66   50.79
   2   7  -1 1511.95   68.69
   2   7  -1 1425.66   54.69
   1  -7  -1 1160.88   39.70
  -1  -7   1 1067.39   47.00
  -1  -7   1 1142.99   53.29
  -1  -7   1 1132.19   42.40
   1  -7  -1 1102.99   46.70
   1   7  -1 1132.19   53.39
  -1   7   1 1184.88   47.20
   1   7  -1 1142.19   47.20
  -1   7   1 1065.79   53.09
  -1   7   1 1082.49   39.50
   1   7  -1 1094.49   42.30
   0  -7   1 2181.78   71.29
   0  -7  -1 2077.79   75.69
   0  -7   1 1995.90   84.39
   0  -7   1 2046.40   75.79
   0  -7  -1 2180.08   71.39
   0  -7  -1 2027.20   84.69
   0   7   1 2000.70   95.39
   0   7  -1 2065.19   75.79
   0   7  -1 2067.69   71.19
   0   7   1 2032.80   75.59
   0   7  -1 2148.49   84.89
   0   7   1 2149.88   85.09
   1  -7   1 1142.69   47.10
   1  -7   1 1163.38   40.40
  -1  -7  -1 1151.08   43.00
  -1  -7  -1 1178.98   54.19
  -1  -7  -1 1143.79   48.20
  -1  -7  -1 1161.98   39.90
   1  -7   1 1105.19   42.00
  -1   7  -1 1110.09   47.50
   1   7   1 1114.59   43.00
  -1   7  -1 1143.09   41.90
   1   7   1 1140.29   54.09
  -1   7  -1 1144.39   54.29
   1   7   1 1142.39   48.00
  -1   7  -1 1095.39   40.30
   2  -7   1  897.11   32.30
   2  -7   1  864.51   43.50
  -2  -7  -1  812.02   38.40
   2  -7   1  911.11   37.30
  -2  -7  -1  894.01   43.40
  -2   7  -1  867.21   32.30
   2   7   1  844.62   34.60
   2   7   1  936.61   43.90
  -3  -7  -1  729.73   25.90
   3  -7   1  690.93   37.40
   3  -7   1  742.73   31.50
   3   7   1  688.23   38.00
  -3   7  -1  717.93   27.60
   3   7   1  691.83   29.90
   4  -7   1  449.76   29.00
   4  -7   1  488.15   23.30
  -4   7  -1  491.65   20.70
   4  -8  -1   17.80    5.10
   4  -8  -1   24.30    7.90
   4   8  -1   20.50    5.70
  -4   8   1   21.60    4.70
   4   8  -1    4.70   12.70
   3  -8  -1  129.79    9.30
   3  -8  -1  120.69   12.20
   3   8  -1  126.79   12.60
  -3   8   1  124.79    8.10
   3   8  -1  144.09    9.80
   2  -8  -1   80.49    8.40
  -2  -8   1   62.89    6.50
   2  -8  -1   69.69    6.30
  -2  -8   1   63.69    4.30
   2   8  -1   67.89    8.40
  -2   8   1   75.99    5.80
   2   8  -1   64.69    6.20
  -1  -8   1 1106.99   48.60
   1  -8  -1 1092.09   48.20
   1  -8  -1 1181.28   41.00
  -1  -8   1 1174.08   43.70
  -1  -8   1 1247.98   40.40
  -1  -8   1 1155.18   54.99
  -1   8   1 1096.59   40.80
   1   8  -1 1161.08   48.80
  -1   8   1 1071.09   54.99
  -1   8   1 1223.48   48.90
   1   8  -1 1098.69   43.60
   1   8  -1 1171.98   55.29
   0  -8  -1  991.80   43.90
   0  -8  -1 1065.49   37.10
   0  -8  -1 1027.00   39.00
   0  -8   1 1063.19   39.20
   0  -8   1 1089.49   37.00
   0  -8   1  992.40   43.70
   0   8  -1 1025.80   39.10
   0   8  -1 1087.79   44.30
   0   8  -1 1035.60   37.00
   0   8   1 1019.30   38.90
   0   8   1 1089.89   44.50
   0   8   1  993.70   49.80
   1  -8   1  662.63   28.90
  -1  -8  -1  735.03   34.30
   1  -8   1  655.43   25.00
   1  -8   1  656.33   25.50
  -1  -8  -1  651.53   30.00
  -1  -8  -1  681.33   24.60
  -1  -8  -1  705.93   26.80
  -1   8  -1  676.13   34.20
   1   8   1  653.73   26.60
  -1   8  -1  624.94   29.30
  -1   8  -1  685.53   25.60
   1   8   1  697.23   30.00
   1   8   1  639.84   33.70
  -1   8  -1  644.74   25.00
  -2  -8  -1  436.56   22.20
   2  -8   1  476.95   20.90
   2  -8   1  450.15   25.20
   2   8   1  454.15   25.40
  -2   8  -1  451.45   18.50
   2   8   1  446.46   19.90
   3  -8   1  582.04   25.40
   3  -8   1  544.25   30.90
   3   8   1  523.25   31.00
   3   8   1  546.05   24.60
  -3   8  -1  546.25   22.40
   4  -8   1  368.96   24.80
   4  -8   1  370.56   19.00
  -4   8  -1  360.96   17.40
   4  -9  -1  464.35   29.20
   4  -9  -1  459.65   23.60
   4   9  -1  443.26   31.90
   4   9  -1  483.75   23.20
  -4   9   1  463.65   20.40
   3  -9  -1  902.21   46.00
   3  -9  -1  875.21   39.40
   3   9  -1  852.41   46.40
  -3   9   1  909.91   33.90
   3   9  -1  907.91   36.90
   2  -9  -1 1365.86   59.29
  -2  -9   1 1482.35   49.20
  -2  -9   1 1382.96   60.49
   2   9  -1 1453.85   68.29
  -2   9   1 1419.26   50.59
   2   9  -1 1379.26   54.19
  -1  -9   1  635.54   22.80
  -1  -9   1  637.14   25.00
   1  -9  -1  620.74   27.40
   1  -9  -1  630.24   23.50
  -1  -9   1  584.14   27.70
  -1   9   1  566.64   31.90
   1   9  -1  623.04   27.90
   1   9  -1  596.24   31.90
  -1   9   1  592.74   23.30
  -1   9   1  610.54   23.20
  -1   9   1  612.24   28.00
   1   9  -1  599.74   24.80
   0  -9   1 4526.15  144.29
   0  -9  -1 4174.08  171.48
   0  -9   1 4288.57  153.68
   0  -9   1 4097.39  171.08
   0  -9  -1 4204.18  153.48
   0  -9  -1 4524.95  144.39
   0   9  -1 4537.65  171.88
   0   9  -1 4200.38  144.09
   0   9  -1 3930.91  192.68
   0   9   1 4206.18  153.48
   0   9   1 4430.26  171.98
   0   9  -1 4144.69  153.58
   0   9   1 4123.79  192.68
  -1  -9  -1 1955.90   91.39
  -1  -9  -1 2013.10   72.69
   1  -9   1 1922.71   71.39
   1  -9   1 1930.71   80.09
  -1  -9  -1 2053.39   67.69
  -1  -9  -1 1986.30   81.29
  -1   9  -1 2091.99   80.99
  -1   9  -1 1911.81   68.09
   1   9   1 1903.01   72.49
  -1   9  -1 1800.42   91.39
  -1   9  -1 1923.51   71.39
   1   9   1 1974.10   91.19
   2  -9   1  543.15   24.20
  -2  -9  -1  548.05   20.30
  -2  -9  -1  498.95   25.60
  -2   9  -1  525.75   21.40
   2   9   1  553.04   29.30
   2   9   1  512.65   22.90
   3  -9   1   64.99   10.30
   3  -9   1   60.49    6.50
   3   9   1   68.29   10.90
   3   9   1   49.90    6.70
  -3   9  -1   53.39    6.20
   4  -9   1  515.85   32.10
   4   9   1  537.95   35.00
  -4   9  -1  530.25   23.10
   4 -10  -1  196.78   18.30
   4 -10  -1  201.98   13.50
  -4  10   1  201.08   12.20
   4  10  -1  190.58   19.70
   4  10  -1  196.68   13.90
   3 -10  -1  247.28   18.40
   3 -10  -1  258.07   14.70
  -3  10   1  251.47   13.00
   3  10  -1  254.77   14.40
   3  10  -1  237.38   18.80
  -2 -10   1  149.29   10.90
   2 -10  -1  164.68   10.30
  -2 -10   1  154.68    7.80
   2  10  -1  153.48   13.30
  -2  10   1  152.98    9.00
   2  10  -1  151.88    9.80
  -1 -10   1  911.71   31.70
   1 -10  -1  855.41   37.90
  -1 -10   1  831.32   38.20
   1 -10  -1  851.31   32.70
  -1  10   1  833.02   32.20
  -1  10   1  983.70   39.20
   1  10  -1  872.51   44.00
   1  10  -1  850.11   34.30
  -1  10   1  838.02   32.60
   0 -10   1   42.70    4.40
   0 -10  -1   36.10    4.80
   0 -10  -1   35.30    3.90
   0 -10  -1   54.69    5.20
   0 -10   1   44.50    4.20
   0 -10   1   38.30    4.90
   0  10   1   38.20    4.10
   0  10  -1   54.09    6.30
   0  10   1   52.39    7.70
   0  10  -1   48.20    7.60
   0  10  -1   42.60    4.40
   0  10   1   48.80    5.70
   0  10  -1   43.30    4.70
  -1 -10  -1 1247.48   52.59
  -1 -10  -1 1295.57   43.60
   1 -10   1 1202.58   45.50
   1 -10   1 1174.58   51.19
  -1  10  -1 1192.38   43.90
   1  10   1 1214.78   58.99
  -1  10  -1 1284.27   52.39
  -1  10  -1 1151.88   45.20
   1  10   1 1191.48   46.60
  -2 -10  -1  247.48   10.90
   2 -10   1  230.78   12.80
  -2 -10  -1  242.88   14.60
  -2  10  -1  230.68   13.20
  -2  10  -1  225.78   11.80
   2  10   1  236.88   16.60
   2  10   1  212.38   12.50
   3 -10   1  138.59    9.60
   3 -10   1  131.69   13.80
  -3  10  -1  133.59    9.60
   3  10   1  127.29   13.60
   3  10   1  133.39   10.50
   4 -10   1   69.69   12.00
   4  10   1   80.39   16.60
  -4  10  -1   89.59    8.90
   4 -11  -1  259.07   15.80
   4 -11  -1  267.17   21.20
   4  11  -1  254.17   16.30
   4  11  -1  233.38   22.10
  -4  11   1  258.37   14.40
   3  11  -1  933.41   37.80
  -3  11   1  897.31   34.60
   3  11  -1  840.82   47.60
  -2 -11   1  301.57   12.40
   2 -11  -1  279.87   15.40
  -2 -11   1  270.77   16.30
   2  11  -1  284.27   19.30
  -2  11   1  263.37   13.50
   2  11  -1  272.17   14.50
   1 -11  -1   62.89    6.50
  -1 -11   1   74.09    5.60
   1 -11  -1   67.59    4.70
  -1 -11   1   69.09    6.90
   1  11  -1   68.79    6.20
  -1  11   1   71.39    4.70
   1  11  -1   67.89    9.10
   0 -11   1   21.10    3.40
   0 -11  -1   15.30    2.80
   0 -11   1   21.90    3.90
   0 -11  -1   25.80    4.70
   0  11  -1   22.10    3.50
   0  11   1   15.80    5.10
   0  11   1   25.80    3.70
   0  11  -1   16.00    5.30
   0  11  -1   23.50    3.60
   1 -11   1 1743.73   64.79
   1 -11   1 1649.93   72.69
  -1 -11  -1 1786.62   74.19
   1  11   1 1733.03   65.99
  -1  11  -1 1690.43   64.59
  -1  11  -1 1699.53   62.09
  -1  11  -1 1970.90   74.89
   1  11   1 1776.12   83.39
   2 -11   1 1148.19   49.30
  -2 -11  -1 1164.08   51.39
   2  11   1 1135.79   45.80
  -2  11  -1 1158.18   42.90
   2  11   1 1164.28   57.59
   3 -11   1   79.89    7.80
   3  11   1   83.49   12.10
  -3  11  -1   80.59    8.00
   3  11   1   72.39    8.20
   4 -11   1  313.57   23.80
   4  11   1  282.17   25.10
  -4  11  -1  337.17   16.80
   4  12  -1  341.37   27.30
  -4  12   1  374.56   18.20
   4  12  -1  369.16   21.60
   3 -12  -1  540.45   25.10
   3  12  -1  528.75   24.20
  -3  12   1  475.45   21.70
   3  12  -1  423.66   30.20
   2 -12  -1  434.86   22.00
  -2 -12   1  427.66   23.20
   2  12  -1  439.66   20.70
  -2  12   1  443.76   19.30
   2  12  -1  457.35   27.10
  -1 -12   1  978.60   44.40
   1 -12  -1 1023.00   38.10
   1 -12  -1 1022.40   44.20
   1  12  -1 1014.10   39.80
   1  12  -1  974.40   50.99
  -1  12   1 1001.80   37.90
   0 -12   1  442.76   22.10
   0 -12  -1  453.75   22.40
   0 -12  -1  457.55   19.30
   0  12   1  472.05   19.40
   0  12   1  450.65   25.90
   0  12  -1  446.66   19.40
   0  12  -1  447.26   26.30
  -1 -12  -1   58.19    7.60
   1 -12   1   59.79    5.00
   1 -12   1   55.59    6.40
  -1  12  -1   53.19    5.90
   1  12   1   55.39    8.50
   1  12   1   56.09    5.90
  -1  12  -1   55.09    4.80
  -2 -12  -1  349.47   20.20
   2 -12   1  358.36   18.50
  -2  12  -1  357.26   16.80
   2  12   1  374.06   23.30
   2  12   1  368.16   18.00
   3 -12   1  313.17   17.10
   3  12   1  283.07   22.40
   3  12   1  320.37   17.60
  -3  12  -1  341.77   16.40
  -4  12  -1   38.00    6.90
   4  12   1   47.60   12.70
   3 -13  -1  620.14   29.90
  -3  13   1  626.74   26.20
   3  13  -1  573.64   36.60
   3  13  -1  624.24   28.60
  -2 -13   1    6.60    4.10
   2 -13  -1    8.20    3.90
   2  13  -1    8.70    6.10
   2  13  -1    8.80    3.60
  -1 -13   1  144.49   10.70
   1 -13  -1  142.79    8.00
   1 -13  -1  140.19   10.40
  -1  13   1  148.99    7.90
   1  13  -1  140.19    9.40
   1  13  -1  139.19   13.30
   0 -13   1   34.40    5.30
   0 -13  -1   40.30    6.20
   0  13   1   34.10    7.10
   0  13  -1   40.50    7.90
   0  13   1   33.10    4.50
   0  13  -1   39.20    5.20
   1 -13   1  662.63   31.10
   1 -13   1  660.53   27.20
  -1 -13  -1  695.83   32.50
  -1  13  -1  666.23   27.00
  -1  13  -1  683.83   27.20
   1  13   1  689.33   36.80
   1  13   1  689.23   28.50
  -2 -13  -1  181.98   13.30
   2 -13   1  174.48   11.60
   2  13   1  173.38   15.50
   2  13   1  182.08   11.70
  -2  13  -1  170.48   10.90
   3 -13   1  332.17   18.00
  -3  13  -1  331.47   17.00
   3  13   1  303.87   23.70
   3  13   1  341.37   18.60
  -4  13  -1   70.89    8.60
   3 -14  -1   29.90    6.30
   3  14  -1   35.90   10.60
   3  14  -1   36.70    7.30
  -2 -14   1  371.56   21.40
   2 -14  -1  360.76   20.10
   2  14  -1  395.66   19.20
   2  14  -1  359.56   24.70
   1 -14  -1 1115.19   42.90
  -1 -14   1 1147.09   50.19
   1 -14  -1 1068.39   49.30
  -1  14   1 1088.19   42.60
   1  14  -1 1166.48   57.69
   1  14  -1 1149.58   44.80
   0 -14  -1  514.25   25.90
   0 -14   1  503.25   25.60
   0  14   1  507.45   30.00
   0  14  -1  524.15   30.40
   0  14  -1  537.35   22.60
   0  14   1  537.05   22.40
  -1 -14  -1   16.40    5.10
   1 -14   1    8.00    4.10
   1  14   1    5.70    3.20
  -1  14  -1    8.30    3.50
  -1  14  -1   10.60    3.00
   1  14   1   11.30    5.90
   2 -14   1  471.05   23.50
  -2 -14  -1  476.45   25.50
   2  14   1  454.85   28.80
   2  14   1  471.75   22.50
  -2  14  -1  459.55   21.00
   3 -14   1  395.86   20.70
  -3  14  -1  394.36   19.20
   3  14   1  387.16   20.80
   3  14   1  345.27   26.60
   3 -15  -1  112.19   10.30
   3  15  -1  100.19   11.00
   3  15  -1   68.69   13.50
  -2 -15   1   18.30    5.60
   2 -15  -1   30.80    6.10
   2  15  -1   35.80    9.30
   2  15  -1   29.30    5.80
   1 -15  -1  805.42   37.50
  -1 -15   1  792.92   37.90
   1  15  -1  811.12   33.80
   1  15  -1  801.22   43.90
  -1  15   1  800.42   43.60
  -1  15   1  808.42   31.80
   0 -15   1  255.57   15.50
   0 -15  -1  241.38   15.40
   0  15  -1  249.48   13.10
   0  15   1  270.47   13.10
   0  15   1  238.28   18.40
   0  15  -1  232.48   18.40
   1 -15   1  665.63   31.40
  -1 -15  -1  652.93   32.40
   1  15   1  657.53   28.50
  -1  15  -1  672.23   27.00
   1  15   1  638.84   36.80
   2 -15   1   23.90    5.60
  -2 -15  -1   25.30    6.60
   2  15   1   25.30    8.80
   2  15   1   31.70    6.30
  -2  15  -1   22.20    5.20
   3  15   1  183.08   13.50
  -3  15  -1  171.28   12.20
   3  15   1  119.29   16.70
   3 -16  -1   22.20    6.00
   2 -16  -1   31.20    6.50
  -2 -16   1   33.00    7.80
   2  16  -1   36.80    6.50
   2  16  -1   31.20    9.10
  -1 -16   1 1202.48   52.99
   1 -16  -1 1142.59   52.09
   1  16  -1 1218.38   60.89
   1  16  -1 1231.28   47.40
  -1  16   1 1114.19   44.80
  -1  16   1 1103.99   59.99
   0 -16   1  406.16   21.60
   0 -16  -1  383.56   21.50
   0  16  -1  387.86   18.40
   0  16   1  388.96   18.20
   0  16   1  385.76   25.40
   0  16  -1  369.36   25.30
   1 -16   1  211.38   14.00
  -1 -16  -1  224.18   15.20
  -1  16  -1  203.48   11.30
   1  16   1  223.68   13.00
   1  16   1  208.78   17.50
   2 -16   1  292.47   17.20
  -2 -16  -1  285.07   19.10
   2  16   1  301.87   16.80
  -2  16  -1  272.97   15.70
   2  16   1  287.67   22.10
   3  16   1  229.58   21.60
  -2 -17   1   85.29   11.10
   2 -17  -1   92.19   10.10
   2  17  -1   85.49    9.90
   2  17  -1   89.79   14.70
   1 -17  -1  128.29   11.40
  -1 -17   1  126.79   11.60
   1  17  -1  114.99   14.00
   1  17  -1  127.69   10.10
  -1  17   1  139.29   14.60
   0 -17  -1  261.37   16.50
   0 -17   1  236.38   15.80
   0  17   1  255.67   20.00
   0  17  -1  224.08   13.20
   0  17  -1  244.78   19.70
   0  17   1  225.48   13.00
  -1 -17  -1  536.05   28.80
   1 -17   1  547.25   27.90
  -1  17  -1  537.25   23.60
  -1  17  -1  568.14   34.30
   1  17   1  531.55   33.10
   1  17   1  575.84   25.50
   2 -17   1  149.59   11.90
  -2 -17  -1  148.19   13.70
   2  17   1  162.28   16.60
   2  17   1  143.29   11.60
   2 -18  -1   67.89    9.30
   2  18  -1   81.59   15.00
  -1 -18   1  437.46   25.00
   1 -18  -1  465.15   25.10
  -1  18   1  455.25   29.70
   1  18  -1  440.96   22.10
   1  18  -1  460.85   29.90
   0 -18   1   71.19    9.00
   0 -18  -1   78.89   10.40
   0  18   1   74.59   12.60
   0  18  -1   75.59    7.50
   0  18   1   72.29    7.20
   0  18  -1   83.79   13.70
   1 -18   1  169.88   13.20
  -1 -18  -1  175.88   13.80
   1  18   1  161.88   16.50
  -1  18  -1  167.38   17.10
   1  18   1  156.18   11.50
   2 -18   1   32.50    6.90
   2  18   1   26.60    9.50
   1 -19  -1   22.30    6.30
   1  19  -1   26.30    9.30
  -1  19   1   31.30    9.70
   1  19  -1   23.10    5.70
   0 -19  -1    6.60    5.40
   0 -19   1    7.40    4.80
   0  19  -1    9.70    7.70
   0  19   1    4.70    3.40
   0  19  -1    1.50    3.20
   0  19   1   -0.10    6.30
   1 -19   1  557.24   29.60
  -1  19  -1  536.05   35.50
   1  19   1  596.54   26.90
   1  19   1  571.14   35.50
   5   0  -2   79.99   14.90
   4   0  -2  214.88   18.20
   3   0  -2  111.19   11.40
  -3   0   2  115.59    6.70
  -3   0   2  108.19    5.00
   3   0  -2  117.49    5.00
   2   0  -2 4315.97  140.29
  -2   0   2 4240.08  188.58
  -2   0   2 4226.18  150.78
   2   0  -2 4458.35  188.98
   2   0  -2 4094.89  150.78
  -2   0   2 3908.81  140.19
   1   0  -2 1189.18   45.20
   1   0  -2 1463.05   61.19
  -1   0   2 1408.06   60.99
   0   0  -2 6410.36  215.68
   1   0   2 1650.43   69.99
  -1   0  -2 1687.63   59.39
   1   0   2 1766.72   79.39
   1   0   2 1798.92   59.49
  -1   0  -2 1873.41   79.69
   2   0   2  199.28    8.20
   2   0   2  196.08   13.00
  -2   0  -2  194.98   12.70
   2   0   2  188.58    9.50
  -2   0  -2  179.48    8.10
  -2   0  -2  192.08    9.10
  -3   0  -2 1496.65   54.19
   3   0   2 1593.74   64.59
   3   0   2 1643.44   54.29
   3   0   2 1516.95   74.29
   4   0   2  160.88   16.20
  -4   0  -2  160.68    8.50
   5   0   2  470.35   32.10
   5  -1  -2   84.89   12.90
   5   1  -2   61.19   13.00
   4  -1  -2  298.67   21.10
  -4   1   2  295.47   11.60
   4   1  -2  286.47   21.50
   3  -1  -2  448.16   16.30
   3  -1  -2  442.66   24.90
  -3  -1   2  446.56   18.60
  -3   1   2  432.86   16.30
  -3   1   2  477.75   18.30
   3   1  -2  451.65   18.80
   3   1  -2  443.46   25.10
   2  -1  -2  277.67   15.30
  -2  -1   2  252.07   14.50
   2  -1  -2  260.37   10.90
   2  -1  -2  263.17    9.90
   2   1  -2  254.37   11.30
  -2   1   2  270.77   10.90
  -2   1   2  265.07   15.10
   2   1  -2  284.57   15.80
  -1  -1   2  618.84   29.10
   1  -1  -2  631.24   29.20
  -1  -1   2  630.54   23.40
   1  -1  -2  604.34   21.50
   1   1  -2  643.94   29.20
  -1   1   2  639.54   29.10
   1   1  -2  605.44   23.30
   0  -1  -2  120.29    5.90
   0  -1  -2  126.59    6.40
   0  -1   2  137.19    5.10
   0   1  -2  135.79    5.60
   0   1   2  126.89    5.90
   0   1  -2  117.29    6.40
   0   1  -2  139.79    5.10
   0   1   2  123.29    6.30
  -1  -1  -2 7902.91  341.67
   1  -1   2 8493.65  285.77
  -1  -1  -2 8549.34  288.17
   1  -1   2 8579.94  382.96
  -1  -1  -2 8950.50  383.46
  -1   1  -2 8984.00  381.86
   1   1   2 9293.47  384.76
   1   1   2 8197.68  339.87
  -1   1  -2 8256.67  288.67
   2  -1   2  453.85   16.10
   2  -1   2  425.46   22.60
  -2  -1  -2  416.26   22.30
  -2  -1  -2  404.56   15.80
  -2  -1  -2  426.16   17.50
  -2   1  -2  436.46   17.30
  -2   1  -2  403.36   23.00
   2   1   2  436.96   23.00
  -2   1  -2  432.76   16.10
  -3  -1  -2 1321.97   47.10
   3  -1   2 1359.46   47.30
  -3  -1  -2 1349.77   51.19
   3  -1   2 1382.66   65.09
   3   1   2 1389.16   65.39
  -3   1  -2 1353.56   50.79
  -3   1  -2 1302.77   47.30
   4  -1   2   43.90   10.30
  -4  -1  -2   36.10    4.00
   4   1   2   52.19   10.90
  -4   1  -2   35.90    4.30
   5  -1   2  479.95   31.10
   5   1   2  410.36   31.00
   5  -2  -2   53.69   11.60
   5   2  -2   63.79   14.10
   4  -2  -2   79.19   11.30
  -4   2   2   57.89    5.00
   4   2  -2   80.49   12.60
   3  -2  -2  152.08   12.40
   3  -2  -2  155.48    7.10
  -3  -2   2  161.48    8.70
   3   2  -2  149.39   13.40
  -3   2   2  160.28    7.20
   3   2  -2  160.78    8.80
   2  -2  -2 2634.04  119.29
   2  -2  -2 2700.53   88.79
  -2  -2   2 2644.64   95.49
   2   2  -2 2440.96   95.49
  -2   2   2 2481.15   88.69
   2   2  -2 2718.33  119.69
  -2   2   2 2841.82  119.59
  -1  -2   2 2232.38   98.69
   1  -2  -2 2213.68   98.59
   1  -2  -2 2108.49   73.89
   1   2  -2 2289.17   98.89
  -1   2   2 2354.06   98.69
   1   2  -2 1999.20   79.29
   0  -2   2  258.07    9.00
   0  -2   2  232.48    9.60
   0  -2  -2  236.98   10.70
   0  -2   2  243.08   10.30
   0  -2  -2  233.68   11.90
   0   2  -2  244.58   10.30
   0   2  -2  249.88    8.90
   0   2   2  229.58   11.80
   0   2   2  247.98   10.70
   0   2  -2  246.18    9.70
   1  -2   2  876.41   29.90
  -1  -2  -2  802.22   35.20
   1  -2   2  855.41   40.00
  -1  -2  -2  840.22   32.00
  -1  -2  -2  886.11   40.00
   1   2   2  843.62   35.20
  -1   2  -2  846.62   29.90
   1   2   2  898.51   40.10
  -1   2  -2  883.11   40.10
  -2  -2  -2 2627.14   91.39
   2  -2   2 2676.43   91.79
   2  -2   2 2696.53  122.99
  -2  -2  -2 2657.73  122.89
  -2  -2  -2 2645.44   98.49
  -2   2  -2 2779.72  123.29
  -2   2  -2 2684.23   91.89
   2   2   2 2902.31  123.69
   3  -2   2  922.21   45.90
  -3  -2  -2  914.41   32.70
   3   2   2  852.51   46.40
   3   2   2  951.90   39.60
  -3   2  -2  926.61   35.40
  -3   2  -2  941.51   33.40
   4  -2   2   75.49   11.70
  -4  -2  -2   77.59    5.60
   4   2   2   88.99   13.30
  -4   2  -2   87.89    6.60
   5  -2   2  314.87   23.80
   5   2   2  225.88   24.00
   5  -3  -2  160.88   17.80
   5   3  -2  166.38   19.80
   4  -3  -2 2137.59  103.89
  -4   3   2 2264.47   75.59
   3  -3  -2  325.37   19.40
   3  -3  -2  333.87   13.00
  -3  -3   2  341.17   14.90
   3   3  -2  283.87   20.50
  -3   3   2  328.47   13.00
   3   3  -2  338.97   15.00
   2  -3  -2 3084.39  140.99
  -2  -3   2 3160.98  113.19
   2  -3  -2 3133.89  105.29
   2   3  -2 2984.20  113.09
   2   3  -2 3235.98  141.49
  -2   3   2 3251.97  141.29
  -2   3   2 2994.60  105.19
   2   3  -2 3164.88  126.29
  -1  -3   2 1138.39   40.80
   1  -3  -2 1166.08   45.30
   1  -3  -2 1096.39   50.39
  -1  -3   2 1087.39   37.10
   1  -3  -2 1114.89   37.90
  -1   3   2 1077.59   50.39
   1   3  -2 1096.99   50.59
   1   3  -2 1050.09   37.10
   1   3  -2 1093.59   40.70
   0  -3   2 6841.12  247.08
   0  -3  -2 7062.69  247.88
   0  -3   2 6836.92  274.87
   0  -3  -2 6699.53  276.97
   0  -3   2 7027.00  232.28
   0   3   2 7116.29  277.07
   0   3  -2 6974.30  232.48
   0   3  -2 6803.02  274.97
   0   3  -2 6776.62  246.88
   0   3   2 6736.73  307.67
  -1  -3  -2 1982.30   90.39
   1  -3   2 2009.40   90.59
  -1  -3  -2 1975.00   80.59
   1  -3   2 2022.70   67.89
  -1   3  -2 2033.60   90.59
   1   3   2 2134.79   90.59
   1   3   2 1920.51   80.39
  -1   3  -2 1913.81   67.89
   2  -3   2  642.54   23.50
  -2  -3  -2  629.74   22.90
  -2  -3  -2  637.14   25.40
  -2  -3  -2  633.24   31.90
   2  -3   2  624.74   31.80
   2   3   2  636.14   27.80
  -2   3  -2  668.43   32.50
   2   3   2  664.73   32.50
  -2   3  -2  640.44   23.60
   3  -3   2  731.63   27.20
   3  -3   2  720.83   37.60
  -3  -3  -2  695.73   26.40
   3   3   2  690.83   38.70
  -3   3  -2  773.12   28.90
  -3   3  -2  768.22   27.50
   3   3   2  755.02   32.60
  -4  -3  -2  128.99    7.00
   4  -3   2  128.39   14.10
  -4   3  -2  128.89    8.10
   4   3   2  122.39   14.80
   5  -3   2  265.57   21.70
   5   3   2  180.98   22.50
   5  -4  -2   50.99    8.00
   5  -4  -2   38.30    9.80
   5   4  -2   29.60   11.80
   4  -4  -2   47.80    8.80
   4   4  -2   42.00   10.70
  -4   4   2   25.40    4.10
   4   4  -2   30.80    5.80
   3  -4  -2  277.37   11.40
   3  -4  -2  254.57   16.70
   3   4  -2  276.87   13.20
  -3   4   2  271.07   11.40
   3   4  -2  248.08   18.00
   2  -4  -2   89.79    5.30
   2  -4  -2   98.19    6.70
  -2  -4   2  101.89    6.30
   2  -4  -2   97.69    8.00
  -2   4   2   98.09    8.20
   2   4  -2  107.59    7.20
   2   4  -2   92.49    8.10
   2   4  -2   86.49    6.10
  -2   4   2   86.29    5.30
   1  -4  -2  490.25   20.20
   1  -4  -2  445.16   22.30
  -1  -4   2  443.96   16.00
   1  -4  -2  465.25   16.80
   1   4  -2  434.36   16.00
   1   4  -2  443.46   18.10
   1   4  -2  472.75   22.90
  -1   4   2  462.95   20.10
   0  -4   2   67.59    4.30
   0  -4  -2   67.09    4.70
   0  -4  -2   64.59    3.80
   0  -4   2   70.79    3.80
   0  -4   2   67.09    4.10
   0   4   2   66.79    3.80
   0   4   2   67.49    5.70
   0   4  -2   67.19    4.10
   0   4  -2   66.29    3.80
   0   4  -2   66.99    4.30
   0   4   2   65.69    4.40
   1  -4   2  524.45   19.10
  -1  -4  -2  552.94   25.70
  -1  -4  -2  495.25   22.70
   1  -4   2  499.75   21.60
   1  -4   2  511.15   25.60
   1   4   2  531.75   25.60
   1   4   2  497.65   20.40
  -1   4  -2  526.95   21.70
  -1   4  -2  536.85   20.00
  -1   4  -2  536.45   25.80
  -1   4  -2  507.75   19.10
   2  -4   2  228.28   10.60
   2  -4   2  224.18    9.80
   2  -4   2  228.28   13.90
  -2  -4  -2  205.48   13.30
  -2  -4  -2  205.38   10.70
  -2  -4  -2  210.08    9.10
   2   4   2  232.88   14.30
  -2   4  -2  240.48   14.30
   2   4   2  223.38   11.60
  -2   4  -2  215.38    9.80
   3  -4   2   35.60    4.10
  -3  -4  -2   44.10    3.90
   3  -4   2   48.20    5.20
   3  -4   2   52.69    8.30
  -3   4  -2   34.40    4.30
  -3   4  -2   47.30    4.50
   3   4   2   44.70   10.60
   4  -4   2   27.50    4.90
  -4  -4  -2   29.40    3.70
   4  -4   2   23.80    7.90
  -4   4  -2   29.80    4.60
   4   4   2   29.80   10.10
   5  -4   2   23.40   10.10
   5   4   2   -4.80   11.60
   5  -5  -2  143.29   12.40
   4  -5  -2 1779.72   76.79
   4  -5  -2 1747.43   87.29
  -4   5   2 1862.81   63.79
   4   5  -2 1906.41   69.99
   3  -5  -2  492.25   27.80
   3  -5  -2  554.24   20.10
   3  -5  -2  526.15   24.30
   3   5  -2  492.95   28.70
  -3   5   2  516.35   20.00
   3   5  -2  523.75   22.30
   2  -5  -2 1458.15   68.69
  -2  -5   2 1508.05   55.29
  -2  -5   2 1424.46   49.70
   2  -5  -2 1518.35   60.99
  -2  -5   2 1453.15   68.59
   2  -5  -2 1497.15   51.19
   2   5  -2 1514.25   69.09
  -2   5   2 1393.86   50.99
  -2   5   2 1506.65   68.69
   2   5  -2 1448.96   55.19
   2   5  -2 1489.35   61.59
  -1  -5   2  214.88    8.10
  -1  -5   2  205.78   10.60
   1  -5  -2  206.48    8.80
   1  -5  -2  209.58   10.60
   1   5  -2  196.28    9.50
  -1   5   2  198.68   11.70
   1   5  -2  197.08    8.10
  -1   5   2  216.38   10.60
   1   5  -2  209.98   12.50
   1   5  -2  209.48   10.60
   0  -5   2 9442.06  381.96
   0  -5   2 9822.52  343.67
   0  -5  -2 9744.42  344.47
   0  -5  -2 9256.87  384.26
   0  -5   2 9999.00  321.57
   0   5  -2 9522.65  381.36
   0   5  -2 9373.86  322.47
   0   5  -2 9434.86  344.37
   0   5   2 9601.04  428.26
   0   5   2 9320.97  343.97
   1  -5   2 2902.11   93.09
  -1  -5  -2 2832.52  110.79
  -1  -5  -2 2804.82  123.99
  -1  -5  -2 2682.03   99.39
   1  -5   2 2649.43  109.39
   1  -5   2 2744.43  124.09
  -1   5  -2 2831.12  109.69
   1   5   2 2703.33  123.79
  -1   5  -2 2670.93  123.99
  -1   5  -2 2677.03   98.69
   1   5   2 2755.52  110.59
   1   5   2 2723.83   99.49
  -1   5  -2 2649.73   92.99
  -2  -5  -2  892.71   35.20
  -2  -5  -2  813.62   38.80
   2  -5   2  926.51   37.60
   2  -5   2  888.11   44.10
   2  -5   2  947.31   32.90
  -2  -5  -2  901.81   43.90
   2   5   2  918.01   38.90
   2   5   2  882.31   35.30
  -2   5  -2  886.71   32.80
   2   5   2  927.41   44.20
  -2   5  -2  987.30   44.70
   3  -5   2 1033.30   52.29
  -3  -5  -2 1052.99   37.40
   3  -5   2 1071.29   44.40
  -3   5  -2 1093.79   40.10
  -3   5  -2 1039.80   38.60
   4  -5   2  534.25   24.40
   4  -5   2  496.65   30.70
  -4   5  -2  531.65   21.70
   5  -6  -2   58.39    8.60
   4  -6  -2   10.20    4.90
   4  -6  -2   12.50    6.50
  -4   6   2    9.80    3.70
   4   6  -2   14.60    4.80
   4   6  -2   48.50   13.10
   3  -6  -2   42.60    7.80
   3  -6  -2   40.20    5.40
   3  -6  -2   50.69    4.80
   3   6  -2   54.99    9.10
  -3   6   2   40.10    4.40
   3   6  -2   36.20    5.30
   2  -6  -2 1413.46   48.90
  -2  -6   2 1453.95   52.69
  -2  -6   2 1354.46   65.39
   2  -6  -2 1373.86   65.39
   2  -6  -2 1344.27   57.89
  -2  -6   2 1364.66   47.30
   2   6  -2 1416.96   58.69
   2   6  -2 1450.75   66.09
   2   6  -2 1361.36   52.59
  -2   6   2 1389.06   48.80
  -2   6   2 1400.96   65.39
  -1  -6   2   98.29    4.70
  -1  -6   2   96.39    7.70
  -1  -6   2   93.59    6.40
  -1  -6   2   76.59    5.40
   1  -6  -2   95.19    5.50
   1  -6  -2   96.69    6.50
   1   6  -2  100.49    6.50
  -1   6   2   92.79    7.30
  -1   6   2   99.39    6.50
   1   6  -2  100.69    8.20
   1   6  -2   91.09    4.70
   1   6  -2   92.99    5.80
   0  -6  -2 1868.31   63.09
   0  -6  -2 1784.82   74.99
   0  -6  -2 1852.11   66.89
   0  -6   2 1814.12   74.59
   0  -6   2 1882.41   67.19
   0  -6   2 1834.72   62.89
   0   6  -2 1841.72   67.19
   0   6   2 1782.92   66.79
   0   6  -2 1841.12   62.99
   0   6   2 1854.61   84.19
   0   6  -2 1862.31   74.79
   1  -6   2   13.10    2.50
  -1  -6  -2   14.10    3.10
  -1  -6  -2   25.50    4.90
  -1  -6  -2   15.80    2.70
   1  -6   2   19.20    2.70
   1   6   2   15.00    2.80
  -1   6  -2   18.30    4.20
   1   6   2   14.60    3.10
  -1   6  -2   15.00    2.40
   1   6   2   22.90    4.60
  -1   6  -2   14.80    2.80
  -1   6  -2   17.00    2.70
  -2  -6  -2  184.18   12.70
   2  -6   2  192.38    9.60
  -2  -6  -2  166.98   10.70
   2  -6   2  188.48    9.10
   2  -6   2  173.98   12.60
   2   6   2  171.88    9.90
  -2   6  -2  182.38    9.10
   2   6   2  188.88   10.70
   2   6   2  179.28   12.90
  -2   6  -2  201.68   13.40
  -2   6  -2  190.88    8.70
  -3  -6  -2  306.17   12.70
   3  -6   2  319.77   15.20
   3  -6   2  305.97   19.80
   3   6   2  307.17   21.30
  -3   6  -2  301.57   14.00
   4  -6   2    5.70    6.70
   4  -6   2    8.30    4.00
   4   6   2   31.10   10.80
  -4   6  -2   12.00    4.20
   4  -7  -2  359.76   19.30
   4  -7  -2  363.96   23.60
   4   7  -2  370.36   18.70
  -4   7   2  340.57   15.70
   3  -7  -2  236.78   16.30
   3  -7  -2  227.58   13.40
  -3   7   2  252.27   11.50
   3   7  -2  236.48   16.90
   3   7  -2  240.28   13.00
   2  -7  -2  704.53   26.00
   2  -7  -2  711.03   30.70
   2  -7  -2  658.63   34.70
  -2  -7   2  684.73   24.40
   2   7  -2  683.33   28.00
   2   7  -2  716.03   35.50
  -2   7   2  689.53   25.90
   1  -7  -2 1874.31   64.39
  -1  -7   2 1893.91   68.89
   1  -7  -2 1789.82   76.29
  -1  -7   2 1853.61   76.59
  -1  -7   2 1831.72   86.09
   1   7  -2 1885.01   76.69
   1   7  -2 1763.02   68.69
  -1   7   2 1797.82   86.09
  -1   7   2 2004.10   76.89
   1   7  -2 1960.30   86.69
   0  -7  -2  954.50   35.40
   0  -7  -2  960.10   33.80
   0  -7   2  958.80   35.80
   0  -7   2  990.70   33.70
   0  -7  -2  905.91   40.10
   0  -7   2  910.41   39.70
   0   7  -2  937.91   33.60
   0   7   2  927.11   35.40
   0   7   2  985.10   40.50
   0   7  -2  940.31   35.80
   0   7   2  913.91   45.20
   0   7  -2  980.00   40.10
  -1  -7  -2 1573.54   65.59
  -1  -7  -2 1654.43   58.79
   1  -7   2 1585.34   64.29
   1  -7   2 1411.36   54.69
  -1  -7  -2 1671.23   73.79
  -1   7  -2 1542.25   54.89
  -1   7  -2 1495.85   64.59
   1   7   2 1639.74   65.59
   1   7   2 1529.35   58.59
   1   7   2 1591.64   73.39
  -1   7  -2 1663.33   73.89
  -1   7  -2 1576.84   57.79
   2  -7   2  743.63   29.90
  -2  -7  -2  683.63   35.30
   2  -7   2  676.83   35.50
  -2  -7  -2  624.24   31.20
  -2   7  -2  729.13   26.70
   2   7   2  682.63   28.30
   2   7   2  716.93   35.60
   3  -7   2  805.82   33.40
  -3  -7  -2  754.52   28.10
   3  -7   2  747.73   40.10
  -3   7  -2  765.22   29.60
   3   7   2  765.52   40.80
   4  -7   2  691.93   39.60
  -4   7  -2  738.33   29.00
   4  -8  -2   22.20    7.70
   4  -8  -2   22.60    5.50
  -4   8   2   22.50    4.50
   4   8  -2   18.90    5.30
   4   8  -2   11.20   12.70
   3  -8  -2  206.48   15.20
   3  -8  -2  193.78   12.20
   3   8  -2  194.18   11.80
  -3   8   2  196.78   10.40
   3   8  -2  199.48   15.60
   2  -8  -2 1742.83   72.49
   2  -8  -2 1700.43   81.79
   2   8  -2 1706.63   65.69
   2   8  -2 1856.91   82.69
  -2   8   2 1729.63   61.19
  -1  -8   2 1167.68   44.60
  -1  -8   2 1155.68   49.60
  -1  -8   2 1187.78   41.00
   1  -8  -2 1070.99   49.20
   1  -8  -2 1209.28   41.90
   1   8  -2 1121.19   44.50
   1   8  -2 1183.18   56.59
   1   8  -2 1189.68   49.70
  -1   8   2 1273.97   50.09
   0  -8  -2 1141.39   39.20
   0  -8   2 1106.29   41.40
   0  -8   2 1113.29   39.00
   0  -8  -2 1061.09   46.50
   0  -8  -2 1113.49   41.20
   0  -8   2 1079.09   46.10
   0   8  -2 1082.79   41.40
   0   8   2 1065.09   41.00
   0   8  -2 1061.99   39.00
   0   8   2 1176.28   47.00
   0   8  -2 1149.39   46.50
   0   8   2 1052.49   52.29
  -1  -8  -2  549.54   22.60
  -1  -8  -2  549.54   28.90
   1  -8   2  540.65   24.30
  -1  -8  -2  584.54   25.90
  -1   8  -2  547.05   29.10
  -1   8  -2  540.75   21.70
  -1   8  -2  532.35   21.30
   1   8   2  553.54   25.40
  -1   8  -2  592.64   25.10
   1   8   2  557.34   22.70
   1   8   2  558.74   28.70
   2  -8   2  618.54   27.50
  -2  -8  -2  649.04   29.60
   2  -8   2  601.54   33.10
   2   8   2  659.63   33.40
  -2   8  -2  647.14   24.70
   2   8   2  632.14   26.50
  -2   8  -2  631.84   24.50
   3  -8   2  991.10   50.29
   3  -8   2 1011.90   42.10
  -3  -8  -2  999.20   35.60
   3   8   2  932.01   50.29
  -3   8  -2  989.10   37.20
   4  -8   2  137.79   15.30
  -4   8  -2  124.39    9.90
   4  -9  -2   44.30    9.70
   4  -9  -2   43.00    6.70
   4   9  -2   41.00    7.00
   4   9  -2   44.90   14.30
   3  -9  -2  540.75   31.20
   3  -9  -2  585.34   26.80
   3   9  -2  569.44   25.00
  -3   9   2  575.44   22.80
   3   9  -2  516.45   31.70
   2  -9  -2   72.39    7.00
  -2  -9   2   83.09    4.80
   2   9  -2   77.29    9.50
  -2   9   2   74.59    6.10
   2   9  -2   75.19    6.80
  -1  -9   2 1517.95   56.49
   1  -9  -2 1492.35   62.59
  -1  -9   2 1423.36   62.59
   1  -9  -2 1543.05   53.19
  -1  -9   2 1526.95   52.09
   1   9  -2 1463.45   56.29
   1   9  -2 1519.75   62.89
  -1   9   2 1525.75   63.09
   1   9  -2 1463.55   71.39
   0  -9   2    0.00    2.10
   0  -9  -2   -0.80    1.70
   0  -9   2    0.80    1.80
   0  -9  -2    0.40    2.10
   0  -9  -2   -1.80    1.70
   0  -9   2    3.50    2.20
   0   9  -2   -1.10    1.90
   0   9  -2   -0.70    1.70
   0   9  -2    0.40    2.30
   0   9   2   -1.50    2.00
   0   9   2   -1.80    1.60
   0   9   2    1.80    3.40
  -1  -9  -2 1045.20   48.00
  -1  -9  -2  970.90   42.30
  -1  -9  -2  998.30   37.50
   1  -9   2  934.51   36.50
  -1  -9  -2 1020.00   35.00
   1  -9   2  929.81   40.70
  -1   9  -2  958.40   36.50
   1   9   2  929.51   37.40
  -1   9  -2  943.61   35.30
   1   9   2  907.21   47.00
  -1   9  -2 1015.50   48.10
  -1   9  -2  934.71   41.50
   2  -9   2  257.97   13.30
   2  -9   2  268.77   17.70
  -2  -9  -2  259.27   15.20
   2   9   2  294.57   17.90
   2   9   2  270.47   13.70
  -2   9  -2  232.58   12.40
   3  -9   2  697.03   38.90
   3  -9   2  771.02   32.20
   3   9   2  717.23   31.20
   3   9   2  697.33   39.10
  -3   9  -2  733.33   28.90
   4  -9   2  292.67   22.20
  -4   9  -2  288.37   15.30
   4 -10  -2   15.40    7.80
   4 -10  -2   12.40    5.10
   4  10  -2   10.50    9.00
   4  10  -2    4.20    4.80
   3 -10  -2  416.56   21.80
   3 -10  -2  447.16   26.20
   3  10  -2  442.76   20.80
   3  10  -2  388.36   26.40
  -3  10   2  441.06   18.80
  -2 -10   2 1282.47   55.49
   2 -10  -2 1239.48   54.59
  -2 -10   2 1301.37   44.80
   2  10  -2 1251.97   49.80
   2  10  -2 1321.57   63.09
  -2  10   2 1276.97   46.30
  -1 -10   2 1254.17   53.89
   1 -10  -2 1237.18   46.60
  -1 -10   2 1350.46   44.80
   1 -10  -2 1227.28   53.59
   1  10  -2 1268.67   48.40
  -1  10   2 1223.08   46.50
   1  10  -2 1281.67   61.69
   0 -10  -2  122.99    7.10
   0 -10   2  134.89    7.40
   0 -10   2  123.99    7.30
   0 -10  -2  115.39    8.60
   0 -10   2  126.99    8.50
   0  10  -2  133.99    8.90
   0  10  -2  131.49   11.00
   0  10  -2  134.89    7.60
   0  10   2  120.49    7.00
   0  10   2  129.39   10.50
   0  10  -2  131.69    7.40
   1 -10   2 1345.97   52.49
  -1 -10  -2 1489.85   50.19
   1 -10   2 1374.96   58.69
  -1 -10  -2 1441.56   60.39
   1  10   2 1349.56   53.39
  -1  10  -2 1378.56   50.39
  -1  10  -2 1559.94   60.19
  -1  10  -2 1354.76   52.39
   1  10   2 1410.46   67.49
   2 -10   2 1328.27   56.69
  -2 -10  -2 1431.96   48.60
  -2 -10  -2 1417.66   59.29
  -2  10  -2 1299.67   50.39
  -2  10  -2 1323.17   49.30
   2  10   2 1391.96   66.19
   2  10   2 1325.87   52.79
   3 -10   2  271.47   19.90
   3  10   2  261.77   19.70
   3  10   2  283.47   15.50
  -3  10  -2  260.87   13.90
   4 -10   2   22.00    9.00
   4  10   2   27.90   14.60
  -4  10  -2   10.20    5.10
   4 -11  -2  393.16   26.40
   4 -11  -2  381.96   21.10
   4  11  -2  411.36   21.10
   4  11  -2  332.17   26.90
   3 -11  -2  537.05   25.00
   3  11  -2  437.16   29.90
   3  11  -2  503.35   23.50
  -2 -11   2  692.13   35.20
  -2 -11   2  786.02   28.20
   2 -11  -2  782.12   34.90
   2  11  -2  805.12   41.20
   2  11  -2  771.72   32.00
   1 -11  -2  994.10   36.40
  -1 -11   2  913.81   42.30
  -1 -11   2 1012.30   35.30
   1 -11  -2 1008.90   42.50
   1  11  -2  936.31   48.90
   1  11  -2  937.21   38.10
  -1  11   2  950.70   36.20
   0 -11   2  153.88    8.50
   0 -11  -2  150.68   10.00
   0 -11   2  145.09    9.50
   0 -11  -2  162.18    8.20
   0  11   2  136.79   11.50
   0  11  -2  135.89    8.30
   0  11  -2  137.99   12.10
   0  11   2  135.89    7.90
   0  11  -2  147.19    8.40
   1 -11   2  983.60   42.10
  -1 -11  -2  946.21   43.50
   1 -11   2  988.20   37.60
   1  11   2  990.80   49.00
   1  11   2  965.80   38.50
  -1  11  -2  985.50   36.60
  -1  11  -2  966.60   43.20
  -1  11  -2  998.00   37.50
   2 -11   2  264.47   14.10
  -2 -11  -2  262.77   16.10
  -2  11  -2  257.87   11.90
   2  11   2  293.87   18.80
  -2  11  -2  273.57   15.00
  -2  11  -2  245.98   13.30
   2  11   2  248.18   14.10
   3 -11   2  216.98   18.30
   3 -11   2  244.98   13.40
   3  11   2  229.18   14.20
   3  11   2  208.38   18.10
  -3  11  -2  239.18   13.30
   4 -11   2   18.40    9.20
  -4  11  -2    0.60    4.60
   4  11   2   17.20   13.00
   4 -12  -2    7.80    4.80
   4  12  -2    3.80    8.90
   4  12  -2    4.50    5.00
   3 -12  -2  795.62   37.40
   3  12  -2  796.92   45.20
   3  12  -2  837.92   35.20
   2 -12  -2   91.09    8.50
  -2 -12   2   97.19    9.20
   2  12  -2   86.09    8.00
   2  12  -2   86.29   11.50
   1 -12  -2   54.29    4.30
   1 -12  -2   57.89    7.40
  -1 -12   2   45.20    6.00
   1  12  -2   45.00    5.60
  -1  12   2   49.70    4.10
   1  12  -2   53.39    9.10
   0 -12   2   74.49    7.10
   0 -12  -2   80.29    7.50
   0 -12  -2   80.19    5.80
   0  12  -2   75.89    6.20
   0  12   2   77.59    5.80
   0  12  -2   84.09    6.50
   0  12  -2   80.59    9.90
   0  12   2   69.29    8.80
   1 -12   2  567.04   22.80
  -1 -12  -2  559.34   27.30
   1 -12   2  532.25   25.60
   1  12   2  545.05   30.60
  -1  12  -2  547.55   22.60
   1  12   2  557.84   23.80
  -1  12  -2  571.14   22.90
   2 -12   2  644.34   29.90
  -2 -12  -2  675.03   32.50
   2  12   2  678.63   36.30
  -2  12  -2  650.93   26.00
  -2  12  -2  652.93   26.90
   2  12   2  660.53   28.70
   3 -12   2   26.40    4.80
   3  12   2   29.10    6.10
   3  12   2   39.20    9.70
  -3  12  -2   30.30    5.70
   4  12   2    6.40    9.70
  -4  12  -2    3.60    4.90
   3 -13  -2  530.85   26.70
   3  13  -2  489.25   33.10
   3  13  -2  558.64   25.70
   2 -13  -2  226.08   14.40
   2  13  -2  253.97   14.00
   2  13  -2  223.48   18.30
  -1 -13   2  551.94   27.50
   1 -13  -2  590.24   27.70
   1 -13  -2  573.34   22.90
   1  13  -2  538.45   32.20
  -1  13   2  567.64   22.70
   1  13  -2  580.04   24.80
   0 -13   2 2290.37   92.89
   0 -13  -2 2195.68   93.09
   0  13   2 2192.18  104.99
   0  13  -2 2275.97   78.39
   0  13   2 2256.77   82.69
   0  13  -2 2200.48   82.89
   0  13  -2 2203.98  105.69
   1 -13   2  386.96   17.10
  -1 -13  -2  388.36   21.00
   1 -13   2  376.26   19.40
   1  13   2  383.06   18.00
   1  13   2  387.96   23.80
  -1  13  -2  383.96   17.50
  -1  13  -2  382.26   16.90
   2 -13   2  626.24   27.70
  -2 -13  -2  528.25   29.30
  -2  13  -2  598.34   25.00
  -2  13  -2  598.94   23.60
   2  13   2  585.34   26.40
   2  13   2  571.44   33.30
   3  13   2  517.75   25.00
  -3  13  -2  523.75   23.30
   3  13   2  476.85   31.50
   3 -14  -2   28.20    6.40
   3  14  -2   41.90   11.70
   3  14  -2   42.40    7.00
  -2 -14   2   99.99   10.20
   2 -14  -2  104.89    9.40
   2  14  -2   83.99    8.70
   2  14  -2  110.29   14.30
   1 -14  -2   18.80    5.10
   1 -14  -2   12.90    2.90
  -1 -14   2   13.50    4.10
   1  14  -2   10.10    3.80
   1  14  -2   20.30    6.90
  -1  14   2   14.20    5.70
  -1  14   2    8.20    2.50
   0 -14   2  616.24   28.30
   0 -14  -2  579.64   28.50
   0  14  -2  582.04   24.80
   0  14  -2  531.95   32.80
   0  14   2  584.54   32.70
   0  14   2  593.34   24.40
   1 -14   2  262.07   15.00
  -1 -14  -2  287.17   16.80
   1  14   2  247.58   18.50
  -1  14  -2  241.68   13.40
  -1  14  -2  263.37   12.70
   1  14   2  258.27   13.90
  -2 -14  -2  255.57   16.80
   2 -14   2  253.57   14.70
  -2  14  -2  228.48   12.00
   2  14   2  248.68   19.00
  -2  14  -2  247.68   13.90
   2  14   2  250.37   14.60
   3  14   2   47.60   10.90
  -3  14  -2   47.20    7.40
   3  14   2   55.89    8.90
   3 -15  -2  164.48   12.80
   3  15  -2  171.08   12.90
   3  15  -2  124.19   18.20
   2 -15  -2  242.78   15.40
  -2 -15   2  221.88   15.90
   2  15  -2  211.68   19.10
   2  15  -2  248.38   14.50
  -1 -15   2 1214.08   51.89
   1 -15  -2 1129.89   51.39
   1  15  -2 1126.69   59.49
  -1  15   2 1153.28   44.00
   1  15  -2 1184.98   46.40
  -1  15   2 1105.19   58.69
   0 -15  -2  484.85   25.10
   0 -15   2  488.95   24.60
   0  15  -2  522.65   22.00
   0  15   2  470.55   28.90
   0  15   2  471.05   21.10
   0  15  -2  466.55   29.30
  -1 -15  -2   22.60    5.70
   1 -15   2   28.10    5.40
  -1  15  -2   27.00    5.30
   1  15   2   22.50    7.10
  -1  15  -2   33.00    4.70
   1  15   2   22.80    4.90
  -2 -15  -2  298.87   19.70
   2 -15   2  333.87   18.00
  -2  15  -2  336.47   16.90
   2  15   2  321.07   17.50
   2  15   2  315.27   22.70
  -3  15  -2  137.49   11.20
   3  15   2  123.99   17.30
   3 -16  -2   28.70    6.20
   2 -16  -2  219.38   15.30
  -2 -16   2  231.48   16.40
   2  16  -2  219.78   19.70
   2  16  -2  224.98   14.40
   1 -16  -2  249.18   16.20
  -1 -16   2  259.77   16.30
  -1  16   2  244.58   19.30
   1  16  -2  238.68   19.60
  -1  16   2  239.38   12.20
   1  16  -2  266.67   14.60
   0 -16   2   72.79    8.80
   0 -16  -2   61.29    8.10
   0  16  -2   71.49    7.00
   0  16   2   99.79   13.20
   0  16  -2   66.99   11.10
   0  16   2   69.19    6.50
  -1 -16  -2  197.58   14.40
   1 -16   2  189.18   13.10
  -1  16  -2  188.78   11.90
  -1  16  -2  200.08   11.00
   1  16   2  183.98   16.50
   1  16   2  191.08   11.90
  -2 -16  -2  303.27   19.50
   2 -16   2  287.27   17.10
   2  16   2  294.77   16.90
  -2  16  -2  287.77   16.20
   2  16   2  289.67   22.00
   3  16   2  121.49   17.80
  -2 -17   2  146.49   13.00
   2 -17  -2  125.79   11.80
   2  17  -2  122.99   11.00
   2  17  -2  146.29   16.30
   1 -17  -2  553.14   28.90
  -1 -17   2  554.14   29.00
   1  17  -2  561.64   26.00
   1  17  -2  562.64   34.30
  -1  17   2  563.14   33.80
   0 -17  -2  459.95   24.70
   0 -17   2  443.86   23.90
   0  17   2  440.76   20.50
   0  17  -2  437.36   28.90
   0  17   2  449.46   28.70
   0  17  -2  448.06   20.90
  -1 -17  -2  109.69   11.40
   1 -17   2  109.29   10.40
   1  17   2  121.19    9.60
  -1  17  -2  131.29   14.90
  -1  17  -2  109.39    8.30
   1  17   2  111.39   13.40
   2 -17   2  285.47   16.90
   2  17   2  269.97   21.70
   2  17   2  263.47   16.30
  -2  17  -2  265.27   16.80
   2 -18  -2  137.09   12.80
  -1 -18   2  117.99   11.60
   1 -18  -2  111.19   11.40
  -1  18   2  130.59   14.50
   1  18  -2  119.29   10.10
   1  18  -2  121.49   14.70
   0 -18  -2   17.00    5.60
   0 -18   2   13.10    5.30
   0  18  -2   17.70    4.60
   0  18  -2   11.30    7.50
   0  18   2   16.70    7.30
   0  18   2   14.00    4.10
  -1 -18  -2  377.66   23.00
   1 -18   2  393.16   21.90
  -1  18  -2  400.36   27.80
   1  18   2  373.26   19.70
   1  18   2  398.86   26.90
   2  18   2  243.78   21.00
   1 -19  -2  324.17   20.50
   1  19  -2  325.27   18.10
  -1  19   2  318.27   24.00
   0 -19   2   11.70    5.40
   0  19   2    2.00    6.20
   0  19   2    7.40    3.80
   0  19  -2    6.40    4.00
   0  19  -2    0.40    6.70
   1 -19   2  261.77   17.40
  -1  19  -2  277.97   23.00
   1  19   2  269.17   21.90
   1  19   2  275.67   16.00
   5   0  -3   24.00   10.00
  -4   0   3   -0.30    3.30
   4   0  -3   11.00    8.30
   3   0  -3  132.89   11.60
   3   0  -3  104.99    6.70
  -2   0   3    2.20    1.60
   2   0  -3    2.30    1.50
  -2   0   3   -1.00    2.90
   2   0  -3   -2.40    4.50
   1   0  -3  848.12   42.40
   1   0  -3  961.10   34.10
  -1   0   3  947.51   42.30
  -1   0   3  964.70   34.10
   0   0  -3    0.00    0.80
  -1   0  -3 1335.07   57.39
   1   0   3 1223.08   57.09
  -1   0  -3 1201.68   42.80
   1   0   3 1220.68   42.80
  -2   0  -3    1.30    1.50
  -2   0  -3    0.00    4.50
   2   0   3   -5.80    4.60
   2   0   3   -1.70    1.50
  -2   0  -3    0.90    1.80
   2   0   3    0.30    1.50
  -3   0  -3 1271.27   45.80
   3   0   3 1328.27   63.09
   4   0   3   -8.40    7.10
  -4   0  -3   -0.90    2.40
   5   0   3  407.16   29.70
   5  -1  -3  190.48   18.70
   5   1  -3  152.38   18.60
   4  -1  -3  607.74   33.70
   4   1  -3  579.34   33.90
   3  -1  -3  222.18    8.70
  -3  -1   3  224.78   10.70
   3  -1  -3  240.08   15.60
   3   1  -3  220.28   15.70
  -3   1   3  219.08   10.10
   3   1  -3  213.08   10.70
  -2  -1   3 3175.78  144.19
   2  -1  -3 3046.40  107.19
   2  -1  -3 3273.47  144.39
   2  -1  -3 3039.90  114.89
  -2   1   3 3122.99  144.09
   2   1  -3 3475.65  144.79
  -2   1   3 3310.37  114.99
  -1  -1   3 7260.27  328.07
   1  -1  -3 7077.59  263.07
  -1  -1   3 7435.46  263.07
   1   1  -3 7140.79  264.17
  -1   1   3 7384.66  263.17
   1   1  -3 7633.74  329.87
   1   1  -3 7745.32  246.78
   0  -1   3    7.80    1.30
   0  -1  -3    8.50    1.50
   0   1  -3    8.90    1.30
   0   1   3    7.90    1.40
   0   1  -3    8.90    1.70
   1  -1   3  228.18    9.40
  -1  -1  -3  219.48   10.40
  -1  -1  -3  246.28   12.90
   1  -1   3  225.68   12.70
  -1  -1  -3  236.38    9.30
  -1   1  -3  244.48   13.10
   1   1   3  233.58   10.40
   1   1   3  250.47   13.40
  -1   1  -3  231.88    9.40
  -2  -1  -3  958.20   46.50
  -2  -1  -3  933.51   34.30
   2  -1   3  999.40   39.90
   2  -1   3  970.70   46.60
   2  -1   3  999.30   34.50
  -2  -1  -3  953.70   37.20
   2   1   3 1048.30   47.10
  -2   1  -3  955.50   47.10
   2   1   3  965.70   40.30
   3  -1   3 2729.23  109.19
  -3  -1  -3 2586.44   92.29
   3  -1   3 2665.73  124.69
   3  -1   3 2816.62   92.59
   3   1   3 2781.02  125.29
  -3   1  -3 2601.04   92.49
  -3   1  -3 2719.43   99.19
   3   1   3 2740.63  109.59
  -4  -1  -3  164.48    8.70
   4  -1   3  153.88   15.70
  -4   1  -3  164.48    9.10
   4   1   3  137.09   15.80
   5  -1   3  112.29   16.40
   5   1   3  103.89   16.80
   5  -2  -3   36.80    9.90
   5   2  -3   12.20   10.80
   4  -2  -3  763.62   40.90
   4   2  -3  817.42   31.50
   4   2  -3  711.83   41.20
  -3  -2   3  180.18    9.50
   3  -2  -3  182.98   13.30
   3  -2  -3  177.38    7.60
   3   2  -3  174.88    9.50
   3   2  -3  181.98   14.10
   2  -2  -3 1138.49   38.70
   2  -2  -3 1182.28   52.69
  -2  -2   3 1142.49   42.10
  -2  -2   3 1071.29   52.39
   2   2  -3 1205.68   53.09
   2   2  -3 1089.09   42.00
  -2   2   3 1068.39   52.59
  -1  -2   3  866.01   40.60
  -1  -2   3  878.61   32.90
  -1  -2   3  944.51   29.90
   1  -2  -3  885.71   40.50
   1   2  -3  855.21   32.80
   1   2  -3  864.91   29.80
  -1   2   3  923.01   40.50
   1   2  -3  860.01   40.60
   0  -2  -3  712.93   32.50
   0  -2  -3  713.63   29.30
   0  -2   3  765.32   24.70
   0   2  -3  736.93   24.70
   0   2  -3  680.63   32.60
   0   2   3  674.83   32.20
   0   2  -3  696.63   26.50
   0   2   3  701.73   29.20
   1  -2   3 3385.06  152.78
  -1  -2  -3 3549.64  152.88
   1  -2   3 3471.35  114.89
  -1  -2  -3 3229.08  135.99
   1   2   3 3587.14  152.88
  -1   2  -3 3543.05  152.98
   1   2   3 3260.47  135.89
  -1   2  -3 3274.07  114.89
  -2  -2  -3  188.78    9.60
  -2  -2  -3  184.78    8.30
  -2  -2  -3  189.58   12.20
   2  -2   3  190.88    8.70
   2  -2   3  187.68   12.70
  -2   2  -3  209.58   13.20
  -2   2  -3  193.18    8.80
   2   2   3  207.48   13.70
   3  -2   3  582.24   31.70
  -3  -2  -3  570.44   22.10
   3  -2   3  578.54   22.50
   3   2   3  593.64   32.80
  -3   2  -3  612.54   24.20
  -3   2  -3  601.84   22.80
   4  -2   3   62.99   10.80
  -4  -2  -3   56.59    5.20
   4   2   3   67.79   12.50
  -4   2  -3   47.50    5.40
   5  -2   3  365.56   26.90
   5   2   3  328.57   27.40
   5  -3  -3  162.08   17.10
   5   3  -3  146.49   18.30
   4  -3  -3  177.08   15.50
   4   3  -3  179.38   11.10
   3  -3  -3  302.77   17.90
   3   3  -3  253.57   19.00
   3   3  -3  314.37   13.80
   2  -3  -3  270.07   15.10
  -2  -3   3  258.37   14.80
   2  -3  -3  272.87   10.70
   2   3  -3  281.77   15.60
   2   3  -3  243.88   11.80
  -2   3   3  301.47   15.60
   1  -3  -3 1337.17   46.80
   1  -3  -3 1362.06   62.19
  -1  -3   3 1220.38   50.19
   1  -3  -3 1435.86   56.09
  -1  -3   3 1426.06   46.10
  -1   3   3 1394.66   62.09
   1   3  -3 1429.16   62.49
   1   3  -3 1378.46   46.10
   1   3  -3 1345.47   50.29
   0  -3   3  225.08    8.30
   0  -3   3  213.98    9.00
   0  -3  -3  214.78   11.30
   0  -3  -3  196.58    9.90
   0   3  -3  206.38    8.20
   0   3   3  198.88   10.80
   0   3  -3  209.48    9.00
   0   3   3  216.08   10.00
   0   3  -3  206.38    9.30
   1  -3   3 1972.20   68.39
   1  -3   3 1948.71   91.09
  -1  -3  -3 2050.19   90.99
  -1  -3  -3 1898.81   81.09
  -1   3  -3 2001.60   68.49
  -1   3  -3 2109.79   91.29
   1   3   3 2026.40   80.99
   1   3   3 2056.79   90.99
  -2  -3  -3  337.37   14.90
  -2  -3  -3  331.77   18.60
   2  -3   3  317.97   13.50
   2  -3   3  330.67   18.80
  -2  -3  -3  335.87   13.20
  -2   3  -3  330.47   13.70
   2   3   3  349.96   15.80
  -2   3  -3  357.26   19.50
   2   3   3  353.06   19.70
   3  -3   3  822.42   43.30
   3  -3   3  858.21   31.80
  -3  -3  -3  835.12   31.20
   3   3   3  910.51   37.70
   3   3   3  845.02   44.50
  -3   3  -3  878.31   32.10
  -3   3  -3  902.11   33.80
  -4  -3  -3  131.79    7.60
   4  -3   3  145.59   14.80
   4   3   3  124.29   15.60
  -4   3  -3  144.79    8.90
   5  -3   3   14.30    9.60
   5   3   3   -8.70   11.30
   5  -4  -3   59.89    9.20
   5  -4  -3   53.89   11.20
   5   4  -3   56.09   13.00
   4  -4  -3 1539.65   77.49
   4   4  -3 1675.83   61.89
   3  -4  -3 1157.88   58.49
   3  -4  -3 1290.07   43.00
   3   4  -3 1221.88   47.00
  -2  -4   3 1680.43   78.79
  -2  -4   3 1750.52   63.39
   2  -4  -3 1712.03   58.69
   2  -4  -3 1658.03   78.59
   2  -4  -3 1760.32   70.49
   2   4  -3 1751.32   70.89
   2   4  -3 1611.24   63.19
  -2   4   3 1722.53   78.89
   2   4  -3 1759.72   79.19
   1  -4  -3  690.73   28.90
   1  -4  -3  679.73   24.10
  -1  -4   3  676.43   23.30
   1  -4  -3  645.04   31.80
   1   4  -3  706.03   29.00
   1   4  -3  669.03   23.30
   1   4  -3  638.24   25.90
   1   4  -3  691.73   32.50
   0  -4  -3 4837.92  199.78
   0  -4   3 5146.49  167.98
   0  -4   3 4916.01  200.68
   0  -4  -3 5250.98  181.28
   0  -4   3 5137.79  179.78
   0   4   3 4979.20  225.38
   0   4  -3 4981.90  167.98
   0   4  -3 4920.31  200.18
   0   4  -3 4906.41  179.68
   0   4   3 5126.29  199.88
  -1  -4  -3 5005.60  184.68
  -1  -4  -3 5306.97  205.38
   1  -4   3 5324.07  172.88
   1  -4   3 5220.08  230.18
  -1  -4  -3 5114.69  229.98
   1   4   3 5235.98  229.98
  -1   4  -3 5129.39  230.18
  -1   4  -3 4836.62  172.68
   2  -4   3  386.36   21.30
  -2  -4  -3  388.86   17.00
   2  -4   3  388.96   15.60
  -2  -4  -3  398.96   15.10
  -2  -4  -3  362.26   18.20
  -2  -4  -3  392.86   21.10
   2   4   3  393.46   21.80
  -2   4  -3  433.96   22.20
  -2   4  -3  382.36   15.70
   2   4   3  396.86   18.20
   3  -4   3  336.37   15.70
  -3  -4  -3  326.07   13.70
   3  -4   3  336.47   20.70
   3   4   3  315.17   22.20
  -3   4  -3  351.86   14.90
  -3   4  -3  354.16   15.10
   3   4   3  340.57   17.20
   4  -4   3  197.28   11.60
  -4  -4  -3  203.78    9.90
   4  -4   3  205.28   17.10
   4   4   3  185.78   18.40
  -4   4  -3  214.48   11.30
   5   4   3  503.25   34.90
   5  -5  -3  119.29   11.70
   4  -5  -3   51.49    9.10
   4  -5  -3   57.89    7.90
   4   5  -3   62.59    7.20
   4   5  -3   42.90   12.00
   3  -5  -3  656.83   29.30
   3  -5  -3  627.34   23.70
   3  -5  -3  631.94   33.00
   3   5  -3  646.24   34.00
   3   5  -3  614.54   26.30
  -2  -5   3  454.95   18.80
   2  -5  -3  450.05   20.60
   2  -5  -3  415.76   16.90
  -2  -5   3  444.36   23.00
   2  -5  -3  427.46   23.00
   2   5  -3  471.75   21.30
  -2   5   3  468.45   23.30
   2   5  -3  447.86   23.60
   2   5  -3  416.36   18.50
  -1  -5   3 1575.24   71.89
   1  -5  -3 1552.24   53.89
  -1  -5   3 1537.25   53.09
   1  -5  -3 1599.74   64.29
   1   5  -3 1559.34   53.19
   1   5  -3 1612.44   72.29
  -1   5   3 1598.04   64.39
   1   5  -3 1564.14   57.79
  -1   5   3 1492.75   71.59
   0  -5  -3 1269.37   52.09
   0  -5   3 1234.48   46.50
   0  -5   3 1260.37   51.29
   0  -5  -3 1290.77   46.20
   0   5  -3 1254.77   43.60
   0   5  -3 1268.07   51.39
   0   5   3 1264.77   57.99
   0   5  -3 1247.38   46.60
   1  -5   3 1545.45   76.19
  -1  -5  -3 1670.93   61.19
  -1  -5  -3 1732.03   76.39
  -1  -5  -3 1574.44   67.99
   1  -5   3 1677.93   66.59
   1  -5   3 1661.33   57.29
  -1   5  -3 1705.33   76.49
  -1   5  -3 1613.14   57.29
  -1   5  -3 1642.44   66.79
   1   5   3 1652.33   76.09
  -1   5  -3 1751.02   60.89
   1   5   3 1680.93   67.99
   2  -5   3  172.38    8.50
  -2  -5  -3  170.18    9.30
  -2  -5  -3  167.88   10.10
  -2  -5  -3  167.58   11.60
   2  -5   3  181.18   12.30
   2  -5   3  174.58    8.50
   2   5   3  178.98   12.30
   2   5   3  166.08    9.80
  -2   5  -3  154.48    8.40
  -2   5  -3  177.38   12.70
   3  -5   3  304.47   13.80
   3  -5   3  287.27   18.60
  -3  -5  -3  282.67   12.10
  -3   5  -3  280.97   13.20
   3   5   3  236.58   20.20
  -4  -5  -3   10.10    3.00
   4  -5   3   17.60    7.70
   4   5   3   15.80    9.20
  -4   5  -3    7.30    4.00
   5  -6  -3   46.90    7.80
   4  -6  -3  565.84   28.00
   4  -6  -3  572.94   32.80
   4   6  -3  588.94   25.90
   3  -6  -3  596.74   28.80
   3  -6  -3  659.33   24.00
   3  -6  -3  625.44   33.10
   3   6  -3  614.74   33.70
   3   6  -3  647.64   26.60
  -2  -6   3 1282.27   47.10
   2  -6  -3 1232.98   43.50
   2  -6  -3 1234.78   51.89
   2  -6  -3 1210.48   58.29
  -2  -6   3 1193.28   41.80
   2   6  -3 1191.28   46.90
   2   6  -3 1278.67   52.49
   2   6  -3 1233.08   58.79
  -2   6   3 1243.08   58.19
   1  -6  -3   27.20    4.10
  -1  -6   3   23.70    4.10
   1  -6  -3   21.10    2.80
  -1  -6   3   20.50    3.40
  -1  -6   3   19.70    2.20
  -1   6   3   25.90    4.30
   1   6  -3   18.60    2.30
  -1   6   3   23.70    3.70
   1   6  -3   29.10    5.30
   1   6  -3   13.10    2.80
   1   6  -3   26.30    4.20
   0  -6   3 1080.49   36.80
   0  -6  -3 1004.90   43.90
   0  -6   3 1017.40   43.20
   0  -6   3 1048.30   39.30
   0  -6  -3 1071.39   38.90
   0   6  -3 1027.70   36.80
   0   6   3 1024.10   49.10
   0   6   3 1027.60   38.90
   0   6   3 1138.79   44.40
   0   6  -3 1069.29   43.50
   0   6  -3 1021.40   39.30
   1  -6   3 1888.61   87.49
  -1  -6  -3 1929.11   78.09
   1  -6   3 1858.61   76.39
  -1  -6  -3 2048.40   87.69
  -1  -6  -3 1894.71   69.99
   1   6   3 1900.21   77.79
  -1   6  -3 1828.42   87.39
   1   6   3 1925.71   69.99
  -1   6  -3 1904.31   76.79
  -1   6  -3 1890.31   69.39
  -1   6  -3 1849.91   65.49
   1   6   3 1867.61   86.89
   2  -6   3  724.23   30.00
  -2  -6  -3  665.33   31.80
  -2  -6  -3  711.43   36.10
   2  -6   3  704.63   26.80
   2  -6   3  711.13   36.10
  -2   6  -3  712.03   26.90
  -2   6  -3  737.33   27.80
  -2   6  -3  753.82   36.60
   2   6   3  716.33   36.10
   2   6   3  717.33   31.70
   3  -6   3  640.04   35.70
  -3  -6  -3  643.34   25.00
   3  -6   3  712.63   29.10
   3   6   3  692.33   37.30
  -3   6  -3  667.13   26.30
   4  -6   3  420.26   27.20
  -4   6  -3  435.56   19.30
   5  -7  -3  132.99   12.30
   4  -7  -3  310.57   18.30
   4  -7  -3  340.17   22.50
   4   7  -3  352.46   17.80
   3  -7  -3  266.87   14.90
   3  -7  -3  260.67   17.30
   3   7  -3  253.37   18.00
   3   7  -3  279.07   14.10
  -2  -7   3 1392.16   48.10
   2  -7  -3 1418.06   66.59
   2  -7  -3 1413.56   49.80
   2  -7  -3 1423.06   59.29
   2   7  -3 1486.75   67.29
   2   7  -3 1342.87   53.49
  -1  -7   3 2432.86   88.19
   1  -7  -3 2476.85   82.49
   1  -7  -3 2309.77   97.79
  -1  -7   3 2366.86   97.79
  -1   7   3 2348.86  109.89
   1   7  -3 2418.16   97.99
  -1   7   3 2501.15   98.19
   1   7  -3 2444.16  110.59
   1   7  -3 2344.87   88.09
   1   7  -3 2409.16   81.59
   0  -7   3   10.60    2.10
   0  -7  -3    8.10    2.00
   0  -7  -3   11.60    2.90
   0  -7   3   11.80    2.60
   0  -7   3   11.80    2.50
   0   7   3    6.30    1.90
   0   7  -3    7.20    2.10
   0   7  -3   10.70    2.60
   0   7   3   15.60    4.00
   0   7   3    7.60    1.90
   0   7  -3    8.50    2.30
   1  -7   3   88.49    5.50
  -1  -7  -3   87.09    5.80
  -1  -7  -3   96.69    8.30
  -1  -7  -3   88.49    6.90
  -1   7  -3   84.39    8.10
   1   7   3   98.29    6.70
  -1   7  -3   78.69    5.60
  -1   7  -3   83.19    5.90
   1   7   3   79.99    7.60
   1   7   3   81.49    5.80
  -1   7  -3   91.89    5.60
   2  -7   3  455.15   25.50
  -2  -7  -3  449.16   25.20
   2  -7   3  474.05   20.30
  -2  -7  -3  463.35   22.50
   2   7   3  483.55   25.50
  -2   7  -3  454.75   18.80
  -2   7  -3  457.25   18.80
   3  -7   3 1654.33   78.79
   3  -7   3 1649.33   67.19
  -3  -7  -3 1631.64   57.29
  -3   7  -3 1675.83   58.79
  -3   7  -3 1585.24   60.89
   4  -7   3   26.50    8.20
  -4   7  -3   12.40    4.70
   4   7   3   34.00   13.40
   4  -8  -3   31.10    6.40
   4  -8  -3   30.60    8.80
   4   8  -3   37.80    6.40
   4   8  -3   32.90   14.20
   3  -8  -3  756.52   35.30
   3  -8  -3  814.42   40.80
   3   8  -3  765.02   32.40
   3   8  -3  786.02   41.30
   2  -8  -3  739.03   33.40
   2   8  -3  724.23   30.30
   2   8  -3  783.12   38.60
   1  -8  -3  504.75   24.50
  -1  -8   3  531.15   24.70
  -1  -8   3  549.54   20.10
  -1  -8   3  559.44   22.40
   1  -8  -3  557.04   21.00
  -1   8   3  516.55   28.20
   1   8  -3  530.65   22.30
   1   8  -3  543.55   28.90
   1   8  -3  557.14   20.20
   1   8  -3  533.35   24.70
  -1   8   3  577.14   25.20
   0  -8  -3 1225.18   53.39
   0  -8   3 1244.58   52.69
   0  -8  -3 1280.57   47.20
   0  -8   3 1287.07   47.70
   0  -8   3 1321.77   44.80
   0  -8  -3 1328.67   45.00
   0   8   3 1232.58   59.79
   0   8  -3 1230.78   47.60
   0   8  -3 1264.67   44.80
   0   8   3 1252.47   47.20
   0   8  -3 1312.07   53.19
  -1  -8  -3 1012.60   44.90
   1  -8   3 1040.70   43.30
  -1  -8  -3 1077.79   40.10
  -1  -8  -3 1121.09   50.79
   1   8   3 1012.50   49.90
  -1   8  -3 1027.80   50.59
  -1   8  -3 1030.80   39.30
  -1   8  -3 1027.40   37.60
  -1   8  -3 1016.40   43.90
   1   8   3 1021.90   39.90
   1   8   3 1072.79   44.90
   2  -8   3  769.92   33.10
  -2  -8  -3  776.82   35.50
   2  -8   3  775.12   40.00
  -2   8  -3  785.42   29.80
   2   8   3  757.22   31.70
   2   8   3  802.02   39.90
  -2   8  -3  804.02   30.30
  -3  -8  -3  440.96   17.70
   3  -8   3  398.56   25.90
   3  -8   3  456.45   20.20
  -3   8  -3  455.25   18.50
  -3   8  -3  413.26   19.10
   3   8   3  446.76   27.00
   4  -8   3  522.15   32.60
  -4   8  -3  566.84   24.00
   4  -9  -3  323.27   23.10
   4  -9  -3  353.36   19.00
   4   9  -3  278.87   25.00
   4   9  -3  339.27   18.10
   3  -9  -3   22.00    7.00
   3  -9  -3   12.10    4.50
   3   9  -3   19.30    7.10
   3   9  -3   15.80    4.60
   2  -9  -3  752.92   33.50
  -2  -9   3  719.53   26.40
   2   9  -3  728.33   30.30
   2   9  -3  753.32   38.70
  -1  -9   3 1252.37   43.40
   1  -9  -3 1174.18   52.39
  -1  -9   3 1220.78   52.49
   1   9  -3 1198.48   47.20
   1   9  -3 1227.68   43.50
   1   9  -3 1247.58   60.29
   1   9  -3 1214.18   52.49
  -1   9   3 1368.46   53.39
   0  -9  -3   64.69    4.70
   0  -9   3   61.09    4.80
   0  -9  -3   61.99    6.00
   0  -9   3   64.29    5.10
   0  -9   3   70.09    5.60
   0  -9  -3   60.19    4.90
   0   9  -3   75.59    6.00
   0   9  -3   63.09    4.90
   0   9   3   72.19    6.00
   0   9   3   58.09    7.00
   0   9  -3   56.59    5.10
   0   9   3   59.99    4.60
  -1  -9  -3   93.49    6.70
  -1  -9  -3  101.69    9.20
  -1  -9  -3   88.79    7.60
   1  -9   3   90.29    6.30
   1   9   3   84.69    6.30
  -1   9  -3   81.99    6.80
  -1   9  -3   93.69    6.40
   1   9   3   91.89    9.00
  -1   9  -3   95.59    9.40
  -1   9  -3   97.19    6.10
   2  -9   3  646.44   27.30
  -2  -9  -3  634.44   29.90
   2  -9   3  616.54   33.60
  -2   9  -3  632.24   24.80
   2   9   3  621.04   33.30
   2   9   3  589.94   26.40
  -2   9  -3  623.54   24.80
   3  -9   3  757.42   40.20
  -3   9  -3  753.42   29.70
   3   9   3  713.33   40.10
   4  -9   3  204.08   18.60
  -4   9  -3  215.78   13.30
   4 -10  -3  212.18   14.60
   4 -10  -3  209.18   18.60
   4  10  -3  228.08   14.70
   4  10  -3  217.48   20.50
   3 -10  -3  218.68   13.60
   3 -10  -3  207.48   16.30
   3  10  -3  212.88   12.90
   3  10  -3  196.08   17.10
   2 -10  -3  155.98   10.40
  -2 -10   3  140.69    7.20
   2  10  -3  140.89   12.80
   2  10  -3  143.59    9.60
  -1 -10   3  984.30   43.00
  -1 -10   3 1053.29   35.60
   1 -10  -3 1001.20   43.10
   1  10  -3  950.50   35.40
   1  10  -3  956.40   49.60
   1  10  -3  969.60   38.60
   0 -10   3  111.39    7.00
   0 -10  -3   98.79    8.00
   0 -10  -3  112.09    6.60
   0 -10   3  111.19    7.60
   0  10   3  104.79    9.60
   0  10  -3  107.49    6.80
   0  10   3  103.49    6.40
   0  10  -3  108.69    7.10
   0  10  -3  124.99    8.20
   1 -10   3 1711.43   72.39
  -1 -10  -3 1749.92   74.29
  -1 -10  -3 1883.01   83.99
   1  10   3 1777.82   82.99
   1  10   3 1737.43   66.19
  -1  10  -3 1815.22   65.49
  -1  10  -3 1764.12   73.59
  -1  10  -3 1678.73   62.19
  -2 -10  -3  263.67   15.70
   2 -10   3  256.17   13.20
  -2  10  -3  252.27   11.80
   2  10   3  267.07   17.70
   2  10   3  243.48   13.70
  -2  10  -3  241.28   12.80
   3 -10   3  266.47   13.70
   3 -10   3  258.27   19.60
   3  10   3  245.18   19.10
  -3  10  -3  260.77   14.10
   4 -10   3   77.39   12.90
  -4  10  -3   67.09    8.50
   4 -11  -3  357.96   25.20
   4 -11  -3  341.37   20.40
   4  11  -3  359.16   27.00
   4  11  -3  388.06   20.30
   3 -11  -3  150.18   11.50
   3  11  -3  170.38   11.40
   3  11  -3  135.39   15.10
  -2 -11   3  932.91   32.70
   2 -11  -3  908.31   40.50
   2  11  -3  892.11   47.00
   2  11  -3  871.91   36.80
  -1 -11   3 1207.48   50.69
  -1 -11   3 1241.48   42.10
   1 -11  -3 1139.79   50.59
  -1  11   3 1130.79   43.40
   1  11  -3 1167.18   58.39
   1  11  -3 1135.39   45.40
   0 -11  -3 2152.38   90.29
   0 -11  -3 2232.98   80.09
   0 -11   3 2169.98   89.39
   0  11   3 2143.19  101.19
   0  11   3 2191.28   79.99
   0  11  -3 2070.69  101.89
   0  11  -3 2247.08   75.89
   0  11  -3 2172.38   80.49
   1 -11   3  560.44   25.20
  -1 -11  -3  550.54   27.00
   1 -11   3  540.15   22.80
  -1  11  -3  520.55   26.20
   1  11   3  557.74   23.60
  -1  11  -3  577.34   22.80
   1  11   3  574.64   30.30
  -1  11  -3  558.74   22.50
   2 -11   3 1383.36   59.29
  -2 -11  -3 1496.25   62.59
   2  11   3 1456.35   69.49
   2  11   3 1389.56   55.49
  -2  11  -3 1383.56   53.19
  -2  11  -3 1418.56   52.09
  -2  11  -3 1441.46   60.29
   3 -11   3  343.87   16.70
   3 -11   3  337.17   23.10
   3  11   3  283.77   22.10
  -3  11  -3  326.07   16.30
   4 -11   3  180.28   18.30
   4  11   3  135.19   20.40
  -4  11  -3  178.78   12.50
   4 -12  -3  371.26   21.60
   4  12  -3  414.26   22.00
   3 -12  -3  580.24   27.10
   3  12  -3  444.06   31.90
   3  12  -3  561.14   25.30
  -2 -12   3  245.98   11.00
   2 -12  -3  241.28   14.70
   2  12  -3  222.18   18.10
   2  12  -3  241.88   13.60
   1 -12  -3  338.37   18.10
  -1 -12   3  332.27   18.00
   1 -12  -3  350.46   14.30
   1  12  -3  323.47   16.10
  -1  12   3  336.27   14.20
   1  12  -3  335.07   22.00
   0 -12   3  867.11   38.20
   0 -12  -3  886.81   34.00
   0 -12  -3  838.72   39.00
   0  12  -3  879.51   32.80
   0  12  -3  865.11   44.90
   0  12  -3  848.32   34.30
   0  12   3  868.61   44.00
   0  12   3  860.11   33.80
   1 -12   3  427.66   20.50
   1 -12   3  416.16   18.40
  -1 -12  -3  418.66   22.20
   1  12   3  440.26   25.00
  -1  12  -3  428.56   18.60
  -1  12  -3  415.86   18.30
   1  12   3  420.16   19.20
   2 -12   3  131.39    9.00
  -2 -12  -3  126.29   11.20
  -2  12  -3  116.99    9.00
   2  12   3  123.49    9.50
  -2  12  -3  125.09    7.70
   2  12   3  120.19   12.60
  -3 -12  -3   40.70    8.00
   3  12   3   48.30   10.50
  -3  12  -3   55.99    7.20
   4  12   3  127.39   20.30
  -4  12  -3  147.29   12.10
   4 -13  -3   56.79    8.60
   3 -13  -3  271.67   16.70
   3  13  -3  278.47   16.20
   3  13  -3  241.98   22.50
   2 -13  -3  118.79   10.00
   2  13  -3  101.59    9.10
   2  13  -3  120.69   13.50
   1 -13  -3  336.97   14.20
   1 -13  -3  336.17   18.20
  -1 -13   3  324.47   18.00
   1  13  -3  321.87   16.10
  -1  13   3  317.67   20.80
  -1  13   3  317.17   14.00
   1  13  -3  332.07   22.30
   0 -13   3  894.51   39.50
   0 -13  -3  871.11   40.20
   0  13  -3  902.81   33.80
   0  13   3  876.51   34.90
   0  13  -3  896.41   35.50
   0  13   3  895.81   45.60
   0  13  -3  859.81   46.30
   1 -13   3  221.88   13.00
  -1 -13  -3  234.98   14.80
  -1  13  -3  214.98   12.20
   1  13   3  212.98   16.30
  -1  13  -3  227.88   11.50
   1  13   3  229.18   12.40
  -2 -13  -3  377.06   22.10
   2 -13   3  396.86   19.60
  -2  13  -3  400.96   18.70
   2  13   3  370.76   24.60
  -2  13  -3  400.46   17.20
   2  13   3  403.36   19.70
  -3 -13  -3   17.20    6.50
  -3  13  -3    3.60    4.30
   3  13   3    9.90    7.40
   3 -14  -3  711.13   35.50
   3  14  -3  676.73   43.70
   3  14  -3  817.32   33.80
   2 -14  -3  512.95   27.10
   2  14  -3  545.65   33.20
   2  14  -3  569.64   25.40
  -1 -14   3  286.57   17.00
   1 -14  -3  296.47   17.30
  -1  14   3  286.27   19.90
  -1  14   3  286.57   13.10
   1  14  -3  297.17   21.20
   1  14  -3  303.77   15.50
   0 -14  -3  564.74   28.10
   0 -14   3  569.24   27.30
   0  14  -3  586.84   23.80
   0  14   3  558.04   23.90
   0  14  -3  568.54   24.50
   0  14   3  570.64   32.30
   0  14  -3  568.14   33.00
   1 -14   3  740.13   33.40
  -1 -14  -3  727.83   35.20
  -1  14  -3  711.03   29.60
   1  14   3  729.23   30.70
  -1  14  -3  723.93   29.40
   1  14   3  734.83   39.40
  -2 -14  -3  828.12   40.20
   2 -14   3  821.32   37.10
   2  14   3  808.52   44.50
   2  14   3  868.71   35.70
  -2  14  -3  803.12   32.70
  -2  14  -3  848.22   33.80
  -3 -14  -3   83.89   11.30
   3  14   3   76.29   12.70
  -3  14  -3   90.09    9.70
   3 -15  -3  134.79   11.90
   3  15  -3  130.59   11.60
   2 -15  -3   26.20    6.30
   2  15  -3   22.40    5.60
   2  15  -3   18.00    8.30
   1 -15  -3   44.80    7.70
  -1 -15   3   38.90    6.50
   1  15  -3   38.30    9.10
  -1  15   3   50.19    9.30
   1  15  -3   48.00    6.80
  -1  15   3   37.00    4.40
   0 -15  -3   58.79    7.80
   0 -15   3   62.39    7.50
   0  15   3   79.29   11.60
   0  15  -3   65.49   11.30
   0  15   3   57.59    5.80
   0  15  -3   64.69    6.60
   0  15  -3   65.89    6.90
  -1 -15  -3   41.60    7.20
   1 -15   3   40.20    6.20
  -1  15  -3   40.20    5.90
   1  15   3   36.60    5.80
   1  15   3   52.09    9.30
  -1  15  -3   50.99    5.90
  -2 -15  -3    6.50    4.90
   2 -15   3    3.70    3.80
   2  15   3    3.80    4.00
  -2  15  -3    5.00    3.90
   2  15   3    7.90    6.90
  -3 -15  -3  130.79   14.90
   3  15   3  109.19   15.70
   3 -16  -3  399.86   23.00
   2 -16  -3  467.85   26.20
   2  16  -3  486.75   24.20
   2  16  -3  532.55   32.70
   1 -16  -3  223.98   15.70
  -1 -16   3  266.37   16.20
   1  16  -3  229.38   19.40
  -1  16   3  244.28   18.80
   1  16  -3  236.28   14.00
   0 -16  -3  491.45   25.90
   0 -16   3  487.75   25.00
   0  16   3  486.35   21.70
   0  16   3  492.05   29.90
   0  16  -3  506.85   22.50
   0  16  -3  473.15   30.40
  -1 -16  -3  376.06   21.70
   1 -16   3  376.66   19.90
  -1  16  -3  351.96   17.80
  -1  16  -3  359.76   17.10
   1  16   3  351.36   18.10
   1  16   3  353.46   24.10
  -2 -16  -3  624.94   33.40
   2 -16   3  663.23   30.70
   2  16   3  655.53   29.60
  -2  16  -3  615.84   27.90
   2  16   3  634.34   37.30
   3  16   3    9.00    8.60
   2 -17  -3  106.89   11.10
   2  17  -3   95.29    9.90
   2  17  -3   97.89   15.50
   1 -17  -3  133.39   12.00
  -1 -17   3  130.59   11.70
   1  17  -3  145.59   15.60
  -1  17   3  113.59   13.70
   1  17  -3  147.39   10.90
   0 -17  -3  290.97   18.50
   0 -17   3  304.87   17.70
   0  17  -3  282.77   21.90
   0  17   3  294.77   15.00
   0  17   3  279.27   21.10
   0  17  -3  285.67   15.50
  -1 -17  -3   40.60    7.50
   1 -17   3   36.60    6.40
   1  17   3   51.19    7.00
   1  17   3   44.40    9.80
  -1  17  -3   45.20    5.90
  -1  17  -3   46.30    6.80
  -1  17  -3   47.60   10.50
   2  17   3  225.18   19.30
   2  17   3  215.48   14.50
   2 -18  -3   30.10    7.00
   1 -18  -3  237.18   16.50
  -1 -18   3  222.28   16.20
  -1  18   3  226.38   19.10
   1  18  -3  245.28   14.70
   1  18  -3  234.18   20.30
   0 -18  -3   33.10    7.70
   0 -18   3   33.20    6.70
   0  18  -3   19.90    4.90
   0  18   3   31.10    9.00
   0  18  -3   16.20    8.70
   0  18   3   21.50    4.50
   1 -18   3   54.99    8.10
  -1 -18  -3   41.80    8.30
   1  18   3   49.30   10.80
   1  18   3   50.19    7.10
  -1  18  -3   58.69   12.10
   2  18   3  113.59   15.30
  -1  19   3  453.45   30.40
   1  19  -3  485.85   23.80
   0 -19   3  730.33   36.50
   0  19  -3  792.32   33.00
   0  19  -3  760.92   44.90
   0  19   3  699.83   42.40
   1 -19   3   43.30    7.40
   1  19   3   49.90   10.90
   1  19   3   44.50    7.00
   5   0  -4   61.09   12.90
   4   0  -4 1338.77   66.09
   3   0  -4 1240.48   60.49
   3   0  -4 1284.87   47.20
  -2   0   4  150.78    9.50
   2   0  -4  148.69    7.10
   2   0  -4  171.18   10.80
  -2   0   4  159.98    7.30
   1   0  -4 1808.32   70.69
  -1   0   4 2011.20   87.59
  -1   0   4 2056.19   70.79
   0   0  -4 2112.59   69.49
   0   0  -4 1994.90   82.09
  -1   0  -4 1860.41   67.99
   1   0   4 2016.10   90.29
   1   0   4 2043.70   67.99
  -1   0  -4 2063.19   90.59
  -2   0  -4 1885.21   67.49
   2   0   4 1929.71   78.89
   2   0   4 2000.10   90.49
   2   0   4 1988.30   67.49
  -2   0  -4 2018.50   90.59
   3   0   4 2208.98   90.29
  -3   0  -4 2206.48   76.99
   3   0   4 2272.37  104.09
   4   0   4  597.14   35.20
  -4   0  -4  624.94   24.30
   5   0   4   30.30   12.20
   5  -1  -4   38.20   10.60
   5   1  -4   41.60   11.70
   4  -1  -4  105.09   12.90
   4   1  -4   89.59    7.60
   4   1  -4   85.49   12.70
   3  -1  -4  473.65   16.70
  -3  -1   4  486.75   19.50
   3  -1  -4  470.15   25.80
   3  -1  -4  459.35   18.80
   3   1  -4  451.25   19.30
   3   1  -4  457.35   26.00
  -3   1   4  482.85   18.80
   2  -1  -4  287.37   10.80
   2  -1  -4  279.27   11.70
   2  -1  -4  313.07   16.20
  -2  -1   4  290.67   15.70
   2   1  -4  282.77   12.30
   2   1  -4  301.47   16.50
  -2   1   4  291.47   15.70
  -2   1   4  294.47   15.70
  -2   1   4  311.47   11.90
  -1  -1   4  366.66   13.90
   1  -1  -4  311.17   13.40
  -1  -1   4  339.27   16.60
   1   1  -4  369.76   12.30
   1   1  -4  359.36   16.70
   1   1  -4  340.77   13.80
   0  -1  -4  825.72   35.70
   0  -1   4  883.21   30.30
   0   1  -4  882.11   30.40
   0   1   4  880.11   35.70
  -1  -1  -4 1273.17   44.40
  -1  -1  -4 1224.98   51.89
  -1  -1  -4 1336.37   58.99
   1  -1   4 1275.07   58.89
   1  -1   4 1356.06   44.50
  -1   1  -4 1224.78   44.40
  -1   1  -4 1339.27   59.19
   1   1   4 1205.58   51.69
   1   1   4 1334.97   58.99
   2  -1   4  136.59   10.70
   2  -1   4  150.98    7.20
  -2  -1  -4  133.19   10.30
  -2  -1  -4  131.09    6.80
  -2  -1  -4  139.59    7.90
   2   1   4  139.79    7.30
   2   1   4  140.59   11.20
  -2   1  -4  129.99    7.10
  -2   1  -4  155.58   11.40
   3  -1   4  236.08   17.00
  -3  -1  -4  221.18   10.50
   3  -1   4  203.88   10.50
   3   1   4  227.68   11.70
   3   1   4  225.58   17.50
  -3   1  -4  216.68   10.70
   4  -1   4   65.69   11.00
  -4  -1  -4   53.49    5.70
   4   1   4   58.49   11.70
  -4   1  -4   57.39    6.20
   5  -1   4  148.89   18.60
   5   1   4  138.69   18.60
   5  -2  -4  190.28   18.00
   5   2  -4  147.69   18.20
   4  -2  -4  966.50   48.60
   4   2  -4 1015.90   37.80
   4   2  -4  843.92   48.70
  -3  -2   4 1292.17   47.10
   3  -2  -4 1279.47   42.80
   3  -2  -4 1232.78   59.39
   3   2  -4 1185.98   59.89
   3   2  -4 1218.78   47.00
   2  -2  -4 2186.88   98.09
  -2  -2   4 2294.27   78.99
   2  -2  -4 2121.39   72.99
  -2  -2   4 2140.89   97.89
  -2   2   4 2083.09   98.09
   2   2  -4 2251.77   98.49
   2   2  -4 2047.00   78.69
   1  -2  -4 3199.48  144.29
  -1  -2   4 3414.26  108.19
  -1  -2   4 3051.99  144.39
  -1  -2   4 3332.97  116.59
   1   2  -4 2971.30  144.39
   1   2  -4 3126.79  116.49
   1   2  -4 3391.96  108.19
  -1   2   4 3410.66  144.29
   0  -2  -4 1536.45   64.49
   0  -2   4 1692.53   54.39
   0  -2  -4 1615.94   71.69
   0   2  -4 1590.44   58.29
   0   2  -4 1555.84   71.89
   0   2   4 1602.24   64.49
   0   2   4 1578.94   71.49
   0   2  -4 1626.24   54.39
   1  -2   4 3835.22  129.79
  -1  -2  -4 4039.00  172.68
  -1  -2  -4 3827.22  129.69
  -1  -2  -4 3675.83  153.58
   1  -2   4 3783.32  172.48
   1   2   4 3992.20  172.58
  -1   2  -4 3746.23  129.89
  -1   2  -4 4010.70  172.68
   1   2   4 3792.72  153.48
  -2  -2  -4  413.56   22.60
   2  -2   4  435.96   16.70
  -2  -2  -4  415.26   18.10
   2  -2   4  431.56   22.80
  -2  -2  -4  405.96   16.40
  -2   2  -4  471.15   23.60
  -2   2  -4  416.96   16.80
   2   2   4  444.46   23.60
   3  -2   4 1280.97   61.99
  -3  -2  -4 1252.27   45.40
   3   2   4 1294.67   62.59
   3   2   4 1293.67   53.49
  -3   2  -4 1275.77   45.80
  -4  -2  -4  412.36   17.20
   4  -2   4  413.36   26.30
  -4   2  -4  432.66   18.10
   4   2   4  377.96   26.80
   5  -2   4   36.60   11.80
   5   2   4   21.60   12.20
   5  -3  -4  109.79   14.70
   5   3  -4  122.59   16.80
   4  -3  -4  344.67   21.60
   4   3  -4  354.66   16.10
   4   3  -4  250.47   22.10
   3  -3  -4   98.89    5.20
  -3  -3   4   91.29    6.90
   3  -3  -4   88.49    9.30
   3   3  -4   90.29    6.70
   3   3  -4   73.09   11.50
   2  -3  -4  639.74   31.90
   2  -3  -4  640.84   23.50
  -2  -3   4  697.53   26.00
  -2  -3   4  660.73   32.00
   2   3  -4  668.63   32.30
   2   3  -4  611.04   25.60
  -2   3   4  696.63   32.10
  -1  -3   4 3519.15  111.19
   1  -3  -4 3419.66  133.39
   1  -3  -4 2998.40  148.29
   1   3  -4 3428.26  148.89
  -1   3   4 3430.06  148.29
   1   3  -4 3317.87  111.09
   1   3  -4 3149.39  119.69
   0  -3  -4  100.49    6.10
   0  -3   4  106.09    5.00
   0  -3  -4  104.79    6.80
   0   3  -4  106.49    5.10
   0   3   4  102.59    6.30
   0   3  -4  104.69    5.80
   0   3   4  102.69    5.90
   0   3  -4   97.19    5.30
   0   3  -4   99.69    6.60
   1  -3   4 3019.90   99.19
  -1  -3  -4 2837.22  131.59
  -1  -3  -4 2967.30  117.59
   1  -3   4 2941.71  131.89
   1   3   4 3032.10  131.79
  -1   3  -4 2912.01  131.89
   1   3   4 2904.31  117.29
  -1   3  -4 2812.62   99.19
  -2  -3  -4  214.08   13.60
  -2  -3  -4  219.08   11.00
   2  -3   4  220.68   13.90
  -2  -3  -4  216.28   11.20
  -2  -3  -4  220.68    9.70
  -2   3  -4  215.68   10.10
  -2   3  -4  238.48   14.60
   2   3   4  218.48   11.20
   2   3   4  232.88   15.50
  -3  -3  -4  579.64   22.60
   3  -3   4  598.44   32.10
  -3   3  -4  589.04   23.30
   3   3   4  608.44   26.80
  -3   3  -4  614.74   24.60
   3   3   4  574.64   32.80
  -4  -3  -4   57.69    5.60
   4  -3   4   56.79   10.70
   4   3   4   54.99   12.60
  -4   3  -4   36.70    5.10
   5  -3   4  407.96   29.00
   5   3   4  363.46   29.50
   5  -4  -4  124.69   12.20
   5  -4  -4  119.69   15.50
   4  -4  -4   59.69    9.40
   4   4  -4   56.19    6.80
   3  -4  -4  968.10   34.20
   3  -4  -4  950.90   47.10
   3   4  -4  968.30   37.70
  -2  -4   4  215.78   10.50
   2  -4  -4  208.98   11.70
  -2  -4   4  219.98   13.00
   2  -4  -4  212.18   12.80
   2  -4  -4  204.88    9.20
   2   4  -4  224.98   11.90
   2   4  -4  235.68   13.40
  -2   4   4  222.08   13.10
   2   4  -4  211.18   10.40
  -1  -4   4 2907.61  102.09
  -1  -4   4 2970.60  136.79
   1  -4  -4 3161.38  122.69
  -1  -4   4 3053.79  110.29
   1   4  -4 2921.71  110.19
   1   4  -4 2980.60  102.09
   1   4  -4 3253.57  122.69
   1   4  -4 3125.09  137.19
   0  -4  -4  366.16   14.10
   0  -4   4  298.17   13.10
   0  -4  -4  367.66   18.10
   0  -4   4  368.16   14.50
   0  -4  -4  345.67   16.00
   0   4  -4  338.97   14.50
   0   4  -4  358.36   15.30
   0   4  -4  354.46   13.40
   0   4   4  341.37   17.40
  -1  -4  -4 2487.75   90.29
  -1  -4  -4 2305.47   99.99
  -1  -4  -4 2659.13  112.29
   1  -4   4 2362.76  112.19
   1  -4   4 2423.76   84.29
   1   4   4 2586.94  112.09
  -1   4  -4 2425.86   84.39
  -1   4  -4 2554.14  112.29
   2  -4   4  303.27   13.00
   2  -4   4  292.47   17.70
  -2  -4  -4  286.37   15.00
  -2  -4  -4  295.07   17.40
  -2  -4  -4  298.57   12.60
  -2  -4  -4  308.97   14.20
  -2   4  -4  312.47   13.30
   2   4   4  329.57   18.70
   2   4   4  316.87   15.00
  -2   4  -4  349.96   18.80
  -3  -4  -4  657.83   25.30
   3  -4   4  656.33   35.60
   3   4   4  657.83   36.80
  -3   4  -4  698.33   26.40
   3   4   4  711.43   30.50
  -4  -4  -4  131.89    8.00
   4  -4   4  143.09   14.80
   4   4   4  134.49   16.40
  -4   4  -4  127.39    9.20
   5   4   4  188.08   23.90
   5  -5  -4  380.86   22.40
   4  -5  -4  335.47   19.50
   4  -5  -4  364.26   23.00
   4   5  -4  373.86   17.90
   3  -5  -4  646.24   23.20
   3  -5  -4  577.54   28.40
   3  -5  -4  617.04   32.10
   3   5  -4  585.04   32.70
   3   5  -4  647.64   25.90
  -2  -5   4 1391.96   65.59
   2  -5  -4 1383.36   65.49
   2  -5  -4 1373.86   58.79
  -2  -5   4 1461.55   53.09
   2  -5  -4 1369.96   49.00
  -2   5   4 1488.95   65.69
   2   5  -4 1336.27   52.79
   2   5  -4 1459.85   66.19
  -1  -5   4 2493.95   93.79
  -1  -5   4 2583.24   86.79
   1  -5  -4 2492.65  104.39
   1  -5  -4 2610.64   87.59
   1   5  -4 2665.03  117.19
   1   5  -4 2408.36   93.69
   1   5  -4 2635.24  104.29
   1   5  -4 2576.94   86.89
  -1   5   4 2576.64  116.29
  -1   5   4 2742.03  104.59
   0  -5  -4  696.33   30.50
   0  -5  -4  735.23   27.00
   0  -5   4  640.14   25.20
   0  -5   4  732.43   27.40
   0  -5   4  716.73   29.70
   0   5  -4  692.93   25.40
   0   5  -4  721.13   27.40
   0   5   4  675.23   33.60
   0   5  -4  727.13   29.80
   0   5   4  752.52   30.60
  -1  -5  -4 3461.35  153.48
  -1  -5  -4 3523.95  137.29
  -1  -5  -4 3354.06  123.29
   1  -5   4 3472.35  153.68
  -1   5  -4 3295.87  115.49
  -1   5  -4 3363.86  153.68
   1   5   4 3508.95  153.48
   1   5   4 3358.46  136.89
  -1   5  -4 3310.77  122.99
  -2  -5  -4  564.94   25.60
   2  -5   4  569.44   21.70
   2  -5   4  560.04   29.20
  -2  -5  -4  533.55   28.70
   2   5   4  579.34   29.40
  -2   5  -4  544.15   21.70
   2   5   4  555.74   25.20
  -2   5  -4  573.84   29.50
  -3  -5  -4  351.46   14.60
   3  -5   4  326.27   21.30
  -3   5  -4  360.46   15.70
   4  -5   4   15.50    7.80
  -4  -5  -4   16.40    3.30
  -4   5  -4   15.80    4.70
   4   5   4   29.80   10.50
   5  -6  -4  279.77   18.40
   5   6  -4  279.87   16.60
   4  -6  -4  182.58   15.60
   4  -6  -4  184.08   12.90
   4   6  -4  173.08   11.80
   3  -6  -4  942.71   42.30
   3  -6  -4  952.20   47.60
   3  -6  -4 1014.50   35.10
   3   6  -4  929.51   48.30
   3   6  -4  970.90   38.40
   2  -6  -4  266.97   11.50
   2  -6  -4  268.77   15.70
  -2  -6   4  278.87    9.90
   2  -6  -4  249.78   14.00
   2   6  -4  248.38   12.60
   2   6  -4  278.87   16.40
  -2   6   4  283.77   15.70
   1  -6  -4 1490.55   61.29
   1  -6  -4 1458.35   51.29
  -1  -6   4 1470.75   50.49
   1   6  -4 1514.55   61.09
   1   6  -4 1427.76   54.99
  -1   6   4 1409.76   67.99
   1   6  -4 1457.75   50.59
   1   6  -4 1509.95   69.09
  -1   6   4 1534.25   61.39
   0  -6   4  572.24   22.90
   0  -6  -4  560.84   25.60
   0  -6  -4  599.84   22.50
   0  -6   4  574.04   24.80
   0  -6   4  588.44   21.30
   0   6   4  602.24   28.60
   0   6  -4  550.84   22.80
   0   6  -4  571.04   24.90
   0   6   4  613.34   25.90
   0   6  -4  570.24   21.40
   1  -6   4 2563.04  120.49
  -1  -6  -4 2640.04  107.69
   1  -6   4 2606.54  105.59
  -1  -6  -4 2603.84   96.59
  -1  -6  -4 2850.21  120.69
  -1   6  -4 2637.74   90.49
   1   6   4 2682.93  107.39
  -1   6  -4 2672.23   96.29
  -1   6  -4 2521.95  105.99
  -1   6  -4 2719.03  120.59
   1   6   4 2616.84  119.99
   2  -6   4   58.59    7.80
  -2  -6  -4   56.39    6.20
  -2  -6  -4   56.69    7.40
   2   6   4   76.59    9.10
   2   6   4   49.60    5.40
  -2   6  -4   56.69    7.90
  -2   6  -4   50.59    5.20
   3  -6   4 1173.18   58.79
  -3  -6  -4 1185.28   42.60
  -3   6  -4 1205.38   43.80
   4  -6   4   19.10    8.00
  -4   6  -4   11.20    4.60
   4   6   4   11.50    9.30
   5  -7  -4   25.70    6.90
   5   7  -4   31.20    6.70
   4  -7  -4   74.29   11.30
   4  -7  -4   68.39    8.70
   4   7  -4   61.79    7.70
   4   7  -4   59.09   13.00
   3  -7  -4  820.72   39.70
   3  -7  -4  732.93   34.60
   3   7  -4  696.13   39.60
   3   7  -4  812.52   31.90
   2  -7  -4 1117.09   50.39
   2  -7  -4 1168.48   56.39
   2  -7  -4 1234.78   42.40
  -2  -7   4 1213.68   40.60
   2   7  -4 1258.77   57.39
   2   7  -4 1118.49   45.40
  -1  -7   4  137.39    7.90
   1  -7  -4  146.89    9.20
   1  -7  -4  142.09    7.50
  -1  -7   4  143.79    6.60
   1   7  -4  139.09    8.10
  -1   7   4  152.68   10.10
   1   7  -4  138.29    8.70
  -1   7   4  155.88    9.20
   1   7  -4  153.48   11.40
   1   7  -4  150.28    6.90
   0  -7   4    3.20    1.90
   0  -7   4    3.10    1.90
   0  -7   4    5.00    1.90
   0  -7  -4    5.20    1.70
   0  -7  -4    2.50    2.00
   0   7  -4    5.20    2.00
   0   7   4    3.30    3.20
   0   7  -4    7.60    2.10
   0   7  -4    3.00    2.00
   0   7   4    6.40    2.60
  -1  -7  -4  550.74   22.40
  -1  -7  -4  567.14   25.40
   1  -7   4  530.35   23.30
  -1  -7  -4  559.64   28.30
  -1   7  -4  525.25   21.10
  -1   7  -4  546.25   23.80
   1   7   4  541.15   27.70
  -1   7  -4  543.25   22.00
  -1   7  -4  548.55   28.40
   1   7   4  567.74   25.10
  -2  -7  -4 1146.39   56.09
  -2  -7  -4 1187.58   50.29
   2  -7   4 1167.58   56.49
  -2   7  -4 1145.99   43.90
   2   7   4 1202.98   56.29
  -2   7  -4 1111.99   42.10
  -3  -7  -4  133.99    8.00
   3  -7   4  134.29   13.60
   3   7   4  143.19   15.20
  -3   7  -4  132.99    9.40
   4  -7   4   30.20    9.10
   4   7   4   24.00   10.80
  -4   7  -4   17.30    5.40
   4  -8  -4  599.14   30.30
   4  -8  -4  647.84   35.60
   4   8  -4  575.74   37.60
   4   8  -4  667.23   28.40
   3  -8  -4  672.43   35.00
   3  -8  -4  649.24   30.80
   3   8  -4  685.03   28.30
   3   8  -4  616.24   35.50
   2  -8  -4  581.14   27.40
   2   8  -4  581.74   24.70
   2   8  -4  606.44   31.60
  -1  -8   4 1194.68   41.10
  -1  -8   4 1210.28   45.10
   1  -8  -4 1126.09   49.90
  -1  -8   4 1126.99   49.60
   1  -8  -4 1234.08   42.20
  -1   8   4 1083.59   55.99
  -1   8   4 1232.48   50.39
   1   8  -4 1202.88   49.99
   1   8  -4 1190.78   57.29
   1   8  -4 1193.58   41.30
   1   8  -4 1151.88   44.90
   0  -8  -4 1078.89   49.50
   0  -8   4 1177.78   44.30
   0  -8  -4 1210.98   43.90
   0  -8   4 1220.68   41.60
   0  -8   4 1139.49   48.70
   0   8   4 1251.47   50.09
   0   8  -4 1167.68   41.50
   0   8   4 1142.59   55.39
   0   8  -4 1186.18   49.10
   0   8  -4 1134.59   44.30
  -1  -8  -4  777.82   38.40
  -1  -8  -4  789.12   34.40
  -1  -8  -4  715.83   30.10
   1  -8   4  760.22   32.20
  -1   8  -4  833.62   33.20
  -1   8  -4  752.52   38.50
  -1   8  -4  755.12   29.80
  -1   8  -4  741.23   28.60
   1   8   4  794.02   34.10
   1   8   4  733.53   37.50
   2  -8   4  339.77   22.00
  -2  -8  -4  392.96   22.90
  -2  -8  -4  353.66   19.50
   2   8   4  381.66   22.00
  -2   8  -4  397.06   16.40
  -2   8  -4  376.86   16.40
  -3  -8  -4  961.10   36.00
   3  -8   4  981.90   50.39
   3   8   4  976.60   50.59
  -3   8  -4  976.30   37.40
  -3   8  -4  994.70   38.10
   4  -8   4  378.56   26.00
  -4   8  -4  385.76   18.80
   4  -9  -4  112.09   14.00
   4  -9  -4   99.89   10.40
   4   9  -4  119.89   15.90
   4   9  -4  134.89   17.90
   4   9  -4  110.69   10.40
   3  -9  -4   64.79    9.60
   3  -9  -4   52.59    7.00
   3   9  -4   48.60    6.60
   3   9  -4   59.39   10.30
   2  -9  -4  317.17   16.90
  -2  -9   4  316.47   12.30
   2   9  -4  292.97   15.10
   2   9  -4  325.77   20.20
   1  -9  -4  162.28   10.30
  -1  -9   4  162.08   10.10
  -1  -9   4  177.58    8.00
   1   9  -4  171.38    8.10
   1   9  -4  150.28    9.20
   1   9  -4  164.78   10.20
   1   9  -4  169.58   13.20
   0  -9  -4   65.69    4.80
   0  -9  -4   65.49    6.20
   0  -9   4   62.99    5.30
   0  -9   4   60.69    5.40
   0  -9   4   71.19    5.10
   0   9  -4   62.99    5.20
   0   9  -4   62.19    5.50
   0   9  -4   73.79    5.90
   0   9   4   73.89    7.70
   1  -9   4  212.68   11.10
  -1  -9  -4  220.78   14.80
  -1  -9  -4  231.48   13.20
  -1   9  -4  200.08   10.70
  -1   9  -4  216.88   10.70
   1   9   4  218.78   14.20
  -1   9  -4  210.58   14.80
  -1   9  -4  246.58   12.30
   2  -9   4  630.94   27.50
  -2  -9  -4  656.83   30.80
   2  -9   4  640.54   34.40
  -2   9  -4  625.34   25.60
   2   9   4  655.23   34.00
  -2   9  -4  624.04   25.40
  -3  -9  -4  134.29    8.10
   3  -9   4  132.69   13.90
  -3   9  -4  105.39    9.10
   3   9   4  136.29   14.30
  -3   9  -4  132.19    8.20
   4  -9   4  171.48   17.50
  -4   9  -4  170.88   12.20
   4 -10  -4  788.52   41.80
   4 -10  -4  725.13   35.50
   4  10  -4  799.82   33.50
   4  10  -4  644.84   42.00
   3 -10  -4  157.08   11.90
   3  10  -4  169.58   15.60
   3  10  -4  180.58   11.70
   2 -10  -4  821.82   36.30
  -2 -10   4  795.62   28.60
   2  10  -4  793.82   41.90
   2  10  -4  773.42   32.70
  -1 -10   4 1956.50   81.69
  -1 -10   4 2071.49   68.19
   1 -10  -4 1905.61   81.99
   1  10  -4 1974.80   68.19
   1  10  -4 1922.01   73.69
   1  10  -4 1983.20   93.49
   0 -10  -4 3135.19  110.89
   0 -10  -4 2974.50  124.49
   0 -10   4 3016.60  123.39
   0 -10   4 3087.09  111.49
   0  10  -4 3000.50  111.39
   0  10  -4 3206.48  124.19
   0  10   4 2983.50  110.69
   0  10   4 3035.30  139.39
   0  10  -4 2984.60  104.39
  -1 -10  -4  230.78   14.10
  -1 -10  -4  270.47   16.80
   1 -10   4  246.68   12.40
  -1  10  -4  232.28   11.80
   1  10   4  239.78   15.50
  -1  10  -4  255.97   11.80
   1  10   4  217.98   11.90
  -1  10  -4  222.18   13.10
   2 -10   4  548.95   24.00
  -2 -10  -4  506.05   26.80
  -2  10  -4  538.95   22.60
  -2  10  -4  585.04   22.50
   2  10   4  503.45   29.70
   3 -10   4  467.75   28.60
  -3 -10  -4  502.15   25.60
   3  10   4  436.26   28.20
  -3  10  -4  463.25   20.90
  -3  10  -4  454.65   19.80
   4 -10   4  630.84   38.90
  -4  10  -4  697.53   29.00
   4 -11  -4  134.59   15.00
   4 -11  -4  120.89   11.40
   4  11  -4  119.79   11.30
   4  11  -4  114.39   17.30
   3 -11  -4   52.39    7.50
   3  11  -4   51.59    7.00
   3  11  -4   56.69   11.40
  -2 -11   4  154.08    7.80
   2 -11  -4  159.38   11.20
   2  11  -4  152.68   10.30
   2  11  -4  152.38   14.20
   1 -11  -4  753.42   36.10
  -1 -11   4  786.22   35.90
  -1 -11   4  900.01   30.40
   1  11  -4  785.42   32.50
   1  11  -4  794.22   29.70
   1  11  -4  780.02   42.20
   0 -11  -4    1.20    1.90
   0 -11   4   13.60    3.40
   0 -11  -4   -1.30    2.80
   0  11  -4    3.10    2.60
   0  11  -4    0.40    4.20
   0  11   4   -2.60    1.60
   0  11  -4    2.10    2.60
   0  11  -4   -1.30    2.10
   0  11   4    8.60    4.50
  -1 -11  -4  220.58   13.70
   1 -11   4  211.08   11.80
  -1  11  -4  231.68   13.10
  -1  11  -4  205.58   11.00
  -1  11  -4  213.98   11.40
   1  11   4  221.48   15.30
   1  11   4  217.88   11.60
  -2 -11  -4   53.39    7.90
   2 -11   4   50.39    5.40
   2  11   4   64.39    9.80
  -2  11  -4   41.60    5.60
  -2  11  -4   46.80    5.10
  -3 -11  -4   39.60    8.00
  -3  11  -4   41.10    6.50
   3  11   4   48.00    9.90
   4 -11   4   24.30    9.90
  -4  11  -4   30.40    6.20
   4  11   4   62.29   15.60
   4 -12  -4  225.48   16.00
   4  12  -4  243.58   16.20
   3 -12  -4  186.18   12.80
   3  12  -4  128.49   17.30
   3  12  -4  185.98   12.40
  -2 -12   4  470.55   18.20
   2 -12  -4  458.95   23.60
   2  12  -4  446.36   21.40
   2  12  -4  458.45   28.40
   1 -12  -4  307.87   13.00
   1 -12  -4  311.67   17.10
  -1 -12   4  308.37   16.80
   1  12  -4  308.47   13.70
  -1  12   4  307.67   19.40
   1  12  -4  289.17   15.00
   1  12  -4  283.67   20.50
   0 -12   4 1798.72   76.19
   0 -12  -4 1791.12   77.39
   0 -12  -4 1878.01   68.69
   0  12  -4 1826.52   68.89
   0  12  -4 1797.02   87.69
   0  12  -4 1833.92   64.89
   0  12   4 1851.61   68.29
   0  12   4 1876.51   87.09
   1 -12   4  635.34   27.90
  -1 -12  -4  608.84   29.90
   1  12   4  614.44   26.00
   1  12   4  624.54   33.30
  -1  12  -4  520.75   28.60
  -1  12  -4  677.03   25.70
  -1  12  -4  615.44   25.00
  -2 -12  -4  693.13   35.60
   2 -12   4  763.02   32.70
   2  12   4  708.33   39.60
  -2  12  -4  755.82   30.10
  -2  12  -4  770.92   29.90
  -3 -12  -4  184.28   15.50
  -3  12  -4  216.18   13.10
   3  12   4  191.18   17.50
   4  12   4  449.26   33.50
   4 -13  -4   28.90    6.70
   3 -13  -4  431.06   23.60
   3  13  -4  462.45   22.50
   3  13  -4  428.16   30.50
   2 -13  -4  955.60   45.30
   2  13  -4 1044.30   53.49
   2  13  -4 1009.00   41.40
  -1 -13   4  202.78   13.10
   1 -13  -4  207.58   13.40
   1 -13  -4  202.68    9.80
   1  13  -4  216.18   17.30
   1  13  -4  197.78   11.80
  -1  13   4  204.48   15.50
   0 -13   4   81.79    7.60
   0 -13  -4  100.39    9.10
   0  13   4   95.09   10.50
   0  13  -4   82.79   11.00
   0  13   4   84.29    6.40
   0  13  -4   86.99    7.20
   0  13  -4   82.99    7.10
   1 -13   4  759.02   33.90
  -1 -13  -4  759.42   36.10
  -1  13  -4  744.93   30.10
   1  13   4  745.93   31.40
  -1  13  -4  756.22   30.70
   1  13   4  775.62   40.20
  -2 -13  -4  391.66   21.80
   2 -13   4  346.37   17.90
  -2  13  -4  353.56   16.50
  -2  13  -4  355.46   17.70
   2  13   4  371.46   23.70
  -3 -13  -4   48.20    9.50
   3  13   4   58.79   11.40
  -3  13  -4   44.00    7.20
   3 -14  -4  257.97   16.20
   3  14  -4  182.98   21.30
   3  14  -4  229.98   14.90
   2 -14  -4  176.18   12.80
   2  14  -4  160.28   11.60
   2  14  -4  156.88   16.20
   1 -14  -4  447.66   23.30
  -1 -14   4  431.16   22.80
   1  14  -4  420.86   20.40
  -1  14   4  447.36   26.30
   1  14  -4  428.36   27.70
   0 -14   4  459.45   23.30
   0 -14  -4  469.15   24.50
   0  14   4  508.15   28.10
   0  14  -4  478.15   20.60
   0  14  -4  471.95   21.30
   0  14   4  460.25   20.50
   0  14  -4  467.25   28.80
  -1 -14  -4  288.37   17.90
   1 -14   4  306.97   16.20
  -1  14  -4  290.07   14.50
  -1  14  -4  289.77   15.00
   1  14   4  298.97   20.10
   1  14   4  285.37   15.10
   2 -14   4  104.99    8.60
  -2 -14  -4  105.29   11.50
   2  14   4  112.59   13.20
  -2  14  -4  104.49    9.50
  -2  14  -4  106.39    7.70
  -3 -14  -4  191.08   16.40
   3  14   4  165.58   17.30
  -3  14  -4  189.98   13.20
   3 -15  -4  213.18   15.30
   3  15  -4  198.38   21.90
   2 -15  -4  544.05   29.00
   2  15  -4  587.14   26.90
   2  15  -4  593.84   35.60
   1 -15  -4   67.79    9.00
  -1 -15   4   73.09    8.40
  -1  15   4   64.69   10.60
   1  15  -4   72.89   11.70
   1  15  -4   76.39    8.40
   0 -15   4   26.40    5.40
   0 -15  -4   21.20    5.80
   0  15  -4   19.10    4.60
   0  15  -4   18.50    4.40
   0  15   4   18.50    3.80
   0  15   4   17.70    6.20
   0  15  -4   24.30    7.80
   1 -15   4   43.30    6.00
  -1 -15  -4   56.09    8.20
   1  15   4   56.69    7.00
   1  15   4   58.49   10.20
  -1  15  -4   41.70    5.70
  -1  15  -4   46.90    6.50
   2 -15   4 1075.79   47.70
  -2 -15  -4 1134.69   51.29
   2  15   4 1086.69   56.39
  -2  15  -4 1028.40   42.40
   3  15   4  149.59   17.00
   3 -16  -4  163.18   13.70
   2 -16  -4  211.38   15.10
   2  16  -4  199.08   13.90
   2  16  -4  203.78   19.30
   1 -16  -4  422.06   23.30
  -1 -16   4  451.15   23.20
  -1  16   4  395.16   26.10
   1  16  -4  369.16   27.00
   1  16  -4  429.16   20.70
   0 -16   4  243.58   15.30
   0 -16  -4  250.17   16.40
   0  16  -4  260.57   20.10
   0  16  -4  247.28   13.70
   0  16   4  254.27   18.80
   0  16  -4  243.38   13.80
  -1 -16  -4   54.69    8.90
   1 -16   4   63.39    7.60
   1  16   4   56.89   10.20
  -1  16  -4   61.09    8.00
  -1  16  -4   61.89    6.60
  -2 -16  -4   33.60    7.80
   2  16   4   45.10   10.20
  -2  16  -4   30.30    6.00
   2 -17  -4  394.36   23.50
   2  17  -4  405.66   21.60
   2  17  -4  424.46   29.30
   1 -17  -4   46.60    7.80
  -1 -17   4   39.20    7.00
  -1  17   4   30.90    8.40
   1  17  -4   36.90    9.70
   1  17  -4   35.30    6.10
   0 -17  -4   87.99   10.00
   0 -17   4   82.09    8.90
   0  17  -4   94.09   13.80
   0  17   4   81.09   12.00
   0  17  -4   84.79    8.20
  -1 -17  -4   78.29   10.30
   1 -17   4   92.69    9.20
  -1  17  -4   92.79    9.10
  -1  17  -4  101.89    8.30
   1  17   4  116.29   14.90
   2  17   4  470.75   30.60
  -1 -18   4   83.19    9.90
   1 -18  -4   85.19   11.10
   1  18  -4   82.89   13.80
  -1  18   4   72.79   12.20
   1  18  -4   79.39    9.00
   0 -18   4 1059.09   48.90
   0 -18  -4 1080.09   50.49
   0  18   4 1002.40   56.09
   0  18  -4 1129.09   44.50
   0  18  -4 1104.09   58.39
   1 -18   4   97.79    9.60
   1  18   4   94.59   14.50
  -1  18  -4  110.39   16.50
   1  19  -4   52.99    8.30
   0 -19   4    7.50    5.10
   0  19   4    6.60    6.30
   0  19  -4    2.90    3.80
   1  19   4   37.40    9.80
   5   0  -5  206.98   19.90
   4   0  -5    8.50    3.30
   4   0  -5    8.30    7.50
   3   0  -5  870.31   34.40
   3   0  -5  940.91   44.90
  -3   0   5  906.31   34.50
   2   0  -5   -2.80    3.70
   2   0  -5    0.30    0.70
  -2   0   5   -1.40    1.20
   2   0  -5    0.00    1.30
  -2   0   5    0.70    2.60
   1   0  -5 1077.39   39.90
   0   0  -5    0.60    1.30
   0   0  -5   -0.10    1.30
  -1   0  -5  674.13   30.20
  -1   0  -5  604.64   22.60
   1   0   5  579.54   29.60
   1   0   5  614.64   22.60
   2   0   5   -0.50    4.80
  -2   0  -5    0.60    1.70
  -3   0  -5   17.30    3.50
   3   0   5   23.50    8.00
   3   0   5   20.60    3.20
   4   0   5    4.60    8.50
  -4   0  -5    4.50    3.50
   5   0   5   -5.50    8.90
   5  -1  -5   52.19   11.30
   5   1  -5   39.10   11.80
   4  -1  -5  806.92   42.70
   4   1  -5  783.12   43.00
   4   1  -5  854.01   32.80
   3  -1  -5 2156.48   96.79
   3  -1  -5 2111.39   76.19
   3   1  -5 2013.30   96.89
   3   1  -5 2080.49   76.79
   2  -1  -5  577.64   27.20
   2  -1  -5  539.75   21.00
  -2  -1   5  535.95   26.70
   2  -1  -5  537.05   19.40
  -2  -1   5  579.64   21.80
   2   1  -5  540.05   21.60
   2   1  -5  592.74   27.60
  -2   1   5  520.35   26.60
   1  -1  -5  968.10   37.50
  -1  -1   5 1038.20   37.90
   1   1  -5 1052.39   34.90
   1   1  -5 1053.19   46.20
   1   1  -5  976.70   37.90
   0  -1   5  593.84   20.70
   0  -1  -5  547.45   24.10
   0   1  -5  581.04   20.70
  -1  -1  -5 2978.00  120.79
   1  -1   5 3238.68  102.69
   1  -1   5 3012.00  135.99
  -1  -1  -5 2875.01  102.49
  -1  -1  -5 2969.70  136.09
   1   1   5 3187.18  136.09
   1   1   5 2988.50  120.59
  -1   1  -5 3204.28  136.29
  -1   1  -5 2817.22  102.59
  -2  -1  -5  703.63   27.30
   2  -1   5  775.92   27.60
  -2  -1  -5  752.32   37.00
   2  -1   5  753.32   36.90
   2   1   5  729.93   31.20
  -2   1  -5  802.22   37.60
  -2   1  -5  691.73   27.40
   2   1   5  784.62   37.30
   3  -1   5 1008.60   48.50
  -3  -1  -5  896.61   35.10
  -3   1  -5  952.30   35.50
   3   1   5  984.70   48.60
   3   1   5  972.50   40.50
  -4  -1  -5  451.15   18.50
   4  -1   5  427.26   27.50
   4   1   5  390.16   27.40
  -4   1  -5  429.36   18.60
   5  -1   5  201.78   20.70
   5   1   5  201.08   21.30
   5  -2  -5  338.87   24.00
   5   2  -5  295.37   24.70
   4  -2  -5   10.40    6.50
   4   2  -5    3.80    3.30
   4   2  -5   -2.00    7.70
   3  -2  -5  558.64   19.90
   3  -2  -5  579.34   29.20
  -3  -2   5  579.04   22.80
   3   2  -5  541.25   22.60
   3   2  -5  498.45   29.80
  -2  -2   5  162.08    8.00
  -2  -2   5  153.58    9.60
   2  -2  -5  146.89    6.60
   2  -2  -5  154.58    9.70
   2   2  -5  157.88    7.90
   2   2  -5  155.18   10.60
   1  -2  -5 4179.88  194.28
  -1  -2   5 4198.48  194.48
   1  -2  -5 4452.75  156.38
   1   2  -5 4693.63  147.59
   1   2  -5 4358.86  156.98
   1   2  -5 4360.26  194.58
   0  -2  -5  418.66   20.00
   0  -2  -5  417.36   18.60
   0  -2   5  455.35   15.90
   0   2  -5  415.36   15.80
   0   2  -5  411.46   20.20
   0   2  -5  440.56   17.30
   0   2   5  440.06   18.60
  -1  -2  -5  875.81   39.50
   1  -2   5  848.82   29.90
  -1  -2  -5  823.82   34.80
  -1  -2  -5  797.82   29.80
   1  -2   5  818.72   39.40
  -1   2  -5  855.41   39.60
   1   2   5  909.51   39.90
  -1   2  -5  780.52   29.90
   1   2   5  828.82   34.50
  -2  -2  -5  160.58    7.90
  -2  -2  -5  165.78    9.00
  -2  -2  -5  169.08   11.30
   2  -2   5  152.68   11.30
   2  -2   5  149.09    8.00
   2   2   5  161.38   12.30
  -2   2  -5  181.38   12.30
  -2   2  -5  152.98    8.20
   3  -2   5  561.94   31.10
  -3  -2  -5  530.55   22.20
  -3   2  -5  566.84   22.80
   3   2   5  623.84   32.50
   3   2   5  596.34   25.60
   4  -2   5  438.66   27.80
  -4  -2  -5  456.75   19.00
   4   2   5  419.06   28.70
  -4   2  -5  453.35   19.50
   5  -2   5  109.09   16.70
   5   2   5   81.49   16.30
   5  -3  -5   62.99   11.40
   5   3  -5   36.00   12.00
   4  -3  -5  221.68   17.00
   4   3  -5  228.78   12.50
  -3  -3   5  802.92   30.20
   3  -3  -5  771.02   26.90
   3  -3  -5  757.72   37.70
   3   3  -5  769.32   30.10
   3   3  -5  653.43   38.70
   2  -3  -5  375.56   15.10
   2  -3  -5  412.06   20.70
  -2  -3   5  430.26   17.20
  -2  -3   5  418.16   20.90
   2   3  -5  417.16   21.10
   2   3  -5  395.56   17.00
  -2   3   5  394.66   20.60
   1  -3  -5 1732.13   67.29
  -1  -3   5 1584.74   55.49
   1  -3  -5 1552.44   73.89
  -1  -3   5 1663.63   60.39
   1   3  -5 1750.12   74.59
   1   3  -5 1605.24   60.29
   1   3  -5 1667.73   55.59
  -1   3   5 1573.14   73.69
   0  -3  -5  825.12   33.90
   0  -3  -5  812.52   37.30
   0   3   5  834.42   33.70
   0   3  -5  796.52   30.70
   0   3  -5  808.02   28.50
   0   3   5  790.72   36.80
   0   3  -5  769.52   37.30
  -1  -3  -5 4743.23  211.98
   1  -3   5 4619.74  159.58
   1  -3   5 4610.94  212.18
  -1  -3  -5 4516.45  189.18
  -1   3  -5 4768.82  159.88
   1   3   5 5025.60  212.18
   1   3   5 4709.43  188.88
  -1   3  -5 4950.50  212.38
  -2  -3  -5  341.47   19.50
   2  -3   5  353.16   14.60
  -2  -3  -5  353.76   14.30
   2  -3   5  335.77   19.60
  -2  -3  -5  333.97   16.40
   2   3   5  361.76   16.40
  -2   3  -5  357.56   14.80
  -2   3  -5  388.76   20.50
   3  -3   5  972.70   50.09
  -3  -3  -5  976.50   36.60
  -3   3  -5 1032.50   37.40
   3   3   5  994.20   50.79
   3   3   5 1047.80   43.00
   4  -3   5  376.76   24.90
  -4  -3  -5  373.66   16.40
  -4   3  -5  381.26   17.30
   4   3   5  351.86   26.10
   5  -4  -5  552.14   29.20
   5  -4  -5  541.95   35.70
   4  -4  -5   34.00    7.70
   4   4  -5   47.40    6.10
   4   4  -5   16.70    8.20
   3  -4  -5   33.10    6.10
   3  -4  -5   32.90    3.50
   3   4  -5   14.50    8.90
   3   4  -5   39.20    5.00
   2  -4  -5  537.65   20.50
   2  -4  -5  568.44   27.70
  -2  -4   5  586.74   27.90
   2  -4  -5  537.95   25.30
  -2   4   5  532.25   27.50
   2   4  -5  555.34   22.60
   2   4  -5  579.34   28.10
  -1  -4   5 4455.75  137.99
   1  -4  -5 4096.69  165.08
  -1  -4   5 4207.78  148.49
   1   4  -5 3980.70  148.39
  -1   4   5 3675.73  183.48
   1   4  -5 4177.08  184.58
   1   4  -5 4220.78  137.99
   0  -4  -5   32.90    4.60
   0  -4  -5   32.00    3.80
   0  -4   5   28.70    2.80
   0   4   5   36.20    4.10
   0   4   5   29.00    3.40
   0   4  -5   33.60    3.10
   0   4  -5   33.80    4.40
   0   4  -5   31.30    2.80
   0   4  -5   37.30    3.80
  -1  -4  -5 1096.99   46.00
   1  -4   5 1144.99   51.59
  -1  -4  -5 1124.29   51.39
  -1  -4  -5 1046.00   41.40
   1   4   5 1096.89   45.50
   1   4   5 1146.99   51.29
  -1   4  -5 1069.69   51.39
  -1   4  -5 1044.00   38.90
  -2  -4  -5  618.24   32.10
  -2  -4  -5  661.63   24.00
   2  -4   5  619.84   24.20
  -2  -4  -5  607.44   28.10
   2  -4   5  611.04   32.30
   2   4   5  649.04   28.00
  -2   4  -5  632.84   24.40
  -2   4  -5  705.83   33.30
  -3  -4  -5  695.93   27.40
   3  -4   5  725.23   38.20
  -3   4  -5  730.73   28.40
   3   4   5  762.52   32.60
   3   4   5  740.53   39.10
  -4  -4  -5  506.25   20.60
   4  -4   5  521.15   30.50
  -4   4  -5  505.25   21.60
   4   4   5  449.06   30.90
   5  -5  -5  148.59   13.90
   5   5  -5  158.88   12.40
   4  -5  -5   30.20    6.20
   4  -5  -5   32.70    7.90
   4   5  -5   21.00   10.70
   4   5  -5   33.80    5.70
   3  -5  -5  711.93   37.00
   3  -5  -5  748.73   27.00
   3  -5  -5  736.03   33.50
   3   5  -5  728.63   37.90
   3   5  -5  726.83   29.80
   2  -5  -5  136.29    9.10
   2  -5  -5  138.79    9.70
   2  -5  -5  138.49    7.00
  -2  -5   5  148.39   10.30
  -2  -5   5  145.69    8.20
   2   5  -5  147.49    9.30
   2   5  -5  139.89   10.30
  -2   5   5  129.69    9.30
   2   5  -5  135.69    8.10
  -1  -5   5 1906.41   66.69
  -1  -5   5 1992.20   72.39
   1  -5  -5 2032.90   80.69
   1   5  -5 1903.71   72.29
  -1   5   5 1852.11   88.99
   1   5  -5 2008.30   90.19
   1   5  -5 1925.71   66.69
   1   5  -5 2115.49   80.49
   0  -5  -5  575.64   22.00
   0  -5   5  584.44   20.80
   0  -5   5  577.24   22.50
   0  -5  -5  529.85   24.80
   0   5  -5  574.64   20.90
   0   5  -5  568.64   24.00
   0   5   5  579.74   24.90
   0   5  -5  548.45   22.50
   0   5  -5  554.54   27.80
   0   5   5  548.45   27.00
  -1  -5  -5 2209.68   96.89
  -1  -5  -5 1970.10   86.39
   1  -5   5 1979.80   96.69
  -1  -5  -5 2112.49   77.89
  -1   5  -5 2133.49   77.79
   1   5   5 2150.78   86.19
  -1   5  -5 2191.08   96.99
   1   5   5 2193.98   96.59
  -1   5  -5 2120.09   73.09
   2  -5   5   69.39    8.30
  -2  -5  -5   68.89    5.10
  -2  -5  -5   64.09    6.20
  -2  -5  -5   59.29    7.30
   2   5   5   70.19    5.90
  -2   5  -5   73.69    8.50
  -2   5  -5   61.49    5.60
   3  -5   5  588.04   32.20
  -3  -5  -5  588.34   23.00
  -3   5  -5  587.54   23.90
  -4  -5  -5   16.40    3.70
   4  -5   5   18.80    8.10
  -4   5  -5   12.80    4.70
   4   5   5   13.80   10.10
   5  -6  -5  288.97   19.60
   5   6  -5  335.17   18.20
   4  -6  -5  255.07   16.90
   4  -6  -5  296.87   20.20
   4   6  -5  310.87   15.80
   3  -6  -5  197.08   14.00
   3  -6  -5  178.88   12.20
   3  -6  -5  191.58    9.50
   3   6  -5  200.68   15.00
   3   6  -5  192.28   11.20
  -2  -6   5  923.41   30.70
   2  -6  -5  899.71   32.40
   2  -6  -5  843.32   39.00
   2  -6  -5  905.81   43.20
   2   6  -5  940.91   44.10
  -2   6   5  892.71   44.00
   2   6  -5  863.71   35.10
   1  -6  -5 2935.21  120.49
  -1  -6   5 3010.80  108.39
   1   6  -5 3016.60  100.39
   1   6  -5 3034.60  135.29
  -1   6   5 2933.11  134.09
   1   6  -5 2872.81  108.29
   1   6  -5 3000.60  120.19
   0  -6  -5 1496.45   53.89
   0  -6   5 1507.45   50.69
   0  -6  -5 1405.36   60.49
   0  -6   5 1480.85   54.29
   0   6  -5 1443.86   59.59
   0   6   5 1504.45   60.59
   0   6  -5 1452.95   50.79
   0   6  -5 1434.86   54.39
   0   6   5 1411.06   66.89
  -1  -6  -5  172.68    9.20
  -1  -6  -5  180.68   10.40
  -1  -6  -5  187.88   11.70
   1   6   5  188.58   10.10
  -1   6  -5  157.78    8.60
  -1   6  -5  168.48    9.10
  -1   6  -5  162.98   11.60
   1   6   5  186.58   11.50
  -2  -6  -5 1362.76   54.99
  -2  -6  -5 1287.47   61.49
   2  -6   5 1265.87   61.59
   2   6   5 1307.57   61.49
  -2   6  -5 1259.57   46.30
  -2   6  -5 1263.37   61.69
   2   6   5 1244.48   53.99
  -3  -6  -5  936.01   35.70
   3  -6   5 1027.70   49.80
  -3   6  -5  958.90   36.90
   4  -6   5  274.67   20.20
  -4  -6  -5  230.88   12.30
  -4   6  -5  246.28   13.90
   4   6   5  199.68   20.00
   5  -7  -5   75.09    9.80
   5   7  -5   81.29    9.80
   4  -7  -5  477.05   25.80
   4  -7  -5  530.35   30.00
   4   7  -5  512.15   23.70
   3  -7  -5  936.41   45.10
   3  -7  -5  867.41   40.00
   3   7  -5  827.72   45.30
   3   7  -5  935.51   36.50
   2  -7  -5  359.76   14.90
   2  -7  -5  367.66   18.30
   2  -7  -5  347.57   19.90
  -2  -7   5  358.16   13.20
   2   7  -5  377.06   21.00
   2   7  -5  339.07   16.20
   1  -7  -5  506.55   23.00
   1  -7  -5  491.55   19.00
  -1  -7   5  488.75   18.10
  -1   7   5  467.95   24.90
   1   7  -5  500.25   22.60
   1   7  -5  469.05   20.40
   1   7  -5  482.35   26.30
   1   7  -5  490.05   18.20
  -1   7   5  496.85   22.80
   0  -7   5   25.00    3.40
   0  -7   5   29.10    3.70
   0  -7  -5   30.30    4.60
   0  -7   5   35.20    3.50
   0  -7  -5   32.50    3.50
   0   7   5   31.30    4.90
   0   7  -5   27.10    3.50
   0   7  -5   27.00    3.30
   0   7  -5   30.80    3.90
   0   7   5   31.10    4.20
  -1  -7  -5 1271.37   48.70
  -1  -7  -5 1295.47   54.59
  -1  -7  -5 1387.36   61.19
   1  -7   5 1226.18   52.09
   1  -7   5 1353.96   45.90
   1   7   5 1270.17   60.29
  -1   7  -5 1239.08   45.80
  -1   7  -5 1242.68   52.69
  -1   7  -5 1303.67   60.99
   1   7   5 1303.47   54.19
  -1   7  -5 1251.17   48.40
  -2  -7  -5  103.39    9.90
  -2  -7  -5  115.79    9.10
   2  -7   5  112.79   10.80
  -2   7  -5  109.09    7.30
  -2   7  -5  101.39    7.40
   2   7   5  113.79   10.70
  -3  -7  -5  633.44   25.00
   3  -7   5  639.14   35.30
  -3   7  -5  657.83   26.40
   4  -7   5  134.49   15.30
  -4   7  -5  116.59   10.20
   4  -8  -5  298.67   20.70
   4  -8  -5  274.37   17.10
   4   8  -5  303.27   16.20
   4   8  -5  225.88   22.30
   3  -8  -5  751.02   37.90
   3  -8  -5  736.53   33.70
   3   8  -5  671.73   38.40
   3   8  -5  718.53   30.50
   2  -8  -5  703.63   32.60
   2   8  -5  760.32   37.50
   2   8  -5  686.93   29.30
   1  -8  -5  456.15   17.90
   1  -8  -5  452.55   21.40
  -1  -8   5  421.66   16.80
   1   8  -5  438.26   17.10
   1   8  -5  436.86   19.20
   1   8  -5  446.76   25.20
   1   8  -5  466.95   21.20
   0  -8   5   65.99    5.50
   0  -8  -5   77.59    6.60
   0  -8   5   72.59    5.70
   0  -8  -5   79.99    5.20
   0  -8   5   79.49    5.30
   0   8  -5   72.09    5.80
   0   8   5   75.39    7.20
   0   8  -5   78.49    5.40
   0   8  -5   82.89    5.90
   0   8   5   73.89    6.40
  -1  -8  -5  157.38   10.60
   1  -8   5  158.28    8.40
  -1  -8  -5  176.18   12.00
   1   8   5  177.28   11.60
  -1   8  -5  133.19    8.90
  -1   8  -5  169.98    9.00
  -1   8  -5  184.38   12.40
  -1   8  -5  170.58    9.10
   2  -8   5  539.15   29.70
  -2  -8  -5  587.84   26.70
  -2  -8  -5  534.75   29.30
  -2   8  -5  534.15   22.40
   2   8   5  527.65   29.10
  -2   8  -5  498.25   21.80
  -3  -8  -5   31.80    4.50
   3  -8   5   44.40    8.90
   3   8   5   45.10   10.60
  -3   8  -5   34.90    5.30
  -3   8  -5   40.40    5.30
   4  -8   5    4.30    7.90
   4   8   5   18.40   13.40
  -4   8  -5   -8.00    4.20
   4  -9  -5  442.96   24.10
   4  -9  -5  496.95   28.60
   4   9  -5  385.96   29.00
   4   9  -5  458.15   22.40
   3  -9  -5 1106.69   51.09
   3  -9  -5 1179.88   57.79
   3   9  -5 1251.47   47.00
   3   9  -5 1122.99   58.79
   2  -9  -5  668.93   32.70
  -2  -9   5  711.13   25.70
   2   9  -5  717.53   29.80
   2   9  -5  775.32   38.20
  -1  -9   5  143.79    7.20
   1  -9  -5  146.29    9.60
   1   9  -5  131.49   12.20
   1   9  -5  140.09    8.70
   1   9  -5  139.69    7.40
   0  -9   5 1261.47   53.69
   0  -9   5 1286.17   49.10
   0  -9  -5 1359.56   48.60
   0  -9   5 1349.77   46.00
   0  -9  -5 1251.37   54.99
   0   9   5 1250.47   60.89
   0   9  -5 1264.47   46.00
   0   9  -5 1254.37   49.10
   0   9  -5 1346.27   54.39
   1  -9   5 1799.92   74.59
  -1  -9  -5 1877.51   86.59
  -1  -9  -5 1897.91   77.29
  -1   9  -5 1791.02   68.39
  -1   9  -5 1944.01   75.89
  -1   9  -5 1819.32   86.49
  -1   9  -5 1759.32   64.59
   1   9   5 1808.92   85.29
  -2  -9  -5 1542.25   65.19
  -2   9  -5 1465.25   54.49
  -2   9  -5 1521.05   56.89
   2   9   5 1499.45   72.19
  -3  -9  -5  225.58   15.20
   3  -9   5  220.08   17.60
  -3  -9  -5  210.58   11.10
   3   9   5  208.28   17.90
  -3   9  -5  213.88   11.60
  -3   9  -5  211.38   12.50
   4  -9   5  463.35   30.50
  -4   9  -5  482.15   22.40
   4 -10  -5  108.79   11.00
   4 -10  -5  119.09   14.30
   4  10  -5  122.29   10.90
   4  10  -5  117.69   16.60
   3 -10  -5  182.48   12.20
   3  10  -5  131.99   14.50
   3  10  -5  147.99   11.10
  -2 -10   5  171.68    7.90
   2 -10  -5  169.98   11.80
   2  10  -5  170.28   10.60
   2  10  -5  161.08   14.30
  -1 -10   5  288.17   12.20
   1 -10  -5  281.07   15.70
   1  10  -5  294.67   12.50
   1  10  -5  272.77   19.00
   1  10  -5  269.97   13.90
   0 -10   5  120.39    8.30
   0 -10  -5  136.39    9.60
   0 -10  -5  146.59    7.80
   0  10  -5  125.89    7.80
   0  10  -5  142.19    9.00
   0  10  -5  132.89    8.40
   0  10   5  129.59   10.50
   1 -10   5  565.64   25.20
  -1 -10  -5  587.64   27.80
  -1 -10  -5  594.34   31.40
   1  10   5  555.74   29.90
  -1  10  -5  555.84   23.10
  -1  10  -5  593.14   24.00
  -1  10  -5  563.84   26.40
   2 -10   5  183.88    9.80
  -2 -10  -5  190.68   13.40
  -2  10  -5  187.58   10.40
   2  10   5  182.48   14.50
  -2  10  -5  182.88   11.00
   3 -10   5  156.28   15.60
  -3 -10  -5  127.79   12.80
  -3  10  -5  158.28   11.00
   3  10   5  165.98   15.80
  -3  10  -5  175.88    9.90
   4 -10   5  154.78   17.50
  -4  10  -5  152.88   12.10
   4 -11  -5  358.26   21.40
   4  11  -5  336.37   27.00
   4  11  -5  414.26   20.80
   3 -11  -5  315.07   18.80
   3  11  -5  315.27   23.30
   3  11  -5  352.36   18.00
  -2 -11   5 1012.20   35.60
   2 -11  -5 1012.30   44.70
   2  11  -5  959.20   40.10
   2  11  -5  989.00   51.49
  -1 -11   5  173.28   10.90
   1 -11  -5  174.28   11.60
  -1  11   5  166.48   12.70
   1  11  -5  165.38    8.90
   1  11  -5  154.98   10.10
   1  11  -5  174.48   14.60
   0 -11  -5 1845.62   65.79
   0 -11  -5 1712.43   74.39
   0 -11   5 1723.03   72.99
   0  11  -5 1855.21   73.89
   0  11   5 1711.73   82.69
   0  11  -5 1743.93   62.29
   0  11  -5 1733.43   66.29
  -1 -11  -5 1052.69   48.10
   1 -11   5 1110.69   45.80
   1  11   5 1103.39   53.09
  -1  11  -5 1098.49   40.50
  -1  11  -5  985.20   46.80
  -1  11  -5 1149.48   42.40
  -2 -11  -5  305.77   19.60
   2 -11   5  349.27   16.40
  -2  11  -5  371.56   16.20
  -2  11  -5  342.67   16.60
   2  11   5  346.37   21.90
  -3 -11  -5  168.88   14.60
   3  11   5  184.88   16.80
  -3  11  -5  179.68   12.10
   4 -11   5  391.36   28.50
  -4  11  -5  422.46   21.20
   4 -12  -5   27.90    7.00
   3 -12  -5   26.70    5.80
   3  12  -5   40.60    6.90
   3  12  -5   23.60    9.90
  -2 -12   5  131.19    7.50
   2 -12  -5  139.49   11.00
   2  12  -5  152.78   14.60
   2  12  -5  135.19   10.10
   1 -12  -5  925.71   36.00
  -1 -12   5  979.50   42.40
   1 -12  -5  933.31   42.90
   1  12  -5  941.41   49.80
   1  12  -5 1005.20   35.40
  -1  12   5  928.71   47.80
   1  12  -5  950.30   38.40
   0 -12   5  108.59    8.40
   0 -12  -5  117.69    9.60
   0  12  -5  112.79    7.90
   0  12  -5  115.99    8.30
   0  12   5  116.69   10.70
   0  12  -5  122.29   12.10
   1 -12   5  254.97   13.20
  -1 -12  -5  239.08   15.20
  -1  12  -5  248.28   12.70
  -1  12  -5  248.28   12.80
  -1  12  -5  215.78   14.10
   1  12   5  247.58   16.60
   2 -12   5  239.78   12.70
  -2 -12  -5  253.77   16.50
   2  12   5  234.78   17.70
  -2  12  -5  238.78   12.40
  -2  12  -5  230.98   13.30
  -3 -12  -5  538.55   28.50
  -3  12  -5  486.85   23.10
   3  12   5  458.75   30.20
   4 -13  -5   70.49    9.70
   3 -13  -5  309.07   18.50
   3  13  -5  296.07   17.30
   2 -13  -5  535.35   28.00
   2  13  -5  585.94   25.80
   2  13  -5  552.14   33.70
  -1 -13   5  405.56   21.50
   1 -13  -5  436.66   22.40
   1 -13  -5  446.26   17.60
  -1  13   5  416.86   24.80
   1  13  -5  419.56   19.80
   1  13  -5  419.36   17.90
   1  13  -5  377.16   26.20
   0 -13  -5 1433.06   61.29
   0 -13   5 1391.96   59.59
   0  13   5 1395.06   67.89
   0  13  -5 1381.66   69.39
   0  13  -5 1376.76   54.09
   0  13  -5 1426.16   51.19
  -1 -13  -5  197.58   13.70
   1 -13   5  193.08   11.40
  -1  13  -5  176.88   11.10
   1  13   5  196.48   14.90
  -1  13  -5  194.18   11.00
  -2 -13  -5  387.46   22.90
   2 -13   5  396.06   19.20
  -2  13  -5  415.06   19.30
   2  13   5  364.26   24.80
  -2  13  -5  422.96   18.40
  -3 -13  -5  152.98   14.40
  -3  13  -5  132.59   11.30
   3  13   5  128.39   15.20
   3 -14  -5   67.59    9.60
   3  14  -5   45.80   12.80
   3  14  -5   73.19    9.30
   2 -14  -5  843.62   40.30
   2  14  -5  882.61   36.70
   2  14  -5  836.02   47.40
  -1 -14   5  288.17   17.00
   1 -14  -5  284.57   17.60
   1  14  -5  306.97   14.20
   1  14  -5  302.07   21.90
  -1  14   5  297.47   19.80
   1  14  -5  288.97   15.60
   0 -14   5  414.06   21.50
   0 -14  -5  459.45   23.50
   0  14  -5  439.56   20.10
   0  14   5  420.06   25.50
   0  14  -5  433.76   27.10
   0  14  -5  412.56   19.00
   1 -14   5   11.40    3.80
  -1 -14  -5   23.60    5.50
  -1  14  -5   21.00    4.30
  -1  14  -5   12.70    4.10
   1  14   5   23.30    6.90
  -2 -14  -5  900.71   42.20
   2  14   5  834.42   46.00
  -2  14  -5  847.82   34.70
  -2  14  -5  862.41   35.10
  -3 -14  -5  356.16   22.40
   3  14   5  268.97   22.90
  -3  14  -5  314.37   18.30
   3 -15  -5  119.79   12.00
   2 -15  -5    0.10    3.70
   2  15  -5    5.80    7.50
   2  15  -5    4.00    3.90
   1 -15  -5   51.79    8.70
  -1 -15   5   32.50    6.40
   1  15  -5   46.30   10.30
   1  15  -5   40.40    6.10
  -1  15   5   36.80    8.60
   0 -15  -5    6.40    4.10
   0 -15   5    8.60    3.80
   0  15  -5    1.80    3.20
   0  15  -5    8.40    3.60
   0  15   5    3.10    4.90
   0  15  -5    8.30    6.60
   1 -15   5  161.98   11.00
  -1 -15  -5  164.88   13.30
  -1  15  -5  175.88   10.60
  -1  15  -5  164.08   11.30
   1  15   5  156.88   14.50
  -2 -15  -5   31.60    7.70
   2  15   5   36.00    9.40
  -2  15  -5   22.10    5.30
   3  15   5   77.99   12.80
   3 -16  -5  102.69   11.50
   2 -16  -5  712.53   36.70
   2  16  -5  796.42   33.90
   2  16  -5  734.63   43.90
   1 -16  -5   85.39    9.90
  -1 -16   5   90.89    9.50
   1  16  -5   92.09    8.80
  -1  16   5   79.69   11.70
   1  16  -5   79.29   12.30
   0 -16   5  234.88   14.70
   0 -16  -5  231.58   15.90
   0  16  -5  231.18   13.30
   0  16  -5  239.68   13.60
   0  16  -5  244.98   19.70
   0  16   5  218.68   17.60
   1 -16   5   25.50    5.00
  -1 -16  -5   11.30    5.80
   1  16   5   28.50    8.30
  -1  16  -5   20.20    4.80
  -1  16  -5   22.90    5.20
  -2 -16  -5  552.04   29.70
   2  16   5  519.45   32.10
  -2  16  -5  490.35   24.30
   2 -17  -5  270.97   18.40
   2  17  -5  266.17   17.50
  -1 -17   5   53.59    8.30
   1 -17  -5   67.39    9.50
   1  17  -5   69.49   12.60
   1  17  -5   59.29    7.80
  -1  17   5   59.29   11.50
   0 -17   5  654.93   32.10
   0 -17  -5  637.74   33.50
   0  17  -5  675.83   29.30
   0  17  -5  679.63   39.40
   0  17  -5  684.03   28.30
   0  17   5  629.94   37.10
   1 -17   5  183.48   12.50
  -1 -17  -5  194.88   15.20
  -1  17  -5  171.28   12.20
  -1  17  -5  176.88   11.50
   1  17   5  177.38   16.30
   2  17   5  262.77   21.30
   1 -18  -5   95.19   11.40
  -1 -18   5  106.39   10.70
   1  18  -5   91.09    9.70
   0 -18  -5  253.47   17.70
   0 -18   5  249.38   16.10
   0  18  -5  238.38   14.50
   0  18   5  233.28   20.10
   0  18  -5  253.27   21.40
   1  18   5   53.79   10.60
   0 -19   5  721.53   35.50
   0  19  -5  714.23   32.10
   5   0  -6  586.24   35.70
   4   0  -6  195.08   10.20
   4   0  -6  168.68   15.70
   3   0  -6 2180.58   81.09
   3   0  -6 2262.67  102.59
  -2   0   6 2289.67  104.79
   2   0  -6 2276.87   84.39
   2   0  -6 2405.66  105.19
   1   0  -6  938.61   35.30
   0   0  -6   53.79    3.90
   0   0  -6   53.59    3.60
   1   0   6 5504.95  234.98
  -1   0  -6 5026.50  177.08
   2   0   6 2215.78  100.39
  -2   0  -6 2294.87  100.69
  -2   0  -6 2043.00   75.39
   3   0   6   14.90    7.60
  -3   0  -6    9.30    3.00
  -4   0  -6  130.89    9.00
   4   0   6  114.59   15.40
   5  -1  -6  383.66   25.50
   5   1  -6  300.77   24.90
   4  -1  -6   28.00    7.70
   4  -1  -6   21.00    3.80
   4   1  -6   24.40    8.50
   4   1  -6   23.20    4.40
   3  -1  -6 1617.74   73.89
   3  -1  -6 1560.84   57.89
  -3  -1   6 1642.04   58.79
   3  -1  -6 1531.35   53.29
   3   1  -6 1505.85   58.49
  -3   1   6 1577.84   57.99
   3   1  -6 1587.64   74.19
   2  -1  -6   85.79    4.90
  -2  -1   6   88.39    5.50
  -2  -1   6   76.69    6.40
   2  -1  -6   84.39    7.00
   2   1  -6   83.19    3.70
  -2   1   6   91.79    5.00
   2   1  -6   87.49    5.40
  -2   1   6   87.49    6.30
   2   1  -6   71.79    8.00
   1  -1  -6 1686.23   62.69
   1   1  -6 1772.12   58.39
   1   1  -6 1699.83   63.09
   0  -1  -6   45.60    3.70
   0   1  -6   44.60    3.30
  -1  -1  -6  781.82   27.60
  -1  -1  -6  808.12   36.20
   1  -1   6  752.12   27.50
   1  -1   6  731.53   35.80
  -1  -1  -6  670.03   31.30
  -1   1  -6  758.82   27.60
   1   1   6  727.93   35.90
  -1   1  -6  857.91   36.50
   1   1   6  744.73   31.10
   2  -1   6  266.47   12.20
  -2  -1  -6  282.97   12.20
   2  -1   6  285.77   16.80
  -2  -1  -6  271.07   16.60
  -2   1  -6  284.37   12.40
   2   1   6  284.07   17.10
   3  -1   6  235.68   17.10
  -3  -1  -6  234.78   11.50
   3   1   6  231.88   17.30
  -3   1  -6  233.18   11.60
   4  -1   6  241.98   19.60
  -4  -1  -6  232.28   12.40
   4   1   6  232.78   20.40
  -4   1  -6  241.78   12.80
   5  -2  -6  115.39   15.40
   5   2  -6  110.89   17.10
   4  -2  -6   94.59   11.80
   4   2  -6  103.99   13.40
   4   2  -6  115.69    8.20
   3  -2  -6 1023.40   47.90
   3  -2  -6 1008.00   34.30
   3   2  -6  938.11   48.50
   3   2  -6  965.60   38.00
  -2  -2   6  329.67   14.10
  -2  -2   6  320.37   16.80
   2  -2  -6  302.17   12.20
   2  -2  -6  319.97   16.70
   2   2  -6  313.57   13.90
   2   2  -6  355.86   17.90
  -2   2   6  324.77   17.30
   1  -2  -6  722.43   30.40
  -1  -2   6  703.83   27.10
   1  -2  -6  699.93   26.60
   1   2  -6  725.43   24.80
   1   2  -6  670.13   27.20
   0  -2  -6  245.18   11.60
   0  -2   6  256.07   10.00
   0   2  -6  238.68   11.10
   0   2  -6  236.38   12.30
   0   2   6  255.47   11.60
   0   2  -6  234.28   10.00
   1  -2   6 2217.08   73.09
  -1  -2  -6 2092.59   72.99
  -1  -2  -6 2260.77   96.59
  -1  -2  -6 2108.09   85.89
   1  -2   6 2098.49   96.39
  -1   2  -6 2193.18   96.69
  -1   2  -6 2048.50   73.09
   1   2   6 2103.29   85.39
   1   2   6 2015.10   96.29
  -2  -2  -6  945.31   35.20
   2  -2   6  975.30   46.90
   2  -2   6 1024.90   35.60
  -2  -2  -6  930.21   46.90
  -2   2  -6 1050.99   47.80
  -2   2  -6  902.81   35.40
   2   2   6  982.50   47.30
   3  -2   6  153.48   13.60
  -3  -2  -6  144.89    8.60
  -3   2  -6  155.98    9.20
   3   2   6  155.98   15.10
   3   2   6  165.58    9.20
  -4  -2  -6   48.60    6.00
   4  -2   6   57.09   10.80
   4   2   6   55.19   12.20
  -4   2  -6   51.49    6.40
   5  -3  -6  323.07   23.10
   5   3  -6  251.17   24.70
   4  -3  -6  183.98   15.30
   4   3  -6  162.58   15.90
   4   3  -6  196.98   11.20
   3  -3  -6 1146.59   39.20
   3  -3  -6 1150.78   53.99
   3   3  -6 1021.20   54.69
   3   3  -6 1162.68   43.30
   2  -3  -6  136.79    6.30
  -2  -3   6  151.78    7.80
   2  -3  -6  132.99    8.80
  -2  -3   6  127.29    8.90
   2   3  -6  135.69    9.30
  -2   3   6  114.79    8.90
   2   3  -6  137.79    7.60
   1  -3  -6 6200.28  255.97
  -1  -3   6 6506.75  230.18
  -1  -3   6 6756.32  214.48
   1   3  -6 6432.36  285.77
   1   3  -6 6090.69  230.18
   1   3  -6 6542.25  215.58
   0  -3   6 1427.96   47.60
   0  -3  -6 1359.96   56.49
   0  -3  -6 1375.06   62.39
   0   3  -6 1326.17   51.09
   0   3  -6 1312.77   62.39
   0   3  -6 1360.06   47.60
   0   3   6 1450.95   61.99
   1  -3   6  442.86   23.40
  -1  -3  -6  428.36   20.80
  -1  -3  -6  483.75   23.40
  -1   3  -6  475.65   18.30
  -1   3  -6  509.05   23.80
  -2  -3  -6  794.42   36.50
  -2  -3  -6  865.81   42.40
   2  -3   6  823.52   42.20
  -2  -3  -6  874.81   31.70
  -2   3  -6  947.11   43.10
  -2   3  -6  852.61   32.10
   2   3   6  890.71   36.50
   3  -3   6  968.80   47.90
  -3  -3  -6  939.81   35.10
   3   3   6  954.00   48.30
  -3   3  -6  927.51   35.60
  -4  -3  -6  888.31   34.90
   4  -3   6  956.40   49.10
  -4   3  -6  947.41   35.80
   4   3   6  883.31   49.30
   5  -4  -6   10.10    6.60
   5   4  -6   11.40    5.30
   4  -4  -6   54.99    9.40
   4   4  -6   32.60   10.10
   4   4  -6   35.10    5.50
   3  -4  -6  241.58   10.20
   3  -4  -6  244.08   15.20
   3   4  -6  213.68   11.90
  -2  -4   6  551.44   25.70
   2  -4  -6  509.55   25.10
   2  -4  -6  477.15   23.40
   2  -4  -6  464.25   18.70
   2   4  -6  520.65   25.70
   2   4  -6  498.75   20.90
  -1  -4   6  677.63   26.50
   1  -4  -6  713.23   29.70
  -1  -4   6  660.43   23.80
  -1   4   6  614.54   31.10
   1   4  -6  706.43   32.50
   1   4  -6  673.93   23.80
   1   4  -6  658.63   26.50
   0  -4   6  450.45   16.30
   0  -4  -6  414.56   19.30
   0  -4  -6  435.06   21.30
   0   4  -6  416.86   16.30
   0   4  -6  416.16   21.10
   0   4  -6  439.86   18.40
   0   4   6  439.46   19.30
   0   4   6  412.56   20.40
   0   4  -6  408.76   17.70
   1  -4   6  607.94   31.90
  -1  -4  -6  595.44   28.50
  -1  -4  -6  688.33   32.00
   1   4   6  695.13   32.00
  -1   4  -6  680.23   32.20
   1   4   6  648.34   28.20
  -1   4  -6  665.13   24.60
  -2  -4  -6  306.07   16.20
  -2  -4  -6  327.77   18.90
   2  -4   6  331.07   19.30
  -2  -4  -6  327.37   14.10
  -2   4  -6  367.06   20.20
  -2   4  -6  332.07   14.70
   2   4   6  342.27   16.00
  -3  -4  -6  178.28    9.70
   3  -4   6  176.28   14.80
   3   4   6  197.48   11.10
  -3   4  -6  183.18   10.60
   3   4   6  179.58   16.30
  -4  -4  -6   72.99    7.00
   4  -4   6   68.79   11.50
   4   4   6   72.69   14.00
  -4   4  -6   57.49    6.70
   5  -5  -6  295.67   20.10
   5   5  -6  326.47   17.80
   4  -5  -6  516.75   28.90
   4  -5  -6  472.55   25.60
   4   5  -6  490.05   22.50
   3  -5  -6  370.16   14.40
   3  -5  -6  340.27   18.50
   3  -5  -6  349.67   20.20
   3   5  -6  345.37   16.30
   3   5  -6  306.97   20.70
  -2  -5   6  330.17   18.30
   2  -5  -6  331.77   17.80
  -2  -5   6  341.87   15.10
   2  -5  -6  324.07   13.30
   2  -5  -6  346.97   17.00
   2   5  -6  340.87   18.50
   2   5  -6  308.67   14.70
  -2   5   6  298.87   17.40
   1  -5  -6 2718.43  116.39
  -1  -5   6 2970.00  104.79
   1   5  -6 2927.31   97.09
   1   5  -6 2895.61  130.29
   1   5  -6 3118.69  116.49
   1   5  -6 2644.44  104.59
  -1   5   6 2833.62  128.89
   0  -5   6 3096.29  101.99
   0  -5  -6 2873.71  121.29
   0   5  -6 2961.90  101.99
   0   5   6 2909.31  134.59
   0   5  -6 2995.30  135.49
   0   5  -6 2993.20  109.39
   0   5  -6 3057.29  120.29
   0   5   6 3143.19  121.39
  -1  -5  -6    5.00    2.80
   1  -5   6   11.00    4.00
  -1  -5  -6    8.90    2.60
  -1  -5  -6   12.30    3.70
   1  -5   6    6.70    1.70
   1   5   6   10.10    2.90
  -1   5  -6   10.00    3.00
   1   5   6   19.80    4.80
  -1   5  -6    6.70    2.30
  -1   5  -6   11.70    3.90
  -2  -5  -6 1502.35   52.19
  -2  -5  -6 1315.27   61.59
  -2  -5  -6 1424.06   69.39
   2  -5   6 1378.06   69.49
   2   5   6 1525.65   61.39
  -2   5  -6 1580.94   70.49
  -2   5  -6 1503.05   52.89
   2   5   6 1573.94   70.39
  -3  -5  -6  596.54   23.90
   3  -5   6  638.34   33.60
  -3   5  -6  583.64   24.70
   3   5   6  608.54   34.00
   4  -5   6 1139.79   56.69
  -4  -5  -6 1076.89   40.50
   4   5   6  961.20   56.29
  -4   5  -6 1148.19   41.90
   5  -6  -6   56.69   10.00
   5   6  -6   56.09    8.10
   4  -6  -6   12.60    6.40
   4  -6  -6    8.90    5.00
   4   6  -6   22.00   11.70
   4   6  -6    9.90    4.40
   3  -6  -6 1130.49   38.70
   3  -6  -6  970.90   46.80
   3  -6  -6 1120.19   52.39
   3   6  -6 1025.90   52.79
   3   6  -6 1095.69   42.50
   2  -6  -6   39.70    5.80
   2  -6  -6   48.00    5.70
  -2  -6   6   34.70    2.50
   2  -6  -6   37.80    4.10
   2   6  -6   34.10    4.60
   2   6  -6   33.20    2.60
   2   6  -6   44.80    6.80
   1  -6  -6  167.98   10.30
  -1  -6   6  171.58    7.50
  -1  -6   6  163.68    9.00
   1   6  -6  177.88   12.10
   1   6  -6  170.38    9.20
   1   6  -6  170.48    7.60
   1   6  -6  186.98   10.00
  -1   6   6  157.18   10.00
  -1   6   6  173.28   10.00
   0  -6   6  520.55   21.40
   0  -6   6  544.05   19.80
   0  -6  -6  515.55   20.80
   0  -6  -6  506.45   23.80
   0   6  -6  537.35   22.70
   0   6   6  523.75   23.70
   0   6   6  520.25   25.50
   0   6  -6  494.95   21.50
   0   6  -6  518.35   19.90
   0   6  -6  522.75   26.40
  -1  -6  -6 1393.86   59.69
  -1  -6  -6 1468.95   66.59
  -1  -6  -6 1400.06   53.49
   1  -6   6 1428.46   50.09
  -1   6  -6 1376.26   50.29
  -1   6  -6 1343.57   53.39
  -1   6  -6 1398.26   66.49
   1   6   6 1492.25   59.29
   1   6   6 1474.45   66.19
  -2  -6  -6  552.44   25.20
  -2  -6  -6  507.75   28.10
   2  -6   6  532.25   28.50
  -2   6  -6  524.75   28.50
   2   6   6  524.85   24.20
   2   6   6  529.95   28.40
  -2   6  -6  498.95   21.30
  -3  -6  -6  192.68   10.20
   3  -6   6  199.58   15.60
   3   6   6  174.48   18.30
  -3   6  -6  194.78   11.20
   4  -6   6   10.60    7.70
  -4  -6  -6    7.20    3.40
  -4   6  -6    0.00    4.50
   4   6   6   -2.30    9.10
   5  -7  -6  300.47   19.80
   4  -7  -6  728.03   38.40
   4  -7  -6  673.03   33.90
   4   7  -6  701.23   30.60
   3  -7  -6 1026.60   45.40
   3  -7  -6 1048.30   50.39
   3   7  -6 1027.80   40.80
   3   7  -6  963.90   50.79
  -2  -7   6  755.32   27.50
   2  -7  -6  823.92   29.50
   2  -7  -6  807.52   35.70
   2   7  -6  758.72   27.60
   2   7  -6  825.72   40.00
   2   7  -6  777.32   31.90
  -1  -7   6 1167.88   40.40
   1  -7  -6 1174.18   49.60
  -1   7   6 1083.19   53.99
   1   7  -6 1207.58   49.00
   1   7  -6 1180.88   40.50
   1   7  -6 1136.69   55.89
   1   7  -6 1131.39   44.30
   0  -7   6 1603.24   59.49
   0  -7  -6 1545.45   66.29
   0  -7   6 1618.54   55.39
   0  -7  -6 1600.24   58.79
   0   7  -6 1545.35   59.49
   0   7   6 1526.25   72.89
   0   7  -6 1590.64   55.49
   0   7  -6 1604.14   74.09
   0   7   6 1668.53   66.39
   0   7  -6 1590.74   65.09
  -1  -7  -6  948.01   42.80
  -1  -7  -6 1046.50   48.00
  -1   7  -6  951.70   36.00
   1   7   6 1007.30   42.40
   1   7   6  993.60   47.20
  -1   7  -6  947.81   38.10
  -1   7  -6  984.80   47.70
  -2  -7  -6  385.86   19.90
   2  -7   6  382.96   22.50
  -2  -7  -6  364.56   21.90
  -2   7  -6  373.96   17.10
  -2   7  -6  355.36   16.70
   2   7   6  409.56   22.50
  -3  -7  -6  356.76   16.00
   3  -7   6  356.96   23.20
  -3   7  -6  365.06   17.10
   4  -7   6  308.77   22.50
  -4   7  -6  311.47   15.90
   4   7   6  208.78   21.40
   4  -8  -6  129.29   11.90
   4  -8  -6  156.68   14.80
   4   8  -6  167.48   11.70
   4   8  -6  140.09   17.90
   3  -8  -6  618.14   31.00
   3  -8  -6  695.73   35.00
   3   8  -6  615.54   35.50
   3   8  -6  684.23   28.50
   2  -8  -6  566.14   28.80
   2   8  -6  642.94   26.40
   2   8  -6  632.04   22.50
   2   8  -6  644.14   33.20
   1  -8  -6  257.97   14.40
  -1  -8   6  265.47   11.00
   1   8  -6  263.57   11.20
  -1   8   6  238.58   15.00
   1   8  -6  249.08   17.10
   1   8  -6  259.27   12.90
   1   8  -6  266.87   14.00
  -1   8   6  282.77   15.70
   0  -8  -6   34.80    3.80
   0  -8   6   33.40    3.70
   0  -8  -6   34.00    4.70
   0  -8   6   45.40    4.90
   0   8  -6   38.30    4.10
   0   8  -6   47.10    5.20
   0   8   6   42.80    6.00
   0   8  -6   37.20    4.10
   0   8  -6   40.60    6.40
  -1  -8  -6 1710.73   78.09
  -1  -8  -6 1723.73   70.09
   1  -8   6 1708.53   67.19
  -1   8  -6 1476.75   67.69
   1   8   6 1700.53   77.19
  -1   8  -6 1659.13   77.99
  -1   8  -6 1678.63   62.39
  -1   8  -6 1611.04   58.69
   2  -8   6 1014.20   49.70
  -2  -8  -6 1018.70   49.50
  -2  -8  -6 1073.69   44.80
   2   8   6 1014.00   49.20
  -2   8  -6  897.11   38.60
  -2   8  -6  910.81   37.00
  -3  -8  -6   -0.50    3.90
  -3  -8  -6    0.70    2.60
   3  -8   6   -1.10    5.90
   3   8   6   -5.90   10.20
  -3   8  -6   -1.50    3.10
  -3   8  -6    2.10    3.40
   4  -8   6   37.80   10.20
   4   8   6   29.90   11.10
  -4   8  -6   33.10    6.60
   4  -9  -6  299.37   19.10
   4  -9  -6  354.76   23.00
   4   9  -6  307.27   25.40
   4   9  -6  322.37   17.90
   3  -9  -6  441.86   22.50
   3   9  -6  379.46   25.70
   3   9  -6  438.46   20.50
  -2  -9   6  429.16   16.60
   2  -9  -6  435.36   22.30
   2   9  -6  439.36   20.10
   2   9  -6  456.95   25.80
   1  -9  -6 1118.49   48.00
  -1  -9   6 1112.69   39.10
   1   9  -6 1077.89   39.30
   1   9  -6 1083.99   43.00
  -1   9   6 1133.19   52.79
   1   9  -6 1073.59   54.89
   0  -9  -6  637.74   24.80
   0  -9  -6  607.54   28.70
   0  -9   6  604.64   27.20
   0   9  -6  650.43   27.80
   0   9  -6  618.44   25.70
   0   9  -6  659.03   32.60
   0   9  -6  584.24   23.70
   0   9   6  591.64   31.00
   1  -9   6  636.94   28.00
  -1  -9  -6  632.74   30.70
  -1  -9  -6  680.93   34.60
   1   9   6  639.54   33.30
  -1   9  -6  643.94   25.80
  -1   9  -6  690.63   27.20
  -1   9  -6  693.53   34.70
  -2  -9  -6  374.96   19.60
  -2   9  -6  307.47   15.50
  -2   9  -6  314.97   15.60
   2   9   6  339.47   20.80
   3  -9   6  202.78   17.80
  -3  -9  -6  214.88   15.50
  -3  -9  -6  226.08   11.80
  -3   9  -6  223.58   13.10
  -3   9  -6  238.98   12.70
   3   9   6  223.28   19.60
   4  -9   6   23.90    9.70
  -4   9  -6    9.80    5.00
   4   9   6   18.40   13.20
   4 -10  -6   24.00    8.20
   4 -10  -6   20.30    6.10
   4  10  -6   27.30    9.70
   4  10  -6   25.50    6.20
   3 -10  -6  359.26   20.70
   3  10  -6  374.76   25.00
   3  10  -6  402.76   19.50
  -2 -10   6  787.02   27.70
   2 -10  -6  726.23   35.40
   2  10  -6  798.82   41.10
   2  10  -6  745.93   31.80
  -1 -10   6  519.45   19.80
   1 -10  -6  512.75   24.90
  -1  10   6  500.45   27.00
   1  10  -6  483.65   29.20
   1  10  -6  506.65   22.30
   1  10  -6  516.85   20.00
   0 -10   6  158.48    9.50
   0 -10  -6  144.59   10.50
   0 -10  -6  155.48    8.50
   0  10  -6  148.39    8.70
   0  10  -6  146.69    9.30
   0  10  -6  171.78   10.00
   0  10   6  151.38   11.30
   0  10  -6  162.58   12.70
  -1 -10  -6  594.24   28.30
  -1 -10  -6  606.44   31.90
   1 -10   6  589.34   25.40
  -1  10  -6  562.74   24.40
   1  10   6  569.64   30.30
  -1  10  -6  577.24   23.50
  -1  10  -6  565.04   26.60
  -2 -10  -6  470.05   24.50
  -2  10  -6  447.36   20.20
  -2  10  -6  430.76   20.00
   2  10   6  473.05   26.50
  -3 -10  -6  284.17   18.60
  -3 -10  -6  272.37   13.80
   3 -10   6  290.17   21.30
   3  10   6  283.57   21.20
  -3  10  -6  284.17   15.50
  -3  10  -6  268.77   14.30
   4 -10   6  163.38   17.80
  -4  10  -6  136.29   12.00
   4 -11  -6   21.80    6.70
   4  11  -6   19.10    5.60
   4  11  -6    7.60    9.30
   3 -11  -6  304.57   18.40
   3  11  -6  326.47   17.30
   3  11  -6  285.27   22.20
   2 -11  -6   22.60    5.00
  -2 -11   6   28.40    3.50
   2  11  -6   44.20    9.40
   2  11  -6   34.30    5.80
   1 -11  -6 1267.67   55.29
   1  11  -6 1227.68   49.40
   1  11  -6 1362.86   45.70
  -1  11   6 1277.07   61.09
   1  11  -6 1185.28   63.09
   0 -11  -6  391.36   21.10
   0 -11  -6  407.16   17.80
   0 -11   6  417.86   19.80
   0  11  -6  427.66   20.40
   0  11   6  390.66   22.70
   0  11  -6  401.76   17.50
   0  11  -6  392.56   18.60
   0  11  -6  446.06   24.70
  -1 -11  -6  380.96   21.50
   1 -11   6  392.96   18.90
  -1  11  -6  428.46   18.40
  -1  11  -6  449.76   19.00
   1  11   6  402.56   23.20
  -2 -11  -6  100.39   10.70
  -2  11  -6  106.09    8.90
  -2  11  -6  116.79    8.40
   2  11   6  112.19   11.70
  -3 -11  -6  530.15   30.20
  -3  11  -6  587.14   25.40
   3  11   6  569.74   33.80
   4 -12  -6    2.60    4.90
   3 -12  -6   78.79    9.80
   3  12  -6   97.79    9.50
   3  12  -6   88.59   14.10
   2 -12  -6 1094.79   51.59
   2  12  -6 1209.58   46.90
   2  12  -6 1182.78   60.09
   1 -12  -6  264.07   16.40
   1  12  -6  277.37   20.30
  -1  12   6  272.87   17.90
   1  12  -6  284.57   14.80
   1  12  -6  298.47   13.30
   0 -12   6  979.10   42.40
   0 -12  -6  991.40   44.30
   0  12   6  970.00   48.30
   0  12  -6  982.90   36.80
   0  12  -6  976.20   50.19
   0  12  -6  947.01   38.90
   1 -12   6  300.97   15.30
  -1 -12  -6  311.57   18.20
  -1  12  -6  310.97   15.10
  -1  12  -6  331.97   15.40
  -1  12  -6  291.37   16.70
   1  12   6  299.17   19.10
  -2 -12  -6  708.03   35.60
   2  12   6  719.93   38.80
  -2  12  -6  719.03   29.80
  -2  12  -6  715.83   29.60
  -3 -12  -6  146.09   14.30
  -3  12  -6  133.89   11.30
   3  12   6  120.79   15.60
   3 -13  -6    5.10    4.30
   3  13  -6   13.80    5.20
   3  13  -6   16.50   10.40
   2 -13  -6  233.98   15.30
   2  13  -6  203.68   18.60
   2  13  -6  235.28   14.00
   1 -13  -6  323.47   18.70
   1  13  -6  314.17   16.60
  -1  13   6  333.47   20.70
   1  13  -6  328.67   22.90
   1  13  -6  335.37   15.00
   0 -13   6  674.33   30.90
   0 -13  -6  660.63   32.50
   0  13  -6  693.53   37.70
   0  13  -6  683.63   28.90
   0  13   6  678.43   35.70
   0  13  -6  657.83   27.10
  -1 -13  -6  265.07   16.90
   1 -13   6  277.37   14.40
   1  13   6  251.57   17.80
  -1  13  -6  266.47   14.20
  -1  13  -6  289.77   14.30
  -2 -13  -6  347.37   22.00
  -2  13  -6  389.06   17.90
   2  13   6  360.26   23.90
  -2  13  -6  385.76   18.70
  -3 -13  -6  268.27   19.60
   3  13   6  233.18   20.70
  -3  13  -6  281.37   16.30
   3 -14  -6  100.29   10.80
   3  14  -6   65.49   14.10
   3  14  -6  113.09   10.80
   2 -14  -6   92.29   10.00
   2  14  -6   85.39   13.50
   2  14  -6   86.79    9.10
   1 -14  -6   20.00    5.60
   1  14  -6   23.20    8.30
   1  14  -6   13.30    4.40
   1  14  -6   12.60    3.70
  -1  14   6   16.60    5.90
   0 -14   6  108.09    8.80
   0 -14  -6   92.49    9.90
   0  14  -6   92.39    8.20
   0  14   6   98.69   10.80
   0  14  -6   87.79    7.90
   0  14  -6  101.49   12.50
   1 -14   6   53.59    6.40
  -1 -14  -6   65.29    9.10
   1  14   6   59.59    9.40
  -1  14  -6   44.10    6.50
  -1  14  -6   55.29    6.60
  -2 -14  -6   21.30    6.50
  -2  14  -6   21.90    5.40
  -2  14  -6   19.90    4.40
   2  14   6   25.80    8.50
  -3 -14  -6  172.08   15.80
   3  14   6  123.99   16.10
   3 -15  -6  129.09   12.60
   2 -15  -6  698.53   34.10
   2  15  -6  686.53   30.70
   2  15  -6  625.44   39.70
   1 -15  -6  251.17   16.60
   1  15  -6  260.27   20.70
  -1  15   6  245.98   18.10
   1  15  -6  242.08   12.90
   1  15  -6  253.17   14.60
   0 -15  -6 1963.20   83.39
   0 -15   6 1980.70   81.39
   0  15  -6 1867.21   73.79
   0  15  -6 1930.01   94.29
   0  15  -6 1946.01   69.69
   0  15   6 1885.51   91.99
   1 -15   6  267.77   15.10
  -1 -15  -6  281.47   18.10
  -1  15  -6  258.07   14.50
   1  15   6  282.37   19.20
  -1  15  -6  266.17   15.00
  -2 -15  -6  438.56   25.70
  -2  15  -6  441.46   21.50
   2  15   6  422.26   27.80
   2 -16  -6   26.90    6.70
   2  16  -6   36.40    6.90
   2  16  -6   36.10   10.70
   1 -16  -6   13.70    5.20
   1  16  -6   20.20    5.30
  -1  16   6   22.30    7.70
   1  16  -6   21.90    8.50
   0 -16  -6    8.40    5.00
   0 -16   6    6.90    4.00
   0  16   6    3.10    5.00
   0  16  -6   -1.30    2.90
   0  16  -6    0.70    6.40
   0  16  -6    5.00    3.50
   1 -16   6   16.20    4.60
  -1 -16  -6   10.60    5.30
  -1  16  -6   16.10    4.60
   1  16   6   21.80    7.40
  -1  16  -6   20.40    5.40
  -2 -16  -6   43.90    8.70
   2  16   6   45.00   10.40
   2 -17  -6  309.17   21.80
   1 -17  -6  109.99   11.50
   1  17  -6  101.69    9.80
   1  17  -6  101.99   14.90
   0 -17  -6  140.79   12.70
   0 -17   6  132.09   11.00
   0  17  -6  119.89   10.00
   0  17  -6  129.59   15.40
   0  17  -6  130.99   10.30
  -1 -17  -6  274.17   19.20
  -1  17  -6  285.17   16.10
  -1  17  -6  276.17   15.50
   1  18  -6   68.09    8.70
   0 -18   6  251.27   16.20
   0  18  -6  236.78   14.90
   0  18  -6  258.67   14.80
   5   0  -7  324.27   24.30
   4   0  -7   -6.80    6.00
   4   0  -7   -3.50    2.80
   3   0  -7 1251.27   49.10
   3   0  -7 1381.26   62.59
  -2   0   7    2.00    2.50
  -2   0   7    0.70    2.00
   2   0  -7    3.80    3.50
   2   0  -7    1.20    1.70
   1   0  -7 3289.67  108.99
   1   0  -7 3174.38  116.89
   0   0  -7   -1.80    1.30
   0   0  -7    1.60    1.60
   1   0   7 1322.57   62.79
  -1   0  -7 1417.26   48.30
  -2   0  -7   -0.20    2.00
   2   0   7   -3.30    4.90
  -2   0  -7   -1.60    4.70
   3   0   7   96.79   11.70
  -3   0  -7   92.69    7.20
  -4   0  -7   -7.50    3.00
   4   0   7  -13.80    7.20
   5  -1  -7  731.63   40.80
   5   1  -7  689.23   41.00
   4  -1  -7  174.98   15.00
   4   1  -7  183.28   15.80
   4   1  -7  179.58   10.20
   3  -1  -7  320.37   18.50
   3  -1  -7  305.17   13.30
  -3  -1   7  323.27   14.20
   3  -1  -7  298.57   11.60
   3   1  -7  315.77   14.00
   3   1  -7  297.97   18.90
  -3   1   7  316.27   13.50
   2  -1  -7  531.35   26.90
  -2  -1   7  569.34   26.80
  -2  -1   7  582.14   22.30
   2  -1  -7  553.54   21.80
  -2   1   7  545.25   26.60
   2   1  -7  546.55   22.20
   2   1  -7  577.54   19.60
   1  -1  -7 1237.28   45.70
   1   1  -7 1215.18   45.90
   1   1  -7 1226.88   42.30
   0  -1  -7 2857.41   97.29
   0  -1  -7 2904.91  114.99
   0   1  -7 2835.12   97.29
  -1  -1  -7  861.11   32.70
   1  -1   7  919.31   42.60
   1  -1   7  994.10   32.90
  -1  -1  -7  885.81   42.70
  -1  -1  -7  873.81   37.60
   1   1   7  927.11   37.20
  -1   1  -7  925.11   43.00
  -1   1  -7  846.52   32.70
   1   1   7  936.01   42.60
   2  -1   7 1794.32   81.69
  -2  -1  -7 1774.42   81.79
  -2  -1  -7 1756.82   61.69
  -2   1  -7 1691.33   61.69
   2   1   7 1857.11   81.89
  -2   1  -7 1663.43   81.99
  -3  -1  -7  211.08   11.50
   3  -1   7  238.48   16.70
   3   1   7  244.78   17.70
  -3   1  -7  234.88   12.00
  -4  -1  -7  217.18   12.50
   4  -1   7  234.28   19.40
  -4   1  -7  231.38   12.80
   4   1   7  206.68   19.80
   5   2  -7  106.29   16.00
   4  -2  -7   69.49   10.10
   4   2  -7   64.59   10.90
   4   2  -7   38.90    5.50
  -3  -2   7 1288.17   46.90
   3  -2  -7 1269.67   58.29
   3  -2  -7 1197.88   42.20
   3   2  -7 1201.48   46.50
   3   2  -7 1164.58   58.69
   2  -2  -7  221.98    9.60
  -2  -2   7  220.28   12.20
   2  -2  -7  216.78   12.10
  -2  -2   7  246.28   10.80
  -2   2   7  193.18   11.50
   2   2  -7  223.08   10.50
   2   2  -7  217.58    8.30
   1  -2  -7 2196.38   89.99
   1  -2  -7 2269.67   80.49
   1   2  -7 2224.08   75.09
   1   2  -7 2158.18   80.99
   0  -2   7 1109.49   36.20
   0  -2  -7  999.10   42.30
   0   2  -7 1045.80   36.10
   0   2  -7  927.21   46.40
   0   2  -7 1021.10   38.90
  -1  -2  -7  735.83   33.00
  -1  -2  -7  592.44   28.90
  -1  -2  -7  709.03   25.50
   1  -2   7  665.43   32.80
   1   2   7  670.83   32.80
  -1   2  -7  742.53   33.20
  -1   2  -7  664.23   25.40
   1   2   7  675.73   28.60
  -2  -2  -7  404.96   17.90
  -2  -2  -7  387.66   16.50
  -2  -2  -7  393.36   22.00
   2  -2   7  390.56   21.90
   2   2   7  413.36   22.50
  -2   2  -7  394.66   16.80
   3  -2   7  457.75   26.10
  -3  -2  -7  441.46   18.90
   3   2   7  433.46   20.40
   3   2   7  464.35   26.90
  -3   2  -7  454.35   19.40
   4  -2   7  807.12   43.50
  -4  -2  -7  793.92   31.10
  -4   2  -7  792.42   31.40
   4   2   7  730.73   43.40
   4  -3  -7  146.99   13.10
   4   3  -7  106.19   13.60
   4   3  -7  143.99    9.50
   3  -3  -7  463.05   24.00
   3  -3  -7  435.66   16.80
   3   3  -7  428.66   19.20
  -2  -3   7  474.65   23.30
  -2  -3   7  487.55   19.60
   2  -3  -7  449.36   23.00
   2   3  -7  464.25   23.50
   2   3  -7  462.35   16.30
   2   3  -7  444.46   19.30
  -1  -3   7  772.32   28.70
   1  -3  -7  730.93   31.90
   1   3  -7  744.33   26.00
   1   3  -7  721.83   34.40
   1   3  -7  692.13   28.70
   0  -3  -7   44.30    4.30
   0  -3  -7   46.10    4.40
   0  -3   7   48.40    3.80
   0   3   7   48.40    4.30
   0   3  -7   46.60    4.70
   0   3  -7   46.70    3.70
   0   3  -7   46.20    4.50
  -1  -3  -7  456.75   17.50
   1  -3   7  458.45   22.60
  -1  -3  -7  420.26   22.10
  -1  -3  -7  439.96   20.00
  -1   3  -7  434.76   17.50
  -1   3  -7  452.25   22.70
   1   3   7  413.96   22.60
   2  -3   7  478.75   25.20
  -2  -3  -7  422.56   24.70
  -2  -3  -7  494.95   21.30
  -2  -3  -7  431.36   18.50
  -2   3  -7  453.55   19.10
   2   3   7  485.15   20.80
   2   3   7  459.65   25.60
  -2   3  -7  495.05   25.80
  -3  -3  -7  122.79    8.10
   3  -3   7  140.49   12.80
   3   3   7  118.49   13.80
  -3   3  -7  133.49    8.90
   4  -3   7   78.59   12.00
  -4  -3  -7   65.89    7.30
   4   3   7   59.09   13.20
  -4   3  -7   50.69    7.00
   5  -4  -7   27.90    7.70
   4  -4  -7  145.29   12.00
   4  -4  -7  145.39   13.40
   4   4  -7  143.59    9.90
   3  -4  -7 1120.89   39.50
   3  -4  -7 1010.20   48.60
   3  -4  -7 1171.08   53.79
   3   4  -7 1162.68   43.60
   2  -4  -7  845.92   39.90
   2  -4  -7  810.92   30.20
  -2  -4   7  862.31   33.20
  -2  -4   7  853.71   40.20
   2  -4  -7  798.12   37.00
   2   4  -7  873.11   40.60
   2   4  -7  855.11   33.20
   2   4  -7  836.82   29.00
   1  -4  -7  978.50   41.70
  -1  -4   7 1076.39   37.70
   1   4  -7 1030.30   34.30
   1   4  -7  964.50   37.50
   1   4  -7 1023.10   45.90
  -1   4   7  846.32   44.20
  -1   4   7  919.91   44.50
   0  -4  -7 1243.78   57.39
   0  -4   7 1282.67   43.70
   0  -4  -7 1183.88   51.79
   0   4   7 1264.07   51.79
   0   4  -7 1318.17   50.89
   0   4  -7 1194.98   43.80
   0   4  -7 1207.68   47.20
   0   4  -7 1200.58   57.19
   0   4   7 1308.07   56.69
  -1  -4  -7  653.93   27.60
   1  -4   7  636.84   30.60
  -1  -4  -7  599.44   30.20
   1   4   7  626.04   26.80
  -1   4  -7  574.44   30.30
  -1   4  -7  600.34   23.50
  -2  -4  -7 2627.94  106.59
   2  -4   7 2663.73  120.39
  -2  -4  -7 2501.05   90.19
  -2  -4  -7 2510.55  119.89
  -2   4  -7 2813.22  120.79
  -2   4  -7 2578.14   90.79
   2   4   7 2635.14  105.99
  -3  -4  -7  265.77   12.50
   3  -4   7  249.38   17.80
  -3   4  -7  254.57   13.10
   3   4   7  254.97   13.50
   3   4   7  223.78   18.40
  -4  -4  -7 1013.70   39.30
   4  -4   7 1062.99   54.69
   4   4   7  998.20   55.29
  -4   4  -7 1074.19   40.40
   5  -5  -7  203.98   16.60
   5   5  -7  206.78   13.90
   4  -5  -7   15.70    6.50
   4  -5  -7   10.30    5.30
   4   5  -7    4.70    9.80
   4   5  -7   11.50    4.20
   3  -5  -7  367.46   20.50
   3  -5  -7  365.46   14.70
   3  -5  -7  339.17   19.10
   3   5  -7  337.87   21.40
   3   5  -7  360.06   16.90
   2  -5  -7   60.39    6.40
   2  -5  -7   55.49    4.50
   2  -5  -7   55.39    6.10
  -2   5   7   44.70    5.90
   2   5  -7   54.39    3.20
   2   5  -7   59.09    5.70
   2   5  -7   63.09    7.10
  -1  -5   7   12.80    3.10
  -1  -5   7    7.70    1.80
   1  -5  -7   10.40    3.10
   1   5  -7   14.40    4.30
   1   5  -7   10.10    3.20
  -1   5   7    8.20    2.70
  -1   5   7   10.30    2.50
   1   5  -7    7.80    2.70
   1   5  -7    9.10    1.90
   0  -5  -7  235.28   13.60
   0  -5   7  246.98   10.30
   0  -5  -7  233.78   12.40
   0   5  -7  227.88   10.40
   0   5  -7  218.68   11.40
   0   5   7  236.98   12.60
   0   5  -7  234.98   13.30
   0   5  -7  234.58   11.10
   0   5   7  238.88   12.20
   1  -5   7  501.65   25.30
  -1  -5  -7  507.05   22.80
  -1  -5  -7  477.15   24.90
  -1  -5  -7  456.45   20.30
  -1   5  -7  478.75   25.00
   1   5   7  508.45   24.90
  -1   5  -7  461.05   20.60
  -1   5  -7  460.25   19.30
   1   5   7  511.45   22.20
  -2  -5  -7   67.09    8.20
  -2  -5  -7   59.39    6.50
   2  -5   7   59.79    8.40
  -2  -5  -7   61.49    5.50
  -2   5  -7   72.39    9.40
   2   5   7   68.29    5.90
  -2   5  -7   56.69    6.10
   2   5   7   47.90    9.50
  -3  -5  -7  151.88    9.20
   3  -5   7  174.78   14.50
  -3   5  -7  165.98   10.10
   3   5   7  131.29   14.70
   4  -5   7   41.60   10.20
  -4  -5  -7   63.99    6.90
   4   5   7   39.10   11.20
  -4   5  -7   67.29    7.90
   5  -6  -7  107.29   13.40
   5   6  -7  112.49   11.10
   4  -6  -7  518.45   28.30
   4  -6  -7  576.64   31.70
   4   6  -7  578.84   25.40
   3  -6  -7 1437.76   64.29
   3  -6  -7 1489.75   52.89
   3  -6  -7 1589.34   71.29
   3   6  -7 1521.85   57.69
   3   6  -7 1454.55   71.69
   2  -6  -7  847.82   37.30
   2  -6  -7  868.31   30.70
  -2  -6   7  787.72   28.90
   2   6  -7  830.82   29.00
   2   6  -7  855.91   41.10
   2   6  -7  809.32   33.30
  -1  -6   7 1297.47   44.40
  -1  -6   7 1301.57   48.70
   1  -6  -7 1265.17   54.19
   1   6  -7 1209.98   48.60
   1   6  -7 1290.17   44.50
   1   6  -7 1350.06   53.79
  -1   6   7 1259.37   58.79
   1   6  -7 1270.07   60.69
  -1   6   7 1239.78   58.79
   0  -6  -7 2162.18   79.59
   0  -6   7 2229.88   74.69
   0  -6  -7 2135.29   89.09
   0   6  -7 2160.08   99.19
   0   6  -7 2141.29   74.89
   0   6  -7 2265.77   87.89
   0   6  -7 2100.99   80.29
   0   6   7 2073.39   98.09
   0   6   7 2267.27   89.09
  -1  -6  -7  990.60   42.40
  -1  -6  -7  957.60   46.70
  -1   6  -7  903.41   35.60
  -1   6  -7  935.51   46.80
  -1   6  -7  929.81   37.90
   1   6   7 1040.00   41.90
   1   6   7 1040.60   46.60
   2  -6   7  381.16   22.40
  -2  -6  -7  365.26   16.20
  -2  -6  -7  400.86   22.30
  -2  -6  -7  322.87   19.10
   2   6   7  382.96   18.60
   2   6   7  409.46   23.40
  -2   6  -7  387.86   17.10
  -2   6  -7  411.56   22.80
  -3  -6  -7  183.78   10.20
   3  -6   7  196.48   15.60
  -3   6  -7  189.88   11.20
   3   6   7  140.99   16.50
  -4  -6  -7  581.94   24.00
   4  -6   7  600.74   34.50
  -4   6  -7  623.34   25.50
   4   6   7  449.26   33.70
   4  -7  -7   22.70    6.50
   4  -7  -7   29.20    7.90
   4   7  -7   25.60   11.90
   4   7  -7   23.80    5.40
   3  -7  -7  139.79   12.00
   3  -7  -7  134.89   11.00
   3   7  -7  150.48   10.10
   3   7  -7  129.89   12.60
   2  -7  -7  110.69    8.90
   2   7  -7  110.49    5.50
   2   7  -7  106.39    7.90
   2   7  -7  105.69   10.00
  -1  -7   7 1006.70   34.50
   1  -7  -7  965.60   42.40
   1  -7  -7  984.70   36.20
  -1   7   7  979.00   45.80
   1   7  -7  968.80   34.60
   1   7  -7  936.71   38.00
   1   7  -7  987.80   41.80
   1   7  -7  951.10   47.90
  -1   7   7  939.01   45.80
   0  -7  -7 1865.11   67.89
   0  -7   7 1844.82   63.79
   0  -7  -7 1814.72   76.39
   0   7  -7 1885.01   85.09
   0   7   7 1830.32   83.99
   0   7  -7 1778.42   68.69
   0   7  -7 1828.22   74.89
   0   7   7 1867.91   76.19
   0   7  -7 1826.82   63.99
  -1  -7  -7  496.25   24.00
  -1  -7  -7  498.25   26.40
  -1   7  -7  488.45   20.20
  -1   7  -7  494.95   26.30
   1   7   7  511.05   23.40
  -1   7  -7  476.65   21.20
   1   7   7  504.55   25.80
  -2  -7  -7  894.61   44.20
  -2  -7  -7  837.62   39.50
   2  -7   7  860.01   44.30
  -2   7  -7  867.71   33.70
  -2   7  -7  867.81   35.10
   2   7   7  918.11   44.10
  -3  -7  -7  166.58    9.80
   3  -7   7  160.68   15.00
  -3   7  -7  170.38   10.90
   4  -7   7  188.98   18.10
   4   7   7  140.49   18.00
  -4   7  -7  184.18   12.50
   4  -8  -7  455.05   24.50
   4  -8  -7  490.15   27.80
   4   8  -7  450.35   22.10
   4   8  -7  371.86   29.60
   3  -8  -7  545.35   29.70
   3  -8  -7  575.64   27.40
   3   8  -7  520.95   30.70
   3   8  -7  533.05   24.40
  -2  -8   7  361.96   14.00
   2  -8  -7  375.96   19.50
   2   8  -7  349.67   17.30
   2   8  -7  397.76   22.30
   2   8  -7  361.06   14.20
   1  -8  -7 1332.27   47.70
   1  -8  -7 1317.27   55.39
  -1  -8   7 1307.47   45.30
   1   8  -7 1281.47   45.40
   1   8  -7 1259.17   49.60
   1   8  -7 1237.08   62.59
   1   8  -7 1329.07   54.79
  -1   8   7 1244.88   60.29
   0  -8  -7  555.74   21.90
   0  -8  -7  520.05   25.30
   0   8  -7  531.95   22.80
   0   8  -7  530.65   28.00
   0   8  -7  524.15   21.00
   0   8   7  528.95   27.00
   0   8  -7  556.84   24.00
  -1  -8  -7 1387.76   64.89
  -1  -8  -7 1304.77   58.19
   1   8   7 1415.26   64.19
  -1   8  -7 1332.17   51.99
  -1   8  -7 1329.87   49.00
  -1   8  -7 1373.36   64.89
  -2  -8  -7  152.88   12.00
   2  -8   7  152.88   14.00
  -2  -8  -7  182.98   13.70
  -2   8  -7  167.88   10.20
   2   8   7  171.48   13.80
  -2   8  -7  168.28   10.20
  -3  -8  -7  123.39   11.20
   3  -8   7  122.29   13.90
  -3  -8  -7  130.99    8.70
  -3   8  -7  115.19    9.50
  -3   8  -7  130.49    9.60
   4  -8   7   39.10   10.70
  -4   8  -7   44.50    6.90
   4   8   7   26.90   11.20
   4  -9  -7  217.88   17.30
   4  -9  -7  186.48   14.40
   4   9  -7  182.18   13.10
   4   9  -7  162.58   19.80
   4   9  -7  162.98   20.10
   3  -9  -7  162.28   12.70
   3   9  -7  184.58   15.60
   3   9  -7  206.78   12.40
   2  -9  -7 1539.45   68.99
  -2  -9   7 1639.94   55.89
   2   9  -7 1602.24   62.39
   2   9  -7 1671.53   78.09
   2   9  -7 1648.64   56.09
   1  -9  -7  857.51   39.30
  -1  -9   7  939.21   32.00
   1  -9  -7  918.81   33.30
   1   9  -7  760.62   44.60
   1   9  -7  844.12   35.30
  -1   9   7  896.41   42.80
   1   9  -7  909.31   32.20
   0  -9  -7  228.38   13.60
   0  -9  -7  237.48   11.20
   0   9   7  229.88   14.00
   0   9  -7  230.88   15.10
   0   9  -7  237.98   12.30
   0   9  -7  213.88   11.00
   0   9  -7  222.98   12.20
  -1  -9  -7  536.95   29.20
  -1  -9  -7  570.64   26.60
  -1   9  -7  516.45   28.90
  -1   9  -7  496.15   24.00
   1   9   7  578.04   28.50
  -1   9  -7  528.25   22.00
  -1   9  -7  535.05   23.20
  -2  -9  -7 1260.67   52.49
   2   9   7 1207.38   57.39
  -2   9  -7 1121.39   43.60
  -2   9  -7 1060.59   45.20
  -3  -9  -7  404.06   18.40
   3  -9   7  418.26   26.30
  -3  -9  -7  421.96   23.40
  -3   9  -7  398.86   19.30
  -3   9  -7  389.96   19.40
   3   9   7  398.66   28.00
   4  -9   7   73.69   13.10
  -4   9  -7   68.29    8.60
   4 -10  -7   92.89   10.90
   4  10  -7  102.19   15.70
   4  10  -7  131.09   11.30
   3 -10  -7  286.77   17.50
   3  10  -7  295.17   16.10
   3  10  -7  273.17   20.70
   2 -10  -7  157.88   11.90
  -2 -10   7  167.08    7.80
   2  10  -7  154.78    8.00
   2  10  -7  170.88   14.40
   2  10  -7  153.28   10.60
   1 -10  -7  415.76   21.40
  -1  10   7  421.56   22.80
   1  10  -7  380.06   25.00
   1  10  -7  421.66   17.10
   1  10  -7  425.16   19.30
   0 -10  -7   67.39    7.20
   0 -10  -7   74.39    5.80
   0  10   7   75.99    7.70
   0  10  -7   63.49    6.60
   0  10  -7   73.39    6.30
   0  10  -7   69.59    6.10
   0  10  -7   80.89    9.00
  -1 -10  -7  663.83   33.30
  -1 -10  -7  541.45   28.90
  -1  10  -7  593.44   24.60
  -1  10  -7  648.04   26.00
   1  10   7  552.94   31.20
  -1  10  -7  642.44   33.20
  -2 -10  -7  208.18   14.70
  -2  10  -7  202.88   11.80
   2  10   7  192.78   15.40
  -2  10  -7  191.68   11.50
  -3 -10  -7  308.67   22.00
   3 -10   7  372.46   25.90
  -3 -10  -7  410.46   18.10
   3  10   7  380.46   27.20
  -3  10  -7  414.36   19.70
  -3  10  -7  432.46   19.10
   4 -11  -7  178.88   14.30
   4  11  -7  169.98   13.20
   3 -11  -7   25.20    5.70
   3  11  -7   26.10    5.90
   3  11  -7    9.30    8.80
   2 -11  -7  520.45   28.10
   2  11  -7  572.94   25.80
   2  11  -7  615.14   22.10
   2  11  -7  581.94   33.30
   1 -11  -7  674.73   32.50
   1  11  -7  718.03   26.40
   1  11  -7  693.43   29.30
   1  11  -7  618.24   37.40
  -1  11   7  709.13   35.30
   0 -11  -7  106.19    9.40
   0  11  -7  125.19    8.80
   0  11  -7  103.99    8.30
   0  11  -7  110.59    7.80
   0  11  -7  124.49   11.50
   0  11   7  121.49   10.10
  -1 -11  -7   97.49    9.50
   1 -11   7   96.09    6.90
  -1  11  -7   84.19    7.90
  -1  11  -7  104.89    8.10
  -1  11  -7  118.69    8.40
   1  11   7   99.89    9.90
  -2 -11  -7  457.85   24.20
  -2  11  -7  401.86   19.40
  -2  11  -7  399.66   19.50
   2  11   7  431.96   25.60
  -3 -11  -7  635.34   31.90
  -3 -11  -7  546.05   24.20
   3  11   7  552.54   35.00
  -3  11  -7  581.64   26.10
   4 -12  -7  169.68   14.40
   3 -12  -7  325.87   19.80
   3  12  -7  357.36   18.60
   3  12  -7  293.97   24.60
   2 -12  -7  229.38   15.10
   2  12  -7  239.98   14.00
   2  12  -7  220.38   18.50
   1 -12  -7  362.06   16.00
   1 -12  -7  380.36   20.90
   1  12  -7  352.16   18.40
  -1  12   7  391.76   22.40
   1  12  -7  387.66   25.20
   1  12  -7  422.66   16.90
   0 -12  -7  554.84   27.60
   0  12  -7  550.04   24.30
   0  12   7  545.85   29.40
   0  12  -7  547.85   22.80
   0  12  -7  543.05   31.30
  -1 -12  -7  222.28   15.10
   1 -12   7  223.78   12.10
  -1  12  -7  235.58   12.80
  -1  12  -7  229.08   12.80
   1  12   7  221.78   15.80
  -2 -12  -7  321.47   20.50
   2  12   7  312.67   21.40
  -2  12  -7  328.87   16.90
  -2  12  -7  341.37   16.60
  -3 -12  -7  227.98   18.40
  -3  12  -7  277.67   15.90
   3  12   7  252.87   21.00
   3 -13  -7   57.09    9.20
   3  13  -7   14.10   10.40
   3  13  -7   40.30    7.40
   2 -13  -7  569.44   29.30
   2  13  -7  524.15   34.10
   2  13  -7  623.34   26.90
   1 -13  -7  309.07   18.60
   1  13  -7  343.17   23.20
   1  13  -7  310.17   16.60
  -1  13   7  314.17   20.00
   1  13  -7  326.27   15.00
   0 -13  -7  141.19   11.40
   0  13   7  136.69   11.80
   0  13  -7  130.99    9.60
   0  13  -7  129.99    9.00
   0  13  -7  137.89   13.70
  -1 -13  -7  181.68   13.60
   1 -13   7  172.08   10.70
  -1  13  -7  191.18   11.60
   1  13   7  162.78   13.90
  -1  13  -7  196.08   11.50
  -2 -13  -7   52.89    9.20
  -2  13  -7   44.00    6.90
   2  13   7   46.50    9.40
  -2  13  -7   43.30    6.20
  -3 -13  -7  384.76   23.90
   3  13   7  300.57   24.30
   3 -14  -7  316.27   20.30
   3  14  -7  360.56   19.60
   3  14  -7  316.97   26.90
   2 -14  -7  583.14   28.90
   2  14  -7  546.05   25.60
   2  14  -7  479.45   33.00
   1 -14  -7   35.00    6.70
   1  14  -7   50.29   10.50
  -1  14   7   47.50    8.70
   1  14  -7   48.00    5.80
   1  14  -7   42.40    6.80
   0 -14  -7 1037.30   47.10
   0  14  -7 1060.89   53.69
   0  14   7  993.10   51.09
   0  14  -7 1016.10   39.10
   0  14  -7  976.60   41.40
  -1 -14  -7  782.42   36.90
  -1  14  -7  722.33   30.60
   1  14   7  728.23   39.30
  -1  14  -7  733.63   31.50
  -2 -14  -7  198.98   16.80
   2  14   7  219.68   18.40
  -2  14  -7  264.27   14.00
  -2  14  -7  255.47   14.80
  -3 -14  -7   52.09   10.80
   2 -15  -7   20.00    5.80
   2  15  -7   24.00    9.40
   2  15  -7   13.70    5.30
   1 -15  -7  178.28   13.60
   1  15  -7  162.48   10.30
   1  15  -7  160.58   16.80
   1  15  -7  161.28   11.80
   0 -15  -7   21.80    6.20
   0  15   7   22.80    6.90
   0  15  -7   18.20    5.00
   0  15  -7   15.20    4.70
   0  15  -7   27.80    8.50
   1 -15   7  111.59    9.10
  -1 -15  -7  121.99   11.90
  -1  15  -7  123.49   10.10
  -1  15  -7  123.69    9.50
   1  15   7  100.49   12.30
  -2 -15  -7   87.39   11.80
  -2  15  -7   68.89    8.50
   2 -16  -7  338.57   20.50
   2  16  -7  301.97   18.10
   2  16  -7  289.87   24.30
   1 -16  -7   25.60    6.30
   1  16  -7   29.40    9.50
   1  16  -7   24.30    5.90
   1  16  -7   20.30    4.70
   0 -16  -7  556.04   30.00
   0  16  -7  578.24   26.30
   0  16  -7  564.94   34.70
   0  16  -7  567.84   24.90
  -1 -16  -7  765.32   38.00
  -1  16  -7  741.13   32.40
  -1  16  -7  736.83   31.70
   1 -17  -7  288.67   19.70
   1  17  -7  314.07   24.20
   1  17  -7  307.27   17.50
   0 -17  -7    8.80    5.90
   0  17  -7    1.40    3.40
   0  17  -7    4.60    4.00
   0  17  -7    6.40    7.30
  -1  17  -7  237.78   14.30
   0  18  -7  313.67   16.80
   0  18  -7  285.37   16.90
   5   0  -8  750.22   43.10
   4   0  -8  579.24   23.90
   4   0  -8  572.04   32.00
   3   0  -8   35.80    7.10
   3   0  -8   27.70    3.60
   2   0  -8 1424.36   62.19
   2   0  -8 1349.27   46.50
   2   0  -8 1292.77   50.59
   1   0  -8 2232.58   75.39
   1   0  -8 2190.78   81.09
   0   0  -8 2912.81  115.39
   0   0  -8 2833.22   97.89
   1   0   8   37.60    4.90
  -1   0  -8   28.30    3.30
   2   0   8 1985.10   95.49
  -2   0  -8 2207.58   96.29
  -2   0  -8 2026.70   72.49
  -3   0  -8  135.19    8.90
   3   0   8  142.69   13.50
   4   0   8  819.32   47.00
  -4   0  -8  922.91   34.80
   5  -1  -8   42.10   10.10
   5   1  -8   26.80   10.70
   4  -1  -8   94.09   11.50
   4   1  -8  106.79   13.00
   4   1  -8   89.49    7.50
   3  -1  -8  710.23   26.10
  -3  -1   8  785.22   29.80
   3  -1  -8  714.13   28.80
   3  -1  -8  742.53   37.00
   3   1  -8  748.33   29.50
  -3   1   8  774.22   29.10
   3   1  -8  749.53   37.50
  -2  -1   8  448.66   18.10
   2  -1  -8  430.26   17.70
   2   1  -8  429.36   18.00
   2   1  -8  412.36   15.60
   1  -1  -8  632.74   24.80
   1   1  -8  628.74   25.20
   1   1  -8  628.74   22.90
   0  -1  -8   59.99    4.90
   0  -1  -8   61.99    4.60
   0   1  -8   67.49    4.60
   0   1  -8   60.49    4.60
  -1  -1  -8  590.94   26.50
  -1  -1  -8  529.75   20.60
   1  -1   8  542.15   26.10
  -1  -1  -8  457.95   22.80
   1   1   8  498.85   25.90
  -1   1  -8  575.94   26.80
  -1   1  -8  524.05   20.60
   2  -1   8  774.72   37.40
  -2  -1  -8  714.03   28.30
  -2  -1  -8  745.93   37.50
  -2   1  -8  741.53   28.60
   2   1   8  766.42   37.40
  -2   1  -8  729.93   38.00
  -3  -1  -8   12.10    3.40
   3  -1   8   21.40    7.10
   3   1   8   22.00    7.80
  -3   1  -8   20.10    4.20
   4  -1   8   43.10   10.30
  -4  -1  -8   28.00    5.50
  -4   1  -8   23.50    5.70
   4   1   8   20.50   10.70
   4  -2  -8  521.75   28.90
   4   2  -8  478.25   29.50
   4   2  -8  523.65   22.40
   3  -2  -8  408.96   21.50
   3  -2  -8  382.26   14.80
   3   2  -8  379.46   22.40
   3   2  -8  395.26   17.30
   2  -2  -8  583.14   22.90
   2  -2  -8  588.14   27.80
  -2  -2   8  594.84   23.70
   2   2  -8  544.75   23.50
   2   2  -8  597.04   20.70
   1  -2  -8 1026.20   36.70
   1  -2  -8  921.21   41.00
   1   2  -8  946.81   37.10
   1   2  -8  958.30   33.90
   0  -2  -8 6053.59  244.78
   0  -2   8 6409.86  206.38
   0   2  -8 6131.29  221.08
   0   2  -8 5981.40  206.38
   1  -2   8   37.20    5.00
  -1  -2  -8   31.10    3.80
  -1  -2  -8   29.20    3.60
  -1  -2  -8   42.40    5.20
  -1   2  -8   30.70    4.90
   1   2   8   25.00    5.20
  -1   2  -8   29.90    3.80
   1   2   8   18.10    2.70
  -2  -2  -8  969.50   40.40
  -2  -2  -8 1011.50   47.50
   2  -2   8  927.91   46.90
  -2  -2  -8  982.80   35.90
  -2   2  -8  940.81   36.00
   2   2   8  963.90   47.20
   3  -2   8  279.37   18.70
  -3  -2  -8  247.88   12.90
  -3   2  -8  270.77   13.60
   3   2   8  274.17   18.90
   4  -2   8  591.14   34.80
  -4  -2  -8  592.04   24.90
   4   2   8  549.05   35.30
  -4   2  -8  595.94   25.40
   4  -3  -8   27.80    6.80
   4   3  -8   23.10    8.50
   4   3  -8   23.90    5.10
   3  -3  -8 1707.93   76.89
   3  -3  -8 1619.24   56.89
   3   3  -8 1614.94   62.09
  -2  -3   8 1403.06   50.09
   2  -3  -8 1247.18   55.79
  -2  -3   8 1297.47   60.59
   2  -3  -8 1348.07   60.49
   2   3  -8 1282.97   60.99
   2   3  -8 1329.97   50.09
   2   3  -8 1316.27   45.00
   1  -3  -8  379.76   18.40
   1   3  -8  384.86   14.80
   1   3  -8  389.66   16.90
   0  -3  -8    1.80    2.30
   0  -3   8    2.30    1.80
   0  -3  -8    7.30    2.50
   0   3  -8    0.10    1.60
   0   3  -8    4.70    2.30
   0   3  -8    4.00    2.50
  -1  -3  -8  136.89    9.20
  -1  -3  -8  145.19    8.60
  -1  -3  -8  133.29    7.50
   1  -3   8  152.18    9.90
   1   3   8  156.78    8.00
  -1   3  -8  135.49    7.60
  -1   3  -8  134.99    9.80
   1   3   8  116.09    9.70
  -2  -3  -8 1532.85   79.49
  -2  -3  -8 1797.52   70.19
   2  -3   8 1749.43   79.89
  -2  -3  -8 1581.44   60.09
  -2   3  -8 1837.72   80.69
   2   3   8 1808.62   69.79
  -2   3  -8 1615.24   60.49
   3  -3   8   37.70    8.00
  -3  -3  -8   36.70    5.00
  -3   3  -8   30.20    5.00
   3   3   8   41.50    9.20
   4  -3   8  409.66   26.50
  -4  -3  -8  381.86   18.20
   4   3   8  332.97   27.00
  -4   3  -8  402.56   18.90
   4  -4  -8  121.69   11.90
   4  -4  -8  108.49   10.90
   4   4  -8  107.39    9.00
   3  -4  -8  488.65   24.10
   3  -4  -8  469.15   18.30
   3  -4  -8  483.65   25.30
   3   4  -8  447.96   20.70
  -2  -4   8  422.16   21.50
   2  -4  -8  415.26   21.20
   2  -4  -8  399.76   20.80
   2   4  -8  416.36   18.50
   2   4  -8  440.56   15.40
   2   4  -8  420.86   21.90
  -1  -4   8  379.26   15.40
  -1  -4   8  411.76   17.60
   1  -4  -8  427.26   19.70
   1   4  -8  412.46   15.60
   1   4  -8  419.86   20.90
   1   4  -8  388.66   17.70
   0  -4  -8   46.30    4.90
   0  -4   8   45.90    4.10
   0  -4  -8   46.50    5.00
   0   4  -8   48.30    3.80
   0   4   8   47.70    4.80
   0   4  -8   46.20    4.10
   0   4  -8   49.70    5.10
   0   4  -8   44.60    4.90
   1  -4   8  306.97   17.60
  -1  -4  -8  314.47   16.00
  -1  -4  -8  339.67   17.70
  -1   4  -8  311.47   17.70
  -1   4  -8  321.77   14.00
   1   4   8  322.87   15.30
  -2  -4  -8   33.90    4.60
   2  -4   8   33.40    6.80
  -2  -4  -8   42.70    6.70
  -2  -4  -8   38.70    5.10
   2   4   8   22.00    7.90
   2   4   8   37.40    4.60
  -2   4  -8   36.60    5.20
  -2   4  -8   37.90    7.40
  -3  -4  -8  143.99    9.10
   3  -4   8  163.68   14.00
   3   4   8  130.59   14.40
  -3   4  -8  141.49    9.70
   4  -4   8   30.80    9.90
  -4  -4  -8   32.70    5.50
  -4   4  -8   32.30    6.40
   4   4   8   21.10   11.10
   5   5  -8  121.39   11.90
   4  -5  -8   33.10    6.90
   4  -5  -8   29.60    7.40
   4   5  -8   14.90   10.50
   4   5  -8   23.90    5.30
   3  -5  -8  766.92   37.60
   3  -5  -8  835.12   30.30
   3  -5  -8  871.21   40.80
   3   5  -8  859.11   33.60
   3   5  -8  795.72   41.50
   3   5  -8  779.72   41.70
   2  -5  -8 2112.59   95.69
   2  -5  -8 2380.26   79.99
   2   5  -8 2440.16   78.59
   2   5  -8 2279.87  106.19
   2   5  -8 2389.66   86.29
  -1  -5   8  348.07   15.60
   1  -5  -8  340.97   17.20
  -1  -5   8  335.07   13.30
   1   5  -8  340.97   18.70
   1   5  -8  346.97   15.70
   1   5  -8  329.27   13.50
   0  -5   8   73.19    5.00
   0  -5  -8   70.19    6.10
   0  -5  -8   72.39    6.60
   0   5   8   75.59    6.00
   0   5  -8   59.89    6.10
   0   5   8   68.09    5.70
   0   5  -8   64.99    5.00
   0   5  -8   66.99    4.70
   0   5  -8   74.79    6.20
  -1  -5  -8  964.00   44.30
  -1  -5  -8  943.31   40.10
   1  -5   8  970.20   44.60
  -1   5  -8  873.41   44.10
   1   5   8  977.10   39.40
  -1   5  -8  857.41   33.90
   1   5   8  882.41   44.00
  -1   5  -8  875.11   36.30
  -2  -5  -8 1794.22   73.79
   2  -5   8 1821.22   83.09
  -2  -5  -8 1647.34   62.19
  -2  -5  -8 1670.03   82.49
  -2   5  -8 1903.91   83.69
   2   5   8 1794.02   72.79
  -2   5  -8 1702.73   62.89
   3  -5   8  120.29   12.80
  -3  -5  -8  102.89    7.90
   3   5   8  109.79   13.70
  -3   5  -8  117.09    9.00
   4  -5   8  321.77   23.40
  -4  -5  -8  300.87   15.40
  -4   5  -8  325.17   16.50
   4   5   8  251.47   23.40
   4  -6  -8   26.10    7.30
   4  -6  -8   23.90    6.00
   4   6  -8    5.10   11.10
   4   6  -8   20.30    5.40
   3  -6  -8  616.64   28.80
   3  -6  -8  577.54   30.50
   3   6  -8  560.24   25.10
   3   6  -8  563.74   31.30
   2  -6  -8  310.37   16.80
   2  -6  -8  311.97   13.40
   2   6  -8  294.57   11.90
   2   6  -8  325.37   18.30
   2   6  -8  302.47   15.00
   1  -6  -8  658.13   29.10
  -1  -6   8  613.24   23.10
  -1   6   8  584.34   29.80
   1   6  -8  687.43   28.60
  -1   6   8  617.34   30.00
   1   6  -8  615.04   26.10
   1   6  -8  639.04   23.40
   1   6  -8  631.74   32.30
   0  -6   8 1223.38   43.00
   0  -6  -8 1186.48   51.29
   0   6  -8 1156.98   46.50
   0   6   8 1247.68   51.19
   0   6  -8 1211.98   56.69
   0   6   8 1214.88   55.59
   0   6  -8 1247.88   49.90
   0   6  -8 1164.98   43.10
  -1  -6  -8  268.57   15.60
  -1  -6  -8  230.98   14.10
   1   6   8  270.87   15.60
  -1   6  -8  249.88   13.10
  -1   6  -8  266.97   15.70
  -1   6  -8  258.67   12.20
   1   6   8  253.57   13.50
   2  -6   8  410.46   24.10
  -2  -6  -8  376.16   20.90
  -2  -6  -8  411.96   17.70
  -2  -6  -8  438.86   24.10
  -2   6  -8  452.55   24.60
   2   6   8  421.16   20.30
  -2   6  -8  400.56   18.40
  -3  -6  -8  345.77   15.80
   3  -6   8  312.57   22.10
  -3   6  -8  344.17   16.80
   4  -6   8  211.68   18.90
  -4  -6  -8  188.98   11.70
  -4   6  -8  207.18   13.00
   4   6   8  141.19   18.40
   4  -7  -8   24.70    6.50
   4  -7  -8   26.40    7.70
   4   7  -8   23.10    5.60
   4   7  -8    0.00   11.60
   3  -7  -8  661.03   32.40
   3  -7  -8  707.23   35.20
   3   7  -8  638.64   35.80
   3   7  -8  696.53   29.20
   2  -7  -8  347.37   19.10
   2   7  -8  363.16   14.00
   2   7  -8  349.77   17.20
   2   7  -8  389.76   21.30
   1  -7  -8  495.75   19.90
  -1  -7   8  525.65   19.30
   1  -7  -8  505.65   24.40
  -1   7   8  483.15   25.00
  -1   7   8  506.45   25.10
   1   7  -8  514.45   19.50
   1   7  -8  491.35   21.90
   1   7  -8  541.05   23.80
   1   7  -8  483.75   27.50
   0  -7  -8  431.76   21.10
   0  -7  -8  425.46   18.20
   0   7   8  406.56   21.70
   0   7  -8  422.36   17.50
   0   7  -8  449.36   19.60
   0   7  -8  419.66   19.20
   0   7  -8  455.25   23.10
  -1  -7  -8  896.11   40.30
  -1  -7  -8  939.31   44.70
  -1   7  -8  908.81   44.50
  -1   7  -8  859.71   33.90
   1   7   8  942.61   43.90
  -1   7  -8  868.61   36.10
  -2  -7  -8  358.26   21.60
  -2  -7  -8  364.36   19.70
   2  -7   8  382.36   22.30
   2   7   8  376.96   23.00
  -2   7  -8  347.77   16.70
  -2   7  -8  329.97   17.10
  -3  -7  -8   32.10    4.90
   3  -7   8   39.30    9.30
  -3   7  -8   42.60    6.40
   3   7   8   25.90   11.30
  -3   7  -8   37.00    5.70
   4  -7   8   61.59   12.10
   4   7   8   64.69   13.90
  -4   7  -8   75.69    8.60
   4  -8  -8  359.66   21.90
   4  -8  -8  429.06   25.10
   4   8  -8  332.57   27.30
   4   8  -8  402.76   20.30
   3  -8  -8   22.30    5.30
   3   8  -8   23.40    6.90
   3   8  -8   32.10    5.70
   2  -8  -8  582.44   27.30
  -2  -8   8  531.75   20.40
   2   8  -8  586.14   30.40
   2   8  -8  543.55   24.30
   2   8  -8  541.95   20.50
   1  -8  -8 1451.15   52.39
  -1  -8   8 1535.15   49.90
   1  -8  -8 1387.76   60.59
   1   8  -8 1225.78   67.69
   1   8  -8 1444.36   49.90
  -1   8   8 1456.65   65.89
   1   8  -8 1392.86   54.49
   0  -8  -8 2573.74   92.79
   0  -8  -8 2503.25  104.19
   0   8  -8 2633.44  116.29
   0   8  -8 2494.15   93.89
   0   8  -8 2428.56   87.29
   0   8  -8 2603.54  102.59
   0   8   8 2454.15  114.59
  -1  -8  -8 1039.30   49.99
  -1  -8  -8 1215.48   55.99
   1   8   8 1119.79   54.69
  -1   8  -8 1177.08   55.69
  -1   8  -8 1130.99   42.30
  -1   8  -8 1200.98   45.30
  -2  -8  -8  994.50   49.40
   2  -8   8  893.01   49.10
   2   8   8  998.30   49.10
  -2   8  -8  981.10   37.60
  -2   8  -8 1012.90   39.50
  -3  -8  -8  212.88   11.80
   3  -8   8  190.88   17.30
  -3  -8  -8  223.48   15.20
  -3   8  -8  224.98   13.30
  -3   8  -8  202.78   12.70
   4  -8   8  431.76   29.30
  -4   8  -8  431.46   21.70
   4  -9  -8  172.78   14.50
   4  -9  -8  182.18   16.40
   4   9  -8  207.28   21.10
   4   9  -8  196.18   13.70
   4   9  -8  202.98   21.00
   3  -9  -8  148.29   11.80
   3   9  -8  146.69   14.00
   3   9  -8  144.89   10.80
  -2  -9   8  181.08    8.50
   2  -9  -8  199.78   13.10
   2   9  -8  201.08   15.10
   2   9  -8  184.88    8.80
   2   9  -8  187.08   11.50
   1  -9  -8  412.56   16.20
   1  -9  -8  404.86   20.50
  -1  -9   8  376.66   15.60
   1   9  -8  382.86   16.00
  -1   9   8  391.56   21.00
   1   9  -8  349.07   23.30
   1   9  -8  386.56   18.30
   0  -9  -8  182.58   10.00
   0  -9  -8  195.28   12.50
   0   9  -8  190.28   11.30
   0   9  -8  210.48   13.90
   0   9  -8  205.98   11.10
   0   9  -8  196.98   10.30
   0   9   8  192.08   12.50
  -1  -9  -8  242.08   16.30
  -1  -9  -8  267.17   15.30
  -1   9  -8  233.88   16.10
  -1   9  -8  237.48   13.10
   1   9   8  251.37   15.60
  -1   9  -8  228.88   12.30
  -2  -9  -8   87.69    9.80
   2   9   8   90.39   11.10
  -2   9  -8   76.79    7.50
  -2   9  -8   80.19    7.80
   3  -9   8   25.20    8.80
  -3  -9  -8   22.30    6.50
  -3  -9  -8   20.60    4.60
   3   9   8   10.20   11.90
  -3   9  -8   22.70    5.40
  -3   9  -8   16.30    5.10
   4 -10  -8  620.24   32.00
   4  10  -8  558.34   36.80
   4  10  -8  667.13   29.60
   3 -10  -8  218.08   15.20
   3  10  -8  242.48   14.30
   3  10  -8  217.18   18.00
  -2 -10   8  323.67   13.10
   2 -10  -8  330.07   18.60
   2  10  -8  299.87   13.20
   2  10  -8  308.57   16.40
   2  10  -8  321.17   21.20
   1 -10  -8  877.31   41.00
   1 -10  -8  896.51   34.50
   1  10  -8  983.50   33.70
   1  10  -8  800.32   46.50
  -1  10   8  971.40   44.50
   1  10  -8  886.11   36.90
   0 -10  -8 1739.33   76.39
   0  10  -8 1848.42   85.39
   0  10  -8 1857.51   74.99
   0  10  -8 1776.42   68.69
   0  10   8 1808.32   83.79
   0  10  -8 1794.92   63.99
  -1 -10  -8  350.56   19.20
  -1 -10  -8  315.17   20.80
  -1  10  -8  323.07   16.60
   1  10   8  362.16   20.10
  -1  10  -8  330.17   16.60
  -1  10  -8  338.47   16.00
  -1  10  -8  327.37   20.90
  -2 -10  -8  300.67   20.10
   2  10   8  352.26   22.10
  -2  10  -8  365.06   17.40
  -2  10  -8  360.16   17.30
   3 -10   8  597.44   34.40
  -3 -10  -8  545.15   24.00
  -3 -10  -8  602.34   30.80
  -3  10  -8  544.85   25.20
  -3  10  -8  526.15   25.10
   3  10   8  560.94   35.10
   4 -11  -8   26.30    7.30
   4  11  -8   34.40    7.60
   3 -11  -8  282.37   18.20
   3  11  -8  274.57   22.60
   3  11  -8  318.87   17.10
   2 -11  -8  160.38   12.50
   2  11  -8  162.28   15.20
   2  11  -8  172.28   11.60
   2  11  -8  188.68    9.10
   1 -11  -8  151.58   11.80
   1 -11  -8  162.68    8.40
   1  11  -8  161.48   10.80
  -1  11   8  167.08   12.20
   1  11  -8  179.28   15.30
   1  11  -8  172.58    9.40
   0 -11  -8    1.80    3.30
   0  11  -8    0.20    4.00
   0  11   8    3.40    3.60
   0  11  -8   -0.90    2.30
   0  11  -8    1.10    2.50
   0  11  -8   -1.80    2.80
  -1 -11  -8   44.50    7.50
  -1  11  -8   47.70    6.00
  -1  11  -8   48.40    6.20
   1  11   8   35.60    7.00
  -2 -11  -8  296.37   18.40
   2  11   8  271.27   19.00
  -2  11  -8  240.78   14.30
  -2  11  -8  253.07   14.50
  -3 -11  -8  165.58   10.90
  -3 -11  -8  111.19   13.70
  -3  11  -8  181.38   11.70
  -3  11  -8  163.38   12.40
   3  11   8  171.38   19.10
   3 -12  -8  355.86   20.60
   3  12  -8  341.67   18.70
   3  12  -8  287.47   24.60
   2 -12  -8  686.33   35.00
   2  12  -8  714.53   40.90
   2  12  -8  735.73   32.00
   2  12  -8  776.02   27.90
   1 -12  -8  272.27   17.00
   1  12  -8  270.27   15.30
   1  12  -8  279.57   20.60
  -1  12   8  284.57   17.80
   1  12  -8  294.77   13.50
   0 -12  -8   17.50    4.90
   0  12  -8   21.70    7.10
   0  12   8   27.50    5.90
   0  12  -8   18.10    4.00
   0  12  -8   16.00    4.40
  -1 -12  -8  191.78   13.90
   1  12   8  182.68   14.20
  -1  12  -8  185.08   11.80
  -1  12  -8  189.78   11.60
  -2 -12  -8   28.50    7.40
  -2  12  -8   27.50    5.50
  -2  12  -8   24.50    5.80
   2  12   8   37.30    8.90
  -3 -12  -8  377.56   18.60
  -3 -12  -8  393.36   24.80
  -3  12  -8  401.26   21.30
   3 -13  -8  173.08   13.90
   3  13  -8  144.09   18.70
   3  13  -8  176.38   13.20
   2 -13  -8  513.75   28.20
   2  13  -8  501.35   33.00
   2  13  -8  617.24   26.20
   1 -13  -8  243.98   16.30
  -1  13   8  253.87   17.10
   1  13  -8  247.78   14.60
   1  13  -8  267.77   13.00
   1  13  -8  246.68   20.00
   0 -13  -8   89.89    9.80
   0  13  -8   95.59    8.60
   0  13  -8   93.59   12.10
   0  13   8   90.59    9.80
   0  13  -8  100.79    8.10
  -1 -13  -8  623.74   30.90
  -1  13  -8  554.24   26.20
   1  13   8  620.74   32.60
  -1  13  -8  575.94   25.40
  -2 -13  -8  500.95   27.20
  -2  13  -8  459.95   22.10
   2  13   8  420.76   28.00
  -2  13  -8  483.35   22.20
  -3 -13  -8   84.99   12.20
   3 -14  -8  247.58   17.50
   2 -14  -8   25.80    7.00
   2  14  -8   24.40    8.90
   2  14  -8   23.80    6.20
   1 -14  -8  462.05   25.40
   1  14  -8  497.45   30.50
   1  14  -8  467.65   22.80
   1  14  -8  463.85   20.60
   0 -14  -8   12.90    4.80
   0  14  -8   14.80    7.10
   0  14   8    8.10    5.10
   0  14  -8   13.10    4.00
   0  14  -8   12.80    4.50
  -1 -14  -8  623.54   32.30
  -1  14  -8  650.33   28.10
   1  14   8  623.64   36.20
  -1  14  -8  606.84   27.00
  -2 -14  -8    9.30    5.80
  -2  14  -8   10.20    4.40
  -2  14  -8    6.00    4.40
   2 -15  -8  308.77   19.40
   2  15  -8  259.47   22.70
   2  15  -8  304.87   17.50
   1 -15  -8  161.18   13.50
   1  15  -8  160.08   11.90
   1  15  -8  163.88   10.60
   1  15  -8  169.58   17.30
   0 -15  -8  447.56   25.40
   0  15  -8  462.15   29.30
   0  15  -8  464.45   22.40
   0  15  -8  440.76   20.90
  -1 -15  -8  516.65   27.00
  -1  15  -8  440.96   22.20
  -1  15  -8  451.25   22.00
  -2 -15  -8   21.00    7.20
   1 -16  -8  531.55   29.10
   1  16  -8  525.45   23.20
   1  16  -8  542.95   33.90
   1  16  -8  533.85   25.80
   0 -16  -8  326.97   21.30
   0  16  -8  351.56   25.20
   0  16  -8  352.26   18.70
   0  16  -8  354.66   17.90
  -1 -16  -8  572.94   31.70
  -1  16  -8  592.94   26.80
  -1  16  -8  610.74   27.40
   1  17  -8  377.36   21.10
   1  17  -8  428.46   19.50
   0  17  -8   93.69    9.60
   0  17  -8  104.09    9.40
  -1  17  -8  341.37   18.50
   0  18  -8   90.79   10.80
   4   0  -9    1.40    2.90
   4   0  -9   -0.40    6.00
   3   0  -9   12.70    3.00
   3   0  -9    7.80    1.60
   3   0  -9    1.50    4.60
  -3   0   9    8.60    3.20
   2   0  -9    2.10    2.20
   2   0  -9    1.30    1.40
   2   0  -9   -5.40    2.50
   1   0  -9   25.30    3.10
   1   0  -9   23.60    3.50
   0   0  -9   -2.80    1.70
   0   0  -9   -6.40    1.80
   1   0   9  210.78   12.30
  -1   0  -9  219.78   12.90
  -1   0  -9  211.38   10.30
  -2   0  -9   -2.80    2.20
  -2   0  -9   -9.00    4.70
   2   0   9   -5.00    4.50
  -3   0  -9  145.79    9.50
   3   0   9  136.49   13.10
   4   0   9    9.70    8.50
  -4   0  -9   -4.40    3.90
   4  -1  -9  477.75   26.90
   4   1  -9  446.26   27.20
   4   1  -9  464.75   20.50
  -3  -1   9  413.86   17.40
   3  -1  -9  383.06   14.70
   3  -1  -9  378.16   16.50
   3  -1  -9  373.06   21.10
   3   1  -9  404.66   21.90
   3   1  -9  396.06   17.30
   2  -1  -9 1591.54   58.99
   2   1  -9 1539.95   59.29
   2   1  -9 1618.54   54.39
   1  -1  -9  685.43   24.50
   1  -1  -9  664.73   26.30
   1  -1  -9  645.24   29.10
   1   1  -9  650.53   24.20
   1   1  -9  662.53   26.60
   0  -1  -9 5228.48  209.98
   0  -1  -9 5241.08  177.48
   0   1  -9 5330.47  209.58
   0   1  -9 5240.28  177.38
  -1  -1  -9  482.05   24.20
  -1  -1  -9  460.65   21.20
   1  -1   9  515.35   24.10
  -1  -1  -9  444.56   19.10
   1   1   9  488.05   23.80
  -1   1  -9  478.15   19.30
   2  -1   9 1245.88   61.19
  -2  -1  -9 1285.87   46.90
  -2  -1  -9 1333.67   61.79
   2   1   9 1254.67   61.19
  -2   1  -9 1323.97   47.20
  -3  -1  -9   18.10    4.00
   3  -1   9   16.10    6.60
  -3   1  -9   20.00    4.20
   3   1   9   24.80    8.10
   4  -1   9  803.22   45.70
  -4  -1  -9  877.31   33.90
  -4   1  -9  852.41   33.90
   4   1   9  783.32   45.60
   4  -2  -9  448.06   25.80
   4   2  -9  454.85   20.20
   4   2  -9  414.16   26.30
   3  -2  -9  265.27   11.10
   3  -2  -9  266.87   15.80
   3   2  -9  290.87   13.50
   3   2  -9  248.38   16.70
   2  -2  -9  387.36   16.60
  -2  -2   9  396.66   17.30
   2   2  -9  397.76   17.40
   2   2  -9  393.96   14.80
   1  -2  -9   27.10    4.30
   1  -2  -9   24.00    3.50
   1   2  -9   25.20    3.90
   1   2  -9   29.20    3.10
   0  -2  -9  215.68   10.30
   0  -2  -9  220.98   11.50
   0   2  -9  223.88   10.20
   0   2  -9  220.08   11.40
   1  -2   9   27.10    4.70
  -1  -2  -9   24.50    4.60
  -1  -2  -9   23.50    3.60
  -1  -2  -9   22.50    3.30
   1   2   9   15.50    4.60
  -1   2  -9   25.20    3.60
  -1   2  -9   26.50    5.00
  -2  -2  -9  776.02   30.50
   2  -2   9  871.01   40.10
  -2  -2  -9  790.32   40.00
   2   2   9  760.92   39.70
  -2   2  -9  779.52   30.60
  -3  -2  -9  122.79    8.70
   3  -2   9  126.79   12.80
   3   2   9  126.59   13.40
  -3   2  -9  136.39    9.40
   4  -2   9   15.00    8.30
  -4  -2  -9   11.50    4.70
  -4   2  -9    9.40    5.00
   4   2   9    9.50    9.90
   4  -3  -9  336.17   20.50
   4   3  -9  282.57   21.20
   4   3  -9  321.27   16.20
   3  -3  -9  645.04   31.70
   3  -3  -9  613.74   23.30
   3   3  -9  628.14   26.40
   2  -3  -9  319.47   16.80
   2  -3  -9  294.27   15.90
   2  -3  -9  310.67   13.60
   2   3  -9  297.17   14.50
   2   3  -9  317.17   12.00
   2   3  -9  322.07   16.90
   1  -3  -9   98.39    7.20
   1   3  -9   94.89    5.40
   1   3  -9   99.19    6.90
   0  -3   9  662.53   23.40
   0  -3  -9  613.64   27.30
   0   3  -9  584.24   29.10
   0   3  -9  613.34   23.40
   0   3  -9  602.14   25.30
  -1  -3  -9  178.08   10.20
  -1  -3  -9  181.98   11.10
   1  -3   9  188.48   11.50
  -1  -3  -9  158.68    9.00
   1   3   9  196.88    9.60
   1   3   9  165.58   11.40
  -1   3  -9  161.58    9.00
  -1   3  -9  168.28   11.60
  -2  -3  -9  160.08    9.40
   2  -3   9  145.69   12.60
  -2  -3  -9  173.58    9.70
  -2  -3  -9  163.48   12.10
   2   3   9  163.88    9.00
   2   3   9  143.09   13.40
  -2   3  -9  171.68   13.70
  -2   3  -9  150.98    9.60
  -3  -3  -9  165.08   10.00
   3  -3   9  144.69   13.90
   3   3   9  149.69   14.80
  -3   3  -9  160.68   10.50
   4  -3   9  265.57   21.10
  -4  -3  -9  268.37   14.40
  -4   3  -9  265.67   14.90
   4   3   9  215.48   21.20
   4  -4  -9  608.64   32.40
   4  -4  -9  543.05   30.00
   4   4  -9  604.34   26.10
   3  -4  -9  242.68   16.00
   3  -4  -9  275.37   16.20
   3  -4  -9  281.47   12.00
   3   4  -9  285.17   14.20
   2  -4  -9 2716.23  115.69
   2   4  -9 2836.62   95.29
   2   4  -9 2858.81  103.99
   2   4  -9 2861.11  127.59
   1  -4  -9  352.66   17.40
  -1  -4   9  351.46   13.70
   1   4  -9  329.07   13.70
   1   4  -9  341.97   15.90
   0  -4   9  839.52   29.80
   0  -4  -9  778.92   35.10
   0  -4  -9  811.12   38.20
   0   4  -9  783.52   32.30
   0   4  -9  803.02   29.90
   0   4   9  846.02   34.90
   0   4  -9  785.52   38.00
  -1  -4  -9  215.58   13.20
   1  -4   9  229.58   13.60
  -1  -4  -9  213.58   12.20
  -1  -4  -9  212.68   10.70
   1   4   9  232.38   11.60
  -1   4  -9  213.28   13.40
  -1   4  -9  202.98   10.70
   2  -4   9 2399.96  106.29
  -2  -4  -9 2423.16   94.19
  -2  -4  -9 2124.29   79.99
  -2  -4  -9 2195.08  105.89
   2   4   9 2348.97   93.29
  -2   4  -9 2154.98   80.39
  -2   4  -9 2378.06  106.69
   3  -4   9  407.16   24.00
  -3  -4  -9  349.87   16.90
   3   4   9  365.66   23.90
  -3   4  -9  354.66   17.60
  -4  -4  -9    0.60    3.30
   4  -4   9    3.30    8.00
   4   4   9    6.60   10.50
  -4   4  -9    9.50    4.60
   4  -5  -9   24.80    7.00
   4  -5  -9   25.10    7.20
   4   5  -9   19.20    5.40
   4   5  -9    3.60   10.20
   3  -5  -9  436.46   18.20
   3  -5  -9  474.45   24.70
   3  -5  -9  442.26   23.60
   3   5  -9  451.75   20.80
   3   5  -9  454.05   26.00
   3   5  -9  471.75   25.90
   2  -5  -9   58.89    7.00
   2   5  -9   54.79    7.30
   2   5  -9   70.59    6.70
   2   5  -9   60.39    4.00
  -1  -5   9  501.25   20.50
   1  -5  -9  561.74   25.90
   1   5  -9  561.04   20.90
   1   5  -9  575.24   28.00
   1   5  -9  559.64   23.60
   0  -5   9  163.68    8.20
   0  -5  -9  143.59    9.40
   0   5  -9  150.18    9.80
   0   5   9  157.88    9.20
   0   5   9  150.88    9.30
   0   5  -9  149.29    9.20
   0   5  -9  138.79    7.90
   0   5  -9  149.19    8.10
  -1  -5  -9  680.43   34.80
  -1  -5  -9  848.22   38.90
   1   5   9  788.02   34.30
  -1   5  -9  786.22   30.20
  -1   5  -9  833.92   39.00
  -1   5  -9  810.92   32.40
  -2  -5  -9   34.60    4.80
  -2  -5  -9   47.90    6.50
  -2  -5  -9   44.10    7.20
   2  -5   9   47.10    8.10
   2   5   9   27.10    9.10
  -2   5  -9   56.29    8.60
   2   5   9   49.90    5.60
  -2   5  -9   50.69    6.30
   3  -5   9  341.67   21.80
  -3  -5  -9  339.77   15.80
   3   5   9  266.37   21.30
  -3   5  -9  327.77   16.40
   4  -5   9   57.99   11.50
  -4  -5  -9   80.79    8.10
  -4   5  -9   73.99    8.60
   4  -6  -9  192.58   15.30
   4  -6  -9  230.28   16.70
   4   6  -9  216.68   13.70
   3  -6  -9  237.48   15.30
   3  -6  -9  255.67   15.80
   3   6  -9  258.47   13.80
   3   6  -9  217.08   16.60
   2  -6  -9  493.75   26.70
   2   6  -9  584.24   24.60
   2   6  -9  582.54   29.30
   2   6  -9  591.44   20.80
  -1  -6   9  358.86   13.50
   1  -6  -9  320.77   17.10
  -1   6   9  312.27   16.20
   1   6  -9  303.47   15.50
   1   6  -9  309.17   18.70
  -1   6   9  314.17   16.30
   1   6  -9  344.47   16.60
   1   6  -9  332.07   13.50
   0  -6  -9  320.07   17.00
   0   6  -9  328.47   15.40
   0   6  -9  324.47   15.90
   0   6   9  354.96   17.70
   0   6   9  343.87   17.40
   0   6  -9  312.37   14.30
   0   6  -9  341.47   18.20
  -1  -6  -9  104.19    8.60
  -1  -6  -9  101.59    8.80
  -1   6  -9   93.49    8.80
   1   6   9  100.99    9.30
  -1   6  -9  102.99    8.00
  -1   6  -9   95.59    7.10
   1   6   9   89.39    7.30
  -2  -6  -9  714.23   37.00
  -2  -6  -9  666.43   27.70
   2  -6   9  748.73   37.30
  -2  -6  -9  724.83   33.20
  -2   6  -9  724.93   37.30
  -2   6  -9  705.83   28.50
  -2   6  -9  668.63   29.90
  -3  -6  -9  398.96   17.90
   3  -6   9  425.66   25.20
  -3   6  -9  392.06   18.70
   3   6   9  307.77   24.40
  -4  -6  -9   25.10    5.20
   4  -6   9   36.90   10.50
  -4   6  -9   31.50    5.90
   4  -7  -9  155.48   13.80
   4  -7  -9  200.48   15.70
   4   7  -9  184.48   12.90
   3  -7  -9  281.27   17.00
   3   7  -9  264.57   18.20
   3   7  -9  286.27   15.20
  -2  -7   9 1043.60   36.00
   2  -7  -9  934.71   45.30
   2   7  -9  993.40   41.00
   2   7  -9 1070.99   36.20
   2   7  -9 1062.49   50.19
   1  -7  -9  754.22   34.40
  -1  -7   9  771.72   27.70
  -1   7   9  731.13   35.70
  -1   7   9  728.03   35.60
   1   7  -9  754.12   27.90
   1   7  -9  794.02   33.60
   1   7  -9  743.73   38.40
   1   7  -9  735.13   31.00
   0  -7  -9 3946.51  158.48
   0  -7  -9 3790.82  141.69
   0   7  -9 3790.12  133.09
   0   7  -9 3881.11  142.99
   0   7  -9 3971.00  176.38
   0   7   9 3790.22  175.08
   0   7  -9 4160.28  156.78
  -1  -7  -9  437.86   23.20
  -1  -7  -9  375.16   20.90
   1   7   9  413.46   22.40
  -1   7  -9  417.16   19.40
  -1   7  -9  397.86   17.90
  -1   7  -9  430.06   23.00
  -2  -7  -9  523.65   22.00
  -2  -7  -9  532.25   29.40
   2  -7   9  469.35   29.20
  -2   7  -9  558.74   23.10
  -2   7  -9  572.24   24.10
  -3  -7  -9  315.17   17.60
  -3  -7  -9  267.77   14.20
   3  -7   9  255.57   20.30
  -3   7  -9  287.17   15.60
   4  -7   9  489.05   32.80
  -4   7  -9  459.45   23.20
   4  -8  -9    0.90    4.50
   4  -8  -9    5.90    6.30
   4   8  -9   10.30    5.10
   4   8  -9   -3.30   11.80
   3  -8  -9   -0.50    3.80
   3   8  -9    6.50    4.00
   3   8  -9   -1.40    5.00
  -2  -8   9  278.67   11.40
   2  -8  -9  256.67   16.00
   2   8  -9  260.97   14.60
   2   8  -9  283.07   18.10
   2   8  -9  286.17   11.60
   1  -8  -9 1721.93   74.79
  -1  -8   9 1939.41   61.79
   1  -8  -9 1800.62   65.19
   1   8  -9 1820.82   61.99
   1   8  -9 1553.84   83.49
   1   8  -9 1715.43   67.39
  -1   8   9 1813.62   81.19
   0  -8  -9   30.90    5.70
   0   8   9   25.80    5.00
   0   8  -9   22.00    3.50
   0   8  -9   23.70    5.30
   0   8  -9   21.40    3.90
   0   8  -9   27.80    4.90
  -1  -8  -9  383.26   19.50
  -1  -8  -9  333.57   20.40
  -1   8  -9  352.66   16.20
  -1   8  -9  341.97   20.50
  -1   8  -9  318.67   16.90
   1   8   9  372.86   20.20
  -2  -8  -9   96.99   10.00
  -2   8  -9   75.89    7.60
  -2   8  -9   79.69    8.10
  -3  -8  -9  311.77   18.30
   3  -8   9  265.77   20.70
  -3  -8  -9  269.37   14.30
  -3   8  -9  266.97   15.40
  -3   8  -9  259.27   15.30
   4  -9  -9  417.76   23.80
   4   9  -9  338.97   28.30
   4   9  -9  430.46   21.60
   3  -9  -9  287.87   18.00
   3   9  -9  329.27   16.80
   3   9  -9  270.67   20.10
  -2  -9   9  672.43   26.40
   2  -9  -9  782.52   35.00
   2   9  -9  706.13   26.70
   2   9  -9  785.22   38.90
   2   9  -9  709.83   31.10
   1  -9  -9  184.48   12.60
   1  -9  -9  192.28    9.30
   1   9  -9  187.68   15.20
  -1   9   9  193.28   12.30
   1   9  -9  194.88    9.80
   1   9  -9  187.18   11.60
   0  -9  -9  881.31   39.60
   0   9  -9  826.12   32.70
   0   9  -9  897.41   43.50
   0   9   9  857.91   41.80
   0   9  -9  841.52   35.50
   0   9  -9  898.61   37.60
  -1  -9  -9  634.44   30.70
  -1  -9  -9  650.03   33.80
  -1   9  -9  632.64   33.40
  -1   9  -9  577.04   25.40
  -1   9  -9  615.54   27.20
   1   9   9  666.63   32.70
  -2   9  -9  812.92   33.00
   2   9   9  763.22   40.70
  -2   9  -9  751.12   31.40
  -3  -9  -9  173.68   14.50
  -3  -9  -9  190.88   11.60
   3  -9   9  182.48   17.50
  -3   9  -9  194.48   12.60
  -3   9  -9  179.58   12.60
   4 -10  -9  156.88   14.30
   4  10  -9  190.28   14.00
   3 -10  -9  213.98   15.10
   3  10  -9  199.98   17.50
   3  10  -9  229.38   14.10
   2 -10  -9  162.38   12.30
   2  10  -9  152.98   10.90
   2  10  -9  159.98   14.20
   2  10  -9  155.18    8.30
   1 -10  -9  216.98   10.40
   1 -10  -9  231.88   14.20
   1  10  -9  205.78   12.60
   1  10  -9  219.48   10.90
   1  10  -9  202.68   16.50
  -1  10   9  216.88   13.90
   0 -10  -9   27.80    5.50
   0  10  -9   32.50    4.70
   0  10  -9   30.30    5.20
   0  10  -9   37.30    4.90
   0  10  -9   39.50    7.20
   0  10   9   36.60    6.00
  -1 -10  -9   53.09    7.90
   1  10   9   56.79    8.50
  -1  10  -9   43.10    5.90
  -1  10  -9   57.79    9.00
  -1  10  -9   53.39    7.00
  -2 -10  -9  389.56   22.10
   2  10   9  381.96   23.40
  -2  10  -9  330.97   17.90
  -2  10  -9  346.27   17.80
  -3 -10  -9    9.50    6.00
  -3 -10  -9   12.50    4.20
  -3  10  -9    4.90    4.40
  -3  10  -9    5.00    4.20
   3 -11  -9  726.53   37.80
   3  11  -9  728.03   43.70
   3  11  -9  898.51   35.30
   2 -11  -9  280.67   17.30
   2  11  -9  260.07   15.30
   2  11  -9  260.77   12.30
   2  11  -9  294.97   20.40
   1 -11  -9   67.09    5.20
   1 -11  -9   56.29    7.70
   1  11  -9   67.59    6.10
   1  11  -9   68.69   10.90
  -1  11   9   72.49    8.10
   1  11  -9   70.19    8.10
   0 -11  -9  843.92   39.40
   0  11   9  806.82   41.50
   0  11  -9  859.41   37.90
   0  11  -9  838.12   32.70
   0  11  -9  825.82   35.20
   0  11  -9  888.51   43.70
  -1 -11  -9  965.60   43.00
   1  11   9  935.31   45.90
  -1  11  -9  875.71   35.70
  -1  11  -9  881.61   37.70
  -2 -11  -9  106.89   12.60
  -2  11  -9  107.19    9.30
  -2  11  -9   94.79    9.30
   2  11   9  114.09   12.70
  -3 -11  -9  193.58   12.10
  -3 -11  -9  201.18   16.70
  -3  11  -9  189.18   13.70
  -3  11  -9  180.68   12.70
   3 -12  -9  105.79   11.40
   3  12  -9   79.99   14.10
   3  12  -9  122.49   10.90
   2 -12  -9  338.17   20.70
   2  12  -9  376.06   15.80
   2  12  -9  365.86   24.80
   2  12  -9  373.16   19.30
   1 -12  -9  145.89   11.70
   1  12  -9  146.09   14.80
   1  12  -9  127.19   10.30
   1  12  -9  126.49    8.60
   0 -12  -9   77.89    9.00
   0  12  -9   89.29   11.80
   0  12   9   71.39    8.50
   0  12  -9   75.09    7.40
   0  12  -9   68.59    7.90
  -1 -12  -9   74.09    9.70
  -1  12  -9   78.39    8.00
  -1  12  -9   91.59    8.50
   1  12   9   67.39    9.20
  -2 -12  -9  371.26   22.30
  -2  12  -9  326.87   17.90
  -2  12  -9  340.37   18.00
  -3 -12  -9  159.18   11.20
  -3 -12  -9  168.38   15.70
   3 -13  -9  251.07   17.40
   3  13  -9  206.78   21.90
   3  13  -9  282.27   16.70
   2 -13  -9   30.10    6.20
   2  13  -9   30.50    6.20
   2  13  -9   38.90   10.00
   2  13  -9   33.40    4.60
   1 -13  -9  401.16   22.50
   1  13  -9  395.46   20.20
   1  13  -9  393.96   26.40
   1  13  -9  380.16   17.60
   0 -13  -9   31.70    6.80
   0  13  -9   16.20    4.50
   0  13  -9   24.90    5.60
   0  13  -9   30.70    8.20
  -1 -13  -9  748.13   36.50
  -1  13  -9  737.33   31.90
  -1  13  -9  704.13   30.30
  -2 -13  -9   45.10    8.80
  -2  13  -9   43.60    6.70
  -2  13  -9   43.90    6.90
   2 -14  -9  357.06   21.90
   2  14  -9  405.16   20.30
   2  14  -9  336.67   25.60
   1 -14  -9  801.22   40.20
   1  14  -9  815.32   36.20
   1  14  -9  838.32   46.50
   1  14  -9  894.41   33.30
   0 -14  -9   63.59    9.40
   0  14  -9   60.99    7.20
   0  14  -9   63.99   11.20
   0  14  -9   58.59    7.70
  -1 -14  -9  264.77   17.30
  -1  14  -9  215.58   13.70
  -1  14  -9  204.68   13.70
  -2 -14  -9  245.48   18.00
  -2  14  -9  184.88   13.10
   2 -15  -9   92.39   12.00
   2  15  -9   77.19   13.90
   2  15  -9   55.99    8.50
   1 -15  -9  312.97   19.60
   1  15  -9  310.07   15.50
   1  15  -9  288.47   22.90
   1  15  -9  290.27   17.20
   0 -15  -9   66.79    9.40
   0  15  -9   64.29   11.90
   0  15  -9   64.49    7.80
   0  15  -9   68.39    8.60
  -1 -15  -9  351.46   22.40
  -1  15  -9  394.36   19.70
  -1  15  -9  352.56   18.90
  -2 -15  -9   15.80    8.20
   1 -16  -9  836.62   41.50
   1  16  -9  797.52   46.90
   1  16  -9  865.61   33.80
   1  16  -9  827.02   36.80
   0 -16  -9   11.90    5.60
   0  16  -9    2.60    3.60
   0  16  -9   -1.80    6.20
   0  16  -9    4.90    4.30
  -1 -16  -9  156.08   15.00
  -1  16  -9  120.49   10.60
   1  17  -9  218.18   13.20
   0  17  -9  116.29   10.30
   0  17  -9  102.19   10.30
   4   0 -10   92.69   11.40
   4   0 -10  108.19    7.90
   3   0 -10  150.78    8.60
   3   0 -10  131.49    6.40
   3   0 -10  140.09   10.70
   3   0 -10  141.79    6.30
   2   0 -10 2956.20  102.89
   2   0 -10 3118.89  111.19
   1   0 -10  314.77   13.10
   1   0 -10  317.47   14.50
   0   0 -10  683.83   29.30
   0   0 -10  668.93   25.60
  -1   0 -10  134.19   10.00
  -1   0 -10  142.19    8.20
   1   0  10  150.68    9.40
   2   0  10 1679.03   80.29
  -2   0 -10 1770.72   81.09
  -2   0 -10 1711.73   61.69
  -3   0 -10  342.07   16.60
   3   0  10  332.87   21.80
  -4   0 -10  457.15   21.60
   4  -1 -10  255.27   18.10
   4   1 -10  270.47   19.10
   4   1 -10  287.27   14.10
   3  -1 -10  161.08    7.40
   3  -1 -10  167.58    9.00
   3  -1 -10  167.28   11.30
   3  -1 -10  164.88    7.60
   3   1 -10  174.08   12.30
   3   1 -10  156.28    9.50
   2  -1 -10  642.64   23.60
   2  -1 -10  636.64   25.90
   2   1 -10  638.24   23.30
   2   1 -10  634.34   26.30
   1  -1 -10  345.07   16.80
   1  -1 -10  347.07   15.30
   1  -1 -10  328.17   13.90
   1   1 -10  340.37   13.80
   1   1 -10  337.67   15.60
   0  -1 -10  532.55   23.30
   0  -1 -10  517.35   20.40
   0   1 -10  503.35   22.70
   0   1 -10  515.85   20.30
  -1  -1 -10  266.17   14.20
  -1  -1 -10  244.18   11.50
   1  -1  10  216.88   13.50
   1   1  10  227.68   13.30
  -1   1 -10  240.08   11.60
   2  -1  10  201.58   13.60
  -2  -1 -10  187.48   10.50
  -2  -1 -10  178.98   13.60
  -2   1 -10  190.08   10.80
  -2   1 -10  180.68   14.20
   2   1  10  188.48   13.60
   3  -1  10  410.76   25.60
  -3  -1 -10  449.16   19.60
  -3   1 -10  453.65   19.90
   3   1  10  386.76   25.40
  -4  -1 -10   17.40    5.30
  -4   1 -10   11.80    5.00
   4  -2 -10   79.99   10.40
   4   2 -10   96.79   12.80
   4   2 -10   89.59    8.30
   3  -2 -10  659.13   32.90
   3  -2 -10  648.44   24.40
   3  -2 -10  682.13   26.40
   3   2 -10  624.54   33.50
   3   2 -10  712.43   27.80
   2  -2 -10 1453.35   54.49
   2   2 -10 1496.15   55.29
   2   2 -10 1399.46   50.09
   1  -2 -10   25.00    3.80
   1  -2 -10   27.30    4.50
   1   2 -10   18.60    3.70
   1   2 -10   22.40    2.80
   0  -2 -10 1504.85   61.79
   0  -2 -10 1476.25   52.69
   0   2 -10 1503.65   56.69
   0   2 -10 1482.35   52.59
   0   2 -10 1470.25   60.79
  -1  -2 -10  383.86   18.30
  -1  -2 -10  387.26   20.40
  -1  -2 -10  380.26   16.60
  -1   2 -10  396.66   16.70
  -2  -2 -10  337.77   15.40
   2  -2  10  343.67   19.60
  -2  -2 -10  338.37   19.80
   2   2  10  274.07   19.20
  -2   2 -10  348.67   15.60
  -2   2 -10  319.27   21.00
   3  -2  10   65.09   10.00
  -3  -2 -10   57.99    6.80
   3   2  10   65.69   11.40
  -3   2 -10   75.69    7.90
  -4  -2 -10  181.58   12.30
  -4   2 -10  195.08   12.80
   4  -3 -10  998.70   48.60
   4   3 -10  924.21   49.20
   4   3 -10  966.30   39.30
   3  -3 -10   80.89    7.80
   3  -3 -10   75.09    5.40
   3   3 -10   74.59    7.10
   2  -3 -10 1202.18   51.79
   2  -3 -10 1167.18   45.20
   2   3 -10 1214.08   55.29
   2   3 -10 1156.38   46.30
   2   3 -10 1215.38   41.70
   1  -3 -10  125.69    8.70
   1   3 -10  126.09    6.70
   1   3 -10  130.29    8.40
   0  -3 -10 2655.23  106.59
   0   3 -10 2554.14   96.69
   0   3 -10 2635.74   90.19
  -1  -3 -10 1080.79   49.60
   1  -3  10 1194.18   55.19
  -1  -3 -10 1163.18   42.90
  -1  -3 -10 1151.58   54.99
   1   3  10 1278.07   49.10
  -1   3 -10 1189.88   55.49
  -1   3 -10 1153.48   42.90
  -2  -3 -10 1027.60   53.39
  -2  -3 -10 1188.68   46.90
  -2  -3 -10 1059.89   41.00
   2  -3  10 1130.19   53.79
  -2   3 -10 1056.99   41.30
   2   3  10 1134.49   46.00
   3  -3  10  306.37   20.40
  -3  -3 -10  299.87   15.10
  -3   3 -10  301.27   15.50
   3   3  10  270.67   20.20
  -4  -3 -10  121.09   10.10
  -4   3 -10  116.39   10.60
   4  -4 -10   48.00    8.30
   4  -4 -10   33.70    7.10
   4   4 -10   50.59    7.30
   4   4 -10   42.70   10.80
   3  -4 -10  200.18   10.00
   3  -4 -10  213.68   13.50
   3  -4 -10  213.38   14.20
   3   4 -10  214.88   12.20
   2  -4 -10   25.10    4.90
   2  -4 -10   23.20    3.50
   2   4 -10   38.90    5.40
   2   4 -10   27.90    3.00
   2   4 -10   22.10    4.30
   1  -4 -10  184.08   11.20
   1   4 -10  184.38   10.70
   1   4 -10  180.28    8.70
   0  -4 -10   61.09    5.90
   0  -4 -10   67.69    6.20
   0   4 -10   60.39    5.10
   0   4 -10   64.19    6.40
   0   4 -10   63.39    5.80
  -1  -4 -10  217.38   11.30
  -1  -4 -10  218.18   13.90
  -1  -4 -10  246.28   13.30
   1  -4  10  239.98   14.40
  -1   4 -10  220.78   14.20
  -1   4 -10  206.78   11.40
   1   4  10  266.27   12.40
  -2  -4 -10  159.98   10.10
  -2  -4 -10  142.09    9.00
  -2  -4 -10  134.89   11.70
   2  -4  10  157.68   12.90
  -2   4 -10  150.38    9.80
  -2   4 -10  149.79   13.10
   2   4  10  153.58    9.10
   2   4  10  118.89   13.00
  -3  -4 -10    8.30    3.60
   3  -4  10    2.30    6.60
   3   4  10    0.10    8.20
  -3   4 -10    3.30    3.90
  -4  -4 -10   16.70    5.00
  -4   4 -10   16.70    5.40
   4  -5 -10 1201.48   58.29
   4  -5 -10 1109.79   54.09
   4   5 -10 1230.78   48.00
   3  -5 -10  110.69   10.10
   3  -5 -10   97.09    9.10
   3   5 -10   93.29   11.70
   3   5 -10  101.29    8.70
   2  -5 -10 1205.28   52.49
   2   5 -10 1201.58   42.00
   2   5 -10 1242.78   56.59
   2   5 -10 1145.39   46.90
  -1  -5  10 1207.38   39.30
   1  -5 -10 1095.19   47.60
   1   5 -10 1008.10   51.59
   1   5 -10 1091.49   39.20
   1   5 -10 1073.89   43.20
   0  -5 -10 1965.90   82.29
   0   5 -10 2103.09   80.89
   0   5 -10 1918.31   74.79
   0   5 -10 1915.31   90.59
   0   5  10 2079.29   81.99
   0   5 -10 1935.51   69.49
  -1  -5 -10  136.89    9.40
  -1  -5 -10  111.89    9.50
  -1   5 -10  116.39    8.90
   1   5  10  124.79    8.20
  -1   5 -10  108.19    7.80
  -1   5 -10  117.09    9.60
  -2  -5 -10  801.42   41.40
  -2  -5 -10  764.52   36.50
   2  -5  10  823.52   41.70
  -2  -5 -10  801.92   31.60
  -2   5 -10  861.41   42.10
  -2   5 -10  861.31   32.50
   2   5  10  787.42   35.40
   3  -5  10  499.95   28.10
  -3  -5 -10  451.85   20.30
   3   5  10  394.66   27.30
  -3   5 -10  436.96   20.80
  -4  -5 -10  205.68   13.20
  -4   5 -10  212.68   13.90
   4  -6 -10    5.20    6.00
   4  -6 -10   13.30    6.50
   4   6 -10    7.10   12.20
   4   6 -10    8.30    5.00
   3  -6 -10  142.39   11.50
   3  -6 -10  135.29   11.00
   3   6 -10  141.79   12.40
   3   6 -10  144.09   10.40
   2  -6 -10  496.65   26.00
   2   6 -10  548.35   23.90
   2   6 -10  545.35   20.00
   2   6 -10  542.85   27.90
   1  -6 -10  103.59    8.70
  -1  -6  10  116.59    6.40
   1   6 -10  101.79    9.60
   1   6 -10  119.09    8.10
   1   6 -10  104.19    8.30
   1   6 -10  108.99    6.40
   0  -6 -10  399.96   20.40
   0   6 -10  419.56   17.40
   0   6 -10  401.76   19.20
   0   6 -10  418.86   18.70
   0   6 -10  409.86   21.60
  -1  -6 -10   63.29    7.60
  -1  -6 -10   51.79    7.10
  -1   6 -10   56.99    7.50
  -1   6 -10   55.99    6.60
  -1   6 -10   63.39    6.50
   2  -6  10  422.46   25.20
  -2  -6 -10  365.96   22.00
  -2  -6 -10  435.16   19.10
  -2   6 -10  468.95   21.20
  -2   6 -10  473.95   26.00
  -2   6 -10  448.06   19.80
   3  -6  10  288.07   21.30
  -3  -6 -10  301.17   15.50
  -3   6 -10  308.67   16.40
   4  -7 -10  309.47   20.30
   4  -7 -10  330.57   21.40
   4   7 -10  334.47   18.40
   3  -7 -10  179.58   13.60
   3   7 -10  210.88   12.70
   3   7 -10  185.78   14.70
   2  -7 -10  297.17   17.50
  -2  -7  10  289.97   12.40
   2   7 -10  324.47   12.70
   2   7 -10  290.77   15.70
   2   7 -10  321.77   18.70
   1  -7 -10  526.45   26.10
  -1  -7  10  599.84   21.10
   1   7 -10  546.35   21.10
   1   7 -10  469.05   28.40
  -1   7  10  551.24   25.90
   1   7 -10  515.85   23.80
   0  -7 -10  891.11   40.10
   0   7 -10  888.31   43.50
   0   7 -10  854.71   33.60
   0   7  10  914.21   42.50
   0   7 -10  936.31   38.20
   0   7 -10  882.31   36.60
  -1  -7 -10   78.79    8.30
  -1  -7 -10   93.19    8.80
  -1   7 -10   68.79    6.70
  -1   7 -10   80.29    8.50
   1   7  10   73.49    8.60
  -1   7 -10   76.79    7.90
  -2  -7 -10  156.38   13.00
  -2  -7 -10  217.38   11.30
   2  -7  10  182.18   15.30
  -2   7 -10  214.28   12.00
   2   7  10  139.69   15.70
  -2   7 -10  223.48   12.70
   3  -7  10  409.36   26.40
  -3  -7 -10  421.06   22.30
  -3  -7 -10  398.86   19.00
  -3   7 -10  394.96   20.50
  -3   7 -10  390.06   19.80
   4  -8 -10   32.30    7.90
   4  -8 -10   46.80    8.80
   4   8 -10   42.60    7.90
   4   8 -10   -0.70   11.90
   3  -8 -10  150.18   12.70
   3   8 -10  150.58   13.70
   3   8 -10  189.68   12.10
  -2  -8  10 1484.25   50.59
   2  -8 -10 1298.27   62.69
   2   8 -10 1450.35   56.89
   2   8 -10 1497.95   69.79
   2   8 -10 1518.85   50.89
   1  -8 -10  248.18   14.70
   1  -8 -10  231.28   10.90
   1   8 -10  230.08   11.00
   1   8 -10  222.48   13.10
   1   8 -10  242.08   16.70
  -1   8  10  221.08   13.10
   0  -8 -10  485.65   24.60
   0   8 -10  480.45   20.50
   0   8 -10  504.45   22.60
   0   8  10  498.35   25.20
   0   8 -10  511.75   26.50
   0   8 -10  485.05   22.60
  -1  -8 -10  572.34   27.90
  -1  -8 -10  583.04   30.40
  -1   8 -10  530.05   23.40
  -1   8 -10  578.54   25.30
  -1   8 -10  538.05   29.90
   1   8  10  576.44   29.50
  -2  -8 -10  459.15   26.60
  -2  -8 -10  538.15   22.30
  -2   8 -10  538.55   24.20
  -2   8 -10  537.55   23.20
   3  -8  10  143.99   15.20
  -3  -8 -10  116.99    9.30
  -3  -8 -10  148.49   12.60
  -3   8 -10  114.39   10.70
  -3   8 -10  123.69   10.60
   4  -9 -10   21.40    7.30
   4   9 -10    5.80   12.30
   4   9 -10   28.80    7.40
   3  -9 -10  320.27   19.10
   3   9 -10  285.37   20.50
   3   9 -10  319.07   17.30
   2  -9 -10   80.09   10.00
   2   9 -10   87.09   10.20
   2   9 -10   73.29    5.50
   2   9 -10   62.19    7.70
   1  -9 -10  595.84   29.50
   1  -9 -10  622.04   24.40
   1   9 -10  619.74   23.90
  -1   9  10  613.14   30.10
   1   9 -10  593.54   33.40
   1   9 -10  592.04   26.80
   0  -9 -10   18.60    4.80
   0   9 -10   30.10    6.10
   0   9 -10   27.60    5.20
   0   9  10   32.20    5.40
   0   9 -10   30.30    4.20
   0   9 -10   18.20    3.70
  -1  -9 -10  357.86   21.60
  -1   9 -10  414.36   18.60
  -1   9 -10  426.96   23.70
   1   9  10  399.76   22.70
  -1   9 -10  404.66   19.70
  -2  -9 -10  130.29   12.30
  -2   9 -10  136.59   10.20
  -2   9 -10  142.39   10.60
  -3  -9 -10  236.08   17.60
  -3  -9 -10  246.28   14.10
  -3   9 -10  251.77   15.30
  -3   9 -10  279.27   15.80
   4  10 -10  214.48   15.80
   3 -10 -10  554.54   30.40
   3  10 -10  665.93   28.50
   3  10 -10  576.04   34.30
   2 -10 -10  423.06   24.40
   2  10 -10  479.15   27.70
   2  10 -10  485.25   18.70
   2  10 -10  458.95   22.40
   1 -10 -10   72.09    5.30
   1 -10 -10   70.59    8.30
   1  10 -10   75.89    7.90
   1  10 -10   61.69    6.00
   1  10 -10   67.69   10.60
   0 -10 -10  668.33   31.80
   0  10 -10  673.73   34.50
   0  10 -10  625.64   26.20
   0  10 -10  630.64   28.50
   0  10  10  638.74   32.70
   0  10 -10  680.73   29.70
  -1 -10 -10  902.21   39.10
  -1  10 -10  755.12   34.10
  -1  10 -10  760.62   32.10
   1  10  10  819.42   41.00
  -2 -10 -10  334.37   20.50
  -2  10 -10  305.47   17.00
  -2  10 -10  300.97   16.40
  -3 -10 -10   54.49    7.30
  -3 -10 -10   37.70    8.50
  -3  10 -10   53.09    8.20
  -3  10 -10   61.19    8.00
   3 -11 -10  361.06   21.10
   3  11 -10  280.67   22.70
   3  11 -10  357.56   19.10
   2 -11 -10  154.48   12.80
   2  11 -10  164.18   11.80
   2  11 -10  162.08    9.00
   2  11 -10  180.98   15.60
   1 -11 -10  597.34   30.00
   1  11 -10  651.23   34.90
   1  11 -10  572.84   27.00
   1  11 -10  575.74   24.00
   0 -11 -10  502.55   25.80
   0  11 -10  469.65   23.00
   0  11 -10  504.45   21.40
  -1 -11 -10  511.05   27.40
  -1  11 -10  508.95   23.10
  -1  11 -10  548.25   24.70
  -2 -11 -10  127.69   13.30
  -2  11 -10  143.79   11.10
  -2  11 -10  151.48   11.20
  -3 -11 -10  138.89   10.30
  -3 -11 -10   91.19   12.80
  -3  11 -10  112.29   10.60
   3 -12 -10  311.87   20.30
   3  12 -10  272.77   23.90
   3  12 -10  367.86   19.20
   2 -12 -10   20.20    5.70
   2  12 -10   20.10    3.80
   2  12 -10   23.50    5.50
   2  12 -10   27.70    8.60
   1 -12 -10  107.79   10.50
   1  12 -10  110.79   13.30
   1  12 -10   99.39    9.50
   1  12 -10  105.79    8.10
   0 -12 -10   57.39    8.50
   0  12 -10   63.49   10.30
   0  12 -10   66.09    7.40
   0  12 -10   71.89    8.50
  -1 -12 -10  783.02   35.70
  -1  12 -10  686.13   29.30
  -1  12 -10  641.94   30.50
  -2 -12 -10  326.47   21.10
  -2  12 -10  311.07   17.40
  -2  12 -10  290.87   16.90
   2 -13 -10  385.06   22.40
   2  13 -10  355.86   25.70
   2  13 -10  390.36   20.50
   1 -13 -10  803.42   40.70
   1  13 -10  860.91   37.00
   1  13 -10  898.61   33.60
   1  13 -10  845.02   46.60
   0 -13 -10  369.66   21.40
   0  13 -10  346.57   18.70
   0  13 -10  358.26   24.00
   0  13 -10  340.37   17.20
  -1 -13 -10  128.79   12.80
  -1  13 -10  136.89   10.80
  -1  13 -10  143.59   11.20
  -2 -13 -10  201.78   17.10
  -2  13 -10  192.68   13.80
  -2  13 -10  237.28   14.30
   2 -14 -10    6.40    4.70
   2  14 -10    8.30    7.70
   2  14 -10    2.90    4.30
   1 -14 -10  142.59   12.90
   1  14 -10  183.38   17.00
   1  14 -10  157.78   10.40
   1  14 -10  145.49   12.10
   0 -14 -10    4.20    4.60
   0  14 -10    0.60    3.90
   0  14 -10   -2.60    3.20
   0  14 -10    6.20    6.50
  -1 -14 -10  274.67   18.60
  -1  14 -10  256.17   15.30
  -1  14 -10  261.67   15.80
  -2 -14 -10   27.70    8.20
  -2  14 -10   27.50    6.20
   1 -15 -10  545.35   30.00
   1  15 -10  522.25   26.60
   1  15 -10  590.34   24.50
   1  15 -10  561.94   34.60
   0 -15 -10  424.06   24.80
   0  15 -10  401.96   20.00
   0  15 -10  399.96   21.50
   0  15 -10  450.25   28.40
  -1 -15 -10   29.50    7.80
  -1  15 -10   31.80    6.50
  -1  15 -10   23.80    5.90
   1  16 -10   92.59    8.80
   1  16 -10  101.19   11.00
   0  16 -10  158.08   12.70
   0  16 -10  163.68   11.80
  -1  16 -10  263.57   16.30
   4   0 -11    0.00    6.00
   3   0 -11   77.49    7.80
   3   0 -11   81.69    6.90
   3   0 -11   87.19    4.80
   2   0 -11    2.40    2.80
   2   0 -11   -2.30    1.60
   1   0 -11  104.39    7.30
   1   0 -11  101.39    6.10
   0   0 -11    0.10    1.80
   0   0 -11   -0.40    2.10
  -1   0 -11  927.11   35.00
  -1   0 -11 1021.90   44.70
   1   0  11  845.42   43.70
  -2   0 -11   -0.40    4.30
  -2   0 -11    0.00    2.70
   2   0  11   -2.90    4.30
  -3   0 -11  373.46   18.30
  -4   0 -11   -0.30    4.00
   4  -1 -11  209.08   15.70
   4   1 -11  205.48   16.30
   4   1 -11  225.68   12.50
   3  -1 -11   23.30    4.50
   3  -1 -11   22.80    2.70
   3  -1 -11   22.20    3.90
   3   1 -11   18.40    5.20
   3   1 -11   23.20    2.50
   3   1 -11   28.40    4.60
   2  -1 -11 2052.89   74.99
   2  -1 -11 1948.31   69.19
   2   1 -11 1941.11   68.99
   2   1 -11 2085.99   75.39
   1  -1 -11  343.47   17.20
   1  -1 -11  329.37   14.20
   1  -1 -11  347.87   15.70
   1   1 -11  337.17   14.20
   1   1 -11  345.77   16.00
   0  -1 -11   56.29    5.40
   0  -1 -11   62.99    5.30
   0   1 -11   51.79    5.20
   0   1 -11   66.59    5.20
   1  -1  11  129.09    9.10
  -1  -1 -11  137.29    9.70
  -1  -1 -11  108.39    7.70
  -1  -1 -11  134.79    8.30
   1   1  11  123.09    8.70
  -1   1 -11  132.09    8.20
  -2  -1 -11  668.73   26.90
   2  -1  11  668.23   34.10
  -2   1 -11  653.33   35.30
   2   1  11  646.24   33.80
  -2   1 -11  673.03   27.10
  -3  -1 -11  735.83   30.20
  -3   1 -11  723.83   30.30
  -4  -1 -11    6.50    4.40
  -4   1 -11    4.40    4.10
   4  -2 -11  819.42   41.50
   4   2 -11  846.72   34.00
   4   2 -11  766.12   42.00
   3  -2 -11  203.38   12.70
   3  -2 -11  216.38   10.90
   3   2 -11  207.18   13.90
   3   2 -11  205.18   11.80
   2  -2 -11  564.14   26.60
   2  -2 -11  537.15   23.00
   2   2 -11  549.35   20.60
   2   2 -11  541.05   23.70
   1  -2 -11  282.67   13.80
   1  -2 -11  289.67   12.80
   1  -2 -11  294.17   15.40
   1   2 -11  301.97   14.50
   1   2 -11  291.27   12.50
   0  -2 -11 2351.06   81.19
   0  -2 -11 2285.67   95.19
   0   2 -11 2360.86   81.09
   0   2 -11 2320.67   86.99
   0   2 -11 2339.27   94.39
   1  -2  11  862.81   37.90
  -1  -2 -11  760.32   29.90
  -1  -2 -11  771.52   37.70
  -1  -2 -11  726.73   33.80
  -1   2 -11  774.42   30.00
   1   2  11  763.92   37.10
  -2  -2 -11  153.28    9.50
   2  -2  11  132.79   12.10
  -2   2 -11  148.79    9.60
   2   2  11  142.29   11.90
  -3  -2 -11  402.16   19.00
  -3   2 -11  403.46   19.60
   4  -3 -11   90.29   10.80
   4  -3 -11   93.69   11.10
   4   3 -11   81.69   12.10
   4   3 -11  102.89    9.40
   3  -3 -11   44.60    7.10
   3  -3 -11   55.59    6.40
   3   3 -11   33.20    6.70
   3   3 -11   45.60    5.90
   2  -3 -11  221.78   11.50
   2  -3 -11  202.38   13.60
   2   3 -11  246.28   12.60
   2   3 -11  220.08    9.80
   1  -3 -11 1172.08   51.19
   1   3 -11 1184.68   46.70
   1   3 -11 1222.48   42.70
   0  -3 -11   15.00    3.50
   0  -3 -11   12.60    3.50
   0   3 -11   14.40    3.00
   0   3 -11    7.70    3.50
  -1  -3 -11  432.66   20.90
  -1  -3 -11  380.06   16.90
   1  -3  11  360.96   20.60
  -1  -3 -11  340.27   18.70
  -1   3 -11  390.86   17.10
  -1   3 -11  403.46   21.30
  -2  -3 -11  327.97   16.40
  -2  -3 -11  377.56   17.60
   2  -3  11  383.96   21.50
  -2   3 -11  326.07   16.70
  -3  -3 -11  218.78   12.70
  -3   3 -11  212.28   13.20
   4  -4 -11 1092.09   54.19
   4  -4 -11 1219.78   57.89
   4   4 -11 1218.78   47.90
   3  -4 -11  182.98   12.20
   3  -4 -11  189.88   13.70
   3   4 -11  197.88   11.90
   2  -4 -11 1312.47   52.89
   2  -4 -11 1460.05   60.89
   2   4 -11 1461.75   64.99
   2   4 -11 1441.56   49.10
   2   4 -11 1344.27   54.39
   1  -4 -11  178.58   11.30
   1   4 -11  186.48    9.00
   1   4 -11  171.38   10.80
   0  -4 -11 2206.68   86.69
   0   4 -11 2000.40   94.89
   0   4 -11 2074.39   78.79
   0   4 -11 2088.09   73.19
  -1  -4 -11  901.81   46.00
  -1  -4 -11  988.50   42.30
  -1  -4 -11  931.31   36.20
  -1   4 -11  934.21   39.00
   1   4  11 1064.69   41.30
  -1   4 -11  944.01   36.40
  -1   4 -11  946.41   46.50
  -2  -4 -11  487.65   20.30
  -2  -4 -11  493.75   22.40
   2  -4  11  455.05   25.80
   2   4  11  368.36   25.00
  -2   4 -11  482.25   20.70
  -3  -4 -11   42.00    6.00
  -3   4 -11   52.59    7.00
   4  -5 -11   73.89   10.40
   4  -5 -11   97.29   11.30
   4   5 -11  117.99   10.30
   3  -5 -11   94.69    9.70
   3  -5 -11   83.99    8.50
   3   5 -11  107.79    8.90
   2  -5 -11   69.89    5.90
   2  -5 -11   50.79    7.00
   2   5 -11   64.99    7.40
   2   5 -11   74.29    7.50
   2   5 -11   66.39    4.70
  -1  -5  11  104.99    6.80
   1  -5 -11  105.39    8.50
   1   5 -11  100.19    6.30
   1   5 -11  103.29    8.40
   1   5 -11   98.29    8.50
   0  -5 -11   93.39    7.70
   0   5 -11   82.99    7.20
   0   5 -11   89.49    6.10
   0   5 -11   84.69    6.40
   0   5 -11   88.69    7.90
  -1  -5 -11  197.88   12.70
  -1  -5 -11  194.88   10.90
  -1  -5 -11  205.18   13.40
   1   5  11  205.78   11.70
  -1   5 -11  206.18   11.30
  -1   5 -11  215.28   12.50
  -1   5 -11  203.88   13.60
   2  -5  11  170.08   13.70
  -2  -5 -11  157.68   10.10
  -2  -5 -11  166.88   11.50
   2   5  11  143.19   13.80
  -2   5 -11  181.68   11.00
  -3  -5 -11  184.48   11.70
  -3   5 -11  189.68   12.70
   4  -6 -11  651.23   34.20
   4  -6 -11  562.44   32.30
   4   6 -11  668.03   29.30
   3  -6 -11  472.45   26.80
   3   6 -11  555.34   24.60
   3   6 -11  502.55   28.50
   3   6 -11  563.94   30.20
   2  -6 -11  520.65   26.10
   2   6 -11  526.95   27.10
   2   6 -11  518.95   19.80
   2   6 -11  505.45   23.50
   1  -6 -11   70.39    7.30
   1   6 -11   54.09    6.90
   1   6 -11   56.49    7.50
   1   6 -11   61.09    6.30
   1   6 -11   57.69    4.90
   0  -6 -11 2127.29   88.09
   0   6 -11 2085.69   74.19
   0   6 -11 2118.49   96.79
   0   6 -11 2087.19   80.09
   0   6 -11 2144.99   85.99
  -1  -6 -11 1154.78   46.20
  -1  -6 -11  991.70   49.99
  -1   6 -11  988.60   38.90
  -1   6 -11  988.80   41.70
  -1   6 -11 1016.20   49.90
   2  -6  11  367.66   23.40
  -2  -6 -11  402.26   18.00
  -2  -6 -11  358.06   20.70
  -2   6 -11  403.16   19.80
  -2   6 -11  418.96   18.90
  -3  -6 -11  240.48   13.80
  -3   6 -11  240.28   14.50
   4  -7 -11  125.69   12.70
   4  -7 -11  125.39   12.60
   4   7 -11  124.29   11.50
   3  -7 -11   23.10    5.80
   3   7 -11   36.90    8.10
   3   7 -11   32.50    6.20
   2  -7 -11  717.23   37.10
   2   7 -11  804.22   40.10
   2   7 -11  840.22   29.50
   2   7 -11  838.92   34.20
   1  -7 -11   73.79    8.30
   1   7 -11   85.99    6.00
   1   7 -11   81.79    8.00
   1   7 -11   83.89    9.40
   0  -7 -11  607.44   27.90
   0   7 -11  560.14   23.10
   0   7 -11  545.75   25.40
   0   7 -11  566.04   29.20
   0   7  11  541.35   28.00
   0   7 -11  610.84   25.60
  -1  -7 -11   29.90    5.90
  -1   7 -11   11.90    4.70
  -1   7 -11   18.00    5.50
  -1   7 -11   13.60    3.70
  -2  -7 -11  140.89   11.90
  -2  -7 -11  131.29    9.50
  -2   7 -11  136.69   10.70
  -2   7 -11  142.59   10.20
  -3  -7 -11  264.77   14.60
  -3   7 -11  275.17   15.70
  -3   7 -11  242.68   15.80
   4   8 -11   12.00   12.60
   4   8 -11   39.30    7.40
   3  -8 -11  207.88   15.00
   3   8 -11  219.18   13.90
   3   8 -11  196.28   15.70
   2  -8 -11   60.29    8.10
   2   8 -11   56.59    5.00
   2   8 -11   69.29    8.30
   2   8 -11   71.99    9.10
   1  -8 -11  578.64   23.70
   1  -8 -11  584.94   28.70
   1   8 -11  610.54   23.20
   1   8 -11  589.24   26.20
   1   8 -11  544.05   31.30
   0  -8 -11   28.10    5.60
   0   8 -11   30.30    4.70
   0   8 -11   21.70    5.20
   0   8  11   37.20    5.90
   0   8 -11   31.60    5.80
   0   8 -11   30.40    4.10
  -1  -8 -11  392.56   22.20
  -1   8 -11  417.26   19.10
  -1   8 -11  450.85   20.90
  -2  -8 -11   93.89   10.90
  -2  -8 -11  111.39    8.80
  -2   8 -11  130.69   10.40
  -2   8 -11  109.69    9.40
  -3  -8 -11  377.66   19.30
  -3   8 -11  418.06   20.90
  -3   8 -11  423.66   21.40
   3  -9 -11   34.70    7.70
   3   9 -11   32.40    8.10
   3   9 -11   25.80    5.90
   2  -9 -11 1021.80   49.30
   2   9 -11 1109.49   44.90
   2   9 -11 1158.98   39.50
   2   9 -11 1060.59   54.09
   1  -9 -11  608.14   24.10
   1  -9 -11  563.94   29.00
   1   9 -11  592.24   26.70
   1   9 -11  555.84   32.30
   1   9 -11  608.74   23.60
   0  -9 -11  347.27   18.90
   0   9 -11  319.37   16.20
   0   9 -11  309.47   15.20
   0   9 -11  335.27   17.40
  -1  -9 -11  333.47   19.10
  -1   9 -11  296.87   16.80
  -1   9 -11  314.47   15.90
  -2  -9 -11  641.94   27.20
  -2  -9 -11  645.94   33.30
  -2   9 -11  654.63   29.50
  -2   9 -11  670.73   28.30
  -3  -9 -11  444.46   21.10
   3 -10 -11  393.86   22.50
   3  10 -11  391.56   20.50
   3  10 -11  343.27   24.10
   2 -10 -11  275.37   17.30
   2  10 -11  247.48   12.10
   2  10 -11  270.87   18.70
   2  10 -11  258.57   15.60
   1 -10 -11  568.04   28.80
   1  10 -11  540.15   26.00
   1  10 -11  626.64   32.90
   1  10 -11  548.25   23.10
   0 -10 -11  188.48   13.40
   0  10 -11  189.68   10.90
   0  10 -11  174.78   12.20
  -1 -10 -11  282.77   18.10
  -1  10 -11  294.07   16.40
  -1  10 -11  296.67   15.30
  -2 -10 -11  105.89   12.00
  -2  10 -11   95.09    9.70
  -2  10 -11   95.89    9.20
  -3 -10 -11  192.08   13.00
  -3  10 -11  231.98   14.80
   3 -11 -11  226.38   16.90
   3  11 -11  204.08   18.60
   3  11 -11  271.97   16.00
   2 -11 -11  137.19   12.20
   2  11 -11  133.29   13.90
   2  11 -11  149.59    8.70
   2  11 -11  167.68   12.10
   1 -11 -11  602.04   30.60
   1  11 -11  617.54   24.70
   1  11 -11  601.24   27.70
   1  11 -11  586.34   34.20
   0 -11 -11   57.39    9.00
   0  11 -11   55.59    6.70
   0  11 -11   51.59    7.30
  -1 -11 -11  296.57   18.90
  -1  11 -11  296.77   15.80
  -1  11 -11  299.57   17.00
  -2 -11 -11  296.67   20.10
  -2  11 -11  268.87   16.50
  -2  11 -11  306.27   16.70
   3  12 -11  287.57   17.90
   3  12 -11  196.98   20.30
   2 -12 -11  217.98   15.90
   2  12 -11  255.67   19.00
   2  12 -11  215.78   11.90
   2  12 -11  219.28   14.60
   1 -12 -11  459.85   25.90
   1  12 -11  561.14   30.50
   1  12 -11  460.65   23.50
   1  12 -11  446.36   20.50
   0 -12 -11  518.15   27.20
   0  12 -11  509.15   24.50
   0  12 -11  500.95   22.30
   0  12 -11  483.85   29.70
  -1 -12 -11  726.33   36.10
  -1  12 -11  708.23   32.00
  -1  12 -11  718.33   30.40
  -2 -12 -11  110.29   13.40
  -2  12 -11  137.19   11.40
  -2  12 -11  163.18   12.20
   2 -13 -11   21.40    6.60
   2  13 -11   22.30    6.20
   2  13 -11   35.30    9.40
   1 -13 -11  185.38   14.50
   1  13 -11  180.18   13.20
   1  13 -11  189.08   11.40
   1  13 -11  188.48   17.40
   0 -13 -11  308.97   19.60
   0  13 -11  326.87   22.20
   0  13 -11  290.37   17.30
   0  13 -11  289.57   15.80
  -1 -13 -11  163.38   13.90
  -1  13 -11  125.89   11.30
  -1  13 -11  135.29   11.00
  -2 -13 -11  202.28   17.20
  -2  13 -11  191.18   13.70
   2  14 -11  165.78   16.90
   1 -14 -11  290.87   19.50
   1  14 -11  281.87   17.60
   1  14 -11  306.07   15.50
   1  14 -11  319.57   23.00
   0 -14 -11  483.95   26.70
   0  14 -11  469.85   23.70
   0  14 -11  460.15   21.70
   0  14 -11  452.75   29.30
  -1 -14 -11  175.38   14.90
  -1  14 -11  164.18   12.60
  -1  14 -11  143.19   11.70
   1  15 -11   35.10   10.20
   1  15 -11   34.50    7.40
   1  15 -11   18.60    5.00
   0 -15 -11   38.70    8.40
   0  15 -11   44.90   10.60
   0  15 -11   35.50    7.60
   0  15 -11   35.20    6.40
  -1 -15 -11   11.30    6.30
  -1  15 -11    3.50    4.50
   1  16 -11  308.47   16.50
   0  16 -11  135.79   11.00
   4   0 -12 1082.09   53.09
   3   0 -12  209.98    9.40
   3   0 -12  250.77   12.50
   3   0 -12  203.08   12.80
   2   0 -12 1863.91   65.49
   2   0 -12 1913.11   71.39
   1   0 -12 1293.87   51.39
   1   0 -12 1370.46   47.80
   1   0 -12 1336.17   56.49
   0   0 -12  747.33   28.50
   0   0 -12  727.43   32.20
   1   0  12  350.66   17.50
  -1   0 -12  317.67   15.10
  -1   0 -12  292.67   17.80
  -2   0 -12  562.34   24.00
  -3   0 -12  882.11   35.70
   4  -1 -12   36.40    7.20
   4   1 -12   22.40    7.20
   3  -1 -12   14.70    3.80
   3  -1 -12   15.70    2.50
   3   1 -12   13.10    4.00
   3   1 -12   11.20    2.10
   3   1 -12    8.30    4.00
   2  -1 -12  119.59    8.70
   2  -1 -12  133.99    7.30
   2   1 -12  132.69    9.20
   2   1 -12  124.09    7.00
   1  -1 -12  146.79   10.10
   1  -1 -12  167.08    9.70
   1  -1 -12  163.68    8.50
   1   1 -12  154.98    9.90
   1   1 -12  157.58    8.40
   0  -1 -12   20.90    3.50
   0  -1 -12   24.90    4.10
   0   1 -12   23.80    3.80
   0   1 -12   24.70    3.80
  -1  -1 -12   88.79    7.20
  -1  -1 -12  113.49    8.90
   1  -1  12   97.79    8.40
  -1  -1 -12  105.29    7.70
  -1   1 -12  105.29    9.30
  -1   1 -12  111.49    7.80
  -2  -1 -12   17.10    4.10
   2  -1  12   12.60    5.90
  -2   1 -12   19.20    4.50
  -3  -1 -12  277.57   15.40
  -3   1 -12  272.77   15.50
   4  -2 -12  503.25   27.30
   4   2 -12  459.55   28.00
   4   2 -12  511.85   23.00
   3  -2 -12  106.69    7.80
   3  -2 -12  117.29    6.40
   3   2 -12  103.29    9.40
   3   2 -12  109.59    8.80
   2  -2 -12  389.06   15.80
   2  -2 -12  360.06   20.00
   2  -2 -12  388.86   17.70
   2   2 -12  400.06   18.40
   2   2 -12  369.06   15.30
   1  -2 -12  715.63   32.30
   1  -2 -12  701.73   29.10
   1  -2 -12  724.83   27.30
   1   2 -12  722.43   27.00
   1   2 -12  695.23   29.80
   0  -2 -12  182.48   10.70
   0  -2 -12  187.48    9.90
   0   2 -12  181.98   11.10
   0   2 -12  180.78    9.70
   0   2 -12  170.58    9.90
  -1  -2 -12  629.64   30.80
   1  -2  12  695.93   34.20
  -1  -2 -12  731.93   28.00
  -1  -2 -12  760.52   34.70
   1   2  12  657.03   33.50
  -1   2 -12  724.13   28.00
   2  -2  12  137.79   12.90
  -2  -2 -12  153.88   10.00
  -2   2 -12  173.98   10.50
  -3  -2 -12  519.55   23.80
  -3   2 -12  554.04   24.60
   4  -3 -12  432.36   26.50
   4  -3 -12  488.55   26.40
   4   3 -12  454.15   27.50
   4   3 -12  501.55   22.80
   3  -3 -12  223.68   15.60
   3  -3 -12  246.28   12.10
   3   3 -12  271.17   14.20
   3   3 -12  214.78   15.00
   2  -3 -12 1019.20   46.40
   2  -3 -12 1026.20   40.70
   2   3 -12 1081.69   42.00
   2   3 -12 1036.10   37.30
   1  -3 -12  534.45   23.10
   1  -3 -12  538.75   25.90
   1   3 -12  554.64   21.40
   1   3 -12  540.75   24.00
   0  -3 -12 1226.48   49.70
   0  -3 -12 1153.68   42.40
   0   3 -12 1138.89   47.90
   0   3 -12 1098.09   45.50
   0   3 -12 1132.69   42.20
  -1  -3 -12 1141.09   41.90
  -1  -3 -12 1152.88   48.30
  -1  -3 -12 1112.89   52.99
  -1   3 -12 1143.19   42.00
   1   3  12 1039.10   51.99
  -2  -3 -12  164.48   10.30
  -2   3 -12  148.69   10.30
  -3  -3 -12   20.30    5.20
  -3   3 -12   14.00    4.80
   4  -4 -12   49.90    8.10
   4  -4 -12   44.30    8.80
   4   4 -12   17.60    9.10
   4   4 -12   64.89    7.90
   3  -4 -12  261.57   16.60
   3   4 -12  230.08   14.10
   2  -4 -12  102.69    7.70
   2  -4 -12   89.09    8.90
   2   4 -12   93.19    5.80
   2   4 -12   99.79    8.60
   1  -4 -12  736.83   33.00
   1   4 -12  705.83   27.10
   1   4 -12  693.33   30.20
   0  -4 -12  494.35   20.40
   0  -4 -12  483.15   23.40
   0   4 -12  477.85   20.20
   0   4 -12  486.95   22.30
  -1  -4 -12  575.54   29.70
  -1  -4 -12  694.63   33.00
  -1  -4 -12  618.04   26.10
  -1   4 -12  653.33   26.50
  -1   4 -12  683.43   33.30
  -1   4 -12  661.93   28.60
  -2  -4 -12  110.59    8.50
  -2  -4 -12  114.49    9.20
  -2   4 -12  113.39    9.10
  -3  -4 -12  490.45   22.50
  -3   4 -12  489.55   23.10
   4  -5 -12  302.87   21.30
   4  -5 -12  354.66   21.10
   4   5 -12  358.36   18.90
   3  -5 -12  336.67   20.70
   3   5 -12  389.66   19.10
   2  -5 -12  811.62   39.20
   2  -5 -12  858.01   33.90
   2   5 -12  870.71   31.20
   2   5 -12  867.91   35.80
   1  -5 -12  266.07   15.30
   1   5 -12  268.57   12.20
   1   5 -12  254.87   14.50
   0  -5 -12  618.54   28.40
   0   5 -12  606.54   24.30
   0   5 -12  562.94   29.60
   0   5 -12  636.14   26.70
   0   5 -12  588.94   26.60
  -1  -5 -12  663.33   28.00
  -1  -5 -12  754.52   33.10
  -1   5 -12  688.53   30.40
  -1   5 -12  703.03   28.40
  -2  -5 -12  220.08   12.70
  -2  -5 -12  241.08   14.60
  -2   5 -12  242.18   13.60
  -3  -5 -12   45.70    6.60
  -3   5 -12   58.69    7.80
   4  -6 -12  216.58   15.80
   4  -6 -12  196.78   16.70
   4   6 -12  224.28   14.70
   3  -6 -12  297.57   18.80
   3   6 -12  311.87   17.00
   2  -6 -12  533.75   28.00
   2  -6 -12  525.75   23.30
   2   6 -12  567.74   28.90
   2   6 -12  603.44   21.90
   2   6 -12  584.64   25.80
   1  -6 -12  720.53   33.80
   1   6 -12  781.82   36.20
   1   6 -12  691.43   34.90
   1   6 -12  694.63   27.50
   1   6 -12  709.23   31.00
   0  -6 -12   65.19    7.10
   0   6 -12   65.19    5.30
   0   6 -12   56.09    6.60
   0   6 -12   57.99    5.90
   0   6 -12   65.69    7.50
  -1  -6 -12  484.05   24.80
  -1  -6 -12  486.35   21.20
  -1   6 -12  500.55   23.40
  -1   6 -12  498.85   21.60
  -2  -6 -12   70.09    9.00
  -2  -6 -12   72.59    7.80
  -2   6 -12   81.49    9.00
  -2   6 -12   73.39    8.10
  -3  -6 -12  261.57   14.90
  -3   6 -12  254.47   15.60
   4   7 -12  114.59   11.00
   4   7 -12   29.10   12.10
   3  -7 -12  408.56   24.30
   3   7 -12  421.76   25.60
   3   7 -12  517.85   22.90
   2  -7 -12  250.07   16.70
   2   7 -12  305.17   16.20
   2   7 -12  285.77   12.40
   2   7 -12  281.87   17.30
   1  -7 -12   24.70    6.00
   1   7 -12   17.00    4.80
   1   7 -12   23.60    6.20
   1   7 -12   18.40    3.60
   0  -7 -12  247.88   14.80
   0   7 -12  242.88   12.40
   0   7 -12  238.58   12.20
   0   7 -12  222.98   13.90
  -1  -7 -12  441.36   22.50
  -1   7 -12  382.86   18.90
  -1   7 -12  432.86   21.10
  -2  -7 -12  384.56   22.30
  -2  -7 -12  417.36   19.10
  -2   7 -12  410.06   19.80
  -2   7 -12  396.06   20.60
  -3  -7 -12  142.39   10.80
  -3   7 -12  145.89   12.30
  -3   7 -12  101.19   11.00
   3  -8 -12  221.88   16.00
   3   8 -12  244.18   15.00
   3   8 -12  207.08   16.30
   2  -8 -12  530.55   28.80
   2   8 -12  599.24   26.80
   2   8 -12  589.84   22.40
   2   8 -12  570.54   30.70
   1  -8 -12  592.34   29.00
   1   8 -12  569.34   26.40
   1   8 -12  602.54   23.40
   1   8 -12  549.25   31.10
   0  -8 -12  145.29   11.30
   0   8 -12  146.99    9.20
   0   8 -12  152.38   11.10
  -1  -8 -12  241.08   15.60
  -1   8 -12  231.08   14.30
  -1   8 -12  221.48   12.90
  -2  -8 -12  158.88   13.90
  -2  -8 -12  170.68   11.40
  -2   8 -12  189.38   13.00
  -2   8 -12  186.38   12.20
  -3  -8 -12  431.16   21.20
  -3   8 -12  455.05   23.20
   3  -9 -12  231.08   16.70
   3   9 -12  220.88   17.50
   3   9 -12  284.47   16.30
   2  -9 -12  115.69   11.20
   2   9 -12  131.19    7.80
   2   9 -12  136.89   12.50
   2   9 -12  121.29   10.60
   1  -9 -12  305.47   18.30
   1   9 -12  303.07   17.00
   1   9 -12  323.27   14.50
   1   9 -12  288.77   19.90
   0  -9 -12   31.00    6.10
   0   9 -12   41.90    6.60
   0   9 -12   27.70    4.70
  -1  -9 -12  325.07   19.40
  -1   9 -12  323.27   17.70
  -1   9 -12  312.07   16.30
  -2  -9 -12  168.28   11.20
  -2  -9 -12  169.08   14.60
  -2   9 -12  175.58   12.20
  -2   9 -12  185.08   12.90
  -3  -9 -12   67.49    8.10
  -3   9 -12   78.09    9.60
   3 -10 -12    7.50    5.20
   3  10 -12    9.80    5.00
   3  10 -12    1.80    5.70
   2 -10 -12  234.28   16.30
   2  10 -12  235.28   17.00
   2  10 -12  212.78   11.20
   2  10 -12  233.28   14.80
   1 -10 -12  397.36   23.10
   1  10 -12  469.15   19.20
   1  10 -12  415.06   25.90
   1  10 -12  423.96   21.60
   0 -10 -12  706.13   33.90
   0  10 -12  659.73   28.00
   0  10 -12  702.23   31.00
  -1 -10 -12  156.68   13.20
  -1  10 -12  167.28   12.30
  -1  10 -12  161.08   11.00
  -2 -10 -12  337.67   23.80
  -2 -10 -12  428.76   20.00
  -2  10 -12  445.26   21.20
  -2  10 -12  473.05   22.50
   3  11 -12  167.78   13.60
   3  11 -12  165.48   16.10
   2 -11 -12  156.88   13.10
   2  11 -12  142.19   14.10
   2  11 -12  141.79    9.30
   2  11 -12  149.19   12.20
   1 -11 -12  256.27   17.30
   1  11 -12  282.97   19.80
   1  11 -12  267.57   13.70
   1  11 -12  259.67   16.00
   0 -11 -12  246.78   16.40
   0  11 -12  245.98   18.10
   0  11 -12  223.68   14.80
   0  11 -12  235.38   13.40
  -1 -11 -12  416.36   23.10
  -1  11 -12  372.16   20.30
  -1  11 -12  359.96   18.70
  -2 -11 -12   25.40    7.60
  -2  11 -12   35.90    6.90
  -2  11 -12   44.90    7.70
   2 -12 -12  197.18   15.40
   2  12 -12  216.48   17.60
   2  12 -12  200.48   14.40
   1 -12 -12  733.23   37.40
   1  12 -12  783.22   30.60
   1  12 -12  808.62   42.20
   1  12 -12  707.53   33.70
   0 -12 -12  907.51   42.70
   0  12 -12  884.61   46.90
   0  12 -12  895.11   38.60
   0  12 -12  853.41   35.20
  -1 -12 -12  188.58   15.10
  -1  12 -12  202.08   13.90
  -1  12 -12  168.88   12.30
  -2 -12 -12  239.48   18.50
  -2  12 -12  233.88   15.60
   2 -13 -12  218.78   16.80
   2  13 -12  229.18   19.00
   2  13 -12  238.08   15.80
   1 -13 -12  111.19   11.40
   1  13 -12   90.19    8.40
   1  13 -12   89.49   10.10
   1  13 -12  105.29   13.70
   0 -13 -12   53.89    9.50
   0  13 -12   47.30    9.90
   0  13 -12   47.70    7.80
   0  13 -12   47.70    7.00
  -1 -13 -12  262.97   18.60
  -1  13 -12  239.98   15.10
  -1  13 -12  263.87   16.40
   1 -14 -12   94.39   11.40
   1  14 -12  109.59   14.10
   1  14 -12  102.69   11.00
   1  14 -12  104.19    8.90
   0 -14 -12   62.69    9.70
   0  14 -12   51.79   10.70
   0  14 -12   48.90    7.10
   0  14 -12   59.59    8.50
  -1 -14 -12   78.69   11.90
  -1  14 -12   89.09   10.50
   1  15 -12    1.90    3.60
   0  15 -12  225.38   14.30
   4   0 -13   -2.10    4.60
   3   0 -13  265.97   11.60
   3   0 -13  218.58   13.20
   2   0 -13    2.20    1.90
   2   0 -13   -1.30    2.80
   1   0 -13  228.58   11.40
   1   0 -13  244.48   13.70
   1   0 -13  242.38   13.00
   0   0 -13   -1.80    2.40
   0   0 -13   -1.90    2.00
  -1   0 -13    8.40    3.40
  -2   0 -13   -2.70    2.60
  -3   0 -13    2.70    4.50
   4  -1 -13  884.61   43.30
   4   1 -13  854.41   43.60
   3  -1 -13  737.43   29.50
   3  -1 -13  618.74   25.60
   3   1 -13  740.23   30.10
   2  -1 -13  506.15   24.50
   2  -1 -13  500.15   19.40
   2  -1 -13  453.25   21.50
   2   1 -13  461.75   21.90
   2   1 -13  470.95   19.00
   1  -1 -13  141.69    8.20
   1  -1 -13  135.69    9.70
   1  -1 -13  147.59    9.40
   1   1 -13  137.89    8.00
   1   1 -13  131.59    9.30
   1   1 -13  133.09    9.50
   0  -1 -13  544.85   24.70
   0  -1 -13  546.65   22.20
   0   1 -13  500.55   24.00
   0   1 -13  546.75   24.10
   0   1 -13  526.15   21.90
  -1  -1 -13 1537.25   55.79
  -1   1 -13 1510.75   55.69
  -2  -1 -13  182.08   11.50
  -2   1 -13  190.08   11.80
  -3  -1 -13  391.06   20.00
  -3   1 -13  417.06   20.50
   4  -2 -13   35.30    6.60
   4  -2 -13   17.40    6.50
   4   2 -13   16.90    7.10
   4   2 -13   29.80    6.00
   3  -2 -13   60.79    9.10
   3  -2 -13   52.89    6.20
   3  -2 -13   51.59    4.70
   3   2 -13   57.89    7.40
   2  -2 -13  211.98   10.40
   2  -2 -13  185.38   13.50
   2  -2 -13  220.78   12.20
   2   2 -13  235.28   12.90
   2   2 -13  212.58   10.10
   1  -2 -13  896.41   40.90
   1  -2 -13  930.81   34.70
   1  -2 -13  915.51   37.00
   1   2 -13  926.41   34.40
   1   2 -13  946.61   37.90
   0  -2 -13  432.36   20.80
   0  -2 -13  442.76   18.70
   0   2 -13  431.46   18.40
   0   2 -13  422.06   20.20
   0   2 -13  395.26   19.60
  -1  -2 -13  297.27   16.10
  -1  -2 -13  305.37   15.20
  -1   2 -13  328.47   15.50
  -2  -2 -13   60.89    7.10
  -2   2 -13   60.19    7.20
  -3  -2 -13  139.99   11.00
  -3   2 -13  148.39   11.60
   4  -3 -13  268.47   19.70
   4  -3 -13  291.17   18.00
   4   3 -13  268.87   19.30
   4   3 -13  330.77   17.00
   3  -3 -13  269.27   12.30
   3  -3 -13  276.87   13.90
   3  -3 -13  264.97   17.60
   3   3 -13  290.27   15.70
   2  -3 -13  246.08   14.70
   2  -3 -13  219.68   12.40
   2   3 -13  225.38   10.40
   2   3 -13  199.98   12.90
   1  -3 -13  878.51   33.20
   1  -3 -13  890.31   35.50
   1  -3 -13  900.01   39.60
   1   3 -13  860.61   36.40
   1   3 -13  866.31   32.90
   0  -3 -13  724.83   31.70
   0  -3 -13  697.13   27.50
   0   3 -13  668.33   30.00
   0   3 -13  671.43   29.70
   0   3 -13  694.53   27.40
  -1  -3 -13  631.44   30.20
  -1  -3 -13  662.33   26.90
  -1   3 -13  686.23   27.20
  -2  -3 -13   32.40    5.40
  -2   3 -13   50.99    6.80
  -3  -3 -13  378.26   19.50
  -3   3 -13  400.76   20.20
   4  -4 -13    8.70    5.40
   4   4 -13    1.00    7.60
   4   4 -13   12.80    5.20
   3  -4 -13    5.50    5.20
   3   4 -13   -1.20    4.80
   3   4 -13    8.10    4.00
   2  -4 -13  690.73   28.50
   2  -4 -13  637.44   32.50
   2   4 -13  718.53   30.00
   2   4 -13  680.93   25.80
   1  -4 -13  891.91   40.60
   1   4 -13  925.71   33.90
   1   4 -13  880.51   37.30
   0  -4 -13   12.30    3.90
   0  -4 -13   19.70    4.10
   0   4 -13   17.10    4.80
   0   4 -13   16.70    3.40
   0   4 -13   20.70    3.90
  -1  -4 -13  444.76   21.90
  -1  -4 -13  421.96   19.30
  -1   4 -13  412.86   19.30
  -1   4 -13  433.16   21.30
  -2  -4 -13  212.78   12.70
  -2   4 -13  219.28   13.10
  -3  -4 -13  441.26   21.40
  -3   4 -13  437.46   21.90
   4  -5 -13   83.79   10.00
   4   5 -13  109.19   10.60
   3  -5 -13  306.27   19.10
   3   5 -13  308.67   17.30
   2  -5 -13  227.28   12.20
   2  -5 -13  192.28   14.10
   2   5 -13  204.38   10.20
   2   5 -13  250.37   14.10
   1  -5 -13  498.25   24.40
   1   5 -13  466.95   22.70
   1   5 -13  470.45   19.70
   0  -5 -13    3.20    3.10
   0   5 -13    3.90    3.40
   0   5 -13    2.90    2.50
   0   5 -13    3.80    2.00
  -1  -5 -13  997.40   45.60
  -1  -5 -13 1028.60   39.50
  -1   5 -13 1027.50   39.70
  -1   5 -13 1056.29   42.70
  -2  -5 -13  113.59    9.40
  -2   5 -13  124.79   11.30
  -2   5 -13  135.09   10.20
  -3  -5 -13  535.55   24.70
   4   6 -13    9.70    9.30
   4   6 -13   21.00    6.40
   3  -6 -13  320.27   20.70
   3   6 -13  387.36   19.60
   2  -6 -13  534.65   24.30
   2  -6 -13  560.14   29.10
   2   6 -13  635.74   27.10
   2   6 -13  620.54   22.70
   2   6 -13  551.94   29.30
   1  -6 -13  636.04   30.50
   1   6 -13  605.04   28.00
   1   6 -13  635.54   24.90
   0  -6 -13   30.00    5.80
   0   6 -13   25.50    5.30
   0   6 -13   31.50    4.80
  -1  -6 -13  423.06   19.50
  -1  -6 -13  472.45   23.10
  -1   6 -13  406.96   19.60
  -1   6 -13  411.86   21.30
  -2  -6 -13  321.07   18.40
  -2  -6 -13  276.87   15.30
  -2   6 -13  311.47   16.40
  -2   6 -13  263.47   16.70
  -3  -6 -13  101.09    9.70
  -3   6 -13  119.19   12.10
   3  -7 -13  408.56   23.90
   3   7 -13  427.96   21.80
   3   7 -13  393.46   24.10
   3   7 -13  438.66   25.90
   2  -7 -13   92.09    7.60
   2  -7 -13   91.39    9.60
   2   7 -13   89.09    6.30
   2   7 -13   91.99    9.50
   2   7 -13   87.69    9.10
   1  -7 -13  286.67   17.60
   1   7 -13  294.17   16.60
   1   7 -13  312.97   18.30
   1   7 -13  287.47   13.90
   0  -7 -13   79.39    8.50
   0   7 -13   79.59    7.00
   0   7 -13   78.29    8.50
  -1  -7 -13  822.42   37.60
  -1  -7 -13  760.02   31.70
  -1   7 -13  793.32   32.20
  -1   7 -13  798.32   34.80
  -2  -7 -13  156.68   10.80
  -2  -7 -13  138.69   12.70
  -2   7 -13  162.38   12.40
  -2   7 -13  164.08   11.60
  -3   7 -13  232.48   16.20
   3  -8 -13  107.39   11.30
   3   8 -13   99.89   12.10
   3   8 -13   93.59   10.50
   2  -8 -13  129.39   11.60
   2   8 -13  124.89   11.40
   2   8 -13  137.29   11.30
   2   8 -13  137.09    8.00
   1  -8 -13  206.98   14.00
   1   8 -13  187.88   10.60
   1   8 -13  185.28   13.00
   1   8 -13  193.48   14.40
   0  -8 -13  242.08   15.60
   0   8 -13  250.07   15.00
   0   8 -13  248.48   13.20
  -1  -8 -13   46.70    7.80
  -1   8 -13   27.70    5.20
  -1   8 -13   31.40    6.70
  -2  -8 -13  274.97   18.70
  -2  -8 -13  272.27   15.20
  -2   8 -13  300.17   16.30
  -2   8 -13  286.97   17.20
   3  -9 -13  288.57   19.80
   3   9 -13  301.27   20.60
   3   9 -13  351.66   19.10
   2  -9 -13  481.65   26.00
   2   9 -13  444.86   19.40
   2   9 -13  500.55   27.20
   2   9 -13  466.35   23.60
   1  -9 -13  404.06   22.60
   1   9 -13  413.16   18.10
   1   9 -13  398.96   20.90
   1   9 -13  399.56   24.30
   0  -9 -13  818.42   39.00
   0   9 -13  847.22   36.20
   0   9 -13  804.22   32.70
  -1  -9 -13  465.85   25.00
  -1   9 -13  430.56   21.00
  -1   9 -13  458.45   23.00
  -2  -9 -13  127.09   10.10
  -2  -9 -13  106.49   12.50
  -2   9 -13  114.89   10.50
  -2   9 -13  145.49   11.90
   3  10 -13  111.59   11.30
   3  10 -13   75.59   11.40
   2 -10 -13   76.69   10.00
   2  10 -13   72.19    9.30
   2  10 -13   97.59   12.10
   1 -10 -13  240.18   16.30
   1  10 -13  236.98   15.30
   1  10 -13  230.68   17.70
   1  10 -13  251.27   13.00
   0 -10 -13  105.49   10.70
   0  10 -13   90.09    8.20
   0  10 -13  110.99   10.50
  -1 -10 -13   25.60    6.70
  -1  10 -13   13.80    4.50
  -1  10 -13   18.70    6.10
  -2 -10 -13   17.30    4.80
  -2 -10 -13    7.70    6.10
  -2  10 -13   16.70    5.70
   3  11 -13  134.19   14.30
   2 -11 -13  244.68   17.40
   2  11 -13  237.28   16.10
   2  11 -13  264.87   18.70
   1 -11 -13  307.37   19.90
   1  11 -13  314.07   15.80
   1  11 -13  346.67   22.40
   1  11 -13  333.17   18.90
   0 -11 -13 1074.89   48.10
   0  11 -13  954.80   51.79
   0  11 -13 1042.70   40.00
   0  11 -13 1007.40   43.40
  -1 -11 -13  158.38   14.00
  -1  11 -13  167.18   13.10
  -1  11 -13  151.38   11.40
  -2 -11 -13  381.56   25.50
  -2  11 -13  497.35   23.90
   2 -12 -13  184.98   15.10
   2  12 -13  181.38   16.30
   2  12 -13  204.18   14.80
   1 -12 -13  230.08   16.70
   1  12 -13  233.98   18.50
   1  12 -13  242.18   13.30
   1  12 -13  215.18   15.40
   0 -12 -13    8.00    5.10
   0  12 -13    8.50    6.50
   0  12 -13    2.10    4.30
   0  12 -13    4.90    4.10
  -1 -12 -13  207.38   16.10
  -1  12 -13  191.18   13.20
  -1  12 -13  191.38   14.30
   2  13 -13  168.88   16.40
   1 -13 -13  209.78   16.30
   1  13 -13  211.08   12.80
   1  13 -13  248.18   19.10
   1  13 -13  209.88   15.30
   0 -13 -13  382.26   23.20
   0  13 -13  371.46   20.90
   0  13 -13  373.96   18.90
   0  13 -13  362.96   24.80
  -1 -13 -13  235.08   17.70
  -1  13 -13  218.08   15.50
   1  14 -13   95.99    9.10
   0 -14 -13  140.89   15.20
   0  14 -13  122.39   10.70
   4   0 -14  552.14   29.00
   3   0 -14  676.23   29.50
   2   0 -14  394.96   16.50
   2   0 -14  375.66   18.80
   1   0 -14   10.10    3.60
   1   0 -14    7.90    2.90
   1   0 -14    2.00    3.40
   0   0 -14   68.59    6.60
   0   0 -14   67.39    6.30
  -1   0 -14  927.61   36.40
  -2   0 -14   76.29    8.20
   4  -1 -14   20.20    5.60
   4   1 -14   17.30    5.90
   3  -1 -14  590.74   25.90
   3   1 -14  563.94   26.20
   2  -1 -14   24.70    4.90
   2  -1 -14   23.40    3.60
   2  -1 -14   25.20    5.80
   2   1 -14   18.50    3.40
   2   1 -14   25.30    5.20
   1  -1 -14 1259.67   53.89
   1  -1 -14 1210.28   45.40
   1  -1 -14 1239.08   49.10
   1   1 -14 1248.98   45.50
   1   1 -14 1234.58   49.40
   1   1 -14 1270.77   53.59
   0  -1 -14   97.59    8.00
   0  -1 -14  112.99    7.90
   0   1 -14  114.39    7.80
   0   1 -14  100.19    8.90
   0   1 -14   99.39    7.60
  -1  -1 -14  356.66   17.30
  -1   1 -14  368.26   17.60
  -2  -1 -14    2.30    3.30
  -2   1 -14    6.00    3.80
   4   2 -14  143.29   12.50
   3  -2 -14  532.05   30.00
   3  -2 -14  650.03   26.30
   3  -2 -14  532.85   23.20
   3   2 -14  644.14   27.20
   2  -2 -14  224.78   14.80
   2  -2 -14  222.68   11.30
   2  -2 -14  235.28   13.30
   2   2 -14  244.98   13.90
   2   2 -14  230.38   11.00
   1  -2 -14  281.37   14.90
   1  -2 -14  288.27   16.30
   1  -2 -14  292.87   13.80
   1   2 -14  292.87   15.70
   1   2 -14  286.67   13.60
   0  -2 -14  155.58   10.40
   0  -2 -14  150.28    9.40
   0   2 -14  150.28   10.80
   0   2 -14  145.39    9.20
   0   2 -14  149.39    9.40
  -1  -2 -14  962.70   43.20
  -1  -2 -14 1001.00   38.60
  -1   2 -14 1009.80   38.70
  -2  -2 -14  375.66   18.40
  -2   2 -14  364.66   18.50
   4   3 -14   87.79   10.80
   3  -3 -14  163.38    9.10
   3  -3 -14  167.18   13.90
   3   3 -14  183.18   12.50
   2  -3 -14  206.28   14.30
   2  -3 -14  238.78   13.00
   2  -3 -14  215.68   11.00
   2   3 -14  204.98   10.50
   2   3 -14  234.58   13.70
   1  -3 -14  909.41   34.60
   1  -3 -14  870.01   40.70
   1  -3 -14  904.01   36.70
   1   3 -14  911.81   37.80
   1   3 -14  920.51   34.30
   0  -3 -14   93.09    8.00
   0  -3 -14   92.79    7.30
   0   3 -14   92.49    7.20
   0   3 -14   81.69    6.70
   0   3 -14   90.29    8.70
  -1  -3 -14  141.19   10.40
  -1  -3 -14  147.09    9.90
  -1   3 -14  143.19   11.50
  -1   3 -14  146.89   10.00
  -2  -3 -14  154.58   10.80
  -2   3 -14  151.78   11.10
   4   4 -14   15.40    6.80
   4   4 -14   26.00    6.20
   3  -4 -14   57.39    9.70
   3   4 -14   50.69    7.80
   2  -4 -14  104.99   10.00
   2  -4 -14   91.59    8.50
   2   4 -14  111.69    9.80
   2   4 -14  104.09    6.70
   1  -4 -14  313.87   15.90
   1  -4 -14  311.77   14.90
   1  -4 -14  316.67   17.80
   1   4 -14  306.27   14.60
   1   4 -14  339.97   17.40
   0  -4 -14   68.59    6.70
   0  -4 -14   68.69    7.40
   0   4 -14   79.89    6.80
   0   4 -14   74.89    6.30
   0   4 -14   80.49    8.40
  -1  -4 -14  663.13   31.10
  -1  -4 -14  667.23   27.60
  -1   4 -14  633.34   27.50
  -1   4 -14  678.93   30.00
  -2  -4 -14   12.00    4.30
  -2   4 -14   13.10    4.40
   4   5 -14  259.77   16.80
   3  -5 -14  230.98   16.80
   3   5 -14  251.37   15.60
   2  -5 -14  254.67   13.90
   2  -5 -14  247.38   16.20
   2   5 -14  257.07   15.40
   2   5 -14  263.37   12.10
   1  -5 -14 1423.16   62.59
   1   5 -14 1475.55   57.59
   1   5 -14 1433.96   52.29
   0  -5 -14  329.17   17.80
   0  -5 -14  327.67   15.70
   0   5 -14  321.97   15.50
   0   5 -14  314.17   17.40
   0   5 -14  312.87   15.60
  -1  -5 -14   40.60    6.60
  -1  -5 -14   31.40    5.10
  -1   5 -14   31.00    6.60
  -1   5 -14   48.70    6.70
  -2  -5 -14  213.48   13.20
  -2   5 -14  227.88   14.00
  -2   5 -14  229.58   15.30
   3  -6 -14  203.98   15.70
   3   6 -14  221.88   14.80
   2  -6 -14   65.69    8.60
   2  -6 -14   73.99    7.40
   2   6 -14   72.69    5.80
   2   6 -14   63.79    8.30
   1  -6 -14  322.47   18.40
   1   6 -14  332.17   17.70
   1   6 -14  288.87   14.40
   0  -6 -14   13.50    4.50
   0   6 -14    8.20    4.30
   0   6 -14    4.90    3.00
  -1  -6 -14  350.36   18.00
  -1  -6 -14  409.76   21.20
  -1   6 -14  360.56   18.20
  -1   6 -14  387.26   20.20
  -2  -6 -14   24.30    4.90
  -2   6 -14   36.00    7.20
  -2   6 -14   36.30    6.70
   3  -7 -14  168.38   14.40
   3   7 -14  179.58   13.70
   2  -7 -14  334.07   19.80
   2  -7 -14  329.67   16.20
   2   7 -14  315.67   18.60
   2   7 -14  329.97   18.40
   2   7 -14  317.37   14.50
   1  -7 -14  678.23   33.00
   1   7 -14  665.33   26.80
   1   7 -14  666.63   30.40
   0  -7 -14  601.94   29.70
   0   7 -14  577.44   25.10
   0   7 -14  619.14   28.10
  -1  -7 -14  190.68   12.40
  -1  -7 -14  226.88   15.10
  -1   7 -14  238.38   15.00
  -1   7 -14  232.98   13.50
  -2  -7 -14  270.87   15.40
  -2   7 -14  294.57   16.40
  -2   7 -14  283.87   17.60
   3  -8 -14  503.95   29.50
   3   8 -14  527.85   30.50
   3   8 -14  641.34   28.20
   2  -8 -14  149.99   12.80
   2   8 -14  150.08    8.80
   2   8 -14  148.19   12.20
   2   8 -14  149.59   12.00
   1  -8 -14   37.70    7.20
   1   8 -14   25.50    4.50
   1   8 -14   32.00    6.50
   1   8 -14   42.20    7.40
   0  -8 -14   54.89    7.90
   0   8 -14   39.00    5.60
   0   8 -14   42.00    7.50
  -1  -8 -14  592.54   26.90
  -1  -8 -14  706.53   32.80
  -1   8 -14  629.54   27.60
  -1   8 -14  628.74   29.80
  -2  -8 -14  111.59    9.60
  -2   8 -14  122.89   11.60
  -2   8 -14  124.69   12.00
   3   9 -14  327.47   19.10
   3   9 -14  302.87   20.50
   2  -9 -14  139.49   12.90
   2   9 -14  150.38   12.70
   2   9 -14  125.49   11.80
   1  -9 -14  339.87   20.60
   1   9 -14  341.87   19.50
   1   9 -14  356.46   16.60
   1   9 -14  357.16   21.80
   0  -9 -14  107.69   10.70
   0   9 -14   94.29   10.20
   0   9 -14   93.39    8.30
  -1  -9 -14  129.19   12.30
  -1   9 -14  115.39   10.00
  -1   9 -14  127.99   11.50
  -2   9 -14  125.99   12.20
   3  10 -14  260.87   18.90
   2 -10 -14  591.54   31.60
   2  10 -14  625.94   29.10
   2  10 -14  573.84   32.70
   1 -10 -14   17.30    5.80
   1  10 -14   13.80    6.70
   1  10 -14   25.90    4.80
   1  10 -14   21.60    6.30
   0 -10 -14  478.75   25.50
   0  10 -14  457.05   23.70
   0  10 -14  441.96   26.90
   0  10 -14  447.96   21.00
  -1 -10 -14  506.25   27.10
  -1  10 -14  483.75   24.80
  -1  10 -14  459.25   22.70
   2 -11 -14   61.79   10.70
   2  11 -14   48.80    8.30
   2  11 -14   51.39    9.80
   1 -11 -14  167.78   14.00
   1  11 -14  174.78   13.60
   1  11 -14  166.48   15.20
   1  11 -14  163.68   10.90
   0 -11 -14   13.70    5.60
   0  11 -14   11.10    6.50
   0  11 -14   11.20    4.10
   0  11 -14   14.00    5.60
  -1 -11 -14  132.49   12.80
  -1  11 -14  112.69   10.20
  -1  11 -14  130.49   12.20
   2  12 -14  238.38   18.50
   1 -12 -14  140.09   13.20
   1  12 -14  150.98   14.90
   1  12 -14  147.49   12.70
   1  12 -14  132.19   10.10
   0 -12 -14  343.87   21.20
   0  12 -14  280.27   18.60
   0  12 -14  335.37   22.40
   0  12 -14  317.67   17.10
  -1 -12 -14  136.49   13.40
   1  13 -14  293.57   22.00
   1  13 -14  332.57   16.80
   0 -13 -14  526.35   29.10
   0  13 -14  512.65   33.10
   0  13 -14  496.65   23.80
   3   0 -15  550.44   25.70
   2   0 -15   -1.40    3.20
   2   0 -15   -1.10    3.50
   2   0 -15   -0.50    2.00
   1   0 -15  654.93   28.80
   1   0 -15  638.94   26.20
   1   0 -15  665.23   30.70
   0   0 -15    0.40    2.50
   0   0 -15   -0.10    3.70
   0   0 -15   -0.40    2.70
  -1   0 -15  607.64   26.20
  -2   0 -15    1.30    4.00
   3  -1 -15  398.66   20.10
   3  -1 -15  354.06   22.70
   3   1 -15  440.26   20.90
   2  -1 -15  252.87   12.60
   2  -1 -15  244.68   16.00
   2  -1 -15  281.37   15.20
   2   1 -15  275.57   12.70
   2   1 -15  269.27   15.30
   1  -1 -15  487.55   22.30
   1  -1 -15  489.05   20.50
   1  -1 -15  462.05   23.70
   1   1 -15  489.45   20.40
   1   1 -15  480.35   22.50
   1   1 -15  451.85   23.40
   0  -1 -15  121.79    8.60
   0  -1 -15  117.89    9.00
   0   1 -15  117.49    9.80
   0   1 -15  107.79    8.30
   0   1 -15  110.09    8.20
  -1  -1 -15  883.21   35.30
  -1   1 -15  879.01   35.40
  -2  -1 -15  368.56   19.30
  -2   1 -15  406.26   19.90
   3  -2 -15  504.15   27.60
   3   2 -15  489.95   24.20
   2  -2 -15   41.90    6.40
   2  -2 -15   45.50    5.20
   2  -2 -15   52.59    7.60
   2   2 -15   36.30    4.60
   2   2 -15   45.70    7.10
   1  -2 -15  835.42   38.00
   1  -2 -15  807.42   34.50
   1  -2 -15  825.42   32.30
   1   2 -15  842.02   37.40
   1   2 -15  813.12   35.30
   1   2 -15  852.21   32.20
   0  -2 -15  103.79    8.00
   0  -2 -15  107.39    8.60
   0   2 -15   88.09    7.40
   0   2 -15   98.59    7.80
   0   2 -15   93.49    9.10
  -1  -2 -15  348.07   17.60
  -1   2 -15  367.66   18.00
  -2  -2 -15  321.27   17.00
  -2   2 -15  294.77   16.80
   3  -3 -15   21.70    7.30
   3   3 -15   34.70    6.80
   2  -3 -15   53.89    5.40
   2  -3 -15   49.80    6.70
   2  -3 -15   46.90    7.20
   2   3 -15   48.50    4.90
   2   3 -15   51.89    7.50
   1  -3 -15  158.28   10.90
   1  -3 -15  174.88   10.30
   1  -3 -15  179.18   12.30
   1   3 -15  178.18   10.10
   1   3 -15  185.08   12.40
   0  -3 -15    2.70    3.20
   0  -3 -15    2.00    2.80
   0   3 -15    1.40    3.80
   0   3 -15    4.00    2.80
   0   3 -15    1.70    2.80
  -1  -3 -15   34.10    6.10
  -1  -3 -15   31.60    5.80
  -1   3 -15   22.70    4.90
  -1   3 -15   31.20    6.50
  -2  -3 -15  121.59   10.10
  -2   3 -15  122.39   10.30
   3  -4 -15  633.44   35.10
   3   4 -15  780.92   32.60
   2  -4 -15  151.48   10.70
   2  -4 -15  140.19    8.80
   2  -4 -15  139.99   11.80
   2   4 -15  140.19   11.60
   2   4 -15  154.48    8.60
   1  -4 -15  915.51   35.30
   1  -4 -15  891.81   41.50
   1  -4 -15  877.91   37.20
   1   4 -15  918.91   38.70
   1   4 -15  939.81   35.00
   0  -4 -15  500.15   25.00
   0  -4 -15  497.25   22.10
   0   4 -15  534.15   22.40
   0   4 -15  506.25   24.50
   0   4 -15  493.05   23.10
  -1  -4 -15  336.97   16.90
  -1  -4 -15  330.27   18.60
  -1   4 -15  342.07   17.20
  -1   4 -15  338.57   18.70
  -2  -4 -15  185.58   12.50
  -2   4 -15  187.48   12.90
  -2   4 -15  198.08   14.60
   3  -5 -15   44.90    8.20
   3   5 -15   45.80    8.20
   2  -5 -15  157.48   12.90
   2  -5 -15  160.58   11.20
   2   5 -15  171.08    9.30
   2   5 -15  176.88   12.70
   1  -5 -15   35.80    6.50
   1  -5 -15   43.10    5.50
   1   5 -15   42.70    5.40
   1   5 -15   34.80    6.70
   0  -5 -15   22.80    4.90
   0  -5 -15   20.60    5.10
   0   5 -15   15.40    4.80
   0   5 -15   21.10    4.60
  -1  -5 -15   36.20    5.60
  -1  -5 -15   54.39    7.50
  -1   5 -15   49.60    8.00
  -1   5 -15   42.40    6.20
  -2  -5 -15   73.59    8.80
  -2   5 -15   62.09    9.10
  -2   5 -15   44.30    7.00
   3  -6 -15  248.98   17.70
   3   6 -15  246.38   16.50
   2  -6 -15  213.78   12.80
   2  -6 -15  220.18   15.20
   2   6 -15  198.38   10.70
   2   6 -15  206.68   14.40
   1  -6 -15  342.07   19.60
   1   6 -15  335.87   18.70
   1   6 -15  322.57   15.60
   0  -6 -15  575.54   24.90
   0  -6 -15  576.64   28.80
   0   6 -15  596.14   24.90
   0   6 -15  576.24   27.60
  -1  -6 -15  311.97   18.00
  -1  -6 -15  281.87   15.40
  -1   6 -15  280.67   17.30
  -1   6 -15  289.27   15.80
  -2  -6 -15  302.77   17.40
  -2   6 -15  352.86   19.80
   2  -7 -15  185.28   14.40
   2   7 -15  177.98   10.10
   2   7 -15  197.08   13.90
   1  -7 -15  322.77   19.10
   1   7 -15  307.57   15.10
   1   7 -15  300.97   18.00
   0  -7 -15   12.30    3.90
   0  -7 -15   13.00    4.70
   0   7 -15   13.40    4.20
   0   7 -15   11.20    5.30
  -1  -7 -15  485.35   22.80
  -1  -7 -15  506.75   26.40
  -1   7 -15  506.65   25.20
  -1   7 -15  483.35   22.90
   3   8 -15  326.17   19.60
   3   8 -15  308.37   21.20
   2  -8 -15  203.28   15.30
   2   8 -15  195.88   14.40
   1  -8 -15  522.65   26.90
   1   8 -15  505.55   25.10
   1   8 -15  468.05   21.40
   0  -8 -15  881.61   40.90
   0   8 -15  844.12   34.50
   0   8 -15  846.02   37.80
  -1  -8 -15  276.77   16.00
  -1  -8 -15  325.77   19.50
  -1   8 -15  323.47   18.80
  -1   8 -15  297.97   16.70
   3   9 -15   92.09   11.80
   2  -9 -15  148.29   13.50
   2   9 -15  130.39   12.00
   2   9 -15  147.39   12.70
   1  -9 -15  158.88   13.40
   1   9 -15  149.49   13.30
   1   9 -15  176.98   10.70
   1   9 -15  177.88   13.60
   0  -9 -15  101.99   10.80
   0   9 -15   90.89   11.10
   0   9 -15   93.99    8.60
   0   9 -15  101.09   10.90
  -1  -9 -15  280.07   15.60
  -1  -9 -15  306.67   19.20
  -1   9 -15  290.57   18.00
  -1   9 -15  253.97   15.60
   2 -10 -15   10.40    5.50
   2  10 -15   17.10    6.60
   1 -10 -15  429.06   24.90
   1  10 -15  426.26   20.10
   1  10 -15  436.36   23.40
   1  10 -15  461.65   26.20
   0 -10 -15    3.50    5.00
   0  10 -15    2.20    4.90
   0  10 -15    0.50    3.20
   0  10 -15    6.10    5.80
  -1 -10 -15  328.17   20.90
  -1  10 -15  324.17   20.50
   2  11 -15  548.75   31.30
   1 -11 -15  158.98   14.10
   1  11 -15  171.58   11.30
   1  11 -15  148.89   14.20
   0 -11 -15   26.60    7.10
   0  11 -15   29.30    8.00
   0  11 -15   24.60    5.30
  -1 -11 -15   40.30    8.10
   1  12 -15  130.39   14.00
   1  12 -15  167.38   11.20
   0 -12 -15  180.38   15.00
   0  12 -15  148.79   15.00
   0  12 -15  150.18   11.60
   3   0 -16    5.70    4.40
   3   0 -16    1.10    5.00
   2   0 -16   54.79    5.60
   2   0 -16   79.39    8.70
   2   0 -16   73.79    8.60
   1   0 -16  848.32   36.40
   1   0 -16  822.52   38.80
   1   0 -16  895.51   33.70
   0   0 -16 1243.18   53.79
   0   0 -16 1202.18   50.69
   0   0 -16 1323.97   47.80
  -1   0 -16   31.40    5.80
   3  -1 -16  385.16   23.00
   3   1 -16  373.56   20.30
   2  -1 -16    6.50    4.20
   2  -1 -16    8.10    4.20
   2  -1 -16    3.80    2.60
   2   1 -16    9.00    3.00
   2   1 -16    6.90    4.40
   2   1 -16    5.70    4.10
   1  -1 -16  653.13   29.60
   1  -1 -16  684.43   32.10
   1  -1 -16  694.53   27.80
   1   1 -16  688.53   30.20
   1   1 -16  692.53   31.90
   1   1 -16  645.64   27.30
   0  -1 -16   51.09    6.80
   0  -1 -16   52.69    7.10
   0   1 -16   50.39    6.10
   0   1 -16   48.00    6.30
   0   1 -16   50.09    7.60
  -1  -1 -16  308.97   16.30
  -1   1 -16  299.17   16.10
   3  -2 -16   98.49   11.80
   3   2 -16  103.19   10.40
   2  -2 -16  358.56   18.40
   2  -2 -16  330.77   19.90
   2  -2 -16  357.46   16.10
   2   2 -16  335.97   15.70
   2   2 -16  364.46   19.10
   1  -2 -16  470.75   20.30
   1  -2 -16  456.55   21.90
   1  -2 -16  431.86   23.40
   1   2 -16  465.95   22.70
   1   2 -16  478.75   20.20
   1   2 -16  449.36   23.10
   0  -2 -16  262.07   13.80
   0  -2 -16  241.88   14.40
   0   2 -16  240.88   14.90
   0   2 -16  237.68   14.40
   0   2 -16  236.08   13.40
  -1  -2 -16   59.29    7.00
  -1   2 -16   83.99    8.30
  -1   2 -16   86.89   10.50
   3  -3 -16  500.85   28.70
   3   3 -16  549.25   26.30
   2  -3 -16  225.28   13.80
   2  -3 -16  207.58   15.00
   2  -3 -16  223.08   11.70
   2   3 -16  209.78   11.30
   2   3 -16  242.88   14.80
   1  -3 -16   31.80    5.00
   1  -3 -16   41.60    6.00
   1  -3 -16   29.20    5.90
   1   3 -16   31.80    6.20
   1   3 -16   25.80    4.40
   1   3 -16   37.60    6.00
   0  -3 -16    7.00    3.30
   0  -3 -16    3.60    3.30
   0   3 -16    9.20    4.80
   0   3 -16    3.50    3.10
  -1  -3 -16  393.96   19.40
  -1   3 -16  406.96   19.50
  -1   3 -16  362.06   20.70
   3  -4 -16  333.17   21.00
   3   4 -16  294.37   18.40
   2  -4 -16   13.30    3.40
   2  -4 -16    6.30    4.60
   2  -4 -16   15.40    5.60
   2   4 -16   24.00    6.40
   2   4 -16   13.50    3.30
   1  -4 -16  254.77   15.70
   1  -4 -16  229.38   13.00
   1  -4 -16  240.48   14.00
   1   4 -16  263.57   13.20
   1   4 -16  255.77   15.60
   0  -4 -16   72.19    7.80
   0  -4 -16   64.09    8.00
   0   4 -16   62.19    8.80
   0   4 -16   72.09    7.80
  -1  -4 -16   15.00    4.70
  -1   4 -16   21.00    6.10
  -1   4 -16   11.80    4.30
   3   5 -16  834.32   37.50
   2  -5 -16  256.57   17.40
   2  -5 -16  250.97   13.30
   2  -5 -16  265.57   15.20
   2   5 -16  266.87   13.00
   2   5 -16  291.67   17.00
   1  -5 -16   58.39    8.30
   1  -5 -16   53.99    7.10
   1  -5 -16   55.29    6.40
   1   5 -16   56.19    8.30
   1   5 -16   47.70    5.80
   0  -5 -16  259.47   14.40
   0  -5 -16  263.17   16.00
   0   5 -16  252.77   14.20
   0   5 -16  269.17   16.40
  -1  -5 -16  299.97   16.10
  -1   5 -16  318.47   16.60
  -1   5 -16  277.67   17.80
   3   6 -16   75.59   10.40
   2  -6 -16   53.79    8.70
   2   6 -16   41.90    7.80
   1  -6 -16  297.57   18.40
   1  -6 -16  300.87   15.30
   1   6 -16  309.27   18.00
   1   6 -16  280.47   14.60
   0  -6 -16  277.07   17.00
   0  -6 -16  268.27   15.00
   0   6 -16  286.97   17.30
   0   6 -16  272.57   14.80
  -1  -6 -16  251.87   14.90
  -1   6 -16  260.17   17.00
  -1   6 -16  265.67   15.30
   3   7 -16  246.98   17.80
   2  -7 -16  294.67   19.50
   2   7 -16  326.47   19.00
   1  -7 -16  360.96   21.20
   1   7 -16  359.26   20.50
   1   7 -16  367.56   17.30
   0  -7 -16  296.07   17.70
   0  -7 -16  254.87   14.80
   0   7 -16  268.97   15.00
   0   7 -16  289.17   17.50
  -1  -7 -16  318.47   17.30
  -1   7 -16  318.47   17.70
  -1   7 -16  364.46   20.10
   2  -8 -16  117.09   12.10
   2   8 -16  108.09   11.60
   1  -8 -16  349.77   21.50
   1   8 -16  363.26   17.50
   1   8 -16  381.76   21.00
   0  -8 -16  517.85   23.20
   0  -8 -16  525.35   27.20
   0   8 -16  518.55   25.90
   0   8 -16  468.55   27.70
   0   8 -16  494.35   23.00
  -1   8 -16   44.70    7.90
   2   9 -16   84.49    9.70
   1  -9 -16  237.48   17.10
   1   9 -16  232.18   13.50
   1   9 -16  252.07   16.70
   1   9 -16  258.67   17.00
   0  -9 -16  105.69   11.20
   0   9 -16  100.59   11.20
   0   9 -16   95.89    9.00
   0   9 -16   88.99   11.10
  -1  -9 -16  273.27   19.20
   2  10 -16  377.26   22.80
   1 -10 -16  414.76   24.30
   1  10 -16  437.96   19.90
   1  10 -16  384.36   24.10
   0 -10 -16  157.58   13.50
   0  10 -16  132.99   10.80
   0  10 -16  140.59   13.40
   1  11 -16   28.40    5.70
   1  11 -16   35.20    8.60
   0 -11 -16   13.80    6.00
   0  11 -16   21.40    7.20
   0  11 -16    7.60    4.10
   3   0 -17   39.60    8.10
   2   0 -17   -0.40    2.40
   2   0 -17    2.70    4.00
   2   0 -17   -4.80    3.50
   1   0 -17   29.30    5.90
   1   0 -17   27.40    4.80
   1   0 -17   27.60    5.90
   0   0 -17    0.00    4.40
   0   0 -17    4.30    3.40
  -1   0 -17   89.79    9.50
   3  -1 -17  166.18   14.60
   3   1 -17  166.08   13.10
   3   1 -17  161.38   14.00
   2  -1 -17  318.77   18.90
   2  -1 -17  311.77   15.00
   2  -1 -17  304.97   17.50
   2   1 -17  304.47   14.80
   2   1 -17  319.27   18.00
   2   1 -17  293.67   18.50
   1  -1 -17  415.36   20.80
   1  -1 -17  444.46   19.30
   1  -1 -17  411.46   21.80
   1   1 -17  410.56   18.90
   1   1 -17  396.86   21.00
   1   1 -17  380.56   21.20
   0  -1 -17  867.11   38.40
   0  -1 -17  904.01   36.20
   0   1 -17  975.60   36.60
   0   1 -17  855.21   38.60
  -1  -1 -17   33.90    6.00
  -1   1 -17   40.70    6.60
   3   2 -17  187.78   14.10
   2  -2 -17  313.47   19.30
   2  -2 -17  333.27   18.00
   2  -2 -17  345.87   15.80
   2   2 -17  321.67   15.30
   2   2 -17  308.77   18.90
   2   2 -17  315.57   18.40
   1  -2 -17   77.59    9.00
   1  -2 -17   73.19    8.50
   1  -2 -17   81.89    7.40
   1   2 -17   94.19   10.00
   1   2 -17   74.59    8.30
   1   2 -17   91.99    7.60
   0  -2 -17   33.30    5.80
   0  -2 -17   31.80    6.10
   0   2 -17   28.30    6.40
   0   2 -17   27.40    5.30
  -1  -2 -17   58.89    7.80
  -1   2 -17   56.79    8.40
  -1   2 -17   53.49    7.20
   3   3 -17  262.17   17.10
   2  -3 -17   96.69    9.80
   2  -3 -17   89.19    7.40
   2  -3 -17   96.49   10.30
   2   3 -17  100.09   10.40
   2   3 -17   93.79    7.50
   1  -3 -17  320.77   17.70
   1  -3 -17  347.87   16.80
   1  -3 -17  343.97   19.50
   1   3 -17  343.07   18.70
   1   3 -17  331.17   16.30
   1   3 -17  347.67   19.20
   0  -3 -17  495.05   22.80
   0  -3 -17  494.35   25.00
   0   3 -17  513.45   22.80
   0   3 -17  490.35   24.90
  -1  -3 -17  183.78   12.60
  -1   3 -17  180.78   12.60
  -1   3 -17  192.58   14.20
   3   4 -17  606.24   29.60
   2  -4 -17  271.77   13.70
   2  -4 -17  261.57   17.30
   2  -4 -17  259.97   15.50
   2   4 -17  231.98   12.90
   2   4 -17  264.07   16.70
   1  -4 -17   18.20    4.30
   1  -4 -17   17.50    5.10
   1  -4 -17   11.90    4.40
   1   4 -17   22.30    5.40
   1   4 -17   11.70    3.60
   1   4 -17   11.70    5.40
   0  -4 -17   88.09    9.00
   0  -4 -17   91.59    8.40
   0   4 -17   85.09    8.40
   0   4 -17   98.19   11.10
  -1  -4 -17  213.48   13.90
  -1   4 -17  217.28   13.70
  -1   4 -17  198.88   15.00
   2  -5 -17   84.59    7.40
   2  -5 -17   74.59    9.90
   2   5 -17   81.49   10.00
   1  -5 -17  244.78   14.60
   1  -5 -17  235.28   13.70
   1  -5 -17  266.87   16.70
   1   5 -17  248.68   13.40
   1   5 -17  253.47   16.60
   0  -5 -17  132.59   10.40
   0  -5 -17  150.28   11.80
   0   5 -17  160.98   12.80
   0   5 -17  140.39   10.50
  -1   5 -17  113.19   10.20
   2  -6 -17  437.16   25.70
   2  -6 -17  464.65   20.70
   2   6 -17  470.15   24.50
   1  -6 -17  308.67   16.20
   1  -6 -17  307.57   19.30
   1  -6 -17  319.07   17.10
   1   6 -17  317.47   19.10
   1   6 -17  325.97   16.00
   0  -6 -17    8.50    3.90
   0  -6 -17    2.30    3.80
   0   6 -17    8.50    5.00
   0   6 -17   -0.70    2.90
   2  -7 -17  161.58   14.40
   2   7 -17  200.88   16.50
   1  -7 -17  336.27   20.30
   1  -7 -17  320.27   16.80
   1   7 -17  342.47   16.60
   1   7 -17  317.37   19.60
   0  -7 -17  286.87   16.00
   0  -7 -17  291.47   18.20
   0   7 -17  293.97   19.30
   0   7 -17  275.57   15.60
   1  -8 -17   53.39    8.60
   1   8 -17   39.60    5.90
   0  -8 -17  104.79   11.20
   0   8 -17  103.09   10.80
   0   8 -17   99.09    9.50
   1  -9 -17  294.57   19.80
   1   9 -17  316.27   16.40
   0  -9 -17  979.90   45.10
   0   9 -17  908.81   47.10
   0   9 -17  919.41   38.10
   2   0 -18  625.04   25.60
   2   0 -18  578.44   30.80
   2   0 -18  622.74   29.00
   1   0 -18   98.09    8.00
   1   0 -18  107.29    9.90
   1   0 -18   74.19    8.70
   0   0 -18 1050.99   40.00
   0   0 -18  921.41   41.80
   2  -1 -18   29.70    6.70
   2  -1 -18   18.80    6.00
   2  -1 -18   13.20    3.80
   2   1 -18   21.70    6.40
   2   1 -18    8.10    3.50
   2   1 -18   33.20    7.10
   1  -1 -18   40.10    7.00
   1  -1 -18   36.80    5.50
   1  -1 -18   37.30    6.80
   1   1 -18   42.50    6.90
   1   1 -18   37.40    5.90
   1   1 -18   38.60    6.90
   0  -1 -18  116.09    9.70
   0  -1 -18  100.29   10.80
   0   1 -18  110.09   11.00
   0   1 -18  110.09    9.70
   2  -2 -18  247.68   17.30
   2  -2 -18  268.47   16.40
   2  -2 -18  284.47   14.30
   2   2 -18  262.67   14.10
   2   2 -18  285.77   17.20
   2   2 -18  256.17   17.20
   1  -2 -18   38.80    5.80
   1  -2 -18   47.30    7.30
   1  -2 -18   45.80    7.30
   1   2 -18   46.40    7.20
   1   2 -18   48.10    8.00
   1   2 -18   43.60    6.00
   0  -2 -18  171.68   11.60
   0  -2 -18  149.29   12.30
   0   2 -18  157.28   13.00
   0   2 -18  161.38   11.60
   2  -3 -18  333.07   16.70
   2  -3 -18  348.47   19.00
   2  -3 -18  345.17   20.90
   2   3 -18  337.57   20.10
   2   3 -18  340.87   19.70
   1  -3 -18  217.38   14.80
   1  -3 -18  203.48   13.70
   1  -3 -18  226.78   13.00
   1   3 -18  217.78   15.30
   1   3 -18  225.58   12.70
   0  -3 -18  476.25   22.30
   0   3 -18  445.76   21.70
   0   3 -18  459.25   24.30
   2  -4 -18   14.20    5.50
   2  -4 -18   17.00    4.10
   2   4 -18   17.40    6.30
   1  -4 -18  151.78   11.60
   1  -4 -18  150.08   10.70
   1  -4 -18  163.08   13.00
   1   4 -18  166.78   10.70
   1   4 -18  177.48   13.60
   0  -4 -18   41.20    6.80
   0   4 -18   49.99    6.90
   0   4 -18   52.09    9.30
   2  -5 -18  304.67   15.90
   2  -5 -18  300.97   19.90
   2   5 -18  346.97   20.70
   1  -5 -18  138.79   10.20
   1  -5 -18  146.79   12.40
   1  -5 -18  119.69   10.60
   1   5 -18  149.09   10.20
   1   5 -18  147.29   13.10
   0   5 -18  487.95   22.90
   2  -6 -18  150.18   10.30
   1  -6 -18  192.58   14.30
   1  -6 -18  195.18   13.10
   1  -6 -18  185.08   12.10
   1   6 -18  172.68   11.50
   0   6 -18  172.48   12.10
   1  -7 -18  340.27   20.50
   1  -7 -18  297.67   17.50
   1   7 -18  331.77   16.70
   0  -7 -18   54.89    9.00
   0   7 -18   53.09    8.00
   2   0 -19   -2.50    4.30
   2   0 -19    0.00    4.50
   1   0 -19  117.19   11.30
   1   0 -19  140.59   10.00
   2  -1 -19  456.15   23.90
   2  -1 -19  454.05   25.60
   2   1 -19  491.85   24.60
   2   1 -19  449.26   25.30
   1  -1 -19   82.99    8.00
   1  -1 -19   85.79    9.90
   1   1 -19   88.79    8.10
   1   1 -19   87.49   10.40
   1  -2 -19  105.99    8.80
   1  -2 -19  101.29   10.20
   1  -2 -19   86.99    9.80
   1   2 -19   95.99   11.10
   1   2 -19   95.19    8.40
   1  -3 -19   28.10    6.30
   1  -3 -19   22.70    6.00
   1  -3 -19   14.90    4.30
   1   3 -19   22.70    4.90
   1  -4 -19   98.99    9.10
   1  -4 -19  107.59   10.20
   1  -4 -19  105.19   10.90
   1   4 -19  121.19    9.30
   0   0   0    0.00    0.00



_computing_structure_solution     'SHELXT 2014/5 (Sheldrick, 2014)'
_computing_structure_solution     'SHELXT 2014/5 (Sheldrick, 2014)'
_computing_structure_solution     'SHELXT 2014/5 (Sheldrick, 2014)'
;
_shelx_hkl_checksum              26624
_olex2_submission_special_instructions 'No special instructions were received'
loop_
_space_group_symop_operation_xyz
'x, y, z'
'-x, y+1/2, -z+1/2'
'-x, -y, -z'
'x, -y-1/2, z-1/2'
loop_
_atom_site_label
_atom_site_type_symbol
_atom_site_fract_x
_atom_site_fract_y
_atom_site_fract_z
_atom_site_U_iso_or_equiv
_atom_site_adp_type
_atom_site_occupancy
_atom_site_site_symmetry_order
_atom_site_calc_flag
_atom_site_refinement_flags_posn
_atom_site_refinement_flags_adp
_atom_site_refinement_flags_occupancy
_atom_site_disorder_assembly
_atom_site_disorder_group
I1 I 0.37217(6) 0.44821(2) 0.11718(2) 0.01487(6) Uani 1 1 d . . . . .
Cu1 Cu 0.17946(12) 0.57805(3) -0.00968(3) 0.01888(10) Uani 1 1 d . . . . .
S1 S 0.3401(2) 0.78440(5) -0.05470(6) 0.0203(2) Uani 1 1 d . . . . .
C2 C -0.0264(10) 0.6754(2) 0.1447(2) 0.0211(8) Uani 1 1 d . . . . .
H2 H -0.083868 0.618125 0.160442 0.025 Uiso 1 1 calc R . . . .
N1 N 0.1097(8) 0.68659(17) 0.06846(18) 0.0155(5) Uani 1 1 d . . . . .
C3 C -0.0847(10) 0.7455(2) 0.2008(2) 0.0224(7) Uani 1 1 d . . . . .
H3 H -0.181348 0.736822 0.253083 0.027 Uiso 1 1 calc R . . . .
N2 N 0.1392(9) 0.84351(18) 0.09837(19) 0.0205(6) Uani 1 1 d . . . . .
C1 C 0.1807(9) 0.7716(2) 0.0482(2) 0.0154(7) Uani 1 1 d . . . . .
C4 C 0.0091(11) 0.8294(2) 0.1748(2) 0.0240(8) Uani 1 1 d . . . . .
H4 H -0.019691 0.877828 0.211941 0.029 Uiso 1 1 calc R . . . .
C6 C 0.5329(12) 0.9295(2) -0.1437(3) 0.0292(9) Uani 1 1 d . . . . .
H6A H 0.358540 0.918635 -0.192265 0.044 Uiso 1 1 calc GR . . . .
H6B H 0.720252 0.894701 -0.153149 0.044 Uiso 1 1 calc GR . . . .
H6C H 0.589166 0.991617 -0.142570 0.044 Uiso 1 1 calc GR . . . .
C5 C 0.4229(11) 0.9036(2) -0.0535(2) 0.0212(7) Uani 1 1 d . . . . .
H5A H 0.227097 0.936386 -0.044920 0.025 Uiso 1 1 calc R . . . .
H5B H 0.592676 0.917976 -0.003764 0.025 Uiso 1 1 calc R . . . .
loop_
_atom_site_aniso_label
_atom_site_aniso_U_11
_atom_site_aniso_U_22
_atom_site_aniso_U_33
_atom_site_aniso_U_23
_atom_site_aniso_U_13
_atom_site_aniso_U_12
I1 0.01496(10) 0.01471(9) 0.01511(9) 0.00071(8) 0.00270(9) -0.00051(9)
Cu1 0.0201(2) 0.01552(18) 0.02121(19) -0.00311(15) 0.00360(19) -0.00227(18)
S1 0.0318(6) 0.0116(3) 0.0186(4) -0.0012(3) 0.0080(4) -0.0032(3)
C2 0.023(2) 0.0181(15) 0.0217(16) 0.0030(13) 0.0018(14) -0.0011(15)
N1 0.0177(14) 0.0108(11) 0.0175(12) 0.0010(10) 0.0003(12) -0.0011(12)
C3 0.0246(18) 0.0239(16) 0.0194(15) 0.0021(13) 0.0058(17) 0.0003(18)
N2 0.0271(17) 0.0136(12) 0.0209(13) -0.0029(11) 0.0033(13) -0.0034(13)
C1 0.0139(16) 0.0159(14) 0.0157(14) 0.0009(12) -0.0010(13) -0.0002(14)
C4 0.032(2) 0.0197(16) 0.0203(16) -0.0048(13) 0.0033(17) 0.0016(17)
C6 0.042(3) 0.0208(16) 0.0257(18) -0.0005(15) 0.0069(18) -0.0062(17)
C5 0.0287(19) 0.0101(13) 0.0250(17) 0.0006(12) 0.0043(17) -0.0009(15)
loop_
_atom_type_symbol
_atom_type_description
_atom_type_scat_dispersion_real
_atom_type_scat_dispersion_imag
_atom_type_scat_source
C C 0.0033 0.0016 'International Tables Vol C Tables 4.2.6.8 and 6.1.1.4'
H H 0.0000 0.0000 'International Tables Vol C Tables 4.2.6.8 and 6.1.1.4'
Cu Cu 0.3201 1.2651 'International Tables Vol C Tables 4.2.6.8 and 6.1.1.4'
I I -0.4742 1.8119 'International Tables Vol C Tables 4.2.6.8 and 6.1.1.4'
N N 0.0061 0.0033 'International Tables Vol C Tables 4.2.6.8 and 6.1.1.4'
S S 0.1246 0.1234 'International Tables Vol C Tables 4.2.6.8 and 6.1.1.4'
loop_
_geom_angle_atom_site_label_1
_geom_angle_atom_site_label_2
_geom_angle_atom_site_label_3
_geom_angle
_geom_angle_site_symmetry_1
_geom_angle_site_symmetry_3
_geom_angle_publ_flag
Cu1 I1 Cu1 103.417(16) 3_565 3_665 ?
Cu1 I1 Cu1 62.941(16) 3_565 . ?
Cu1 I1 Cu1 81.479(16) 3_665 . ?
I1 Cu1 I1 103.416(16) 3_565 3_665 ?
I1 Cu1 I1 117.058(16) 3_565 . ?
I1 Cu1 I1 98.520(16) 3_665 . ?
I1 Cu1 Cu1 60.732(18) 3_565 3_565 ?
I1 Cu1 Cu1 56.326(15) . 3_565 ?
I1 Cu1 Cu1 111.22(2) 3_665 3_565 ?
N1 Cu1 I1 128.98(9) . 3_665 ?
N1 Cu1 I1 106.67(9) . 3_565 ?
N1 Cu1 I1 103.05(7) . . ?
N1 Cu1 Cu1 119.28(9) . 3_565 ?
C1 S1 C5 101.03(16) . . ?
N1 C2 C3 122.7(3) . . ?
C2 N1 Cu1 119.2(2) . . ?
C2 N1 C1 115.8(3) . . ?
C1 N1 Cu1 125.0(2) . . ?
C2 C3 C4 116.3(3) . . ?
C1 N2 C4 116.3(3) . . ?
N1 C1 S1 114.6(2) . . ?
N2 C1 S1 119.3(2) . . ?
N2 C1 N1 126.1(3) . . ?
N2 C4 C3 122.7(3) . . ?
C6 C5 S1 108.7(2) . . ?
loop_
_geom_bond_atom_site_label_1
_geom_bond_atom_site_label_2
_geom_bond_distance
_geom_bond_site_symmetry_2
_geom_bond_publ_flag
I1 Cu1 2.6246(5) 3_565 ?
I1 Cu1 2.6366(5) 3_665 ?
I1 Cu1 2.7511(5) . ?
Cu1 Cu1 2.8085(9) 3_565 ?
Cu1 N1 2.044(3) . ?
S1 C1 1.756(3) . ?
S1 C5 1.821(3) . ?
C2 N1 1.343(5) . ?
C2 C3 1.384(5) . ?
N1 C1 1.353(4) . ?
C3 C4 1.389(5) . ?
N2 C1 1.336(4) . ?
N2 C4 1.338(5) . ?
C6 C5 1.524(5) . ?
loop_
_twin_individual_id
_twin_individual_mass_fraction_refined
1 0.6220(8)
2 0.3780(8)
