#------------------------------------------------------------------------------
#$Date: 2021-06-05 22:01:57 +0300 (Sat, 05 Jun 2021) $
#$Revision: 266107 $
#$URL: file:///home/coder/svn-repositories/cod/cif/7/70/72/7707248.cif $
#------------------------------------------------------------------------------
#
# This file is available in the Crystallography Open Database (COD),
# http://www.crystallography.net/
#
# All data on this site have been placed in the public domain by the
# contributors.
#
data_7707248
loop_
_publ_author_name
'Khan, Firoz Shah Tuglak'
'Waldbusser, Amy L.'
'Carrasco, Maria C.'
'Pourhadi, Hadi'
'Hematian, Shabnam'
_publ_section_title
;
 Synthetic, spectroscopic, structural, and electrochemical investigations
 of ferricenium derivatives with weakly coordinating anions: ion pairing,
 substituent, and solvent effects.
;
_journal_issue                   21
_journal_name_full
'Dalton transactions (Cambridge, England : 2003)'
_journal_page_first              7433
_journal_page_last               7455
_journal_paper_doi               10.1039/d1dt01192h
_journal_volume                  50
_journal_year                    2021
_chemical_formula_moiety         'Sb F6, C24 H18 Fe O2'
_chemical_formula_sum            'C24 H18 F6 Fe O2 Sb'
_chemical_formula_weight         629.98
_space_group_crystal_system      triclinic
_space_group_IT_number           2
_space_group_name_Hall           '-P 1'
_space_group_name_H-M_alt        'P -1'
_atom_sites_solution_hydrogens   geom
_atom_sites_solution_primary     direct
_atom_sites_solution_secondary   difmap
_audit_creation_method           SHELXL-2018/3
_audit_update_record
;
2020-11-22 deposited with the CCDC.	2021-04-27 downloaded from the CCDC.
;
_cell_angle_alpha                112.789(6)
_cell_angle_beta                 101.780(5)
_cell_angle_gamma                96.453(5)
_cell_formula_units_Z            1
_cell_length_a                   7.7836(4)
_cell_length_b                   8.1200(5)
_cell_length_c                   9.8619(7)
_cell_measurement_reflns_used    8727
_cell_measurement_temperature    100(2)
_cell_measurement_theta_max      30.1850
_cell_measurement_theta_min      2.3900
_cell_volume                     549.74(7)
_computing_cell_refinement       'CrysAlisPro 1.171.40.53 (Rigaku OD, 2019)'
_computing_data_collection       'CrysAlisPro 1.171.38.43f (Rigaku OD, 2015)'
_computing_data_reduction        'CrysAlisPro 1.171.40.53 (Rigaku OD, 2019)'
_computing_molecular_graphics    'SHELXTL v6.10 (Sheldrick, 2008)'
_computing_publication_material  'SHELXTL v6.10 (Sheldrick, 2008)'
_computing_structure_refinement  'SHELXL-2018/3 (Sheldrick, 2018)'
_computing_structure_solution    'SHELXT-2018/2 (Sheldrick, 2018)'
_diffrn_ambient_temperature      100(2)
_diffrn_detector_area_resol_mean 10.3321
_diffrn_measured_fraction_theta_full 0.995
_diffrn_measured_fraction_theta_max 0.996
_diffrn_measurement_device_type  'Xcalibur, Atlas, Gemini'
_diffrn_measurement_method       '\w scans'
_diffrn_radiation_monochromator  graphite
_diffrn_radiation_type           MoK\a
_diffrn_radiation_wavelength     0.71073
_diffrn_reflns_av_R_equivalents  0.0532
_diffrn_reflns_av_unetI/netI     0.0316
_diffrn_reflns_Laue_measured_fraction_full 0.995
_diffrn_reflns_Laue_measured_fraction_max 0.996
_diffrn_reflns_limit_h_max       9
_diffrn_reflns_limit_h_min       -10
_diffrn_reflns_limit_k_max       10
_diffrn_reflns_limit_k_min       -10
_diffrn_reflns_limit_l_max       12
_diffrn_reflns_limit_l_min       -12
_diffrn_reflns_number            9888
_diffrn_reflns_point_group_measured_fraction_full 0.995
_diffrn_reflns_point_group_measured_fraction_max 0.996
_diffrn_reflns_theta_full        25.242
_diffrn_reflns_theta_max         27.497
_diffrn_reflns_theta_min         2.735
_diffrn_source                   'fine-focus sealed X-ray tube'
_exptl_absorpt_coefficient_mu    1.949
_exptl_absorpt_correction_T_max  0.784
_exptl_absorpt_correction_T_min  0.700
_exptl_absorpt_correction_type   gaussian
_exptl_absorpt_process_details
;
CrysAlisPro 1.171.40.53 (Rigaku Oxford Diffraction, 2019)
Numerical absorption correction based on gaussian integration over
			a multifaceted crystal model
Empirical absorption correction using spherical harmonics,
 implemented in SCALE3 ABSPACK scaling algorithm.
;
_exptl_crystal_colour            green
_exptl_crystal_density_diffrn    1.903
_exptl_crystal_description       'irregular block'
_exptl_crystal_F_000             309
_exptl_crystal_size_max          0.290
_exptl_crystal_size_mid          0.195
_exptl_crystal_size_min          0.190
_refine_diff_density_max         0.388
_refine_diff_density_min         -0.434
_refine_diff_density_rms         0.067
_refine_ls_extinction_method     none
_refine_ls_goodness_of_fit_ref   1.056
_refine_ls_hydrogen_treatment    constr
_refine_ls_matrix_type           full
_refine_ls_number_parameters     157
_refine_ls_number_reflns         2511
_refine_ls_number_restraints     0
_refine_ls_restrained_S_all      1.056
_refine_ls_R_factor_all          0.0180
_refine_ls_R_factor_gt           0.0176
_refine_ls_shift/su_max          0.000
_refine_ls_shift/su_mean         0.000
_refine_ls_structure_factor_coef Fsqd
_refine_ls_weighting_details
'w=1/[\s^2^(Fo^2^)+(0.0174P)^2^+0.2995P] where P=(Fo^2^+2Fc^2^)/3'
_refine_ls_weighting_scheme      calc
_refine_ls_wR_factor_gt          0.0451
_refine_ls_wR_factor_ref         0.0453
_reflns_Friedel_coverage         0.000
_reflns_number_gt                2454
_reflns_number_total             2511
_reflns_threshold_expression     'I > 2\s(I)'
_cod_data_source_file            d1dt01192h2.cif
_cod_data_source_block           Bz2Fc[SbF6]
_cod_depositor_comments
'Adding full bibliography for 7707245--7707255.cif.'
_cod_original_cell_volume        549.74(6)
_cod_database_code               7707248
_shelx_shelxl_version_number     2018/3
_shelx_space_group_comment
;
The symmetry employed for this shelxl refinement is uniquely defined
by the following loop, which should always be used as a source of
symmetry information in preference to the above space-group names.
They are only intended as comments.
;
_shelx_estimated_absorpt_t_min   0.600
_shelx_estimated_absorpt_t_max   0.707
_oxdiff_exptl_absorpt_empirical_full_min 0.804
_oxdiff_exptl_absorpt_empirical_full_max 1.243
_oxdiff_exptl_absorpt_empirical_details
;
Empirical correction (ABSPACK) includes:
- Absorption correction using spherical harmonics
- Frame scaling
;
_shelx_res_file
;
TITL fk_20200826_r_abs_a.res in P-1
    FK_20200826_r_abs.res
    created by SHELXL-2018/3 at 12:09:07 on 27-Aug-2020
CELL 0.71073 7.7836 8.12 9.8619 112.789 101.78 96.453
ZERR 1 0.0004 0.0005 0.0007 0.006 0.005 0.005
LATT 1
SFAC C H F Fe O Sb
UNIT 24 18 6 1 2 1

TEMP -173.0

ACTA
BOND
BOND $H
CONF
WPDB

L.S. 10
FMAP 2
PLAN  20
OMIT -2 55
OMIT 0 0 1
OMIT -2 2 0

SIZE 0.290 0.195 0.190 ! green irregular block

WGHT    0.017400    0.299500
FVAR       1.04551
FE1   4    0.500000    0.000000    0.500000    10.50000    0.00925    0.00826 =
         0.01092    0.00355    0.00360    0.00126
O1    5    0.644995    0.231654    0.891944    11.00000    0.03310    0.01750 =
         0.01718    0.00848    0.00227    0.00907
SB1   6    0.000000    0.500000    0.500000    10.50000    0.00755    0.01178 =
         0.02112    0.00891    0.00197   -0.00016
F1    3   -0.056846    0.264578    0.341686    11.00000    0.03950    0.01512 =
         0.02747    0.00420    0.00473   -0.00023
F2    3    0.076170    0.402383    0.640161    11.00000    0.02066    0.02467 =
         0.02892    0.01845    0.00118    0.00222
F3    3    0.233254    0.535511    0.479226    11.00000    0.01209    0.03945 =
         0.05168    0.02998    0.01329    0.00605
C1    1    0.446252    0.215243    0.671864    11.00000    0.01375    0.01003 =
         0.01447    0.00399    0.00703    0.00526
C2    1    0.422555    0.249570    0.538922    11.00000    0.01256    0.01096 =
         0.01541    0.00612    0.00514    0.00427
AFIX  43
H2    2    0.487320    0.350497    0.531221    11.00000   -1.20000
AFIX   0
C3    1    0.286051    0.107607    0.420339    11.00000    0.01214    0.01513 =
         0.01511    0.00631    0.00271    0.00448
AFIX  43
H3    2    0.243701    0.096435    0.319097    11.00000   -1.20000
AFIX   0
C4    1    0.223203   -0.015226    0.478426    11.00000    0.01030    0.01364 =
         0.02233    0.00635    0.00632    0.00285
AFIX  43
H4    2    0.130945   -0.122410    0.423120    11.00000   -1.20000
AFIX   0
C5    1    0.321723    0.049541    0.633005    11.00000    0.01447    0.01296 =
         0.01860    0.00707    0.00939    0.00429
AFIX  43
H5    2    0.307775   -0.006946    0.699465    11.00000   -1.20000
AFIX   0
C6    1    0.582866    0.317353    0.823744    11.00000    0.01697    0.01400 =
         0.01354    0.00513    0.00690    0.00543
C7    1    0.640328    0.519001    0.883829    11.00000    0.01521    0.01272 =
         0.01140    0.00348    0.00550    0.00293
C8    1    0.799837    0.605000    1.000472    11.00000    0.01777    0.02325 =
         0.01633    0.00640    0.00106    0.00273
AFIX  43
H8    2    0.866023    0.535488    1.041268    11.00000   -1.20000
AFIX   0
C9    1    0.861037    0.791866    1.056349    11.00000    0.02129    0.02523 =
         0.01879    0.00329   -0.00100   -0.00531
AFIX  43
H9    2    0.971202    0.849933    1.133650    11.00000   -1.20000
AFIX   0
C10   1    0.762766    0.894676    1.000326    11.00000    0.03312    0.01434 =
         0.01832    0.00202    0.01073   -0.00413
AFIX  43
H10   2    0.806477    1.022582    1.038001    11.00000   -1.20000
AFIX   0
C11   1    0.601225    0.811362    0.889698    11.00000    0.03044    0.01455 =
         0.01736    0.00731    0.00916    0.00630
AFIX  43
H11   2    0.531876    0.882795    0.854025    11.00000   -1.20000
AFIX   0
C12   1    0.539666    0.623261    0.830303    11.00000    0.01744    0.01415 =
         0.01266    0.00370    0.00292    0.00290
AFIX  43
H12   2    0.429122    0.566066    0.753348    11.00000   -1.20000
AFIX   0
HKLF 4




REM  fk_20200826_r_abs_a.res in P-1
REM wR2 = 0.0453, GooF = S = 1.056, Restrained GooF = 1.056 for all data
REM R1 = 0.0176 for 2454 Fo > 4sig(Fo) and 0.0180 for all 2511 data
REM 157 parameters refined using 0 restraints

END

WGHT      0.0174      0.2996

REM Highest difference peak  0.388,  deepest hole -0.434,  1-sigma level  0.067
Q1    1   0.3843  0.1365  0.6588  11.00000  0.05    0.39
Q2    1   0.4287  0.2543  0.6166  11.00000  0.05    0.38
Q3    1   0.8039  0.7055  1.0327  11.00000  0.05    0.37
Q4    1   0.4549 -0.0800  0.5392  11.00000  0.05    0.36
Q5    1   0.6168  0.4311  0.8609  11.00000  0.05    0.36
Q6    1   0.2471  0.0372  0.4445  11.00000  0.05    0.36
Q7    1   0.3287  0.1962  0.4837  11.00000  0.05    0.35
Q8    1   0.0844  0.4672  0.4540  11.00000  0.05    0.34
Q9    1   0.0424  0.5845  0.4754  11.00000  0.05    0.33
Q10   1   0.6815  0.8325  0.9487  11.00000  0.05    0.32
Q11   1   0.6096  0.5693  0.8374  11.00000  0.05    0.32
Q12   1  -0.0569  0.3938  0.3828  11.00000  0.05    0.32
Q13   1   0.7827  0.8400  1.0443  11.00000  0.05    0.29
Q14   1   0.1544  0.4097  0.3565  11.00000  0.05    0.28
Q15   1   0.4313 -0.0962  0.3957  11.00000  0.05    0.27
Q16   1   0.4108  0.0434  0.5356  11.00000  0.05    0.27
Q17   1   0.0078  0.4225  0.6748  11.00000  0.05    0.26
Q18   1   0.5025  0.2630  0.7418  11.00000  0.05    0.26
Q19   1   0.7259  0.5667  0.9331  11.00000  0.05    0.25
Q20   1   0.5758  0.7264  0.8769  11.00000  0.05    0.24
;
_shelx_res_checksum              49421
_shelx_hkl_file
;
 -10   0   2  648.28   20.87
 -10   0   2  616.50   18.00
 -10   0   3  822.83   23.99
 -10   0   3  771.43   21.29
 -10   0   4  638.87   21.00
 -10   0   4  629.84   19.42
 -10   1   1    9.47    3.12
 -10   1   1   12.16    2.71
 -10   1   2    2.93    2.41
 -10   1   2    0.04    1.86
 -10   1   3    2.93    2.46
 -10   1   3   -0.94    2.35
 -10   1   4  190.66   11.01
 -10   1   4  185.83   10.37
 -10   2   1  827.42   23.45
 -10   2   1  881.10   21.34
 -10   2   2  315.09   13.79
 -10   2   2  324.00   12.86
 -10   2   3  288.18   13.37
 -10   2   3  294.15   12.68
 -10   2   4  377.57   15.54
 -10   2   4  374.23   14.98
 -10   3   1  382.75   14.85
 -10   3   1  375.13   13.53
 -10   3   2   33.74    4.73
 -10   3   2   30.71    4.18
  -9  -3   2  704.52   21.33
  -9  -3   2  649.52   18.67
  -9  -3   2  683.31   18.11
  -9  -3   3  787.92   22.99
  -9  -3   3  786.34   21.29
  -9  -3   4  472.66   17.38
  -9  -3   4  492.55   16.69
  -9  -3   5  713.44   21.74
  -9  -3   5  682.10   20.56
  -9  -3   6  461.90   17.44
  -9  -3   6  481.18   17.30
  -9  -3   7  566.53   19.72
  -9  -3   7  526.64   18.85
  -9  -2   0  215.63   11.45
  -9  -2   1  231.05   11.75
  -9  -2   1  220.66    9.74
  -9  -2   2  230.07   11.52
  -9  -2   2  210.00    9.86
  -9  -2   3  536.05   18.11
  -9  -2   3  526.94   16.53
  -9  -2   4  123.40    8.62
  -9  -2   4  130.70    8.25
  -9  -2   5  194.91   10.92
  -9  -2   5  184.41   10.15
  -9  -2   6  138.98    9.30
  -9  -2   6  140.63    9.10
  -9  -2   7  113.15    8.66
  -9  -2   7  127.04    8.92
  -9  -2   8   78.53    7.46
  -9  -2   8   80.72    7.43
  -9  -1  -1  687.05   21.06
  -9  -1   0  549.77   18.48
  -9  -1   1  215.72   11.16
  -9  -1   1  217.59    9.38
  -9  -1   2  499.69   17.22
  -9  -1   2  477.43   14.97
  -9  -1   3  688.65   20.54
  -9  -1   3  666.69   18.71
  -9  -1   4  995.26   25.82
  -9  -1   4 1000.33   24.34
  -9  -1   5  663.27   20.52
  -9  -1   5  646.27   19.43
  -9  -1   6  399.88   15.91
  -9  -1   6  381.74   15.00
  -9  -1   7  396.02   16.03
  -9  -1   7  393.76   15.81
  -9  -1   8   95.36    8.20
  -9  -1   8  100.67    8.18
  -9   0  -2  299.94   13.42
  -9   0  -1  305.55   13.37
  -9   0   0  338.39   14.01
  -9   0   0  342.74   11.31
  -9   0   1  112.78    7.94
  -9   0   1  102.39    6.34
  -9   0   2  173.28    9.74
  -9   0   2  186.69    8.95
  -9   0   3   98.61    7.46
  -9   0   3   94.33    6.67
  -9   0   4  261.02   12.32
  -9   0   4  254.70   11.41
  -9   0   5  260.20   12.41
  -9   0   5  248.69   11.68
  -9   0   6  188.77   10.73
  -9   0   6  190.90   10.64
  -9   0   7  155.14   10.05
  -9   0   7  151.22    9.74
  -9   0   8   10.27    3.64
  -9   0   8    8.30    3.48
  -9   1  -2  643.85   19.81
  -9   1  -1  842.82   23.04
  -9   1   0  917.91   23.85
  -9   1   0  941.30   20.46
  -9   1   1 1141.96   27.04
  -9   1   1 1139.10   24.03
  -9   1   2 1545.58   32.57
  -9   1   2 1518.77   30.01
  -9   1   3 1002.63   25.18
  -9   1   3  982.27   23.53
  -9   1   4  608.11   19.25
  -9   1   4  620.31   18.63
  -9   1   5  845.29   23.26
  -9   1   5  821.22   22.52
  -9   1   6  389.69   15.58
  -9   1   6  376.03   15.23
  -9   1   7  454.66   17.49
  -9   1   7  465.91   17.59
  -9   2  -3  103.04    7.64
  -9   2  -2  363.05   14.23
  -9   2  -1  508.82   16.69
  -9   2   0  266.30   11.79
  -9   2   0  265.78   10.02
  -9   2   1   34.24    4.59
  -9   2   1   36.58    4.05
  -9   2   2  394.28   14.46
  -9   2   2  377.74   13.36
  -9   2   3    0.08    2.39
  -9   2   3   -1.42    2.26
  -9   2   4  303.14   13.06
  -9   2   4  305.09   12.78
  -9   2   5  274.40   12.60
  -9   2   5  273.12   12.61
  -9   2   6  229.93   11.94
  -9   2   6  238.08   12.20
  -9   2   7  153.36   10.07
  -9   2   7  152.11   10.20
  -9   3  -3  183.01    9.80
  -9   3  -2  424.40   14.98
  -9   3  -1 1043.08   24.85
  -9   3  -1 1062.66   21.71
  -9   3   0  754.18   20.35
  -9   3   0  792.11   18.83
  -9   3   1  699.97   19.51
  -9   3   1  725.24   18.71
  -9   3   2  974.05   24.07
  -9   3   2  983.16   23.47
  -9   3   3  383.21   14.31
  -9   3   3  392.88   14.43
  -9   3   4  837.61   22.38
  -9   3   4  841.84   23.05
  -9   3   5  734.59   21.45
  -9   3   5  712.42   21.89
  -9   3   6  438.90   16.61
  -9   3   6  469.57   17.88
  -9   4  -3  368.00   13.63
  -9   4  -2  251.31   10.94
  -9   4  -1  316.58   12.32
  -9   4  -1  331.70   11.21
  -9   4   0  372.04   13.33
  -9   4   0  389.78   12.94
  -9   4   1  256.34   11.08
  -9   4   1  261.45   11.01
  -9   4   2  143.98    8.35
  -9   4   2  142.08    8.59
  -9   4   3   71.07    6.08
  -9   4   3   78.20    6.69
  -9   4   4   31.96    4.39
  -9   4   4   35.87    5.09
  -9   4   5   47.83    5.40
  -9   4   5   45.77    5.91
  -9   5  -2  362.13   12.79
  -9   5  -1  320.86   11.92
  -9   5  -1  325.45   11.74
  -9   5   0  726.71   18.97
  -9   5   0  741.13   19.42
  -9   5   1  966.89   23.18
  -9   5   1 1151.15   25.78
  -9   5   2 1051.22   24.13
  -9   5   2 1023.59   25.64
  -9   5   3  825.83   21.49
  -9   5   3  817.10   23.23
  -8  -5   3  174.29    9.97
  -8  -5   3  172.59    9.21
  -8  -5   4  140.91    8.90
  -8  -5   4  140.86    8.94
  -8  -5   4  142.05    8.68
  -8  -5   5   31.68    4.60
  -8  -5   5   33.30    4.62
  -8  -5   5   29.45    4.30
  -8  -5   6  400.90   15.58
  -8  -5   6  418.56   16.18
  -8  -5   6  399.67   15.36
  -8  -5   7   10.01    3.21
  -8  -5   7   15.28    3.53
  -8  -4   0  846.59   23.52
  -8  -4   1  535.11   18.01
  -8  -4   1  558.58   15.63
  -8  -4   2 1219.90   28.61
  -8  -4   2 1216.94   26.90
  -8  -4   2 1231.46   26.01
  -8  -4   3 1672.68   33.80
  -8  -4   3 1724.24   33.21
  -8  -4   4  728.79   20.97
  -8  -4   4  712.89   20.37
  -8  -4   5 1049.27   25.96
  -8  -4   5 1041.29   25.82
  -8  -4   6 1161.50   28.05
  -8  -4   6 1150.95   27.70
  -8  -4   7  731.14   21.73
  -8  -4   7  742.38   21.90
  -8  -4   8 1306.10   30.88
  -8  -4   8 1280.80   31.06
  -8  -4   9  944.56   26.28
  -8  -4   9  979.53   26.70
  -8  -3  -1  115.14    8.19
  -8  -3   0  214.07   10.95
  -8  -3   1  347.35   13.89
  -8  -3   1  330.28   11.90
  -8  -3   1  326.14   11.23
  -8  -3   2  174.67    9.62
  -8  -3   2  168.90    8.64
  -8  -3   2  170.24    8.22
  -8  -3   3  348.38   13.74
  -8  -3   3  348.20   12.92
  -8  -3   4   38.15    4.84
  -8  -3   4   32.61    4.41
  -8  -3   5   37.90    4.75
  -8  -3   5   33.66    4.52
  -8  -3   6    7.18    2.88
  -8  -3   6    7.48    2.96
  -8  -3   7   27.88    4.34
  -8  -3   7   29.97    4.73
  -8  -3   8   85.23    7.27
  -8  -3   8   85.50    7.43
  -8  -3   9  227.52   12.11
  -8  -3   9  215.98   11.93
  -8  -2  -2  802.97   22.69
  -8  -2  -1 1074.98   26.45
  -8  -2   0  661.62   16.41
  -8  -2   0  640.36   15.29
  -8  -2   1 1423.70   30.74
  -8  -2   1 1421.50   27.52
  -8  -2   2  840.74   22.27
  -8  -2   2  914.56   21.07
  -8  -2   3 1152.13   26.41
  -8  -2   3 1109.98   24.68
  -8  -2   4 1796.18   35.59
  -8  -2   4 1837.86   34.75
  -8  -2   5 1516.23   32.36
  -8  -2   5 1562.58   31.78
  -8  -2   6 1569.59   33.26
  -8  -2   6 1572.35   32.76
  -8  -2   7  929.04   24.58
  -8  -2   7  953.01   24.62
  -8  -2   8  716.75   21.80
  -8  -2   8  712.20   21.46
  -8  -2   9  348.06   15.08
  -8  -2   9  339.64   14.76
  -8  -1  -3  211.53   11.10
  -8  -1  -2  191.13   10.27
  -8  -1  -1  188.29   10.02
  -8  -1  -1  183.96    7.36
  -8  -1   0  164.14    9.14
  -8  -1   0  163.80    7.42
  -8  -1   1  519.91   16.65
  -8  -1   1  528.83   14.50
  -8  -1   2  476.26   15.69
  -8  -1   2  484.59   14.36
  -8  -1   3  594.06   17.76
  -8  -1   3  584.13   16.49
  -8  -1   4  210.81   10.31
  -8  -1   4  203.48    9.63
  -8  -1   5  444.27   15.48
  -8  -1   5  441.51   14.88
  -8  -1   6    8.18    3.04
  -8  -1   6    4.27    2.82
  -8  -1   7  140.33    8.91
  -8  -1   7  124.41    8.40
  -8  -1   8  129.33    8.90
  -8  -1   8  130.67    8.95
  -8  -1   9   23.17    4.56
  -8  -1   9   21.97    4.49
  -8   0  -4  694.20   20.88
  -8   0  -3 1026.32   25.58
  -8   0  -2 1565.63   32.58
  -8   0  -1  594.94   18.01
  -8   0  -1  583.91   13.91
  -8   0   0  662.19   18.86
  -8   0   0  654.83   15.64
  -8   0   1  602.56   17.55
  -8   0   1  565.71   15.02
  -8   0   2 1135.66   25.59
  -8   0   2 1136.15   23.63
  -8   0   3 2007.84   37.35
  -8   0   3 2024.62   35.83
  -8   0   4 1615.88   32.54
  -8   0   4 1606.78   31.59
  -8   0   5 2092.40   38.87
  -8   0   5 2022.29   37.99
  -8   0   6  871.57   22.83
  -8   0   6  840.91   22.37
  -8   0   7  887.92   23.98
  -8   0   7  898.77   24.02
  -8   0   8 1133.46   28.35
  -8   0   8 1091.07   27.98
  -8   0   9  870.96   25.45
  -8   0   9  857.20   25.09
  -8   1  -5   48.36    5.40
  -8   1  -4   55.66    5.71
  -8   1  -3   46.88    5.16
  -8   1  -2  111.41    7.45
  -8   1  -1  220.98   10.33
  -8   1  -1  219.51    7.94
  -8   1   0  155.72    8.50
  -8   1   0  153.20    6.95
  -8   1   1  301.00   11.73
  -8   1   1  291.40   10.37
  -8   1   2   -0.76    1.99
  -8   1   2    2.65    1.88
  -8   1   3  246.34   10.80
  -8   1   3  251.67   10.32
  -8   1   4   78.53    6.22
  -8   1   4   75.15    6.08
  -8   1   5  120.12    7.80
  -8   1   5  114.48    7.67
  -8   1   6  313.54   13.25
  -8   1   6  309.02   13.11
  -8   1   7   43.72    5.41
  -8   1   7   37.20    5.19
  -8   1   8   14.02    3.72
  -8   1   8   16.95    3.98
  -8   1   9   36.85    5.32
  -8   1   9   39.42    5.64
  -8   2  -5  616.90   19.06
  -8   2  -4  421.26   14.97
  -8   2  -3 1281.60   28.00
  -8   2  -2 1042.97   24.34
  -8   2  -2 1059.70   19.75
  -8   2  -2 1079.69   19.34
  -8   2  -1 1199.11   19.87
  -8   2  -1 1172.33   25.76
  -8   2  -1 1204.02   22.17
  -8   2   0 2135.29   38.08
  -8   2   0 2203.65   35.28
  -8   2   1 1309.28   27.18
  -8   2   1 1333.01   25.72
  -8   2   2  900.84   21.60
  -8   2   2  897.82   20.69
  -8   2   3 1292.92   27.46
  -8   2   3 1316.63   27.15
  -8   2   4  934.24   22.75
  -8   2   4  935.37   22.86
  -8   2   5  836.81   21.98
  -8   2   5  842.31   22.21
  -8   2   6 1476.99   32.08
  -8   2   6 1575.52   33.55
  -8   2   7  589.02   19.28
  -8   2   7  627.14   20.39
  -8   2   8  465.90   17.51
  -8   2   8  443.00   17.43
  -8   3  -5   32.76    4.37
  -8   3  -5   34.07    3.83
  -8   3  -4    4.29    2.29
  -8   3  -4    5.63    1.79
  -8   3  -3  159.89    8.52
  -8   3  -3  160.35    7.14
  -8   3  -2  339.61    9.82
  -8   3  -2  334.40   12.30
  -8   3  -2  336.21    9.72
  -8   3  -1   14.08    2.02
  -8   3  -1   10.21    2.48
  -8   3  -1   13.29    2.34
  -8   3   0  652.79   17.53
  -8   3   0  696.30   16.70
  -8   3   1   -0.89    1.95
  -8   3   1    3.82    2.05
  -8   3   2  117.10    7.14
  -8   3   2  124.83    7.37
  -8   3   3   71.07    5.74
  -8   3   3   83.98    6.32
  -8   3   4   76.64    6.19
  -8   3   4   87.62    6.84
  -8   3   5  131.93    8.20
  -8   3   5  117.87    8.23
  -8   3   6  188.03   10.17
  -8   3   6  187.94   10.79
  -8   3   7  125.75    8.71
  -8   3   7  137.35    9.72
  -8   4  -5  243.75   10.21
  -8   4  -5  239.49   10.68
  -8   4  -4  419.52   12.98
  -8   4  -4  425.56   14.13
  -8   4  -3  307.59   11.54
  -8   4  -3  313.12   10.35
  -8   4  -2  844.74   20.26
  -8   4  -2  862.47   18.03
  -8   4  -1  603.67   16.44
  -8   4  -1  655.01   14.23
  -8   4  -1  638.08   15.78
  -8   4   0  839.27   19.87
  -8   4   0  850.42   19.59
  -8   4   1  994.43   22.16
  -8   4   1  971.85   22.28
  -8   4   2 1010.57   22.67
  -8   4   2 1038.89   23.75
  -8   4   3 1497.59   29.80
  -8   4   3 1502.33   31.13
  -8   4   4  999.90   23.47
  -8   4   4  994.80   25.14
  -8   4   5  992.78   24.24
  -8   4   5  996.04   26.05
  -8   4   6  510.41   17.15
  -8   4   6  517.98   18.74
  -8   5  -5   85.95    6.01
  -8   5  -5   84.72    6.01
  -8   5  -4  155.05    7.79
  -8   5  -4  157.86    8.01
  -8   5  -3    0.65    1.18
  -8   5  -3    0.50    1.21
  -8   5  -2   53.05    4.36
  -8   5  -2   59.18    4.40
  -8   5  -1  134.53    6.27
  -8   5  -1  126.52    6.72
  -8   5  -1  124.74    6.83
  -8   5   0  103.00    6.14
  -8   5   0   99.89    6.45
  -8   5   1   50.75    4.42
  -8   5   1   46.37    4.82
  -8   5   2   26.02    3.51
  -8   5   2   25.83    4.00
  -8   5   3   38.25    4.19
  -8   5   3   32.09    4.54
  -8   5   4   15.24    3.03
  -8   5   4   20.62    4.09
  -8   5   5    6.07    2.58
  -8   5   5    7.59    3.20
  -8   6  -4  568.94   16.39
  -8   6  -3  524.11   15.16
  -8   6  -2  206.73    8.76
  -8   6  -2  204.39    8.79
  -8   6  -1  515.79   15.30
  -8   6   0  975.31   23.26
  -8   6   1  709.86   19.98
  -8   6   2 1681.93   34.94
  -8   6   3  697.66   21.29
  -8   7  -3  118.09    7.24
  -8   7  -2   99.06    6.56
  -8   7  -1   60.01    5.52
  -8   7   0   73.04    6.31
  -8   7   1   10.80    3.21
  -7  -6   2   63.95    5.91
  -7  -6   2   64.25    5.72
  -7  -6   3  125.76    8.06
  -7  -6   3  132.47    8.34
  -7  -6   4  119.22    7.76
  -7  -6   4  129.57    8.39
  -7  -6   5  335.73   13.33
  -7  -6   5  372.69   14.83
  -7  -6   5  373.40   14.47
  -7  -6   6  130.48    8.27
  -7  -6   6  135.82    8.93
  -7  -6   6  151.63    9.26
  -7  -6   7  261.65   11.76
  -7  -6   7  268.73   12.77
  -7  -6   7  281.15   13.06
  -7  -6   8  111.62    7.86
  -7  -6   8   91.90    7.81
  -7  -6   8  112.11    8.34
  -7  -6   9   56.61    5.93
  -7  -6   9   61.21    6.53
  -7  -5   0  841.34   22.57
  -7  -5   1 1223.20   27.86
  -7  -5   1 1208.26   25.43
  -7  -5   2  814.63   21.49
  -7  -5   2  797.02   20.24
  -7  -5   3  758.36   20.51
  -7  -5   3  778.82   20.78
  -7  -5   3  755.65   19.94
  -7  -5   4 1164.95   26.50
  -7  -5   4 1198.71   27.36
  -7  -5   4 1187.36   26.58
  -7  -5   5  647.44   18.77
  -7  -5   5  686.73   19.81
  -7  -5   5  647.30   19.00
  -7  -5   6  756.52   20.75
  -7  -5   6  743.23   21.31
  -7  -5   7 1063.35   25.83
  -7  -5   7 1139.52   27.56
  -7  -5   8  853.06   22.96
  -7  -5   8  925.73   24.69
  -7  -5   9  806.49   22.76
  -7  -5   9  817.88   23.60
  -7  -5  10 1052.75   27.24
  -7  -5  10 1103.84   28.68
  -7  -4  -2  107.56    7.89
  -7  -4  -1   11.96    3.07
  -7  -4   0   67.64    6.04
  -7  -4   0   72.23    4.94
  -7  -4   1  314.52   12.78
  -7  -4   1  323.62   11.27
  -7  -4   2  288.24   11.84
  -7  -4   2  282.01   11.23
  -7  -4   2  300.80   11.04
  -7  -4   3    9.46    2.70
  -7  -4   3    6.74    2.48
  -7  -4   3    9.86    2.52
  -7  -4   4  722.87   19.50
  -7  -4   4  742.94   19.77
  -7  -4   5    2.55    2.16
  -7  -4   5    6.03    2.73
  -7  -4   6  342.56   13.09
  -7  -4   6  342.76   13.27
  -7  -4   7  200.30   10.10
  -7  -4   7  182.27    9.95
  -7  -4   8  130.95    8.47
  -7  -4   8  134.21    8.92
  -7  -4   9  112.63    8.13
  -7  -4   9  134.27    9.00
  -7  -4  10  123.92    8.79
  -7  -4  10  138.04    9.36
  -7  -3  -3  287.45   12.98
  -7  -3  -2  567.90   18.06
  -7  -3  -1  740.57   20.54
  -7  -3   0 1455.66   30.40
  -7  -3   0 1494.01   26.50
  -7  -3   1 2140.75   38.67
  -7  -3   1 2144.43   36.08
  -7  -3   1 2157.74   35.03
  -7  -3   2 2197.67   38.77
  -7  -3   2 2113.73   36.67
  -7  -3   3 1364.30   28.04
  -7  -3   3 1318.56   26.95
  -7  -3   4 1317.33   27.74
  -7  -3   4 1339.63   27.41
  -7  -3   5 1109.68   25.24
  -7  -3   5 1161.33   25.45
  -7  -3   6 1286.88   27.73
  -7  -3   6 1234.35   27.47
  -7  -3   7 2203.62   40.06
  -7  -3   7 2095.38   39.83
  -7  -3   8 1159.41   27.75
  -7  -3   8 1202.68   28.11
  -7  -3   9  998.44   25.67
  -7  -3   9 1007.08   26.00
  -7  -3  10  383.65   15.66
  -7  -3  10  409.91   16.18
  -7  -2  -2   12.10    3.02
  -7  -2  -1   21.10    3.48
  -7  -2  -1   28.57    2.74
  -7  -2   0   43.37    4.61
  -7  -2   0   44.97    3.85
  -7  -2   0   40.60    3.42
  -7  -2   1    1.55    1.80
  -7  -2   1    4.53    1.99
  -7  -2   2  215.73    9.72
  -7  -2   2  209.74    8.73
  -7  -2   3  194.38    9.12
  -7  -2   3  192.10    8.61
  -7  -2   4  127.46    7.57
  -7  -2   4  130.54    7.29
  -7  -2   5   91.25    6.58
  -7  -2   5   86.09    6.23
  -7  -2   6   51.33    5.21
  -7  -2   6   43.98    4.72
  -7  -2   7   23.21    3.94
  -7  -2   7   25.57    4.09
  -7  -2   8  201.31   10.50
  -7  -2   8  205.27   10.51
  -7  -2   9  307.20   13.46
  -7  -2   9  296.54   13.34
  -7  -2  10  431.90   16.98
  -7  -2  10  436.66   16.70
  -7  -1  -2  821.53   21.14
  -7  -1  -1 1338.82   28.47
  -7  -1  -1 1399.84   23.92
  -7  -1  -1 1416.38   22.77
  -7  -1   0  726.23   18.97
  -7  -1   0  724.46   15.99
  -7  -1   1  754.04   19.31
  -7  -1   1  777.34   17.28
  -7  -1   2  774.19   19.25
  -7  -1   2  763.93   17.76
  -7  -1   3 1865.01   34.17
  -7  -1   3 1916.51   33.00
  -7  -1   4 2119.24   36.96
  -7  -1   4 2038.09   35.79
  -7  -1   5 1286.63   27.14
  -7  -1   5 1263.31   26.59
  -7  -1   6 1993.97   36.99
  -7  -1   6 2037.51   37.04
  -7  -1   7  447.30   15.48
  -7  -1   7  449.59   15.36
  -7  -1   8  400.47   15.06
  -7  -1   8  410.23   15.22
  -7  -1   9 1033.74   26.57
  -7  -1   9 1032.41   26.55
  -7  -1  10  307.37   14.34
  -7  -1  10  313.70   14.17
  -7   0  -3  129.81    7.90
  -7   0  -2   11.95    2.79
  -7   0  -2   10.88    1.72
  -7   0  -2   14.33    1.58
  -7   0  -1   56.69    5.08
  -7   0  -1   54.45    3.70
  -7   0   0   31.21    4.00
  -7   0   0   35.80    2.23
  -7   0   0   35.02    3.26
  -7   0   0   38.26    2.92
  -7   0   1  377.72   12.68
  -7   0   1  375.15    6.61
  -7   0   1  394.49    6.54
  -7   0   1  384.86   11.19
  -7   0   2  194.87    8.91
  -7   0   2  204.29    8.35
  -7   0   3  441.31   13.86
  -7   0   3  428.86   13.00
  -7   0   4   84.86    6.09
  -7   0   4   85.57    5.96
  -7   0   5    3.10    2.31
  -7   0   5   -0.69    2.30
  -7   0   6   33.07    4.33
  -7   0   6   27.94    4.17
  -7   0   7   30.54    4.41
  -7   0   7   33.39    4.44
  -7   0   8    3.09    2.61
  -7   0   8    2.44    3.06
  -7   0   9  283.31   13.25
  -7   0   9  280.74   13.13
  -7   0  10    1.36    2.85
  -7   0  10   -3.31    2.91
  -7   1  -3 1246.10   26.57
  -7   1  -2 1115.84   24.48
  -7   1  -2 1138.71   19.18
  -7   1  -1 1154.86   24.29
  -7   1  -1 1155.17   18.64
  -7   1  -1 1104.72   20.16
  -7   1  -1 1166.70   19.47
  -7   1  -1 1126.78   19.15
  -7   1   0  634.24   16.89
  -7   1   0  682.91   11.82
  -7   1   0  647.74   14.73
  -7   1   0  669.89   11.43
  -7   1   0  677.79   12.26
  -7   1   0  653.28   14.04
  -7   1   1  921.51   20.64
  -7   1   1  897.08   12.12
  -7   1   1  914.47   18.88
  -7   1   2 1321.80   26.07
  -7   1   2 1306.34   24.81
  -7   1   3 1113.93   23.63
  -7   1   3 1098.01   22.89
  -7   1   4 1632.94   30.81
  -7   1   4 1620.08   30.44
  -7   1   5 1780.31   33.28
  -7   1   5 1784.89   33.41
  -7   1   6  979.37   23.43
  -7   1   6  957.60   23.25
  -7   1   7 1708.41   34.34
  -7   1   7 1726.60   34.83
  -7   1   8  785.11   22.37
  -7   1   8  769.02   22.11
  -7   1   9  513.01   18.30
  -7   1   9  518.22   18.50
  -7   1  10  450.31   17.91
  -7   1  10  454.27   17.95
  -7   2  -4   21.51    3.28
  -7   2  -3    3.32    2.01
  -7   2  -3    2.50    0.99
  -7   2  -2   17.64    3.06
  -7   2  -2   16.26    2.16
  -7   2  -2   17.40    2.05
  -7   2  -1  308.88   11.05
  -7   2  -1  311.30    8.24
  -7   2  -1  316.62    9.23
  -7   2  -1  308.80    8.18
  -7   2  -1  315.66    8.59
  -7   2   0   48.50    2.75
  -7   2   0   40.67    3.98
  -7   2   0   46.11    2.57
  -7   2   0   41.44    3.58
  -7   2   0   37.93    3.09
  -7   2   1  156.08    3.96
  -7   2   1  144.27    7.24
  -7   2   1  165.07    4.04
  -7   2   1  154.42    7.08
  -7   2   2    7.98    2.40
  -7   2   2    6.10    2.17
  -7   2   3    9.17    2.40
  -7   2   3   14.29    2.83
  -7   2   4  108.14    6.63
  -7   2   4  108.96    6.93
  -7   2   5  236.99   10.30
  -7   2   5  247.34   10.72
  -7   2   6    6.45    2.79
  -7   2   6    4.45    2.47
  -7   2   7   78.01    6.53
  -7   2   7   83.67    7.03
  -7   2   8   16.66    3.52
  -7   2   8   16.72    3.82
  -7   2   9   37.45    5.23
  -7   2   9   33.22    5.04
  -7   3  -4 1117.11   24.46
  -7   3  -4 1188.88   23.46
  -7   3  -3  600.76   16.28
  -7   3  -3  624.20   14.79
  -7   3  -3  636.74   12.42
  -7   3  -2 2410.74   39.26
  -7   3  -2 2412.83   36.11
  -7   3  -2 2436.46   35.16
  -7   3  -1 1888.81   29.95
  -7   3  -1 1805.73   31.86
  -7   3  -1 1898.49   28.37
  -7   3  -1 1882.81   28.80
  -7   3  -1 1830.18   27.86
  -7   3   0  787.90   17.34
  -7   3   0  819.20   14.61
  -7   3   0  766.33   17.96
  -7   3   0  787.27   15.87
  -7   3   0  840.76   14.26
  -7   3   1  927.41   20.17
  -7   3   1 1023.64   15.77
  -7   3   1  937.39   20.49
  -7   3   1  963.60   18.55
  -7   3   1  988.67   14.99
  -7   3   2  312.60   10.88
  -7   3   2  346.92    7.09
  -7   3   2  314.06   11.13
  -7   3   3  340.75   11.65
  -7   3   3  346.29   12.24
  -7   3   3  378.08    7.36
  -7   3   4 1163.68   24.67
  -7   3   4 1156.54   25.50
  -7   3   5  750.55   19.41
  -7   3   5  774.96   20.77
  -7   3   6 1020.32   24.55
  -7   3   6 1037.96   25.69
  -7   3   7  254.44   11.83
  -7   3   7  268.77   12.76
  -7   3   8  308.27   13.76
  -7   3   8  343.46   15.01
  -7   4  -6  108.11    6.94
  -7   4  -5   13.33    2.59
  -7   4  -5   16.61    2.72
  -7   4  -4  124.75    6.67
  -7   4  -4  122.22    6.71
  -7   4  -3    3.33    1.51
  -7   4  -3    4.41    1.53
  -7   4  -3    5.73    1.34
  -7   4  -2   35.65    3.25
  -7   4  -2   43.87    3.91
  -7   4  -2   42.73    3.34
  -7   4  -1   21.28    2.80
  -7   4  -1   26.96    2.65
  -7   4  -1   25.74    2.84
  -7   4   0   81.51    5.21
  -7   4   0   89.72    4.42
  -7   4   0   77.90    5.14
  -7   4   1  125.48    6.54
  -7   4   1  126.63    5.06
  -7   4   1  122.64    6.85
  -7   4   2  125.34    6.63
  -7   4   2  134.10    5.13
  -7   4   2  121.75    7.20
  -7   4   3   23.93    3.31
  -7   4   3   23.96    2.28
  -7   4   3   23.19    3.73
  -7   4   4   23.29    3.38
  -7   4   4   24.15    3.80
  -7   4   5    1.02    1.96
  -7   4   5   -0.57    2.51
  -7   4   6   80.38    6.46
  -7   4   6   79.12    7.08
  -7   4   7  131.38    8.62
  -7   4   7  147.90    9.87
  -7   5  -7  216.41   10.42
  -7   5  -7  213.93    9.71
  -7   5  -6  760.77   18.85
  -7   5  -6  761.77   19.95
  -7   5  -5  356.27   11.73
  -7   5  -5  345.77   12.10
  -7   5  -4  597.80   15.88
  -7   5  -4  597.02   15.27
  -7   5  -3  970.00   20.76
  -7   5  -3  981.16   20.23
  -7   5  -3  977.17   18.71
  -7   5  -2  701.35   16.37
  -7   5  -2  705.48   15.99
  -7   5  -2  685.68   15.78
  -7   5  -1  825.60   17.71
  -7   5  -1  850.23   17.79
  -7   5  -1  830.34   18.60
  -7   5   0 1183.25   22.41
  -7   5   0 1193.17   21.75
  -7   5   0 1165.28   24.05
  -7   5   1 1167.51   22.50
  -7   5   1 1128.27   24.58
  -7   5   1 1209.50   21.53
  -7   5   2 1082.09   22.10
  -7   5   2 1093.40   24.77
  -7   5   2 1108.27   20.62
  -7   5   3 1131.61   23.36
  -7   5   3 1161.12   21.60
  -7   5   3 1135.13   26.37
  -7   5   4  907.88   20.97
  -7   5   4  855.87   23.21
  -7   5   5  272.80   11.20
  -7   5   5  251.22   12.34
  -7   5   6  479.99   16.04
  -7   5   6  507.98   18.64
  -7   6  -6  193.62    9.56
  -7   6  -5   42.10    4.38
  -7   6  -4   -0.53    2.05
  -7   6  -4   -0.77    1.32
  -7   6  -3   19.67    2.41
  -7   6  -3   22.36    3.14
  -7   6  -3   27.46    3.03
  -7   6  -2  111.59    5.43
  -7   6  -2  112.70    6.37
  -7   6  -2  112.69    6.31
  -7   6  -1    3.47    1.63
  -7   6  -1   -0.17    1.05
  -7   6  -1    0.88    1.71
  -7   6   0  246.81    8.37
  -7   6   0  236.70    9.01
  -7   6   0  232.81   10.16
  -7   6   1   32.72    3.23
  -7   6   1   31.05    3.39
  -7   6   1   33.99    4.40
  -7   6   2   57.92    4.33
  -7   6   2   59.99    5.73
  -7   6   2   57.92    4.54
  -7   6   3    5.32    2.04
  -7   6   3    2.47    1.69
  -7   6   3    3.01    2.56
  -7   6   4   28.42    3.66
  -7   6   4   27.88    4.58
  -7   6   5   14.38    4.03
  -7   7  -6  771.27   21.01
  -7   7  -5  911.06   22.74
  -7   7  -4  867.39   21.76
  -7   7  -4  919.45   19.58
  -7   7  -3  388.49   13.27
  -7   7  -3  392.92   12.44
  -7   7  -2  659.80   17.84
  -7   7  -2  684.34   17.96
  -7   7  -1  347.77   12.24
  -7   7  -1  356.64   13.08
  -7   7   0  625.56   18.62
  -7   7   0  644.37   17.16
  -7   7   1  867.98   23.33
  -7   7   1  889.63   20.96
  -7   7   2  493.25   17.59
  -7   7   2  523.21   15.54
  -7   7   3  619.07   20.58
  -7   8  -4  323.96   13.02
  -7   8  -3  124.31    7.87
  -7   8  -3  118.14    7.29
  -7   8  -2   83.94    6.45
  -7   8  -2   80.43    6.28
  -7   8  -1  165.70    8.96
  -7   8  -1  172.36    9.59
  -7   8   0    9.56    2.71
  -7   8   0    6.96    2.74
  -7   8   1   49.74    5.88
  -7   8   1   53.41    5.37
  -6  -7   2    5.12    2.24
  -6  -7   2    4.40    2.23
  -6  -7   3   77.45    5.95
  -6  -7   3   87.45    6.84
  -6  -7   4   72.56    5.77
  -6  -7   4   99.19    7.42
  -6  -7   5  284.18   11.39
  -6  -7   5  307.55   13.40
  -6  -7   6   95.04    6.56
  -6  -7   6  101.32    8.01
  -6  -7   7  219.71   10.10
  -6  -7   7  230.81   11.80
  -6  -7   7  231.33   11.86
  -6  -7   8    5.02    2.21
  -6  -7   8    3.97    3.03
  -6  -7   8    6.16    2.73
  -6  -7   9   20.60    3.57
  -6  -7   9   18.21    4.21
  -6  -7   9   18.45    3.92
  -6  -6   0 1000.02   24.37
  -6  -6   0 1034.16   22.82
  -6  -6   1  631.07   18.15
  -6  -6   1  636.35   17.40
  -6  -6   2  419.89   14.26
  -6  -6   2  450.61   14.65
  -6  -6   3  571.68   16.54
  -6  -6   3  565.95   17.20
  -6  -6   4  708.80   18.66
  -6  -6   4  746.43   20.21
  -6  -6   5 1073.32   24.06
  -6  -6   5 1133.10   26.45
  -6  -6   5 1076.54   25.59
  -6  -6   6 1124.20   25.00
  -6  -6   6 1180.58   27.62
  -6  -6   6 1165.05   27.09
  -6  -6   7  821.38   20.96
  -6  -6   7  887.19   23.34
  -6  -6   7  863.94   22.91
  -6  -6   8  616.81   18.04
  -6  -6   8  657.56   20.30
  -6  -6   8  660.69   20.18
  -6  -6   9  515.89   16.71
  -6  -6   9  553.55   18.75
  -6  -6  10  498.45   16.72
  -6  -6  10  513.85   18.49
  -6  -5  -2   -0.03    2.09
  -6  -5  -1  109.15    7.39
  -6  -5  -1  117.26    6.24
  -6  -5   0   14.48    3.10
  -6  -5   0   12.76    2.47
  -6  -5   1  167.47    8.78
  -6  -5   1  159.07    7.88
  -6  -5   2  103.07    6.70
  -6  -5   2  104.95    6.64
  -6  -5   3  437.53   13.94
  -6  -5   3  435.16   14.40
  -6  -5   3  441.59   14.03
  -6  -5   4   35.24    3.97
  -6  -5   4   33.40    4.24
  -6  -5   4   30.81    4.00
  -6  -5   5  576.12   16.13
  -6  -5   5  574.05   17.28
  -6  -5   5  569.04   16.87
  -6  -5   6  237.23   10.11
  -6  -5   6  227.30   10.61
  -6  -5   7  248.31   10.57
  -6  -5   7  249.15   11.45
  -6  -5   8  291.36   11.88
  -6  -5   8  300.50   12.89
  -6  -5   9   97.74    7.22
  -6  -5   9   96.77    7.53
  -6  -5  10   10.68    3.23
  -6  -5  10    6.90    2.97
  -6  -5  11  140.73    9.13
  -6  -5  11  148.03    9.78
  -6  -4  -1  809.05   20.92
  -6  -4  -1  839.89   17.60
  -6  -4   0 1105.87   24.69
  -6  -4   0 1122.77   21.98
  -6  -4   1  435.17   14.02
  -6  -4   1  431.90   12.71
  -6  -4   2 2017.61   35.33
  -6  -4   2 1939.89   34.42
  -6  -4   2 1982.67   33.74
  -6  -4   3  441.03   13.71
  -6  -4   3  449.10   13.90
  -6  -4   3  437.49   13.26
  -6  -4   4  227.17    9.63
  -6  -4   4  220.79    9.75
  -6  -4   5  436.20   13.79
  -6  -4   5  473.29   14.65
  -6  -4   6  402.88   13.30
  -6  -4   6  397.08   13.72
  -6  -4   7  739.66   19.20
  -6  -4   7  733.83   19.77
  -6  -4   8 1919.33   36.06
  -6  -4   8 1913.44   36.87
  -6  -4   9  937.68   23.52
  -6  -4   9  967.54   24.60
  -6  -4  10  859.20   23.40
  -6  -4  10  884.94   23.99
  -6  -4  11  233.49   12.00
  -6  -4  11  272.48   13.09
  -6  -3  -2   45.90    3.15
  -6  -3  -1   36.89    4.22
  -6  -3  -1   40.80    3.31
  -6  -3   0  396.08   13.32
  -6  -3   0  394.91   11.05
  -6  -3   1    4.04    1.20
  -6  -3   1    4.33    2.30
  -6  -3   1    5.45    2.02
  -6  -3   1    1.46    1.40
  -6  -3   2  272.04   10.39
  -6  -3   2  276.73    7.35
  -6  -3   2  266.45    9.80
  -6  -3   3   16.25    2.98
  -6  -3   3   20.68    1.78
  -6  -3   3   19.47    2.99
  -6  -3   4   53.50    4.63
  -6  -3   4   57.96    4.89
  -6  -3   5  206.70    9.13
  -6  -3   5  204.90    9.13
  -6  -3   6  188.68    8.87
  -6  -3   6  191.50    9.17
  -6  -3   7   76.76    5.85
  -6  -3   7   78.49    6.16
  -6  -3   8   96.71    7.02
  -6  -3   8  104.51    7.19
  -6  -3   9   22.22    3.90
  -6  -3   9   20.14    3.80
  -6  -3  10   51.21    5.62
  -6  -3  10   58.12    5.93
  -6  -3  11   40.35    5.47
  -6  -3  11   27.07    4.69
  -6  -2  -2 1115.92   18.24
  -6  -2  -1  878.55   20.76
  -6  -2  -1  888.58   16.51
  -6  -2   0 1918.38   33.90
  -6  -2   0 1922.47   28.44
  -6  -2   0 1898.76   30.63
  -6  -2   0 1953.01   29.74
  -6  -2   1 2374.73   38.58
  -6  -2   1 2322.42   31.58
  -6  -2   1 2276.09   35.89
  -6  -2   2 1084.35   23.03
  -6  -2   2 1105.30   21.98
  -6  -2   3 1262.19   24.89
  -6  -2   3 1278.06   16.35
  -6  -2   3 1290.20   24.53
  -6  -2   4  660.73   16.73
  -6  -2   4  664.56   16.50
  -6  -2   5  740.38   18.25
  -6  -2   5  745.28   18.18
  -6  -2   6  774.03   19.26
  -6  -2   6  801.84   19.57
  -6  -2   7  779.98   19.99
  -6  -2   7  804.12   20.11
  -6  -2   8  782.87   20.50
  -6  -2   8  751.50   20.28
  -6  -2   9  292.39   12.49
  -6  -2   9  285.29   12.32
  -6  -2  10  476.03   17.09
  -6  -2  10  512.04   17.37
  -6  -2  11  345.35   15.06
  -6  -2  11  331.92   14.41
  -6  -1  -2  142.21    4.76
  -6  -1  -1    3.69    1.10
  -6  -1  -1    5.68    2.28
  -6  -1  -1    6.13    1.64
  -6  -1  -1    5.38    1.37
  -6  -1   0   15.72    2.29
  -6  -1   0   16.67    1.70
  -6  -1   0   17.59    2.86
  -6  -1   1    6.44    1.82
  -6  -1   1    7.63    2.19
  -6  -1   1    8.45    1.06
  -6  -1   2  679.33   15.53
  -6  -1   2  689.14   16.67
  -6  -1   3  103.34    5.87
  -6  -1   3   97.80    5.82
  -6  -1   4 1037.45   21.29
  -6  -1   4  966.25   21.13
  -6  -1   5   20.98    3.24
  -6  -1   5   15.57    2.81
  -6  -1   6    2.28    2.09
  -6  -1   6    1.09    1.91
  -6  -1   7  106.62    7.09
  -6  -1   7  105.86    7.00
  -6  -1   8  344.66   13.19
  -6  -1   8  353.36   13.27
  -6  -1   9   36.25    4.76
  -6  -1   9   37.49    4.95
  -6  -1  10  776.97   22.11
  -6  -1  10  736.10   22.24
  -6  -1  11    8.25    3.03
  -6  -1  11    9.76    3.36
  -6   0  -7  350.47   11.66
  -6   0  -3 1292.43   16.76
  -6   0  -2  682.06   17.45
  -6   0  -2  705.70   13.23
  -6   0  -2  690.02   14.71
  -6   0  -2  721.44   14.42
  -6   0  -2  718.02   11.88
  -6   0  -1  687.12   17.10
  -6   0  -1  752.96   14.35
  -6   0  -1  726.32   13.61
  -6   0  -1  701.86   14.00
  -6   0  -1  753.25   13.32
  -6   0   0  544.21   12.50
  -6   0   0  589.49   10.42
  -6   0   0  563.38   11.94
  -6   0   0  560.01   14.75
  -6   0   1  648.21   15.93
  -6   0   1  638.43   14.42
  -6   0   1  679.04    9.87
  -6   0   2 2098.42   33.82
  -6   0   2 2004.05   32.37
  -6   0   3  919.93   19.79
  -6   0   3  915.17   19.13
  -6   0   4 1630.19   29.54
  -6   0   4 1688.94   29.57
  -6   0   5  981.21   21.39
  -6   0   5  984.64   21.48
  -6   0   6  141.72    7.77
  -6   0   6  155.84    8.09
  -6   0   7  985.68   23.14
  -6   0   7 1035.63   23.60
  -6   0   8  425.81   15.02
  -6   0   8  415.07   14.65
  -6   0   9  542.67   17.97
  -6   0   9  530.14   17.53
  -6   0  10  561.64   19.42
  -6   0  10  607.37   19.45
  -6   0  11  228.89   12.67
  -6   0  11  226.88   12.16
  -6   1  -3  210.69    5.31
  -6   1  -3  199.52    4.16
  -6   1  -3  199.30    4.26
  -6   1  -2  384.84   12.09
  -6   1  -2  373.45    9.75
  -6   1  -2  384.01    8.76
  -6   1  -2  392.21    7.94
  -6   1  -1   76.60    3.99
  -6   1  -1   76.90    3.72
  -6   1  -1   82.41    5.30
  -6   1  -1   77.96    4.52
  -6   1  -1   74.54    3.50
  -6   1   0  508.00    9.63
  -6   1   0  475.32   11.55
  -6   1   0  503.49    9.47
  -6   1   0  495.70   13.35
  -6   1   0  506.61   12.25
  -6   1   0  509.33   11.17
  -6   1   1  124.74    3.33
  -6   1   1  121.48    5.65
  -6   1   1  125.45    2.96
  -6   1   1  117.18    3.03
  -6   1   1  119.92    6.16
  -6   1   1  131.83    5.54
  -6   1   2  112.47    5.71
  -6   1   2  109.19    5.35
  -6   1   2  110.67    5.98
  -6   1   3  212.69    8.48
  -6   1   3  211.45    8.34
  -6   1   4    0.07    1.72
  -6   1   4   -0.18    2.02
  -6   1   5  142.78    7.46
  -6   1   5  149.55    7.69
  -6   1   6   30.01    3.87
  -6   1   6   29.17    4.00
  -6   1   7   -3.69    2.69
  -6   1   7   -1.26    2.46
  -6   1   8   10.10    3.01
  -6   1   8    8.80    2.96
  -6   1   9    2.99    2.70
  -6   1   9    6.33    3.15
  -6   1  10   46.96    5.79
  -6   1  10   54.00    6.14
  -6   2  -4 1002.75   13.14
  -6   2  -3 2149.58   28.51
  -6   2  -3 2089.03   35.01
  -6   2  -3 2064.10   32.25
  -6   2  -3 2113.38   27.38
  -6   2  -2 1224.49   19.49
  -6   2  -2 1200.14   23.48
  -6   2  -2 1250.74   21.18
  -6   2  -2 1199.56   21.59
  -6   2  -2 1220.79   18.62
  -6   2  -2 1213.28   20.51
  -6   2  -1 2186.74   32.25
  -6   2  -1 2239.13   31.45
  -6   2  -1 2213.82   35.43
  -6   2  -1 2208.28   32.65
  -6   2  -1 2225.93   33.84
  -6   2  -1 2259.19   31.64
  -6   2  -1 2244.07   31.12
  -6   2   0 1536.80   25.16
  -6   2   0 1488.62   26.43
  -6   2   0 1546.04   22.18
  -6   2   0 1493.71   24.40
  -6   2   0 1534.08   24.52
  -6   2   0 1558.96   21.83
  -6   2   1  798.11   17.00
  -6   2   1  823.56   17.67
  -6   2   1  852.67   12.85
  -6   2   1  837.76   16.34
  -6   2   1  853.77   12.51
  -6   2   1  851.13   16.88
  -6   2   2  509.07    7.80
  -6   2   2  492.14   12.88
  -6   2   2  496.08   12.96
  -6   2   2  497.54   12.02
  -6   2   2  462.04    6.67
  -6   2   3 1448.66   26.50
  -6   2   3 1489.10   26.93
  -6   2   4  590.57   15.48
  -6   2   4  652.55   16.39
  -6   2   5 1652.09   30.54
  -6   2   5 1707.97   31.55
  -6   2   5 1690.03   20.58
  -6   2   5 1652.55   20.65
  -6   2   6 1580.07   31.24
  -6   2   6 1585.16   21.36
  -6   2   7  785.62   21.11
  -6   2   7  781.13   20.70
  -6   2   8  381.68   14.86
  -6   2   8  392.45   14.82
  -6   2   9  248.62   12.44
  -6   2   9  252.09   12.40
  -6   2  10  119.74    9.16
  -6   2  10  114.42    9.01
  -6   3  -4    3.08    0.74
  -6   3  -4    9.92    1.49
  -6   3  -3 1275.60   19.45
  -6   3  -3 1273.64   23.92
  -6   3  -3 1230.60   22.48
  -6   3  -3 1257.89   20.53
  -6   3  -3 1228.42   21.04
  -6   3  -3 1256.02   19.14
  -6   3  -2    2.95    1.04
  -6   3  -2    3.51    1.27
  -6   3  -2    1.09    1.40
  -6   3  -2    4.50    1.44
  -6   3  -2    2.32    0.96
  -6   3  -2    6.76    1.31
  -6   3  -2    6.79    1.22
  -6   3  -1  800.31   15.89
  -6   3  -1  803.67   17.10
  -6   3  -1  820.36   15.31
  -6   3  -1  813.31   16.34
  -6   3  -1  825.44   14.84
  -6   3  -1  823.18   15.65
  -6   3  -1  805.54   14.86
  -6   3   0   55.50    3.95
  -6   3   0   49.81    3.81
  -6   3   0   57.80    3.16
  -6   3   0   58.16    3.34
  -6   3   0   56.78    3.70
  -6   3   0   57.80    2.97
  -6   3   1   37.80    3.54
  -6   3   1   43.00    2.50
  -6   3   1   41.75    3.55
  -6   3   1   42.58    2.99
  -6   3   1   44.18    2.35
  -6   3   2  422.98    8.65
  -6   3   2  391.25   11.81
  -6   3   2  384.87   11.26
  -6   3   2  392.29   10.28
  -6   3   2  397.18    7.63
  -6   3   3  464.81   13.00
  -6   3   3  512.09    8.91
  -6   3   3  517.13   10.17
  -6   3   3  461.77   13.76
  -6   3   3  492.67    8.81
  -6   3   4  396.55   12.32
  -6   3   4  408.20   13.41
  -6   3   4  432.42    8.23
  -6   3   4  421.59    8.21
  -6   3   5  179.79    8.52
  -6   3   5  174.70    9.06
  -6   3   5  189.99    5.42
  -6   3   6    3.16    2.13
  -6   3   6    6.78    1.33
  -6   3   6    3.14    2.33
  -6   3   7   89.07    6.85
  -6   3   7  113.84    7.95
  -6   3   8   10.18    3.17
  -6   3   8    6.14    2.90
  -6   3   9  253.78   12.95
  -6   3   9  394.76   16.24
  -6   4  -5  789.17   18.74
  -6   4  -4  822.22   18.56
  -6   4  -4  839.00   18.43
  -6   4  -3 1693.79   25.47
  -6   4  -3 1618.28   28.07
  -6   4  -3 1614.95   27.98
  -6   4  -3 1712.52   23.56
  -6   4  -3 1647.67   25.43
  -6   4  -3 1704.59   25.68
  -6   4  -2 1789.92   27.88
  -6   4  -2 1781.94   29.05
  -6   4  -2 1790.88   29.23
  -6   4  -2 1745.94   27.68
  -6   4  -2 1854.79   24.92
  -6   4  -2 1792.52   27.98
  -6   4  -2 1838.64   28.46
  -6   4  -1 1425.77   24.56
  -6   4  -1 1399.77   24.27
  -6   4  -1 1446.68   23.97
  -6   4  -1 1468.58   21.00
  -6   4  -1 1427.52   24.03
  -6   4  -1 1417.10   23.08
  -6   4   0 1329.12   24.57
  -6   4   0 1341.33   23.48
  -6   4   0 1395.43   22.67
  -6   4   0 1394.58   20.96
  -6   4   0 1371.27   21.79
  -6   4   1  263.55    9.51
  -6   4   1  265.94    8.72
  -6   4   1  269.69    7.75
  -6   4   1  269.88    7.54
  -6   4   1  271.22    7.34
  -6   4   2  509.21   13.12
  -6   4   2  550.39   11.97
  -6   4   2  532.41   14.79
  -6   4   2  527.65   10.92
  -6   4   3  315.84   10.44
  -6   4   3  320.10   11.75
  -6   4   3  334.42    8.39
  -6   4   4  669.15   18.38
  -6   4   4  707.16   13.71
  -6   4   4  707.27   14.96
  -6   4   4  649.70   16.65
  -6   4   5  842.93   22.25
  -6   4   5  894.85   21.04
  -6   4   6  467.21   16.39
  -6   4   6  455.47   14.94
  -6   4   7  552.78   18.77
  -6   4   7  546.80   17.54
  -6   4   8  342.68   15.27
  -6   4   8  307.06   13.67
  -6   5  -8  214.37   10.61
  -6   5  -7  412.43   14.28
  -6   5  -6  299.01   11.51
  -6   5  -5  561.82   15.74
  -6   5  -5  600.72   14.64
  -6   5  -4  179.01    6.07
  -6   5  -4  172.72    7.03
  -6   5  -4  163.43    7.59
  -6   5  -3   14.20    2.04
  -6   5  -3   10.87    1.81
  -6   5  -3   12.43    2.29
  -6   5  -2  127.91    5.94
  -6   5  -2  127.95    5.51
  -6   5  -2  125.51    6.18
  -6   5  -2  132.86    5.50
  -6   5  -1  268.85    8.97
  -6   5  -1  256.51    7.97
  -6   5  -1  256.36    9.17
  -6   5  -1  256.20    8.26
  -6   5   0  445.74   11.72
  -6   5   0  438.61   10.99
  -6   5   0  433.83   12.83
  -6   5   0  440.17   11.12
  -6   5   1  834.98   16.97
  -6   5   1  816.89   19.45
  -6   5   1  831.35   17.19
  -6   5   1  832.47   16.44
  -6   5   2  249.35    8.61
  -6   5   2  252.49   10.51
  -6   5   2  266.78    8.94
  -6   5   3   67.41    4.77
  -6   5   3   69.45    5.85
  -6   5   3   74.38    4.80
  -6   5   4   14.29    2.48
  -6   5   4   11.72    2.42
  -6   5   4   18.04    2.52
  -6   5   4   18.93    3.89
  -6   5   5  203.20    9.28
  -6   5   5  209.09   10.91
  -6   5   5  220.87    8.34
  -6   5   6    4.46    2.45
  -6   5   6    4.04    3.13
  -6   5   7  131.59    8.45
  -6   5   7  122.38    9.24
  -6   6  -8  654.27   19.50
  -6   6  -7  452.76   15.33
  -6   6  -6  801.12   17.41
  -6   6  -6  771.11   20.01
  -6   6  -5  588.60   13.67
  -6   6  -5  599.20   12.71
  -6   6  -4 1270.71   26.29
  -6   6  -4 1295.10   22.17
  -6   6  -4 1342.64   23.10
  -6   6  -3  950.66   17.29
  -6   6  -3  942.51   21.01
  -6   6  -3  956.01   19.37
  -6   6  -2 1122.92   23.06
  -6   6  -2 1173.10   19.59
  -6   6  -2 1139.12   22.74
  -6   6  -1 2344.81   33.17
  -6   6  -1 2333.72   37.79
  -6   6  -1 2274.74   38.13
  -6   6   0  898.69   19.62
  -6   6   0  952.11   17.00
  -6   6   0  906.21   21.22
  -6   6   1 1281.60   21.75
  -6   6   1 1244.96   26.65
  -6   6   1 1194.67   23.91
  -6   6   2 1550.32   26.13
  -6   6   2 1552.54   28.50
  -6   6   3  184.18    7.75
  -6   6   3  184.44   10.17
  -6   6   3  208.68    9.08
  -6   6   4  813.81   18.93
  -6   6   4  785.99   22.90
  -6   6   4  863.62   19.33
  -6   6   4  855.91   20.47
  -6   6   5  478.54   14.81
  -6   6   5  473.67   17.76
  -6   6   5  470.02   15.22
  -6   6   6  297.51   14.41
  -6   7  -7  221.24   10.73
  -6   7  -6  317.34   12.67
  -6   7  -5   53.88    5.18
  -6   7  -5   56.45    4.01
  -6   7  -4  166.90    8.56
  -6   7  -4  153.75    7.10
  -6   7  -3   91.95    6.35
  -6   7  -3   95.04    5.84
  -6   7  -2  125.93    7.22
  -6   7  -2  118.58    6.95
  -6   7  -1  284.51   10.98
  -6   7  -1  301.67   11.71
  -6   7   0  138.72    8.23
  -6   7   0  137.61    7.54
  -6   7   1   27.01    4.04
  -6   7   1   34.62    4.00
  -6   7   2  353.98   12.71
  -6   7   2  342.15   14.23
  -6   7   3    8.77    2.89
  -6   7   3    8.35    3.35
  -6   7   4  325.74   13.10
  -6   7   4  327.79   14.91
  -6   8  -6  750.78   21.05
  -6   8  -5  794.06   21.62
  -6   8  -5  821.02   18.81
  -6   8  -4  545.41   16.99
  -6   8  -3  648.82   18.62
  -6   8  -2  550.04   16.90
  -6   8  -1  211.85   10.09
  -6   8   0  915.92   23.91
  -6   8   0  837.37   21.90
  -6   8   1  438.74   16.58
  -6   8   1  408.10   14.80
  -6   8   2  492.87   18.15
  -6   8   2  489.45   16.68
  -6   9  -4  332.86   13.82
  -6   9  -3  250.59   11.86
  -6   9  -2  118.55    8.11
  -6   9  -1   28.16    4.39
  -5  -8   3   18.23    3.02
  -5  -8   3   16.74    3.52
  -5  -8   4  114.31    6.70
  -5  -8   4  118.36    8.20
  -5  -8   5  122.01    6.85
  -5  -8   5  133.72    8.87
  -5  -8   6  295.02   10.85
  -5  -8   6  306.88   13.66
  -5  -8   7   80.36    5.65
  -5  -8   7   95.11    7.81
  -5  -8   8  276.47   10.73
  -5  -8   8  277.60   13.34
  -5  -8   9   15.63    2.83
  -5  -8   9   15.55    3.84
  -5  -7   0  114.24    7.37
  -5  -7   0  119.45    7.24
  -5  -7   1  745.45   19.02
  -5  -7   1  741.98   19.76
  -5  -7   2  349.88   12.19
  -5  -7   2  348.91   13.08
  -5  -7   3  725.07   18.00
  -5  -7   3  754.91   20.35
  -5  -7   4  683.02   17.24
  -5  -7   4  693.47   19.47
  -5  -7   5 1032.54   22.19
  -5  -7   5 1102.60   26.26
  -5  -7   6 1104.91   23.39
  -5  -7   6 1163.94   27.32
  -5  -7   7  429.85   13.39
  -5  -7   7  466.03   16.43
  -5  -7   7  451.16   16.19
  -5  -7   8  692.37   18.04
  -5  -7   8  674.10   20.66
  -5  -7   8  703.28   21.08
  -5  -7   9  347.57   12.57
  -5  -7   9  378.32   15.10
  -5  -7   9  365.82   14.92
  -5  -7  10  165.95    8.85
  -5  -7  10  167.61   10.21
  -5  -7  10  162.65   10.18
  -5  -6  -1  305.23   11.93
  -5  -6  -1  320.65   11.11
  -5  -6   0  106.35    6.81
  -5  -6   0  109.40    6.56
  -5  -6   1    9.22    2.56
  -5  -6   1   10.73    2.60
  -5  -6   2   39.23    4.08
  -5  -6   2   39.57    4.35
  -5  -6   3    5.03    2.11
  -5  -6   3    4.60    2.46
  -5  -6   4  120.15    6.68
  -5  -6   4  128.53    7.62
  -5  -6   5  100.20    6.06
  -5  -6   5  100.36    6.98
  -5  -6   5  106.84    7.13
  -5  -6   6   60.85    4.92
  -5  -6   6   56.73    5.41
  -5  -6   6   59.45    5.65
  -5  -6   7   65.25    5.09
  -5  -6   7   71.89    6.10
  -5  -6   7   76.07    6.30
  -5  -6   8   13.13    2.84
  -5  -6   8   10.99    3.03
  -5  -6   8   10.97    3.35
  -5  -6   9   83.86    6.15
  -5  -6   9   92.08    7.19
  -5  -6  10    6.49    2.65
  -5  -6  10    7.95    2.85
  -5  -6  11   59.05    5.87
  -5  -6  11   70.02    6.63
  -5  -5  -2  780.66   16.90
  -5  -5  -1  629.30   17.63
  -5  -5  -1  680.72   15.94
  -5  -5   0  601.78   16.28
  -5  -5   0  594.83   15.14
  -5  -5   1  853.71   19.90
  -5  -5   1  883.34   19.59
  -5  -5   2  413.57   12.74
  -5  -5   2  424.74   13.06
  -5  -5   3 1171.11   23.39
  -5  -5   3 1162.29   24.56
  -5  -5   3 1192.37   24.33
  -5  -5   4  950.87   18.36
  -5  -5   4  979.77   20.79
  -5  -5   4 1008.88   22.40
  -5  -5   4 1010.48   22.13
  -5  -5   5  964.83   20.62
  -5  -5   5  959.23   18.34
  -5  -5   5  989.63   22.49
  -5  -5   5  962.70   22.04
  -5  -5   6  643.80   17.84
  -5  -5   6  649.28   16.42
  -5  -5   7  987.01   23.39
  -5  -5   7 1020.83   21.96
  -5  -5   8  262.57   11.32
  -5  -5   8  252.61   10.30
  -5  -5   9  804.78   21.55
  -5  -5   9  825.95   20.67
  -5  -5  10  599.02   18.63
  -5  -5  10  599.31   17.98
  -5  -5  11  319.82   13.68
  -5  -5  11  331.39   13.58
  -5  -5  12  341.70   14.45
  -5  -5  12  302.34   13.71
  -5  -4  -5  236.16   11.11
  -5  -4  -2  175.99    6.64
  -5  -4  -1  201.76    7.54
  -5  -4   0  501.15   14.40
  -5  -4   0  512.86   13.07
  -5  -4   1 1766.80   31.58
  -5  -4   1 1860.96   28.96
  -5  -4   1 1837.27   30.82
  -5  -4   2    3.15    1.19
  -5  -4   2    7.00    2.22
  -5  -4   2    6.06    2.03
  -5  -4   3  563.17   14.64
  -5  -4   3  587.95   12.49
  -5  -4   3  592.85   15.38
  -5  -4   3  570.65   14.78
  -5  -4   4    0.00    2.05
  -5  -4   4    1.20    0.87
  -5  -4   4    3.84    1.83
  -5  -4   5   42.78    4.31
  -5  -4   5   36.59    3.80
  -5  -4   6  508.70   14.95
  -5  -4   6  521.63   14.30
  -5  -4   7  308.66   11.70
  -5  -4   7  321.29   11.21
  -5  -4   8   88.39    6.44
  -5  -4   8   83.41    6.06
  -5  -4   9   -1.11    2.37
  -5  -4   9   11.12    2.80
  -5  -4  10   37.88    4.73
  -5  -4  10   25.82    3.98
  -5  -4  11    2.09    2.38
  -5  -4  11    8.09    3.03
  -5  -4  12    8.82    2.96
  -5  -4  12    6.96    3.08
  -5  -3  -6  405.52   14.32
  -5  -3  -3  439.12    9.61
  -5  -3  -2  865.44   16.01
  -5  -3  -1  608.59   13.16
  -5  -3   0 1898.09   32.72
  -5  -3   0 1960.91   29.37
  -5  -3   0 1920.70   29.97
  -5  -3   1 2351.55   33.27
  -5  -3   1 2375.53   37.39
  -5  -3   1 2324.31   35.85
  -5  -3   1 2309.69   35.22
  -5  -3   2 1412.31   25.38
  -5  -3   2 1377.81   25.63
  -5  -3   3  799.77   17.79
  -5  -3   3  835.42   13.95
  -5  -3   3  836.73   17.89
  -5  -3   4  959.08   20.09
  -5  -3   4  967.87   19.92
  -5  -3   5  295.69   10.34
  -5  -3   5  276.44    9.86
  -5  -3   6 1754.68   31.71
  -5  -3   6 1795.77   31.15
  -5  -3   7 1357.66   27.16
  -5  -3   7 1343.41   26.58
  -5  -3   8 1809.68   33.67
  -5  -3   8 1803.29   33.14
  -5  -3   9 1203.07   26.37
  -5  -3   9 1177.48   26.36
  -5  -3  10  732.61   20.26
  -5  -3  10  713.21   20.26
  -5  -3  11  544.60   17.87
  -5  -3  11  557.88   18.53
  -5  -3  12  306.18   13.50
  -5  -3  12  307.85   14.21
  -5  -2  -6  163.29    8.35
  -5  -2  -3  188.31    5.08
  -5  -2  -2  296.88    7.35
  -5  -2  -1  535.74   11.89
  -5  -2  -1  520.86   11.14
  -5  -2   0  121.94    6.28
  -5  -2   0  113.37    5.24
  -5  -2   0  119.16    4.64
  -5  -2   0  115.13    4.93
  -5  -2   1   83.79    3.45
  -5  -2   1   81.87    5.08
  -5  -2   1   87.16    4.71
  -5  -2   2  196.18    7.84
  -5  -2   2  209.20    5.13
  -5  -2   3  189.84    4.19
  -5  -2   3  196.74    7.63
  -5  -2   3  190.80    7.44
  -5  -2   4  392.68   11.41
  -5  -2   4  396.86   11.48
  -5  -2   5  371.56   11.36
  -5  -2   5  379.10   11.48
  -5  -2   6   30.95    3.49
  -5  -2   6   34.00    3.80
  -5  -2   7   62.18    5.03
  -5  -2   7   68.67    5.38
  -5  -2   8    6.76    2.25
  -5  -2   8    5.73    2.59
  -5  -2   9  159.26    8.72
  -5  -2   9  148.82    8.39
  -5  -2   9  155.88    6.06
  -5  -2  10    3.99    2.72
  -5  -2  10    5.09    1.63
  -5  -2  10    2.47    2.34
  -5  -2  11   32.92    4.82
  -5  -2  11   32.81    4.93
  -5  -2  12    7.47    2.99
  -5  -2  12   13.27    3.90
  -5  -1  -7  535.80   15.11
  -5  -1  -3 1145.34   15.77
  -5  -1  -2 1612.31   25.50
  -5  -1  -2 1590.00   22.41
  -5  -1  -1 1667.52   24.68
  -5  -1  -1 1593.87   24.64
  -5  -1   0 3231.44   44.10
  -5  -1   0 3284.63   41.85
  -5  -1   0 3319.82   47.38
  -5  -1   1 2596.81   37.26
  -5  -1   1 2569.47   32.82
  -5  -1   1 2680.46   38.90
  -5  -1   1 2568.77   39.00
  -5  -1   2 3352.04   45.04
  -5  -1   2 3326.10   46.13
  -5  -1   3 3575.23   49.86
  -5  -1   3 3497.52   50.27
  -5  -1   4  684.20   15.65
  -5  -1   4  684.96   15.69
  -5  -1   5  977.98   20.19
  -5  -1   5  995.78   20.32
  -5  -1   6 1029.21   21.63
  -5  -1   6 1008.11   21.43
  -5  -1   7   59.21    5.01
  -5  -1   7   60.13    5.05
  -5  -1   7   70.73    3.01
  -5  -1   8 1576.67   30.93
  -5  -1   8 1564.12   30.44
  -5  -1   8 1575.89   23.68
  -5  -1   9  769.72   20.99
  -5  -1   9  756.77   20.18
  -5  -1   9  810.40   15.83
  -5  -1  10  730.13   21.09
  -5  -1  10  694.58   19.97
  -5  -1  10  719.41   16.06
  -5  -1  11  607.97   19.14
  -5  -1  11  579.68   19.85
  -5   0  -8    3.77    1.72
  -5   0  -7   82.11    5.20
  -5   0  -3  593.47   13.01
  -5   0  -3  569.44    7.84
  -5   0  -2  396.68    8.45
  -5   0  -2  399.09    9.62
  -5   0  -2  408.83    9.94
  -5   0  -2  403.79    7.47
  -5   0  -1    3.82    1.18
  -5   0  -1    4.97    1.26
  -5   0  -1    1.98    1.25
  -5   0  -1    1.95    0.85
  -5   0  -1    4.73    2.04
  -5   0   0  734.90   12.27
  -5   0   0  726.19   11.71
  -5   0   0  706.59   13.70
  -5   0   0  733.86   15.39
  -5   0   0  707.96   15.61
  -5   0   1  281.97    8.17
  -5   0   1  292.32    5.09
  -5   0   1  297.65    8.69
  -5   0   1  295.55    8.92
  -5   0   1  286.34    9.08
  -5   0   2 1545.20   25.10
  -5   0   2 1527.35   25.21
  -5   0   2 1608.23   26.10
  -5   0   2 1523.92   25.83
  -5   0   3 1497.99   25.59
  -5   0   3 1572.04   25.81
  -5   0   3 1583.70   26.39
  -5   0   3 1535.14   26.03
  -5   0   4  216.16    8.07
  -5   0   4  217.85    7.90
  -5   0   4  218.38    8.11
  -5   0   5   68.84    4.83
  -5   0   5   76.19    5.08
  -5   0   6  652.95   16.54
  -5   0   6  678.61   16.87
  -5   0   6  686.05   10.38
  -5   0   7   22.53    3.60
  -5   0   7   20.53    3.41
  -5   0   7   20.47    1.83
  -5   0   8  622.74   17.97
  -5   0   8  606.42   17.22
  -5   0   8  658.69   13.13
  -5   0   9    6.50    1.75
  -5   0   9    7.88    3.03
  -5   0   9    7.52    2.80
  -5   0  10    1.34    1.55
  -5   0  10    1.19    2.67
  -5   0  10    1.27    2.59
  -5   0  11    5.37    2.79
  -5   0  11    9.66    3.50
  -5   1  -7  626.65   14.37
  -5   1  -3 1107.90   15.45
  -5   1  -3 1096.79   19.52
  -5   1  -3 1059.66   13.93
  -5   1  -2 1594.86   22.48
  -5   1  -2 1592.13   24.43
  -5   1  -2 1643.36   25.91
  -5   1  -2 1586.09   21.48
  -5   1  -1 1702.19   24.90
  -5   1  -1 1713.85   28.20
  -5   1  -1 1754.12   27.01
  -5   1  -1 1698.85   24.67
  -5   1  -1 1763.84   24.23
  -5   1   0 2148.95   30.88
  -5   1   0 2158.34   28.42
  -5   1   0 2138.26   32.98
  -5   1   0 2178.36   32.37
  -5   1   0 2205.76   31.65
  -5   1   0 2181.60   28.40
  -5   1   0 2206.94   30.41
  -5   1   1 3430.90   47.13
  -5   1   1 3531.90   41.92
  -5   1   1 3478.14   48.27
  -5   1   1 3513.39   41.82
  -5   1   1 3557.02   46.98
  -5   1   1 3525.47   48.17
  -5   1   1 3592.39   46.74
  -5   1   2 3460.74   47.93
  -5   1   2 3453.55   48.24
  -5   1   2 3475.17   47.15
  -5   1   2 3541.81   48.38
  -5   1   2 3559.59   47.55
  -5   1   3 2467.12   37.27
  -5   1   3 2417.13   37.14
  -5   1   3 2581.28   36.74
  -5   1   3 2545.09   37.23
  -5   1   4 2813.16   42.47
  -5   1   4 2877.75   42.30
  -5   1   4 2927.21   42.04
  -5   1   5 1122.02   22.27
  -5   1   5 1132.65   22.51
  -5   1   5 1115.10   14.86
  -5   1   6 1332.42   26.09
  -5   1   6 1300.99   26.14
  -5   1   6 1355.12   19.25
  -5   1   7 1401.62   28.25
  -5   1   7 1430.94   28.35
  -5   1   7 1396.63   21.68
  -5   1   8  810.40   21.18
  -5   1   8  811.07   21.04
  -5   1   8  855.99   16.30
  -5   1   9 1083.10   26.64
  -5   1   9 1084.45   26.22
  -5   1   9 1154.09   21.49
  -5   1  10  415.92   15.86
  -5   1  10  425.75   16.61
  -5   1  11  445.43   16.93
  -5   1  11  435.34   17.97
  -5   2  -7   67.47    3.85
  -5   2  -5  300.16    8.47
  -5   2  -4  728.31   14.23
  -5   2  -3  700.45   11.33
  -5   2  -3  686.49   13.65
  -5   2  -3  716.05   14.57
  -5   2  -3  715.10   10.83
  -5   2  -2 2591.15   34.28
  -5   2  -2 2584.83   38.29
  -5   2  -2 2625.46   36.26
  -5   2  -2 2564.15   33.54
  -5   2  -2 2612.90   35.96
  -5   2  -1  712.49   13.24
  -5   2  -1  724.97   15.13
  -5   2  -1  711.67   13.02
  -5   2  -1  710.92   14.06
  -5   2  -1  723.32   13.32
  -5   2  -1  728.22   12.92
  -5   2  -1  730.88   12.95
  -5   2   0  301.01    8.18
  -5   2   0  308.52    6.93
  -5   2   0  294.24    8.77
  -5   2   0  308.67    7.79
  -5   2   0  309.76    8.57
  -5   2   0  319.41    8.12
  -5   2   0  309.05    6.68
  -5   2   1   46.24    3.38
  -5   2   1   46.25    3.44
  -5   2   1   57.68    2.41
  -5   2   1   52.13    3.51
  -5   2   1   49.30    3.02
  -5   2   1   53.23    2.16
  -5   2   1   48.62    3.25
  -5   2   2   11.30    2.17
  -5   2   2    7.63    1.93
  -5   2   2    4.76    0.75
  -5   2   2    6.69    1.43
  -5   2   2    7.18    1.57
  -5   2   2    6.52    1.55
  -5   2   2    7.72    0.79
  -5   2   3   68.32    2.74
  -5   2   3   67.68    2.17
  -5   2   3   64.01    4.48
  -5   2   3   66.32    4.27
  -5   2   3   73.41    4.12
  -5   2   3   65.52    2.17
  -5   2   4 1049.27   20.66
  -5   2   4 1017.23   21.11
  -5   2   4 1084.94   15.16
  -5   2   5  309.97   10.48
  -5   2   5  284.82   10.63
  -5   2   5  297.83    6.78
  -5   2   6   47.22    4.43
  -5   2   6   45.68    4.64
  -5   2   6   45.83    2.82
  -5   2   7   -0.17    2.10
  -5   2   7    2.38    1.34
  -5   2   7    0.88    2.21
  -5   2   8    3.12    1.50
  -5   2   8    3.06    2.56
  -5   2   8    0.26    2.12
  -5   2   9    7.29    2.07
  -5   2   9    4.04    2.79
  -5   2   9   10.31    3.49
  -5   2  10  183.20   10.71
  -5   2  10  188.48   11.16
  -5   3  -5 2654.95   35.67
  -5   3  -4  889.89   13.06
  -5   3  -4  880.34   15.09
  -5   3  -4  901.75   13.22
  -5   3  -3 2720.04   35.17
  -5   3  -3 2607.02   39.00
  -5   3  -3 2659.84   36.28
  -5   3  -3 2745.05   38.62
  -5   3  -3 2735.27   35.25
  -5   3  -2 3828.79   49.37
  -5   3  -2 3888.52   52.06
  -5   3  -2 3835.63   51.24
  -5   3  -2 3890.10   50.00
  -5   3  -2 3854.69   48.28
  -5   3  -2 3894.85   50.73
  -5   3  -2 3872.51   49.35
  -5   3  -1 2277.06   32.62
  -5   3  -1 2215.62   32.31
  -5   3  -1 2278.70   33.41
  -5   3  -1 2286.42   32.67
  -5   3  -1 2323.33   30.52
  -5   3  -1 2344.58   32.52
  -5   3  -1 2276.23   31.70
  -5   3   0 2213.01   33.06
  -5   3   0 2149.47   32.40
  -5   3   0 2222.63   31.07
  -5   3   0 2264.25   32.85
  -5   3   0 2285.65   30.43
  -5   3   0 2320.91   33.00
  -5   3   0 2222.34   30.41
  -5   3   1 2696.56   40.34
  -5   3   1 2765.95   37.02
  -5   3   1 2665.56   39.24
  -5   3   1 2744.05   37.76
  -5   3   1 2760.81   36.43
  -5   3   2 1078.95   20.74
  -5   3   2 1097.88   17.39
  -5   3   2 1039.69   19.29
  -5   3   2 1058.88   18.51
  -5   3   2 1081.02   16.44
  -5   3   3 2651.02   39.72
  -5   3   3 2668.99   41.37
  -5   3   4 1513.60   28.21
  -5   3   4 1550.58   22.86
  -5   3   4 1551.70   24.21
  -5   3   5 2656.85   41.95
  -5   3   5 2691.36   43.48
  -5   3   5 2662.67   36.89
  -5   3   6 1032.70   22.95
  -5   3   6 1073.43   24.23
  -5   3   6 1055.89   19.23
  -5   3   7  858.61   21.64
  -5   3   7  847.51   22.11
  -5   3   7  900.61   18.26
  -5   3   8  842.12   22.75
  -5   3   8  830.01   22.95
  -5   3   8  870.11   19.07
  -5   3   9   88.57    7.70
  -5   3   9   97.73    8.04
  -5   4  -5  566.15    9.15
  -5   4  -5  555.50    9.18
  -5   4  -5  538.80   14.59
  -5   4  -5  557.73    9.79
  -5   4  -5  545.01    9.70
  -5   4  -4  521.62   10.00
  -5   4  -4  501.50   13.37
  -5   4  -4  524.84    9.86
  -5   4  -4  535.82    9.32
  -5   4  -4  525.66   10.50
  -5   4  -3  945.32   16.13
  -5   4  -3  905.93   18.46
  -5   4  -3  938.36   17.65
  -5   4  -3  950.02   13.58
  -5   4  -3  940.17   15.59
  -5   4  -3  956.51   16.55
  -5   4  -3  936.21   18.09
  -5   4  -2  964.52   17.34
  -5   4  -2  942.33   18.29
  -5   4  -2  955.16   17.37
  -5   4  -2  965.19   16.68
  -5   4  -2  990.40   13.78
  -5   4  -2  983.23   17.53
  -5   4  -2  967.18   17.77
  -5   4  -1  436.28   10.96
  -5   4  -1  428.50   10.08
  -5   4  -1  427.56   10.76
  -5   4  -1  456.44    8.03
  -5   4  -1  455.90   10.53
  -5   4  -1  464.39   11.17
  -5   4  -1  426.54   10.25
  -5   4   0  464.27   11.95
  -5   4   0  469.05   11.01
  -5   4   0  461.80   10.63
  -5   4   0  493.45   11.69
  -5   4   0  483.76   10.69
  -5   4   1  868.60   16.28
  -5   4   1  870.88   16.14
  -5   4   1  849.31   18.17
  -5   4   1  872.48   15.59
  -5   4   2  735.85   15.18
  -5   4   2  784.35   15.18
  -5   4   2  765.19   14.34
  -5   4   3  823.23   17.23
  -5   4   3  792.90   19.08
  -5   4   3  859.43   16.74
  -5   4   4  179.47    7.71
  -5   4   4  184.84    7.26
  -5   4   4  202.12    7.04
  -5   4   4  194.54    9.16
  -5   4   5   61.16    4.82
  -5   4   5   63.23    4.18
  -5   4   5   61.26    5.54
  -5   4   6   20.82    3.50
  -5   4   6   17.83    3.88
  -5   4   6   20.57    2.89
  -5   4   7   20.53    3.81
  -5   4   7   17.85    3.84
  -5   4   7   18.45    2.95
  -5   4   8   42.16    5.43
  -5   4   8   45.95    4.50
  -5   5  -8  511.60   16.35
  -5   5  -7 1037.25   23.59
  -5   5  -6 1025.53   22.49
  -5   5  -5  461.39   13.57
  -5   5  -5  462.82    9.59
  -5   5  -5  440.74    9.99
  -5   5  -4  960.78   16.93
  -5   5  -4  923.86   19.93
  -5   5  -4  969.09   17.71
  -5   5  -4  985.28   14.94
  -5   5  -4  945.67   17.48
  -5   5  -3 1243.26   21.35
  -5   5  -3 1224.13   23.45
  -5   5  -3 1262.09   20.48
  -5   5  -3 1262.51   19.45
  -5   5  -3 1274.34   21.82
  -5   5  -2 1580.12   26.53
  -5   5  -2 1636.54   24.26
  -5   5  -2 1595.05   27.52
  -5   5  -2 1654.40   24.86
  -5   5  -1 2602.68   39.70
  -5   5  -1 2689.52   36.03
  -5   5  -1 2607.24   39.39
  -5   5  -1 2698.21   37.96
  -5   5  -1 2669.21   38.82
  -5   5   0 2089.58   29.52
  -5   5   0 2033.91   32.23
  -5   5   0 2024.92   33.55
  -5   5   0 2055.32   31.49
  -5   5   1 1476.35   23.18
  -5   5   1 1453.65   27.35
  -5   5   1 1460.23   25.31
  -5   5   1 1451.05   24.52
  -5   5   2  639.97   13.73
  -5   5   2  632.49   16.82
  -5   5   2  627.45   14.93
  -5   5   3 1221.57   22.43
  -5   5   3 1230.17   26.23
  -5   5   3 1249.66   23.80
  -5   5   4  864.04   18.90
  -5   5   4  863.54   19.65
  -5   5   4  892.64   18.83
  -5   5   4  853.24   21.71
  -5   5   5 1043.07   22.90
  -5   5   5 1102.74   22.42
  -5   5   5 1118.75   26.29
  -5   5   5 1097.26   23.57
  -5   5   6 1625.62   30.16
  -5   5   6 1676.76   35.00
  -5   5   7  968.40   26.44
  -5   5   7 1032.63   23.33
  -5   6  -9  102.16    7.49
  -5   6  -8  239.74   10.97
  -5   6  -7  457.42   15.03
  -5   6  -6  493.69   10.46
  -5   6  -6  457.53   14.51
  -5   6  -5  309.06   11.43
  -5   6  -5  333.45    8.84
  -5   6  -4    6.36    2.03
  -5   6  -4    9.27    1.45
  -5   6  -3  295.12    7.72
  -5   6  -3  302.93    7.17
  -5   6  -3  280.98   10.27
  -5   6  -2   41.33    3.02
  -5   6  -2   37.42    2.22
  -5   6  -2   38.11    3.83
  -5   6  -1  387.21    8.15
  -5   6  -1  381.29   11.84
  -5   6   0  856.03   19.15
  -5   6   0  911.15   15.17
  -5   6   1  224.32    6.83
  -5   6   1  212.26    8.72
  -5   6   2    1.31    1.25
  -5   6   2    2.62    2.01
  -5   6   2    4.09    2.66
  -5   6   3  401.85   11.21
  -5   6   3  403.11   14.54
  -5   6   3  383.55   12.85
  -5   6   4   15.26    3.22
  -5   6   4   18.02    4.09
  -5   6   4   12.93    2.78
  -5   6   5  168.06   10.19
  -5   6   5  170.01    8.61
  -5   6   5  169.46    9.23
  -5   6   6   58.13    6.52
  -5   6   6   57.90    5.39
  -5   7  -9  289.50   12.82
  -5   7  -8  558.79   17.66
  -5   7  -7  520.90   16.66
  -5   7  -6  631.85   18.01
  -5   7  -5 1155.53   25.51
  -5   7  -4  745.84   19.05
  -5   7  -3 1709.93   31.90
  -5   7  -2 1618.87   30.73
  -5   7  -1 1035.76   22.78
  -5   7   0 2267.81   38.70
  -5   7   1  742.98   19.09
  -5   7   2  890.76   21.81
  -5   7   3  751.81   22.03
  -5   7   3  769.92   20.70
  -5   7   4  404.15   14.28
  -5   7   4  397.02   14.75
  -5   7   4  398.60   16.21
  -5   7   5  499.09   16.69
  -5   7   5  511.66   19.13
  -5   7   5  491.78   17.45
  -5   8  -8   56.79    5.86
  -5   8  -7  250.07   11.81
  -5   8  -6  133.52    8.38
  -5   8  -5  225.44   10.73
  -5   8  -4  360.25   13.40
  -5   8  -3   24.48    3.91
  -5   8  -2  134.47    7.92
  -5   8  -1   27.26    3.85
  -5   8   0   25.99    3.85
  -5   8   1  263.71   11.88
  -5   8   2  335.06   13.75
  -5   8   3  214.25   11.31
  -5   8   3  237.74   12.96
  -5   9  -6  364.21   14.61
  -5   9  -5  443.55   16.10
  -5   9  -4  680.15   20.24
  -5   9  -3  242.37   11.62
  -5   9  -2  643.67   19.49
  -5   9  -1  703.24   20.84
  -5   9   0  649.09   20.28
  -5   9   1  584.91   19.43
  -4  -9   4   40.44    5.24
  -4  -9   5   22.61    4.15
  -4  -9   6    5.27    2.95
  -4  -9   7   52.97    6.01
  -4  -9   8  136.12    9.39
  -4  -8   1  406.01   12.74
  -4  -8   1  410.07   14.55
  -4  -8   2  845.97   18.98
  -4  -8   2  835.42   22.08
  -4  -8   3  827.18   18.22
  -4  -8   3  805.46   21.87
  -4  -8   4  861.61   18.58
  -4  -8   4  869.90   22.80
  -4  -8   5  610.58   14.86
  -4  -8   5  606.87   18.86
  -4  -8   6  674.24   15.80
  -4  -8   6  655.59   19.83
  -4  -8   7  554.21   14.39
  -4  -8   7  571.43   18.77
  -4  -8   8  404.02   12.15
  -4  -8   8  409.39   16.02
  -4  -8   9  591.72   15.84
  -4  -8   9  613.25   20.10
  -4  -8  10  715.93   22.08
  -4  -7  -1  314.22   11.69
  -4  -7  -1  318.91   11.62
  -4  -7   0  223.31    9.29
  -4  -7   0  204.35    9.42
  -4  -7   1   24.72    3.29
  -4  -7   1   22.59    3.49
  -4  -7   2   62.51    4.62
  -4  -7   2   53.42    5.06
  -4  -7   3    9.16    2.08
  -4  -7   3   20.01    3.36
  -4  -7   4  429.08   11.99
  -4  -7   4  399.38   13.95
  -4  -7   5   62.13    4.43
  -4  -7   5   65.52    5.78
  -4  -7   6  258.16    9.13
  -4  -7   6  264.20   11.58
  -4  -7   7   49.38    4.09
  -4  -7   7   46.20    5.21
  -4  -7   8   18.77    2.80
  -4  -7   8   15.88    3.65
  -4  -7   8   19.65    3.62
  -4  -7   9   34.39    3.82
  -4  -7   9   35.13    4.69
  -4  -7   9   32.31    4.62
  -4  -7  10  117.57    7.07
  -4  -7  10  110.92    7.95
  -4  -7  10  121.16    8.38
  -4  -7  11   21.22    3.52
  -4  -7  11   31.02    4.61
  -4  -7  11   22.80    4.27
  -4  -6  -3  883.23   23.23
  -4  -6  -2  738.35   17.41
  -4  -6  -1  958.45   20.75
  -4  -6   0 1171.86   23.78
  -4  -6   0 1175.83   23.95
  -4  -6   1  923.11   19.76
  -4  -6   1  902.02   20.44
  -4  -6   2 1280.80   23.91
  -4  -6   2 1251.24   25.47
  -4  -6   3 1981.78   32.24
  -4  -6   3 1991.05   35.19
  -4  -6   4 2621.58   39.53
  -4  -6   4 2635.61   43.53
  -4  -6   5 2623.84   39.71
  -4  -6   5 2621.54   43.70
  -4  -6   5 2674.79   43.71
  -4  -6   6 1973.97   32.13
  -4  -6   6 1948.08   35.70
  -4  -6   6 1900.89   35.30
  -4  -6   7 1144.66   22.58
  -4  -6   7 1144.09   25.24
  -4  -6   7 1162.23   25.62
  -4  -6   8  436.59   12.88
  -4  -6   8  432.78   14.57
  -4  -6   8  403.64   14.38
  -4  -6   9  497.82   14.74
  -4  -6   9  526.66   16.46
  -4  -6   9  492.40   16.28
  -4  -6  10  666.32   19.34
  -4  -6  10  636.38   17.74
  -4  -6  11  826.02   22.36
  -4  -6  11  800.32   21.11
  -4  -6  12  692.16   20.76
  -4  -6  12  685.57   20.26
  -4  -5  -4  216.07   10.52
  -4  -5  -3   61.33    4.10
  -4  -5  -2  292.06    9.39
  -4  -5  -1   70.24    4.61
  -4  -5   0  250.96    9.30
  -4  -5   0  260.58    9.19
  -4  -5   1   85.14    5.24
  -4  -5   1   75.71    5.16
  -4  -5   2  368.33   10.92
  -4  -5   2  352.60   11.40
  -4  -5   3   64.12    4.38
  -4  -5   3   63.03    4.08
  -4  -5   3   65.32    4.93
  -4  -5   4   32.08    3.17
  -4  -5   4   31.79    3.76
  -4  -5   4   37.19    3.85
  -4  -5   5  130.95    6.22
  -4  -5   5  118.76    5.46
  -4  -5   5  128.58    6.99
  -4  -5   5  118.45    6.75
  -4  -5   6   52.75    4.77
  -4  -5   6   50.22    3.94
  -4  -5   7  255.26   10.44
  -4  -5   7  245.07    9.22
  -4  -5   8  520.38   15.50
  -4  -5   8  486.26   13.88
  -4  -5   9   75.53    6.03
  -4  -5   9   69.03    5.43
  -4  -5  10   51.25    5.23
  -4  -5  10   49.90    4.91
  -4  -5  11    7.40    2.65
  -4  -5  11   13.00    3.21
  -4  -5  12   16.68    3.61
  -4  -5  12   19.31    3.77
  -4  -4  -6  622.74   18.43
  -4  -4  -5  470.10   15.32
  -4  -4  -3  987.87   18.03
  -4  -4  -2  614.38   13.43
  -4  -4  -1 3464.74   48.07
  -4  -4   0  646.90   14.47
  -4  -4   1 3107.94   44.97
  -4  -4   1 3067.68   43.06
  -4  -4   1 3089.75   44.62
  -4  -4   2 2347.38   36.16
  -4  -4   2 2467.52   34.54
  -4  -4   2 2365.79   37.03
  -4  -4   2 2354.19   36.48
  -4  -4   3 1734.55   25.77
  -4  -4   3 1657.86   27.36
  -4  -4   3 1690.19   28.41
  -4  -4   4 2221.78   31.77
  -4  -4   4 2237.41   34.03
  -4  -4   4 2173.69   35.46
  -4  -4   5 3039.06   43.94
  -4  -4   5 2995.04   45.42
  -4  -4   6 1350.14   24.86
  -4  -4   6 1456.17   26.80
  -4  -4   7 2517.02   39.46
  -4  -4   7 2532.07   40.87
  -4  -4   8 1053.63   22.40
  -4  -4   8 1081.53   23.27
  -4  -4   9 1274.74   26.45
  -4  -4   9 1311.41   27.02
  -4  -4  10  373.25   13.42
  -4  -4  10  383.83   13.46
  -4  -4  11  639.61   19.25
  -4  -4  11  625.46   18.49
  -4  -4  11  650.38   17.11
  -4  -4  12  521.79   18.08
  -4  -4  12  510.19   16.99
  -4  -4  12  519.23   15.97
  -4  -3  -7  271.84   11.44
  -4  -3  -6  104.95    6.82
  -4  -3  -5   65.04    5.33
  -4  -3  -4    9.89    1.44
  -4  -3  -3   78.44    3.70
  -4  -3  -2   68.57    3.67
  -4  -3  -1 2812.35   39.73
  -4  -3  -1 2762.95   38.52
  -4  -3   0 1244.97   20.57
  -4  -3   0 1233.39   21.08
  -4  -3   1 1369.97   21.21
  -4  -3   1 1346.73   23.59
  -4  -3   1 1338.63   22.93
  -4  -3   1 1319.37   22.40
  -4  -3   2  423.71   11.20
  -4  -3   2  438.05   11.19
  -4  -3   2  425.37    9.11
  -4  -3   3   31.96    3.24
  -4  -3   3   32.67    3.06
  -4  -3   3   34.21    3.21
  -4  -3   3   30.04    2.10
  -4  -3   3   31.25    2.99
  -4  -3   4   60.96    4.30
  -4  -3   4   55.21    4.19
  -4  -3   4   56.84    4.00
  -4  -3   5  415.93   11.84
  -4  -3   5  419.63   11.42
  -4  -3   5  407.31   11.16
  -4  -3   6  394.03   11.35
  -4  -3   6  417.28   12.11
  -4  -3   7  386.78   11.79
  -4  -3   7  406.41   12.41
  -4  -3   8   13.59    2.93
  -4  -3   8   13.79    2.76
  -4  -3   9    6.04    2.43
  -4  -3   9    7.07    2.58
  -4  -3   9    8.28    2.00
  -4  -3  10   42.13    4.81
  -4  -3  10   38.05    4.38
  -4  -3  10   37.86    3.78
  -4  -3  11   18.72    3.46
  -4  -3  11   19.38    3.16
  -4  -3  11   13.76    3.39
  -4  -3  12   29.30    4.38
  -4  -3  12   29.80    3.94
  -4  -3  12   25.63    4.56
  -4  -2  -7  547.87   15.72
  -4  -2  -6  605.23   16.12
  -4  -2  -4 1154.24   16.43
  -4  -2  -3 1817.67   24.73
  -4  -2  -2 2297.91   33.95
  -4  -2  -2 2309.24   30.98
  -4  -2  -1 2088.31   30.60
  -4  -2  -1 2157.92   29.79
  -4  -2   0 4733.20   62.96
  -4  -2   0 4795.28   59.33
  -4  -2   0 4771.17   60.75
  -4  -2   0 4751.40   60.00
  -4  -2   1 3377.92   46.14
  -4  -2   1 3396.20   43.43
  -4  -2   2 5077.64   31.95
  -4  -2   2  820.31   13.81
  -4  -2   2 4919.64   32.54
  -4  -2   2 5008.65   21.42
  -4  -2   3 4561.37   31.50
  -4  -2   3 4588.68   31.25
  -4  -2   3 4598.67   18.62
  -4  -2   4 3229.68   27.47
  -4  -2   4 3226.14   27.14
  -4  -2   5 3939.74   54.32
  -4  -2   5 4005.86   54.09
  -4  -2   5 3905.87   53.90
  -4  -2   6 2450.76   38.31
  -4  -2   6 2458.37   38.11
  -4  -2   6 2540.08   37.59
  -4  -2   7 3221.41   48.28
  -4  -2   7 3274.37   48.52
  -4  -2   7 3265.54   43.05
  -4  -2   8 1924.13   34.14
  -4  -2   8 1986.49   34.09
  -4  -2   8 1937.76   29.51
  -4  -2   9 1533.95   29.63
  -4  -2   9 1575.57   26.23
  -4  -2  10 1327.28   29.11
  -4  -2  10 1305.38   27.67
  -4  -2  10 1371.63   25.37
  -4  -2  11  619.01   19.61
  -4  -2  11  636.26   18.55
  -4  -2  11  648.94   17.01
  -4  -2  12  429.92   17.16
  -4  -2  12  424.07   15.25
  -4  -2  12  423.63   14.44
  -4  -1  -8   70.04    5.22
  -4  -1  -7   38.10    3.79
  -4  -1  -6   83.61    5.26
  -4  -1  -4  156.57    2.75
  -4  -1  -3  225.62    7.83
  -4  -1  -3  234.38    4.70
  -4  -1  -2  172.78    6.11
  -4  -1  -2  207.85    4.94
  -4  -1  -1  159.87    5.13
  -4  -1  -1  148.57    4.87
  -4  -1  -1  141.87    4.42
  -4  -1   0   11.36    1.32
  -4  -1   0    9.09    1.60
  -4  -1   1 2351.00   29.55
  -4  -1   1 2308.95   32.98
  -4  -1   2  383.82    9.34
  -4  -1   2  394.64    9.70
  -4  -1   3 2230.28   33.05
  -4  -1   3 2302.93   33.33
  -4  -1   4  780.48   13.29
  -4  -1   4  107.56    5.05
  -4  -1   4  822.61   13.61
  -4  -1   4   -0.41    1.65
  -4  -1   5   28.31    3.14
  -4  -1   5   25.19    2.68
  -4  -1   5   27.39    2.78
  -4  -1   5   17.85    2.50
  -4  -1   6    0.03    1.51
  -4  -1   6    2.92    1.03
  -4  -1   6    1.52    1.93
  -4  -1   7  754.87   17.99
  -4  -1   7  775.86   17.94
  -4  -1   7  801.47   14.38
  -4  -1   8   19.11    3.45
  -4  -1   8   25.79    3.66
  -4  -1   8   16.97    2.27
  -4  -1   9  389.31   13.92
  -4  -1   9  412.96   13.49
  -4  -1   9  430.01   11.71
  -4  -1  10   64.60    6.14
  -4  -1  10   72.87    6.04
  -4  -1  10   79.10    5.29
  -4  -1  11    8.00    2.54
  -4  -1  11    9.25    3.02
  -4  -1  11   10.83    3.29
  -4  -1  12   -3.58    2.60
  -4  -1  12   -1.61    2.30
  -4  -1  12   -0.03    3.16
  -4   0  -8  403.97   11.83
  -4   0  -7  400.44   11.36
  -4   0  -3 2128.02   31.59
  -4   0  -2 2409.74   30.94
  -4   0  -2 2426.83   33.69
  -4   0  -1 3332.14   42.75
  -4   0  -1 3363.66   43.31
  -4   0   0 3024.52   39.67
  -4   0   0 3060.89   38.05
  -4   0   0 2952.25   37.43
  -4   0   0 3062.89   42.00
  -4   0   1 9675.30  117.68
  -4   0   1 9999.00  119.05
  -4   0   1 9788.82  119.23
  -4   0   2 6270.40   50.49
  -4   0   2 6270.63   51.13
  -4   0   3 3099.39   43.18
  -4   0   3 3220.75   43.13
  -4   0   3 3165.02   43.37
  -4   0   4 6370.02   37.86
  -4   0   4 6498.28   37.81
  -4   0   5  208.76    7.79
  -4   0   5  209.15    7.72
  -4   0   5  212.54    7.62
  -4   0   5  219.48    7.78
  -4   0   5  195.92    7.58
  -4   0   5  200.87    4.68
  -4   0   6 2057.50   33.75
  -4   0   6 2063.72   33.75
  -4   0   6 2099.00   28.37
  -4   0   7 1426.04   27.43
  -4   0   7 1416.66   26.96
  -4   0   7 1488.42   22.76
  -4   0   8 1190.21   25.63
  -4   0   8 1207.00   25.01
  -4   0   8 1234.56   21.51
  -4   0   9 1581.86   32.00
  -4   0   9 1536.67   30.19
  -4   0   9 1523.23   26.92
  -4   0  10 1458.07   32.24
  -4   0  10 1440.91   29.96
  -4   0  10 1423.19   27.30
  -4   0  11  481.02   18.05
  -4   0  11  452.78   15.94
  -4   0  11  452.30   14.58
  -4   1  -8   52.27    3.81
  -4   1  -7  104.64    5.05
  -4   1  -3  408.77    6.55
  -4   1  -3  439.58   10.16
  -4   1  -2  229.17    5.17
  -4   1  -2  251.55    7.01
  -4   1  -2  236.08    6.52
  -4   1  -2  236.38    4.76
  -4   1  -1  456.85    8.81
  -4   1  -1  464.19   10.80
  -4   1  -1  465.26   10.08
  -4   1  -1  466.77    8.99
  -4   1  -1  471.96    8.48
  -4   1   0 1253.25   18.98
  -4   1   0 1219.26   20.18
  -4   1   0 1222.09   19.74
  -4   1   0 1243.91   19.21
  -4   1   0 1224.69   18.44
  -4   1   0 1243.24   17.09
  -4   1   1  254.75    7.01
  -4   1   1  239.52    7.12
  -4   1   1  252.87    4.54
  -4   1   1  264.02    6.89
  -4   1   1  257.42    7.24
  -4   1   1  261.68    6.83
  -4   1   1  248.98    4.41
  -4   1   2 1206.60   19.86
  -4   1   2 1178.74   14.87
  -4   1   2 1177.66   19.79
  -4   1   2 1196.23   19.30
  -4   1   2 1188.67   20.01
  -4   1   3   87.86    4.55
  -4   1   3   76.32    4.18
  -4   1   3   86.81    4.18
  -4   1   3   85.37    4.32
  -4   1   3   74.53    1.68
  -4   1   4  587.05   11.92
  -4   1   4  628.60   12.09
  -4   1   4    0.19    1.85
  -4   1   4  645.05   11.97
  -4   1   4  128.48    5.68
  -4   1   4  610.84    6.61
  -4   1   5  694.03   15.49
  -4   1   5  672.45   15.53
  -4   1   5  674.27   11.47
  -4   1   6  435.61   12.68
  -4   1   6  449.08    9.68
  -4   1   7  293.77   10.98
  -4   1   7  290.07   10.64
  -4   1   7  301.02    8.55
  -4   1   8   14.15    2.99
  -4   1   8   12.89    2.23
  -4   1   8   17.18    3.63
  -4   1   9    1.48    2.41
  -4   1   9    2.94    1.94
  -4   1   9    2.00    2.57
  -4   1  10   -1.18    2.64
  -4   1  10    1.00    2.05
  -4   1  10    3.23    2.96
  -4   1  11    2.98    2.14
  -4   1  11    1.59    2.38
  -4   2  -8  376.65    9.22
  -4   2  -7  554.65   11.38
  -4   2  -4 3026.17   40.20
  -4   2  -4 3109.75   42.96
  -4   2  -3 2460.63   30.37
  -4   2  -3 2477.65   32.95
  -4   2  -3 2430.56   30.23
  -4   2  -3 2502.79   34.82
  -4   2  -2 3675.66   45.32
  -4   2  -2 3691.92   46.77
  -4   2  -2 3646.22   45.05
  -4   2  -2 3719.21   47.44
  -4   2  -1 2924.43   37.89
  -4   2  -1 2931.65   38.17
  -4   2  -1 2931.02   39.68
  -4   2  -1 2926.77   38.56
  -4   2  -1 2929.23   37.46
  -4   2  -1 2944.59   37.68
  -4   2  -1 2944.01   37.84
  -4   2   0 5391.43   66.07
  -4   2   0 5391.91   64.35
  -4   2   0 5293.58   66.53
  -4   2   0 5290.38   64.70
  -4   2   0 5378.00   66.32
  -4   2   0 5298.61   63.82
  -4   2   0 5409.31   65.91
  -4   2   1 2927.81   39.79
  -4   2   1 2904.32   39.31
  -4   2   1 2859.54   36.56
  -4   2   1 3055.24   39.98
  -4   2   1 2891.21   38.12
  -4   2   1 2930.56   36.11
  -4   2   1 3015.99   39.79
  -4   2   2 8222.54   99.15
  -4   2   2 8064.35   94.71
  -4   2   2 7947.01   97.97
  -4   2   2 8221.31   98.87
  -4   2   2 8143.66   97.31
  -4   2   2 8018.44   93.77
  -4   2   2 8191.11   99.01
  -4   2   3 5929.24   76.05
  -4   2   3 5976.46   70.53
  -4   2   3 5839.88   71.65
  -4   2   3 5858.11   75.13
  -4   2   3 6007.85   74.67
  -4   2   3 6104.66   76.39
  -4   2   3 6090.36   76.23
  -4   2   4 3600.34   49.80
  -4   2   4 3611.79   45.27
  -4   2   4 3592.87   50.67
  -4   2   5 3003.08   44.15
  -4   2   5 2932.80   44.38
  -4   2   5 2990.19   39.68
  -4   2   6 1721.54   30.88
  -4   2   6 1673.89   30.85
  -4   2   7  899.00   21.41
  -4   2   7  960.31   21.61
  -4   2   7  917.52   18.32
  -4   2   8 1116.28   25.76
  -4   2   8 1151.55   25.45
  -4   2   8 1118.73   22.33
  -4   2   9  987.98   25.54
  -4   2   9 1002.21   24.51
  -4   2   9 1002.67   22.09
  -4   2  10  626.04   19.49
  -4   2  10  615.12   17.81
  -4   3 -10  150.91    7.26
  -4   3  -9  185.05    7.56
  -4   3  -7   19.90    1.62
  -4   3  -6   60.75    2.66
  -4   3  -5  226.19    5.44
  -4   3  -4 1652.64   21.40
  -4   3  -4 1652.93   22.59
  -4   3  -4 1659.99   22.05
  -4   3  -4 1718.90   27.05
  -4   3  -3  515.34    9.26
  -4   3  -3  513.97   11.89
  -4   3  -3  512.11    9.40
  -4   3  -3  517.08    9.55
  -4   3  -3  541.39   11.72
  -4   3  -2  867.81   14.38
  -4   3  -2  874.93   15.91
  -4   3  -2  866.40   15.42
  -4   3  -2  885.23   14.23
  -4   3  -2  867.19   12.74
  -4   3  -2  869.63   14.47
  -4   3  -2  864.10   15.47
  -4   3  -1  386.89    9.00
  -4   3  -1  389.58    9.08
  -4   3  -1  404.50    8.95
  -4   3  -1  399.06    8.72
  -4   3  -1  403.74    7.22
  -4   3  -1  403.07    8.83
  -4   3  -1  411.80    9.18
  -4   3   0  490.10   10.90
  -4   3   0  478.67    9.91
  -4   3   0  476.14    9.92
  -4   3   0  473.48    8.76
  -4   3   0  500.93   10.58
  -4   3   0  479.06    9.63
  -4   3   0  502.82   10.86
  -4   3   1  190.57    6.65
  -4   3   1  168.06    5.27
  -4   3   1  175.67    5.70
  -4   3   1  173.95    5.17
  -4   3   1  183.16    6.32
  -4   3   1  176.99    6.39
  -4   3   1  179.17    5.12
  -4   3   2    1.82    1.90
  -4   3   2    3.25    1.28
  -4   3   2    0.62    1.31
  -4   3   2   -0.06    1.08
  -4   3   2    1.30    1.26
  -4   3   3  523.64   12.12
  -4   3   3  547.31   13.41
  -4   3   3  509.25   11.31
  -4   3   4  990.11   19.64
  -4   3   4 1011.72   21.07
  -4   3   4 1060.27   17.94
  -4   3   4 1047.23   18.79
  -4   3   5   42.12    3.87
  -4   3   5   42.06    4.31
  -4   3   5   42.48    3.31
  -4   3   6  501.35   14.61
  -4   3   6  523.87   15.44
  -4   3   6  511.93   12.82
  -4   3   7   58.56    5.46
  -4   3   7   64.23    5.65
  -4   3   7   55.98    4.48
  -4   3   8   52.56    5.41
  -4   3   8   53.99    4.76
  -4   3   9  229.92   11.51
  -4   3   9  247.84   10.68
  -4   4  -9  878.64   17.41
  -4   4  -8  567.74   12.44
  -4   4  -7 1342.59   21.05
  -4   4  -6 1155.62   14.24
  -4   4  -5 1301.24   17.49
  -4   4  -5 1314.74   17.33
  -4   4  -5 1266.09   23.63
  -4   4  -5 1294.12   18.29
  -4   4  -4 1695.14   23.62
  -4   4  -4 1683.44   28.11
  -4   4  -4 1699.53   22.13
  -4   4  -4 1679.79   24.42
  -4   4  -3 2275.93   34.50
  -4   4  -3 2271.13   32.16
  -4   4  -3 2370.37   30.17
  -4   4  -3 2305.95   32.22
  -4   4  -3 2317.41   34.13
  -4   4  -2 1153.00   20.48
  -4   4  -2 1133.29   18.20
  -4   4  -2 1223.43   18.13
  -4   4  -2 1203.12   19.74
  -4   4  -2 1171.22   19.99
  -4   4  -1 3726.44   47.49
  -4   4  -1 3774.06   50.48
  -4   4  -1 3793.30   48.89
  -4   4  -1 3826.18   49.83
  -4   4  -1 3837.98   50.50
  -4   4   0 2016.27   28.05
  -4   4   0 2042.61   30.36
  -4   4   0 2071.77   30.19
  -4   4   0 2043.27   29.58
  -4   4   0 2127.00   31.68
  -4   4   1 3177.39   44.02
  -4   4   1 3320.72   45.19
  -4   4   1 3253.10   42.51
  -4   4   2 2486.32   35.37
  -4   4   2 2560.77   38.91
  -4   4   2 2545.55   36.66
  -4   4   3 1704.14   27.31
  -4   4   3 1680.19   29.98
  -4   4   3 1743.13   28.10
  -4   4   4 1907.57   30.94
  -4   4   4 1896.93   31.14
  -4   4   4 1850.16   33.34
  -4   4   4 1921.96   30.27
  -4   4   5 1104.63   22.70
  -4   4   5 1163.65   25.07
  -4   4   5 1145.70   21.98
  -4   4   6 1315.09   27.01
  -4   4   6 1355.72   25.81
  -4   4   7  907.20   23.24
  -4   4   7  856.73   20.37
  -4   4   8  410.29   15.66
  -4   4   8  406.51   14.11
  -4   4   9  570.49   19.52
  -4   4   9  566.07   17.97
  -4   5  -8   41.89    4.66
  -4   5  -7    3.19    0.85
  -4   5  -7    2.25    1.91
  -4   5  -6   32.94    2.08
  -4   5  -6   30.96    3.74
  -4   5  -6   26.26    2.51
  -4   5  -6   32.71    1.50
  -4   5  -5  224.64    8.95
  -4   5  -5  245.89    7.11
  -4   5  -4   49.70    4.12
  -4   5  -4   59.20    3.18
  -4   5  -4   57.25    2.24
  -4   5  -4   56.53    3.44
  -4   5  -3  243.35    6.09
  -4   5  -3  228.03    8.42
  -4   5  -3  236.19    5.87
  -4   5  -3  251.78    7.75
  -4   5  -2  437.37    8.24
  -4   5  -2  422.76   11.59
  -4   5  -2  424.70    9.29
  -4   5  -2  438.45   11.24
  -4   5  -2  438.95   11.31
  -4   5  -1  283.65    6.26
  -4   5  -1  271.09    8.82
  -4   5  -1  282.02    7.85
  -4   5  -1  284.19    8.63
  -4   5   0  686.92   11.89
  -4   5   0  664.30   14.97
  -4   5   0  689.67   14.63
  -4   5   0  707.07   14.80
  -4   5   1  170.95    5.41
  -4   5   1  156.21    6.77
  -4   5   2  260.40    7.69
  -4   5   2  265.12    9.20
  -4   5   3   30.34    2.91
  -4   5   3   33.40    3.97
  -4   5   3   32.40    3.56
  -4   5   4   65.84    4.60
  -4   5   4   71.22    5.82
  -4   5   4   63.67    5.11
  -4   5   4   67.99    4.91
  -4   5   5   86.93    6.91
  -4   5   5   98.03    6.23
  -4   5   5   93.37    6.36
  -4   5   6    5.09    2.25
  -4   5   6    8.23    2.98
  -4   5   7  175.53   10.49
  -4   5   7  174.33    9.21
  -4   5   8    4.05    3.04
  -4   5   8    0.16    2.19
  -4   6 -10  117.79    8.06
  -4   6  -9  723.45   20.16
  -4   6  -8  901.12   22.18
  -4   6  -7 1468.15   29.20
  -4   6  -6  443.06   13.79
  -4   6  -5  734.12   18.07
  -4   6  -5  769.66   13.37
  -4   6  -5  747.19   12.96
  -4   6  -5  737.35   15.56
  -4   6  -4  773.11   12.27
  -4   6  -4  752.74   18.21
  -4   6  -3  733.44   13.07
  -4   6  -3  729.39   10.69
  -4   6  -3  693.44   16.89
  -4   6  -2 2739.10   38.01
  -4   6  -2 2760.93   33.00
  -4   6  -2 2692.62   42.10
  -4   6  -1 2704.70   39.34
  -4   6  -1 2644.41   41.87
  -4   6  -1 2780.85   33.60
  -4   6   0  816.98   18.73
  -4   6   0  899.67   13.71
  -4   6   1 2947.26   38.18
  -4   6   1 2718.84   43.74
  -4   6   2  580.63   15.72
  -4   6   3 1097.80   24.11
  -4   6   4 1279.75   27.96
  -4   6   4 1326.07   27.22
  -4   6   5 1249.14   27.37
  -4   6   5 1249.69   28.35
  -4   6   6  770.97   22.94
  -4   6   6  742.44   20.72
  -4   7 -10   10.67    3.03
  -4   7  -9   94.46    7.21
  -4   7  -8   20.79    3.65
  -4   7  -7  177.69    9.17
  -4   7  -6    6.03    2.48
  -4   7  -5    0.52    2.12
  -4   7  -4    3.19    2.27
  -4   7  -3   13.18    2.91
  -4   7  -2   79.62    5.75
  -4   7  -1  216.27    9.38
  -4   7   0   70.78    5.62
  -4   7   1  259.72   10.79
  -4   7   2    4.79    2.32
  -4   7   3  105.29    7.48
  -4   7   4  198.31   11.00
  -4   7   4  174.42    9.96
  -4   7   4  197.10   10.10
  -4   7   5   14.27    3.66
  -4   7   5   13.25    3.81
  -4   7   5   11.63    3.29
  -4   8  -9  419.82   15.82
  -4   8  -8  456.52   16.11
  -4   8  -7  739.91   20.79
  -4   8  -6 1154.71   26.48
  -4   8  -5 1112.32   25.54
  -4   8  -4  877.13   21.87
  -4   8  -3 1127.78   25.45
  -4   8  -2  569.64   16.90
  -4   8  -1 1011.38   23.75
  -4   8   0 1337.85   28.84
  -4   8   1  778.69   21.31
  -4   8   2  776.77   22.07
  -4   8   3  254.96   12.53
  -4   9  -8    4.04    2.27
  -4   9  -7   72.66    6.55
  -4   9  -6  212.75   10.87
  -4   9  -5  116.31    8.05
  -4   9  -4   77.76    6.67
  -4   9  -3   47.60    5.39
  -4   9  -2   20.78    3.83
  -4   9  -1    0.43    2.34
  -4   9   0   80.37    6.97
  -4   9   1  199.68   11.11
  -4  10  -5  201.19   11.19
  -4  10  -4  583.17   19.24
  -4  10  -3  377.60   15.37
  -4  10  -2 1190.12   29.50
  -3  -9   2  914.27   23.36
  -3  -9   2  999.37   25.01
  -3  -9   3  833.65   22.72
  -3  -9   4 1073.83   26.63
  -3  -9   5  635.75   19.53
  -3  -9   6 1102.98   27.27
  -3  -9   7  790.77   22.72
  -3  -9   8  912.64   25.11
  -3  -9   9 1078.52   27.70
  -3  -8  -1   -0.54    1.55
  -3  -8  -1   -0.92    2.23
  -3  -8  -1   -2.66    2.15
  -3  -8   0   74.50    5.03
  -3  -8   0   63.72    5.87
  -3  -8   0   79.93    6.15
  -3  -8   1  265.93    9.30
  -3  -8   1  265.63   11.33
  -3  -8   2  234.79    8.37
  -3  -8   2  216.47   10.38
  -3  -8   3  302.22    9.17
  -3  -8   3  317.41   12.49
  -3  -8   4  183.69    6.78
  -3  -8   4  164.74    9.05
  -3  -8   5  470.60   11.46
  -3  -8   5  470.68   15.75
  -3  -8   6   89.87    4.73
  -3  -8   6   93.03    7.07
  -3  -8   7  297.69    9.07
  -3  -8   7  300.26   12.81
  -3  -8   8  102.39    5.44
  -3  -8   8   97.94    7.69
  -3  -8   9   68.96    4.77
  -3  -8   9   82.23    7.07
  -3  -8  10  114.20    8.29
  -3  -8  11  290.28   13.49
  -3  -7  -2 1556.39   32.26
  -3  -7  -2 1509.36   28.90
  -3  -7  -1  607.39   17.90
  -3  -7  -1  586.50   16.24
  -3  -7   0 1245.01   23.62
  -3  -7   0 1207.61   25.25
  -3  -7   1  680.24   15.66
  -3  -7   1  671.68   17.87
  -3  -7   2 1205.14   21.90
  -3  -7   2 1183.19   25.21
  -3  -7   3 1136.92   20.52
  -3  -7   3 1141.43   24.69
  -3  -7   4 1380.06   23.21
  -3  -7   4 1377.81   28.22
  -3  -7   5 2253.62   33.55
  -3  -7   5 2215.26   39.20
  -3  -7   6 1226.03   21.62
  -3  -7   6 1246.86   27.02
  -3  -7   7  897.90   17.92
  -3  -7   7  923.62   22.54
  -3  -7   8 2060.50   32.91
  -3  -7   8 1964.15   37.46
  -3  -7   9  177.84    7.82
  -3  -7   9  186.87    9.56
  -3  -7   9  192.18    9.97
  -3  -7  10 1491.05   28.24
  -3  -7  10 1497.63   31.42
  -3  -7  10 1483.63   32.02
  -3  -7  11  794.05   20.00
  -3  -7  11  811.89   21.99
  -3  -7  11  819.40   22.56
  -3  -6  -4   79.74    6.57
  -3  -6  -3  155.70    8.74
  -3  -6  -3  149.27    6.99
  -3  -6  -2  217.15   10.11
  -3  -6  -2  224.20    8.86
  -3  -6  -1  108.24    6.11
  -3  -6   0    1.58    1.81
  -3  -6   1   10.92    2.16
  -3  -6   1   14.63    2.60
  -3  -6   2  156.82    6.38
  -3  -6   2  153.82    7.57
  -3  -6   3  452.28   11.16
  -3  -6   3  436.62   13.13
  -3  -6   4  982.36   18.19
  -3  -6   4  983.92   21.55
  -3  -6   5  414.09   10.58
  -3  -6   5  418.40   13.18
  -3  -6   6  150.14    6.19
  -3  -6   6  167.08    8.28
  -3  -6   6  156.64    8.01
  -3  -6   7    2.42    1.47
  -3  -6   7   -0.37    1.93
  -3  -6   8  205.43    8.17
  -3  -6   8  202.20    9.38
  -3  -6   8  206.23    9.59
  -3  -6   9  120.51    6.57
  -3  -6   9  126.14    7.55
  -3  -6   9  118.04    7.48
  -3  -6  10  250.76   10.13
  -3  -6  10  257.44   10.99
  -3  -6  10  244.64   10.97
  -3  -6  11  189.43    9.36
  -3  -6  11  183.51    9.58
  -3  -6  11  192.16   10.05
  -3  -6  12   -0.06    2.10
  -3  -6  12    0.40    2.18
  -3  -6  12    0.29    2.42
  -3  -5  -5  449.03   15.42
  -3  -5  -4  843.28   21.32
  -3  -5  -4  850.46   17.26
  -3  -5  -3 1090.91   24.07
  -3  -5  -3 1084.39   20.41
  -3  -5  -2 1977.73   31.56
  -3  -5  -1 1660.48   28.03
  -3  -5   0 2685.58   40.40
  -3  -5   1 1955.34   30.65
  -3  -5   1 1979.66   32.02
  -3  -5   2 2737.98   39.56
  -3  -5   2 2707.01   41.63
  -3  -5   3 2357.85   34.65
  -3  -5   3 2425.07   35.74
  -3  -5   3 2467.40   37.74
  -3  -5   4 3890.51   51.88
  -3  -5   4 3863.98   51.03
  -3  -5   4 3766.94   54.18
  -3  -5   4 3703.55   54.05
  -3  -5   5 2319.06   37.24
  -3  -5   5 2291.40   34.11
  -3  -5   5 2317.12   35.03
  -3  -5   5 2305.44   37.29
  -3  -5   6 3336.59   50.63
  -3  -5   6 3430.31   47.74
  -3  -5   6 3347.32   50.84
  -3  -5   7 1494.62   28.42
  -3  -5   7 1538.32   26.35
  -3  -5   8  753.09   18.58
  -3  -5   8  771.02   16.09
  -3  -5   8  780.84   17.44
  -3  -5   9  884.67   19.97
  -3  -5   9  891.58   20.82
  -3  -5  10  509.36   15.21
  -3  -5  10  516.12   15.46
  -3  -5  11  672.49   18.91
  -3  -5  11  686.02   18.69
  -3  -5  12  695.79   20.44
  -3  -5  12  715.76   19.69
  -3  -5  12  688.53   19.65
  -3  -4  -6  189.33    9.49
  -3  -4  -5   64.13    5.45
  -3  -4  -5   61.08    3.61
  -3  -4  -4   -0.03    2.02
  -3  -4  -4    0.66    1.05
  -3  -4  -3   54.68    3.51
  -3  -4  -2   78.91    4.25
  -3  -4  -1    7.09    1.79
  -3  -4   0 2292.08   33.53
  -3  -4   0 2209.37   33.39
  -3  -4   1  274.79    8.25
  -3  -4   1  269.79    7.97
  -3  -4   1  270.59    8.48
  -3  -4   2  360.16    9.37
  -3  -4   2  373.86    9.30
  -3  -4   2  373.90   10.34
  -3  -4   2  351.15   10.01
  -3  -4   3  296.96    9.29
  -3  -4   3  307.19    8.15
  -3  -4   3  306.50    8.37
  -3  -4   3  329.18    9.51
  -3  -4   3  311.46    9.31
  -3  -4   4    6.78    2.08
  -3  -4   4    7.88    1.93
  -3  -4   4    9.69    1.94
  -3  -4   4    8.64    1.62
  -3  -4   5  640.01   15.03
  -3  -4   5  662.38   14.31
  -3  -4   5  675.55   14.76
  -3  -4   5  627.89   13.49
  -3  -4   6 1217.13   21.59
  -3  -4   6 1125.16   21.38
  -3  -4   7 1331.53   25.13
  -3  -4   7 1351.56   23.18
  -3  -4   7 1348.14   24.12
  -3  -4   8  823.91   18.77
  -3  -4   8  788.26   18.07
  -3  -4   8  832.34   16.68
  -3  -4   9  109.09    6.45
  -3  -4   9  101.04    6.25
  -3  -4   9   91.25    5.60
  -3  -4  10  409.65   13.71
  -3  -4  10  403.81   13.18
  -3  -4  10  406.21   12.83
  -3  -4  11    3.65    2.41
  -3  -4  11   -0.83    2.23
  -3  -4  11    4.10    2.42
  -3  -4  12  206.32   11.01
  -3  -4  12  212.45   10.00
  -3  -4  12  204.56   10.13
  -3  -3  -7  528.18   15.89
  -3  -3  -6  659.94   17.42
  -3  -3  -5  886.17   20.24
  -3  -3  -5  926.98   15.40
  -3  -3  -4  230.84    6.40
  -3  -3  -3 2396.90   32.98
  -3  -3  -2 1623.98   24.29
  -3  -3  -1 2633.24   37.00
  -3  -3  -1 2616.71   36.09
  -3  -3   0 3533.61   46.10
  -3  -3   0 3470.94   46.28
  -3  -3   1 2588.98   36.51
  -3  -3   1 2640.29   35.19
  -3  -3   1 2582.84   36.65
  -3  -3   1 2568.65   36.18
  -3  -3   2 1136.27   17.78
  -3  -3   2 1124.19   18.97
  -3  -3   2 1095.14   19.44
  -3  -3   2 1171.49   19.46
  -3  -3   3 4806.81   60.76
  -3  -3   3 3980.27   61.05
  -3  -3   3 4090.46   59.29
  -3  -3   3 5112.62   57.68
  -3  -3   3 4929.50   59.40
  -3  -3   4 2296.10   34.17
  -3  -3   4 2351.54   33.81
  -3  -3   4 2364.24   34.09
  -3  -3   4 2242.41   32.91
  -3  -3   5 5495.85   72.40
  -3  -3   5 5887.73   72.41
  -3  -3   5 5806.43   71.41
  -3  -3   5 5282.88   70.70
  -3  -3   6 3768.96   52.28
  -3  -3   6 3722.68   51.38
  -3  -3   6 3863.34   52.10
  -3  -3   6 3714.32   50.38
  -3  -3   7 3092.58   45.22
  -3  -3   7 3077.45   45.08
  -3  -3   7 3096.63   43.30
  -3  -3   7 3091.16   42.88
  -3  -3   8 1475.53   26.75
  -3  -3   8 1417.77   26.96
  -3  -3   8 1518.51   24.96
  -3  -3   8 1448.58   25.10
  -3  -3   9  720.89   18.25
  -3  -3   9  707.03   17.35
  -3  -3   9  730.49   16.65
  -3  -3  10  814.41   21.12
  -3  -3  10  858.87   20.05
  -3  -3  10  868.24   19.71
  -3  -3  11  488.99   16.55
  -3  -3  11  476.89   14.82
  -3  -3  11  461.98   14.72
  -3  -3  12  459.34   17.22
  -3  -3  12  465.54   15.19
  -3  -3  12  469.82   15.77
  -3  -2  -8   30.15    3.55
  -3  -2  -7  193.27    8.72
  -3  -2  -6   24.48    3.23
  -3  -2  -5    6.27    2.02
  -3  -2  -5    6.07    0.95
  -3  -2  -4    4.55    0.91
  -3  -2  -3   35.01    2.07
  -3  -2  -2  731.76   14.34
  -3  -2  -2  730.39   12.39
  -3  -2  -1 1231.12   19.68
  -3  -2  -1 1266.39   18.79
  -3  -2   0  827.39   14.30
  -3  -2   0  788.12   13.48
  -3  -2   0  813.29   13.80
  -3  -2   1  792.95   14.36
  -3  -2   1  806.95   14.87
  -3  -2   1  812.55   12.80
  -3  -2   2   70.14    3.70
  -3  -2   2   82.05    3.91
  -3  -2   2   69.71    2.61
  -3  -2   3   31.80    2.84
  -3  -2   3   36.44    2.73
  -3  -2   3   35.16    1.89
  -3  -2   3   32.86    2.70
  -3  -2   4  465.63    9.67
  -3  -2   4  469.76    9.21
  -3  -2   4  459.70    9.31
  -3  -2   5   36.38    3.20
  -3  -2   5   36.39    3.14
  -3  -2   5   38.53    2.96
  -3  -2   6  491.56   12.08
  -3  -2   6  461.24   11.87
  -3  -2   6  484.12   11.36
  -3  -2   6  489.56   12.16
  -3  -2   6  463.87   10.04
  -3  -2   7   37.94    3.63
  -3  -2   7   39.97    3.78
  -3  -2   7   44.69    3.33
  -3  -2   7   34.21    2.90
  -3  -2   8  282.82   10.26
  -3  -2   8  280.96    9.79
  -3  -2   8  278.89    8.90
  -3  -2   9  355.94   12.50
  -3  -2   9  348.72   11.52
  -3  -2   9  364.46   11.13
  -3  -2  10   84.36    6.62
  -3  -2  10   86.40    5.95
  -3  -2  10   95.78    6.04
  -3  -2  11  244.71   11.94
  -3  -2  11  249.90   10.50
  -3  -2  11  259.88   10.79
  -3  -2  12    4.03    2.46
  -3  -2  12    2.67    2.31
  -3  -1  -9  242.34    9.50
  -3  -1  -8  312.41   10.61
  -3  -1  -7  851.73   18.52
  -3  -1  -6 1029.12   20.16
  -3  -1  -4 2325.38   28.18
  -3  -1  -3 2780.12   37.53
  -3  -1  -3 2717.36   37.65
  -3  -1  -2  988.31   16.88
  -3  -1  -2 1035.76   17.23
  -3  -1  -2  990.21   14.11
  -3  -1  -1 3044.25   38.55
  -3  -1  -1 3095.31   39.47
  -3  -1  -1 3044.85   37.89
  -3  -1   0 2984.44   37.94
  -3  -1   0 2942.17   36.81
  -3  -1   1 4669.62   57.65
  -3  -1   2 8644.29  102.99
  -3  -1   3 6236.27   76.99
  -3  -1   3 6285.57   76.77
  -3  -1   4 1488.79   23.21
  -3  -1   4 1430.25   22.48
  -3  -1   4 1428.99   19.01
  -3  -1   5 6402.53   36.41
  -3  -1   5 6275.90   34.74
  -3  -1   5 6080.08   25.73
  -3  -1   6 1017.29   19.25
  -3  -1   6  998.56   19.55
  -3  -1   6 1037.60   18.87
  -3  -1   6 1014.42   19.48
  -3  -1   6 1000.88   16.81
  -3  -1   7 2865.75   42.07
  -3  -1   7 2939.91   43.41
  -3  -1   7 2823.49   41.61
  -3  -1   7 2798.04   39.39
  -3  -1   8 1788.80   32.47
  -3  -1   8 1854.89   31.16
  -3  -1   8 1839.91   29.52
  -3  -1   9 1198.01   26.19
  -3  -1   9 1235.78   24.59
  -3  -1   9 1247.44   23.66
  -3  -1  10  443.25   15.58
  -3  -1  10  450.33   13.93
  -3  -1  10  415.95   13.23
  -3  -1  11  724.99   19.04
  -3  -1  11  679.00   18.75
  -3  -1  12  164.88    8.89
  -3  -1  12  157.59    9.24
  -3   0  -9   22.50    2.79
  -3   0  -8   20.12    2.58
  -3   0  -7   -0.21    1.34
  -3   0  -6   24.80    2.58
  -3   0  -4   20.65    2.29
  -3   0  -3   30.14    2.48
  -3   0  -2 1982.60   24.83
  -3   0  -2 2043.12   27.91
  -3   0  -2 1964.44   23.99
  -3   0  -1  142.50    3.84
  -3   0  -1  138.28    4.19
  -3   0   0  613.41    9.49
  -3   0   0  602.53   10.35
  -3   0   0  623.26   11.63
  -3   0   0  617.57   11.74
  -3   0   1 1535.15   21.96
  -3   0   1 1589.02   22.76
  -3   0   1 1549.75   22.36
  -3   0   1 1568.82   22.81
  -3   0   2 4361.05   54.82
  -3   0   2 4405.38   54.79
  -3   0   3  932.80   15.86
  -3   0   3  931.83   15.62
  -3   0   4  685.12   13.78
  -3   0   4  691.37   13.55
  -3   0   4  725.28   13.97
  -3   0   4  693.01   10.54
  -3   0   5 1206.31   20.71
  -3   0   5 1220.84   20.82
  -3   0   5 1219.04   20.61
  -3   0   5 1172.33   17.43
  -3   0   6    2.67    1.30
  -3   0   6    2.76    1.86
  -3   0   6    2.10    1.73
  -3   0   6    2.45    1.37
  -3   0   6    2.96    1.33
  -3   0   7  906.46   19.93
  -3   0   7  915.96   19.19
  -3   0   7  927.05   17.31
  -3   0   8 1071.14   23.42
  -3   0   8 1065.76   22.08
  -3   0   8 1069.85   20.58
  -3   0   9   99.03    7.06
  -3   0   9  103.95    6.44
  -3   0   9   90.84    5.73
  -3   0  10   80.96    6.05
  -3   0  10   74.93    5.71
  -3   0  11    0.18    2.09
  -3   0  11   -1.24    2.31
  -3   1  -9  270.39    8.47
  -3   1  -8  519.49   11.94
  -3   1  -7 1273.64   21.10
  -3   1  -6 1295.17   20.71
  -3   1  -4 2453.61   35.07
  -3   1  -3 2097.47   29.82
  -3   1  -2 2499.25   30.12
  -3   1  -2 2497.54   33.07
  -3   1  -2 2426.71   29.57
  -3   1  -1 1852.49   23.61
  -3   1  -1 1840.10   24.93
  -3   1  -1 1787.24   23.20
  -3   1  -1 1807.92   24.21
  -3   1   0 2116.22   28.29
  -3   1   0 2203.42   27.03
  -3   1   0 2195.04   29.38
  -3   1   0 2165.19   28.94
  -3   1   0 2166.79   28.25
  -3   1   0 2176.38   28.11
  -3   1   0 2139.62   26.88
  -3   1   1 2030.92   27.59
  -3   1   1 2035.80   24.57
  -3   1   1 2042.12   27.65
  -3   1   1 2040.02   27.86
  -3   1   1 2026.26   27.03
  -3   1   1 2029.27   27.44
  -3   1   1 2008.15   24.26
  -3   1   2 2604.24   34.73
  -3   1   2 2584.60   31.16
  -3   1   2 2546.86   30.39
  -3   1   2 2576.82   34.43
  -3   1   2 2602.35   34.14
  -3   1   2 2597.61   34.83
  -3   1   2 2601.34   34.66
  -3   1   3 2770.96   37.54
  -3   1   3 2731.87   37.22
  -3   1   3 2762.86   37.06
  -3   1   3 2719.69   33.36
  -3   1   4 2668.76   23.03
  -3   1   4 2576.26   22.49
  -3   1   4 2641.09   22.62
  -3   1   4 2594.87   16.33
  -3   1   5 1260.44   22.06
  -3   1   5 1239.03   22.34
  -3   1   5 1315.21   22.54
  -3   1   5 1269.63   22.39
  -3   1   5 1226.67   19.40
  -3   1   6 1659.55   28.46
  -3   1   6 1598.74   27.59
  -3   1   6 1639.73   25.38
  -3   1   7  490.76   14.16
  -3   1   7  502.43   13.83
  -3   1   7  509.92   12.52
  -3   1   8 1375.31   28.51
  -3   1   8 1387.56   26.96
  -3   1   8 1396.89   25.57
  -3   1   9  918.89   21.39
  -3   1   9  887.86   20.62
  -3   1  10 1020.00   23.98
  -3   1  10  992.49   23.43
  -3   1  11  675.59   19.41
  -3   1  11  667.08   19.75
  -3   2 -10    1.21    1.65
  -3   2  -9  168.90    5.80
  -3   2  -8   71.19    3.48
  -3   2  -7  133.83    4.54
  -3   2  -6   51.59    2.62
  -3   2  -4    2.62    1.21
  -3   2  -3  107.72    2.60
  -3   2  -3  105.33    3.37
  -3   2  -3  105.59    4.42
  -3   2  -3  105.63    2.77
  -3   2  -2  366.34    6.69
  -3   2  -2  365.80    7.05
  -3   2  -2  373.55    8.16
  -3   2  -2  363.35    6.74
  -3   2  -1    8.81    1.25
  -3   2  -1   10.13    1.22
  -3   2  -1    9.96    1.37
  -3   2  -1    7.33    1.31
  -3   2  -1   10.08    1.01
  -3   2  -1   10.36    1.17
  -3   2  -1    9.48    1.14
  -3   2   0    2.44    1.30
  -3   2   0    3.41    1.05
  -3   2   0    4.93    1.24
  -3   2   0    2.27    1.03
  -3   2   0    4.85    0.98
  -3   2   0    1.04    0.99
  -3   2   1   17.84    2.19
  -3   2   1   16.85    1.77
  -3   2   1   13.55    1.35
  -3   2   1   18.77    1.91
  -3   2   1   18.66    1.60
  -3   2   1   19.79    1.98
  -3   2   2  120.83    3.89
  -3   2   2  125.89    5.07
  -3   2   2  121.78    4.82
  -3   2   2  115.84    4.27
  -3   2   2  120.30    4.53
  -3   2   3  347.57    8.74
  -3   2   3  345.94    7.46
  -3   2   3  349.80    7.93
  -3   2   3  338.16    9.22
  -3   2   4  943.62   14.76
  -3   2   4  929.36   11.85
  -3   2   5  500.88   12.82
  -3   2   5  530.29   13.29
  -3   2   5  504.42   11.31
  -3   2   6  115.42    6.34
  -3   2   6  117.15    6.28
  -3   2   6  124.20    5.71
  -3   2   7  100.49    6.53
  -3   2   7  109.13    6.54
  -3   2   7  104.79    5.85
  -3   2   8   16.34    3.17
  -3   2   8   16.08    2.85
  -3   2   9   14.92    3.22
  -3   2   9   14.87    3.14
  -3   2  10   42.96    5.10
  -3   2  10   42.83    4.95
  -3   3 -11  757.03   18.30
  -3   3 -10  470.37   13.13
  -3   3  -9  297.02    9.57
  -3   3  -8 1129.66   20.80
  -3   3  -8 1206.31   16.94
  -3   3  -7   13.45    1.11
  -3   3  -6 1026.41   17.06
  -3   3  -6 1706.83   17.95
  -3   3  -5 1865.78   22.66
  -3   3  -5 1896.34   22.78
  -3   3  -4 3132.31   38.27
  -3   3  -4 3253.90   39.64
  -3   3  -3 5145.67   64.26
  -3   3  -3 4986.66   59.14
  -3   3  -3 4959.01   60.78
  -3   3  -3 5200.17   63.80
  -3   3  -2 3195.04   42.17
  -3   3  -2 3185.51   40.20
  -3   3  -2 3157.47   38.89
  -3   3  -2 3132.63   36.90
  -3   3  -2 3243.50   40.65
  -3   3  -2 3195.58   41.68
  -3   3  -1  519.84    9.14
  -3   3  -1  534.54   10.71
  -3   3  -1  511.15    7.44
  -3   3  -1  524.24    9.55
  -3   3  -1  512.70   10.18
  -3   3  -1  520.57   10.32
  -3   3   0 2909.50   36.52
  -3   3   0 2900.01   38.06
  -3   3   0 2917.26   37.99
  -3   3   0 2903.10   38.93
  -3   3   0 2858.47   37.54
  -3   3   1 2068.26   28.03
  -3   3   1 2043.29   28.83
  -3   3   1 2099.23   29.80
  -3   3   1 2141.81   30.52
  -3   3   2 6140.14   31.54
  -3   3   2 6185.90   30.29
  -3   3   3 2350.63   31.57
  -3   3   3 2286.30   29.43
  -3   3   3 2269.78   28.97
  -3   3   3 2367.16   31.27
  -3   3   4 3070.15   44.18
  -3   3   4 3106.18   44.23
  -3   3   4 3146.95   43.36
  -3   3   5  920.30   19.15
  -3   3   5  935.86   19.98
  -3   3   5  908.41   18.14
  -3   3   6  173.86    8.16
  -3   3   6  170.57    8.31
  -3   3   6  180.70    7.57
  -3   3   7  943.45   21.85
  -3   3   7  934.36   20.77
  -3   3   8  528.62   16.27
  -3   3   8  514.97   15.73
  -3   3   9  173.25    9.65
  -3   3   9  180.53    9.57
  -3   4 -10   71.93    4.59
  -3   4  -9   10.22    1.83
  -3   4  -8  168.17    6.05
  -3   4  -7  140.81    4.95
  -3   4  -6    1.14    0.52
  -3   4  -6    2.00    0.86
  -3   4  -6    2.53    1.08
  -3   4  -5   73.43    2.91
  -3   4  -5   67.55    4.58
  -3   4  -5   70.34    2.49
  -3   4  -4   26.91    2.92
  -3   4  -4   24.51    1.00
  -3   4  -4   24.12    0.92
  -3   4  -4   28.66    2.13
  -3   4  -4   26.14    2.62
  -3   4  -3  614.27   13.40
  -3   4  -3  620.08    9.60
  -3   4  -3  632.81   12.13
  -3   4  -3  650.14   13.44
  -3   4  -2   73.16    2.68
  -3   4  -2   79.55    4.26
  -3   4  -2   71.61    2.86
  -3   4  -2   78.72    3.88
  -3   4  -2   76.03    3.97
  -3   4  -1   27.93    1.52
  -3   4  -1   26.29    2.57
  -3   4  -1   25.82    2.03
  -3   4  -1   24.40    2.40
  -3   4  -1   25.67    2.28
  -3   4   0    4.84    1.59
  -3   4   0    6.10    0.96
  -3   4   0    5.75    1.32
  -3   4   0    9.72    1.72
  -3   4   1   16.72    1.67
  -3   4   1   18.57    2.33
  -3   4   1   13.82    1.89
  -3   4   1   17.44    2.25
  -3   4   2  222.88    7.47
  -3   4   2  218.44    7.73
  -3   4   2  206.75    6.29
  -3   4   3   95.61    4.69
  -3   4   3  112.54    5.67
  -3   4   4  376.54   10.71
  -3   4   4  376.01   11.44
  -3   4   4  368.83   11.99
  -3   4   4  383.77   11.01
  -3   4   5  186.87    8.87
  -3   4   5  181.09    7.85
  -3   4   6  174.05    8.94
  -3   4   6  164.36    7.99
  -3   4   7  258.17   11.52
  -3   4   7  282.65   11.38
  -3   4   8  288.66   12.69
  -3   4   8  276.36   12.12
  -3   4   9   17.86    3.80
  -3   4   9   14.53    3.59
  -3   5  -9  829.83   15.60
  -3   5  -8  929.41   15.58
  -3   5  -8  878.82   21.15
  -3   5  -7 1967.14   26.61
  -3   5  -7 1995.58   26.48
  -3   5  -7 1905.98   34.08
  -3   5  -7 1957.39   29.69
  -3   5  -6  988.01   16.87
  -3   5  -6  975.19   13.62
  -3   5  -5  764.76   17.46
  -3   5  -5  797.08   13.53
  -3   5  -5  794.52   14.23
  -3   5  -5  783.17   14.75
  -3   5  -4  820.17   12.71
  -3   5  -4  797.92   17.37
  -3   5  -3  553.74   13.64
  -3   5  -3  546.49    8.69
  -3   5  -3  566.57    9.71
  -3   5  -3  591.12   13.43
  -3   5  -3  592.16   12.75
  -3   5  -2 1665.79   20.71
  -3   5  -2 1691.99   27.88
  -3   5  -2 1749.86   24.36
  -3   5  -2 1754.64   27.36
  -3   5  -2 1744.51   27.37
  -3   5  -1 1671.40   20.78
  -3   5  -1 1639.35   27.29
  -3   5  -1 1636.78   25.19
  -3   5  -1 1650.95   26.79
  -3   5   0 2297.65   35.39
  -3   5   0 2355.84   29.84
  -3   5   1  884.74   14.48
  -3   5   1  869.52   17.92
  -3   5   2  844.68   18.30
  -3   5   3 1544.26   28.39
  -3   5   4  736.38   18.53
  -3   5   4  764.65   18.16
  -3   5   5  907.98   22.41
  -3   5   5  897.30   21.05
  -3   5   5  895.12   21.90
  -3   5   6  945.75   23.84
  -3   5   6  906.73   22.40
  -3   5   7  171.22    9.92
  -3   5   7  148.43    8.95
  -3   5   8  360.22   15.30
  -3   5   8  365.18   14.80
  -3   6 -11   23.31    4.00
  -3   6 -10   43.27    5.03
  -3   6  -9  108.25    7.23
  -3   6  -8  103.70    6.90
  -3   6  -7   41.61    4.38
  -3   6  -7   45.57    2.97
  -3   6  -6  245.99    9.83
  -3   6  -6  263.65    6.60
  -3   6  -6  260.28    7.76
  -3   6  -5   62.36    2.47
  -3   6  -5   58.95    4.76
  -3   6  -5   61.39    3.84
  -3   6  -5   59.80    3.87
  -3   6  -4  141.32    2.66
  -3   6  -4  144.86    2.70
  -3   6  -3  342.39   10.89
  -3   6  -2  286.98    9.89
  -3   6  -1  750.72   17.25
  -3   6   0  542.41   14.25
  -3   6   1  153.54    7.51
  -3   6   2    8.29    2.63
  -3   6   3   16.05    3.14
  -3   6   4   12.33    3.22
  -3   6   4    9.19    2.83
  -3   6   5  207.78   10.60
  -3   6   5  216.89   11.00
  -3   6   5  209.61   10.29
  -3   6   6  143.97    9.51
  -3   6   6  136.98    8.85
  -3   7 -10  417.75   15.24
  -3   7  -9 1070.02   25.52
  -3   7  -8 1066.03   24.56
  -3   7  -7  836.87   20.88
  -3   7  -6 1383.39   18.48
  -3   7  -6 1452.35   28.48
  -3   7  -5  697.66   18.11
  -3   7  -4  731.95   18.38
  -3   7  -3 2369.43   39.45
  -3   7  -2  234.16    9.72
  -3   7  -1 1817.41   32.61
  -3   7   0  817.11   19.98
  -3   7   1  925.63   22.07
  -3   7   2 1340.08   28.66
  -3   7   3 1045.59   25.43
  -3   7   4  407.45   15.58
  -3   7   4  397.92   15.00
  -3   7   5  570.09   19.48
  -3   7   5  561.94   18.74
  -3   8 -10   41.50    5.17
  -3   8  -9   29.79    4.28
  -3   8  -8   25.89    3.97
  -3   8  -7   53.83    5.41
  -3   8  -6   -0.46    2.35
  -3   8  -5   96.74    6.72
  -3   8  -4   10.39    2.97
  -3   8  -3   89.25    6.50
  -3   8  -2  106.92    7.00
  -3   8  -1   53.67    5.21
  -3   8   0   87.86    6.79
  -3   8   1  102.27    7.46
  -3   8   2  145.61    9.24
  -3   8   3  128.53    9.15
  -3   8   3  107.44    8.07
  -3   8   4   83.58    7.67
  -3   8   4   91.12    7.59
  -3   9  -9  396.83   15.64
  -3   9  -8  763.25   21.94
  -3   9  -7 1446.78   31.81
  -3   9  -6 1074.99   26.10
  -3   9  -5 1333.04   29.65
  -3   9  -4  421.81   15.25
  -3   9  -3  197.07   10.19
  -3   9  -2  524.09   17.30
  -3   9  -1  760.31   21.58
  -3   9   0  596.09   19.43
  -3   9   1  693.54   21.60
  -3   9   2  298.58   14.26
  -3  10  -7   47.00    5.68
  -3  10  -6  264.75   12.78
  -3  10  -5  176.70   10.29
  -3  10  -4  139.14    9.09
  -3  10  -3   65.88    6.43
  -3  10  -2    2.22    2.33
  -3  10  -1  281.00   13.72
  -2 -10   5  411.20   13.67
  -2 -10   5  427.73   16.33
  -2 -10   6  492.95   14.81
  -2 -10   6  549.74   18.74
  -2 -10   7 1300.63   31.07
  -2  -9   1  191.18    9.73
  -2  -9   1  184.07    9.82
  -2  -9   2  299.40   11.91
  -2  -9   2  313.55   12.76
  -2  -9   3  109.21    7.06
  -2  -9   3  126.01    8.13
  -2  -9   4  107.60    7.67
  -2  -9   5   26.29    4.16
  -2  -9   6   30.32    4.45
  -2  -9   7  208.98   10.72
  -2  -9   8  322.57   13.69
  -2  -9   9  177.10   10.23
  -2  -9  10  267.28   12.76
  -2  -8  -2  420.00   15.31
  -2  -8  -2  391.97   13.58
  -2  -8  -1  709.11   19.97
  -2  -8  -1  725.56   19.33
  -2  -8   0  710.98   15.75
  -2  -8   0  664.52   18.56
  -2  -8   0  663.43   18.46
  -2  -8   1  799.40   16.09
  -2  -8   1  742.07   19.48
  -2  -8   1  762.23   19.94
  -2  -8   2  732.73   14.69
  -2  -8   2  743.64   19.58
  -2  -8   3 1047.57   17.74
  -2  -8   3 1007.30   23.88
  -2  -8   4  713.16   13.34
  -2  -8   4  696.28   19.10
  -2  -8   5  910.27   15.61
  -2  -8   5  895.78   22.18
  -2  -8   6  869.34   15.23
  -2  -8   6  827.63   21.39
  -2  -8   7 1006.26   17.63
  -2  -8   7  997.80   24.21
  -2  -8   8  729.64   15.15
  -2  -8   8  876.88   22.15
  -2  -8   9 1503.19   25.46
  -2  -8   9 1482.50   31.77
  -2  -8  10  415.22   15.44
  -2  -8  11  486.24   17.16
  -2  -7  -3   21.49    3.82
  -2  -7  -3   16.47    2.78
  -2  -7  -2  102.44    7.02
  -2  -7  -2  100.65    6.25
  -2  -7  -1  267.89   10.87
  -2  -7  -1  250.57   10.05
  -2  -7   0   65.57    5.24
  -2  -7   0   64.96    5.22
  -2  -7   1  300.61    8.88
  -2  -7   1  293.31   11.00
  -2  -7   2   62.24    3.67
  -2  -7   2   63.24    5.27
  -2  -7   3 1174.46   19.04
  -2  -7   3 1109.11   23.98
  -2  -7   4  880.28   15.40
  -2  -7   4  838.63   20.17
  -2  -7   5  683.90   12.79
  -2  -7   5  575.57   16.63
  -2  -7   6  759.21   14.31
  -2  -7   6  777.78   19.40
  -2  -7   7    4.09    1.39
  -2  -7   7    4.80    2.76
  -2  -7   8    9.00    1.85
  -2  -7   8    9.63    2.80
  -2  -7   9  514.85   13.15
  -2  -7   9  506.34   15.96
  -2  -7  10   52.19    4.34
  -2  -7  10   65.85    5.83
  -2  -7  11  466.76   14.38
  -2  -7  11  498.61   16.44
  -2  -7  12  270.94   12.30
  -2  -6  -5  170.25    9.43
  -2  -6  -4  712.78   19.65
  -2  -6  -4  691.30   16.51
  -2  -6  -3  926.43   22.02
  -2  -6  -3  899.74   19.39
  -2  -6  -2  735.36   18.62
  -2  -6  -2  720.48   16.89
  -2  -6  -1  745.06   18.25
  -2  -6  -1  749.35   17.28
  -2  -6   0  777.29   17.81
  -2  -6   1  670.60   13.91
  -2  -6   1  672.47   16.27
  -2  -6   2 1233.49   20.18
  -2  -6   2 1227.62   23.66
  -2  -6   3 1656.65   24.32
  -2  -6   3 1580.04   28.78
  -2  -6   4 1996.80   28.44
  -2  -6   4 2043.42   31.53
  -2  -6   5 1215.77   19.30
  -2  -6   5 1161.86   21.31
  -2  -6   5 1161.98   23.77
  -2  -6   6 2209.67   29.66
  -2  -6   6 2137.96   34.69
  -2  -6   7 1053.75   22.23
  -2  -6   7 1056.08   19.08
  -2  -6   7 1056.83   18.86
  -2  -6   7 1036.48   22.55
  -2  -6   8 1405.66   27.28
  -2  -6   8 1417.77   24.59
  -2  -6   8 1430.08   23.02
  -2  -6   8 1409.79   27.87
  -2  -6   9 1340.99   24.88
  -2  -6   9 1373.73   27.00
  -2  -6   9 1309.75   27.16
  -2  -6  10 1168.63   23.92
  -2  -6  10 1146.07   24.68
  -2  -6  10 1170.56   25.51
  -2  -6  11  662.70   17.89
  -2  -6  11  663.51   17.91
  -2  -6  11  636.70   18.34
  -2  -6  12  982.86   23.03
  -2  -6  12  954.49   23.74
  -2  -5  -6    5.61    2.36
  -2  -5  -5  182.86    9.24
  -2  -5  -5  171.11    6.97
  -2  -5  -4  106.46    6.75
  -2  -5  -4  108.05    5.46
  -2  -5  -3  305.74   11.04
  -2  -5  -3  293.99    9.24
  -2  -5  -2   15.49    2.79
  -2  -5  -2   17.26    2.45
  -2  -5  -1    3.50    1.72
  -2  -5   0    1.67    1.62
  -2  -5   1   12.66    1.82
  -2  -5   1   13.81    2.34
  -2  -5   2  722.55   13.51
  -2  -5   2  738.81   15.36
  -2  -5   2  750.38   16.11
  -2  -5   3  449.68    9.65
  -2  -5   3  442.29   12.09
  -2  -5   4  720.66   13.30
  -2  -5   4  763.70   15.57
  -2  -5   4  766.96   15.29
  -2  -5   4  719.87   16.19
  -2  -5   5  395.76   11.32
  -2  -5   5  382.00   10.60
  -2  -5   5  377.07    9.02
  -2  -5   5  417.09   10.41
  -2  -5   5  404.20   10.35
  -2  -5   5  399.15   11.57
  -2  -5   6   53.94    4.13
  -2  -5   6   58.20    3.50
  -2  -5   6   63.14    3.91
  -2  -5   6   55.43    3.49
  -2  -5   6   56.46    4.37
  -2  -5   7  344.26   10.86
  -2  -5   7  330.27    9.41
  -2  -5   7  339.38    8.70
  -2  -5   7  325.65   10.80
  -2  -5   8  223.24    8.91
  -2  -5   8  230.86    8.24
  -2  -5   8  231.09    6.98
  -2  -5   8  221.95    9.08
  -2  -5   9  233.82    9.29
  -2  -5   9  221.12    8.82
  -2  -5   9  228.91    7.21
  -2  -5  10  173.50    8.41
  -2  -5  10  181.44    8.36
  -2  -5  10  176.42    8.81
  -2  -5  11  110.74    7.30
  -2  -5  11  122.13    7.03
  -2  -5  11  129.26    7.98
  -2  -5  12   51.52    4.78
  -2  -5  12   42.06    5.07
  -2  -4  -7  661.80   18.45
  -2  -4  -6  393.78   13.35
  -2  -4  -6  371.35    9.82
  -2  -4  -5  291.73   11.00
  -2  -4  -5  294.98    8.49
  -2  -4  -4 1276.88   25.04
  -2  -4  -4 1276.52   21.51
  -2  -4  -3   74.28    5.02
  -2  -4  -3   72.17    3.99
  -2  -4  -2 3974.72   52.73
  -2  -4  -1 2177.40   32.11
  -2  -4   0 2905.41   40.12
  -2  -4   0 2819.85   39.88
  -2  -4   1 2261.00   31.95
  -2  -4   1 2236.12   32.54
  -2  -4   2  768.64   13.73
  -2  -4   2  818.18   14.97
  -2  -4   2  813.56   15.89
  -2  -4   3  200.52    7.08
  -2  -4   3  203.03    6.43
  -2  -4   3  199.96    5.77
  -2  -4   3  220.43    6.78
  -2  -4   3  204.81    7.09
  -2  -4   4 2235.98   33.56
  -2  -4   4 2208.42   30.86
  -2  -4   4 2274.38   32.28
  -2  -4   4 2291.41   32.54
  -2  -4   4 2246.66   33.57
  -2  -4   5 1801.84   28.84
  -2  -4   5 1820.88   27.12
  -2  -4   5 1797.13   26.81
  -2  -4   6 3000.08   43.22
  -2  -4   6 3058.84   42.23
  -2  -4   6 3066.55   40.46
  -2  -4   6 2909.56   41.31
  -2  -4   7  869.94   18.03
  -2  -4   7  872.45   17.45
  -2  -4   7  926.44   17.92
  -2  -4   7  888.56   15.84
  -2  -4   8 1277.42   23.75
  -2  -4   8 1272.49   23.75
  -2  -4   8 1316.59   20.98
  -2  -4   8 1302.55   24.18
  -2  -4   9  266.37    9.48
  -2  -4   9  257.28    9.74
  -2  -4   9  256.91    7.74
  -2  -4   9  270.89   10.02
  -2  -4  10  348.45   12.51
  -2  -4  10  368.71   11.67
  -2  -4  10  356.64   12.44
  -2  -4  11  892.91   20.20
  -2  -4  11  891.14   22.24
  -2  -4  12  509.53   14.95
  -2  -4  12  529.51   17.40
  -2  -3  -8   31.69    3.97
  -2  -3  -7  129.47    7.23
  -2  -3  -6   69.78    5.18
  -2  -3  -6   72.96    3.64
  -2  -3  -5   30.33    3.40
  -2  -3  -5   29.71    2.37
  -2  -3  -4  205.72    8.13
  -2  -3  -4  218.20    6.36
  -2  -3  -3   97.42    4.11
  -2  -3  -2  760.38   15.03
  -2  -3  -2  718.45   13.30
  -2  -3  -1 1091.47   18.52
  -2  -3  -1 1081.71   17.78
  -2  -3   0  163.95    5.42
  -2  -3   0  171.00    5.64
  -2  -3   1  967.40   15.73
  -2  -3   1  941.92   15.64
  -2  -3   1  966.71   16.45
  -2  -3   2  162.16    4.94
  -2  -3   2  155.79    4.90
  -2  -3   2  151.67    5.51
  -2  -3   2  157.66    5.53
  -2  -3   3   12.79    2.20
  -2  -3   3   18.81    2.06
  -2  -3   3   12.25    1.58
  -2  -3   3   14.08    1.70
  -2  -3   4  607.37   12.78
  -2  -3   4  638.30   12.10
  -2  -3   4  629.84   11.84
  -2  -3   5 1054.59   18.53
  -2  -3   5 1030.65   17.57
  -2  -3   5 1059.99   18.16
  -2  -3   5 1030.81   17.06
  -2  -3   6 1852.18   29.10
  -2  -3   6 1858.86   28.69
  -2  -3   6 1935.44   29.05
  -2  -3   6 1911.27   27.15
  -2  -3   6 1838.92   28.26
  -2  -3   7  199.48    7.42
  -2  -3   7  199.76    7.56
  -2  -3   7  210.79    6.43
  -2  -3   7  206.47    7.54
  -2  -3   7  208.20    7.33
  -2  -3   8  421.25   11.49
  -2  -3   8  405.57   12.03
  -2  -3   8  392.86   10.14
  -2  -3   8  430.17   11.81
  -2  -3   9   23.88    3.03
  -2  -3   9   19.89    3.07
  -2  -3   9   23.16    3.43
  -2  -3   9   23.84    2.55
  -2  -3  10   40.23    4.66
  -2  -3  10   49.34    4.21
  -2  -3  10   51.05    4.85
  -2  -3  11  279.71   10.32
  -2  -3  11  273.54   11.63
  -2  -3  12   55.66    4.81
  -2  -3  12   49.12    5.36
  -2  -2  -9  485.44   14.62
  -2  -2  -8  709.16   17.65
  -2  -2  -7  396.45   12.06
  -2  -2  -6  296.65    9.97
  -2  -2  -5  411.79   11.42
  -2  -2  -5  419.75    8.42
  -2  -2  -4  417.92   10.98
  -2  -2  -4  433.55    8.47
  -2  -2  -3 2057.89   29.77
  -2  -2  -3 1858.54   25.67
  -2  -2  -2 1042.93   17.23
  -2  -2  -2  954.27   15.01
  -2  -2  -1 2645.65   34.91
  -2  -2  -1 2593.75   33.69
  -2  -2   0 1151.34   17.27
  -2  -2   0 1180.26   17.44
  -2  -2   1  999.65   15.76
  -2  -2   1 1007.82   14.84
  -2  -2   1  993.50   15.86
  -2  -2   1 1028.72   15.74
  -2  -2   2 2935.13   38.96
  -2  -2   2 3051.20   39.09
  -2  -2   2 3003.41   38.28
  -2  -2   2 3015.53   37.18
  -2  -2   3 1249.17   19.37
  -2  -2   3 1286.87   19.21
  -2  -2   3 1245.38   18.94
  -2  -2   4 3084.09   40.87
  -2  -2   4 3086.44   40.29
  -2  -2   4 3155.48   39.98
  -2  -2   4 3086.86   40.75
  -2  -2   5 1936.73   28.32
  -2  -2   5 1858.91   28.11
  -2  -2   5 1921.47   27.08
  -2  -2   5 1966.25   28.53
  -2  -2   5 1914.57   27.05
  -2  -2   6 1962.80   29.48
  -2  -2   6 1919.57   29.95
  -2  -2   6 1945.51   28.05
  -2  -2   6 1973.21   30.03
  -2  -2   6 1959.37   28.87
  -2  -2   7 2269.67   33.96
  -2  -2   7 2257.45   35.27
  -2  -2   7 2282.50   32.79
  -2  -2   7 2274.23   33.96
  -2  -2   8 1131.76   21.16
  -2  -2   8 1123.25   22.87
  -2  -2   8 1147.73   20.32
  -2  -2   8 1160.13   21.89
  -2  -2   9  899.75   21.09
  -2  -2   9  900.89   18.78
  -2  -2   9  888.73   19.84
  -2  -2  10  533.19   14.17
  -2  -2  10  523.04   15.50
  -2  -2  11  351.49   11.63
  -2  -2  11  349.20   13.32
  -2  -2  12  634.09   19.70
  -2  -1  -9   54.38    4.44
  -2  -1  -8   22.06    2.88
  -2  -1  -7  122.11    5.94
  -2  -1  -6  163.15    6.71
  -2  -1  -5  272.81    8.20
  -2  -1  -4  213.65    7.45
  -2  -1  -4  214.49    7.14
  -2  -1  -4  207.00    4.40
  -2  -1  -3   27.89    2.41
  -2  -1  -3   34.90    2.66
  -2  -1  -3   28.26    1.45
  -2  -1  -2  364.47    8.33
  -2  -1  -2  377.20    8.43
  -2  -1  -2  366.76    6.35
  -2  -1  -1  545.00    9.76
  -2  -1  -1  553.40    8.81
  -2  -1   0 1655.40   21.34
  -2  -1   0 1632.36   21.87
  -2  -1   1  316.48    6.62
  -2  -1   1  310.83    5.18
  -2  -1   2  272.58    6.38
  -2  -1   2  253.78    6.05
  -2  -1   3  231.63    6.07
  -2  -1   3  230.47    5.76
  -2  -1   3  223.55    4.55
  -2  -1   4    9.58    2.02
  -2  -1   4    8.08    1.39
  -2  -1   4    5.73    1.52
  -2  -1   4    8.18    1.36
  -2  -1   5  845.34   12.02
  -2  -1   5    0.32    1.12
  -2  -1   5  873.36   11.72
  -2  -1   5    0.02    0.95
  -2  -1   5  847.96   10.72
  -2  -1   6   26.35    2.70
  -2  -1   6   25.10    2.48
  -2  -1   6   27.86    2.47
  -2  -1   7  149.64    6.23
  -2  -1   7  150.05    6.91
  -2  -1   7  154.32    6.02
  -2  -1   7  168.07    6.53
  -2  -1   7  155.85    6.29
  -2  -1   8  281.67   10.48
  -2  -1   8  296.48    9.40
  -2  -1   8  277.38    9.46
  -2  -1   9  687.73   18.57
  -2  -1   9  721.98   16.44
  -2  -1   9  680.85   16.90
  -2  -1  10  156.43    7.44
  -2  -1  10  157.52    8.31
  -2  -1  11    7.31    2.22
  -2  -1  11    2.75    2.31
  -2  -1  12    7.19    2.87
  -2   0 -10  203.23    8.14
  -2   0  -9  679.03   15.52
  -2   0  -8  334.16    9.75
  -2   0  -7 1839.97   28.52
  -2   0  -6 1847.40   28.07
  -2   0  -5 3235.82   42.94
  -2   0  -4 1236.54   20.56
  -2   0  -3  643.41   12.17
  -2   0  -2 2285.62   30.28
  -2   0  -1  806.56   10.87
  -2   0  -1  773.12   11.93
  -2   0   0 3269.03   39.10
  -2   0   0 3208.64   38.31
  -2   0   0 3296.64   40.29
  -2   0   2 1044.32   15.35
  -2   0   2  978.66   15.12
  -2   0   3 6999.11   84.74
  -2   0   3 7198.81   84.70
  -2   0   4   62.54    3.63
  -2   0   4   58.51    3.32
  -2   0   4   66.95    3.41
  -2   0   4   67.22    2.83
  -2   0   5 1189.96   19.80
  -2   0   5 1191.59   19.88
  -2   0   5 1242.86   20.13
  -2   0   5 1200.27   18.84
  -2   0   6 2511.08   36.69
  -2   0   6 2511.88   38.22
  -2   0   6 2589.70   37.08
  -2   0   6 2533.64   36.13
  -2   0   7 1572.44   27.98
  -2   0   7 1508.76   25.81
  -2   0   7 1606.75   26.26
  -2   0   7 1501.80   25.75
  -2   0   8  528.80   15.40
  -2   0   8  545.96   13.76
  -2   0   8  542.06   14.14
  -2   0   9  803.34   18.15
  -2   0   9  756.75   18.72
  -2   0  10  134.72    7.14
  -2   0  10  124.15    7.67
  -2   0  11  477.08   14.47
  -2   0  11  481.99   16.56
  -2   1 -11   16.22    3.04
  -2   1 -10    1.48    1.29
  -2   1 -10    0.85    1.71
  -2   1  -9    4.60    1.50
  -2   1  -8   21.41    2.22
  -2   1  -7   74.80    3.72
  -2   1  -6  460.06    9.71
  -2   1  -5  361.96    7.78
  -2   1  -5  367.31    9.64
  -2   1  -4    1.75    1.09
  -2   1  -3    4.64    1.21
  -2   1  -2  145.67    2.55
  -2   1  -2  145.49    2.55
  -2   1  -2  143.83    4.31
  -2   1  -1 1763.51   21.28
  -2   1  -1 1741.47   22.08
  -2   1  -1 1705.13   22.31
  -2   1   0 2135.07   27.09
  -2   1   0 2186.17   26.33
  -2   1   0 2199.01   27.38
  -2   1   0 2153.57   26.52
  -2   1   0 2132.77   27.28
  -2   1   0 2147.69   26.19
  -2   1   0 2139.77   27.05
  -2   1   1 6224.98   73.41
  -2   1   1 6162.96   72.58
  -2   1   1 6219.11   73.36
  -2   1   2  914.54   14.38
  -2   1   2  890.60   12.40
  -2   1   2  912.85   12.86
  -2   1   2  884.68   14.04
  -2   1   2  890.92   13.95
  -2   1   3  164.54    5.35
  -2   1   3  170.83    5.37
  -2   1   3  163.93    4.37
  -2   1   3  159.78    5.18
  -2   1   4   90.59    4.26
  -2   1   4   95.73    4.58
  -2   1   4   82.30    4.11
  -2   1   4   90.37    4.17
  -2   1   4   94.38    3.72
  -2   1   5    2.53    1.50
  -2   1   5    7.79    1.71
  -2   1   5    1.76    1.83
  -2   1   5    3.48    1.52
  -2   1   5    2.66    1.20
  -2   1   6  302.83    9.96
  -2   1   6  296.12    9.00
  -2   1   6  290.30    8.72
  -2   1   6  310.89    9.19
  -2   1   7  194.90    8.54
  -2   1   7  169.14    7.23
  -2   1   7  177.53    7.35
  -2   1   8   76.63    5.20
  -2   1   8   78.52    5.43
  -2   1   9   38.51    4.00
  -2   1   9   42.30    4.48
  -2   1  10   12.24    2.80
  -2   1  10   13.11    3.29
  -2   1  11   13.44    2.99
  -2   1  11   14.33    3.37
  -2   2 -11  386.73   12.85
  -2   2 -10  470.09   13.63
  -2   2  -9  675.49   16.13
  -2   2  -9  735.46   13.58
  -2   2  -8  524.26   13.03
  -2   2  -8  563.41   10.91
  -2   2  -7 1009.00   15.70
  -2   2  -6  563.10    9.62
  -2   2  -5 2202.13   28.01
  -2   2  -5 2299.06   33.04
  -2   2  -4 2930.85   39.82
  -2   2  -3 5465.14   67.13
  -2   2  -2 1155.55   15.02
  -2   2  -2 1185.94   15.93
  -2   2  -2 1178.60   17.55
  -2   2  -1 1633.29   21.93
  -2   2  -1 1624.99   20.72
  -2   2  -1 1577.92   20.46
  -2   2  -1 1586.53   19.05
  -2   2  -1 1586.90   21.30
  -2   2  -1 1613.22   21.78
  -2   2   0  142.38    4.02
  -2   2   0  141.27    3.42
  -2   2   0  135.74    3.90
  -2   2   0  141.04    3.10
  -2   2   0  133.27    4.11
  -2   2   1   18.06    1.67
  -2   2   1   23.41    1.97
  -2   2   1   19.40    1.57
  -2   2   2 3112.61   39.94
  -2   2   2 3113.94   39.80
  -2   2   2 3182.71   41.11
  -2   2   3 3072.07   40.97
  -2   2   3 3057.15   40.79
  -2   2   3 3150.65   41.95
  -2   2   3 3025.23   40.20
  -2   2   4 2689.44   23.76
  -2   2   4 2730.70   21.81
  -2   2   4 2791.60   23.66
  -2   2   4 2817.89   23.69
  -2   2   5 2024.97   31.63
  -2   2   5 1919.53   30.76
  -2   2   5 1995.91   30.76
  -2   2   5 1971.05   30.19
  -2   2   6  453.39   12.38
  -2   2   6  470.81   12.36
  -2   2   7  765.16   17.49
  -2   2   7  726.39   17.50
  -2   2   8  707.07   17.60
  -2   2   8  735.96   18.67
  -2   2   9 1326.22   27.00
  -2   2   9 1311.18   28.40
  -2   2  10  476.87   15.19
  -2   2  10  424.52   15.87
  -2   3 -11   35.46    3.86
  -2   3 -10  405.17   11.90
  -2   3  -9  163.07    4.49
  -2   3  -9  145.46    6.50
  -2   3  -8   57.60    3.78
  -2   3  -8   61.32    2.38
  -2   3  -7  796.05   14.98
  -2   3  -7  814.14   11.41
  -2   3  -6    8.81    0.76
  -2   3  -6    8.28    1.53
  -2   3  -6   10.38    0.66
  -2   3  -6    9.16    1.47
  -2   3  -5  620.53    9.49
  -2   3  -5  630.37   12.06
  -2   3  -5  612.94   10.68
  -2   3  -5  629.32   13.55
  -2   3  -4 1173.44   16.44
  -2   3  -4 1182.04   16.05
  -2   3  -4 1224.90   20.11
  -2   3  -3   55.00    3.40
  -2   3  -3   45.98    1.33
  -2   3  -3   46.91    1.28
  -2   3  -3   46.21    2.38
  -2   3  -3   49.84    3.05
  -2   3  -2  708.15   12.83
  -2   3  -2  687.24    9.97
  -2   3  -2  697.62   11.89
  -2   3  -2  691.74   12.68
  -2   3  -1   83.41    2.22
  -2   3  -1   86.07    3.75
  -2   3  -1   79.64    2.85
  -2   3  -1   81.59    3.55
  -2   3  -1   87.00    3.57
  -2   3   0   12.94    1.87
  -2   3   0   13.50    1.06
  -2   3   0   12.40    1.52
  -2   3   0   11.30    1.65
  -2   3   1   40.83    2.78
  -2   3   1   39.43    2.09
  -2   3   1   39.62    2.66
  -2   3   2  201.75    5.98
  -2   3   2  192.94    5.18
  -2   3   2  208.57    6.38
  -2   3   3 2217.30   32.27
  -2   3   3 2185.45   31.44
  -2   3   3 2176.23   30.97
  -2   3   3 2260.19   32.49
  -2   3   4   41.20    3.37
  -2   3   4   43.02    3.67
  -2   3   4   46.06    3.54
  -2   3   5  361.68   11.21
  -2   3   5  359.39   10.77
  -2   3   6    3.59    1.98
  -2   3   6   -1.17    2.00
  -2   3   7   63.72    5.21
  -2   3   7   59.86    5.08
  -2   3   8  153.46    8.25
  -2   3   8  151.47    8.57
  -2   3   9   74.46    6.14
  -2   3   9   75.33    6.67
  -2   4 -11  411.37   12.11
  -2   4 -10 1350.25   24.13
  -2   4  -9  243.83    7.93
  -2   4  -8  449.10    7.61
  -2   4  -8  454.17   10.47
  -2   4  -7  989.54   14.61
  -2   4  -7  981.34   16.38
  -2   4  -7 1003.01   18.14
  -2   4  -6 1924.24   26.26
  -2   4  -6 1987.47   28.53
  -2   4  -6 2001.85   26.58
  -2   4  -5 2820.74   36.65
  -2   4  -5 2870.54   37.18
  -2   4  -5 2715.85   40.91
  -2   4  -5 2835.79   34.94
  -2   4  -5 2965.40   40.99
  -2   4  -4 6279.12   80.02
  -2   4  -4 6209.06   74.89
  -2   4  -4 6384.72   76.63
  -2   4  -4 6369.74   77.11
  -2   4  -3 1624.43   20.93
  -2   4  -3 1627.13   25.80
  -2   4  -3 1745.69   25.98
  -2   4  -3 1707.17   24.67
  -2   4  -2 3330.17   44.00
  -2   4  -2 3209.51   40.08
  -2   4  -2 3228.27   43.30
  -2   4  -2 3249.02   43.03
  -2   4  -1 1614.28   24.48
  -2   4  -1 1585.07   22.34
  -2   4  -1 1631.43   24.43
  -2   4   0 2125.90   26.25
  -2   4   0 2104.88   30.76
  -2   4   0 2163.67   29.99
  -2   4   1 2184.73   20.83
  -2   4   1 2285.11   21.22
  -2   4   2 1599.77   26.58
  -2   4   2 1669.98   27.01
  -2   4   2 1675.75   27.27
  -2   4   3 1621.94   27.84
  -2   4   4  644.25   15.90
  -2   4   4  625.55   15.24
  -2   4   5  557.49   15.16
  -2   4   6 1068.48   23.61
  -2   4   6 1045.17   23.39
  -2   4   7   84.81    6.35
  -2   4   7   90.13    6.74
  -2   4   8  707.68   19.87
  -2   4   8  677.86   20.31
  -2   4   9  128.11    8.41
  -2   4   9  140.60    9.42
  -2   5 -10   87.18    4.70
  -2   5  -9  315.24    8.64
  -2   5  -8  382.47    8.24
  -2   5  -8  369.96    8.71
  -2   5  -8  363.27   12.39
  -2   5  -7  159.53    5.23
  -2   5  -7  171.24    4.92
  -2   5  -7  167.12    5.82
  -2   5  -7  161.26    7.66
  -2   5  -6  368.65    8.74
  -2   5  -6  369.16    6.91
  -2   5  -6  382.73    8.46
  -2   5  -6  385.07   11.57
  -2   5  -5  240.30    5.65
  -2   5  -5  254.02    8.84
  -2   5  -5  236.74    6.96
  -2   5  -4  289.09    9.34
  -2   5  -4  294.25    5.29
  -2   5  -4  305.51    8.42
  -2   5  -3  975.17   18.94
  -2   5  -3 1004.45   18.63
  -2   5  -3  980.88   18.12
  -2   5  -2  481.37   11.92
  -2   5  -2  491.17   11.75
  -2   5  -2  486.41   11.75
  -2   5  -1 1060.13   19.95
  -2   5  -1 1111.39   20.14
  -2   5   0  227.02    7.98
  -2   5   1  341.64   10.37
  -2   5   2  143.75    6.80
  -2   5   3    8.54    2.60
  -2   5   4  473.62   14.67
  -2   5   4  475.50   14.22
  -2   5   5  105.16    6.93
  -2   5   6  355.42   13.47
  -2   5   6  362.67   13.63
  -2   5   7  284.09   12.47
  -2   5   7  269.83   12.46
  -2   5   8    8.69    3.08
  -2   5   8    5.79    2.92
  -2   6 -11  362.07   14.12
  -2   6 -10  678.20   19.14
  -2   6  -9  807.63   14.39
  -2   6  -9  740.09   19.61
  -2   6  -8 1856.12   25.58
  -2   6  -8 1799.83   33.30
  -2   6  -7  711.36   17.78
  -2   6  -7  710.79   13.04
  -2   6  -7  702.86   14.26
  -2   6  -6  559.66    9.91
  -2   6  -6  558.68   12.48
  -2   6  -5  838.20   11.46
  -2   6  -5  837.13   16.47
  -2   6  -4  735.16   16.97
  -2   6  -3 1399.23   25.41
  -2   6  -2 4859.56   65.91
  -2   6  -1  765.02   17.18
  -2   6   0 1639.89   28.96
  -2   6   1  593.65   15.72
  -2   6   2  882.78   20.71
  -2   6   3 1114.20   24.96
  -2   6   4 1811.51   35.36
  -2   6   4 1811.02   34.63
  -2   6   5  614.48   18.69
  -2   6   6  384.11   15.17
  -2   6   6  389.40   15.34
  -2   7 -11   35.62    4.71
  -2   7 -10  285.90   12.21
  -2   7  -9  125.48    7.81
  -2   7  -8  718.78   19.05
  -2   7  -7  329.70   12.08
  -2   7  -6   88.86    1.90
  -2   7  -6   87.38    6.20
  -2   7  -5  541.17   15.42
  -2   7  -4  195.23    8.70
  -2   7  -3  260.39   10.17
  -2   7  -2 1766.66   31.67
  -2   7  -1   64.72    5.26
  -2   7   0  316.00   11.64
  -2   7   1   44.86    4.74
  -2   7   2   34.28    4.55
  -2   7   3   61.10    6.12
  -2   7   3   59.71    5.81
  -2   7   4   11.96    3.42
  -2   7   4   14.97    3.49
  -2   7   5  117.17    8.63
  -2   8 -10  515.20   17.16
  -2   8  -9  672.69   19.66
  -2   8  -8  777.65   20.96
  -2   8  -7 1231.32   27.04
  -2   8  -6 1574.07   31.45
  -2   8  -5 1616.27   31.59
  -2   8  -4 1130.41   25.07
  -2   8  -3  854.90   21.09
  -2   8  -2  387.71   13.49
  -2   8  -1 1047.56   24.39
  -2   8   0  971.15   23.98
  -2   8   1 1759.52   35.43
  -2   8   2  941.97   25.05
  -2   8   3  601.55   20.24
  -2   8   3  613.79   19.97
  -2   8   4  268.79   13.78
  -2   8   4  285.71   13.69
  -2   9  -9  125.96    8.55
  -2   9  -8   72.59    6.35
  -2   9  -7  222.49   11.01
  -2   9  -6  228.94   11.07
  -2   9  -5   52.01    5.46
  -2   9  -4  220.20   10.73
  -2   9  -3  320.63   12.96
  -2   9  -2  233.19   11.22
  -2   9  -1  366.15   14.63
  -2   9   0  545.81   18.50
  -2   9   1   81.26    7.30
  -2   9   2  150.32   10.29
  -2  10  -8  555.81   18.79
  -2  10  -7 1267.45   30.21
  -2  10  -6  653.18   20.50
  -2  10  -5  783.48   22.60
  -2  10  -4  129.49    8.76
  -2  10  -3  651.80   20.44
  -2  10  -2  394.28   15.83
  -2  10  -1  413.58   16.70
  -1 -10   3   88.51    6.35
  -1 -10   3   83.38    7.00
  -1 -10   4    6.96    2.27
  -1 -10   4   11.21    3.11
  -1 -10   5  228.77    9.35
  -1 -10   5  244.31   11.78
  -1 -10   6    7.63    3.00
  -1 -10   7  148.07    9.48
  -1 -10   8  254.63   12.38
  -1  -9   0  518.00   16.47
  -1  -9   0  519.56   16.82
  -1  -9   1 1032.99   24.04
  -1  -9   1 1076.85   25.50
  -1  -9   2  851.24   20.56
  -1  -9   2  876.23   22.35
  -1  -9   3 1017.22   22.40
  -1  -9   3 1086.71   25.42
  -1  -9   4  437.73   13.02
  -1  -9   4  477.68   15.87
  -1  -9   5  681.50   16.31
  -1  -9   5  721.64   20.14
  -1  -9   6  883.97   18.43
  -1  -9   6  882.40   22.80
  -1  -9   7  606.04   13.89
  -1  -9   7  596.80   18.32
  -1  -9   8 1044.55   25.57
  -1  -9   9  848.83   22.78
  -1  -9  10  540.09   17.89
  -1  -8  -2   40.14    4.72
  -1  -8  -2   34.17    4.01
  -1  -8  -1   71.80    5.88
  -1  -8  -1   71.31    5.71
  -1  -8   0  173.59    6.43
  -1  -8   0  168.96    8.58
  -1  -8   0  164.59    8.59
  -1  -8   1  120.57    4.87
  -1  -8   1  104.66    6.46
  -1  -8   1  116.50    7.03
  -1  -8   2  106.16    3.97
  -1  -8   2   96.45    6.00
  -1  -8   2   98.26    6.64
  -1  -8   3    1.46    0.71
  -1  -8   3   -1.34    1.89
  -1  -8   3   -0.52    2.33
  -1  -8   4   90.88    3.00
  -1  -8   4   93.33    6.48
  -1  -8   5   36.91    1.86
  -1  -8   5   35.48    4.38
  -1  -8   6  183.73    4.70
  -1  -8   6  180.26    9.02
  -1  -8   7  242.73    6.25
  -1  -8   7  251.46   10.74
  -1  -8   8  128.53    7.98
  -1  -8   9   52.69    5.34
  -1  -8  10  122.02    7.79
  -1  -8  11  126.97    8.09
  -1  -7  -4  181.81    9.55
  -1  -7  -4  182.58    8.50
  -1  -7  -3  881.52   22.27
  -1  -7  -3  969.38   21.37
  -1  -7  -2  330.16   12.19
  -1  -7  -2  319.07   11.31
  -1  -7  -1  566.32   15.77
  -1  -7  -1  547.57   15.33
  -1  -7   0  186.84    8.36
  -1  -7   0  180.90    8.36
  -1  -7   1  601.36   11.97
  -1  -7   1  576.66   14.96
  -1  -7   1  564.00   15.53
  -1  -7   2 1235.57   18.62
  -1  -7   2 1190.05   24.52
  -1  -7   3 1136.80   16.77
  -1  -7   3 1122.34   23.45
  -1  -7   4 1502.23   20.68
  -1  -7   4 1539.42   25.07
  -1  -7   4 1459.08   28.06
  -1  -7   5 1565.62   21.58
  -1  -7   5 1547.64   25.09
  -1  -7   5 1510.35   28.82
  -1  -7   6    7.39    1.21
  -1  -7   6    7.79    1.61
  -1  -7   6    8.79    1.83
  -1  -7   6    6.40    2.55
  -1  -7   7 2057.01   28.98
  -1  -7   7 1961.94   30.81
  -1  -7   7 2046.53   29.62
  -1  -7   7 2060.04   35.64
  -1  -7   8  397.14    9.91
  -1  -7   8  364.39   12.81
  -1  -7   9 1182.29   25.58
  -1  -7  10 1314.91   28.09
  -1  -7  11  459.83   15.50
  -1  -7  12  250.09   11.35
  -1  -6  -5   48.77    5.01
  -1  -6  -5   57.18    4.45
  -1  -6  -4  149.45    8.19
  -1  -6  -4  144.75    7.02
  -1  -6  -3  332.72   11.93
  -1  -6  -3  313.67   10.50
  -1  -6  -2  466.79   13.72
  -1  -6  -2  446.83   12.73
  -1  -6  -1  124.85    6.52
  -1  -6  -1  127.87    6.47
  -1  -6   0   -1.50    2.05
  -1  -6   0    2.44    1.63
  -1  -6   1   78.09    3.68
  -1  -6   1   80.16    5.10
  -1  -6   2  214.03    5.68
  -1  -6   2  218.30    8.45
  -1  -6   3  615.03   10.41
  -1  -6   3  583.19   14.71
  -1  -6   4  626.81   10.70
  -1  -6   4  662.57   13.38
  -1  -6   4  635.45   15.39
  -1  -6   5  277.07    6.50
  -1  -6   5  269.38    7.81
  -1  -6   5  287.92    9.86
  -1  -6   6  132.42    4.75
  -1  -6   6  131.35    5.34
  -1  -6   6  136.73    6.91
  -1  -6   7   18.74    2.12
  -1  -6   7   20.78    1.88
  -1  -6   7   15.82    1.99
  -1  -6   7   13.50    2.76
  -1  -6   8    3.25    1.36
  -1  -6   8    4.49    1.37
  -1  -6   8    5.24    1.04
  -1  -6   8    2.06    1.84
  -1  -6   9   -0.33    1.63
  -1  -6   9    4.88    2.22
  -1  -6  10  260.87   10.51
  -1  -6  11   53.22    4.97
  -1  -6  11   50.80    5.53
  -1  -6  12   12.60    3.37
  -1  -6  12   13.98    3.06
  -1  -5  -7  296.04   12.19
  -1  -5  -6  330.62   12.53
  -1  -5  -6  335.55   10.35
  -1  -5  -5  925.46   21.47
  -1  -5  -5  927.60   18.96
  -1  -5  -4  666.78   17.32
  -1  -5  -4  675.61   15.21
  -1  -5  -3  800.25   18.44
  -1  -5  -3  780.58   16.58
  -1  -5  -2  727.35   16.79
  -1  -5  -2  738.10   15.78
  -1  -5  -1 1190.43   22.18
  -1  -5  -1 1183.56   21.48
  -1  -5   0 1276.59   22.62
  -1  -5   1 2679.69   37.69
  -1  -5   1 2440.66   37.32
  -1  -5   2 1230.26   17.77
  -1  -5   2 1223.56   21.35
  -1  -5   2 1194.74   21.65
  -1  -5   3 1972.45   30.25
  -1  -5   3 1964.88   25.83
  -1  -5   3 1959.86   30.85
  -1  -5   4 1266.89   22.07
  -1  -5   4 1238.62   18.08
  -1  -5   4 1283.54   20.26
  -1  -5   4 1283.02   22.66
  -1  -5   5 1356.23   19.03
  -1  -5   5 1355.54   20.42
  -1  -5   5 1380.30   23.14
  -1  -5   6 2374.49   36.42
  -1  -5   6 2393.31   33.48
  -1  -5   6 2447.92   34.33
  -1  -5   6 2492.19   32.59
  -1  -5   6 2400.01   36.95
  -1  -5   7 1297.35   23.51
  -1  -5   7 1320.84   21.75
  -1  -5   7 1300.44   22.02
  -1  -5   7 1299.33   19.22
  -1  -5   7 1299.70   23.96
  -1  -5   8 1711.00   28.82
  -1  -5   8 1718.59   28.06
  -1  -5   8 1728.94   23.97
  -1  -5   8 1666.36   27.61
  -1  -5   8 1676.66   29.35
  -1  -5   8 1771.15   30.88
  -1  -5   9 1097.25   21.62
  -1  -5   9 1120.86   22.24
  -1  -5   9 1135.66   17.25
  -1  -5   9 1122.25   24.14
  -1  -5   9 1117.94   22.60
  -1  -5  10  750.71   17.14
  -1  -5  10  762.43   19.86
  -1  -5  10  742.34   17.98
  -1  -5  11  921.84   19.75
  -1  -5  11  873.40   20.44
  -1  -5  11  884.21   22.94
  -1  -5  12  418.31   13.52
  -1  -5  12  379.78   15.16
  -1  -4  -8    5.53    2.41
  -1  -4  -7   21.82    3.43
  -1  -4  -7   19.68    2.45
  -1  -4  -6  185.72    8.64
  -1  -4  -6  183.21    6.81
  -1  -4  -5    9.63    2.29
  -1  -4  -5   11.13    1.92
  -1  -4  -4  100.01    5.84
  -1  -4  -4   87.74    4.57
  -1  -4  -3  376.85   10.99
  -1  -4  -3  369.47    9.64
  -1  -4  -2   17.06    2.62
  -1  -4  -2   21.26    2.35
  -1  -4  -1  221.40    7.28
  -1  -4  -1  214.61    6.88
  -1  -4   0  219.74    6.96
  -1  -4   0  219.75    7.01
  -1  -4   1  106.37    4.52
  -1  -4   1  111.71    4.85
  -1  -4   2  415.07    7.74
  -1  -4   2  420.93    9.73
  -1  -4   2  421.08   10.10
  -1  -4   3    7.03    1.14
  -1  -4   3    3.97    1.28
  -1  -4   3    2.78    1.10
  -1  -4   4  328.82    8.85
  -1  -4   4  326.30    8.75
  -1  -4   4  325.78    7.04
  -1  -4   4  338.67    7.88
  -1  -4   4  333.55    9.03
  -1  -4   5  388.30    9.79
  -1  -4   5  396.75    8.63
  -1  -4   5  404.98    9.05
  -1  -4   5  377.63    8.01
  -1  -4   5  382.86    9.98
  -1  -4   6  400.78   10.24
  -1  -4   6  391.24    9.39
  -1  -4   6  408.42    9.56
  -1  -4   6  385.70    7.86
  -1  -4   6  388.17   10.27
  -1  -4   6  388.64   10.69
  -1  -4   7  457.34   11.27
  -1  -4   7  434.04   11.00
  -1  -4   7  434.87    8.70
  -1  -4   7  464.06   11.04
  -1  -4   7  455.37   12.16
  -1  -4   8  183.45    7.09
  -1  -4   8  191.38    7.60
  -1  -4   8  188.94    5.45
  -1  -4   8  190.57    8.10
  -1  -4   9   55.36    4.02
  -1  -4   9   56.65    3.06
  -1  -4   9   55.98    4.88
  -1  -4  10    7.83    2.01
  -1  -4  10    9.72    2.77
  -1  -4  11    1.29    1.58
  -1  -4  11    2.84    2.34
  -1  -4  12  308.32   13.58
  -1  -3  -9  505.94   15.58
  -1  -3  -8  810.69   19.78
  -1  -3  -7  307.61   10.92
  -1  -3  -6 1474.06   27.40
  -1  -3  -6 1551.94   24.02
  -1  -3  -5   15.46    2.70
  -1  -3  -5   14.93    1.88
  -1  -3  -4 1072.08   20.44
  -1  -3  -4 1063.50   17.84
  -1  -3  -3 2667.90   38.25
  -1  -3  -3 2630.36   35.77
  -1  -3  -2 4063.44   52.45
  -1  -3  -2 3926.96   50.69
  -1  -3  -1 5557.51   68.16
  -1  -3  -1 5395.97   67.22
  -1  -3   0 5998.64   71.83
  -1  -3   0 5755.94   71.71
  -1  -3   1   10.51    1.50
  -1  -3   1    9.39    1.38
  -1  -3   1   10.28    1.88
  -1  -3   2 1256.95   17.33
  -1  -3   2 1277.38   19.15
  -1  -3   2 1301.41   19.81
  -1  -3   3  301.82    7.48
  -1  -3   3  304.61    7.27
  -1  -3   3  284.32    6.01
  -1  -3   3  297.93    6.73
  -1  -3   3  288.97    7.48
  -1  -3   4 2710.52   36.33
  -1  -3   4 2640.42   34.68
  -1  -3   4 2707.18   35.29
  -1  -3   4 2691.73   34.18
  -1  -3   5 1964.07   28.39
  -1  -3   5 1996.78   28.01
  -1  -3   5 1997.10   28.01
  -1  -3   5 1963.70   26.11
  -1  -3   5 1970.95   29.04
  -1  -3   6 2120.85   30.55
  -1  -3   6 2082.28   30.80
  -1  -3   6 2171.36   30.72
  -1  -3   6 2089.39   27.94
  -1  -3   6 2069.66   31.60
  -1  -3   7 1289.70   21.52
  -1  -3   7 1276.60   22.64
  -1  -3   7 1328.12   19.65
  -1  -3   7 1299.08   23.32
  -1  -3   8  524.76   12.11
  -1  -3   8  509.89   13.47
  -1  -3   8  514.18   10.61
  -1  -3   8  507.40   13.79
  -1  -3   9  908.32   17.71
  -1  -3   9  896.91   16.47
  -1  -3   9  889.46   20.47
  -1  -3  10 1338.86   23.76
  -1  -3  10 1324.12   27.67
  -1  -3  11  196.39    7.74
  -1  -3  11  193.09   10.01
  -1  -3  12 1331.98   31.00
  -1  -2  -9   48.46    4.53
  -1  -2  -8  143.87    7.14
  -1  -2  -7  232.39    8.75
  -1  -2  -6  188.00    7.37
  -1  -2  -6  193.33    5.78
  -1  -2  -5  291.90    9.04
  -1  -2  -5  302.85    7.24
  -1  -2  -4  295.18    8.54
  -1  -2  -4  299.11    6.92
  -1  -2  -3  938.16   15.63
  -1  -2  -3  887.92   13.25
  -1  -2  -2 1579.95   23.16
  -1  -2  -2 1536.16   21.49
  -1  -2  -1  496.71    9.64
  -1  -2  -1  515.22    9.15
  -1  -2   0  258.85    5.93
  -1  -2   0  264.40    5.98
  -1  -2   1   40.85    1.97
  -1  -2   1   37.19    2.05
  -1  -2   1   34.77    2.27
  -1  -2   1   38.99    2.36
  -1  -2   2   68.06    3.06
  -1  -2   2   62.85    2.62
  -1  -2   2   63.34    2.38
  -1  -2   2   66.91    2.78
  -1  -2   3 1018.71   15.74
  -1  -2   3 1051.42   15.11
  -1  -2   3 1033.08   15.39
  -1  -2   3 1042.47   14.74
  -1  -2   3  989.77   15.32
  -1  -2   4  290.36    6.91
  -1  -2   4  286.86    6.85
  -1  -2   4  287.52    6.80
  -1  -2   4  275.33    5.94
  -1  -2   4  285.46    6.97
  -1  -2   5  459.79    9.51
  -1  -2   5  443.92    9.92
  -1  -2   5  451.26    8.57
  -1  -2   5  443.51    9.77
  -1  -2   5  464.14   10.15
  -1  -2   6  251.67    6.97
  -1  -2   6  245.98    7.78
  -1  -2   6  246.92    6.32
  -1  -2   6  240.27    7.67
  -1  -2   7   26.44    3.03
  -1  -2   7   31.64    2.72
  -1  -2   7   29.51    3.16
  -1  -2   7   29.99    2.35
  -1  -2   8   37.15    3.11
  -1  -2   8   37.18    2.92
  -1  -2   8   37.36    3.64
  -1  -2   9   12.35    2.13
  -1  -2   9   12.24    2.72
  -1  -2   9   11.81    2.00
  -1  -2   9   17.51    2.41
  -1  -2  10   51.52    3.86
  -1  -2  10   54.90    5.18
  -1  -2  11    4.03    1.77
  -1  -2  11    4.06    2.51
  -1  -2  12    3.65    2.58
  -1  -1 -10  401.91   13.87
  -1  -1 -10  378.34   12.23
  -1  -1  -9  352.57   11.19
  -1  -1  -8  507.24   13.15
  -1  -1  -7  628.59   14.29
  -1  -1  -6 1041.21   18.98
  -1  -1  -5 1214.23   20.37
  -1  -1  -4 2427.89   19.66
  -1  -1  -4 2395.87   14.15
  -1  -1  -3  481.49    9.65
  -1  -1  -3  469.69    7.80
  -1  -1  -2 2627.97   34.57
  -1  -1  -2 2689.03   32.32
  -1  -1  -1 4803.54   57.40
  -1  -1   3  159.50    4.39
  -1  -1   3  154.33    4.55
  -1  -1   3  154.23    3.99
  -1  -1   3  166.85    4.54
  -1  -1   3  156.62    4.15
  -1  -1   4 3164.38   40.45
  -1  -1   4 3299.14   41.63
  -1  -1   4 3195.84   40.12
  -1  -1   4 3165.88   41.27
  -1  -1   4 3214.25   40.70
  -1  -1   5 1341.43   17.79
  -1  -1   5 1335.78   17.53
  -1  -1   6 3262.39   26.19
  -1  -1   6 3293.24   26.38
  -1  -1   6 3335.34   29.05
  -1  -1   7 2754.58   38.58
  -1  -1   7 2798.31   42.23
  -1  -1   7 2835.61   39.34
  -1  -1   7 2763.21   40.93
  -1  -1   7 2873.69   39.29
  -1  -1   8 2711.73   37.94
  -1  -1   8 2597.64   38.41
  -1  -1   8 2572.69   40.72
  -1  -1   8 2639.43   38.06
  -1  -1   9  521.47   12.67
  -1  -1   9  540.15   13.07
  -1  -1  10  448.63   11.94
  -1  -1  10  407.87   14.27
  -1  -1  11  339.32   13.75
  -1  -1  12  408.00   16.23
  -1   0 -11  144.96    7.09
  -1   0 -11  143.83    8.17
  -1   0 -10    0.92    1.38
  -1   0 -10    1.75    1.81
  -1   0  -9   28.78    3.56
  -1   0  -9   28.37    3.02
  -1   0  -8  129.09    5.78
  -1   0  -7  224.73    7.25
  -1   0  -6 1338.22   21.32
  -1   0  -5  172.00    6.04
  -1   0  -5  187.26    5.30
  -1   0  -4 2151.72   28.89
  -1   0  -3   83.44    3.07
  -1   0  -1 2198.55   27.03
  -1   0   0   23.11    1.02
  -1   0   0   21.03    0.81
  -1   0   1 1255.51   16.09
  -1   0   2 4323.45   50.70
  -1   0   2 4207.80   50.75
  -1   0   3 2460.97   31.87
  -1   0   3 2497.27   32.16
  -1   0   3 2529.22   32.05
  -1   0   3 2547.37   31.70
  -1   0   4    0.89    1.31
  -1   0   4    1.30    1.29
  -1   0   4    0.97    1.16
  -1   0   4    0.92    1.00
  -1   0   5   12.74    1.79
  -1   0   5   11.35    1.95
  -1   0   5   13.39    1.85
  -1   0   5   10.15    1.54
  -1   0   6   68.54    3.76
  -1   0   6   74.01    4.05
  -1   0   6   73.12    3.82
  -1   0   6   69.24    4.23
  -1   0   7  896.10   16.99
  -1   0   7  937.55   18.15
  -1   0   7  917.82   17.30
  -1   0   7  928.18   18.96
  -1   0   8  139.78    6.08
  -1   0   8  140.08    6.04
  -1   0   8  135.21    7.06
  -1   0   9  226.94    8.22
  -1   0   9  224.66    9.95
  -1   0  10   20.66    2.84
  -1   0  10   19.98    3.61
  -1   0  11    3.55    2.73
  -1   1 -11  331.05   12.18
  -1   1 -10  571.20   13.09
  -1   1 -10  457.67   14.04
  -1   1  -9  718.92   14.63
  -1   1  -9  678.55   16.54
  -1   1  -8 1857.78   27.66
  -1   1  -8 1819.93   30.20
  -1   1  -7 2874.74   38.57
  -1   1  -6 2278.33   30.69
  -1   1  -5 2553.40   21.13
  -1   1  -5 2256.16   15.42
  -1   1  -4 1272.81   19.41
  -1   1  -4 1255.35   17.19
  -1   1  -3 2791.46   33.47
  -1   1   0 3176.19   36.89
  -1   1   2 1812.10   23.92
  -1   1   2 1836.05   23.85
  -1   1   2 1803.20   23.48
  -1   1   2 1772.82   23.92
  -1   1   3 3419.88   42.32
  -1   1   3 3316.37   42.04
  -1   1   3 3243.77   42.61
  -1   1   3 3371.38   42.91
  -1   1   3 3320.68   42.23
  -1   1   4 2419.10   32.66
  -1   1   4 2297.14   33.63
  -1   1   4 2328.24   33.40
  -1   1   4 2319.16   32.53
  -1   1   5 4628.85   59.56
  -1   1   5 4861.34   61.16
  -1   1   5 4506.95   60.56
  -1   1   5 4776.96   59.77
  -1   1   6 1350.45   22.63
  -1   1   6 1430.83   24.23
  -1   1   6 1346.73   24.05
  -1   1   6 1390.10   22.74
  -1   1   7 1379.30   23.43
  -1   1   7 1345.88   23.18
  -1   1   7 1331.24   25.30
  -1   1   8  693.46   15.57
  -1   1   8  683.19   17.71
  -1   1   9  517.42   13.71
  -1   1   9  499.40   15.93
  -1   1  10  524.91   14.53
  -1   1  10  509.93   17.30
  -1   1  11  397.57   16.05
  -1   2 -11   30.03    3.76
  -1   2 -10   71.61    5.08
  -1   2 -10   78.79    4.02
  -1   2  -9   42.62    2.76
  -1   2  -9   39.57    3.67
  -1   2  -8   76.11    3.39
  -1   2  -8   77.92    4.61
  -1   2  -7  405.47   10.16
  -1   2  -7  412.48    8.25
  -1   2  -6  755.92   10.82
  -1   2  -6  788.17   14.82
  -1   2  -6  742.25   13.85
  -1   2  -6  754.84   11.64
  -1   2  -5 2157.67   26.85
  -1   2  -5 2214.15   29.64
  -1   2  -5 2186.53   26.95
  -1   2  -5 2199.13   30.48
  -1   2  -4 1274.36   16.55
  -1   2  -4 1251.11   17.76
  -1   2  -4 1254.57   15.56
  -1   2  -4 1310.43   18.83
  -1   2  -3 2398.20   29.33
  -1   2  -3 2404.90   30.44
  -1   2  -3 2409.09   29.38
  -1   2  -2 1434.25   20.14
  -1   2  -2 1417.77   16.91
  -1   2  -2 1421.03   18.97
  -1   2  -1  444.50    8.14
  -1   2  -1  444.31    6.79
  -1   2  -1  459.45    7.87
  -1   2  -1  440.10    8.00
  -1   2   0 3025.79   37.37
  -1   2   0 3079.71   37.89
  -1   2   1 1854.95   25.08
  -1   2   1 1866.42   23.78
  -1   2   1 1876.73   25.27
  -1   2   2 1287.54   18.96
  -1   2   2 1297.65   19.83
  -1   2   3  918.63   16.23
  -1   2   3  912.17   15.88
  -1   2   3  921.56   15.66
  -1   2   4  147.37    5.70
  -1   2   4  151.16    5.38
  -1   2   5   17.62    2.35
  -1   2   5   16.34    2.49
  -1   2   5   16.35    2.17
  -1   2   6    2.15    1.53
  -1   2   6    2.76    2.05
  -1   2   6    1.80    1.13
  -1   2   7   18.82    2.70
  -1   2   7   21.30    3.36
  -1   2   8    6.27    2.09
  -1   2   8    3.77    2.27
  -1   2   9   20.02    3.13
  -1   2   9   16.57    3.62
  -1   2  10   85.44    7.40
  -1   3 -12  212.70    9.26
  -1   3 -11  810.44   18.70
  -1   3 -10  161.92    7.27
  -1   3  -9 1986.66   32.17
  -1   3  -9 2098.75   27.64
  -1   3  -8  153.53    4.16
  -1   3  -8  150.81    6.09
  -1   3  -8  152.24    4.05
  -1   3  -7  720.14   11.64
  -1   3  -7  754.25   10.76
  -1   3  -7  715.43   14.02
  -1   3  -6 2387.84   29.94
  -1   3  -6 2461.96   32.97
  -1   3  -6 2361.41   31.70
  -1   3  -6 2241.43   27.49
  -1   3  -6 2322.47   34.50
  -1   3  -5 4458.67   54.42
  -1   3  -5 4527.14   54.86
  -1   3  -5 4537.97   56.02
  -1   3  -4 7152.99   84.59
  -1   3  -4 7211.87   84.58
  -1   3  -3 9525.99  113.51
  -1   3  -3 9590.57  111.85
  -1   3  -2 2345.09   31.71
  -1   3  -2 2361.96   31.09
  -1   3  -2 2319.18   31.47
  -1   3  -1 2543.24   33.98
  -1   3  -1 2597.71   33.97
  -1   3   0  765.22   13.37
  -1   3   1 8674.33  105.14
  -1   3   1 8867.67  105.06
  -1   3   1 8905.87  105.39
  -1   3   2 4401.51   28.62
  -1   3   2 4512.92   28.22
  -1   3   3 5818.53   73.89
  -1   3   3 5691.86   73.20
  -1   3   3 5818.84   72.97
  -1   3   4 4205.09   57.91
  -1   3   4 4372.78   57.45
  -1   3   5 1063.20   21.31
  -1   3   6 1052.99   21.28
  -1   3   6 1052.46   22.46
  -1   3   7 2732.78   42.55
  -1   3   7 2601.24   44.39
  -1   3   8  266.97   10.58
  -1   3   8  273.55   11.97
  -1   3   9 1635.86   31.28
  -1   3   9 1570.78   34.56
  -1   4 -12  157.74    7.69
  -1   4 -11  258.35    9.37
  -1   4 -10   20.24    2.65
  -1   4  -9  389.09   10.42
  -1   4  -8  181.86    5.27
  -1   4  -8  177.78    6.28
  -1   4  -7   54.68    2.84
  -1   4  -7   53.34    3.09
  -1   4  -7   53.05    3.32
  -1   4  -6 1280.94   19.41
  -1   4  -6 1267.26   18.96
  -1   4  -6 1288.87   19.97
  -1   4  -5  245.45    5.91
  -1   4  -5  241.76    4.80
  -1   4  -5  254.86    7.71
  -1   4  -5  254.62    5.48
  -1   4  -4  817.39   16.01
  -1   4  -4  838.21   12.27
  -1   4  -4  847.69   14.44
  -1   4  -3  477.20   11.05
  -1   4  -3  479.58    6.69
  -1   4  -3  503.66   10.50
  -1   4  -2   37.58    3.16
  -1   4  -2   37.92    2.76
  -1   4  -1  277.68    7.90
  -1   4   0   97.14    4.61
  -1   4   1 1982.97   20.67
  -1   4   1   90.03    5.00
  -1   4   2  503.03   12.40
  -1   4   2  488.09   12.03
  -1   4   3  441.98   12.42
  -1   4   3  427.87   11.92
  -1   4   3  445.47   11.77
  -1   4   4  301.56   10.48
  -1   4   4  301.44   10.60
  -1   4   5   -0.65    2.18
  -1   4   6    1.93    2.05
  -1   4   6   -0.42    2.48
  -1   4   7  127.86    7.55
  -1   4   7  130.48    8.25
  -1   4   8    1.00    2.01
  -1   4   8   -0.98    2.53
  -1   5 -12  460.63   13.19
  -1   5 -11  447.99   12.32
  -1   5 -10  889.48   17.79
  -1   5  -9  516.26   11.92
  -1   5  -9  533.47   15.30
  -1   5  -8 1313.79   21.27
  -1   5  -8 1362.20   21.41
  -1   5  -8 1323.28   25.91
  -1   5  -7 1601.85   24.48
  -1   5  -7 1596.22   23.27
  -1   5  -7 1602.46   28.35
  -1   5  -7 1596.42   24.29
  -1   5  -6 1893.57   28.19
  -1   5  -6 1921.42   25.87
  -1   5  -6 1881.62   31.31
  -1   5  -6 1909.40   26.40
  -1   5  -5 3278.94   48.29
  -1   5  -5 3304.43   46.08
  -1   5  -4 2638.83   31.78
  -1   5  -4 2623.02   39.03
  -1   5  -4 2719.75   37.56
  -1   5  -4 2735.86   38.15
  -1   5  -4 2806.55   39.21
  -1   5  -3 5526.42   69.40
  -1   5  -3 5459.93   69.68
  -1   5  -2 4914.71   64.60
  -1   5  -2 4989.66   64.73
  -1   5  -1 4557.77   55.47
  -1   5  -1 3599.35   53.55
  -1   5   0 3044.75   44.27
  -1   5   0 3149.14   44.63
  -1   5   1  818.66   17.73
  -1   5   2 1047.98   21.50
  -1   5   3 1150.10   24.15
  -1   5   3 1179.03   23.85
  -1   5   4 1388.26   28.62
  -1   5   4 1439.24   28.34
  -1   5   5 1905.98   35.92
  -1   5   6  930.91   23.85
  -1   5   7  318.29   13.09
  -1   5   7  337.11   14.35
  -1   6 -12    6.41    2.78
  -1   6 -11   38.15    4.78
  -1   6 -10  265.82    8.18
  -1   6 -10  246.36   10.72
  -1   6  -9  561.01   12.06
  -1   6  -9  566.07   16.18
  -1   6  -8  193.63    6.00
  -1   6  -8  189.67    8.70
  -1   6  -8  189.43    6.37
  -1   6  -7  691.07   17.15
  -1   6  -7  734.93   13.00
  -1   6  -7  704.59   14.99
  -1   6  -6   83.84    5.44
  -1   6  -6   88.74    3.17
  -1   6  -6   85.02    4.58
  -1   6  -5  116.97    2.73
  -1   6  -5  115.16    6.23
  -1   6  -5  119.69    5.55
  -1   6  -4  906.41   19.03
  -1   6  -3  597.57   14.66
  -1   6  -2  572.57   14.23
  -1   6  -1  975.20   20.13
  -1   6   0  190.52    8.22
  -1   6   1  108.66    6.43
  -1   6   2  256.98   10.49
  -1   6   3  114.31    7.47
  -1   6   3  119.38    7.43
  -1   6   4  114.22    7.86
  -1   6   4  125.44    8.03
  -1   6   5  147.24    9.20
  -1   6   6   81.88    7.31
  -1   7 -11  278.02   12.14
  -1   7 -10  738.91   20.02
  -1   7  -9 1049.59   24.01
  -1   7  -8  385.25   13.19
  -1   7  -7  485.59   14.68
  -1   7  -6  931.81   12.19
  -1   7  -6  999.32   21.65
  -1   7  -5  152.32    7.68
  -1   7  -4 4924.35   68.66
  -1   7  -3 1622.14   29.94
  -1   7  -2 2604.70   41.87
  -1   7  -1 1982.27   34.81
  -1   7   0 1050.89   23.36
  -1   7   1 1247.83   26.82
  -1   7   2 2790.50   47.69
  -1   7   3 1305.86   29.75
  -1   7   3 1255.94   28.75
  -1   7   4 1517.41   33.87
  -1   7   4 1492.49   33.31
  -1   7   5  333.82   14.89
  -1   8 -11    4.21    2.40
  -1   8 -10   84.61    6.67
  -1   8  -9   92.38    6.94
  -1   8  -8  365.81   13.50
  -1   8  -7  283.47   11.59
  -1   8  -6  323.02   12.25
  -1   8  -5   76.06    5.89
  -1   8  -4   50.66    4.97
  -1   8  -3  113.05    7.10
  -1   8  -2   98.16    6.62
  -1   8  -1  311.96   12.25
  -1   8   0  105.36    7.48
  -1   8   1   55.37    5.79
  -1   8   2    0.36    2.60
  -1   8   3   -3.77    3.21
  -1   8   3    0.99    2.80
  -1   9 -10  450.95   16.48
  -1   9  -9  412.02   15.27
  -1   9  -8 1055.43   25.88
  -1   9  -7 1008.92   24.75
  -1   9  -6 1280.61   28.45
  -1   9  -5 1363.25   29.57
  -1   9  -4  476.48   15.91
  -1   9  -3  450.82   15.54
  -1   9  -2 1052.05   25.75
  -1   9  -1  903.31   24.04
  -1   9   0 1410.28   32.11
  -1   9   1 1005.96   27.12
  -1  10  -8   86.28    7.24
  -1  10  -7  148.97    9.37
  -1  10  -6   63.19    6.32
  -1  10  -5   69.95    6.51
  -1  10  -4  275.52   12.75
  -1  10  -3   12.30    3.58
  -1  10  -2  571.64   19.45
  -1  10  -1  166.85   10.60
   0 -10   2  394.31   13.41
   0 -10   2  459.27   16.15
   0 -10   3  621.89   16.70
   0 -10   3  657.37   19.91
   0 -10   4  485.81   14.02
   0 -10   4  502.77   16.91
   0 -10   5  157.27    7.27
   0 -10   5  171.48    9.68
   0 -10   6  913.24   24.05
   0 -10   7  520.35   17.63
   0 -10   8  915.85   24.19
   0  -9  -1   17.59    3.37
   0  -9  -1   14.63    3.16
   0  -9   0   42.28    4.52
   0  -9   0   48.73    5.13
   0  -9   1  181.06    8.78
   0  -9   1  207.25   10.04
   0  -9   2   12.28    2.64
   0  -9   2    9.69    2.91
   0  -9   3    1.26    1.63
   0  -9   3    4.77    2.59
   0  -9   4    0.48    1.50
   0  -9   4    0.65    2.03
   0  -9   5   16.47    2.50
   0  -9   5   13.98    3.24
   0  -9   6   19.37    2.41
   0  -9   6   21.00    3.63
   0  -9   7  306.00   12.52
   0  -9   8  115.61    7.74
   0  -9   9   38.21    4.76
   0  -9  10    0.83    2.07
   0  -8  -3  415.04   14.73
   0  -8  -3  424.16   14.23
   0  -8  -2  712.41   19.04
   0  -8  -2  671.73   18.41
   0  -8  -1  940.62   21.86
   0  -8  -1  927.68   22.03
   0  -8   0 1341.31   26.58
   0  -8   0 1310.43   27.39
   0  -8   1 1130.86   16.67
   0  -8   1 1073.05   22.75
   0  -8   1 1101.70   24.35
   0  -8   2 1673.00   29.67
   0  -8   2 1754.84   32.19
   0  -8   3 1238.57   23.05
   0  -8   3 1245.15   26.10
   0  -8   4 1627.81   26.95
   0  -8   4 1648.59   31.12
   0  -8   5  981.31   18.09
   0  -8   5  985.49   22.53
   0  -8   6 1045.53   17.97
   0  -8   6 1032.98   23.31
   0  -8   7  351.77    8.06
   0  -8   7  334.99   12.22
   0  -8   8  767.65   19.56
   0  -8   9  558.00   16.56
   0  -8  10  721.02   19.36
   0  -8  11  493.69   15.86
   0  -7  -5   38.52    4.09
   0  -7  -4   36.50    4.34
   0  -7  -4   34.39    3.88
   0  -7  -3   32.59    4.18
   0  -7  -3   32.73    3.88
   0  -7  -2  210.46    9.12
   0  -7  -2  208.16    9.05
   0  -7  -1   34.10    3.77
   0  -7  -1   36.62    3.91
   0  -7   0  313.81    7.44
   0  -7   0  292.11   10.22
   0  -7   0  297.49   10.77
   0  -7   1    1.68    0.68
   0  -7   1    0.96    0.77
   0  -7   1   -0.05    1.59
   0  -7   1    0.42    2.02
   0  -7   2   38.88    1.63
   0  -7   2   38.12    1.63
   0  -7   2   34.79    3.28
   0  -7   2   37.73    3.85
   0  -7   3  383.00   10.22
   0  -7   3  368.79   11.92
   0  -7   4    7.92    1.42
   0  -7   4    4.25    1.42
   0  -7   4    5.76    2.19
   0  -7   5  343.07    8.49
   0  -7   5  336.57    8.30
   0  -7   5  329.21   11.20
   0  -7   6  211.81    5.91
   0  -7   6  214.36    6.29
   0  -7   6  205.89    8.77
   0  -7   7   22.10    2.13
   0  -7   7   23.70    1.69
   0  -7   7   24.44    1.70
   0  -7   7   26.07    3.51
   0  -7   8  307.89   11.10
   0  -7   9   97.53    6.29
   0  -7  10   27.79    3.69
   0  -7  11  253.75   10.47
   0  -6  -6  312.04   12.70
   0  -6  -6  323.00   11.11
   0  -6  -5  810.24   20.42
   0  -6  -5  754.97   18.05
   0  -6  -4 1298.82   26.58
   0  -6  -4 1286.43   24.97
   0  -6  -3 1168.68   24.06
   0  -6  -3 1186.63   23.24
   0  -6  -2  414.81   10.08
   0  -6  -2  401.61   12.34
   0  -6  -2  394.20   11.77
   0  -6  -1  505.92   10.56
   0  -6  -1  483.45   13.18
   0  -6  -1  510.28   13.46
   0  -6   0  648.40   11.43
   0  -6   0  609.67   14.42
   0  -6   0  647.64   15.24
   0  -6   1 2110.88   27.17
   0  -6   1 2132.37   27.49
   0  -6   1 2079.52   33.62
   0  -6   2 3115.48   37.11
   0  -6   2 3185.53   45.44
   0  -6   3 5614.61   70.16
   0  -6   3 5603.57   73.81
   0  -6   4 1239.78   18.63
   0  -6   4 1235.56   22.58
   0  -6   5 1772.21   22.92
   0  -6   5 1761.70   25.12
   0  -6   5 1748.01   29.52
   0  -6   6  826.36   14.38
   0  -6   6  830.79   13.26
   0  -6   6  821.43   18.05
   0  -6   7  823.52   11.82
   0  -6   7  801.35   14.86
   0  -6   7  847.65   18.37
   0  -6   8 1419.55   26.36
   0  -6   9 1897.80   32.54
   0  -6   9 1877.20   35.34
   0  -6  10  624.43   18.61
   0  -6  10  628.48   16.37
   0  -6  11  799.24   22.54
   0  -6  11  817.59   19.49
   0  -6  12  311.20   14.03
   0  -5  -7    3.08    2.35
   0  -5  -7    2.66    1.59
   0  -5  -6   60.47    5.26
   0  -5  -6   62.96    4.51
   0  -5  -5   32.15    3.83
   0  -5  -5   31.87    3.32
   0  -5  -4  219.82    9.04
   0  -5  -4  244.18    8.56
   0  -5  -3  512.36   13.80
   0  -5  -3  527.54   12.95
   0  -5  -2  125.44    4.94
   0  -5  -2  122.22    6.09
   0  -5  -2  120.77    5.65
   0  -5  -1  491.26    9.98
   0  -5  -1  473.67   11.93
   0  -5  -1  504.39   12.26
   0  -5   0   24.98    2.63
   0  -5   0   24.16    2.69
   0  -5   1  283.81    8.50
   0  -5   1  262.32    7.70
   0  -5   1  272.78    8.55
   0  -5   2  320.80    5.42
   0  -5   2  334.71    9.43
   0  -5   3  114.15    2.61
   0  -5   3  124.16    4.15
   0  -5   3  116.56    5.41
   0  -5   4  288.06    8.77
   0  -5   4  271.96    5.22
   0  -5   4  275.71    6.47
   0  -5   4  282.39    8.61
   0  -5   5    4.03    0.97
   0  -5   5    2.22    0.84
   0  -5   5    0.73    0.85
   0  -5   5    4.47    1.78
   0  -5   6    5.42    1.31
   0  -5   6    4.57    1.11
   0  -5   6    5.95    0.76
   0  -5   6    4.92    1.81
   0  -5   7    1.66    1.88
   0  -5   7    1.31    0.42
   0  -5   7    2.13    1.71
   0  -5   8    0.90    1.96
   0  -5   8    1.29    0.32
   0  -5   8    1.31    1.59
   0  -5   9   36.64    4.29
   0  -5   9   33.62    3.43
   0  -5  10   27.79    4.02
   0  -5  10   31.00    3.40
   0  -5  11   15.40    3.50
   0  -5  11   22.29    3.04
   0  -5  12   53.06    6.01
   0  -4  -8  405.74   13.94
   0  -4  -7 1144.67   24.63
   0  -4  -7 1177.38   21.87
   0  -4  -6  536.47   14.78
   0  -4  -6  508.14   12.64
   0  -4  -5 2843.85   43.71
   0  -4  -5 2887.07   41.25
   0  -4  -4  512.67   13.33
   0  -4  -4  524.33   12.23
   0  -4  -3 2497.23   34.84
   0  -4  -3 2433.50   35.20
   0  -4  -2 3738.08   47.98
   0  -4  -2 3740.11   50.41
   0  -4  -2 3665.00   49.33
   0  -4  -1 4073.98   27.84
   0  -4  -1 4084.65   27.67
   0  -4   0 4791.07   60.72
   0  -4   0 4845.92   61.42
   0  -4   1 4293.11   55.37
   0  -4   2 1970.47   21.35
   0  -4   2 2021.31   26.96
   0  -4   3 3872.44   49.70
   0  -4   3 3711.41   46.13
   0  -4   3 3790.02   49.43
   0  -4   4 3944.48   47.83
   0  -4   4 3961.16   48.60
   0  -4   4 4029.94   51.85
   0  -4   5 7318.57   88.19
   0  -4   5 7320.79   88.12
   0  -4   5 7551.78   90.84
   0  -4   5 7627.19   92.63
   0  -4   6 2096.50   30.04
   0  -4   6 2101.60   29.68
   0  -4   6 2031.73   28.87
   0  -4   6 2015.63   25.36
   0  -4   6 2169.06   32.90
   0  -4   6 2112.84   30.67
   0  -4   7 2292.96   32.95
   0  -4   7 2314.45   28.44
   0  -4   7 2309.46   33.86
   0  -4   7 2265.14   36.27
   0  -4   8 1065.87   18.55
   0  -4   8 1039.27   14.87
   0  -4   8 1043.97   22.15
   0  -4   8 1049.65   19.35
   0  -4   9  592.13   12.78
   0  -4   9  561.78   16.23
   0  -4   9  560.58   13.32
   0  -4  10  920.19   17.39
   0  -4  10  908.88   18.39
   0  -4  10  863.04   22.11
   0  -4  11 1223.99   23.02
   0  -4  11 1188.13   28.15
   0  -4  12   71.03    6.97
   0  -3  -9   15.64    3.09
   0  -3  -9   10.22    2.97
   0  -3  -8  149.59    7.79
   0  -3  -7    9.64    2.40
   0  -3  -6   96.06    5.62
   0  -3  -6   99.11    4.76
   0  -3  -5  139.48    6.32
   0  -3  -5  134.00    5.37
   0  -3  -4    5.88    1.44
   0  -3  -4    8.20    2.09
   0  -3  -4    4.40    1.34
   0  -3  -3  153.54    5.17
   0  -3  -3  145.67    5.58
   0  -3  -3  141.57    4.95
   0  -3  -2 3250.46   41.61
   0  -3  -2 3229.61   43.30
   0  -3  -2 3198.19   42.04
   0  -3  -1   31.95    2.50
   0  -3  -1   28.02    2.41
   0  -3   0  924.02   15.24
   0  -3   1   58.01    1.77
   0  -3   1   62.54    3.22
   0  -3   2    2.99    0.56
   0  -3   2    2.11    1.64
   0  -3   3  971.51   13.30
   0  -3   3  963.50   13.83
   0  -3   3  993.77   15.78
   0  -3   4  755.91   12.82
   0  -3   4  763.27   11.95
   0  -3   4  743.93   11.89
   0  -3   4  723.43   10.16
   0  -3   4  743.26   13.93
   0  -3   4  743.16   13.02
   0  -3   5 3500.08   44.37
   0  -3   5 3521.80   44.71
   0  -3   5 3457.31   41.11
   0  -3   5 3511.40   44.07
   0  -3   5 3340.55   46.54
   0  -3   5 3477.96   44.83
   0  -3   6  292.47    7.27
   0  -3   6  288.63    5.55
   0  -3   6  301.71    9.18
   0  -3   7   91.41    4.04
   0  -3   7   96.82    3.26
   0  -3   7   94.85    5.48
   0  -3   8   43.32    2.93
   0  -3   8   40.83    4.12
   0  -3   9  179.14    6.19
   0  -3   9  183.77    8.86
   0  -3  10   87.27    4.32
   0  -3  10   78.18    6.39
   0  -3  11  215.56   11.03
   0  -3  12   22.24    4.57
   0  -2 -10  372.38   13.61
   0  -2 -10  332.84   12.14
   0  -2  -9  541.26   15.14
   0  -2  -9  533.82   15.98
   0  -2  -8 1118.46   22.55
   0  -2  -7  525.73   13.64
   0  -2  -6 1185.69   21.68
   0  -2  -5 1124.41   19.96
   0  -2  -5 1115.20   18.12
   0  -2  -4 4323.70   28.21
   0  -2  -4 4289.52   24.15
   0  -2  -3 4552.72   56.29
   0  -2  -3 4490.98   56.78
   0  -2  -3 4382.22   54.99
   0  -2  -2 7115.31   85.15
   0  -2  -2 7280.99   86.10
   0  -2  -2 7174.72   84.91
   0  -2  -1 7449.29   86.86
   0  -2  -1 7270.14   86.38
   0  -2   0 3226.93   39.84
   0  -2   2 5598.78   66.22
   0  -2   3 4304.87   51.97
   0  -2   3 4305.47   51.56
   0  -2   3 4227.22   53.22
   0  -2   4 5746.98   70.29
   0  -2   4 5828.56   69.21
   0  -2   4 5988.68   71.81
   0  -2   5 1909.84   25.78
   0  -2   5 1884.24   24.65
   0  -2   6 2626.98   34.34
   0  -2   6 2605.61   33.79
   0  -2   6 2707.52   38.28
   0  -2   7 1900.81   26.81
   0  -2   7 1897.15   26.82
   0  -2   7 1923.27   31.23
   0  -2   8 2452.04   33.41
   0  -2   8 2425.01   34.20
   0  -2   8 2375.89   38.91
   0  -2   9 1548.24   23.92
   0  -2   9 1583.29   24.89
   0  -2  10 1061.26   18.41
   0  -2  10 1014.76   24.31
   0  -2  11  477.25   16.79
   0  -2  12  452.34   17.34
   0  -1 -10   69.86    5.71
   0  -1 -10   71.60    5.23
   0  -1  -9   88.12    5.49
   0  -1  -9   98.28    6.30
   0  -1  -8  186.30    7.47
   0  -1  -7  244.94    8.18
   0  -1  -6  409.04   10.25
   0  -1  -5  469.54   11.14
   0  -1  -5  507.66   11.36
   0  -1  -5  499.43   11.36
   0  -1  -5  477.33   10.65
   0  -1  -4  175.76    5.39
   0  -1  -4  170.68    5.35
   0  -1  -4  161.85    5.07
   0  -1  -4  155.07    4.15
   0  -1  -3 2007.82   26.95
   0  -1  -3 1982.08   26.89
   0  -1  -3 1913.94   26.48
   0  -1  -3 1902.87   25.27
   0  -1  -2  112.71    3.44
   0  -1  -2  118.51    3.62
   0  -1  -1  784.11   11.71
   0  -1  -1  849.99   11.37
   0  -1   0 1282.72   16.20
   0  -1   1   22.65    1.18
   0  -1   1   22.70    0.92
   0  -1   1   25.46    1.31
   0  -1   2  449.50    6.68
   0  -1   2  438.20    7.06
   0  -1   2  426.79    6.82
   0  -1   2  438.01    6.00
   0  -1   3  395.63    6.53
   0  -1   3  394.93    7.64
   0  -1   3  379.28    6.27
   0  -1   3  415.14    7.95
   0  -1   4  430.99    7.52
   0  -1   4  439.12    7.78
   0  -1   4  424.32    9.16
   0  -1   5  129.06    3.92
   0  -1   5  129.29    4.16
   0  -1   5  126.39    5.20
   0  -1   6  739.50   12.42
   0  -1   6  730.30   13.28
   0  -1   6  732.72   15.29
   0  -1   6  705.74   12.68
   0  -1   7  122.78    4.48
   0  -1   7  119.00    6.21
   0  -1   7  118.37    4.59
   0  -1   8   76.21    3.76
   0  -1   8   76.50    5.47
   0  -1   8   72.46    3.91
   0  -1   9   39.69    2.94
   0  -1   9   37.10    4.41
   0  -1   9   39.45    2.97
   0  -1  10   -0.64    2.39
   0  -1  10   -0.05    1.12
   0  -1  11    0.75    2.38
   0   0 -11   96.52    5.61
   0   0 -11   97.37    6.69
   0   0 -10  458.59   12.48
   0   0 -10  448.40   14.01
   0   0  -9  199.62    7.62
   0   0  -9  197.65    8.54
   0   0  -8 1387.92   23.52
   0   0  -8 1400.24   25.45
   0   0  -7 1528.87   24.70
   0   0  -7 1624.93   26.55
   0   0  -6 4486.13   57.78
   0   0  -6 4297.43   55.74
   0   0  -5 3288.84   44.23
   0   0  -5 3271.90   42.73
   0   0  -4 1036.10   16.42
   0   0  -4 1006.33   16.47
   0   0  -4  994.63   15.33
   0   0  -3 3201.26   40.42
   0   0  -3 3213.89   39.37
   0   0  -3 3219.15   40.21
   0   0  -1  380.87    5.69
   0   0   1  849.52   10.96
   0   0   3 3469.82   41.82
   0   0   3 3478.49   42.84
   0   0   3 3539.78   43.77
   0   0   3 3490.65   41.98
   0   0   4 1128.72   15.98
   0   0   4 1125.73   17.23
   0   0   4 1117.30   16.12
   0   0   4 1104.20   18.11
   0   0   5 3853.55   47.14
   0   0   5 3759.90   47.31
   0   0   5 3751.39   50.47
   0   0   6 5288.98   64.73
   0   0   6 5351.95   64.99
   0   0   7 1950.90   28.20
   0   0   7 1937.51   32.63
   0   0   7 1936.18   28.39
   0   0   8 1864.28   27.75
   0   0   8 1831.28   27.75
   0   0   9  268.30    8.20
   0   0   9  267.28   11.23
   0   0  10  620.36   19.05
   0   0  11  123.54    8.98
   0   1 -11    2.73    1.45
   0   1 -11    0.51    1.75
   0   1 -10   -0.25    1.75
   0   1 -10   -0.58    1.17
   0   1  -9   33.60    2.82
   0   1  -9   30.48    3.50
   0   1  -8   62.87    3.60
   0   1  -8   55.36    4.21
   0   1  -7   95.02    4.21
   0   1  -7  102.35    5.05
   0   1  -6  660.53   13.38
   0   1  -6  618.87   11.45
   0   1  -6  610.34   12.86
   0   1  -6  652.08   13.28
   0   1  -5  106.14    3.31
   0   1  -5  114.94    4.52
   0   1  -5  104.94    4.32
   0   1  -5  108.48    3.64
   0   1  -5  116.16    4.56
   0   1  -4  376.38    6.71
   0   1  -4  389.38    8.22
   0   1  -4  399.77    8.09
   0   1  -4  383.04    6.91
   0   1  -4  387.44    8.30
   0   1  -3  363.45    6.17
   0   1  -3  366.27    7.08
   0   1  -3  377.98    5.95
   0   1  -3  357.47    6.89
   0   1  -3  370.78    7.32
   0   1  -2  429.84    6.60
   0   1  -2  431.52    6.77
   0   1  -2  450.64    5.93
   0   1  -2  431.95    6.92
   0   1  -1   22.62    1.16
   0   1  -1   24.08    1.30
   0   1  -1   24.38    0.92
   0   1   0 1224.10   15.54
   0   1   1  872.79   12.55
   0   1   1  859.95   11.94
   0   1   2  118.71    3.89
   0   1   2  108.94    3.24
   0   1   3 2180.79   29.65
   0   1   3 2129.38   27.92
   0   1   4  200.96    5.48
   0   1   4  187.14    6.41
   0   1   4  194.15    5.33
   0   1   5  574.54   11.32
   0   1   5  600.62   11.36
   0   1   5  583.35   13.33
   0   1   6  521.40   11.05
   0   1   6  512.90   10.94
   0   1   7  317.91    8.79
   0   1   7  314.78   11.09
   0   1   7  328.97    8.99
   0   1   8  255.52    8.22
   0   1   8  242.07   10.47
   0   1   8  248.42    8.16
   0   1   9  129.00    6.04
   0   1   9  122.45    8.04
   0   1  10  106.48    8.04
   0   2 -12  321.77   12.13
   0   2 -11  356.72   12.18
   0   2 -11  383.14   10.06
   0   2 -10  791.79   15.24
   0   2 -10  785.48   18.16
   0   2  -9 1252.00   20.14
   0   2  -9 1213.95   23.08
   0   2  -8 1987.02   27.10
   0   2  -8 1953.79   27.60
   0   2  -8 1915.23   30.69
   0   2  -7 1675.28   23.10
   0   2  -7 1634.39   23.13
   0   2  -7 1623.56   25.79
   0   2  -6 2263.77   30.25
   0   2  -6 2396.30   33.22
   0   2  -6 2330.02   32.54
   0   2  -6 2311.06   29.90
   0   2  -6 2406.59   33.85
   0   2  -5 1719.99   23.28
   0   2  -5 1798.09   25.08
   0   2  -5 1702.51   24.45
   0   2  -5 1700.39   22.22
   0   2  -5 1776.05   25.78
   0   2  -4 5469.43   64.10
   0   2  -4 5426.71   64.94
   0   2  -4 5264.20   64.45
   0   2  -4 5413.52   66.11
   0   2  -3 4197.67   50.01
   0   2  -3 4182.33   49.64
   0   2  -3 4266.57   49.58
   0   2  -2 5399.95   62.01
   0   2  -2 5236.89   63.60
   0   2   0 3368.61   41.49
   0   2   1 8041.88   93.89
   0   2   1 7857.29   93.32
   0   2   2 8193.36   99.53
   0   2   2 8252.48   98.42
   0   2   3 4966.74   63.28
   0   2   3 4969.68   61.44
   0   2   4 5188.92   67.38
   0   2   4 5225.28   64.99
   0   2   5 1387.31   22.33
   0   2   5 1386.09   24.83
   0   2   6 1548.75   25.30
   0   2   6 1473.21   27.86
   0   2   6 1557.06   25.00
   0   2   7  751.92   16.04
   0   2   7  739.99   15.80
   0   2   7  714.59   18.78
   0   2   8 1515.56   26.53
   0   2   8 1467.23   30.80
   0   2   9  777.19   17.54
   0   2   9  748.71   21.80
   0   2  10  530.63   19.03
   0   3 -12   11.02    2.60
   0   3 -11  159.93    7.67
   0   3 -10   63.73    3.27
   0   3 -10   63.40    4.54
   0   3  -9  149.88    5.00
   0   3  -9  138.29    6.35
   0   3  -9  157.35    4.84
   0   3  -8   36.39    2.38
   0   3  -8   35.12    3.02
   0   3  -8   35.43    2.11
   0   3  -7   89.04    3.72
   0   3  -7   81.85    4.20
   0   3  -7   90.28    3.00
   0   3  -7   83.24    4.17
   0   3  -6  260.49    6.56
   0   3  -6  268.63    7.24
   0   3  -6  260.87    5.13
   0   3  -6  253.14    6.91
   0   3  -6  270.36    8.04
   0   3  -5 3173.60   41.36
   0   3  -5 3269.11   41.60
   0   3  -5 3256.60   41.29
   0   3  -5 3295.73   43.47
   0   3  -4  724.15   12.31
   0   3  -4  715.40   13.42
   0   3  -4  694.23   11.37
   0   3  -4  713.40   11.42
   0   3  -4  739.14   13.42
   0   3  -3  937.39   11.23
   0   3  -3  954.16   13.63
   0   3  -2    4.83    1.70
   0   3  -2    4.70    0.60
   0   3  -2    4.28    1.37
   0   3  -2    6.33    1.44
   0   3  -1   55.88    3.08
   0   3   0  964.66   16.15
   0   3   0 1013.97   16.24
   0   3   1   42.87    3.16
   0   3   1   32.12    2.46
   0   3   2 3666.24   50.06
   0   3   2 3809.80   49.08
   0   3   3  171.17    6.95
   0   3   3  169.71    6.76
   0   3   3  177.55    6.18
   0   3   4    3.64    1.98
   0   3   4    7.14    1.61
   0   3   5  169.51    7.78
   0   3   5  177.65    6.89
   0   3   6  130.28    6.37
   0   3   6  120.20    7.25
   0   3   7   12.49    2.51
   0   3   7   10.52    2.98
   0   3   8  215.03    9.01
   0   3   8  208.73   10.83
   0   3   9   19.00    4.16
   0   4 -12   49.76    4.51
   0   4 -11  910.58   19.82
   0   4 -10  727.75   16.34
   0   4  -9  490.15   10.65
   0   4  -9  462.26    8.60
   0   4  -9  478.74   11.94
   0   4  -8  937.03   16.30
   0   4  -8  893.36   16.95
   0   4  -7 2049.68   29.98
   0   4  -7 2071.87   30.14
   0   4  -6 2010.55   28.36
   0   4  -6 1893.42   30.26
   0   4  -6 2015.83   27.77
   0   4  -6 1925.52   27.38
   0   4  -6 1878.92   30.03
   0   4  -5 7175.18   78.75
   0   4  -5 7366.15   80.97
   0   4  -5 7140.08   76.68
   0   4  -4 3694.67   17.39
   0   4  -4 3768.87   26.62
   0   4  -3 3679.47   44.21
   0   4  -3 3900.57   49.46
   0   4  -3 3851.86   48.87
   0   4  -3 3747.84   48.83
   0   4  -2 2069.09   29.91
   0   4  -2 2074.75   29.84
   0   4  -1 4397.97   56.52
   0   4   0 5166.42   60.28
   0   4   0 4147.96   58.67
   0   4   1 4699.17   62.59
   0   4   1 4899.84   62.31
   0   4   2 4254.01   59.03
   0   4   2 4433.87   57.99
   0   4   3 3041.03   45.55
   0   4   3 2989.55   45.18
   0   4   3 3124.98   44.02
   0   4   4  644.85   16.53
   0   4   5 3731.14   56.54
   0   4   6  700.54   19.42
   0   4   7 1642.41   30.71
   0   4   7 1563.37   33.58
   0   4   8  580.30   16.87
   0   4   8  585.59   19.82
   0   5 -12   44.71    4.12
   0   5 -11   12.21    2.28
   0   5 -10   24.85    2.82
   0   5 -10   27.26    3.66
   0   5  -9   29.27    2.81
   0   5  -9   25.37    3.49
   0   5  -8    1.31    1.03
   0   5  -8    1.96    1.15
   0   5  -8    0.88    1.02
   0   5  -8    0.21    1.86
   0   5  -7    1.39    1.03
   0   5  -7    1.07    1.06
   0   5  -7    1.19    0.89
   0   5  -7    1.83    1.90
   0   5  -6    7.59    1.49
   0   5  -6    5.14    1.28
   0   5  -6    4.86    1.01
   0   5  -6    5.32    1.90
   0   5  -5    2.90    1.66
   0   5  -5    4.04    0.90
   0   5  -5    1.93    1.12
   0   5  -5    4.47    1.54
   0   5  -4  269.68    4.58
   0   5  -4  261.75    8.09
   0   5  -4  284.39    7.92
   0   5  -3  120.52    5.52
   0   5  -3  120.96    5.54
   0   5  -3  126.98    5.54
   0   5  -2  365.27    9.16
   0   5  -2  371.73    9.22
   0   5  -1  285.20    8.34
   0   5  -1   40.81    3.43
   0   5   0   29.29    3.20
   0   5   0   26.51    2.81
   0   5   1  544.97   13.88
   0   5   2  154.85    7.61
   0   5   3  636.91   17.14
   0   5   3  668.71   17.20
   0   5   4  307.61   11.88
   0   5   4  298.43   11.99
   0   5   5   50.83    5.38
   0   5   6   73.63    6.57
   0   5   7    0.55    2.00
   0   5   7   -0.44    2.78
   0   6 -12  251.03    9.35
   0   6 -12  271.01   11.75
   0   6 -11  658.92   15.47
   0   6 -11  700.02   18.91
   0   6 -10  526.56   12.82
   0   6 -10  518.16   15.50
   0   6  -9 1653.59   26.18
   0   6  -9 1566.38   30.22
   0   6  -8 1273.33   21.15
   0   6  -8 1310.96   21.23
   0   6  -7  790.86   13.92
   0   6  -7  746.92   17.68
   0   6  -6  788.51   12.80
   0   6  -6  744.24   17.39
   0   6  -5 1724.60   22.50
   0   6  -5 1710.94   29.35
   0   6  -4 1197.63   22.59
   0   6  -3 6019.91   78.82
   0   6  -2 3117.75   45.67
   0   6  -1 2167.97   34.96
   0   6   0  714.41   17.15
   0   6   1  584.28   15.83
   0   6   2  487.80   15.14
   0   6   3 1491.66   30.87
   0   6   3 1528.87   30.87
   0   6   4 1655.03   33.95
   0   6   4 1626.10   33.91
   0   6   5 1064.12   26.90
   0   6   6  466.99   17.78
   0   7 -12    1.88    1.96
   0   7 -11  192.88    9.71
   0   7 -10   24.49    3.66
   0   7  -9   92.78    6.40
   0   7  -8  251.41   10.25
   0   7  -7   20.24    3.18
   0   7  -7   22.55    1.80
   0   7  -6  194.34    8.66
   0   7  -5  315.75   11.04
   0   7  -4    7.16    2.33
   0   7  -3  395.37   12.39
   0   7  -2   41.91    4.17
   0   7  -1   -2.19    2.31
   0   7   0  344.95   12.52
   0   7   1   35.85    4.46
   0   7   2  268.75   11.94
   0   7   3   36.26    4.95
   0   7   3   34.10    4.76
   0   7   4   47.41    5.84
   0   7   4   51.05    5.93
   0   7   5   56.76    6.54
   0   8 -11  404.08   14.94
   0   8 -10  666.37   19.21
   0   8  -9  542.45   16.90
   0   8  -8  658.70   18.34
   0   8  -7  306.65   11.86
   0   8  -6 1010.64   23.02
   0   8  -5  946.02   22.06
   0   8  -4 1726.24   32.58
   0   8  -3 1284.24   26.87
   0   8  -2 1783.65   33.97
   0   8  -1 1236.59   27.28
   0   8   0 1621.81   33.28
   0   8   1 1112.29   27.26
   0   8   2  879.21   24.42
   0   8   2  824.71   23.49
   0   8   3  522.69   19.10
   0   8   3  542.67   19.27
   0   9 -10    1.39    2.17
   0   9  -9   35.20    4.59
   0   9  -8  114.03    7.72
   0   9  -7  271.18   11.77
   0   9  -6   17.84    3.47
   0   9  -5   19.99    3.67
   0   9  -4    1.02    2.16
   0   9  -3    1.61    2.00
   0   9  -2   15.64    3.60
   0   9  -1  230.35   11.58
   0   9   0   62.21    6.46
   0   9   1   22.46    4.58
   0  10  -8  925.78   24.49
   0  10  -7  503.13   17.37
   0  10  -6  889.05   23.86
   0  10  -5  174.14    9.90
   0  10  -4  561.24   18.53
   0  10  -3  733.73   22.04
   0  10  -2  509.72   18.34
   1 -10   1  126.62    7.44
   1 -10   1  151.55    9.08
   1 -10   2  484.12   14.52
   1 -10   2  496.20   16.76
   1 -10   3   10.99    2.27
   1 -10   3   10.73    3.14
   1 -10   4  261.26    9.45
   1 -10   4  275.56   12.22
   1 -10   5   57.10    5.67
   1 -10   6   59.59    5.76
   1 -10   7  153.77    9.05
   1 -10   8   74.72    6.48
   1  -9  -1  757.32   19.86
   1  -9  -1  774.91   20.81
   1  -9   0 1080.48   23.90
   1  -9   0 1144.37   25.88
   1  -9   1  753.96   18.50
   1  -9   1  817.65   20.97
   1  -9   2  889.43   19.73
   1  -9   2  940.62   22.84
   1  -9   3  414.37   11.91
   1  -9   3  437.85   14.67
   1  -9   4  454.08   11.92
   1  -9   4  463.21   15.04
   1  -9   5 1322.10   22.52
   1  -9   5 1337.11   28.20
   1  -9   6 1275.31   27.50
   1  -9   7 1040.39   24.36
   1  -9   8 1084.88   24.96
   1  -9   9  413.16   14.42
   1  -9  10  465.57   15.47
   1  -8  -3    2.60    2.12
   1  -8  -3   -1.11    2.05
   1  -8  -2    3.69    2.10
   1  -8  -2    1.22    1.90
   1  -8  -1   44.17    4.36
   1  -8  -1   53.97    5.08
   1  -8   0   94.29    5.91
   1  -8   0  100.45    6.59
   1  -8   1  244.12    9.08
   1  -8   1  252.07   10.36
   1  -8   2   94.66    5.30
   1  -8   2   92.34    6.28
   1  -8   3  100.79    5.18
   1  -8   3  105.32    6.55
   1  -8   4   49.32    3.37
   1  -8   4   44.00    4.38
   1  -8   5   66.33    3.56
   1  -8   5   75.05    5.60
   1  -8   6  311.36    7.18
   1  -8   6  300.50   11.23
   1  -8   7  288.06   10.95
   1  -8   8  424.56   13.70
   1  -8   9  104.22    6.64
   1  -8  10   94.72    6.45
   1  -8  11    5.59    2.19
   1  -7  -5  237.31   10.91
   1  -7  -5  247.41   10.35
   1  -7  -4 1088.62   24.90
   1  -7  -4 1170.54   24.65
   1  -7  -3  981.33   22.28
   1  -7  -3  984.37   22.05
   1  -7  -2 1734.44   32.04
   1  -7  -2 2001.51   33.71
   1  -7  -1 1072.28   17.01
   1  -7  -1 1044.79   22.26
   1  -7   0  895.08   19.05
   1  -7   0  872.92   20.07
   1  -7   1 1751.73   20.41
   1  -7   1 1737.27   27.88
   1  -7   1 1777.28   30.37
   1  -7   2 2338.59   34.73
   1  -7   2 2359.07   37.91
   1  -7   3 1590.23   24.86
   1  -7   3 1585.86   28.56
   1  -7   4 4703.35   59.79
   1  -7   4 4603.95   65.47
   1  -7   5  169.72    5.00
   1  -7   5  160.49    4.35
   1  -7   5  155.45    7.37
   1  -7   6 1049.45   12.99
   1  -7   6 1055.98   13.60
   1  -7   6 1022.36   20.18
   1  -7   7  555.36   14.70
   1  -7   8  434.08   12.87
   1  -7   9 1194.30   23.99
   1  -7  10  880.68   19.91
   1  -7  11  330.34   11.39
   1  -7  11  332.62   14.58
   1  -6  -6   54.10    5.24
   1  -6  -6   57.72    4.77
   1  -6  -5   99.13    6.76
   1  -6  -5  113.65    6.56
   1  -6  -4   84.73    5.90
   1  -6  -4   87.87    5.63
   1  -6  -3   87.48    5.73
   1  -6  -3   96.26    5.79
   1  -6  -2  229.95    6.76
   1  -6  -2  221.21    8.57
   1  -6  -2  236.04    8.89
   1  -6  -1   92.63    3.72
   1  -6  -1   93.41    5.31
   1  -6  -1   89.74    5.34
   1  -6   0  188.04    4.64
   1  -6   0  181.67    6.94
   1  -6   0  186.12    7.59
   1  -6   1  899.66   11.44
   1  -6   1  873.61   16.70
   1  -6   1  910.09   18.45
   1  -6   2  526.09   11.49
   1  -6   2  541.84   13.39
   1  -6   3  588.64   11.54
   1  -6   3  602.34   10.35
   1  -6   3  610.56   14.31
   1  -6   4  911.80   14.44
   1  -6   4  908.35   13.46
   1  -6   4  914.72   18.53
   1  -6   5  116.38    3.45
   1  -6   5  122.05    3.40
   1  -6   5  119.37    5.90
   1  -6   6   87.16    5.08
   1  -6   7  783.49   16.92
   1  -6   8  199.21    7.85
   1  -6   8  209.18    9.72
   1  -6   9  616.55   15.00
   1  -6   9  620.04   18.18
   1  -6  10  318.58   13.27
   1  -6  10  314.60   10.28
   1  -6  11   38.53    5.35
   1  -6  12   11.00    3.71
   1  -5  -7  248.12   10.69
   1  -5  -7  246.60    9.46
   1  -5  -6  750.73   18.89
   1  -5  -6  694.37   16.69
   1  -5  -5 1481.66   27.95
   1  -5  -5 1457.20   26.37
   1  -5  -4 1077.06   22.04
   1  -5  -4 1099.78   21.27
   1  -5  -3  992.10   17.43
   1  -5  -3  936.30   19.52
   1  -5  -3  934.30   18.99
   1  -5  -2  879.80   15.12
   1  -5  -2  852.48   17.51
   1  -5  -2  876.20   17.62
   1  -5  -1  743.22   12.35
   1  -5  -1  697.82   14.79
   1  -5  -1  727.34   15.32
   1  -5   0 2901.61   40.67
   1  -5   0 2824.51   35.12
   1  -5   0 2805.02   39.38
   1  -5   0 2947.59   40.98
   1  -5   1 4455.11   26.99
   1  -5   1 4669.92   31.50
   1  -5   2 4670.31   25.31
   1  -5   2 4624.55   31.33
   1  -5   3 5251.43   19.37
   1  -5   3 5208.64   23.57
   1  -5   3 5267.70   33.30
   1  -5   4 2680.41   32.75
   1  -5   4 2685.65   32.98
   1  -5   4 2638.32   37.99
   1  -5   5 3366.61   38.18
   1  -5   5 3078.47   35.66
   1  -5   5 2948.60   35.65
   1  -5   5 3336.10   43.26
   1  -5   6 1954.59   30.14
   1  -5   6 2008.71   33.00
   1  -5   7 1795.71   31.57
   1  -5   7 1777.70   28.15
   1  -5   8 1522.24   25.11
   1  -5   8 1505.73   29.30
   1  -5   9  607.66   17.63
   1  -5   9  621.42   14.00
   1  -5  10 1075.53   25.93
   1  -5  10 1129.28   20.85
   1  -5  11  531.86   18.14
   1  -5  12  647.27   21.19
   1  -4  -8   -2.58    2.41
   1  -4  -8    1.79    2.19
   1  -4  -7   95.47    6.35
   1  -4  -7   98.10    5.52
   1  -4  -6    1.44    2.01
   1  -4  -6    0.97    1.38
   1  -4  -5    0.66    1.90
   1  -4  -5   -0.59    1.39
   1  -4  -4  243.32    8.56
   1  -4  -4  240.94    7.99
   1  -4  -3  371.01    8.97
   1  -4  -3  374.02   10.23
   1  -4  -3  368.28    9.83
   1  -4  -2  409.97    8.79
   1  -4  -2  418.26   10.25
   1  -4  -2  410.40   10.29
   1  -4  -2  420.63   10.21
   1  -4  -1 1659.65   12.95
   1  -4  -1 1678.48   17.10
   1  -4   0   87.19    2.40
   1  -4   0   83.57    3.74
   1  -4   0   93.46    4.35
   1  -4   1  254.01    5.70
   1  -4   1  266.10    6.75
   1  -4   2   38.21    2.14
   1  -4   2   37.36    2.85
   1  -4   3  495.12    7.79
   1  -4   3  484.11    7.28
   1  -4   3  495.42   10.53
   1  -4   4  859.77    8.98
   1  -4   4  839.50    6.94
   1  -4   4  845.81   12.77
   1  -4   5  265.24    8.63
   1  -4   5  267.51    7.35
   1  -4   6 1392.91   24.97
   1  -4   6 1413.50   22.04
   1  -4   7   57.21    4.79
   1  -4   7   59.36    3.54
   1  -4   8  195.92    8.98
   1  -4   8  202.40    6.64
   1  -4   9  470.77   15.25
   1  -4   9  467.45   11.11
   1  -4  10   29.68    4.41
   1  -4  10   27.02    2.70
   1  -4  11  326.74   14.08
   1  -4  12  204.40   11.68
   1  -3  -9 1130.26   24.66
   1  -3  -9 1135.90   25.47
   1  -3  -8  193.01    8.75
   1  -3  -8  201.87    9.16
   1  -3  -7 1993.06   33.70
   1  -3  -6  777.63   17.55
   1  -3  -6  809.83   16.23
   1  -3  -5  864.48   17.50
   1  -3  -5  838.72   16.22
   1  -3  -4 3546.38   48.54
   1  -3  -4 3462.24   47.31
   1  -3  -3 4988.69   62.88
   1  -3  -3 4916.52   61.65
   1  -3  -3 4890.61   63.02
   1  -3  -3 4987.35   62.54
   1  -3  -2 3778.13   48.17
   1  -3  -2 3950.96   49.92
   1  -3  -2 3921.55   50.15
   1  -3  -2 3899.30   49.86
   1  -3  -1 7778.39   94.39
   1  -3  -1 7798.66   94.11
   1  -3   0  722.42    9.81
   1  -3   0  686.98   12.36
   1  -3   0  719.42   11.91
   1  -3   0  721.16   12.70
   1  -3   1 2386.40   24.89
   1  -3   1 2511.26   27.12
   1  -3   2 2316.60   27.49
   1  -3   2 2317.52   30.17
   1  -3   3 9445.48  112.36
   1  -3   4 7494.53   90.69
   1  -3   4 7339.62   87.64
   1  -3   5 4957.09   63.77
   1  -3   5 4840.10   59.67
   1  -3   6 2701.13   39.62
   1  -3   6 2597.11   34.72
   1  -3   7  839.31   18.62
   1  -3   7  828.87   14.30
   1  -3   8  170.01    4.84
   1  -3   8  178.24    8.39
   1  -3   8  179.03    5.61
   1  -3   9 2493.79   34.53
   1  -3   9 2446.46   42.54
   1  -3   9 2553.58   34.76
   1  -3  10  216.17   10.72
   1  -3  10  214.92    6.65
   1  -3  11 1114.73   27.84
   1  -3  12  287.27   14.10
   1  -2 -10   90.15    6.18
   1  -2 -10   67.15    5.83
   1  -2  -9   12.42    2.64
   1  -2  -9   13.55    2.87
   1  -2  -8    1.89    1.81
   1  -2  -8    1.12    1.70
   1  -2  -7   12.04    2.52
   1  -2  -7   13.93    2.47
   1  -2  -6    1.13    1.31
   1  -2  -5   15.95    2.02
   1  -2  -5   11.70    1.74
   1  -2  -5   13.82    2.28
   1  -2  -5   14.12    1.89
   1  -2  -4  131.56    5.07
   1  -2  -4  134.13    5.01
   1  -2  -4  128.26    5.19
   1  -2  -4  126.16    4.72
   1  -2  -3  816.09   14.12
   1  -2  -3  789.16   13.65
   1  -2  -3  773.11   14.07
   1  -2  -3  824.65   13.81
   1  -2  -2 1178.50   17.59
   1  -2  -2 1168.55   16.93
   1  -2  -2 1160.76   17.84
   1  -2  -2 1173.96   17.62
   1  -2  -1 1697.25   22.63
   1  -2  -1 1632.30   21.43
   1  -2  -1 1685.31   22.69
   1  -2  -1 1719.49   22.91
   1  -2   0 2897.55   36.14
   1  -2   0 2941.55   35.66
   1  -2   0 2914.44   36.45
   1  -2   1  435.37    6.41
   1  -2   1  437.71    7.49
   1  -2   2 1468.49   20.29
   1  -2   2 1400.98   18.92
   1  -2   3 2554.16   31.78
   1  -2   3 2626.42   34.47
   1  -2   4 1347.97   18.38
   1  -2   4 1428.05   21.75
   1  -2   5 2393.17   29.69
   1  -2   5 2431.80   30.59
   1  -2   5 2462.99   35.17
   1  -2   6  858.97   12.45
   1  -2   6  839.27   17.39
   1  -2   7  480.28    8.38
   1  -2   7  494.87    9.29
   1  -2   7  488.05   13.29
   1  -2   8   88.14    3.15
   1  -2   8   95.58    3.70
   1  -2   8   98.17    6.28
   1  -2   9   55.68    2.53
   1  -2   9   47.72    5.06
   1  -2  10   93.25    7.13
   1  -2  11   35.35    5.00
   1  -1 -11  266.45   10.37
   1  -1 -11  289.45   11.89
   1  -1 -10  386.33   13.20
   1  -1 -10  372.96   11.91
   1  -1  -9  388.16   11.70
   1  -1  -9  371.26   12.36
   1  -1  -8  512.86   13.18
   1  -1  -8  527.36   14.09
   1  -1  -7 1062.43   19.88
   1  -1  -7 1082.98   20.83
   1  -1  -6 1141.67   19.82
   1  -1  -6 1119.08   20.32
   1  -1  -6 1118.16   19.63
   1  -1  -5 3946.19   51.63
   1  -1  -5 4032.42   51.34
   1  -1  -5 3904.99   51.33
   1  -1  -5 3940.37   51.77
   1  -1  -4 1994.70   28.38
   1  -1  -4 2053.54   28.14
   1  -1  -4 2062.78   28.69
   1  -1  -4 1981.32   28.32
   1  -1  -3 2829.32   37.19
   1  -1  -3 2955.02   36.86
   1  -1  -3 2964.76   37.41
   1  -1  -3 2839.40   37.33
   1  -1  -3 2929.16   36.89
   1  -1  -2 1570.57   21.57
   1  -1  -2 1599.61   21.64
   1  -1   0 3148.77   35.17
   1  -1   0 3093.79   35.45
   1  -1   2 4002.38   48.55
   1  -1   3 3092.81   39.85
   1  -1   4 1332.61   16.56
   1  -1   4 1385.97   21.33
   1  -1   5 2642.27   32.01
   1  -1   5 2675.03   32.59
   1  -1   5 2630.45   37.82
   1  -1   6 2740.60   33.78
   1  -1   6 2688.49   40.41
   1  -1   6 2764.75   34.41
   1  -1   7 3625.42   43.83
   1  -1   7 3470.58   51.79
   1  -1   7 3554.98   44.64
   1  -1   8 2360.08   30.54
   1  -1   8 2397.41   31.47
   1  -1   9  927.79   14.53
   1  -1   9  928.45   22.78
   1  -1  10  576.77   18.41
   1  -1  11  494.45   17.97
   1   0 -11    2.11    1.59
   1   0 -11    2.00    1.96
   1   0 -10   13.92    2.79
   1   0 -10   14.62    2.53
   1   0  -9  168.05    7.76
   1   0  -9  171.88    6.94
   1   0  -8  102.34    5.17
   1   0  -8   95.96    5.63
   1   0  -7 1010.86   17.06
   1   0  -7  714.53   16.32
   1   0  -6   62.68    3.54
   1   0  -6   62.88    3.46
   1   0  -6   55.57    3.73
   1   0  -6   66.96    3.89
   1   0  -5    9.01    1.43
   1   0  -5   10.37    1.86
   1   0  -5   10.43    1.67
   1   0  -5   12.68    1.82
   1   0  -4    0.00    0.83
   1   0  -4    1.43    0.90
   1   0  -4    0.72    1.54
   1   0  -4    1.74    1.26
   1   0  -3 2312.17   29.07
   1   0  -3 2291.11   29.77
   1   0  -3 2283.86   29.76
   1   0  -3 2278.41   29.13
   1   0  -3 2232.87   28.77
   1   0  -2 4033.91   48.26
   1   0  -2 4009.91   48.45
   1   0  -2 4083.10   48.46
   1   0  -2 4102.73   48.28
   1   0  -1 1159.81   15.05
   1   0  -1 1158.35   15.01
   1   0  -1 1178.86   15.11
   1   0   0   19.51    0.98
   1   0   0   23.04    0.84
   1   0   1 2257.96   27.77
   1   0   2   22.57    2.07
   1   0   3   92.74    2.25
   1   0   3   95.14    2.24
   1   0   3   93.43    4.01
   1   0   4 2428.55   29.51
   1   0   4 2455.17   34.21
   1   0   4 2373.60   29.48
   1   0   5  220.71    4.91
   1   0   5  228.26    7.70
   1   0   5  216.77    4.89
   1   0   6 1659.74   22.50
   1   0   6 1657.29   22.64
   1   0   6 1599.31   28.13
   1   0   7  291.80    6.85
   1   0   7  297.61    7.01
   1   0   7  282.82   10.46
   1   0   8  172.36    5.26
   1   0   8  172.77    5.44
   1   0   8  166.07    8.66
   1   0   9   34.72    4.65
   1   0  10    1.03    2.59
   1   0  11  185.21   11.33
   1   1 -12  287.73   11.74
   1   1 -11  246.92    8.75
   1   1 -11  245.41   10.20
   1   1 -10  321.82   11.21
   1   1 -10  313.34    9.57
   1   1  -9  383.38   10.30
   1   1  -9  429.47   12.25
   1   1  -8 2018.10   32.25
   1   1  -8 2026.31   30.05
   1   1  -7 2439.56   32.75
   1   1  -7 2318.66   32.98
   1   1  -7 2349.36   35.09
   1   1  -7 2412.22   34.70
   1   1  -6 2912.32   37.81
   1   1  -6 3026.37   40.15
   1   1  -6 2794.43   39.51
   1   1  -6 2762.85   37.71
   1   1  -6 2936.81   39.21
   1   1  -5 1162.62   17.73
   1   1  -5 1211.53   19.01
   1   1  -5 1179.65   17.55
   1   1  -5 1199.86   18.89
   1   1  -5 1169.78   18.36
   1   1  -4 2953.40   36.96
   1   1  -4 2937.19   37.73
   1   1  -4 2868.55   37.53
   1   1  -4 2879.74   36.37
   1   1  -4 2949.18   37.08
   1   1  -3  153.60    4.19
   1   1  -3  147.86    4.18
   1   1  -3  152.80    3.87
   1   1  -3  138.17    4.21
   1   1   1 5029.53   60.74
   1   1   1 5154.32   60.71
   1   1   1 5070.98   59.38
   1   1   2 2763.84   36.35
   1   1   2 2805.40   34.01
   1   1   3  543.18    9.01
   1   1   3  549.52   11.38
   1   1   4 2821.54   35.68
   1   1   4 2813.64   39.74
   1   1   5 1434.44   20.90
   1   1   5 1390.45   25.00
   1   1   6 1388.50   20.84
   1   1   6 1369.79   20.82
   1   1   6 1341.38   25.54
   1   1   7  831.47   14.86
   1   1   7  835.86   14.98
   1   1   7  796.38   19.71
   1   1   8  720.67   13.94
   1   1   8  700.79   19.49
   1   1   9  490.61   17.00
   1   1  10  561.96   19.43
   1   2 -12    4.75    2.32
   1   2 -11    4.35    1.94
   1   2 -11    5.93    1.64
   1   2 -10   39.95    3.94
   1   2 -10   39.50    3.09
   1   2  -9   11.60    1.69
   1   2  -9   12.95    2.44
   1   2  -9   11.55    1.77
   1   2  -8   30.50    2.40
   1   2  -8   26.17    2.83
   1   2  -8   29.97    2.41
   1   2  -7   29.01    2.23
   1   2  -7   24.77    2.62
   1   2  -7   29.22    2.17
   1   2  -7   24.00    2.42
   1   2  -6  214.43    6.15
   1   2  -6  213.17    6.60
   1   2  -6  217.61    5.64
   1   2  -6  208.92    6.56
   1   2  -6  231.05    6.79
   1   2  -5  424.03    8.77
   1   2  -5  423.87    9.15
   1   2  -5  406.96    9.07
   1   2  -5  404.24    7.83
   1   2  -5  409.62    8.98
   1   2  -4  281.63    6.54
   1   2  -4  251.81    6.17
   1   2  -4  265.56    6.45
   1   2  -4  271.91    5.71
   1   2  -4  261.97    6.43
   1   2  -3 1018.44   15.33
   1   2  -3  994.25   14.62
   1   2  -3  989.18   14.97
   1   2  -3  976.38   14.94
   1   2  -2   58.40    2.23
   1   2  -2   64.56    2.65
   1   2  -1   34.55    2.04
   1   2   0  272.75    6.18
   1   2   0  281.04    6.28
   1   2   0  257.12    5.95
   1   2   1  547.71   10.47
   1   2   1  523.55    9.53
   1   2   2 1707.66   25.73
   1   2   2 1747.32   25.85
   1   2   2 1733.07   23.92
   1   2   3 1082.39   19.27
   1   2   3 1073.75   16.81
   1   2   4  341.36    8.08
   1   2   4  332.77   10.02
   1   2   5  389.13    9.23
   1   2   5  366.52   11.45
   1   2   6  244.09    7.64
   1   2   6  253.23    7.50
   1   2   6  235.88    9.90
   1   2   7  316.03    9.10
   1   2   7  314.54    8.94
   1   2   7  322.63   12.42
   1   2   8  202.63    7.40
   1   2   8  192.84   10.25
   1   2   9   68.13    6.78
   1   3 -12  994.96   22.53
   1   3 -11  143.52    5.65
   1   3 -11  146.34    7.37
   1   3 -10 1065.71   18.14
   1   3 -10 1020.73   21.14
   1   3  -9  734.51   14.49
   1   3  -9  707.91   16.07
   1   3  -8  443.81   10.24
   1   3  -8  432.06    9.12
   1   3  -8  444.09   11.24
   1   3  -7 1164.35   19.36
   1   3  -7 1205.30   20.27
   1   3  -7 1168.62   17.62
   1   3  -7 1193.49   20.65
   1   3  -6 1950.98   27.94
   1   3  -6 1927.49   28.06
   1   3  -6 1858.86   27.97
   1   3  -6 1958.17   26.21
   1   3  -6 1976.04   29.00
   1   3  -5 1870.20   26.70
   1   3  -5 1806.68   26.94
   1   3  -5 1840.83   25.88
   1   3  -5 1790.95   26.06
   1   3  -5 1900.64   27.06
   1   3  -4 2615.63   34.59
   1   3  -4 2468.12   32.97
   1   3  -4 2630.99   34.65
   1   3  -4 2606.20   33.93
   1   3  -4 2507.51   34.44
   1   3  -3  275.62    5.88
   1   3  -3  295.30    7.10
   1   3  -3  288.58    7.21
   1   3  -3  275.49    6.88
   1   3  -2 1267.60   18.96
   1   3  -1   12.01    1.88
   1   3  -1    9.49    1.51
   1   3   0 6034.49   73.68
   1   3   0 5969.74   73.57
   1   3   0 6015.73   73.28
   1   3   1 6083.13   75.37
   1   3   1 6028.07   74.25
   1   3   2 4302.35   58.41
   1   3   2 4386.54   58.48
   1   3   3 2994.12   44.32
   1   3   3 3146.91   41.96
   1   3   4 1305.26   24.93
   1   3   4 1339.48   22.04
   1   3   5   13.96    2.83
   1   3   5   22.17    2.45
   1   3   6 1914.96   35.38
   1   3   7  427.64   12.02
   1   3   7  409.39   15.05
   1   3   8 1106.70   27.85
   1   3   9  714.18   22.82
   1   4 -12  234.05    9.71
   1   4 -11    1.66    1.59
   1   4 -10    8.43    2.06
   1   4 -10    8.75    1.49
   1   4  -9   49.54    3.37
   1   4  -9   46.58    3.72
   1   4  -9   47.13    2.83
   1   4  -8  171.94    6.34
   1   4  -8  165.88    6.59
   1   4  -7  415.81   10.21
   1   4  -7  397.37   10.92
   1   4  -7  412.24    9.91
   1   4  -7  403.31    9.92
   1   4  -6  373.53    9.44
   1   4  -6  371.52    9.89
   1   4  -6  371.42    8.69
   1   4  -6  360.30    8.88
   1   4  -6  364.76    9.74
   1   4  -5  387.81    9.49
   1   4  -5  365.79    9.42
   1   4  -5  372.46    8.11
   1   4  -5  380.75    8.78
   1   4  -5  386.73    9.64
   1   4  -4  318.80    6.83
   1   4  -4  320.83    8.55
   1   4  -4  316.97    8.40
   1   4  -3    3.36    1.60
   1   4  -3    2.46    0.83
   1   4  -2  432.22   10.02
   1   4  -1  107.07    4.59
   1   4  -1  112.63    4.62
   1   4   0  213.15    7.24
   1   4   0  222.96    7.06
   1   4   1  251.62    8.36
   1   4   1  247.37    7.78
   1   4   2   22.06    2.94
   1   4   2   22.60    3.03
   1   4   2   22.92    2.54
   1   4   3  453.47   13.27
   1   4   3  468.22   13.48
   1   4   3  463.99   11.70
   1   4   4  116.38    6.95
   1   4   5   13.48    3.39
   1   4   6  241.52   11.28
   1   4   7   25.46    3.45
   1   4   7   21.15    4.33
   1   4   8   11.78    3.70
   1   5 -12  318.18   11.24
   1   5 -12  333.11   12.68
   1   5 -11  710.77   17.05
   1   5 -11  759.63   19.16
   1   5 -10  616.10   14.82
   1   5 -10  623.93   16.55
   1   5  -9  957.64   18.60
   1   5  -9  917.51   20.26
   1   5  -8 1480.61   24.34
   1   5  -8 1429.43   26.20
   1   5  -7 1168.13   20.25
   1   5  -7 1200.65   19.71
   1   5  -7 1169.36   22.05
   1   5  -6 2311.78   34.98
   1   5  -6 2364.34   34.44
   1   5  -5 1256.95   19.09
   1   5  -5 1279.30   22.49
   1   5  -5 1328.23   22.63
   1   5  -5 1323.04   22.43
   1   5  -4 1288.33   21.89
   1   5  -4 1246.82   21.86
   1   5  -4 1285.52   21.86
   1   5  -3 2005.98   30.47
   1   5  -3 1963.48   30.88
   1   5  -2  799.83   17.62
   1   5  -2  974.42   18.57
   1   5  -1 2582.51   38.79
   1   5  -1 2725.12   39.07
   1   5   0 1399.51   24.84
   1   5   1 1334.37   25.12
   1   5   2  885.04   20.23
   1   5   2  891.39   20.12
   1   5   3  964.54   22.25
   1   5   3  968.75   22.19
   1   5   4  916.23   22.63
   1   5   5 1215.11   28.12
   1   5   6  438.83   16.54
   1   5   7  424.17   17.12
   1   6 -12    9.85    2.28
   1   6 -12    7.16    2.63
   1   6 -11   45.23    3.90
   1   6 -11   41.11    4.49
   1   6 -10  227.34    8.40
   1   6 -10  236.63    9.93
   1   6  -9    0.68    1.30
   1   6  -9   -0.25    1.95
   1   6  -8    3.34    2.04
   1   6  -8    3.75    1.21
   1   6  -7   16.14    2.65
   1   6  -7   17.20    1.86
   1   6  -6  132.57    4.60
   1   6  -6  130.57    6.46
   1   6  -5  259.76    6.33
   1   6  -5  258.25    9.05
   1   6  -4  627.59   14.81
   1   6  -3  564.72   13.96
   1   6  -2  217.31    8.29
   1   6  -1   83.54    5.37
   1   6   0    2.52    2.29
   1   6   1  148.14    7.88
   1   6   2  577.40   16.84
   1   6   2  540.91   16.28
   1   6   3  420.06   14.89
   1   6   3  430.50   14.97
   1   6   4  186.72   10.32
   1   6   5   78.12    7.19
   1   7 -12  189.44    9.80
   1   7 -11  379.53   11.48
   1   7 -11  379.89   13.52
   1   7 -10 1105.08   24.53
   1   7  -9 1027.40   22.97
   1   7  -8  355.23   12.21
   1   7  -7 1894.43   27.23
   1   7  -7 1892.15   33.26
   1   7  -6   12.76    2.87
   1   7  -5 1426.31   26.87
   1   7  -4 1490.13   27.70
   1   7  -3 1065.93   22.25
   1   7  -2 1199.18   24.67
   1   7  -1  668.81   17.65
   1   7   0  212.59    9.79
   1   7   1  643.09   18.57
   1   7   2  392.93   14.67
   1   7   2  389.51   14.67
   1   7   3 1153.61   28.37
   1   7   3 1132.91   28.21
   1   7   4  250.73   12.79
   1   8 -11  111.79    7.65
   1   8 -10  116.30    7.67
   1   8  -9   53.26    5.11
   1   8  -8  119.66    7.41
   1   8  -7  223.07    9.85
   1   8  -6  179.08    8.69
   1   8  -5   35.86    4.07
   1   8  -4   83.90    6.03
   1   8  -3    3.88    2.50
   1   8  -2  102.98    6.91
   1   8  -1  129.43    8.07
   1   8   0  208.46   10.66
   1   8   1   87.71    7.39
   1   8   2   46.99    5.80
   1   8   2   53.21    6.01
   1   9 -10  469.25   16.22
   1   9  -9  735.57   20.51
   1   9  -8  980.51   24.04
   1   9  -7  556.25   17.19
   1   9  -6  877.06   22.25
   1   9  -5  695.82   19.37
   1   9  -4  470.09   15.66
   1   9  -3 1087.10   25.92
   1   9  -2  976.74   25.02
   1   9  -1 1244.81   29.36
   1   9   0  749.00   22.61
   1  10  -8  236.13   11.61
   1  10  -7  150.43    9.26
   1  10  -6    7.71    2.86
   1  10  -5  231.53   11.46
   1  10  -4    7.62    2.91
   1  10  -3   87.61    7.49
   2 -10   1  327.86   11.87
   2 -10   1  320.42   13.28
   2 -10   2  306.05   11.02
   2 -10   2  333.72   13.39
   2 -10   3  555.67   14.81
   2 -10   3  595.44   18.26
   2 -10   4  114.86    7.84
   2 -10   5  713.87   20.24
   2 -10   6  627.21   18.76
   2 -10   7 1302.87   28.71
   2 -10   8  564.91   17.47
   2  -9  -2  106.31    7.10
   2  -9  -2  117.81    7.84
   2  -9  -1   67.04    5.47
   2  -9  -1   69.91    6.15
   2  -9   0  427.19   13.58
   2  -9   0  448.11   15.17
   2  -9   1  308.57   10.84
   2  -9   1  326.23   12.54
   2  -9   2  211.47    8.47
   2  -9   2  225.71   10.25
   2  -9   3  284.58    9.33
   2  -9   3  281.83   11.47
   2  -9   4  209.51    7.42
   2  -9   4  210.87    9.71
   2  -9   5   57.45    5.30
   2  -9   6  206.70    9.64
   2  -9   7  202.91    9.52
   2  -9   8   80.73    6.00
   2  -9   9  123.39    7.43
   2  -8  -4  202.37   10.06
   2  -8  -4  192.07    9.72
   2  -8  -3  466.14   15.08
   2  -8  -3  473.55   15.35
   2  -8  -2  746.72   19.08
   2  -8  -2  768.34   19.90
   2  -8  -1 1319.56   26.33
   2  -8  -1 1378.41   27.90
   2  -8   0  783.57   18.09
   2  -8   0  795.03   19.79
   2  -8   1  909.39   19.08
   2  -8   1  910.65   21.19
   2  -8   2  360.93   10.40
   2  -8   2  344.92   12.11
   2  -8   3  784.31   15.86
   2  -8   3  800.22   19.38
   2  -8   4 1123.99   18.98
   2  -8   4 1074.67   23.19
   2  -8   5 1658.52   23.68
   2  -8   5 1541.91   29.52
   2  -8   6 1523.43   28.60
   2  -8   7 1257.84   25.28
   2  -8   8  812.02   19.31
   2  -8   9  776.03   18.81
   2  -8  10  635.16   16.65
   2  -7  -5   91.01    6.67
   2  -7  -5   85.80    6.25
   2  -7  -4   10.16    2.75
   2  -7  -4    9.44    2.60
   2  -7  -3   56.93    4.93
   2  -7  -3   47.61    4.60
   2  -7  -2   26.07    3.33
   2  -7  -2   27.52    3.60
   2  -7  -1   32.80    3.48
   2  -7  -1   34.51    3.77
   2  -7   0  275.72    5.25
   2  -7   0  261.71    8.99
   2  -7   0  275.20   10.22
   2  -7   1   58.28    3.97
   2  -7   1   60.29    4.72
   2  -7   2 1665.06   26.44
   2  -7   2 1702.57   29.78
   2  -7   3  247.98    7.23
   2  -7   3  255.84    5.21
   2  -7   3  242.67    9.22
   2  -7   4  204.63    5.85
   2  -7   4  195.08    8.06
   2  -7   5  546.34    9.30
   2  -7   5  528.15   13.95
   2  -7   6   94.09    5.52
   2  -7   7  339.62   10.79
   2  -7   8  828.90   18.33
   2  -7   9  143.63    6.91
   2  -7  10  358.53   11.13
   2  -7  10  336.14   14.31
   2  -7  11   35.61    5.47
   2  -6  -6  272.24   11.47
   2  -6  -6  276.92   10.94
   2  -6  -6  268.55   10.55
   2  -6  -5  433.45   14.06
   2  -6  -5  460.91   13.89
   2  -6  -4 1424.91   27.28
   2  -6  -4 1334.29   26.23
   2  -6  -3  815.07   19.04
   2  -6  -3  838.67   19.32
   2  -6  -2  736.50   13.53
   2  -6  -2  707.75   16.49
   2  -6  -2  736.10   17.20
   2  -6  -1  513.05    9.52
   2  -6  -1  486.52   12.56
   2  -6  -1  517.16   13.45
   2  -6   0 1393.48   24.06
   2  -6   0 1433.47   25.72
   2  -6   1  670.13   13.75
   2  -6   1  676.04   15.38
   2  -6   2 4396.42   56.24
   2  -6   2 4423.66   59.83
   2  -6   3 1403.46   20.69
   2  -6   3 1382.52   17.04
   2  -6   3 1368.09   24.09
   2  -6   4  763.29   11.98
   2  -6   4  732.81   15.80
   2  -6   5  737.02    9.81
   2  -6   5  836.17   16.59
   2  -6   6  572.11   13.43
   2  -6   7  763.32   16.08
   2  -6   8 2025.42   36.93
   2  -6   8 1994.18   31.59
   2  -6   9  925.96   23.36
   2  -6   9  904.05   18.08
   2  -6  10  849.64   23.27
   2  -6  11  446.82   17.04
   2  -5  -8    6.16    2.41
   2  -5  -8    6.31    2.49
   2  -5  -7  198.37    9.23
   2  -5  -7  195.63    9.44
   2  -5  -7  182.52    8.36
   2  -5  -6  257.94   10.38
   2  -5  -6  250.71    9.85
   2  -5  -6  250.13    9.52
   2  -5  -5   77.57    5.46
   2  -5  -5   84.47    5.44
   2  -5  -4  378.24   11.62
   2  -5  -4  371.60   11.31
   2  -5  -3    5.86    1.31
   2  -5  -3    7.25    2.04
   2  -5  -3    5.53    1.98
   2  -5  -2  121.30    4.38
   2  -5  -2  121.12    5.75
   2  -5  -2  120.26    5.80
   2  -5  -1  299.28    6.49
   2  -5  -1  293.38    8.65
   2  -5  -1  306.56    9.25
   2  -5   0  212.33    4.38
   2  -5   0  218.33    7.37
   2  -5   0  213.92    6.78
   2  -5   0  207.26    7.31
   2  -5   1  995.18   18.20
   2  -5   1  964.11   16.38
   2  -5   1  975.27   18.19
   2  -5   2  460.67   11.19
   2  -5   2  439.49    8.98
   2  -5   2  453.39   10.96
   2  -5   3  966.78   18.33
   2  -5   3  938.34   14.07
   2  -5   3  934.46   17.18
   2  -5   4  281.48    4.96
   2  -5   4  297.81    8.35
   2  -5   5  245.29    7.50
   2  -5   6  380.84   11.94
   2  -5   6  399.76    9.86
   2  -5   7  174.62    8.34
   2  -5   7  185.68    6.40
   2  -5   8  413.60   13.86
   2  -5   8  426.70   10.31
   2  -5   9  360.45   13.61
   2  -5   9  376.77    9.52
   2  -5  10  102.14    7.66
   2  -5  11   36.54    5.09
   2  -4  -9   75.81    6.11
   2  -4  -9   87.36    6.52
   2  -4  -8  506.16   15.52
   2  -4  -8  495.57   15.37
   2  -4  -7   69.75    5.33
   2  -4  -7   61.76    5.08
   2  -4  -6  762.75   18.14
   2  -4  -6  759.74   17.77
   2  -4  -6  777.52   17.24
   2  -4  -5  422.19   12.28
   2  -4  -5  422.71   11.58
   2  -4  -4  521.12   11.66
   2  -4  -4  514.14   12.92
   2  -4  -4  495.00   12.42
   2  -4  -3 1352.92   21.26
   2  -4  -3 1385.73   23.59
   2  -4  -3 1376.61   23.36
   2  -4  -2 1355.96   20.44
   2  -4  -2 1448.23   22.89
   2  -4  -2 1414.17   22.93
   2  -4  -2 1418.81   23.31
   2  -4  -1 2009.65   28.52
   2  -4  -1 1951.96   28.17
   2  -4  -1 1925.28   28.72
   2  -4   0 1885.53   23.72
   2  -4   0 1898.29   27.90
   2  -4   0 1947.42   27.07
   2  -4   0 1920.06   28.17
   2  -4   1 1455.61   22.77
   2  -4   1 1478.15   21.14
   2  -4   1 1497.56   22.84
   2  -4   2 3183.80   42.09
   2  -4   2 3088.37   38.55
   2  -4   2 3074.44   41.25
   2  -4   3 1607.15   20.31
   2  -4   3 1617.30   23.81
   2  -4   4 6668.55   83.04
   2  -4   4 6497.89   79.57
   2  -4   5 3009.62   43.69
   2  -4   5 3019.57   39.73
   2  -4   6 2139.29   29.68
   2  -4   6 2165.30   34.92
   2  -4   7 1090.91   17.51
   2  -4   7 1118.94   23.21
   2  -4   8  548.95   10.77
   2  -4   8  539.33   15.97
   2  -4   9  307.37    7.33
   2  -4   9  284.88   12.03
   2  -4  10 1699.77   35.24
   2  -4  11  560.62   19.31
   2  -3  -9   50.19    4.76
   2  -3  -9   62.16    5.37
   2  -3  -8  111.14    6.64
   2  -3  -8  115.63    6.88
   2  -3  -7   48.49    4.38
   2  -3  -7   44.73    4.28
   2  -3  -6    1.25    1.79
   2  -3  -6    0.30    1.65
   2  -3  -6    1.69    1.31
   2  -3  -5  278.91    9.08
   2  -3  -5  266.22    8.75
   2  -3  -5  296.58    8.77
   2  -3  -4   36.96    2.80
   2  -3  -4   37.24    2.71
   2  -3  -4   32.92    3.09
   2  -3  -4   35.36    3.05
   2  -3  -4   32.64    2.90
   2  -3  -3 1834.72   26.90
   2  -3  -3 1857.80   26.23
   2  -3  -3 1771.05   27.56
   2  -3  -3 1838.20   27.62
   2  -3  -2  173.31    4.92
   2  -3  -2  181.88    5.56
   2  -3  -2  173.13    5.84
   2  -3  -2  175.64    6.00
   2  -3  -1   33.67    1.86
   2  -3  -1   34.72    2.34
   2  -3  -1   33.80    2.57
   2  -3  -1   35.09    2.10
   2  -3  -1   35.25    2.74
   2  -3   0   14.22    1.64
   2  -3   0   11.01    0.96
   2  -3   0   13.21    1.11
   2  -3   0   12.03    1.61
   2  -3   0   11.13    1.90
   2  -3   1   76.78    3.41
   2  -3   1   73.64    1.62
   2  -3   1   76.44    2.80
   2  -3   1   80.26    3.47
   2  -3   2  681.43    9.94
   2  -3   2  688.32   11.73
   2  -3   3   45.54    2.41
   2  -3   3   48.07    3.32
   2  -3   4 1248.55   17.92
   2  -3   4 1289.59   21.60
   2  -3   5  686.74   11.23
   2  -3   5  696.43   15.12
   2  -3   6   11.99    2.66
   2  -3   6    9.66    1.16
   2  -3   7  947.28   14.12
   2  -3   7  932.96   20.55
   2  -3   8   68.05    2.64
   2  -3   8   72.59    2.73
   2  -3   8   65.16    5.46
   2  -3   9  195.07    4.57
   2  -3   9  197.72    9.86
   2  -3  10  547.78   17.99
   2  -3  11   40.91    5.62
   2  -2 -10  320.42   12.31
   2  -2 -10  311.46   11.39
   2  -2  -9  937.75   20.97
   2  -2  -9  972.81   22.01
   2  -2  -8  525.15   14.12
   2  -2  -8  552.29   15.00
   2  -2  -7  558.63   14.08
   2  -2  -7  561.14   14.33
   2  -2  -6  359.66   10.37
   2  -2  -6  367.57   10.54
   2  -2  -5 1672.60   25.41
   2  -2  -5 1745.32   26.01
   2  -2  -5 1518.10   25.68
   2  -2  -5 1582.20   26.00
   2  -2  -5 1602.01   25.25
   2  -2  -4 2408.04   33.21
   2  -2  -4 2406.35   33.44
   2  -2  -4 2404.92   34.31
   2  -2  -4 2472.58   34.11
   2  -2  -4 2365.27   33.71
   2  -2  -3 2653.08   35.17
   2  -2  -3 2669.18   35.48
   2  -2  -3 2659.86   36.33
   2  -2  -3 2733.43   35.89
   2  -2  -3 2695.57   36.17
   2  -2  -2 2709.26   35.19
   2  -2  -2 2732.97   35.25
   2  -2  -2 2802.80   35.62
   2  -2  -2 2856.96   36.64
   2  -2  -2 2807.73   36.64
   2  -2  -1   21.81    1.52
   2  -2  -1   19.21    1.56
   2  -2  -1   17.08    1.52
   2  -2  -1   16.23    1.86
   2  -2  -1   18.84    2.01
   2  -2   0  127.04    3.67
   2  -2   0  130.53    3.24
   2  -2   0  135.74    2.98
   2  -2   0  126.51    3.74
   2  -2   0  130.21    4.05
   2  -2   1 1515.50   20.10
   2  -2   1 1552.38   20.70
   2  -2   2 1231.28   18.34
   2  -2   2 1198.91   16.23
   2  -2   3 5853.94   72.09
   2  -2   4 2896.57   34.66
   2  -2   4 2968.80   40.31
   2  -2   5 2362.33   28.58
   2  -2   5 2469.94   35.69
   2  -2   6  639.79    8.81
   2  -2   6  642.13   15.05
   2  -2   7 1155.26   14.64
   2  -2   7 1106.72   14.51
   2  -2   7 1166.06   23.47
   2  -2   8  659.33    8.79
   2  -2   8  673.67   17.71
   2  -2   9  873.88   22.27
   2  -2  10  634.77   19.74
   2  -2  11  519.79   18.89
   2  -1 -11   11.54    2.66
   2  -1 -11   10.11    2.90
   2  -1 -10    7.10    2.06
   2  -1 -10   10.54    2.87
   2  -1  -9   31.17    3.69
   2  -1  -9   28.08    3.16
   2  -1  -8   56.61    4.19
   2  -1  -8   57.76    4.63
   2  -1  -7  143.40    6.18
   2  -1  -7  140.64    6.49
   2  -1  -6  251.99    7.56
   2  -1  -6  249.90    7.25
   2  -1  -6  239.57    7.63
   2  -1  -6  246.05    8.09
   2  -1  -5    4.30    1.15
   2  -1  -5    3.31    1.41
   2  -1  -5    2.80    1.12
   2  -1  -5    3.31    1.17
   2  -1  -4   86.20    3.48
   2  -1  -4   74.81    3.84
   2  -1  -4   82.44    3.94
   2  -1  -4   83.83    3.79
   2  -1  -3  140.87    4.04
   2  -1  -3  143.02    4.78
   2  -1  -3  141.67    4.59
   2  -1  -2  792.37   11.50
   2  -1  -2  806.26   12.70
   2  -1  -2  826.07   13.18
   2  -1  -2  803.22   12.64
   2  -1  -2  833.51   13.17
   2  -1  -1 6120.18   71.07
   2  -1  -1 5887.14   70.86
   2  -1   0 2160.53   27.25
   2  -1   0 2151.65   27.26
   2  -1   0 2174.74   26.23
   2  -1   0 2137.04   26.95
   2  -1   1 1706.46   21.26
   2  -1   1 1741.00   22.50
   2  -1   2  154.27    4.66
   2  -1   3    7.23    1.89
   2  -1   4    5.23    1.69
   2  -1   5  410.70   10.97
   2  -1   6  528.04   13.83
   2  -1   7   88.89    5.91
   2  -1   8   23.58    3.72
   2  -1   9    5.60    2.47
   2  -1  10    0.22    2.41
   2  -1  11   21.51    4.40
   2   0 -11  334.43   11.18
   2   0 -11  340.26   12.55
   2   0 -10   97.73    6.22
   2   0 -10   92.51    5.57
   2   0  -9  598.64   14.29
   2   0  -9  580.50   15.35
   2   0  -8  440.55   11.31
   2   0  -8  420.17   12.09
   2   0  -7 1282.05   21.28
   2   0  -7 1309.37   21.83
   2   0  -7 1253.39   22.53
   2   0  -7 1221.67   21.38
   2   0  -6 2193.62   30.41
   2   0  -6 2131.23   31.07
   2   0  -6 2115.58   32.01
   2   0  -6 2144.65   31.97
   2   0  -5 1060.99   17.24
   2   0  -5 1022.58   16.23
   2   0  -5 1024.57   17.26
   2   0  -5 1032.14   17.78
   2   0  -5 1084.02   18.03
   2   0  -4   62.87    3.10
   2   0  -4   60.70    2.52
   2   0  -4   59.48    3.10
   2   0  -4   67.36    3.47
   2   0  -4   61.29    3.20
   2   0  -3 6808.56   80.90
   2   0  -3 6718.00   81.05
   2   0  -3 6873.79   80.90
   2   0  -3 6774.49   81.03
   2   0  -2  915.05   11.50
   2   0  -2  887.25   13.77
   2   0  -2  920.06   13.93
   2   0  -2  938.07   14.04
   2   0   0 3097.77   37.79
   2   0   0 3166.36   37.12
   2   0   1  780.95   10.78
   2   0   1  815.66   12.15
   2   0   2 2320.88   27.63
   2   0   2 2341.47   31.05
   2   0   3  662.85    8.80
   2   0   3  657.59   12.80
   2   0   4 1263.52   15.73
   2   0   4 1256.98   15.71
   2   0   4 1270.44   21.61
   2   0   5 3737.02   42.63
   2   0   5 3675.18   42.62
   2   0   5 3756.28   51.07
   2   0   6 2194.17   27.46
   2   0   6 2194.40   27.41
   2   0   6 2154.87   36.17
   2   0   7 2284.27   28.75
   2   0   7 2335.36   28.84
   2   0   7 2281.00   39.38
   2   0   8  409.39   14.34
   2   0   9  901.40   23.85
   2   0  10  269.09   13.13
   2   1 -12    4.51    1.76
   2   1 -12    3.74    1.84
   2   1 -11    6.63    2.30
   2   1 -11    5.15    1.71
   2   1 -10  123.17    6.83
   2   1 -10  123.99    5.93
   2   1  -9  549.35   14.39
   2   1  -9  531.41   12.73
   2   1  -8  231.66    7.40
   2   1  -8  223.68    7.39
   2   1  -8  220.88    8.27
   2   1  -7  137.97    5.38
   2   1  -7  123.83    5.74
   2   1  -7  132.48    5.20
   2   1  -7  140.10    5.29
   2   1  -6   21.70    2.25
   2   1  -6   22.73    2.54
   2   1  -6   21.97    2.13
   2   1  -6   23.02    2.00
   2   1  -5  765.78   13.67
   2   1  -5  769.22   14.02
   2   1  -5  764.13   14.23
   2   1  -5  735.81   13.18
   2   1  -5  749.28   12.62
   2   1  -4    9.19    1.44
   2   1  -4    7.03    1.11
   2   1  -4    6.45    1.38
   2   1  -4    7.94    1.59
   2   1  -3  204.92    5.56
   2   1  -3  201.27    5.43
   2   1  -3  220.80    5.52
   2   1  -3  206.63    5.63
   2   1  -3  203.37    4.23
   2   1  -2  246.46    5.78
   2   1  -2  251.96    4.21
   2   1  -2  263.36    6.18
   2   1  -2  267.42    6.26
   2   1  -2  243.09    4.37
   2   1  -1  332.63    6.85
   2   1  -1  324.76    5.21
   2   1  -1  312.53    6.56
   2   1   0 1666.28   22.24
   2   1   0 1688.14   22.13
   2   1   0 1700.22   21.88
   2   1   1  560.19    9.17
   2   1   1  563.55   10.22
   2   1   2  387.61    7.10
   2   1   2  391.95    8.94
   2   1   3   27.08    1.71
   2   1   3   27.94    2.75
   2   1   3   30.57    1.61
   2   1   4  233.77    5.49
   2   1   4  234.41    5.08
   2   1   4  236.00    8.17
   2   1   5  313.01   10.33
   2   1   5  321.79    6.50
   2   1   6  211.43    5.54
   2   1   6  202.32    8.91
   2   1   6  209.04    5.19
   2   1   7  158.08    4.81
   2   1   7  157.14    8.43
   2   1   8   22.55    4.02
   2   1   9   67.90    6.59
   2   2 -12  441.49   14.53
   2   2 -12  444.62   12.23
   2   2 -11  260.00    8.72
   2   2 -11  258.98   10.37
   2   2 -10  426.91   11.05
   2   2 -10  400.66   12.51
   2   2  -9  713.77   16.67
   2   2  -9  716.86   14.63
   2   2  -8  920.21   17.40
   2   2  -8  955.76   18.71
   2   2  -8  912.33   16.69
   2   2  -7 1982.07   29.14
   2   2  -7 1874.60   29.85
   2   2  -7 1947.46   28.27
   2   2  -7 1975.59   28.97
   2   2  -6 1801.20   26.21
   2   2  -6 1813.85   26.62
   2   2  -6 1696.80   26.45
   2   2  -6 1667.07   24.97
   2   2  -6 1709.53   25.27
   2   2  -5 1733.10   25.75
   2   2  -5 1798.46   25.82
   2   2  -5 1808.18   26.12
   2   2  -5 1674.70   24.63
   2   2  -5 1740.15   24.52
   2   2  -4 2989.61   37.94
   2   2  -4 2805.10   35.96
   2   2  -4 2949.80   37.29
   2   2  -4 2767.68   37.48
   2   2  -4 2726.96   37.21
   2   2  -4 2760.78   35.85
   2   2  -3 1182.09   17.70
   2   2  -3 1187.99   16.64
   2   2  -2 2945.99   37.76
   2   2  -2 2976.64   36.50
   2   2  -1 1025.70   16.05
   2   2  -1 1030.30   14.99
   2   2   0 1150.12   17.75
   2   2   0 1242.69   18.02
   2   2   1 2761.60   37.09
   2   2   1 2801.73   36.14
   2   2   1 2743.84   37.33
   2   2   2 1032.70   16.30
   2   2   2 1048.67   18.42
   2   2   2 1028.84   15.86
   2   2   3 2169.02   29.65
   2   2   3 2161.59   32.93
   2   2   3 2126.19   28.93
   2   2   4  483.63   10.27
   2   2   4  468.91   12.89
   2   2   4  499.56    9.92
   2   2   5  498.48   14.29
   2   2   5  529.71   10.63
   2   2   6  380.72    8.97
   2   2   6  366.97   12.92
   2   2   7  539.60   11.76
   2   2   7  510.33   16.60
   2   2   8  941.82   24.99
   2   2   9  671.89   21.93
   2   3 -12   41.52    4.42
   2   3 -11  219.78    7.54
   2   3 -11  212.09    9.13
   2   3 -10   36.90    3.70
   2   3 -10   37.22    3.00
   2   3  -9   22.49    2.91
   2   3  -9   19.91    2.18
   2   3  -8  377.45    9.93
   2   3  -8  359.88   10.42
   2   3  -8  360.85    8.96
   2   3  -7  185.15    6.74
   2   3  -7  179.96    6.88
   2   3  -7  186.97    6.58
   2   3  -6 1710.63   26.56
   2   3  -6 1795.07   26.41
   2   3  -6 1716.21   26.00
   2   3  -6 1668.93   26.35
   2   3  -6 1728.54   25.24
   2   3  -6 1736.55   25.86
   2   3  -5  965.66   17.15
   2   3  -5  975.30   16.29
   2   3  -5  960.89   16.34
   2   3  -5  983.18   17.02
   2   3  -5  959.18   16.26
   2   3  -4  607.85   12.27
   2   3  -4  595.40   11.19
   2   3  -4  616.17   11.22
   2   3  -4  590.67   11.90
   2   3  -4  570.59   11.09
   2   3  -3   13.71    1.72
   2   3  -3   13.26    1.54
   2   3  -2  148.75    4.36
   2   3  -2    0.71    0.85
   2   3  -1  967.76   16.46
   2   3  -1 1144.38   17.92
   2   3   0  165.38    5.80
   2   3   0  171.02    5.81
   2   3   1 1146.48   19.26
   2   3   1 1160.82   20.07
   2   3   1 1174.35   20.18
   2   3   1 1145.30   18.58
   2   3   2  827.33   15.32
   2   3   2  812.42   16.94
   2   3   2  821.11   16.85
   2   3   2  828.93   14.91
   2   3   3  111.68    6.10
   2   3   3  113.15    4.92
   2   3   3  120.70    4.85
   2   3   4  267.08    8.08
   2   3   4  257.77    9.94
   2   3   4  256.87    7.67
   2   3   5   32.60    4.13
   2   3   5   34.74    3.16
   2   3   5   37.80    3.02
   2   3   6   86.65    6.67
   2   3   7  177.99    7.13
   2   3   7  165.26    9.82
   2   3   8   42.67    5.57
   2   4 -12  401.98   13.30
   2   4 -11  703.40   17.58
   2   4 -11  722.70   14.86
   2   4 -10  289.90   10.21
   2   4 -10  293.04    8.62
   2   4  -9  224.91    8.53
   2   4  -9  213.68    8.19
   2   4  -9  221.60    7.07
   2   4  -8 1087.00   20.63
   2   4  -8 1102.99   20.60
   2   4  -7  834.44   15.81
   2   4  -7  779.99   16.11
   2   4  -7  782.89   16.04
   2   4  -7  828.07   16.13
   2   4  -6 2846.15   40.08
   2   4  -6 2815.03   38.44
   2   4  -6 2782.65   39.36
   2   4  -6 2890.21   39.47
   2   4  -5 1673.44   24.68
   2   4  -5 1728.56   26.82
   2   4  -5 1687.90   25.69
   2   4  -4 2145.80   29.83
   2   4  -4 2199.78   32.20
   2   4  -4 2231.17   31.08
   2   4  -3  201.27    6.33
   2   4  -2  768.28   11.48
   2   4  -2   -0.33    0.92
   2   4  -1 2342.44   34.11
   2   4  -1 2298.12   33.36
   2   4   0 2926.36   41.95
   2   4   0 2921.30   41.21
   2   4   1 2463.44   35.79
   2   4   1 2436.38   37.14
   2   4   1 2426.13   36.96
   2   4   1 2404.93   35.29
   2   4   2 4592.24   60.85
   2   4   2 4571.37   62.96
   2   4   2 4501.20   62.91
   2   4   2 4560.17   60.05
   2   4   3   81.33    5.66
   2   4   3   95.48    4.90
   2   4   4 1635.40   30.91
   2   4   4 1518.75   26.36
   2   4   5  345.46   13.28
   2   4   6  467.26   16.48
   2   4   7  877.86   24.91
   2   5 -12   37.35    4.32
   2   5 -12   42.76    4.31
   2   5 -11   85.45    5.95
   2   5 -11   83.41    5.60
   2   5 -10  139.43    7.12
   2   5 -10  149.76    7.07
   2   5  -9  194.19    8.16
   2   5  -9  197.66    7.80
   2   5  -8  196.31    7.80
   2   5  -8  195.72    7.59
   2   5  -7  289.68    9.28
   2   5  -7  305.03    8.46
   2   5  -7  300.07    9.14
   2   5  -6   53.55    3.23
   2   5  -6   52.60    3.87
   2   5  -5  377.57    8.93
   2   5  -5  380.55   10.21
   2   5  -5  369.65   10.03
   2   5  -4  727.99   14.94
   2   5  -3  446.06   11.03
   2   5  -2  747.62   15.60
   2   5  -1   12.53    2.38
   2   5   0    2.59    1.77
   2   5   1    3.19    2.18
   2   5   2   20.71    3.45
   2   5   2   23.33    3.55
   2   5   3  366.97   13.15
   2   5   4  126.66    8.04
   2   5   5  221.43   11.33
   2   5   6    2.46    2.47
   2   6 -12  782.62   18.98
   2   6 -12  751.77   19.84
   2   6 -11  549.56   14.94
   2   6 -11  539.20   15.76
   2   6 -10  959.04   20.22
   2   6 -10  929.25   20.98
   2   6  -9 1150.89   22.35
   2   6  -9 1163.06   23.41
   2   6  -8 1278.28   24.52
   2   6  -7  980.56   17.77
   2   6  -7  977.82   20.13
   2   6  -6 2087.25   30.10
   2   6  -6 2009.95   32.92
   2   6  -5 1067.08   20.75
   2   6  -4 1858.38   30.52
   2   6  -3 1593.06   27.45
   2   6  -2 1183.17   22.72
   2   6  -1  702.65   16.99
   2   6   0  876.21   20.11
   2   6   1  873.76   21.17
   2   6   1  867.58   20.95
   2   6   2  887.37   22.06
   2   6   2  855.40   21.85
   2   6   3 1130.92   26.86
   2   6   4  930.52   25.02
   2   6   5  225.94   12.26
   2   7 -12  225.46    9.43
   2   7 -12  215.92   10.19
   2   7 -11  406.08   13.88
   2   7 -10   41.16    4.43
   2   7  -9  443.98   13.83
   2   7  -8   10.29    2.60
   2   7  -7    3.00    1.77
   2   7  -6  688.06   16.93
   2   7  -5  537.80   14.62
   2   7  -4  818.44   18.71
   2   7  -3 1114.02   23.02
   2   7  -2   54.48    4.74
   2   7  -1  317.80   11.84
   2   7   0   75.43    6.03
   2   7   1  310.87   12.76
   2   7   1  302.45   12.68
   2   7   2  128.45    8.58
   2   7   2  128.79    8.72
   2   7   3   21.04    4.34
   2   8 -11  428.21   14.83
   2   8 -10  339.06   12.78
   2   8  -9 1298.59   27.44
   2   8  -8  631.20   17.34
   2   8  -7  922.97   21.54
   2   8  -6  763.47   19.20
   2   8  -5  856.31   20.44
   2   8  -4  660.14   17.73
   2   8  -3 1056.60   23.88
   2   8  -2  794.71   20.57
   2   8  -1  885.54   22.57
   2   8   0  807.55   22.45
   2   8   1  905.06   24.47
   2   8   1  860.06   24.22
   2   8   2  526.57   19.01
   2   8   2  534.34   19.03
   2   9 -10  239.45   11.10
   2   9  -9  142.61    8.48
   2   9  -8  302.06   12.28
   2   9  -7  199.24    9.85
   2   9  -6   30.98    4.20
   2   9  -5   25.68    3.97
   2   9  -4  106.85    7.31
   2   9  -3  138.50    8.60
   2   9  -2  341.73   13.98
   2   9  -1  210.17   11.26
   2  10  -7 1171.09   27.70
   2  10  -6  516.71   17.34
   2  10  -5  440.18   16.14
   3 -10   1  215.82    9.40
   3 -10   1  200.56   10.52
   3 -10   2    1.68    1.51
   3 -10   2    1.86    2.17
   3 -10   3   58.53    5.66
   3 -10   4  129.16    8.04
   3 -10   5  139.87    8.43
   3 -10   6  238.54   10.89
   3 -10   7   35.88    4.49
   3  -9  -2  204.92    9.78
   3  -9  -2  208.13   10.54
   3  -9  -1  550.76   16.05
   3  -9  -1  552.82   17.41
   3  -9   0  487.30   14.41
   3  -9   0  528.53   16.56
   3  -9   1  608.49   15.81
   3  -9   1  677.46   18.71
   3  -9   2  459.11   12.72
   3  -9   2  467.13   15.11
   3  -9   3  186.57    7.26
   3  -9   3  175.24    8.94
   3  -9   4  386.41    9.94
   3  -9   4  361.02   12.99
   3  -9   5 1320.57   27.39
   3  -9   6 1016.84   23.16
   3  -9   7 1432.77   28.67
   3  -9   8  775.80   19.52
   3  -9   9  431.78   13.88
   3  -8  -4   66.81    5.85
   3  -8  -4   66.81    5.10
   3  -8  -4   64.53    5.83
   3  -8  -3   88.96    5.53
   3  -8  -3   95.61    6.64
   3  -8  -3   97.04    6.88
   3  -8  -2  112.67    5.78
   3  -8  -2  113.20    6.84
   3  -8  -2  113.44    7.33
   3  -8  -1   86.14    4.69
   3  -8  -1   84.73    5.70
   3  -8  -1   87.96    6.25
   3  -8   0   71.80    5.07
   3  -8   0   79.79    4.05
   3  -8   0   75.46    5.76
   3  -8   1   41.85    3.68
   3  -8   1   52.23    2.88
   3  -8   1   48.61    4.74
   3  -8   2   97.62    5.15
   3  -8   2   98.57    3.12
   3  -8   2   95.99    6.21
   3  -8   3   80.63    4.28
   3  -8   3   76.45    5.50
   3  -8   4    6.14    1.32
   3  -8   4    4.47    2.04
   3  -8   5   95.18    3.47
   3  -8   5   83.24    5.70
   3  -8   6    4.02    1.86
   3  -8   7   56.49    4.63
   3  -8   8   28.45    3.42
   3  -8   9   31.35    3.49
   3  -7  -5  422.04   14.54
   3  -7  -5  426.30   13.36
   3  -7  -5  422.48   14.20
   3  -7  -4  307.69   10.57
   3  -7  -4  289.92   11.52
   3  -7  -4  313.88   11.99
   3  -7  -3  775.67   17.07
   3  -7  -3  782.41   19.08
   3  -7  -3  758.25   19.23
   3  -7  -2 1081.23   20.00
   3  -7  -2 1056.44   22.22
   3  -7  -2 1056.84   23.16
   3  -7  -1  771.12   15.00
   3  -7  -1  760.36   17.30
   3  -7  -1  734.84   18.27
   3  -7   0  709.98   12.88
   3  -7   0  707.02   15.64
   3  -7   0  706.05   17.03
   3  -7   1 1615.73   26.89
   3  -7   1 1690.47   23.05
   3  -7   1 1622.57   29.43
   3  -7   2  218.95    4.25
   3  -7   2  223.39    7.25
   3  -7   2  201.75    8.39
   3  -7   3 2281.17   31.86
   3  -7   3 2208.67   36.11
   3  -7   4  762.36   12.96
   3  -7   4  727.47   16.84
   3  -7   5  690.60   10.26
   3  -7   5  698.24   16.26
   3  -7   6 1434.80   25.73
   3  -7   7  874.95   18.37
   3  -7   8 1231.50   22.91
   3  -7   9 1200.59   22.23
   3  -7   9 1185.91   28.54
   3  -7  10  488.73   17.87
   3  -6  -6  108.89    7.08
   3  -6  -6   95.01    6.25
   3  -6  -6   97.77    6.52
   3  -6  -5  148.80    8.02
   3  -6  -5  142.65    7.26
   3  -6  -5  150.11    7.80
   3  -6  -4    6.04    1.89
   3  -6  -4    5.04    2.29
   3  -6  -4    7.86    2.50
   3  -6  -3   14.28    1.79
   3  -6  -3   11.12    2.07
   3  -6  -3   16.59    2.80
   3  -6  -3   15.19    2.86
   3  -6  -2    2.59    0.92
   3  -6  -2    2.35    1.39
   3  -6  -2    0.50    1.62
   3  -6  -2    1.60    1.83
   3  -6  -1  135.26    4.20
   3  -6  -1  139.64    5.13
   3  -6  -1  136.62    6.23
   3  -6  -1  139.13    6.82
   3  -6   0  458.43    7.58
   3  -6   0  451.05   11.38
   3  -6   0  467.96    9.30
   3  -6   0  447.48   12.41
   3  -6   1  680.18   14.01
   3  -6   1  720.43   11.10
   3  -6   1  682.31   15.64
   3  -6   2  254.94    7.10
   3  -6   2  263.54    8.81
   3  -6   3  324.91    7.45
   3  -6   3  317.77    9.65
   3  -6   4  159.43    4.16
   3  -6   4  154.98    6.44
   3  -6   5   59.27    3.96
   3  -6   6  262.18    8.32
   3  -6   7   44.40    3.33
   3  -6   7   49.98    4.95
   3  -6   8  112.57    7.63
   3  -6   8  117.89    5.25
   3  -6   9  131.04    8.53
   3  -6  10   54.00    5.98
   3  -6  11   28.12    4.81
   3  -5  -8  244.55   10.99
   3  -5  -8  260.90   11.04
   3  -5  -7  155.35    8.47
   3  -5  -7  114.00    6.99
   3  -5  -6  697.95   18.01
   3  -5  -6  701.78   17.24
   3  -5  -5  701.12   17.27
   3  -5  -5  655.62   15.95
   3  -5  -5  681.40   16.72
   3  -5  -4  598.81   15.13
   3  -5  -4  592.26   14.00
   3  -5  -4  590.37   15.09
   3  -5  -3  856.68   15.50
   3  -5  -3  823.37   17.86
   3  -5  -3  852.44   16.54
   3  -5  -3  828.27   18.15
   3  -5  -2  713.81   12.87
   3  -5  -2  709.02   15.51
   3  -5  -2  696.58   13.70
   3  -5  -2  720.79   15.91
   3  -5  -1  728.91   12.22
   3  -5  -1  731.33   15.18
   3  -5  -1  756.67   13.25
   3  -5  -1  762.83   16.09
   3  -5   0 2111.83   26.86
   3  -5   0 2152.15   31.94
   3  -5   0 2075.21   30.87
   3  -5   0 2149.92   27.95
   3  -5   0 2078.44   32.37
   3  -5   1 1490.79   24.53
   3  -5   1 1466.94   22.69
   3  -5   1 1516.71   19.25
   3  -5   1 1498.83   24.69
   3  -5   2 1594.66   25.66
   3  -5   2 1554.40   22.64
   3  -5   2 1561.83   25.08
   3  -5   3  555.42    9.58
   3  -5   3  535.10   12.00
   3  -5   4  704.14   10.45
   3  -5   4  801.40   14.79
   3  -5   5  822.31   18.52
   3  -5   5  833.91   15.46
   3  -5   6 1036.68   17.66
   3  -5   6 1022.85   21.95
   3  -5   7 2157.00   30.40
   3  -5   7 2103.34   37.16
   3  -5   8 1066.70   17.25
   3  -5   8 1001.44   23.95
   3  -5   9  949.43   24.08
   3  -5  10  811.55   23.05
   3  -5  11  421.12   16.98
   3  -4  -9   11.34    2.77
   3  -4  -9   15.50    3.23
   3  -4  -8  193.12    9.28
   3  -4  -8  219.78    9.74
   3  -4  -7  178.18    8.58
   3  -4  -7  179.28    8.28
   3  -4  -6  125.50    6.54
   3  -4  -6  121.59    6.43
   3  -4  -6  120.06    6.69
   3  -4  -5  139.96    6.87
   3  -4  -5  144.08    6.50
   3  -4  -5  148.06    6.83
   3  -4  -4  313.10    8.61
   3  -4  -4  304.43    9.74
   3  -4  -4  306.73    9.09
   3  -4  -4  312.03    9.70
   3  -4  -3   78.64    3.78
   3  -4  -3   90.33    4.47
   3  -4  -3   86.95    4.80
   3  -4  -3   81.40    4.21
   3  -4  -3   82.55    4.78
   3  -4  -2  186.98    5.45
   3  -4  -2  190.55    6.34
   3  -4  -2  177.33    6.49
   3  -4  -2  182.44    5.75
   3  -4  -2  177.04    6.79
   3  -4  -1   12.93    1.73
   3  -4  -1   13.77    1.36
   3  -4  -1   14.12    1.58
   3  -4  -1   11.41    1.86
   3  -4  -1   13.30    2.14
   3  -4   0    4.87    1.23
   3  -4   0    4.19    0.83
   3  -4   0    4.17    0.91
   3  -4   0    6.41    1.47
   3  -4   0    3.65    1.48
   3  -4   1   26.66    2.30
   3  -4   1   23.68    1.96
   3  -4   1   23.75    1.07
   3  -4   1   21.52    2.25
   3  -4   2   69.98    2.89
   3  -4   2   69.16    3.59
   3  -4   3  614.32    9.78
   3  -4   3  615.43   13.54
   3  -4   3  605.93   11.70
   3  -4   4   24.81    2.95
   3  -4   4   24.96    2.16
   3  -4   5   78.93    3.39
   3  -4   5   78.26    5.08
   3  -4   6    1.81    2.11
   3  -4   6    1.92    0.95
   3  -4   7  160.57    4.41
   3  -4   7  155.76    8.05
   3  -4   8  191.50    9.56
   3  -4   8  198.67    4.41
   3  -4   9   13.83    3.59
   3  -4  10   79.43    7.10
   3  -4  11   13.57    3.93
   3  -3  -9  120.30    7.18
   3  -3  -9  137.11    7.89
   3  -3  -8  388.55   12.68
   3  -3  -8  366.60   12.31
   3  -3  -7  699.13   16.95
   3  -3  -7  691.95   16.81
   3  -3  -6  136.57    6.63
   3  -3  -6  130.34    6.39
   3  -3  -5  699.42   15.72
   3  -3  -5  741.54   15.75
   3  -3  -5  744.66   15.69
   3  -3  -4 2615.59   36.28
   3  -3  -4 2619.86   35.97
   3  -3  -4 2486.38   37.27
   3  -3  -4 2543.28   36.66
   3  -3  -4 2573.67   37.35
   3  -3  -3 1991.24   27.81
   3  -3  -3 1936.09   27.64
   3  -3  -3 1890.18   29.04
   3  -3  -3 1935.13   28.19
   3  -3  -3 1869.29   29.01
   3  -3  -2 5228.93   64.34
   3  -3  -2 5317.29   64.78
   3  -3  -2 5281.07   64.56
   3  -3  -2 5286.28   66.27
   3  -3  -2 5204.66   66.53
   3  -3  -1 1823.78   24.81
   3  -3  -1 1825.23   25.73
   3  -3  -1 1856.10   26.62
   3  -3  -1 1831.50   24.74
   3  -3  -1 1922.90   27.29
   3  -3   0 2691.30   34.64
   3  -3   0 2685.39   34.77
   3  -3   0 2628.75   32.44
   3  -3   0 2672.95   35.53
   3  -3   1  480.39    9.14
   3  -3   1  513.65   10.00
   3  -3   2 3245.89   39.95
   3  -3   2 3239.09   42.77
   3  -3   2 3181.84   40.93
   3  -3   3 5260.85   64.95
   3  -3   3 4980.84   61.01
   3  -3   4 3509.31   47.40
   3  -3   4 3352.14   41.63
   3  -3   5 2093.10   33.70
   3  -3   5 2151.37   26.81
   3  -3   6 1917.53   32.33
   3  -3   6 1865.17   22.82
   3  -3   7   13.45    2.91
   3  -3   8 1352.96   28.23
   3  -3   9  370.67   14.18
   3  -3  10  638.02   20.29
   3  -3  11 1023.01   28.15
   3  -2 -10   30.79    4.10
   3  -2 -10   27.17    3.71
   3  -2  -9    6.57    2.34
   3  -2  -9    8.52    2.51
   3  -2  -8    8.49    2.37
   3  -2  -8    9.22    2.19
   3  -2  -7   81.43    5.15
   3  -2  -7   90.07    5.42
   3  -2  -6   92.42    4.54
   3  -2  -6   84.74    5.05
   3  -2  -5  427.69    9.85
   3  -2  -5  420.88   10.86
   3  -2  -5  421.06   10.81
   3  -2  -5  443.59   10.66
   3  -2  -4  768.79   13.47
   3  -2  -4  772.99   14.56
   3  -2  -4  805.27   15.34
   3  -2  -4  770.09   14.76
   3  -2  -3  313.16    7.63
   3  -2  -3  297.78    6.74
   3  -2  -3  305.39    8.16
   3  -2  -3  294.26    7.57
   3  -2  -3  297.83    8.06
   3  -2  -2  105.21    3.44
   3  -2  -2  103.52    3.87
   3  -2  -2  110.14    4.49
   3  -2  -2  111.94    3.99
   3  -2  -2  106.16    4.43
   3  -2  -1   20.33    1.48
   3  -2  -1   16.47    1.96
   3  -2  -1   15.00    1.54
   3  -2  -1   13.37    1.85
   3  -2   0    2.11    0.83
   3  -2   0    2.25    0.92
   3  -2   0    3.30    1.36
   3  -2   1    8.04    1.49
   3  -2   1    7.97    1.41
   3  -2   1    7.50    1.29
   3  -2   2  381.06    8.61
   3  -2   2  368.76    6.80
   3  -2   3  119.44    4.97
   3  -2   3  113.60    2.83
   3  -2   4    3.45    1.86
   3  -2   5   83.64    5.00
   3  -2   6   57.66    4.60
   3  -2   7  147.25    7.79
   3  -2   8   99.85    6.88
   3  -2   9  211.48   10.69
   3  -2  10    0.84    2.44
   3  -1 -11  448.36   14.23
   3  -1 -11  502.09   15.94
   3  -1 -10  719.91   17.73
   3  -1 -10  701.16   18.52
   3  -1  -9  651.05   16.27
   3  -1  -9  688.30   17.33
   3  -1  -8 1022.46   20.74
   3  -1  -8 1039.46   21.38
   3  -1  -7  392.82   11.10
   3  -1  -7  405.63   11.49
   3  -1  -6 1348.67   21.43
   3  -1  -6 1359.91   23.12
   3  -1  -6 1334.03   23.30
   3  -1  -5 1076.62   17.23
   3  -1  -5 1075.50   19.07
   3  -1  -5 1041.14   18.94
   3  -1  -4 2246.25   29.37
   3  -1  -4 2180.48   31.87
   3  -1  -4 2241.16   31.85
   3  -1  -4 2304.77   31.85
   3  -1  -3 2402.77   30.39
   3  -1  -3 2432.25   33.12
   3  -1  -3 2525.21   33.77
   3  -1  -3 2489.00   33.22
   3  -1  -2 2371.35   24.89
   3  -1  -2 2342.75   25.73
   3  -1  -2 2321.23   24.94
   3  -1  -2 2332.70   21.15
   3  -1  -1 1957.68   26.46
   3  -1  -1 1948.21   26.50
   3  -1  -1 1961.51   26.05
   3  -1  -1 1932.50   26.85
   3  -1   0 2098.25   28.56
   3  -1   0 2207.62   27.61
   3  -1   1 1834.68   23.60
   3  -1   1 1824.33   24.52
   3  -1   2 2508.93   33.62
   3  -1   3 2128.20   30.69
   3  -1   4 2462.08   36.03
   3  -1   5 2364.88   36.48
   3  -1   6 1505.86   27.71
   3  -1   7 1422.65   28.31
   3  -1   8  638.56   18.47
   3  -1   9  340.72   14.06
   3  -1  10  509.10   18.48
   3   0 -11    1.48    1.66
   3   0 -11   -0.68    2.01
   3   0 -10   57.42    4.98
   3   0 -10   58.85    4.55
   3   0  -9   75.37    5.36
   3   0  -9   74.57    4.84
   3   0  -8  822.48   18.18
   3   0  -8  823.01   17.24
   3   0  -7  714.05   14.40
   3   0  -7  766.69   14.01
   3   0  -7  734.17   15.39
   3   0  -7  731.07   16.04
   3   0  -6    0.83    1.11
   3   0  -6    1.78    0.88
   3   0  -6    3.34    1.81
   3   0  -6    1.41    1.00
   3   0  -5  976.19   15.57
   3   0  -5 1023.38   15.21
   3   0  -5 1011.84   18.09
   3   0  -5 1023.51   17.78
   3   0  -5 1044.18   18.10
   3   0  -4  597.82    9.66
   3   0  -4  645.07   12.35
   3   0  -4  617.59    9.29
   3   0  -4  599.04   12.21
   3   0  -4  604.69   12.09
   3   0  -4  634.17   12.29
   3   0  -3  847.71   11.18
   3   0  -3  821.54   14.50
   3   0  -3  862.92   14.78
   3   0  -3  863.42   14.58
   3   0  -2 4143.97   51.27
   3   0  -2 4097.98   51.35
   3   0  -2 4087.73   51.27
   3   0  -2 4088.89   51.67
   3   0  -1 1454.51   20.80
   3   0  -1 1462.37   21.42
   3   0  -1 1461.07   17.78
   3   0   0  586.28   10.00
   3   0   0  588.61    9.21
   3   0   1  143.04    3.81
   3   0   1  152.30    4.48
   3   0   2 2054.06   25.71
   3   0   2 2072.06   28.94
   3   0   3   30.23    1.30
   3   0   3   29.59    2.76
   3   0   4   25.98    2.93
   3   0   5  207.79    8.26
   3   0   6   20.95    3.34
   3   0   7    2.74    2.31
   3   0   8   20.45    3.82
   3   0   9   21.81    4.15
   3   1 -12  117.56    7.54
   3   1 -12  113.19    6.47
   3   1 -11  521.33   14.00
   3   1 -11  537.83   15.94
   3   1 -10  323.93   11.54
   3   1 -10  325.39   10.38
   3   1  -9  966.49   20.57
   3   1  -9  936.81   18.93
   3   1  -8 1514.96   23.95
   3   1  -8 1497.09   26.47
   3   1  -8 1480.37   25.01
   3   1  -7 2401.35   36.27
   3   1  -7 2383.20   35.02
   3   1  -7 2419.97   33.16
   3   1  -6  912.33   16.83
   3   1  -6  940.42   17.13
   3   1  -6  876.03   17.01
   3   1  -6  869.41   16.23
   3   1  -6  842.87   14.16
   3   1  -5 5495.73   69.10
   3   1  -5 5453.34   69.60
   3   1  -5 5323.14   68.72
   3   1  -5 5492.79   65.58
   3   1  -4 1284.59   17.19
   3   1  -4 1286.88   17.38
   3   1  -4 1314.94   17.12
   3   1  -4 1298.84   12.97
   3   1  -3 5716.41   69.45
   3   1  -3 5668.82   68.93
   3   1  -2 8455.34  100.51
   3   1  -1 4495.22   56.16
   3   1  -1 4601.45   54.01
   3   1   0 2933.80   37.82
   3   1   0 2984.12   37.36
   3   1   1 3027.18   38.83
   3   1   1 3159.60   40.19
   3   1   2 1036.56   15.27
   3   1   2 1018.55   17.74
   3   1   3 2818.81   35.42
   3   1   3 2800.48   40.22
   3   1   4 2768.79   34.82
   3   1   4 2764.84   41.30
   3   1   5 2638.77   33.08
   3   1   5 2543.09   41.04
   3   1   6 1294.35   17.89
   3   1   6 1322.14   17.94
   3   1   7 1054.27   24.89
   3   1   8  393.69   15.19
   3   1   9  321.26   14.59
   3   2 -12    2.15    1.99
   3   2 -12    1.84    1.67
   3   2 -11  176.71    8.68
   3   2 -11  191.55    7.80
   3   2 -10   78.06    5.52
   3   2 -10   71.75    4.64
   3   2  -9  272.75    9.87
   3   2  -9  277.44    8.88
   3   2  -8  228.65    8.54
   3   2  -8  243.75    7.89
   3   2  -8  241.90    7.41
   3   2  -7   27.13    3.09
   3   2  -7   25.11    2.56
   3   2  -7   30.08    2.36
   3   2  -6  435.86   10.66
   3   2  -6  439.23   10.64
   3   2  -6  407.46   10.64
   3   2  -6  416.21   10.11
   3   2  -6  428.03    8.94
   3   2  -5   36.93    2.87
   3   2  -5   35.03    2.16
   3   2  -5   32.62    2.70
   3   2  -5   30.01    2.88
   3   2  -5   33.06    2.08
   3   2  -4  437.56    7.89
   3   2  -4  434.63    9.77
   3   2  -4  427.09   10.14
   3   2  -4  438.86    8.12
   3   2  -3   36.12    2.57
   3   2  -3   33.42    1.78
   3   2  -2   67.81    3.53
   3   2  -2   61.50    2.43
   3   2  -2   69.37    3.51
   3   2  -1  814.61   14.30
   3   2  -1  817.12   13.00
   3   2   0  861.89   14.31
   3   2   0  840.15   14.53
   3   2   0  843.34   14.63
   3   2   1 1277.59   19.72
   3   2   1 1291.38   20.98
   3   2   2  758.68   13.49
   3   2   2  773.37   15.57
   3   2   3   40.24    2.55
   3   2   3   39.54    3.60
   3   2   4    6.00    1.25
   3   2   4    4.34    2.14
   3   2   5    6.67    1.30
   3   2   5    6.64    2.50
   3   2   6   33.88    4.32
   3   2   7  238.37   11.46
   3   2   8   36.20    5.07
   3   3 -12  358.85   12.95
   3   3 -12  356.31   10.83
   3   3 -11  384.10   12.78
   3   3 -11  382.10   10.93
   3   3 -10  683.74   15.05
   3   3 -10  657.64   16.81
   3   3  -9  582.05   15.01
   3   3  -9  628.60   13.93
   3   3  -8 1250.24   23.32
   3   3  -8 1321.46   22.44
   3   3  -8 1279.47   21.65
   3   3  -7 2656.62   36.94
   3   3  -7 2562.15   38.88
   3   3  -7 2712.92   38.13
   3   3  -7 2633.77   36.62
   3   3  -6 3417.91   46.62
   3   3  -6 3374.07   43.86
   3   3  -6 3412.92   45.69
   3   3  -6 3337.68   46.33
   3   3  -5 4989.49   65.19
   3   3  -5 5156.72   64.12
   3   3  -5 4984.27   61.96
   3   3  -5 4967.14   64.96
   3   3  -5 5057.82   62.41
   3   3  -4 2180.52   19.52
   3   3  -4 2176.81   16.11
   3   3  -4 2165.71   16.89
   3   3  -3 4996.87   29.23
   3   3  -3 4649.85   23.01
   3   3  -2 1111.62   17.40
   3   3  -2 1155.31   19.32
   3   3  -1 2700.30   37.26
   3   3  -1 2647.72   36.01
   3   3   0 3497.85   47.33
   3   3   0 3611.79   47.58
   3   3   0 3618.83   47.93
   3   3   1 2720.38   38.37
   3   3   1 2781.62   40.03
   3   3   1 2847.87   39.83
   3   3   2 1722.23   26.83
   3   3   2 1822.06   29.79
   3   3   3 2567.31   36.81
   3   3   3 2612.00   40.83
   3   3   4  240.01    7.74
   3   3   4  221.33    9.59
   3   3   5 1076.34   24.74
   3   3   6  870.68   22.97
   3   3   7  689.34   21.43
   3   4 -12  166.16    8.52
   3   4 -11   -1.36    1.76
   3   4 -11   -1.40    1.44
   3   4 -11   -1.85    2.02
   3   4 -10  326.35   10.55
   3   4 -10  327.00   11.09
   3   4 -10  330.50    9.91
   3   4  -9   79.18    4.81
   3   4  -9   78.58    5.18
   3   4  -8  715.14   15.16
   3   4  -8  696.28   16.09
   3   4  -7 1163.83   20.35
   3   4  -7 1195.09   22.15
   3   4  -7 1233.17   20.80
   3   4  -6 1072.55   18.98
   3   4  -6 1032.67   18.35
   3   4  -6 1064.44   18.58
   3   4  -5  614.18   12.80
   3   4  -5  600.91   12.11
   3   4  -5  588.13   12.24
   3   4  -4    8.85    1.57
   3   4  -4    6.62    1.41
   3   4  -3  296.82    7.84
   3   4  -3  311.13    9.12
   3   4  -2  372.73   10.14
   3   4  -2  359.28    9.13
   3   4  -1  276.09    8.56
   3   4  -1  272.61    8.17
   3   4   0 2467.97   35.90
   3   4   0 2341.59   36.08
   3   4   1    4.18    1.94
   3   4   1    3.12    1.39
   3   4   1    0.31    2.03
   3   4   2   98.00    6.03
   3   4   3   68.84    5.46
   3   4   4    1.05    2.46
   3   4   5   66.12    6.04
   3   4   6  226.67   11.83
   3   5 -12  539.96   15.46
   3   5 -12  526.66   15.66
   3   5 -11  553.92   15.10
   3   5 -11  554.59   15.56
   3   5 -10  423.60   12.46
   3   5 -10  435.36   13.12
   3   5  -9  745.16   16.59
   3   5  -9  729.88   17.26
   3   5  -8  677.80   15.26
   3   5  -8  667.38   15.85
   3   5  -7 1458.34   24.76
   3   5  -6 3325.65   45.37
   3   5  -6 3207.70   45.38
   3   5  -6 3318.41   45.80
   3   5  -5 2282.57   32.96
   3   5  -5 2180.63   32.92
   3   5  -5 2217.79   33.30
   3   5  -4 3527.82   47.91
   3   5  -3 2392.79   35.19
   3   5  -2 2798.22   40.66
   3   5  -1 2088.84   33.18
   3   5   0 2935.81   44.38
   3   5   1 1919.34   33.49
   3   5   1 1889.11   33.51
   3   5   2 2295.00   39.59
   3   5   3 1307.45   28.30
   3   5   4 1079.65   26.30
   3   5   5  523.76   18.34
   3   6 -12    1.39    1.70
   3   6 -12    0.61    1.73
   3   6 -11  157.35    7.98
   3   6 -11  145.58    7.60
   3   6 -10  209.01    8.94
   3   6 -10  223.07    9.08
   3   6  -9  107.45    6.09
   3   6  -8  178.50    7.62
   3   6  -7    0.54    1.60
   3   6  -6  143.62    5.96
   3   6  -6  146.76    6.58
   3   6  -5  394.21   11.21
   3   6  -4  977.42   19.45
   3   6  -3  441.02   12.09
   3   6  -2  158.27    7.25
   3   6  -1   13.63    2.85
   3   6   0    2.26    2.05
   3   6   1  127.30    7.60
   3   6   1  128.96    7.80
   3   6   2  283.34   12.19
   3   6   3  163.90    9.74
   3   6   4  111.61    8.50
   3   7 -11  684.68   18.32
   3   7 -10 1303.81   26.41
   3   7  -9  163.52    7.92
   3   7  -8 1745.03   30.96
   3   7  -7  803.64   18.43
   3   7  -6 1164.82   23.31
   3   7  -5 2097.47   34.64
   3   7  -4 1304.80   25.20
   3   7  -3 1189.35   24.19
   3   7  -2 1265.98   25.81
   3   7  -1  755.27   19.41
   3   7   0 1427.99   30.05
   3   7   0 1396.13   29.71
   3   7   1  724.58   20.64
   3   7   1  708.64   20.64
   3   7   2 1907.48   38.99
   3   8 -11  228.69   10.40
   3   8 -10   93.72    6.48
   3   8  -9   57.63    5.01
   3   8  -8   87.81    6.08
   3   8  -7  261.88   10.49
   3   8  -6   79.23    5.78
   3   8  -5  445.23   13.95
   3   8  -4  174.43    8.62
   3   8  -3  303.56   11.82
   3   8  -2  227.79   10.56
   3   8  -1  277.98   12.23
   3   8   0   84.56    7.13
   3   8   0   87.08    7.19
   3   8   1    2.05    2.62
   3   8   1   -1.95    3.04
   3   9  -9  973.72   23.54
   3   9  -8  797.59   20.77
   3   9  -7  742.69   19.86
   3   9  -6 1007.00   23.75
   3   9  -5  589.50   17.55
   3   9  -4 1108.27   26.04
   3   9  -3  875.67   23.00
   3   9  -2 1107.09   27.22
   4 -10   2 1027.13   25.20
   4 -10   3  346.67   13.45
   4 -10   4  542.30   17.02
   4 -10   5  191.94    9.69
   4  -9  -1  134.48    7.55
   4  -9  -1  159.21    9.07
   4  -9   0   57.95    4.81
   4  -9   0   66.31    5.84
   4  -9   1    0.82    1.45
   4  -9   1    4.26    2.27
   4  -9   2   22.67    2.82
   4  -9   2   16.19    3.26
   4  -9   3   45.99    3.63
   4  -9   3   42.42    4.56
   4  -9   4   63.66    5.38
   4  -9   5  124.70    7.36
   4  -9   6  190.89    8.95
   4  -9   7   63.72    5.18
   4  -9   8    1.19    1.56
   4  -8  -3  180.24    8.93
   4  -8  -3  181.46    7.66
   4  -8  -3  189.52    9.70
   4  -8  -2  647.67   14.55
   4  -8  -2  663.10   18.53
   4  -8  -1  590.96   15.87
   4  -8  -1  632.29   13.26
   4  -8  -1  634.04   17.84
   4  -8   0 1123.85   22.63
   4  -8   0 1168.39   25.15
   4  -8   1  859.53   18.21
   4  -8   1  869.83   20.68
   4  -8   2  502.63   12.48
   4  -8   2  525.11   15.08
   4  -8   3 1054.63   18.70
   4  -8   3  997.38   22.10
   4  -8   4  854.31   15.14
   4  -8   4  833.84   19.48
   4  -8   5 1082.90   22.61
   4  -8   6 1185.26   23.77
   4  -8   7  749.42   17.51
   4  -8   8  526.75   13.95
   4  -7  -5   11.47    2.75
   4  -7  -5   13.45    2.68
   4  -7  -5   10.72    2.69
   4  -7  -4  121.69    7.32
   4  -7  -4  124.33    6.51
   4  -7  -4  143.23    8.13
   4  -7  -3   76.51    5.66
   4  -7  -3   83.59    4.92
   4  -7  -3   82.83    6.17
   4  -7  -2    3.86    1.44
   4  -7  -2    1.60    1.68
   4  -7  -2    2.77    1.93
   4  -7  -1  212.64    8.45
   4  -7  -1  213.69    6.70
   4  -7  -1  225.11    9.53
   4  -7   0   59.45    4.30
   4  -7   0   67.81    3.18
   4  -7   0   71.52    5.31
   4  -7   1  201.40    7.40
   4  -7   1  207.55    4.59
   4  -7   1  194.45    8.45
   4  -7   2   77.28    4.21
   4  -7   2   75.76    5.20
   4  -7   3   12.85    1.76
   4  -7   3    7.53    2.20
   4  -7   4    3.66    1.04
   4  -7   4    4.61    1.88
   4  -7   5    0.21    1.46
   4  -7   6    4.20    1.77
   4  -7   7  201.91    7.68
   4  -7   8   24.58    2.67
   4  -7   9  100.68    7.88
   4  -7  10   13.76    3.54
   4  -6  -6  553.85   16.78
   4  -6  -6  590.11   16.03
   4  -6  -6  549.74   16.54
   4  -6  -5  921.76   21.69
   4  -6  -5  913.03   20.00
   4  -6  -5  928.64   21.80
   4  -6  -4  964.35   21.69
   4  -6  -4 1011.21   20.21
   4  -6  -4 1017.58   22.40
   4  -6  -3  845.88   19.37
   4  -6  -3  865.40   20.17
   4  -6  -2  496.92   10.35
   4  -6  -2  475.53   13.02
   4  -6  -2  491.38   11.32
   4  -6  -2  472.64   13.73
   4  -6  -1 2247.91   35.66
   4  -6  -1 2327.32   32.40
   4  -6  -1 2298.58   37.36
   4  -6   0  721.28   15.46
   4  -6   0  773.18   12.57
   4  -6   0  731.37   16.98
   4  -6   1 2375.17   34.71
   4  -6   1 2407.55   29.35
   4  -6   1 2405.69   37.28
   4  -6   2 2520.53   34.77
   4  -6   2 2446.47   37.87
   4  -6   3  671.70   12.30
   4  -6   3  655.41   14.78
   4  -6   4  808.84   12.66
   4  -6   4  724.21   15.86
   4  -6   5  742.52   15.42
   4  -6   6  470.61   11.33
   4  -6   7 1622.30   32.16
   4  -6   7 1605.37   25.34
   4  -6   8 1030.58   25.15
   4  -6   9  849.34   23.44
   4  -6  10  141.66    9.53
   4  -5  -8    1.10    1.73
   4  -5  -8    2.47    2.10
   4  -5  -7  120.60    7.45
   4  -5  -7  110.29    6.73
   4  -5  -6    8.68    2.28
   4  -5  -6    4.32    2.31
   4  -5  -6    9.80    2.71
   4  -5  -5   63.23    4.99
   4  -5  -5   71.84    4.90
   4  -5  -5   66.89    5.11
   4  -5  -4   49.76    4.22
   4  -5  -4   51.96    3.91
   4  -5  -4   51.84    4.39
   4  -5  -3   27.51    2.41
   4  -5  -3   19.86    2.42
   4  -5  -3   20.92    2.84
   4  -5  -3   27.41    3.35
   4  -5  -2  215.37    6.26
   4  -5  -2  209.15    7.82
   4  -5  -2  216.72    6.66
   4  -5  -2  214.59    8.30
   4  -5  -1  140.31    4.59
   4  -5  -1  133.57    5.65
   4  -5  -1  131.04    5.83
   4  -5  -1  150.59    4.88
   4  -5  -1  133.10    6.32
   4  -5   0  601.28   13.18
   4  -5   0  606.88   10.57
   4  -5   0  596.88   12.91
   4  -5   0  608.14   10.25
   4  -5   0  602.23   14.03
   4  -5   1  262.65    8.08
   4  -5   1  253.66    7.34
   4  -5   1  262.50    8.37
   4  -5   2  405.81    9.04
   4  -5   2  408.88   10.50
   4  -5   3  236.31    5.99
   4  -5   3  237.93    7.54
   4  -5   4   60.76    3.61
   4  -5   5  256.99    9.73
   4  -5   5  252.42    7.17
   4  -5   6   41.51    4.28
   4  -5   6   35.45    2.50
   4  -5   7    4.35    2.34
   4  -5   7    3.61    1.01
   4  -5   8   47.03    5.07
   4  -5   9   14.87    3.61
   4  -5  10   37.52    5.40
   4  -4  -9  387.09   13.85
   4  -4  -9  387.56   13.82
   4  -4  -8  290.96   11.56
   4  -4  -8  268.87   10.83
   4  -4  -7  632.73   17.07
   4  -4  -7  627.55   16.36
   4  -4  -6 1014.10   21.70
   4  -4  -6  952.24   20.33
   4  -4  -5  848.86   18.86
   4  -4  -5  856.45   17.86
   4  -4  -5  849.40   18.80
   4  -4  -4 1471.58   26.18
   4  -4  -4 1476.30   24.74
   4  -4  -4 1467.94   26.17
   4  -4  -3 1455.10   23.10
   4  -4  -3 1459.06   22.66
   4  -4  -3 1386.94   24.51
   4  -4  -3 1409.63   23.02
   4  -4  -3 1429.73   25.00
   4  -4  -2 2115.33   29.92
   4  -4  -2 2179.54   30.91
   4  -4  -2 2148.98   32.43
   4  -4  -2 2115.25   30.09
   4  -4  -2 2113.57   32.90
   4  -4  -1 2944.05   39.22
   4  -4  -1 2920.59   37.72
   4  -4  -1 2855.12   40.13
   4  -4  -1 2821.14   37.37
   4  -4  -1 2872.49   41.07
   4  -4   0 1849.30   27.27
   4  -4   0 1842.43   25.49
   4  -4   0 1855.42   24.28
   4  -4   0 1778.04   27.11
   4  -4   0 1864.71   28.36
   4  -4   1 3450.35   45.62
   4  -4   1 3596.33   47.04
   4  -4   2 1114.48   17.60
   4  -4   2 1132.63   18.79
   4  -4   3 2358.16   34.99
   4  -4   3 2287.06   32.04
   4  -4   4 1726.36   28.99
   4  -4   4 1732.72   24.71
   4  -4   5 1365.89   25.81
   4  -4   5 1390.85   20.02
   4  -4   6 1358.83   27.19
   4  -4   6 1455.78   19.57
   4  -4   7 1518.13   30.07
   4  -4   8  670.80   19.28
   4  -4   9 1053.91   26.47
   4  -4  10  641.92   21.02
   4  -3  -9  176.57    8.78
   4  -3  -9  167.63    8.73
   4  -3  -8   38.93    4.30
   4  -3  -8   40.93    4.25
   4  -3  -7   42.23    4.14
   4  -3  -7   46.76    4.28
   4  -3  -6  385.58   11.84
   4  -3  -6  376.78   11.28
   4  -3  -5   32.15    2.62
   4  -3  -5   32.15    3.45
   4  -3  -5   33.75    3.24
   4  -3  -4  886.83   16.42
   4  -3  -4  838.05   15.25
   4  -3  -4  828.96   16.28
   4  -3  -4  855.51   17.46
   4  -3  -4  829.20   17.31
   4  -3  -3  450.24    9.59
   4  -3  -3  458.94   10.29
   4  -3  -3  440.39   11.15
   4  -3  -3  449.29   10.33
   4  -3  -3  446.86   11.45
   4  -3  -2    0.32    0.83
   4  -3  -2    0.33    0.89
   4  -3  -2    1.05    1.16
   4  -3  -2    2.16    1.62
   4  -3  -2    3.56    1.72
   4  -3  -1  155.19    4.76
   4  -3  -1  159.09    5.05
   4  -3  -1  152.85    4.66
   4  -3  -1  160.10    5.77
   4  -3  -1  153.67    5.79
   4  -3   0  457.35    9.31
   4  -3   0  447.45    8.26
   4  -3   0  435.91    9.79
   4  -3   0  446.75   10.06
   4  -3   1  388.15    8.71
   4  -3   1  388.63    8.85
   4  -3   2  914.94   15.07
   4  -3   2  883.11   16.04
   4  -3   2  871.33   14.68
   4  -3   3  520.32   12.11
   4  -3   3  523.62    9.57
   4  -3   4 1666.85   28.60
   4  -3   4 1788.43   23.14
   4  -3   5  266.45    9.55
   4  -3   6   57.51    4.85
   4  -3   7   17.94    3.19
   4  -3   8    7.94    3.01
   4  -3   9  219.53   11.35
   4  -3  10  198.94   11.50
   4  -2 -10  436.40   14.20
   4  -2 -10  462.08   15.05
   4  -2  -9  728.01   18.26
   4  -2  -9  725.38   18.61
   4  -2  -8  797.76   18.72
   4  -2  -8  796.13   18.80
   4  -2  -7  739.24   17.12
   4  -2  -7  726.66   16.98
   4  -2  -6 1414.51   22.20
   4  -2  -6 1354.56   24.55
   4  -2  -6 1377.01   25.02
   4  -2  -5 2521.97   34.01
   4  -2  -5 2527.13   37.53
   4  -2  -5 2453.32   36.82
   4  -2  -4 3182.57   42.39
   4  -2  -4 3023.38   39.29
   4  -2  -4 2996.16   42.19
   4  -2  -4 3119.88   43.22
   4  -2  -3 5060.81   61.62
   4  -2  -3 5300.34   64.78
   4  -2  -3 5048.28   64.43
   4  -2  -3 5215.06   65.84
   4  -2  -2 7371.43   88.43
   4  -2  -2 7196.41   87.82
   4  -2  -2 7380.98   89.55
   4  -2  -1 2742.34   34.19
   4  -2  -1 2741.37   36.59
   4  -2  -1 2729.15   35.72
   4  -2  -1 2704.07   37.21
   4  -2   0 5139.12   63.97
   4  -2   1 3015.00   39.65
   4  -2   1 2937.99   38.57
   4  -2   2 3845.14   49.91
   4  -2   3 2512.29   36.05
   4  -2   4 3115.30   44.43
   4  -2   5  707.53   16.53
   4  -2   6  853.49   19.74
   4  -2   7  622.24   17.34
   4  -2   8  477.29   15.92
   4  -2   9  509.80   17.59
   4  -2  10  528.88   19.14
   4  -1 -11    4.55    2.35
   4  -1 -11    0.55    1.65
   4  -1 -10    1.82    2.19
   4  -1 -10    0.58    1.83
   4  -1  -9    3.10    1.99
   4  -1  -9    2.15    1.82
   4  -1  -8   16.50    3.00
   4  -1  -8   12.61    2.52
   4  -1  -7  238.51    7.14
   4  -1  -7  237.12    8.81
   4  -1  -7  237.34    8.72
   4  -1  -6  355.99    8.29
   4  -1  -6  351.43   10.32
   4  -1  -6  358.95   10.38
   4  -1  -5  547.93   10.12
   4  -1  -5  544.93   12.69
   4  -1  -5  574.57   13.03
   4  -1  -4  514.63    8.13
   4  -1  -4  515.27   11.22
   4  -1  -4  539.41   11.72
   4  -1  -4  543.05   11.38
   4  -1  -3   68.02    3.62
   4  -1  -3   72.79    4.01
   4  -1  -3   76.11    3.71
   4  -1  -3   71.70    2.05
   4  -1  -2 1087.11   18.01
   4  -1  -2 1068.28   17.63
   4  -1  -2 1092.90   18.42
   4  -1  -2 1106.50   18.04
   4  -1  -1  244.15    6.61
   4  -1  -1  247.82    6.85
   4  -1  -1  241.61    7.13
   4  -1   0 1191.37   18.17
   4  -1   0 1219.98   16.98
   4  -1   1  465.11    8.73
   4  -1   1  468.90    9.26
   4  -1   2  238.77    5.21
   4  -1   2  245.75    6.96
   4  -1   3  431.41   10.64
   4  -1   4  274.06    8.93
   4  -1   5  756.42   17.39
   4  -1   6  360.97   12.25
   4  -1   7  113.84    7.38
   4  -1   8   54.07    5.59
   4  -1   9   19.45    4.18
   4   0 -11  321.19   11.55
   4   0 -11  315.97   12.31
   4   0 -10 1038.11   23.47
   4   0 -10 1096.34   22.65
   4   0  -9 1168.43   24.10
   4   0  -9 1170.93   23.29
   4   0  -8  979.31   17.70
   4   0  -8  976.72   16.88
   4   0  -8  951.67   20.41
   4   0  -8  921.73   19.46
   4   0  -7 1177.75   19.01
   4   0  -7 1178.40   18.24
   4   0  -7 1156.07   22.21
   4   0  -7 1152.95   21.68
   4   0  -6 1747.20   24.59
   4   0  -6 1764.93   23.84
   4   0  -6 1738.14   28.54
   4   0  -6 1796.45   28.41
   4   0  -5  171.87    6.46
   4   0  -5  187.01    4.55
   4   0  -5  189.45    6.84
   4   0  -5  175.68    6.61
   4   0  -5  181.34    6.57
   4   0  -4 5729.10   33.10
   4   0  -4 5751.56   33.09
   4   0  -3 2768.89   22.21
   4   0  -3 2675.03   22.53
   4   0  -2 6095.50   74.50
   4   0  -2 6099.72   75.88
   4   0  -2 5985.83   75.00
   4   0  -1 9601.53  113.41
   4   0   0 2934.32   38.37
   4   0   0 2988.93   37.11
   4   0   1 3318.24   41.71
   4   0   1 3330.84   42.80
   4   0   2 2486.30   31.40
   4   0   2 2416.57   34.53
   4   0   3 2220.17   27.74
   4   0   3 2223.64   33.41
   4   0   4 3262.26   38.29
   4   0   4 3462.54   47.92
   4   0   5 2145.23   35.76
   4   0   6 2487.55   41.76
   4   0   7  480.88   15.80
   4   0   8  520.18   17.60
   4   0   9  361.51   15.45
   4   1 -12    0.87    1.85
   4   1 -12   -0.72    1.53
   4   1 -11    5.84    2.13
   4   1 -11    6.17    2.09
   4   1 -10   53.08    4.83
   4   1 -10   54.17    4.42
   4   1  -9  307.09   10.86
   4   1  -9  318.88   10.37
   4   1  -8   14.39    1.72
   4   1  -8   19.30    2.90
   4   1  -8   13.02    2.44
   4   1  -7  627.36   11.44
   4   1  -7  639.95   14.47
   4   1  -7  628.15   14.93
   4   1  -6    2.41    0.75
   4   1  -6    3.14    1.76
   4   1  -6    2.07    1.70
   4   1  -5   20.65    2.25
   4   1  -5   22.46    2.40
   4   1  -5   23.23    2.71
   4   1  -5   22.42    2.62
   4   1  -5   21.05    1.27
   4   1  -4  762.84   12.47
   4   1  -4  683.00    5.82
   4   1  -4  715.99   12.46
   4   1  -4  786.60   13.28
   4   1  -4  670.43    5.59
   4   1  -3 2162.96   20.47
   4   1  -3 2062.91   21.04
   4   1  -2  380.77    9.36
   4   1  -2  359.10    6.03
   4   1  -2  372.91    8.97
   4   1  -1 2300.03   31.98
   4   1  -1 2290.87   29.22
   4   1   0   12.79    1.57
   4   1   0    8.32    1.43
   4   1   1  154.76    4.90
   4   1   1  144.67    5.27
   4   1   2  180.29    5.14
   4   1   2  192.31    6.76
   4   1   3  254.14    6.10
   4   1   3  250.54    8.63
   4   1   4  200.43    4.98
   4   1   4  183.05    7.98
   4   1   5   80.43    2.64
   4   1   5   70.10    5.51
   4   1   6  106.90    7.26
   4   1   7   47.25    5.49
   4   1   8   81.20    7.33
   4   2 -12  294.76   12.01
   4   2 -12  296.04   10.61
   4   2 -11  475.61   14.99
   4   2 -11  457.46   13.16
   4   2 -10 1063.10   22.92
   4   2 -10 1019.87   20.86
   4   2  -9 1227.76   24.38
   4   2  -9 1236.70   20.62
   4   2  -8 1581.20   28.19
   4   2  -8 1567.04   26.84
   4   2  -8 1601.53   23.95
   4   2  -7 2714.44   41.26
   4   2  -7 2748.73   40.64
   4   2  -7 2830.45   36.66
   4   2  -6 2184.24   29.16
   4   2  -6 2144.15   33.58
   4   2  -6 2164.34   33.23
   4   2  -6 2197.22   28.87
   4   2  -5 3651.86   49.41
   4   2  -5 3580.78   48.66
   4   2  -5 3666.15   43.83
   4   2  -5 3514.60   49.26
   4   2  -5 3592.50   49.43
   4   2  -5 3483.28   43.84
   4   2  -4 3004.28   14.32
   4   2  -4 3045.04   16.14
   4   2  -3 4560.23   58.44
   4   2  -3 4606.34   58.31
   4   2  -2 4743.61   56.93
   4   2  -2 4775.76   61.07
   4   2  -1 3559.59   47.27
   4   2  -1 3593.49   45.55
   4   2   0 4942.55   62.01
   4   2   0 4855.94   61.75
   4   2   1 2161.67   30.77
   4   2   1 2164.99   32.08
   4   2   2 2436.50   33.49
   4   2   2 2394.11   36.36
   4   2   3 2004.43   28.58
   4   2   3 1988.62   33.10
   4   2   4 1296.95   20.24
   4   2   4 1282.97   25.81
   4   2   5 1739.33   33.00
   4   2   6  731.73   20.57
   4   2   7  666.41   20.64
   4   3 -12   23.03    3.05
   4   3 -12   19.09    3.38
   4   3 -11   14.32    2.47
   4   3 -11   10.91    2.72
   4   3 -10   25.58    3.44
   4   3 -10   51.21    4.33
   4   3  -9    2.09    1.74
   4   3  -9    5.54    2.16
   4   3  -9    9.23    1.82
   4   3  -8   12.31    1.72
   4   3  -8   11.87    1.82
   4   3  -8   10.76    2.46
   4   3  -7  358.02    8.56
   4   3  -7  355.94   10.92
   4   3  -7  349.75    8.46
   4   3  -6  381.77    8.45
   4   3  -6  391.00   11.04
   4   3  -6  367.27    8.35
   4   3  -5  378.89    7.84
   4   3  -5  371.21    8.26
   4   3  -4   63.15    3.88
   4   3  -4   52.75    2.59
   4   3  -4   56.92    2.94
   4   3  -3   34.83    2.98
   4   3  -3   31.91    2.11
   4   3  -2  427.19   10.83
   4   3  -2  444.24    9.23
   4   3  -1 1327.46   21.16
   4   3  -1 1359.79   22.58
   4   3  -1 1331.51   21.66
   4   3   0 1274.58   21.58
   4   3   0 1274.64   22.01
   4   3   1 2945.17   40.79
   4   3   1 2844.65   42.34
   4   3   2   89.38    4.51
   4   3   2   75.87    5.18
   4   3   3   93.52    4.64
   4   3   3   81.16    5.66
   4   3   4    9.71    2.88
   4   3   5   75.17    6.44
   4   3   6  121.74    8.54
   4   3   7  341.78   15.16
   4   4 -12  388.16   12.33
   4   4 -12  381.96   13.57
   4   4 -12  385.07   12.05
   4   4 -11  505.89   13.62
   4   4 -11  511.78   15.31
   4   4 -10  304.33    9.73
   4   4 -10  306.35   11.14
   4   4  -9 1083.82   19.96
   4   4  -9 1058.32   22.49
   4   4  -8  942.27   17.54
   4   4  -8  911.41   20.04
   4   4  -8  946.00   17.47
   4   4  -7 2237.74   32.10
   4   4  -7 2192.86   32.15
   4   4  -6 1317.39   20.83
   4   4  -6 1321.14   21.60
   4   4  -5 2902.85   39.14
   4   4  -5 2952.23   39.80
   4   4  -4 2064.15   29.21
   4   4  -3 1682.57   25.23
   4   4  -2 2448.40   34.89
   4   4  -1 3088.68   43.51
   4   4   0  655.32   15.10
   4   4   0  671.37   15.58
   4   4   1 3702.38   53.72
   4   4   2  685.19   17.59
   4   4   3 1111.70   24.80
   4   4   4 1500.27   31.46
   4   4   5  571.87   18.81
   4   4   6  848.81   24.60
   4   5 -12   13.96    2.65
   4   5 -12   15.79    3.30
   4   5 -11    7.90    2.09
   4   5 -11    8.67    2.50
   4   5 -10   46.76    3.90
   4   5 -10   47.43    4.58
   4   5  -9   67.45    4.39
   4   5  -9   62.41    4.94
   4   5  -8  444.02   11.46
   4   5  -7  217.42    7.36
   4   5  -6   44.57    3.26
   4   5  -6   48.41    3.41
   4   5  -5  105.07    4.86
   4   5  -5  108.58    5.17
   4   5  -4   29.58    2.73
   4   5  -3   63.27    4.00
   4   5  -2  372.14   10.60
   4   5  -1   84.80    5.31
   4   5   0  276.45   10.01
   4   5   0  269.74   10.16
   4   5   1   84.79    6.08
   4   5   2  350.18   13.00
   4   5   3   76.48    6.42
   4   5   4  266.78   12.53
   4   6 -12  579.18   17.06
   4   6 -12  562.75   15.73
   4   6 -11  663.21   16.74
   4   6 -10  554.53   14.64
   4   6  -9  421.04   12.08
   4   6  -8  392.01   11.22
   4   6  -7 1093.79   20.84
   4   6  -6 1744.00   28.54
   4   6  -5 2497.32   37.53
   4   6  -4 2487.07   37.89
   4   6  -3 2005.58   32.84
   4   6  -2 1306.01   25.07
   4   6  -1  974.98   21.53
   4   6   0 1295.31   26.79
   4   6   0 1310.17   27.36
   4   6   1 1094.19   25.37
   4   6   2  846.84   22.79
   4   6   3 1018.34   26.58
   4   7 -11   17.21    2.93
   4   7 -10  110.13    6.47
   4   7  -9   28.18    3.38
   4   7  -8   16.67    2.68
   4   7  -7   43.33    3.96
   4   7  -6  239.98    9.08
   4   7  -5   61.96    4.65
   4   7  -4  424.39   12.85
   4   7  -3   14.24    2.74
   4   7  -2   60.95    5.09
   4   7  -1   19.71    3.42
   4   7  -1   20.44    3.53
   4   7   0  246.39   11.18
   4   7   0  239.44   11.26
   4   7   1  390.73   15.20
   4   8 -10  629.47   17.11
   4   8  -9  519.03   15.19
   4   8  -8  379.89   12.63
   4   8  -7  512.18   14.77
   4   8  -6  630.85   16.83
   4   8  -5  541.72   15.66
   4   8  -4  833.99   20.61
   4   8  -3  883.69   21.81
   4   8  -2  890.60   22.74
   4   8  -1  422.48   15.51
   4   8  -1  459.23   16.31
   4   9  -8  114.85    7.23
   4   9  -7   46.08    4.94
   4   9  -6    9.81    2.69
   4   9  -5   28.90    4.06
   4   9  -4   41.38    4.72
   5  -9  -1  431.43   14.11
   5  -9  -1  477.29   16.17
   5  -9   0  497.49   14.60
   5  -9   0  509.09   16.72
   5  -9   1  588.20   15.43
   5  -9   1  617.34   18.25
   5  -9   2  619.92   15.11
   5  -9   2  623.54   17.94
   5  -9   3  208.58    9.82
   5  -9   4  576.19   16.69
   5  -9   5  422.70   13.85
   5  -9   6  347.29   12.22
   5  -8  -3  167.64    8.76
   5  -8  -3  165.28    9.25
   5  -8  -2  249.00   10.36
   5  -8  -2  272.93   11.62
   5  -8  -1  221.94    9.33
   5  -8  -1  229.17   10.47
   5  -8   0   18.54    2.86
   5  -8   0   20.45    3.37
   5  -8   1   26.64    3.04
   5  -8   1   26.70    3.76
   5  -8   2  111.26    5.52
   5  -8   2  115.85    6.98
   5  -8   3   28.82    2.69
   5  -8   3   24.55    3.35
   5  -8   4  355.01   11.95
   5  -8   5  208.41    8.88
   5  -8   6  134.25    6.84
   5  -8   7  237.51    8.99
   5  -7  -5  357.34   13.40
   5  -7  -5  357.02   11.80
   5  -7  -5  368.32   13.77
   5  -7  -4  289.60    9.88
   5  -7  -4  283.08   11.41
   5  -7  -4  295.33   11.88
   5  -7  -3  544.96   15.72
   5  -7  -3  565.98   13.59
   5  -7  -3  553.70   16.46
   5  -7  -2  760.13   18.29
   5  -7  -2  761.55   15.29
   5  -7  -2  719.86   19.01
   5  -7  -1  604.10   15.54
   5  -7  -1  644.29   12.50
   5  -7  -1  605.07   16.74
   5  -7   0 1938.03   32.53
   5  -7   0 2040.08   27.12
   5  -7   0 2019.52   35.04
   5  -7   1  919.86   18.40
   5  -7   1  918.18   20.47
   5  -7   2 1539.83   25.12
   5  -7   2 1515.67   28.05
   5  -7   3 1710.44   25.78
   5  -7   3 1579.73   28.92
   5  -7   4  511.38   10.95
   5  -7   4  708.53   15.89
   5  -7   5 1159.30   22.26
   5  -7   6  655.24   15.14
   5  -7   9  331.70   14.70
   5  -6  -6   44.34    4.89
   5  -6  -6   42.59    4.24
   5  -6  -5  128.25    6.67
   5  -6  -5  127.10    7.60
   5  -6  -5  129.52    7.65
   5  -6  -4   10.41    2.17
   5  -6  -4   16.22    3.07
   5  -6  -4   16.35    3.24
   5  -6  -3  289.25   10.56
   5  -6  -3  297.89    9.10
   5  -6  -3  294.95   11.04
   5  -6  -2    1.53    1.25
   5  -6  -2    2.40    1.78
   5  -6  -2    5.92    2.39
   5  -6  -1  187.68    5.83
   5  -6  -1  178.12    7.49
   5  -6  -1  180.55    5.72
   5  -6  -1  184.99    8.26
   5  -6   0  781.80   12.49
   5  -6   0  738.25   16.09
   5  -6   0  749.14   17.55
   5  -6   1  342.23    9.60
   5  -6   1  341.13   10.77
   5  -6   2   35.48    2.90
   5  -6   2   37.90    3.50
   5  -6   3  282.90    7.58
   5  -6   3  271.32    9.08
   5  -6   4    8.42    1.98
   5  -6   5  346.24    9.65
   5  -6   6  487.13   11.46
   5  -6   6  497.62   15.55
   5  -6   7  501.93   16.40
   5  -6   8  257.72   12.06
   5  -6   9  110.72    8.31
   5  -5  -7  644.52   17.31
   5  -5  -7  686.06   18.76
   5  -5  -6 1148.58   23.54
   5  -5  -6 1177.07   25.32
   5  -5  -5  809.75   19.38
   5  -5  -5  796.90   19.51
   5  -5  -5  798.40   17.90
   5  -5  -4  658.58   16.71
   5  -5  -4  675.43   15.23
   5  -5  -4  671.63   17.07
   5  -5  -3 1027.27   18.16
   5  -5  -3  960.44   20.40
   5  -5  -3  981.01   18.33
   5  -5  -3  955.14   20.86
   5  -5  -2  524.50   11.32
   5  -5  -2  513.59   13.38
   5  -5  -2  512.96   11.32
   5  -5  -2  507.95   13.71
   5  -5  -1 1193.22   21.08
   5  -5  -1 1238.00   19.27
   5  -5  -1 1213.15   22.30
   5  -5  -1 1199.19   23.14
   5  -5   0 1863.57   28.74
   5  -5   0 1855.22   24.93
   5  -5   0 1811.72   28.96
   5  -5   0 1816.28   30.09
   5  -5   1 2400.99   34.53
   5  -5   1 2361.34   36.09
   5  -5   2 1535.72   23.81
   5  -5   2 1541.12   25.55
   5  -5   3 1267.04   20.08
   5  -5   3 1203.03   21.19
   5  -5   4  980.89   17.52
   5  -5   4  960.73   20.50
   5  -5   5  468.21   14.05
   5  -5   5  469.36   10.45
   5  -5   6 1091.92   24.30
   5  -5   6 1152.36   17.79
   5  -5   7 1184.56   26.58
   5  -5   8  585.69   18.46
   5  -5   9  798.51   23.08
   5  -4  -8   30.94    4.19
   5  -4  -8   31.69    3.88
   5  -4  -7   17.52    3.02
   5  -4  -7   16.58    3.25
   5  -4  -6   18.47    2.83
   5  -4  -6   12.37    2.81
   5  -4  -5   46.44    4.25
   5  -4  -5   46.04    3.83
   5  -4  -4  157.88    5.91
   5  -4  -4  160.42    7.32
   5  -4  -4  153.47    7.23
   5  -4  -4  151.12    6.39
   5  -4  -3  704.04   14.18
   5  -4  -3  691.49   13.58
   5  -4  -3  661.82   15.81
   5  -4  -3  685.88   14.19
   5  -4  -3  671.89   15.63
   5  -4  -2  653.30   12.72
   5  -4  -2  658.61   13.06
   5  -4  -2  616.58   12.66
   5  -4  -2  617.69   14.37
   5  -4  -2  624.20   14.81
   5  -4  -1  793.09   14.53
   5  -4  -1  820.19   14.77
   5  -4  -1  797.32   13.79
   5  -4  -1  796.35   16.20
   5  -4  -1  754.59   16.26
   5  -4   0  420.02   10.60
   5  -4   0  426.34   10.95
   5  -4   1  406.38    9.95
   5  -4   1  403.69   10.23
   5  -4   2  991.03   17.13
   5  -4   2  929.10   16.98
   5  -4   3  931.18   18.68
   5  -4   3  942.02   16.26
   5  -4   4  549.52   14.22
   5  -4   4  565.96   10.89
   5  -4   5  563.18   15.19
   5  -4   6    0.96    1.96
   5  -4   7  104.11    7.13
   5  -4   8   33.86    4.70
   5  -4   9  165.36   10.13
   5  -3  -9   68.09    5.68
   5  -3  -9   68.51    5.73
   5  -3  -8  637.35   17.13
   5  -3  -8  617.07   17.10
   5  -3  -7  684.55   16.87
   5  -3  -7  642.72   16.93
   5  -3  -6  784.26   17.66
   5  -3  -6  788.98   18.39
   5  -3  -5 2120.18   30.75
   5  -3  -5 2123.62   33.49
   5  -3  -5 2163.27   34.85
   5  -3  -4 1222.71   19.13
   5  -3  -4 1195.67   21.43
   5  -3  -4 1220.85   22.82
   5  -3  -3 2285.85   33.53
   5  -3  -3 2344.11   31.33
   5  -3  -3 2300.10   33.60
   5  -3  -3 2293.44   35.25
   5  -3  -2  913.10   14.82
   5  -3  -2  965.11   17.02
   5  -3  -2  930.49   16.34
   5  -3  -2  936.28   18.11
   5  -3  -1 2523.54   35.23
   5  -3  -1 2525.89   33.88
   5  -3  -1 2481.13   36.12
   5  -3  -1 2452.28   36.16
   5  -3   0 2045.99   30.75
   5  -3   0 2100.28   30.61
   5  -3   1 2284.96   33.23
   5  -3   2 3823.57   50.90
   5  -3   3 2705.99   39.61
   5  -3   4  923.33   19.30
   5  -3   5 2806.85   43.80
   5  -3   6  381.11   12.94
   5  -3   7 1060.10   24.70
   5  -3   8 1391.85   30.77
   5  -3   9  426.31   16.59
   5  -2 -10  131.99    7.86
   5  -2 -10  123.59    7.57
   5  -2  -9   11.26    2.72
   5  -2  -9    8.89    2.46
   5  -2  -8    1.21    1.65
   5  -2  -8    0.46    1.89
   5  -2  -7    2.64    1.94
   5  -2  -7    1.73    1.77
   5  -2  -6   35.12    2.49
   5  -2  -6   38.14    3.63
   5  -2  -6   35.38    3.65
   5  -2  -5  237.97    6.18
   5  -2  -5  235.18    8.26
   5  -2  -5  240.39    8.75
   5  -2  -4  863.39   13.55
   5  -2  -4  870.99   17.00
   5  -2  -4  861.62   17.74
   5  -2  -3   57.85    2.35
   5  -2  -3   63.40    3.79
   5  -2  -3   51.23    3.46
   5  -2  -3   56.13    4.03
   5  -2  -2    5.53    1.32
   5  -2  -2    7.35    1.65
   5  -2  -1   45.00    3.10
   5  -2  -1   42.17    3.36
   5  -2   0  300.18    8.70
   5  -2   0  292.97    6.70
   5  -2   1  720.03   13.19
   5  -2   2 2594.16   36.66
   5  -2   3  686.28   14.83
   5  -2   4  734.78   16.54
   5  -2   5  320.08   10.96
   5  -2   6  313.23   11.60
   5  -2   7   70.17    5.89
   5  -2   8  397.50   15.04
   5  -2   9   44.75    5.73
   5  -1 -11  325.66   12.87
   5  -1 -11  320.03   12.27
   5  -1 -10  303.64   11.93
   5  -1 -10  303.18   11.62
   5  -1  -9  817.10   19.95
   5  -1  -9  827.45   19.66
   5  -1  -8  629.24   16.39
   5  -1  -8  644.45   16.36
   5  -1  -7 1081.30   17.82
   5  -1  -7 1098.90   22.05
   5  -1  -7 1085.75   22.02
   5  -1  -6 1060.70   16.51
   5  -1  -6 1110.16   21.27
   5  -1  -6 1075.78   21.24
   5  -1  -5  901.12   18.08
   5  -1  -5  931.85   18.70
   5  -1  -5  907.20   13.49
   5  -1  -4 2441.17   35.46
   5  -1  -4 2433.93   36.35
   5  -1  -4 2377.72   29.04
   5  -1  -3 2328.44   33.66
   5  -1  -3 2238.51   33.93
   5  -1  -3 2290.88   33.43
   5  -1  -2 3310.37   44.17
   5  -1  -2 3243.73   44.51
   5  -1  -2 3163.93   45.12
   5  -1  -1 3373.57   44.69
   5  -1  -1 3451.15   46.59
   5  -1  -1 3320.33   40.18
   5  -1   0 2152.13   29.98
   5  -1   0 2110.79   28.27
   5  -1   1 1665.02   23.99
   5  -1   1 1676.64   24.43
   5  -1   2 1597.29   22.19
   5  -1   2 1560.16   24.78
   5  -1   3 1135.54   20.75
   5  -1   4 1508.46   26.82
   5  -1   5  892.75   20.11
   5  -1   6  765.33   19.48
   5  -1   7  748.77   20.56
   5  -1   8  429.94   16.00
   5   0 -11    6.85    2.48
   5   0 -11    1.20    1.62
   5   0 -10    6.81    2.46
   5   0 -10    0.54    1.90
   5   0  -9    7.50    2.64
   5   0  -9    7.30    2.32
   5   0  -8  500.23   10.70
   5   0  -8  480.73   13.99
   5   0  -8  492.33   13.77
   5   0  -7   15.06    1.57
   5   0  -7   16.52    2.85
   5   0  -7   19.08    3.02
   5   0  -6  577.37    9.60
   5   0  -6  542.65   13.69
   5   0  -6  561.33   14.04
   5   0  -5   57.47    4.04
   5   0  -5   62.87    4.36
   5   0  -5   58.09    1.79
   5   0  -4  190.89    7.09
   5   0  -4  188.74    7.33
   5   0  -3 1413.76   23.44
   5   0  -3 1414.52   24.67
   5   0  -3 1459.89   24.04
   5   0  -2 1534.93   24.71
   5   0  -2 1448.96   23.62
   5   0  -1  286.94    7.78
   5   0  -1  275.88    5.55
   5   0   0  691.67   13.04
   5   0   0  686.03   11.92
   5   0   1    3.81    1.13
   5   0   1    2.80    1.19
   5   0   2  412.72    8.41
   5   0   2  401.37   10.28
   5   0   3  617.96   10.24
   5   0   3  581.41   14.08
   5   0   4 1312.75   16.70
   5   0   4 1286.18   24.83
   5   0   5  728.23   18.25
   5   0   6  116.97    7.40
   5   0   7  100.89    7.49
   5   0   8    6.70    2.84
   5   1 -11  457.00   15.12
   5   1 -11  453.41   14.05
   5   1 -10  546.77   16.05
   5   1 -10  532.81   14.98
   5   1  -9  602.66   16.36
   5   1  -9  596.16   15.45
   5   1  -8 1227.01   19.33
   5   1  -8 1237.03   18.55
   5   1  -8 1214.70   24.39
   5   1  -8 1198.49   23.53
   5   1  -7   54.28    2.62
   5   1  -7   55.03    2.35
   5   1  -7   47.28    4.15
   5   1  -7   47.47    4.04
   5   1  -6  863.08   12.46
   5   1  -6  838.79   11.69
   5   1  -6  860.09   18.19
   5   1  -6  857.84   18.11
   5   1  -6  871.46   12.55
   5   1  -5  879.62   18.34
   5   1  -5  941.35   18.93
   5   1  -4  632.72   14.72
   5   1  -3 3352.73   46.21
   5   1  -2 3387.48   44.85
   5   1  -2 3226.97   39.37
   5   1  -1 2499.74   35.09
   5   1  -1 2431.84   31.97
   5   1   0 3239.65   43.33
   5   1   0 3220.99   42.25
   5   1   1 1690.02   24.87
   5   1   1 1618.98   25.65
   5   1   2 1615.76   23.71
   5   1   2 1570.29   26.41
   5   1   3 1242.09   18.82
   5   1   3 1194.96   23.07
   5   1   4 1952.16   25.92
   5   1   4 1873.99   33.30
   5   1   5  972.33   22.60
   5   1   6  888.84   22.78
   5   1   7  701.41   21.11
   5   2 -12   10.67    2.44
   5   2 -12   10.91    2.85
   5   2 -11   19.18    3.10
   5   2 -11   22.32    3.70
   5   2 -10    3.16    1.85
   5   2 -10    2.86    1.83
   5   2  -9  111.64    6.70
   5   2  -9  123.97    6.65
   5   2  -8    4.17    1.03
   5   2  -8    4.85    1.17
   5   2  -8    4.80    1.91
   5   2  -8    4.31    1.84
   5   2  -7   59.60    2.76
   5   2  -7   59.46    4.69
   5   2  -7   62.73    4.62
   5   2  -7   59.77    2.60
   5   2  -6   31.48    1.71
   5   2  -6   29.68    3.35
   5   2  -6   33.18    3.48
   5   2  -6   33.24    1.73
   5   2  -5  314.72    5.42
   5   2  -5  336.80    6.01
   5   2  -4  328.23    5.33
   5   2  -4  359.53    6.46
   5   2  -3  185.16    4.62
   5   2  -2  201.50    7.06
   5   2  -2  188.90    5.25
   5   2  -1   87.45    4.44
   5   2  -1   84.19    3.82
   5   2   0  121.24    5.18
   5   2   0  117.08    5.03
   5   2   1  536.03   11.84
   5   2   1  526.88   12.61
   5   2   2  309.37    8.36
   5   2   2  301.04    9.97
   5   2   3  212.18    6.62
   5   2   3  209.39    8.84
   5   2   4  203.29    9.42
   5   2   5   50.53    5.27
   5   2   6  208.69   10.88
   5   3 -12  241.15   10.94
   5   3 -12  229.43    9.72
   5   3 -11  432.55   11.74
   5   3 -11  411.34   14.13
   5   3 -11  421.13   13.54
   5   3 -10  594.25   13.42
   5   3 -10  601.55   15.80
   5   3  -9  978.06   17.56
   5   3  -9  950.66   21.65
   5   3  -9  975.40   20.82
   5   3  -8 1582.33   23.58
   5   3  -8 1505.12   28.80
   5   3  -8 1573.23   23.29
   5   3  -7 1204.08   18.33
   5   3  -7 1219.10   18.51
   5   3  -6 1611.31   22.12
   5   3  -6 1580.89   22.69
   5   3  -5  259.89    5.76
   5   3  -5  271.34    6.54
   5   3  -4  908.39   13.89
   5   3  -3  823.28   13.50
   5   3  -2 1417.92   22.03
   5   3  -2 1380.72   21.05
   5   3  -1 2354.06   34.29
   5   3   0 1978.34   31.08
   5   3   1  648.44   14.34
   5   3   1  629.53   15.16
   5   3   2  925.62   20.32
   5   3   3  482.36   14.68
   5   3   4  515.45   16.39
   5   3   5  967.27   24.88
   5   3   6  466.93   17.35
   5   4 -12    3.39    2.16
   5   4 -11    4.44    1.55
   5   4 -11    4.69    2.20
   5   4 -10   27.31    2.78
   5   4 -10   25.44    3.66
   5   4  -9    3.27    1.32
   5   4  -9   -1.68    2.09
   5   4  -8   80.88    4.02
   5   4  -8   86.05    4.17
   5   4  -7  303.58    7.66
   5   4  -7  272.88    7.71
   5   4  -6  467.22    9.85
   5   4  -6  466.70   10.56
   5   4  -5   34.37    2.41
   5   4  -5   31.10    2.48
   5   4  -4    0.54    0.91
   5   4  -3  601.50   12.24
   5   4  -2   -0.23    1.21
   5   4  -2    2.23    1.38
   5   4  -1 1863.49   30.29
   5   4  -1 1858.21   29.52
   5   4   0  528.25   13.93
   5   4   1  216.94    9.08
   5   4   2  185.95    8.83
   5   4   3   86.33    6.56
   5   4   4   -0.69    2.39
   5   4   5  296.36   13.56
   5   5 -12  253.97   11.29
   5   5 -11  284.72    9.59
   5   5 -11  250.05   11.05
   5   5 -10  524.68   13.06
   5   5  -9  735.57   15.46
   5   5  -8  229.19    7.50
   5   5  -7  875.84   16.44
   5   5  -6  601.04   12.63
   5   5  -6  594.81   13.29
   5   5  -5  915.26   16.78
   5   5  -5  912.70   17.87
   5   5  -4  997.03   18.33
   5   5  -3 1182.66   21.25
   5   5  -2  418.53   11.59
   5   5  -2  412.80   11.92
   5   5  -1  896.69   19.20
   5   5  -1  917.73   20.01
   5   5   0  638.05   16.79
   5   5   1  714.34   18.96
   5   5   2  888.01   22.45
   5   5   3  695.95   20.48
   5   6 -10    5.75    1.86
   5   6  -9   79.77    4.83
   5   6  -8    9.23    1.94
   5   6  -7   66.14    4.25
   5   6  -6   53.53    3.82
   5   6  -5  103.55    5.37
   5   6  -4  116.66    5.83
   5   6  -3    3.43    1.79
   5   6  -2   43.60    4.11
   5   6  -2   43.68    4.31
   5   6  -1   11.31    2.59
   5   6  -1   10.77    2.72
   5   6   0  119.66    7.60
   5   6   1  347.88   13.66
   5   6   2  343.58   14.13
   5   7 -10  153.90    7.32
   5   7  -9  324.62   10.67
   5   7  -8  618.11   15.17
   5   7  -7  400.01   11.70
   5   7  -6 1037.10   21.12
   5   7  -5 1064.63   21.86
   5   7  -4  678.19   16.88
   5   7  -3  738.81   18.50
   5   7  -2  358.10   12.76
   5   7  -2  367.73   13.26
   5   7  -1  766.51   20.39
   5   7  -1  791.28   21.15
   5   7   0  144.64    8.90
   5   8  -9   12.60    2.54
   5   8  -8  231.59    9.37
   5   8  -7   77.97    5.50
   5   8  -6  284.81   10.76
   5   8  -5  130.06    7.29
   5   8  -4  115.59    7.15
   5   8  -3   24.48    3.70
   6  -9   1   27.23    3.35
   6  -9   1   35.08    4.44
   6  -9   2  109.29    7.23
   6  -9   3  231.56   10.42
   6  -9   4  312.22   12.03
   6  -8  -2  374.68   13.06
   6  -8  -2  376.08   13.99
   6  -8  -1  323.67   11.60
   6  -8  -1  336.89   12.94
   6  -8   0  708.53   17.38
   6  -8   0  713.30   19.31
   6  -8   1  192.48    8.08
   6  -8   1  205.61    9.63
   6  -8   2  493.51   12.84
   6  -8   2  498.38   15.13
   6  -8   3  613.21   16.72
   6  -8   4  534.13   15.10
   6  -8   5  778.09   18.41
   6  -7  -4  240.02   10.67
   6  -7  -4  233.06    8.75
   6  -7  -4  252.71   11.33
   6  -7  -3    7.70    2.56
   6  -7  -3    5.52    2.43
   6  -7  -2  267.89   10.47
   6  -7  -2  278.16   11.24
   6  -7  -1   27.35    3.31
   6  -7  -1   21.44    3.39
   6  -7   0  116.70    6.25
   6  -7   0  127.53    7.34
   6  -7   1  256.97    9.04
   6  -7   1  262.78   10.21
   6  -7   2  116.40    5.61
   6  -7   2  114.62    6.58
   6  -7   3   89.49    4.65
   6  -7   3   89.97    5.61
   6  -7   4  152.90    7.13
   6  -7   5   55.12    4.18
   6  -6  -6  201.49    8.87
   6  -6  -6  199.59    9.98
   6  -6  -5  339.79   11.12
   6  -6  -5  337.50   12.72
   6  -6  -4  601.45   14.64
   6  -6  -4  621.57   17.53
   6  -6  -4  601.25   16.87
   6  -6  -3  153.82    6.45
   6  -6  -3  153.57    7.74
   6  -6  -3  160.05    8.24
   6  -6  -2 1227.44   20.51
   6  -6  -2 1154.99   23.72
   6  -6  -2 1186.45   24.87
   6  -6  -1  997.59   21.01
   6  -6  -1 1019.75   22.18
   6  -6   0  800.72   17.41
   6  -6   0  796.77   18.43
   6  -6   1 2100.35   32.91
   6  -6   1 2085.14   34.60
   6  -6   2 1061.52   19.56
   6  -6   2 1063.49   21.25
   6  -6   3  938.19   17.45
   6  -6   3  909.22   18.79
   6  -6   4 1287.53   22.93
   6  -6   5  587.16   13.23
   6  -6   6  849.55   21.76
   6  -6   7  472.53   16.27
   6  -6   8  768.72   22.29
   6  -5  -7   93.60    6.29
   6  -5  -7   85.82    6.51
   6  -5  -6   -0.14    1.73
   6  -5  -6    1.21    1.83
   6  -5  -5  146.57    6.98
   6  -5  -5  156.65    8.09
   6  -5  -4   12.04    2.19
   6  -5  -4   14.88    2.77
   6  -5  -3   52.60    3.69
   6  -5  -3   46.35    4.47
   6  -5  -3   48.91    4.34
   6  -5  -2  205.84    6.80
   6  -5  -2  210.56    8.47
   6  -5  -2  204.35    8.69
   6  -5  -1  731.98   14.86
   6  -5  -1  738.33   13.48
   6  -5  -1  708.27   16.34
   6  -5   0  390.60   11.18
   6  -5   0  398.79   11.63
   6  -5   1  242.02    8.11
   6  -5   1  231.06    8.38
   6  -5   2  124.18    5.77
   6  -5   2  122.91    5.77
   6  -5   3   10.46    1.90
   6  -5   4  175.15    6.33
   6  -5   4  180.11    8.18
   6  -5   5  611.03   16.70
   6  -5   6  332.06   12.55
   6  -5   7  455.74   15.73
   6  -5   8  224.70   11.45
   6  -4  -8  212.24    9.68
   6  -4  -8  227.51   10.50
   6  -4  -7  414.27   13.24
   6  -4  -7  402.22   13.89
   6  -4  -6  370.65   11.73
   6  -4  -6  355.21   12.49
   6  -4  -5  700.68   16.28
   6  -4  -5  694.96   17.64
   6  -4  -4  531.56   13.08
   6  -4  -4  502.06   14.23
   6  -4  -3  261.94    7.24
   6  -4  -3  256.08    8.12
   6  -4  -3  248.29    9.30
   6  -4  -2  447.47    9.90
   6  -4  -2  455.23   10.70
   6  -4  -2  455.31   12.50
   6  -4  -1  240.34    8.53
   6  -4   0 1209.53   22.05
   6  -4   1 1412.15   24.27
   6  -4   3 1690.11   28.68
   6  -4   4  879.78   19.42
   6  -4   5  828.91   19.74
   6  -4   6  783.71   20.15
   6  -4   7  834.42   22.11
   6  -4   8  736.33   21.67
   6  -3  -9  189.95    9.38
   6  -3  -9  170.50    9.21
   6  -3  -8    9.14    2.58
   6  -3  -8    1.50    2.07
   6  -3  -7   72.70    5.28
   6  -3  -7   72.28    5.54
   6  -3  -6    4.38    1.94
   6  -3  -6    2.34    1.90
   6  -3  -5  148.25    6.79
   6  -3  -5  152.78    7.46
   6  -3  -5  145.20    5.04
   6  -3  -4  326.66    9.79
   6  -3  -4  323.32   10.76
   6  -3  -4  328.08    7.54
   6  -3  -3  400.05   10.56
   6  -3  -3  429.13   12.10
   6  -3  -3  409.38    8.29
   6  -3  -2  345.05    9.16
   6  -3  -2  349.56   10.61
   6  -3  -1   33.80    3.30
   6  -3   0   52.04    3.98
   6  -3   2    3.84    1.57
   6  -3   3 1280.37   23.29
   6  -3   4    1.98    1.74
   6  -3   5    9.37    2.57
   6  -3   6   55.90    5.20
   6  -3   7   30.09    4.24
   6  -3   8   47.94    5.74
   6  -2 -10   80.68    6.32
   6  -2 -10   76.94    6.13
   6  -2  -9  189.51    9.27
   6  -2  -9  171.07    8.90
   6  -2  -8  304.83   11.31
   6  -2  -8  290.37   11.24
   6  -2  -7  613.57   16.16
   6  -2  -7  617.83   16.61
   6  -2  -6 1231.55   18.76
   6  -2  -6 1242.28   23.93
   6  -2  -6 1248.45   24.74
   6  -2  -5 1459.57   20.02
   6  -2  -5 1415.31   25.40
   6  -2  -5 1381.27   26.47
   6  -2  -4  548.32    8.73
   6  -2  -4  523.73   12.98
   6  -2  -4  534.04   14.10
   6  -2  -3 1258.00   22.23
   6  -2  -3 1289.83   23.77
   6  -2  -2  448.46   12.26
   6  -2  -1  806.18   17.25
   6  -2   0 1467.25   21.47
   6  -2   1 2193.06   31.32
   6  -2   2 1239.78   21.53
   6  -2   3 2139.82   33.74
   6  -2   4 1082.88   21.92
   6  -2   5  590.09   16.02
   6  -2   6  978.59   23.13
   6  -2   7  626.41   18.92
   6  -2   8  546.33   18.54
   6  -1 -10   32.33    4.13
   6  -1 -10   27.28    3.82
   6  -1  -9    0.45    2.04
   6  -1  -9    2.76    2.09
   6  -1  -8    8.48    2.48
   6  -1  -8    5.42    2.39
   6  -1  -7    1.30    2.06
   6  -1  -7    2.86    1.89
   6  -1  -6   25.29    1.51
   6  -1  -6   22.61    3.20
   6  -1  -6   26.84    3.42
   6  -1  -5  127.06    6.23
   6  -1  -5  124.31    6.45
   6  -1  -4   -0.30    1.68
   6  -1  -4    5.34    2.12
   6  -1  -3  202.97    8.16
   6  -1  -2  113.80    6.00
   6  -1  -1  118.54    5.23
   6  -1  -1  117.52    3.31
   6  -1   0  489.51   11.09
   6  -1   0  501.26    9.86
   6  -1   1   75.21    3.73
   6  -1   1   74.14    3.85
   6  -1   2  381.99   10.12
   6  -1   3  196.76    7.69
   6  -1   4  385.92   12.01
   6  -1   5  347.96   12.08
   6  -1   6  133.56    8.01
   6  -1   7   65.17    6.12
   6   0 -11  161.88    9.07
   6   0 -11  154.22    8.54
   6   0 -10  450.47   14.77
   6   0 -10  421.05   14.07
   6   0  -9  415.72   13.68
   6   0  -9  379.21   12.90
   6   0  -8  321.17   11.37
   6   0  -8  322.49   11.43
   6   0  -7  795.26   11.94
   6   0  -7  810.71   18.65
   6   0  -7  773.42   18.42
   6   0  -6  123.85    6.47
   6   0  -6  121.72    6.57
   6   0  -5  815.76   18.03
   6   0  -5  862.88   19.02
   6   0  -4 1569.79   28.13
   6   0  -3  858.24   18.66
   6   0  -1  616.47   13.25
   6   0  -1  614.37   10.26
   6   0   0  525.82   11.79
   6   0   0  541.70   10.62
   6   0   1  704.99   13.68
   6   0   1  727.34   14.20
   6   0   2  710.19   13.05
   6   0   2  701.81   15.17
   6   0   3 1431.86   20.47
   6   0   3 1367.83   25.33
   6   0   4  515.87   14.51
   6   0   5 1032.55   23.47
   6   0   6  556.18   17.38
   6   0   7  431.01   16.13
   6   1 -11    6.90    2.38
   6   1 -11    6.83    2.64
   6   1 -10  550.54   16.61
   6   1 -10  552.41   16.02
   6   1  -9   26.76    3.72
   6   1  -9   35.07    4.06
   6   1  -8  276.68   10.53
   6   1  -8  273.51   10.45
   6   1  -8  273.68    6.27
   6   1  -7   84.13    2.33
   6   1  -7   84.42    2.40
   6   1  -7   78.88    5.52
   6   1  -7   81.62    5.71
   6   1  -6    1.51    1.78
   6   1  -6   -0.09    1.73
   6   1  -5   14.21    2.94
   6   1  -2  646.90   10.25
   6   1  -1    8.25    1.58
   6   1  -1    7.47    1.30
   6   1   0   19.58    2.18
   6   1   0   15.66    1.93
   6   1   1    3.62    1.13
   6   1   1    5.27    1.68
   6   1   2  150.16    5.41
   6   1   2  147.55    6.64
   6   1   3  345.41   11.36
   6   1   4  241.23   10.06
   6   1   5  104.85    7.23
   6   1   6   90.17    7.15
   6   2 -11  249.96   11.10
   6   2 -11  264.97   11.05
   6   2 -10  398.13   13.88
   6   2 -10  417.75   13.86
   6   2  -9  232.03   10.08
   6   2  -9  245.61    9.99
   6   2  -8  636.92   17.37
   6   2  -8  652.18   17.32
   6   2  -7  625.19    9.36
   6   2  -7  642.35    8.99
   6   2  -7  645.64    9.34
   6   2  -7  664.61   16.91
   6   2  -4  589.78    9.20
   6   2  -4  623.26    9.04
   6   2  -3 1228.01   17.33
   6   2  -2  968.41   15.63
   6   2  -1 2346.54   32.93
   6   2   0 1957.91   30.03
   6   2   1  931.43   17.64
   6   2   1  879.69   18.25
   6   2   2 1146.93   22.82
   6   2   3  306.74   11.28
   6   2   4  636.52   18.08
   6   2   5  606.90   18.67
   6   3 -11   25.42    3.87
   6   3 -11   19.00    3.37
   6   3 -10   44.87    4.93
   6   3 -10   45.90    4.52
   6   3  -9   16.58    3.21
   6   3  -8   82.99    3.23
   6   3  -8   82.42    5.94
   6   3  -7   71.36    2.59
   6   3  -6  174.01    3.91
   6   3  -6  178.05    4.64
   6   3  -5  190.06    4.19
   6   3  -5  195.95    5.22
   6   3  -4   53.60    2.77
   6   3  -3   17.79    1.86
   6   3  -2  266.33    7.69
   6   3  -1    2.14    1.36
   6   3   0  411.89   11.40
   6   3   1   41.07    3.82
   6   3   2   51.49    4.70
   6   3   3   27.89    3.86
   6   3   4   74.97    6.34
   6   4 -11  204.64   10.18
   6   4 -10  701.55   19.35
   6   4  -8 1706.34   24.53
   6   4  -7  679.61   11.85
   6   4  -6  385.10    8.04
   6   4  -5  458.25    9.19
   6   4  -5  438.02   10.06
   6   4  -4  223.74    6.36
   6   4  -3  445.77   10.91
   6   4  -3  430.80    9.98
   6   4  -2 2074.15   32.30
   6   4  -1  445.40   12.33
   6   4   0 1132.11   23.04
   6   4   1  881.26   20.62
   6   4   2  208.08    9.76
   6   4   3  851.59   22.53
   6   5  -8  268.58    7.54
   6   5  -7  234.18    6.90
   6   5  -6  222.96    6.80
   6   5  -5  573.96   12.24
   6   5  -4   30.12    2.76
   6   5  -3  426.44   11.24
   6   5  -3  442.84   12.07
   6   5  -2  110.00    6.10
   6   5  -1  169.29    8.04
   6   5   0   11.72    2.81
   6   5   1  130.71    7.85
   6   5   2    2.99    2.46
   6   6  -7  796.19   15.92
   6   6  -6 1097.92   20.16
   6   6  -5 1046.10   19.89
   6   6  -4  732.47   16.48
   6   6  -3  579.83   14.87
   6   6  -3  600.10   15.72
   6   6  -2  470.64   14.21
   6   6  -2  449.50   13.41
   6   6  -1  674.45   18.43
   6   6   0 1116.08   25.86
   6   7  -6   95.06    5.50
   6   7  -5  282.81    9.97
   6   7  -4   79.84    5.47
   6   7  -3   80.66    5.63
   6   7  -3   77.95    5.89
   6   7  -2    9.01    2.54
   6   7  -2    6.46    2.59
   7  -8  -1   39.72    4.24
   7  -8  -1   45.70    4.99
   7  -8   0    3.42    1.84
   7  -8   0    6.47    2.57
   7  -8   1  151.61    7.39
   7  -8   1  153.32    8.35
   7  -8   2   78.32    5.87
   7  -8   3  111.53    6.81
   7  -8   4  309.51   11.17
   7  -7  -3  504.50   16.31
   7  -7  -3  465.37   15.07
   7  -7  -2  391.10   13.94
   7  -7  -2  386.47   13.09
   7  -7  -1  702.27   17.95
   7  -7  -1  726.64   19.22
   7  -7   0  541.24   14.82
   7  -7   0  526.41   15.79
   7  -7   1  301.07   10.26
   7  -7   1  306.87   11.38
   7  -7   2  637.89   15.08
   7  -7   2  595.32   16.15
   7  -7   3  356.63   11.70
   7  -7   4  853.29   18.85
   7  -6  -5   14.25    3.23
   7  -6  -5   16.98    2.74
   7  -6  -4   22.36    2.80
   7  -6  -4   23.03    3.57
   7  -6  -3    5.07    1.63
   7  -6  -3    3.88    2.06
   7  -6  -2   48.93    4.76
   7  -6  -2   48.38    3.41
   7  -6  -2   53.81    4.74
   7  -6  -1   31.01    3.59
   7  -6  -1   27.26    3.54
   7  -6   0  193.04    8.74
   7  -6   0  208.41    8.45
   7  -6   1    0.52    1.44
   7  -6   1    1.09    1.75
   7  -6   2   96.92    5.73
   7  -6   2  110.24    5.67
   7  -6   3   25.05    2.99
   7  -5  -6  356.81   12.10
   7  -5  -6  368.46   13.65
   7  -5  -5  197.36    8.32
   7  -5  -5  197.01    9.52
   7  -5  -4  700.98   16.12
   7  -5  -4  724.33   18.62
   7  -5  -3  944.85   18.44
   7  -5  -3  920.25   21.13
   7  -5  -2  912.04   17.13
   7  -5  -2  879.11   20.19
   7  -5  -1  981.05   20.82
   7  -5   0 1080.76   21.77
   7  -5   1  795.15   17.59
   7  -5   5  366.94   12.95
   7  -5   6  783.66   20.90
   7  -5   7  227.98   11.25
   7  -4  -7   95.63    6.31
   7  -4  -7   94.84    6.90
   7  -4  -6   53.23    4.57
   7  -4  -6   52.78    5.06
   7  -4  -5    1.68    1.47
   7  -4  -5   -1.29    2.22
   7  -4  -4   20.55    2.68
   7  -4  -4   19.53    3.24
   7  -4  -3   17.86    2.47
   7  -4  -3   19.26    3.06
   7  -4  -2  104.88    6.13
   7  -4  -1  114.81    6.34
   7  -4   0   73.77    5.11
   7  -4   3    2.94    1.71
   7  -4   4  132.18    7.08
   7  -4   5   15.10    2.89
   7  -4   6  124.48    7.85
   7  -4   7   63.86    6.05
   7  -3  -8  223.10   10.01
   7  -3  -8  224.24   10.48
   7  -3  -7  184.09    8.68
   7  -3  -7  189.25    9.37
   7  -3  -6  767.53   18.35
   7  -3  -6  795.08   19.87
   7  -3  -5  583.80   14.96
   7  -3  -5  595.33   16.41
   7  -3  -4  910.08   19.10
   7  -3  -4  967.70   21.18
   7  -3  -3  292.71    9.31
   7  -3  -3  302.25   10.63
   7  -3  -2  277.93   10.08
   7  -3  -1  890.97   19.65
   7  -3   2 2447.15   36.51
   7  -3   3  626.91   15.26
   7  -3   4 1191.35   24.22
   7  -3   5  737.70   19.08
   7  -3   6  290.24   12.14
   7  -3   7  943.18   24.58
   7  -2  -9   32.47    4.13
   7  -2  -9   31.22    4.12
   7  -2  -8   10.53    2.90
   7  -2  -8   13.35    2.83
   7  -2  -7   67.82    5.29
   7  -2  -7   67.01    5.59
   7  -2  -6    4.50    1.94
   7  -2  -6    3.30    2.21
   7  -2  -5  202.41    8.34
   7  -2  -5  198.75    8.86
   7  -2  -4   99.22    5.60
   7  -2  -4  116.02    6.58
   7  -2  -3   10.77    2.49
   7  -2  -2    5.55    2.14
   7  -2   0   44.51    2.68
   7  -2   1  321.75    8.67
   7  -2   2   18.06    2.42
   7  -2   3    6.70    2.03
   7  -2   4   24.99    3.53
   7  -2   5   13.73    3.05
   7  -2   6    8.18    2.68
   7  -1 -10  329.80   12.96
   7  -1 -10  338.39   13.17
   7  -1  -9  375.61   13.43
   7  -1  -9  386.69   13.75
   7  -1  -8  574.50   16.53
   7  -1  -8  599.25   17.11
   7  -1  -7 1297.94   26.25
   7  -1  -7 1375.54   27.53
   7  -1  -6  755.24   18.11
   7  -1  -6  788.99   19.33
   7  -1  -5 1449.25   27.09
   7  -1  -5 1521.71   29.07
   7  -1  -4 1446.06   27.90
   7  -1  -3 1064.57   22.63
   7  -1  -1  911.19   13.50
   7  -1   0  661.67   12.39
   7  -1   1 1113.77   19.62
   7  -1   1 1175.21   19.92
   7  -1   2 1106.12   20.65
   7  -1   3 1302.82   24.55
   7  -1   4 1082.37   23.11
   7  -1   5  586.61   16.98
   7  -1   6  419.96   15.03
   7   0 -10    0.91    1.94
   7   0 -10   -1.27    2.24
   7   0  -9  199.61    9.61
   7   0  -9  206.79    9.88
   7   0  -8    0.54    1.99
   7   0  -8    1.90    2.04
   7   0  -7   27.20    3.65
   7   0  -7   28.17    3.83
   7   0  -6   26.26    3.42
   7   0  -6   24.70    3.64
   7   0  -5    1.28    2.14
   7   0  -1  383.43    7.85
   7   0   0   34.74    2.54
   7   0   1   58.11    3.62
   7   0   1   61.01    3.84
   7   0   2    8.11    1.93
   7   0   3  131.66    6.83
   7   0   4  190.71    9.02
   7   0   5   69.63    5.87
   7   0   6    9.32    3.09
   7   1 -10  230.68   10.71
   7   1 -10  245.63   10.97
   7   1  -9  771.53   20.74
   7   1  -9 1023.80   23.43
   7   1  -8  323.86   12.11
   7   1  -8  319.38   12.11
   7   1  -7  391.74   13.03
   7   1  -7  395.81   13.43
   7   1  -6 1718.46   32.39
   7   1  -2  766.02   11.99
   7   1  -1  769.23   13.64
   7   1   0  702.19   14.07
   7   1   1 1357.62   23.82
   7   1   2  825.34   18.33
   7   1   3 1117.59   23.68
   7   1   4  881.34   21.59
   7   1   5  386.16   14.40
   7   2 -10  327.11   13.04
   7   2 -10  353.77   13.24
   7   2  -9  250.50   11.07
   7   2  -9  249.16   11.06
   7   2  -8  175.51    8.87
   7   2  -3  184.71    4.69
   7   2  -2  213.03    6.06
   7   2  -1    1.77    1.16
   7   2   0   38.85    3.31
   7   2   1   19.19    2.79
   7   2   2   17.35    2.88
   7   2   3   72.96    5.69
   7   2   4  126.69    8.03
   7   3 -10  302.73   12.53
   7   3  -5 1076.68   15.23
   7   3  -4 1285.71   18.87
   7   3  -3 1303.28   20.41
   7   3  -2 2232.37   32.51
   7   3  -1 2209.38   33.76
   7   3   0 1448.30   26.24
   7   3   1  763.34   18.24
   7   3   2  600.41   16.81
   7   3   3  319.96   12.70
   7   4  -5    4.27    1.16
   7   4  -4  717.63   14.04
   7   4  -3    9.97    1.84
   7   4  -2  297.08    9.38
   7   4  -1  311.42   10.35
   7   4   0   68.66    5.14
   7   4   1   13.60    2.84
   7   4   2  116.05    7.63
   7   5  -5  650.05   14.07
   7   5  -4 1173.30   21.62
   7   5  -3  783.11   17.25
   7   5  -2  806.28   18.48
   7   5  -1 1263.38   25.63
   7   5   0  870.62   21.27
   7   6  -4  128.80    6.68
   7   6  -3  127.64    6.99
   7   6  -2   73.70    5.62
   8  -7  -1    5.03    2.04
   8  -7   0   57.11    4.93
   8  -7   1   56.10    4.76
   8  -6  -3  508.54   15.86
   8  -6  -2 1385.52   28.22
   8  -6  -1  560.27   15.94
   8  -6   0  871.57   20.31
   8  -6   1  463.09   13.66
   8  -5  -5    6.08    2.00
   8  -5  -5    4.53    2.21
   8  -5  -4   15.05    2.53
   8  -5  -4   10.09    2.63
   8  -5  -3   26.34    3.71
   8  -5  -2   18.52    3.23
   8  -5  -1   44.58    4.44
   8  -5   0   87.92    5.87
   8  -5   5   86.48    6.29
   8  -4  -6  381.23   12.59
   8  -4  -6  398.01   14.48
   8  -4  -5  762.57   18.19
   8  -4  -5  779.13   20.35
   8  -4  -4  816.15   18.26
   8  -4  -4  805.00   20.42
   8  -4  -3 1217.65   25.78
   8  -4  -2  897.59   21.22
   8  -4  -1  889.68   20.69
   8  -4   3  313.08   10.61
   8  -4   4  424.39   13.37
   8  -4   5  245.16   10.64
   8  -3  -7   90.78    6.30
   8  -3  -7   98.09    7.09
   8  -3  -6  153.91    7.86
   8  -3  -6  157.82    8.72
   8  -3  -5  114.72    6.48
   8  -3  -5  105.23    6.95
   8  -3  -4   67.16    5.57
   8  -3  -3   67.80    5.60
   8  -3  -2  112.56    6.87
   8  -3   2  335.49   10.13
   8  -3   3  165.14    7.49
   8  -3   4    3.21    1.89
   8  -3   5   33.12    4.15
   8  -2  -8  315.12   12.25
   8  -2  -8  326.48   13.04
   8  -2  -7  473.36   14.70
   8  -2  -7  455.53   15.29
   8  -2  -6 1143.37   24.43
   8  -2  -6 1186.48   26.02
   8  -2  -5  678.02   17.14
   8  -2  -5  706.20   19.02
   8  -2  -4  834.19   20.92
   8  -2  -3 1194.97   25.51
   8  -2   1 1184.79   20.45
   8  -2   2 1072.39   20.54
   8  -2   3 1333.01   25.60
   8  -2   4  449.83   14.07
   8  -2   5  646.38   18.37
   8  -1  -9   33.68    4.29
   8  -1  -9   25.68    4.03
   8  -1  -8   14.55    3.14
   8  -1  -8    5.42    2.56
   8  -1  -7   30.37    3.88
   8  -1  -7   35.50    4.53
   8  -1  -6  249.58   10.19
   8  -1  -6  272.35   11.52
   8  -1  -5   94.81    6.68
   8  -1  -4   74.23    5.83
   8  -1   0  155.60    5.30
   8  -1   1  226.27    7.61
   8  -1   2  124.46    6.17
   8  -1   3   52.66    4.38
   8  -1   4   56.88    4.97
   8  -1   5   52.29    5.20
   8   0  -9  622.23   18.58
   8   0  -9  668.57   19.84
   8   0  -8  900.23   22.20
   8   0  -8  916.55   23.11
   8   0  -7  687.41   18.51
   8   0  -7  708.67   19.67
   8   0  -6  737.13   19.82
   8   0  -1  570.66   10.48
   8   0   0  656.90   13.16
   8   0   1  601.56   13.71
   8   0   2 1509.71   27.05
   8   0   3  999.35   21.95
   8   0   4  715.75   19.03
   8   1  -9   18.80    3.56
   8   1  -9   23.62    3.89
   8   1  -8   91.80    6.70
   8   1  -8  111.61    7.52
   8   1  -1  507.24   10.62
   8   1   0  154.66    6.14
   8   1   1  183.91    7.41
   8   1   2  182.17    8.12
   8   1   3  215.11    9.53
   8   2  -1 1446.53   23.55
   8   2   0  655.81   14.98
   8   2   1 1059.01   21.78
   8   2   2  836.48   20.00
   8   3  -1  347.15   10.22
   8   3   0  214.88    8.58
   8   3   1  117.86    6.86
   9  -5  -3  671.11   19.03
   9  -5  -2  907.25   22.73
   9  -5  -1  903.66   22.09
   9  -4  -5   35.99    4.60
   9  -4  -4   32.01    4.24
   9  -4  -3   70.15    6.08
   9  -4  -2  138.22    8.08
   9  -3  -6  346.44   12.46
   9  -3  -6  363.53   14.07
   9  -3  -5  586.63   18.15
   9  -3  -4  699.95   19.90
   9  -3  -3  338.23   13.08
   9  -2  -7  111.60    7.25
   9  -2  -7  121.06    8.24
   9  -2  -6  205.07   10.69
   9  -2  -5  220.99   10.84
   9  -2  -4  261.45   11.57
   9  -1  -7  374.27   14.57
   9  -1  -6  312.52   13.16
   9   0  -8    6.89    2.60
   0   0   0    0.00    0.00


_computing_structure_solution     'SHELXT 2018/2 (Sheldrick, 2018)'
;
_shelx_hkl_checksum              68987
loop_
_space_group_symop_operation_xyz
'x, y, z'
'-x, -y, -z'
loop_
_atom_site_label
_atom_site_type_symbol
_atom_site_fract_x
_atom_site_fract_y
_atom_site_fract_z
_atom_site_U_iso_or_equiv
_atom_site_adp_type
_atom_site_occupancy
_atom_site_site_symmetry_order
_atom_site_calc_flag
_atom_site_refinement_flags_posn
_atom_site_refinement_flags_adp
_atom_site_refinement_flags_occupancy
_atom_site_disorder_assembly
_atom_site_disorder_group
Fe1 Fe 0.500000 0.000000 0.500000 0.00955(8) Uani 1 2 d S . P . .
O1 O 0.64500(16) 0.23165(16) 0.89194(15) 0.0226(3) Uani 1 1 d . . . . .
Sb1 Sb 0.000000 0.500000 0.500000 0.01335(6) Uani 1 2 d S . P . .
F1 F -0.05685(15) 0.26458(14) 0.34169(13) 0.0301(3) Uani 1 1 d . . . . .
F2 F 0.07617(12) 0.40238(14) 0.64016(13) 0.0236(2) Uani 1 1 d . . . . .
F3 F 0.23325(12) 0.53551(17) 0.47923(16) 0.0301(3) Uani 1 1 d . . . . .
C1 C 0.44625(19) 0.2152(2) 0.67186(19) 0.0124(3) Uani 1 1 d . . . . .
C2 C 0.42256(18) 0.2496(2) 0.53892(19) 0.0124(3) Uani 1 1 d . . . . .
H2 H 0.487320 0.350497 0.531221 0.015 Uiso 1 1 calc R U . . .
C3 C 0.28605(19) 0.1076(2) 0.42034(19) 0.0142(3) Uani 1 1 d . . . . .
H3 H 0.243701 0.096435 0.319097 0.017 Uiso 1 1 calc R U . . .
C4 C 0.22320(19) -0.0152(2) 0.4784(2) 0.0155(3) Uani 1 1 d . . . . .
H4 H 0.130945 -0.122410 0.423120 0.019 Uiso 1 1 calc R U . . .
C5 C 0.32172(19) 0.0495(2) 0.6330(2) 0.0143(3) Uani 1 1 d . . . . .
H5 H 0.307775 -0.006946 0.699465 0.017 Uiso 1 1 calc R U . . .
C6 C 0.5829(2) 0.3174(2) 0.82374(19) 0.0144(3) Uani 1 1 d . . . . .
C7 C 0.64033(19) 0.5190(2) 0.88383(18) 0.0133(3) Uani 1 1 d . . . . .
C8 C 0.7998(2) 0.6050(3) 1.0005(2) 0.0205(4) Uani 1 1 d . . . . .
H8 H 0.866023 0.535488 1.041268 0.025 Uiso 1 1 calc R U . . .
C9 C 0.8610(2) 0.7919(3) 1.0563(2) 0.0256(4) Uani 1 1 d . . . . .
H9 H 0.971202 0.849933 1.133650 0.031 Uiso 1 1 calc R U . . .
C10 C 0.7628(2) 0.8947(2) 1.0003(2) 0.0237(4) Uani 1 1 d . . . . .
H10 H 0.806477 1.022582 1.038001 0.028 Uiso 1 1 calc R U . . .
C11 C 0.6012(2) 0.8114(2) 0.8897(2) 0.0200(3) Uani 1 1 d . . . . .
H11 H 0.531876 0.882795 0.854025 0.024 Uiso 1 1 calc R U . . .
C12 C 0.5397(2) 0.6233(2) 0.83030(19) 0.0156(3) Uani 1 1 d . . . . .
H12 H 0.429122 0.566066 0.753348 0.019 Uiso 1 1 calc R U . . .
loop_
_atom_site_aniso_label
_atom_site_aniso_U_11
_atom_site_aniso_U_22
_atom_site_aniso_U_33
_atom_site_aniso_U_23
_atom_site_aniso_U_13
_atom_site_aniso_U_12
Fe1 0.00925(13) 0.00826(15) 0.01092(19) 0.00355(14) 0.00360(12) 0.00126(10)
O1 0.0331(6) 0.0175(6) 0.0172(7) 0.0085(5) 0.0023(5) 0.0091(5)
Sb1 0.00755(7) 0.01178(9) 0.02112(11) 0.00891(8) 0.00197(6) -0.00016(5)
F1 0.0395(6) 0.0151(5) 0.0275(7) 0.0042(5) 0.0047(5) -0.0002(4)
F2 0.0207(4) 0.0247(5) 0.0289(6) 0.0184(5) 0.0012(4) 0.0022(4)
F3 0.0121(4) 0.0394(7) 0.0517(8) 0.0300(6) 0.0133(5) 0.0061(4)
C1 0.0137(6) 0.0100(7) 0.0145(8) 0.0040(6) 0.0070(6) 0.0053(5)
C2 0.0126(6) 0.0110(7) 0.0154(8) 0.0061(6) 0.0051(6) 0.0043(5)
C3 0.0121(6) 0.0151(7) 0.0151(8) 0.0063(7) 0.0027(6) 0.0045(5)
C4 0.0103(6) 0.0136(7) 0.0223(9) 0.0063(7) 0.0063(6) 0.0029(5)
C5 0.0145(6) 0.0130(7) 0.0186(9) 0.0071(7) 0.0094(6) 0.0043(5)
C6 0.0170(7) 0.0140(7) 0.0135(8) 0.0051(6) 0.0069(6) 0.0054(5)
C7 0.0152(6) 0.0127(7) 0.0114(8) 0.0035(6) 0.0055(6) 0.0029(5)
C8 0.0178(7) 0.0232(9) 0.0163(9) 0.0064(8) 0.0011(7) 0.0027(6)
C9 0.0213(8) 0.0252(9) 0.0188(9) 0.0033(8) -0.0010(7) -0.0053(7)
C10 0.0331(9) 0.0143(8) 0.0183(10) 0.0020(8) 0.0107(8) -0.0041(7)
C11 0.0304(8) 0.0146(8) 0.0174(9) 0.0073(7) 0.0092(7) 0.0063(6)
C12 0.0174(7) 0.0142(7) 0.0127(8) 0.0037(7) 0.0029(6) 0.0029(6)
loop_
_atom_type_symbol
_atom_type_description
_atom_type_scat_dispersion_real
_atom_type_scat_dispersion_imag
_atom_type_scat_source
C C 0.0033 0.0016 'International Tables Vol C Tables 4.2.6.8 and 6.1.1.4'
H H 0.0000 0.0000 'International Tables Vol C Tables 4.2.6.8 and 6.1.1.4'
F F 0.0171 0.0103 'International Tables Vol C Tables 4.2.6.8 and 6.1.1.4'
Fe Fe 0.3463 0.8444 'International Tables Vol C Tables 4.2.6.8 and 6.1.1.4'
O O 0.0106 0.0060 'International Tables Vol C Tables 4.2.6.8 and 6.1.1.4'
Sb Sb -0.5866 1.5461 'International Tables Vol C Tables 4.2.6.8 and 6.1.1.4'
loop_
_geom_angle_atom_site_label_1
_geom_angle_atom_site_label_2
_geom_angle_atom_site_label_3
_geom_angle
_geom_angle_site_symmetry_1
_geom_angle_site_symmetry_3
_geom_angle_publ_flag
C1 Fe1 C1 180.0 . 2_656 ?
C1 Fe1 C5 139.41(6) . 2_656 ?
C1 Fe1 C5 40.59(6) 2_656 2_656 ?
C1 Fe1 C5 40.59(6) . . ?
C1 Fe1 C5 139.41(6) 2_656 . ?
C5 Fe1 C5 180.0 2_656 . ?
C1 Fe1 C2 40.03(6) . . ?
C1 Fe1 C2 139.97(6) 2_656 . ?
C5 Fe1 C2 112.84(6) 2_656 . ?
C5 Fe1 C2 67.16(6) . . ?
C1 Fe1 C2 139.97(6) . 2_656 ?
C1 Fe1 C2 40.03(6) 2_656 2_656 ?
C5 Fe1 C2 67.16(6) 2_656 2_656 ?
C5 Fe1 C2 112.84(6) . 2_656 ?
C2 Fe1 C2 180.0 . 2_656 ?
C1 Fe1 C4 112.94(6) . 2_656 ?
C1 Fe1 C4 67.06(6) 2_656 2_656 ?
C5 Fe1 C4 39.61(7) 2_656 2_656 ?
C5 Fe1 C4 140.39(7) . 2_656 ?
C2 Fe1 C4 113.76(6) . 2_656 ?
C2 Fe1 C4 66.24(6) 2_656 2_656 ?
C1 Fe1 C4 67.06(6) . . ?
C1 Fe1 C4 112.94(6) 2_656 . ?
C5 Fe1 C4 140.39(7) 2_656 . ?
C5 Fe1 C4 39.61(7) . . ?
C2 Fe1 C4 66.24(6) . . ?
C2 Fe1 C4 113.76(6) 2_656 . ?
C4 Fe1 C4 180.0 2_656 . ?
C1 Fe1 C3 113.30(6) . 2_656 ?
C1 Fe1 C3 66.70(6) 2_656 2_656 ?
C5 Fe1 C3 66.47(6) 2_656 2_656 ?
C5 Fe1 C3 113.53(6) . 2_656 ?
C2 Fe1 C3 140.76(6) . 2_656 ?
C2 Fe1 C3 39.24(6) 2_656 2_656 ?
C4 Fe1 C3 39.23(6) 2_656 2_656 ?
C4 Fe1 C3 140.77(6) . 2_656 ?
C1 Fe1 C3 66.70(6) . . ?
C1 Fe1 C3 113.30(6) 2_656 . ?
C5 Fe1 C3 113.53(6) 2_656 . ?
C5 Fe1 C3 66.47(6) . . ?
C2 Fe1 C3 39.24(6) . . ?
C2 Fe1 C3 140.76(6) 2_656 . ?
C4 Fe1 C3 140.76(6) 2_656 . ?
C4 Fe1 C3 39.24(6) . . ?
C3 Fe1 C3 180.0 2_656 . ?
F3 Sb1 F3 180.00(9) 2_566 . ?
F3 Sb1 F1 90.77(6) 2_566 2_566 ?
F3 Sb1 F1 89.22(6) . 2_566 ?
F3 Sb1 F1 89.22(6) 2_566 . ?
F3 Sb1 F1 90.78(5) . . ?
F1 Sb1 F1 180.0 2_566 . ?
F3 Sb1 F2 89.96(5) 2_566 2_566 ?
F3 Sb1 F2 90.04(5) . 2_566 ?
F1 Sb1 F2 89.33(5) 2_566 2_566 ?
F1 Sb1 F2 90.67(5) . 2_566 ?
F3 Sb1 F2 90.04(5) 2_566 . ?
F3 Sb1 F2 89.96(5) . . ?
F1 Sb1 F2 90.67(5) 2_566 . ?
F1 Sb1 F2 89.33(5) . . ?
F2 Sb1 F2 180.0 2_566 . ?
C2 C1 C5 107.32(14) . . ?
C2 C1 C6 129.01(13) . . ?
C5 C1 C6 123.48(14) . . ?
C2 C1 Fe1 71.10(9) . . ?
C5 C1 Fe1 69.76(9) . . ?
C6 C1 Fe1 120.56(10) . . ?
C3 C2 C1 108.24(13) . . ?
C3 C2 Fe1 71.24(8) . . ?
C1 C2 Fe1 68.87(8) . . ?
C3 C2 H2 125.9 . . ?
C1 C2 H2 125.9 . . ?
Fe1 C2 H2 125.6 . . ?
C2 C3 C4 108.28(14) . . ?
C2 C3 Fe1 69.52(8) . . ?
C4 C3 Fe1 69.99(8) . . ?
C2 C3 H3 125.9 . . ?
C4 C3 H3 125.9 . . ?
Fe1 C3 H3 126.2 . . ?
C5 C4 C3 108.12(13) . . ?
C5 C4 Fe1 68.67(8) . . ?
C3 C4 Fe1 70.78(8) . . ?
C5 C4 H4 125.9 . . ?
C3 C4 H4 125.9 . . ?
Fe1 C4 H4 126.2 . . ?
C4 C5 C1 108.05(13) . . ?
C4 C5 Fe1 71.72(9) . . ?
C1 C5 Fe1 69.65(9) . . ?
C4 C5 H5 126.0 . . ?
C1 C5 H5 126.0 . . ?
Fe1 C5 H5 124.3 . . ?
O1 C6 C7 122.33(15) . . ?
O1 C6 C1 118.75(14) . . ?
C7 C6 C1 118.91(13) . . ?
C12 C7 C8 119.67(15) . . ?
C12 C7 C6 122.41(14) . . ?
C8 C7 C6 117.91(14) . . ?
C9 C8 C7 119.74(16) . . ?
C9 C8 H8 120.1 . . ?
C7 C8 H8 120.1 . . ?
C10 C9 C8 120.42(16) . . ?
C10 C9 H9 119.8 . . ?
C8 C9 H9 119.8 . . ?
C11 C10 C9 120.00(16) . . ?
C11 C10 H10 120.0 . . ?
C9 C10 H10 120.0 . . ?
C10 C11 C12 120.23(15) . . ?
C10 C11 H11 119.9 . . ?
C12 C11 H11 119.9 . . ?
C11 C12 C7 119.85(15) . . ?
C11 C12 H12 120.1 . . ?
C7 C12 H12 120.1 . . ?
loop_
_geom_bond_atom_site_label_1
_geom_bond_atom_site_label_2
_geom_bond_distance
_geom_bond_site_symmetry_2
_geom_bond_publ_flag
Fe1 C1 2.0643(16) . ?
Fe1 C1 2.0643(16) 2_656 ?
Fe1 C5 2.0658(15) 2_656 ?
Fe1 C5 2.0659(15) . ?
Fe1 C2 2.0938(14) . ?
Fe1 C2 2.0938(14) 2_656 ?
Fe1 C4 2.1059(14) 2_656 ?
Fe1 C4 2.1059(14) . ?
Fe1 C3 2.1162(14) 2_656 ?
Fe1 C3 2.1162(14) . ?
O1 C6 1.2149(19) . ?
Sb1 F3 1.8712(9) 2_566 ?
Sb1 F3 1.8712(9) . ?
Sb1 F1 1.8717(11) 2_566 ?
Sb1 F1 1.8717(11) . ?
Sb1 F2 1.8736(9) 2_566 ?
Sb1 F2 1.8736(9) . ?
C1 C2 1.424(2) . ?
C1 C5 1.433(2) . ?
C1 C6 1.500(2) . ?
C2 C3 1.414(2) . ?
C2 H2 0.9500 . ?
C3 C4 1.418(2) . ?
C3 H3 0.9500 . ?
C4 C5 1.414(2) . ?
C4 H4 0.9500 . ?
C5 H5 0.9500 . ?
C6 C7 1.486(2) . ?
C7 C12 1.391(2) . ?
C7 C8 1.397(2) . ?
C8 C9 1.384(3) . ?
C8 H8 0.9500 . ?
C9 C10 1.384(3) . ?
C9 H9 0.9500 . ?
C10 C11 1.381(3) . ?
C10 H10 0.9500 . ?
C11 C12 1.390(2) . ?
C11 H11 0.9500 . ?
C12 H12 0.9500 . ?
loop_
_geom_torsion_atom_site_label_1
_geom_torsion_atom_site_label_2
_geom_torsion_atom_site_label_3
_geom_torsion_atom_site_label_4
_geom_torsion
_geom_torsion_site_symmetry_1
_geom_torsion_site_symmetry_2
_geom_torsion_site_symmetry_3
_geom_torsion_site_symmetry_4
_geom_torsion_publ_flag
C5 C1 C2 C3 -0.04(17) . . . . ?
C6 C1 C2 C3 175.11(14) . . . . ?
Fe1 C1 C2 C3 60.64(10) . . . . ?
C5 C1 C2 Fe1 -60.67(10) . . . . ?
C6 C1 C2 Fe1 114.47(15) . . . . ?
C1 C2 C3 C4 0.31(17) . . . . ?
Fe1 C2 C3 C4 59.47(11) . . . . ?
C1 C2 C3 Fe1 -59.15(10) . . . . ?
C2 C3 C4 C5 -0.47(17) . . . . ?
Fe1 C3 C4 C5 58.70(10) . . . . ?
C2 C3 C4 Fe1 -59.18(10) . . . . ?
C3 C4 C5 C1 0.45(17) . . . . ?
Fe1 C4 C5 C1 60.47(10) . . . . ?
C3 C4 C5 Fe1 -60.02(11) . . . . ?
C2 C1 C5 C4 -0.26(17) . . . . ?
C6 C1 C5 C4 -175.73(13) . . . . ?
Fe1 C1 C5 C4 -61.79(11) . . . . ?
C2 C1 C5 Fe1 61.53(10) . . . . ?
C6 C1 C5 Fe1 -113.94(14) . . . . ?
C2 C1 C6 O1 -143.10(16) . . . . ?
C5 C1 C6 O1 31.3(2) . . . . ?
Fe1 C1 C6 O1 -53.44(18) . . . . ?
C2 C1 C6 C7 35.6(2) . . . . ?
C5 C1 C6 C7 -149.99(14) . . . . ?
Fe1 C1 C6 C7 125.24(12) . . . . ?
O1 C6 C7 C12 -162.35(16) . . . . ?
C1 C6 C7 C12 19.0(2) . . . . ?
O1 C6 C7 C8 16.3(2) . . . . ?
C1 C6 C7 C8 -162.29(15) . . . . ?
C12 C7 C8 C9 -3.3(3) . . . . ?
C6 C7 C8 C9 177.99(16) . . . . ?
C7 C8 C9 C10 1.8(3) . . . . ?
C8 C9 C10 C11 1.0(3) . . . . ?
C9 C10 C11 C12 -2.3(3) . . . . ?
C10 C11 C12 C7 0.7(3) . . . . ?
C8 C7 C12 C11 2.1(2) . . . . ?
C6 C7 C12 C11 -179.29(15) . . . . ?
