#------------------------------------------------------------------------------
#$Date: 2021-09-06 14:21:20 +0300 (Mon, 06 Sep 2021) $
#$Revision: 268791 $
#$URL: file:///home/coder/svn-repositories/cod/cif/7/70/77/7707726.cif $
#------------------------------------------------------------------------------
#
# This file is available in the Crystallography Open Database (COD),
# http://www.crystallography.net/
#
# All data on this site have been placed in the public domain by the
# contributors.
#
data_7707726
loop_
_publ_author_name
'de Campos, Nath\'alia R'
'Simosono, Cintia A.'
'Landre Rosa, Iara M.'
'da Silva, Rafaela M. R.'
'Doriguetto, Ant\^onio C'
'do Pim, Walace D.'
'Gomes Sim\~oes, Tatiana R'
'Valdo, Ana Karoline S. M.'
'Martins, Felipe T.'
'Sarmiento, Charlie V.'
'Nunes, Wallace C.'
'Guedes, Guilherme P.'
'Pedroso, Emerson F.'
'Pereira, Cynthia L. M.'
'Stumpf, Humberto O.'
'Lloret, Francesc'
'Julve, Miguel'
'Marinho, Maria Vanda'
_publ_section_title
;
 Building-up host-guest helicate motifs and chains: a magneto-structural
 study of new field-induced cobalt-based single-ion magnets.
;
_journal_issue                   31
_journal_name_full
'Dalton transactions (Cambridge, England : 2003)'
_journal_page_first              10707
_journal_page_last               10728
_journal_paper_doi               10.1039/d1dt01693h
_journal_volume                  50
_journal_year                    2021
_chemical_formula_moiety         'C10 H8 Cl2 Co N2 S2'
_chemical_formula_sum            'C10 H8 Cl2 Co N2 S2'
_chemical_formula_weight         350.13
_space_group_crystal_system      triclinic
_space_group_IT_number           2
_space_group_name_Hall           '-P 1'
_space_group_name_H-M_alt        'P -1'
_atom_sites_solution_hydrogens   geom
_atom_sites_solution_primary     difmap
_audit_creation_method           SHELXL-2016/6
_audit_update_record
;
2020-03-28 deposited with the CCDC.	2021-06-28 downloaded from the CCDC.
;
_cell_angle_alpha                94.45(2)
_cell_angle_beta                 107.185(15)
_cell_angle_gamma                114.890(19)
_cell_formula_units_Z            2
_cell_length_a                   7.815(4)
_cell_length_b                   8.146(4)
_cell_length_c                   12.074(5)
_cell_measurement_reflns_used    8286
_cell_measurement_temperature    293(2)
_cell_measurement_theta_max      26.37
_cell_measurement_theta_min      2.84
_cell_volume                     647.8(6)
_computing_cell_refinement       'APEX3 v2017.3-0 (Bruker AXS)'
_computing_data_collection       'Bruker Instrument Service vV6.2.6'
_computing_data_reduction        'SAINT V8.38A (Bruker AXS Inc., 2017)'
_computing_structure_refinement  'SHELXL-2016/6 (Sheldrick, 2016)'
_computing_structure_solution    'SHELXT 2014/5 (Sheldrick, 2014)'
_diffrn_ambient_temperature      293(2)
_diffrn_measured_fraction_theta_full 0.998
_diffrn_measured_fraction_theta_max 0.998
_diffrn_measurement_device       'Bruker D8 Venture'
_diffrn_measurement_method       '\f and \w scans'
_diffrn_radiation_type           MoK\a
_diffrn_radiation_wavelength     0.71073
_diffrn_reflns_av_R_equivalents  0.0390
_diffrn_reflns_av_unetI/netI     0.0208
_diffrn_reflns_Laue_measured_fraction_full 0.998
_diffrn_reflns_Laue_measured_fraction_max 0.998
_diffrn_reflns_limit_h_max       9
_diffrn_reflns_limit_h_min       -9
_diffrn_reflns_limit_k_max       9
_diffrn_reflns_limit_k_min       -9
_diffrn_reflns_limit_l_max       14
_diffrn_reflns_limit_l_min       -14
_diffrn_reflns_number            17413
_diffrn_reflns_point_group_measured_fraction_full 0.998
_diffrn_reflns_point_group_measured_fraction_max 0.998
_diffrn_reflns_theta_full        25.025
_diffrn_reflns_theta_max         25.025
_diffrn_reflns_theta_min         2.835
_exptl_absorpt_coefficient_mu    2.035
_exptl_absorpt_correction_T_max  0.7454
_exptl_absorpt_correction_T_min  0.6506
_exptl_absorpt_correction_type   multi-scan
_exptl_absorpt_process_details
;
SADABS-2016/2 - Bruker AXS area detector scaling and absorption correction
;
_exptl_crystal_colour            pink
_exptl_crystal_density_diffrn    1.795
_exptl_crystal_description       block
_exptl_crystal_F_000             350
_exptl_crystal_size_max          0.377
_exptl_crystal_size_mid          0.169
_exptl_crystal_size_min          0.134
_refine_diff_density_max         0.453
_refine_diff_density_min         -0.268
_refine_diff_density_rms         0.064
_refine_ls_extinction_method     none
_refine_ls_goodness_of_fit_ref   1.077
_refine_ls_hydrogen_treatment    constr
_refine_ls_matrix_type           full
_refine_ls_number_parameters     154
_refine_ls_number_reflns         2286
_refine_ls_number_restraints     0
_refine_ls_restrained_S_all      1.077
_refine_ls_R_factor_all          0.0339
_refine_ls_R_factor_gt           0.0266
_refine_ls_shift/su_max          0.000
_refine_ls_shift/su_mean         0.000
_refine_ls_structure_factor_coef Fsqd
_refine_ls_weighting_details
'w=1/[\s^2^(Fo^2^)+(0.0295P)^2^+0.6380P] where P=(Fo^2^+2Fc^2^)/3'
_refine_ls_weighting_scheme      calc
_refine_ls_wR_factor_gt          0.0648
_refine_ls_wR_factor_ref         0.0680
_reflns_Friedel_coverage         0.000
_reflns_number_gt                2013
_reflns_number_total             2286
_reflns_threshold_expression     'I > 2\s(I)'
_cod_data_source_file            d1dt01693h2.cif
_cod_data_source_block           shelx
_cod_depositor_comments
'Adding full bibliography for 7707725--7707729.cif.'
_cod_original_cell_volume        647.7(5)
_cod_database_code               7707726
_shelx_shelxl_version_number     2016/6
_shelx_space_group_comment
;
The symmetry employed for this shelxl refinement is uniquely defined
by the following loop, which should always be used as a source of
symmetry information in preference to the above space-group names.
They are only intended as comments.
;
_shelx_estimated_absorpt_t_min   0.514
_shelx_estimated_absorpt_t_max   0.772
_shelx_res_file
;
TITL mo_PREI02_0m_a_a.res in P-1
    shelx.res
    created by SHELXL-2016/6 at 11:42:26 on 31-Jan-2019
CELL  0.71073   7.8149   8.1455  12.0737   94.448  107.185  114.890
ZERR     2.00   0.0036   0.0039   0.0053    0.024    0.015    0.019
LATT   1
SFAC  C    H    O    S    CL   CO   N
UNIT  20 16 0 4 4 2 4
MERG   2
HTAB C1 Cl2
EQIV $1 -x, -y+1, -z+2
HTAB C2 Cl2_$1
EQIV $2 x, y+1, z
HTAB C4 Cl1_$2
EQIV $3 -x, -y, -z+1
HTAB C8 Cl2_$3
FMAP   2
PLAN   20
SIZE     0.134   0.169   0.377
ACTA
BOND   $H
CONF
L.S.   4
TEMP    20.00
WGHT    0.029500    0.638000
FVAR       0.98562
CO1   6    0.298857    0.493875    0.772302    11.00000    0.02904    0.02082 =
         0.02636    0.00478    0.01046    0.01109
CL1   5    0.603515    0.518120    0.868665    11.00000    0.03186    0.03678 =
         0.04002    0.01113    0.00771    0.01495
CL2   5    0.023252    0.243705    0.770360    11.00000    0.03613    0.02646 =
         0.03783    0.00640    0.01538    0.00680
S1    4    0.494538    0.898636    0.723965    11.00000    0.02946    0.03132 =
         0.04395    0.00607    0.01510    0.00625
S2    4    0.282588    0.777796    0.555201    11.00000    0.05026    0.03907 =
         0.03613    0.01659    0.01624    0.02571
N1    7    0.258882    0.706550    0.837762    11.00000    0.02732    0.02375 =
         0.02965    0.00598    0.00859    0.01142
N2    7    0.262464    0.445980    0.594589    11.00000    0.02893    0.02891 =
         0.02698    0.00652    0.01130    0.01143
C1    1    0.156447    0.687682    0.911785    11.00000    0.03422    0.03183 =
         0.03358    0.00565    0.01323    0.01347
AFIX  43
H1    2    0.091369    0.571047    0.926420    11.00000   -1.20000
AFIX   0
C2    1    0.144275    0.835459    0.967018    11.00000    0.03793    0.04713 =
         0.03296    0.00247    0.01095    0.02471
AFIX  43
H2    2    0.073932    0.818733    1.018800    11.00000   -1.20000
AFIX   0
C3    1    0.237476    1.006982    0.944278    11.00000    0.04385    0.03804 =
         0.03588   -0.00359    0.00483    0.02689
AFIX  43
H3    2    0.231886    1.108336    0.980979    11.00000   -1.20000
AFIX   0
C4    1    0.339834    1.027920    0.866309    11.00000    0.03782    0.02527 =
         0.03669    0.00407    0.00331    0.01590
AFIX  43
H4    2    0.402484    1.142817    0.848950    11.00000   -1.20000
AFIX   0
C5    1    0.347225    0.875917    0.815018    11.00000    0.02532    0.02220 =
         0.02723    0.00160    0.00538    0.00824
C6    1    0.261533    0.553570    0.516923    11.00000    0.02223    0.03380 =
         0.03126    0.00922    0.01052    0.01214
C7    1    0.237868    0.274717    0.555768    11.00000    0.03928    0.03410 =
         0.03314    0.00506    0.01365    0.01701
AFIX  43
H7    2    0.241993    0.200040    0.609959    11.00000   -1.20000
AFIX   0
C8    1    0.207110    0.205237    0.440497    11.00000    0.03830    0.03946 =
         0.03653   -0.00387    0.01319    0.01511
AFIX  43
H8    2    0.187895    0.085428    0.416763    11.00000   -1.20000
AFIX   0
C9    1    0.205351    0.316675    0.360988    11.00000    0.03748    0.05992 =
         0.02743   -0.00004    0.01238    0.02148
AFIX  43
H9    2    0.184739    0.272957    0.282266    11.00000   -1.20000
AFIX   0
C10   1    0.234346    0.494022    0.398516    11.00000    0.03668    0.05447 =
         0.02760    0.01397    0.01324    0.02191
AFIX  43
H10   2    0.235744    0.572075    0.346135    11.00000   -1.20000
AFIX   0
HKLF    4  1.0  1.00  0.00  0.00  0.00  1.00  0.00  0.00  0.00  1.00




REM  mo_PREI02_0m_a_a.res in P-1
REM R1 =  0.0266 for    2013 Fo > 4sig(Fo)  and  0.0339 for all    2286 data
REM    154 parameters refined using      0 restraints

END

WGHT      0.0295      0.6380

REM Highest difference peak  0.453,  deepest hole -0.268,  1-sigma level  0.064
Q1    1   0.3166  1.1141  0.7784  11.00000  0.05    0.45
Q2    1   0.2943  0.6774  0.7812  11.00000  0.05    0.43
Q3    1   0.2950  0.2835  0.7732  11.00000  0.05    0.39
Q4    1   0.2780  0.9856  0.5590  11.00000  0.05    0.32
Q5    1   0.3987  1.2576  1.1212  11.00000  0.05    0.30
Q6    1   0.2968  0.8956  0.7735  11.00000  0.05    0.26
Q7    1   0.6039  0.3461  0.8649  11.00000  0.05    0.26
Q8    1   0.0097  0.4954  0.7763  11.00000  0.05    0.25
Q9    1   0.2873  0.3800  0.5670  11.00000  0.05    0.24
Q10   1   0.2619  0.5041  0.5622  11.00000  0.05    0.24
Q11   1   0.4156  0.8864  0.8001  11.00000  0.05    0.24
Q12   1   0.3351  0.9419  0.8465  11.00000  0.05    0.23
Q13   1   0.2888  0.1878  0.5550  11.00000  0.05    0.22
Q14   1   0.4971  1.0563  0.7271  11.00000  0.05    0.22
Q15   1   0.5088  0.6440  0.7305  11.00000  0.05    0.22
Q16   1   0.2862  0.7936  0.8181  11.00000  0.05    0.21
Q17   1  -0.0030  0.1059  0.2344  11.00000  0.05    0.21
Q18   1   0.3747  0.8533  0.6171  11.00000  0.05    0.21
Q19   1   0.2993  0.6381  0.5406  11.00000  0.05    0.21
Q20   1   0.6192  1.1423  0.8866  11.00000  0.05    0.21
;
_shelx_res_checksum              12263
_shelx_hkl_file
;
  -1   0   0 1269.17   34.60
  -1   0   0 1273.37   34.30
  -1   0   0 1330.77   33.30
  -1   0   0 1263.77   34.00
   1   0   0 1244.78   35.50
   1   0   0 1277.37   34.20
   1   0   0 1245.38   34.50
   1   0   0 1343.77   33.40
   1   0   0 1250.47   34.00
   1   0   0 1265.07   35.70
  -2   0   0 6614.94  174.98
  -2   0   0 6717.53  173.98
  -2   0   0 6851.61  173.98
  -2   0   0 6486.95  176.88
   2   0   0 6645.74  173.88
   2   0   0 6948.90  174.98
   2   0   0 6589.04  177.48
   2   0   0 7193.68  172.58
   2   0   0 6753.72  175.18
   2   0   0 6739.03  177.08
  -3   0   0 1436.16   36.30
  -3   0   0 1341.97   40.80
  -3   0   0 1317.87   43.60
  -3   0   0 1332.87   39.00
  -3   0   0 1313.17   39.10
   3   0   0 1346.27   40.20
   3   0   0 1256.07   43.50
   3   0   0 1384.76   39.30
   3   0   0 1307.27   34.80
   3   0   0 1440.56   37.30
   3   0   0 1240.98   42.70
  -4   0   0 2492.15   70.09
  -4   0   0 2543.65   69.79
  -4   0   0 2555.54   72.59
  -4   0   0 2545.45   76.99
   4   0   0 2512.15   69.99
   4   0   0 2477.35   71.29
   4   0   0 2394.06   76.79
   4   0   0 2401.76   75.79
  -5   0   0  286.97   15.80
  -5   0   0  312.67   21.70
  -5   0   0  289.47   15.00
  -5   0   0  297.27   18.50
   5   0   0  289.07   21.30
   5   0   0  291.27   17.20
   5   0   0  300.57   21.80
   5   0   0  316.97   15.60
  -6   0   0   29.10   12.70
  -6   0   0   22.00    9.90
  -6   0   0   39.80   10.90
  -6   0   0   34.10    7.60
   6   0   0   32.40    9.70
   6   0   0   27.40    8.10
  -7   0   0  137.39   16.90
  -7   0   0  119.39   18.10
  -7   0   0  105.19   21.70
  -7   0   0  120.39   14.10
   7   0   0  131.99   28.70
   7   0   0  104.99   15.70
   8  -1   0   37.10   19.70
   8  -1   0   40.20   11.90
   8  -1   0   43.90    9.40
   8  -1   0   27.70   27.40
  -8   1   0   68.19   21.40
  -8   1   0   11.50   15.60
  -8   1   0   39.40   10.80
  -8   1   0   31.90    6.40
   7  -1   0  238.28   14.90
   7  -1   0  225.28   27.40
   7  -1   0  239.68   17.50
  -7   1   0  240.68   12.30
  -7   1   0  245.08   22.30
  -7   1   0  219.18   22.80
  -7   1   0  234.68   13.70
   6  -1   0 1638.24   51.59
   6  -1   0 1722.63   63.29
   6  -1   0 1728.93   64.59
   6  -1   0 1681.63   49.60
   6  -1   0 1668.03   61.19
   6  -1   0 1639.54   45.10
  -6   1   0 1690.63   49.10
  -6   1   0 1734.13   49.00
  -6   1   0 1831.82   58.99
  -6   1   0 1762.72   63.49
  -6   1   0 1610.04   47.80
   5  -1   0  104.29    7.70
   5  -1   0  129.19   15.10
   5  -1   0  140.99   13.70
   5  -1   0  104.39   15.40
   5  -1   0   96.79    8.80
  -5   1   0  103.79    7.90
  -5   1   0  105.79   13.30
  -5   1   0   97.69    6.80
  -5   1   0  110.89    9.00
  -5   1   0   97.19   14.50
   4  -1   0   80.69   10.20
   4  -1   0   74.39    6.60
   4  -1   0   87.69   10.40
   4  -1   0   76.09   10.30
  -4   1   0   78.59   11.20
  -4   1   0   73.59    4.90
  -4   1   0   67.49    5.50
  -4   1   0   67.29    9.20
   3  -1   0 1082.19   36.40
   3  -1   0 1109.69   35.90
   3  -1   0 1075.39   34.70
   3  -1   0 1044.80   30.10
  -3   1   0 1075.89   36.20
  -3   1   0 1110.49   34.90
  -3   1   0 1058.49   29.50
  -3   1   0 1091.99   32.70
  -3   1   0 1047.40   29.10
   2  -1   0 5692.53  150.68
   2  -1   0 5754.82  150.58
   2  -1   0 5693.03  150.78
   2  -1   0 5573.24  150.18
  -2   1   0 6168.68  149.88
  -2   1   0 5597.44  150.98
  -2   1   0 5731.63  150.48
   1  -1   0   78.89    3.90
   1  -1   0   86.19    5.10
   1  -1   0   76.29    4.50
   1  -1   0   73.89    3.10
   1  -1   0   81.19    4.30
   1  -1   0   80.49    3.30
  -1   1   0   76.59    3.70
  -1   1   0   75.29    3.20
  -1   1   0   84.29    4.80
  -1   1   0   74.49    4.90
   0  -1   0 3263.67   86.39
   0  -1   0 3168.18   84.59
   0  -1   0 3618.74   86.29
   0  -1   0 3050.29   88.09
   0   1   0 3542.95   86.19
   0   1   0 3300.37   86.39
   0   1   0 3191.88   86.59
  -1  -1   0  511.55   18.40
  -1  -1   0  543.85   18.20
  -1  -1   0  571.14   15.40
  -1  -1   0  557.94   18.40
   1   1   0  574.04   15.20
   1   1   0  545.15   18.30
   1   1   0  510.75   18.10
   1   1   0  511.85   18.50
  -2  -1   0 1719.23   52.29
  -2  -1   0 1748.03   51.19
  -2  -1   0 1758.82   50.99
   2   1   0 1795.82   50.89
   2   1   0 1745.43   51.69
   2   1   0 1759.62   52.59
  -3  -1   0 2150.68   62.99
  -3  -1   0 2149.78   61.69
  -3  -1   0 2135.79   62.99
  -3  -1   0 2240.18   66.59
   3   1   0 2158.88   66.39
   3   1   0 2114.69   63.99
   3   1   0 2161.48   62.89
  -4  -1   0   32.20    6.80
  -4  -1   0   26.80    6.80
  -4  -1   0   43.20    8.50
  -4  -1   0   40.20    8.90
   4   1   0   33.50    7.80
   4   1   0   52.19   12.10
   4   1   0   31.00    8.10
  -5  -1   0   57.29   10.60
  -5  -1   0   42.00    9.10
  -5  -1   0   31.20   11.70
  -5  -1   0   43.80    9.50
   5   1   0   39.80   14.80
   5   1   0   48.30    9.90
   5   1   0   23.60    9.80
  -6  -1   0   24.50   11.00
  -6  -1   0  -10.30   11.00
  -6  -1   0    7.20    9.40
  -6  -1   0   -3.90    9.60
   6   1   0    3.20    8.40
   6   1   0    9.40   12.10
  -7  -1   0  517.35   31.10
  -7  -1   0  470.15   27.20
  -7  -1   0  536.05   39.00
   7   1   0  462.55   47.70
   7   1   0  483.85   33.80
   8  -2   0   39.50   29.50
   8  -2   0   -8.90   19.30
   8  -2   0   11.70    5.60
   8  -2   0  -13.40   16.20
   8  -2   0    8.70    6.20
   8  -2   0    6.00    3.00
   8  -2   0   22.30   28.60
  -8   2   0    6.80   17.00
   7  -2   0   10.50    6.20
   7  -2   0  -16.10   17.10
   7  -2   0    2.70    4.10
   7  -2   0  -10.00   13.40
   7  -2   0   -9.80   13.70
   7  -2   0    3.40    5.50
   7  -2   0    0.90   10.60
   7  -2   0  -18.00   16.40
  -7   2   0   -8.90   11.70
  -7   2   0   -2.20    8.00
  -7   2   0   10.00   11.20
   6  -2   0   21.40   12.20
   6  -2   0   28.40   12.80
   6  -2   0    5.10    9.70
   6  -2   0    4.00    6.20
   6  -2   0    8.50    3.50
   6  -2   0   -8.50    6.70
   6  -2   0   18.60    9.60
  -6   2   0   21.20    8.10
  -6   2   0   15.50    9.90
  -6   2   0    3.80    7.50
   5  -2   0  381.96   21.70
   5  -2   0  378.96   12.40
   5  -2   0  390.36   23.20
   5  -2   0  391.66   22.20
   5  -2   0  390.86   20.30
   5  -2   0  375.06   22.10
  -5   2   0  418.26   19.10
  -5   2   0  387.16   22.10
  -5   2   0  379.86   23.10
   4  -2   0  339.97   18.20
   4  -2   0  330.27    9.70
   4  -2   0  286.77   17.80
   4  -2   0  324.57   15.90
   4  -2   0  329.67   17.90
  -4   2   0  308.77   15.90
  -4   2   0  336.87   17.80
   3  -2   0  371.16   16.70
   3  -2   0  368.86   15.00
   3  -2   0  352.76   16.20
   3  -2   0  350.56   10.20
   3  -2   0  354.36   16.80
   3  -2   0  366.86   16.70
   3  -2   0  354.66   10.50
  -3   2   0  357.66   16.90
  -3   2   0  373.96   16.60
   2  -2   0  211.58    7.90
   2  -2   0  219.18    9.50
   2  -2   0  220.48    8.30
   2  -2   0  214.48   10.90
   2  -2   0  211.18   10.40
  -2   2   0  224.68   10.10
  -2   2   0  225.68   11.60
  -2   2   0  214.78    7.80
  -2   2   0  220.28    9.00
   1  -2   0 8377.46  217.28
   1  -2   0 8429.96  216.88
  -1   2   0 8275.07  215.98
  -1   2   0 8166.98  217.08
  -1   2   0 8924.91  219.88
   0  -2   0  746.73   21.40
   0  -2   0  744.33   24.50
   0  -2   0  758.52   25.10
   0   2   0  696.13   21.40
   0   2   0  745.83   25.00
   0   2   0  763.92   23.90
   0   2   0  742.43   24.60
  -1  -2   0 2906.41   75.09
  -1  -2   0 2786.32   78.89
  -1  -2   0 2776.52   78.49
   1   2   0 2783.32   76.89
   1   2   0 2730.43   78.89
   1   2   0 2860.01   74.49
   1   2   0 2691.03   77.99
  -2  -2   0 1191.48   40.30
  -2  -2   0 1231.68   41.30
  -2  -2   0 1217.38   41.00
   2   2   0 1197.88   40.30
   2   2   0 1235.08   41.60
   2   2   0 1261.97   41.00
   2   2   0 1284.27   33.10
  -3  -2   0  281.47   17.80
  -3  -2   0  284.37   17.70
  -3  -2   0  301.37   14.70
  -3  -2   0  274.47   17.00
   3   2   0  279.57   17.20
   3   2   0  273.97   18.80
   3   2   0  265.57   18.00
  -4  -2   0   93.99   13.00
  -4  -2   0  103.89   13.70
  -4  -2   0   81.49   13.50
  -4  -2   0   89.89   11.10
   4   2   0   82.79   17.50
   4   2   0  100.79   14.00
   4   2   0   94.19   12.60
  -5  -2   0  276.27   21.20
  -5  -2   0  301.67   24.60
  -5  -2   0  258.67   22.90
  -5  -2   0  293.27   18.60
   5   2   0  280.47   21.00
   5   2   0  333.47   29.20
   5   2   0  238.18   23.60
  -6  -2   0   35.50   16.90
  -6  -2   0   45.10   14.40
  -6  -2   0   25.80   12.40
   6   2   0   34.50   23.90
   6   2   0   53.39   16.40
   6   2   0   27.30   16.50
   8  -3   0   70.09   26.70
   8  -3   0  127.09   26.40
   8  -3   0   87.69   12.80
   8  -3   0   73.79   19.00
   8  -3   0   80.59   20.50
   8  -3   0  122.09   22.60
  -8   3   0   97.29   14.90
   7  -3   0  788.62   39.90
   7  -3   0  793.32   43.00
   7  -3   0  778.72   39.20
   7  -3   0  772.32   41.80
   7  -3   0  751.52   31.60
   7  -3   0  732.23   35.60
  -7   3   0  731.43   32.20
   6  -3   0  229.58   24.80
   6  -3   0  266.37   23.20
   6  -3   0  259.67   18.00
   6  -3   0  281.27   27.20
   6  -3   0  244.18   18.90
   6  -3   0  257.47   21.70
  -6   3   0  280.77   18.70
   5  -3   0  340.87   20.50
   5  -3   0  331.17   20.70
   5  -3   0  338.67   18.70
   5  -3   0  349.27   21.50
   5  -3   0  367.56   21.60
  -5   3   0  338.37   20.50
  -5   3   0  312.07   18.80
   4  -3   0    1.10    2.20
   4  -3   0    0.40    5.50
   4  -3   0    1.60    3.90
   4  -3   0   -4.70    5.30
   4  -3   0   -0.10    5.90
   4  -3   0    0.70    1.80
   4  -3   0    4.20    5.90
  -4   3   0   -4.00    5.10
   3  -3   0 3014.60   81.99
   3  -3   0 3106.59   85.59
   3  -3   0 3059.59   82.59
   3  -3   0 3147.39   85.19
   3  -3   0 3048.69   87.29
   3  -3   0 3249.48   89.69
  -3   3   0 3078.59   84.19
  -3   3   0 3181.18   86.49
  -3   3   0 3232.48   89.99
  -3   3   0 2985.10   81.59
   2  -3   0   -2.40    2.60
   2  -3   0    3.50    3.40
   2  -3   0    1.10    2.80
   2  -3   0    4.00    3.50
  -2   3   0    4.00    3.30
  -2   3   0    0.90    2.90
  -2   3   0   -1.50    2.90
  -2   3   0    1.40    2.30
  -2   3   0    3.70    5.40
   1  -3   0 2978.80   82.59
   1  -3   0 2814.42   75.29
   1  -3   0 2771.82   90.69
  -1   3   0 3089.59   83.79
  -1   3   0 2979.00   80.29
  -1   3   0 3045.20   82.69
  -1   3   0 2968.40   81.79
   0  -3   0 5787.92  153.48
   0  -3   0 5784.32  154.38
   0   3   0 5556.74  148.29
   0   3   0 5734.23  154.28
   0   3   0 5528.65  152.98
   0   3   0 5885.81  152.18
  -1  -3   0  175.48   13.40
  -1  -3   0  195.08   13.70
   1   3   0  171.98   12.80
   1   3   0  178.68   25.10
   1   3   0  185.38   11.30
  -2  -3   0  987.50   38.30
  -2  -3   0 1051.69   38.30
  -2  -3   0 1026.50   31.80
   2   3   0 1036.30   36.90
   2   3   0 1041.00   30.30
   2   3   0  977.70   38.90
   2   3   0 1029.50   37.90
  -3  -3   0  168.58   16.20
  -3  -3   0  184.58   17.50
  -3  -3   0  164.28   16.60
  -3  -3   0  152.58    8.10
   3   3   0  147.89   15.60
   3   3   0  146.99   17.40
   3   3   0  179.08   17.50
  -4  -3   0   44.50   12.60
  -4  -3   0   58.19   14.20
  -4  -3   0   71.89   13.50
  -4  -3   0   64.59    9.70
   4   3   0   55.99   15.20
   4   3   0   25.90   11.30
   4   3   0   48.30   15.00
  -5  -3   0  269.27   25.40
  -5  -3   0  247.78   19.00
   5   3   0  248.98   23.70
   5   3   0  188.58   27.50
   5   3   0  267.47   30.30
  -6  -3   0   70.59   20.80
  -6  -3   0   62.99   22.50
  -6  -3   0   60.69   18.60
  -6  -3   0   67.99   14.30
   6   3   0   69.39   23.10
   6   3   0   93.59   30.50
   6   3   0   71.39   19.00
   8  -4   0   98.19   26.70
   8  -4   0   96.79   23.20
   8  -4   0   54.09   20.80
   8  -4   0   73.99   16.00
   8  -4   0   83.09   25.30
   8  -4   0   75.89   18.30
  -8   4   0  100.39   17.20
   7  -4   0  697.43   41.40
   7  -4   0  682.13   39.50
   7  -4   0  778.82   34.60
   7  -4   0  713.43   39.60
   7  -4   0  702.13   37.90
   7  -4   0  710.93   34.50
  -7   4   0  717.93   34.70
   6  -4   0  328.97   24.10
   6  -4   0  319.77   23.80
   6  -4   0  322.57   20.60
   6  -4   0  370.06   25.80
   6  -4   0  354.06   24.90
  -6   4   0  325.57   22.70
   5  -4   0    3.10    8.60
   5  -4   0    6.40    7.80
   5  -4   0    5.40    9.20
   5  -4   0   -0.40    6.10
   5  -4   0   13.80    6.20
   5  -4   0    6.90    2.60
   5  -4   0    9.40    2.20
  -5   4   0   10.20    8.50
   4  -4   0  959.20   33.40
   4  -4   0  934.11   35.80
   4  -4   0  969.00   29.90
   4  -4   0  971.90   29.00
   4  -4   0  953.40   33.00
   4  -4   0  963.50   37.90
  -4   4   0  945.31   34.00
  -4   4   0  965.50   28.10
  -4   4   0  984.20   38.40
  -4   4   0  977.90   31.80
  -4   4   0  918.31   28.40
   3  -4   0 2934.41   82.29
   3  -4   0 2881.81   81.39
   3  -4   0 2925.21   80.59
   3  -4   0 3016.10   82.19
   3  -4   0 2895.71   87.09
  -3   4   0 3022.30   83.39
  -3   4   0 2971.10   81.39
  -3   4   0 3050.09   81.89
  -3   4   0 2957.70   88.59
  -3   4   0 2924.01   81.09
   2  -4   0 2157.98   60.89
   2  -4   0 2184.58   63.69
   2  -4   0 2066.89   56.09
   2  -4   0 2058.49   62.29
  -2   4   0 2171.88   62.49
  -2   4   0 2140.09   66.59
  -2   4   0 2156.68   63.29
  -2   4   0 2181.08   60.99
   1  -4   0   21.20    6.70
   1  -4   0   20.90    6.70
  -1   4   0   33.80    7.20
  -1   4   0   36.00    9.50
  -1   4   0   32.60    6.10
  -1   4   0   33.40    7.30
   0  -4   0 5630.14  173.08
   0  -4   0 5656.73  157.18
   0   4   0 5653.73  156.08
   0   4   0 5842.62  154.68
   0   4   0 5590.34  149.39
   0   4   0 5818.02  157.78
  -1  -4   0   65.79   11.80
  -1  -4   0   97.19   13.00
   1   4   0   85.49   13.60
   1   4   0   87.39    9.70
   1   4   0  106.89   13.20
   1   4   0   73.79    9.80
  -2  -4   0 1312.47   48.80
  -2  -4   0 1225.88   40.80
  -2  -4   0 1278.37   48.70
   2   4   0 1301.77   48.00
   2   4   0 1333.37   50.39
   2   4   0 1284.67   39.20
   2   4   0 1332.77   46.10
  -3  -4   0 1895.31   66.49
  -3  -4   0 1912.71   66.69
  -3  -4   0 1840.82   53.59
   3   4   0 1964.60   66.49
   3   4   0 1892.91   68.59
   3   4   0 1887.71   65.29
  -4  -4   0   57.59   13.80
  -4  -4   0   53.19   10.80
  -4  -4   0   58.09   15.80
   4   4   0   56.59   18.80
   4   4   0   58.59   14.70
  -5  -4   0   -2.50   12.20
  -5  -4   0   27.00   11.30
  -5  -4   0   -7.50   16.50
  -5  -4   0   15.60   21.00
   5   4   0   -2.80   22.60
   5   4   0   14.10   15.10
   5   4   0    2.90   21.70
   8  -5   0   17.70   22.00
   8  -5   0   11.20   21.70
   8  -5   0   -7.90   13.60
   8  -5   0   43.00   18.80
   8  -5   0    2.60   13.80
   8  -5   0   61.79   22.70
  -8   5   0    4.70   13.40
   7  -5   0   26.50   15.40
   7  -5   0   66.69   18.30
   7  -5   0   24.90   15.00
   7  -5   0   23.80   18.30
   7  -5   0   47.70   14.60
  -7   5   0   48.90   14.10
   6  -5   0   18.40    2.50
   6  -5   0   16.40   11.50
   6  -5   0   29.50   12.10
   6  -5   0   22.10   12.40
   6  -5   0   20.00    2.90
   6  -5   0   28.80    9.60
   6  -5   0    5.30   11.00
  -6   5   0   28.50   12.20
   5  -5   0  148.69   13.50
   5  -5   0  159.88   14.50
   5  -5   0  151.38   10.30
   5  -5   0  158.78    9.30
   5  -5   0  164.58   19.30
  -5   5   0  150.28    8.00
  -5   5   0  173.18    8.40
  -5   5   0  170.98   18.00
   4  -5   0   67.79   12.70
  -4   5   0   79.29   14.30
   3  -5   0  106.59    7.20
   3  -5   0  130.19   10.50
   3  -5   0  135.49   12.40
   3  -5   0  139.59   11.70
   3  -5   0  135.69   14.60
  -3   5   0  138.19   12.20
  -3   5   0  113.09   14.40
  -3   5   0  132.59   11.40
  -3   5   0  140.89   11.50
  -3   5   0  127.99   10.30
   2  -5   0   15.80    6.90
   2  -5   0   22.60    7.40
  -2   5   0    2.90    8.00
  -2   5   0   15.50    7.20
  -2   5   0   20.10    6.80
  -2   5   0   19.50    5.80
   1  -5   0 2156.88   69.59
   1  -5   0 2167.08   68.89
  -1   5   0 2232.08   70.29
  -1   5   0 2166.68   65.99
  -1   5   0 2252.67   68.99
  -1   5   0 2146.09   69.09
   0  -5   0 1991.20   64.89
   0  -5   0 1915.01   65.49
   0   5   0 1940.91   64.29
   0   5   0 1869.71   65.59
   0   5   0 2031.10   62.59
  -1  -5   0  217.58   16.40
  -1  -5   0  199.08   20.00
  -1  -5   0  187.18   23.20
   1   5   0  200.08   14.80
   1   5   0  215.38   19.30
   1   5   0  229.28   15.90
   1   5   0  193.28   25.20
  -2  -5   0   48.40   12.90
  -2  -5   0   30.10   13.10
  -2  -5   0   46.00    9.30
   2   5   0   40.60    9.00
   2   5   0   55.29   12.10
   2   5   0   51.79   14.00
   2   5   0   76.69   16.70
  -3  -5   0  112.39   17.30
  -3  -5   0  104.39   19.40
  -3  -5   0  101.89   11.70
   3   5   0  106.89   18.80
   3   5   0  135.79   19.60
   3   5   0   96.29   21.20
  -4  -5   0   44.80   19.40
  -4  -5   0   63.79   13.10
  -4  -5   0   68.09   19.10
  -4  -5   0   37.70   23.00
   4   5   0   29.00   24.30
   4   5   0   72.69   23.60
   4   5   0   81.69   18.80
   8  -6   0  425.36   41.80
   8  -6   0  477.15   37.60
   8  -6   0  477.15   36.60
   8  -6   0  419.16   38.50
   8  -6   0  337.47   41.70
   8  -6   0  472.35   32.80
  -8   6   0  444.46   31.70
   7  -6   0  283.07   32.10
   7  -6   0  271.97   24.10
   7  -6   0  242.58   26.10
   7  -6   0  313.97   29.40
   7  -6   0  298.17   28.60
  -7   6   0  282.97   25.80
   6  -6   0   11.60    9.70
   6  -6   0    9.30   10.60
   6  -6   0    7.30    4.70
   6  -6   0    1.60   12.70
   6  -6   0   -6.30    5.10
   6  -6   0   15.30   15.30
  -6   6   0   12.50   12.30
  -6   6   0    0.80    2.80
   5  -6   0  125.79   11.60
   5  -6   0  118.89   14.10
   5  -6   0  126.39   13.60
   5  -6   0  139.29   18.00
   5  -6   0  125.79   12.50
  -5   6   0  133.49   11.10
  -5   6   0  159.08   13.30
  -5   6   0  131.79   20.10
  -5   6   0  131.99   11.40
  -5   6   0  153.38   15.60
   4  -6   0  780.42   29.60
   4  -6   0  704.03   24.90
   4  -6   0  713.93   28.30
   4  -6   0  733.43   35.20
   4  -6   0  742.23   30.20
  -4   6   0  771.62   28.00
  -4   6   0  620.54   34.80
  -4   6   0  738.33   29.50
  -4   6   0  764.22   30.00
  -4   6   0  701.73   28.60
   3  -6   0  312.77   20.40
   3  -6   0  331.37   23.00
   3  -6   0  318.67   19.60
  -3   6   0  339.87   17.90
  -3   6   0  330.37   23.70
  -3   6   0  337.97   21.30
  -3   6   0  326.17   18.70
  -3   6   0  331.57   20.00
   2  -6   0  614.94   29.60
   2  -6   0  657.53   30.90
  -2   6   0  583.44   30.60
  -2   6   0  615.64   26.60
  -2   6   0  603.44   31.20
  -2   6   0  592.14   28.70
   1  -6   0  481.85   28.30
   1  -6   0  472.75   27.80
  -1   6   0  455.05   25.20
  -1   6   0  509.55   29.40
  -1   6   0  515.95   27.40
  -1   6   0  530.95   27.60
   0  -6   0  157.08   20.00
   0  -6   0  135.09   16.50
   0  -6   0  122.69   17.90
   0   6   0  146.89   18.90
   0   6   0  145.69   20.80
   0   6   0  140.89   18.20
   0   6   0  127.69   15.60
  -1  -6   0    3.90   12.60
  -1  -6   0   25.80   10.20
  -1  -6   0   11.80   12.00
   1   6   0   27.80   12.90
   1   6   0  -12.80   14.90
   1   6   0   18.70   10.80
  -2  -6   0  976.50   48.90
  -2  -6   0 1025.30   48.60
  -2  -6   0  972.30   38.30
   2   6   0  915.41   42.40
   2   6   0  944.41   35.50
   2   6   0 1001.10   51.29
   2   6   0 1022.00   48.30
  -3  -6   0   26.70   18.60
  -3  -6   0   18.00   22.50
  -3  -6   0   30.40    9.50
  -3  -6   0   26.60   14.00
   3   6   0   42.70   25.60
   3   6   0   28.00   20.00
   3   6   0   25.40   17.70
   8  -7   0   62.99   18.30
   8  -7   0   54.39   22.40
   8  -7   0   50.99   22.30
   8  -7   0   59.29   26.10
   8  -7   0  127.89   31.10
  -8   7   0   43.80   17.30
   7  -7   0  382.46   15.60
   7  -7   0  391.66   33.10
   7  -7   0  336.77   33.30
   7  -7   0  363.06   37.30
   7  -7   0  356.46   16.50
   7  -7   0  369.06   27.10
  -7   7   0  314.37   29.90
   6  -7   0   63.29   10.70
   6  -7   0   71.69   13.10
   6  -7   0   82.89   13.70
   6  -7   0   76.39   10.00
  -6   7   0   55.39   13.50
  -6   7   0   60.59   10.00
  -6   7   0   62.09   17.90
   5  -7   0  168.68   15.90
   5  -7   0  157.18   16.80
   5  -7   0  158.28   16.00
   5  -7   0  168.18   22.00
   5  -7   0  187.58   13.50
  -5   7   0  181.18   16.60
  -5   7   0  163.98   21.60
  -5   7   0  177.88   15.60
  -5   7   0  155.18   16.50
  -5   7   0  158.58   16.20
   4  -7   0   26.30   13.40
   4  -7   0   34.70   11.30
   4  -7   0   26.60    9.70
  -4   7   0   26.70   14.00
  -4   7   0   28.70    9.20
  -4   7   0   33.40   10.50
  -4   7   0   36.90   10.70
  -4   7   0   45.60   10.10
   3  -7   0  607.94   33.40
   3  -7   0  589.84   30.30
   3  -7   0  607.54   31.50
  -3   7   0  606.84   27.70
  -3   7   0  560.84   33.70
  -3   7   0  676.63   31.00
  -3   7   0  590.44   28.10
  -3   7   0  692.43   32.90
   2  -7   0  131.09   18.40
   2  -7   0  117.49   16.90
  -2   7   0  152.68   18.90
  -2   7   0  134.49   16.50
  -2   7   0  127.49   19.00
   1  -7   0  503.25   31.80
   1  -7   0  470.15   31.20
  -1   7   0  496.55   33.20
  -1   7   0  454.45   28.00
  -1   7   0  438.56   28.10
  -1   7   0  494.05   30.90
   0  -7   0  542.15   32.40
   0  -7   0  561.34   36.10
   0  -7   0  486.05   33.80
   0   7   0  570.44   34.50
   0   7   0  546.55   38.80
   0   7   0  540.65   33.10
   0   7   0  492.25   28.20
  -1  -7   0   14.00   18.40
  -1  -7   0    3.90   13.70
  -1  -7   0   -4.90   16.00
   1   7   0   13.10   17.00
   1   7   0  -20.70   10.90
   1   7   0  -17.40   21.10
  -2  -7   0  195.38   31.10
  -2  -7   0  287.17   35.00
  -2  -7   0  294.27   24.20
   2   7   0  253.07   36.90
   2   7   0  258.17   33.10
   2   7   0  245.18   21.00
   7  -8   0   98.29   17.30
   7  -8   0   53.69   10.40
   7  -8   0  102.29   16.90
   7  -8   0  153.88   30.20
   7  -8   0  139.79   26.10
   7  -8   0   82.59   12.00
   7  -8   0   78.69   24.00
  -7   8   0   63.69   10.00
   6  -8   0  -21.50   21.10
   6  -8   0  -17.90    9.10
   6  -8   0   16.00   10.80
   6  -8   0   -2.20   10.90
   6  -8   0    0.60    9.40
  -6   8   0  -13.70    9.80
  -6   8   0   12.80   10.30
  -6   8   0   -4.70    9.50
  -6   8   0   15.40   15.10
   5  -8   0    2.20   12.00
   5  -8   0    9.60   12.10
  -5   8   0   42.30   15.70
  -5   8   0   24.40   10.80
  -5   8   0   28.90   11.70
  -5   8   0   42.20   13.20
  -5   8   0   29.20   11.70
   4  -8   0  133.79   18.50
   4  -8   0  140.09   19.90
  -4   8   0  162.88   18.60
  -4   8   0  166.88   19.00
  -4   8   0  150.08   18.70
  -4   8   0  129.89   22.60
   3  -8   0  275.47   25.80
   3  -8   0  302.37   26.40
   3  -8   0  219.98   25.90
  -3   8   0  218.28   23.90
  -3   8   0  235.98   25.40
  -3   8   0  260.57   22.30
   2  -8   0  -16.20   15.90
   2  -8   0    9.90   15.90
   2  -8   0    7.10   15.20
   2  -8   0   -3.00   15.30
  -2   8   0   15.60   14.60
  -2   8   0  -17.50   14.40
  -2   8   0  -10.70   11.80
   1  -8   0   33.10   17.40
   1  -8   0   48.70   18.50
   1  -8   0   52.59   19.70
  -1   8   0   70.09   22.60
  -1   8   0   91.49   18.80
  -1   8   0   53.79   16.00
  -1   8   0   52.79   18.50
   0  -8   0  547.45   41.00
   0  -8   0  594.54   36.20
   0  -8   0  628.14   44.70
   0   8   0  527.85   48.60
   0   8   0  528.85   32.50
   6  -9   0   -3.30   13.30
   6  -9   0  -10.40   14.10
   6  -9   0   51.39   23.20
   6  -9   0  -17.30   31.50
  -6   9   0  -18.10   14.60
  -6   9   0    3.10   18.20
  -6   9   0   15.10   13.50
  -6   9   0  -23.80   12.10
   5  -9   0   15.60   22.60
   5  -9   0   15.50   14.70
   5  -9   0   26.90   17.20
   5  -9   0   40.10   21.60
  -5   9   0   -4.00   15.40
  -5   9   0   26.30   15.10
  -5   9   0   17.90   13.90
  -5   9   0   47.20   18.30
  -5   9   0   32.30   14.20
   4  -9   0  163.78   28.80
   4  -9   0  206.08   29.70
   4  -9   0  191.68   25.20
   4  -9   0  234.38   28.80
  -4   9   0  214.18   25.70
  -4   9   0  168.68   39.90
  -4   9   0  210.58   28.20
  -4   9   0  212.48   22.40
  -4   9   0  246.38   23.70
   3  -9   0   47.90   20.10
   3  -9   0   21.90   21.30
   3  -9   0   46.30   17.90
   3  -9   0   31.00   19.70
  -3   9   0   23.60   17.20
  -3   9   0   45.00   23.60
  -3   9   0   31.80   16.60
  -3   9   0   23.40   17.90
   2  -9   0    8.50   22.20
   2  -9   0    6.10   17.90
   2  -9   0  -14.60   18.80
  -2   9   0   65.09   29.10
  -2   9   0   27.90   17.70
  -2   9   0  -31.10   17.40
  -2   9   0   23.70   20.10
   1  -9   0  132.79   29.20
   1  -9   0  128.39   26.70
   1  -9   0   99.29   24.80
  -1   9   0  117.49   23.20
  -1   9   0   94.09   25.60
  -1   9  -1   -6.70   23.30
  -1   9  -1   20.20   16.30
   1  -9   1  -11.70   19.30
   1  -9   1   33.10   20.90
   1  -9   1   13.50   24.60
   1  -9   1   31.30   19.30
  -2   9  -1  -23.70   22.30
  -2   9  -1   20.60   19.20
  -2   9  -1   50.29   20.10
  -2   9  -1   44.90   19.80
   2  -9   1   47.70   22.10
   2  -9   1   16.30   19.10
  -3   9  -1   13.20   17.20
  -3   9  -1   14.70   17.10
  -3   9  -1   21.10   11.80
  -3   9  -1    6.80   20.50
  -3   9  -1   24.60   17.20
   3  -9   1   26.90   19.20
   3  -9   1   10.80   16.50
  -4   9  -1  698.93   45.90
  -4   9  -1  780.42   39.20
  -4   9  -1  808.32   32.60
  -4   9  -1  837.52   42.90
  -4   9  -1  751.42   43.00
   4  -9   1  759.62   41.20
   4  -9   1  757.12   47.70
   4  -9   1  762.12   42.20
  -5   9  -1  225.58   28.50
  -5   9  -1  183.28   30.90
  -5   9  -1  218.08   26.40
  -5   9  -1  199.68   25.90
   5  -9   1  284.77   29.00
   5  -9   1  202.38   30.60
   5  -9   1  195.48   23.00
  -6   9  -1   70.09   16.70
  -6   9  -1   43.80   16.40
  -6   9  -1   41.60   14.60
  -6   9  -1   82.69   24.20
   6  -9   1   44.10   14.90
   6  -9   1   42.00   15.30
   6  -9   1   59.79   11.10
   1   8  -1    0.10   30.00
   1   8  -1  -47.30   23.80
   1   8  -1  -28.00   19.60
   1   8  -1   19.70   16.10
  -1  -8   1    9.80   26.00
  -1  -8   1    3.10   17.00
  -1  -8   1   37.10   21.10
   0   8  -1    6.10   14.70
   0   8  -1   -0.90   23.20
   0   8  -1    1.40   17.50
   0  -8   1    9.30   16.30
   0  -8   1  -40.80   19.00
   0  -8   1   11.10   14.00
   0  -8   1    5.90   16.40
  -1   8  -1  139.69   24.90
  -1   8  -1  147.39   22.40
  -1   8  -1  138.09   22.20
  -1   8  -1  153.98   23.20
   1  -8   1  139.89   24.10
   1  -8   1  153.88   20.50
   1  -8   1  183.78   24.60
  -2   8  -1  140.69   19.80
  -2   8  -1  146.09   21.20
  -2   8  -1  160.68   23.60
   2  -8   1  132.89   21.10
   2  -8   1   86.29   19.80
   2  -8   1   96.99   19.50
  -3   8  -1   82.89   12.40
  -3   8  -1   93.09   17.10
  -3   8  -1   82.89   15.60
  -3   8  -1   69.09   17.50
   3  -8   1   56.89   16.90
   3  -8   1   97.29   19.00
   3  -8   1   92.89   17.00
  -4   8  -1  421.16   26.90
  -4   8  -1  365.86   30.50
  -4   8  -1  403.96   21.60
  -4   8  -1  434.36   26.50
   4  -8   1  268.87   34.00
   4  -8   1  394.36   27.20
   4  -8   1  369.96   28.60
  -5   8  -1    8.20   11.40
  -5   8  -1   -1.90   11.70
  -5   8  -1    1.80   10.80
  -5   8  -1   -8.80   13.50
   5  -8   1  -18.90   10.60
   5  -8   1    1.90   23.20
   5  -8   1    2.70   11.10
   5  -8   1   13.40    7.60
   5  -8   1  -10.30   11.00
  -6   8  -1   29.30   14.90
  -6   8  -1   46.50   14.10
  -6   8  -1   22.80   10.40
  -6   8  -1   43.20   11.40
   6  -8   1    5.60   22.00
   6  -8   1   47.30   12.70
   6  -8   1   66.19   15.80
   6  -8   1   59.49   13.10
   6  -8   1   51.39   11.70
  -7   8  -1  648.24   23.60
  -7   8  -1  631.54   23.50
   7  -8   1  676.03   29.60
   7  -8   1  667.13   51.39
   7  -8   1  652.53   37.30
   7  -8   1  628.34   26.50
   7  -8   1  705.43   49.10
   2   7  -1   36.40   19.30
   2   7  -1    6.70   13.00
   2   7  -1   45.40   26.00
  -2  -7   1   24.50   24.50
  -2  -7   1   16.20   13.60
   1   7  -1  747.13   42.10
   1   7  -1  696.33   33.80
   1   7  -1  728.43   45.00
  -1  -7   1  714.63   42.40
  -1  -7   1  704.23   36.90
  -1  -7   1  690.73   42.20
   0   7  -1    6.60   13.60
   0   7  -1   -2.50   11.20
   0   7  -1   10.90   15.00
   0   7  -1  -13.50   16.10
   0  -7   1   42.10   15.10
   0  -7   1    3.80   13.30
  -1   7  -1   88.69   17.40
  -1   7  -1  112.49   18.70
  -1   7  -1  112.09   20.20
  -1   7  -1  119.69   31.00
   1  -7   1  129.99   16.60
   1  -7   1  123.39   18.40
   1  -7   1  124.99   19.20
  -2   7  -1   36.50   12.20
  -2   7  -1   17.30   10.90
  -2   7  -1   46.30   14.40
  -2   7  -1   28.70   12.90
   2  -7   1   34.70   13.30
   2  -7   1   37.90   12.00
   2  -7   1   33.50   12.50
  -3   7  -1  529.55   26.90
  -3   7  -1  481.75   28.80
  -3   7  -1  467.25   31.10
  -3   7  -1  519.65   22.70
  -3   7  -1  560.84   28.10
   3  -7   1  460.55   26.70
   3  -7   1  491.95   30.00
   3  -7   1  512.55   28.70
  -4   7  -1  400.26   23.80
  -4   7  -1  343.27   28.00
  -4   7  -1  388.36   19.80
  -4   7  -1  400.46   23.10
  -4   7  -1  406.96   22.70
   4  -7   1  357.36   15.80
   4  -7   1  367.96   28.60
   4  -7   1  379.26   24.70
   4  -7   1  389.76   22.50
   4  -7   1  377.36   22.80
  -5   7  -1  197.88   16.40
  -5   7  -1  170.68   22.80
  -5   7  -1  180.78   17.90
  -5   7  -1  226.08   17.90
   5  -7   1  227.78   27.00
   5  -7   1  191.18   15.50
   5  -7   1  156.08   17.40
   5  -7   1  171.78   16.10
   5  -7   1  207.18   19.20
  -6   7  -1  300.87   19.20
  -6   7  -1  315.77   26.10
   6  -7   1  346.47   25.30
   6  -7   1  326.87   17.50
   6  -7   1  364.36   24.10
   6  -7   1  336.87   20.10
  -7   7  -1  118.29   23.30
   7  -7   1  120.09   12.90
   7  -7   1  131.69   21.70
   7  -7   1  131.79   20.70
   7  -7   1   92.99   23.10
   7  -7   1  115.39   10.80
   7  -7   1  147.29   23.30
  -8   7  -1   40.90   18.10
   8  -7   1   39.80   23.80
   8  -7   1   50.29   20.20
   8  -7   1  100.19   26.30
   3   6  -1  567.14   23.20
   3   6  -1  602.54   40.30
   3   6  -1  558.84   38.40
   3   6  -1  551.24   45.40
  -3  -6   1  598.54   37.70
  -3  -6   1  494.65   38.20
  -3  -6   1  576.54   41.90
  -3  -6   1  524.95   25.80
   2   6  -1  110.09   14.50
   2   6  -1  116.79   21.00
   2   6  -1  137.79   24.20
  -2  -6   1  119.99   15.60
  -2  -6   1  130.99   21.90
  -2  -6   1  126.59   21.10
   1   6  -1  460.55   32.90
   1   6  -1  429.56   29.20
   1   6  -1  422.86   24.00
  -1  -6   1  438.26   30.50
  -1  -6   1  413.26   29.50
   0   6  -1   78.59   15.60
   0   6  -1   62.19   13.40
   0   6  -1   76.29   14.10
   0   6  -1   76.19   14.40
   0  -6   1   56.79   13.60
   0  -6   1   42.70   13.00
  -1   6  -1  684.03   33.70
  -1   6  -1  666.73   32.70
  -1   6  -1  652.03   32.10
  -1   6  -1  662.33   30.40
   1  -6   1  702.53   32.30
   1  -6   1  700.63   33.90
   1  -6   1  628.34   29.00
  -2   6  -1 1290.97   46.50
  -2   6  -1 1191.58   51.59
  -2   6  -1 1247.78   44.20
  -2   6  -1 1242.48   49.50
   2  -6   1 1215.88   46.10
   2  -6   1 1248.78   45.90
   2  -6   1 1244.38   33.40
   2  -6   1 1318.17   48.00
  -3   6  -1  777.52   32.30
  -3   6  -1  789.72   28.50
  -3   6  -1  808.82   31.20
  -3   6  -1  791.12   32.70
  -3   6  -1  754.32   37.20
   3  -6   1  801.92   32.10
   3  -6   1  775.52   31.10
   3  -6   1  798.02   34.10
   3  -6   1  755.92   34.90
  -4   6  -1 1018.50   36.40
  -4   6  -1 1038.30   36.90
  -4   6  -1 1076.89   37.30
  -4   6  -1 1053.49   35.80
  -4   6  -1  924.21   44.10
   4  -6   1 1036.50   38.20
   4  -6   1 1019.60   36.50
   4  -6   1 1065.69   38.70
   4  -6   1  980.40   33.90
   4  -6   1 1025.20   43.50
  -5   6  -1  315.87   25.40
  -5   6  -1  372.56   20.30
  -5   6  -1  317.87   15.90
  -5   6  -1  325.17   16.50
   5  -6   1  299.87   18.20
   5  -6   1  326.37   16.40
   5  -6   1  345.97   20.20
   5  -6   1  295.97   25.90
   5  -6   1  326.17   20.90
  -6   6  -1 1507.65   62.29
  -6   6  -1 1583.54   44.70
  -6   6  -1 1592.24   44.10
   6  -6   1 1621.94   61.99
   6  -6   1 1704.03   57.69
   6  -6   1 1636.64   46.70
   6  -6   1 1600.44   48.60
   6  -6   1 1662.53   57.29
  -7   6  -1  507.85   33.70
   7  -6   1  582.04   40.00
   7  -6   1  628.64   34.40
   7  -6   1  528.35   36.80
   7  -6   1  527.95   15.20
   7  -6   1  622.24   36.60
  -8   6  -1  -17.00   14.00
   8  -6   1   25.90   22.40
   8  -6   1   13.80   17.30
   8  -6   1    2.50   20.90
   8  -6   1   -2.00   26.30
   8  -6   1   14.10   18.30
   8  -6   1   -4.00   24.50
   4   5  -1   36.10   16.90
   4   5  -1   46.00   20.90
   4   5  -1   13.70   21.70
  -4  -5   1   26.50    8.90
  -4  -5   1    2.80   14.10
  -4  -5   1   20.80    4.50
  -4  -5   1   12.00   18.50
  -4  -5   1    9.60   17.10
   3   5  -1 1096.89   51.99
   3   5  -1 1053.29   35.80
   3   5  -1 1098.29   48.10
  -3  -5   1 1081.19   36.80
  -3  -5   1 1068.99   48.80
   2   5  -1   -6.40    9.50
   2   5  -1   19.00   11.50
   2   5  -1    7.50    7.70
   2   5  -1   10.80   12.70
  -2  -5   1    2.40    7.10
  -2  -5   1  -15.20   10.40
  -2  -5   1   14.90   11.50
   1   5  -1  -14.20    6.90
   1   5  -1   -6.10    9.80
   1   5  -1   17.20    9.80
  -1  -5   1   11.10   10.40
   0   5  -1 1224.38   44.20
   0   5  -1 1177.28   43.80
   0   5  -1 1249.97   45.90
   0   5  -1 1245.58   46.90
   0  -5   1 1212.78   46.80
   0  -5   1 1245.58   37.60
   0  -5   1 1219.48   45.50
  -1   5  -1  213.98   14.90
  -1   5  -1  204.48   17.30
  -1   5  -1  197.18   16.70
  -1   5  -1  191.48   16.00
   1  -5   1  221.98   16.30
   1  -5   1  184.38   16.70
  -2   5  -1   72.19   12.10
  -2   5  -1   67.89   10.00
  -2   5  -1   75.29   10.50
  -2   5  -1   71.49    9.50
   2  -5   1   70.79   10.60
   2  -5   1   67.79   10.40
   2  -5   1   85.39   11.10
  -4   5  -1  907.51   30.90
  -4   5  -1  968.00   30.60
  -4   5  -1  912.11   32.80
  -4   5  -1  953.50   40.40
   4  -5   1  983.50   35.00
   4  -5   1  869.71   38.10
   4  -5   1  847.72   30.20
   4  -5   1  907.91   32.20
  -5   5  -1   11.00    3.90
  -5   5  -1    6.80    9.70
  -5   5  -1    3.40    3.20
   5  -5   1    9.30    7.40
   5  -5   1    8.50    7.80
   5  -5   1   15.50    9.20
   5  -5   1   13.20    5.20
   5  -5   1   10.70    4.20
   5  -5   1   10.70    9.10
   5  -5   1    0.20    7.60
  -6   5  -1  140.79   20.20
   6  -5   1  173.98   22.80
   6  -5   1  144.89   17.90
   6  -5   1  140.99   20.30
   6  -5   1  148.39    7.60
   6  -5   1  155.58   20.90
   6  -5   1  134.69   20.20
   6  -5   1  147.39    8.90
  -7   5  -1  696.33   36.90
   7  -5   1  654.63   39.50
   7  -5   1  667.43   41.30
   7  -5   1  631.14   39.40
   7  -5   1  716.03   36.70
   7  -5   1  686.73   38.70
  -8   5  -1   46.00   16.80
   8  -5   1   36.60   23.00
   8  -5   1   56.19   18.80
   8  -5   1   57.29   23.60
   8  -5   1   56.79   17.80
   8  -5   1   74.49   22.20
   8  -5   1   85.79   25.40
   5   4  -1   43.60   16.70
   5   4  -1   57.89   22.80
  -5  -4   1   59.59    9.40
  -5  -4   1   56.49   19.00
  -5  -4   1   49.80   20.10
  -5  -4   1   74.19   17.60
   4   4  -1  326.67   30.00
   4   4  -1  325.17   26.10
   4   4  -1  306.17   30.40
  -4  -4   1  315.87   27.00
  -4  -4   1  329.17   16.90
  -4  -4   1  307.67   25.40
   3   4  -1  150.18   18.70
   3   4  -1  142.09   17.30
   3   4  -1  136.49    9.40
   3   4  -1  131.19   19.20
  -3  -4   1  140.69   17.30
  -3  -4   1  155.58   19.00
  -3  -4   1  148.49   18.20
  -3  -4   1  116.69   10.60
   2   4  -1  102.79   10.20
   2   4  -1  119.89   13.50
   2   4  -1  117.29   16.20
   2   4  -1  118.39   14.70
  -2  -4   1  103.79   15.50
   1   4  -1  625.14   25.00
   1   4  -1  596.34   28.80
   1   4  -1  617.44   25.00
   1   4  -1  602.04   28.10
  -1  -4   1  609.44   27.80
  -1  -4   1  624.94   24.00
  -1  -4   1  640.94   29.10
   0   4  -1  270.17   17.80
   0   4  -1  332.57   18.60
   0   4  -1  278.97   16.20
   0   4  -1  288.07   16.60
   0  -4   1  287.17   18.50
   0  -4   1  291.67   12.70
  -1   4  -1   54.89    8.90
  -1   4  -1   71.49    8.90
  -1   4  -1   63.29    9.00
  -1   4  -1   66.89    8.20
   1  -4   1   79.59   10.10
   1  -4   1   59.99    8.20
   1  -4   1   83.69    9.70
  -2   4  -1  644.04   24.00
  -2   4  -1  646.14   24.60
  -2   4  -1  591.34   27.40
  -2   4  -1  665.93   21.80
  -2   4  -1  647.04   24.60
   2  -4   1  653.93   24.40
   2  -4   1  663.63   26.40
   2  -4   1  627.94   24.10
   2  -4   1  639.24   24.90
  -3   4  -1  834.32   28.20
  -3   4  -1  860.71   29.50
  -3   4  -1  887.81   35.10
  -3   4  -1  848.92   28.40
  -3   4  -1  826.42   27.80
   3  -4   1  818.82   33.00
   3  -4   1  816.62   28.80
   3  -4   1  890.01   30.70
   3  -4   1  844.62   27.80
  -4   4  -1 2247.38   72.69
  -4   4  -1 2308.67   66.69
  -4   4  -1 2255.17   61.29
   4  -4   1 2259.77   68.69
   4  -4   1 2326.27   71.89
   4  -4   1 2202.58   63.39
   4  -4   1 2308.67   68.19
   4  -4   1 2232.98   61.89
  -5   4  -1   41.20    2.60
  -5   4  -1   32.80   11.30
  -5   4  -1   44.00   11.30
   5  -4   1   35.10    4.80
   5  -4   1   53.99   11.40
   5  -4   1   38.60   10.60
   5  -4   1   24.30    9.90
   5  -4   1   43.90   11.40
   5  -4   1   34.80    4.50
   5  -4   1   42.00    9.80
  -6   4  -1   79.69   14.60
  -6   4  -1   67.59   14.60
   6  -4   1   68.59   13.20
   6  -4   1   60.49   14.80
   6  -4   1   71.49   15.80
   6  -4   1   68.69   15.40
   6  -4   1   64.29    3.50
   6  -4   1   65.69   15.40
   6  -4   1   64.19    3.50
  -7   4  -1  185.68   21.30
   7  -4   1  256.37   26.40
   7  -4   1  277.57   23.80
   7  -4   1  209.88   26.70
   7  -4   1  285.07   29.10
   7  -4   1  274.77   28.10
  -8   4  -1   70.09   16.00
   8  -4   1   69.19   23.50
   8  -4   1    7.30   19.50
   8  -4   1   45.30   24.90
   8  -4   1   63.09   19.20
   8  -4   1   15.10   22.80
   8  -4   1   46.90   15.00
   6   3  -1   25.50   28.40
   6   3  -1   61.09   16.10
   6   3  -1    4.80   19.30
  -6  -3   1   41.40   16.90
  -6  -3   1   45.90   18.20
  -6  -3   1   43.40   19.40
  -6  -3   1   46.80   10.30
   5   3  -1    1.10   18.70
   5   3  -1   -1.60   11.50
   5   3  -1   11.10   14.60
  -5  -3   1    2.70   12.70
  -5  -3   1   -0.80    7.00
  -5  -3   1   -1.40   11.70
   4   3  -1 3278.67   98.49
   4   3  -1 3185.28  101.19
   4   3  -1 3150.78   99.79
  -4  -3   1 3186.78   88.59
  -4  -3   1 3241.68  100.69
  -4  -3   1 3253.17   98.09
  -4  -3   1 3242.18   98.79
   3   3  -1  730.43   32.70
   3   3  -1  648.24   30.30
   3   3  -1  637.44   29.30
   3   3  -1  689.53   19.80
  -3  -3   1  677.23   30.60
  -3  -3   1  631.24   21.10
  -3  -3   1  665.83   30.40
  -3  -3   1  561.74   32.70
   2   3  -1  170.28   14.30
   2   3  -1  171.78   15.50
   2   3  -1  169.98   10.30
   2   3  -1  176.38   14.20
  -2  -3   1  155.58   14.40
  -2  -3   1  157.48   13.90
  -2  -3   1  169.78   12.70
   1   3  -1  685.53   28.10
   1   3  -1  698.43   25.40
   1   3  -1  709.73   27.80
   1   3  -1  743.83   25.20
  -1  -3   1  706.73   27.40
  -1  -3   1  663.23   24.30
  -1  -3   1  667.23   28.10
   0   3  -1 1193.38   40.70
   0   3  -1 1248.68   39.70
   0   3  -1 1332.27   41.20
   0   3  -1 1285.07   40.50
   0  -3   1 1251.17   36.50
   0  -3   1 1236.58   40.20
   0  -3   1 1270.07   41.30
  -1   3  -1  243.68   12.20
  -1   3  -1  195.88   11.30
  -1   3  -1  204.18   13.00
  -1   3  -1  212.38   11.00
   1  -3   1  228.78   11.90
   1  -3   1  227.78   11.50
   1  -3   1  213.78   11.80
   1  -3   1  203.28   11.80
  -2   3  -1 2016.30   58.89
  -2   3  -1 1851.11   54.09
  -2   3  -1 1894.21   53.39
  -2   3  -1 1855.31   52.29
  -2   3  -1 1843.02   53.39
   2  -3   1 1868.91   54.09
   2  -3   1 1948.41   53.39
   2  -3   1 1903.01   56.89
   2  -3   1 1853.61   54.59
  -3   3  -1  712.43   21.70
  -3   3  -1  712.93   28.40
  -3   3  -1  745.63   25.30
  -3   3  -1  720.93   28.60
   3  -3   1  724.63   23.10
   3  -3   1  716.33   25.90
   3  -3   1  721.83   26.00
   3  -3   1  702.13   21.90
   3  -3   1  715.03   28.30
  -4   3  -1  182.48   14.60
  -4   3  -1  191.08    7.50
  -4   3  -1  193.38   15.40
   4  -3   1  188.78    7.80
   4  -3   1  180.08   15.00
   4  -3   1  176.38    8.50
   4  -3   1  174.48   14.70
   4  -3   1  196.08   13.80
   4  -3   1  197.98   13.30
  -5   3  -1   32.20    9.60
  -5   3  -1   31.40    9.60
   5  -3   1   27.00    9.60
   5  -3   1   16.60    9.50
   5  -3   1   22.10    3.50
   5  -3   1    7.70    7.30
   5  -3   1   30.20    9.90
   5  -3   1   26.40    9.10
  -6   3  -1 2071.99   68.99
  -6   3  -1 1914.41   63.59
   6  -3   1 2022.20   68.49
   6  -3   1 1991.30   68.79
   6  -3   1 1989.70   65.99
   6  -3   1 1972.40   68.79
   6  -3   1 1918.81   52.69
   6  -3   1 2007.60   69.69
   6  -3   1 1871.11   52.99
  -7   3  -1  745.43   39.00
  -7   3  -1  715.83   32.50
   7  -3   1  715.33   42.80
   7  -3   1  737.53   21.30
   7  -3   1  783.82   37.50
   7  -3   1  725.23   21.60
   7  -3   1  775.32   42.60
   7  -3   1  738.53   31.80
   7  -3   1  756.82   41.60
   7  -3   1  739.93   40.10
  -8   3  -1  -10.00   15.20
  -8   3  -1    8.50   12.10
   8  -3   1    9.10   27.50
   8  -3   1    5.60   20.20
   8  -3   1    6.40   10.10
   8  -3   1    8.00   18.10
   8  -3   1   28.30   24.60
   7   2  -1  168.48   21.50
   7   2  -1  119.59   23.30
  -7  -2   1  159.68   20.90
  -7  -2   1  180.18   27.80
  -7  -2   1  123.99   22.50
   6   2  -1  724.03   37.60
   6   2  -1  749.62   49.20
   6   2  -1  732.63   35.20
  -6  -2   1  732.23   29.40
  -6  -2   1  674.73   46.20
  -6  -2   1  715.63   34.60
   5   2  -1   71.79   14.20
   5   2  -1   55.99   12.40
   5   2  -1   69.69   17.70
  -5  -2   1   66.29   13.00
  -5  -2   1   79.09   13.40
  -5  -2   1   77.19    9.70
  -5  -2   1   54.39   14.00
   4   2  -1  115.99   14.30
   4   2  -1  114.89   16.90
   4   2  -1  121.69   14.90
  -4  -2   1  122.29   15.10
  -4  -2   1  107.69   13.40
  -4  -2   1  132.09   10.20
  -4  -2   1  157.18   14.40
   3   2  -1 1664.23   52.79
   3   2  -1 1659.33   54.09
   3   2  -1 1690.23   55.39
   3   2  -1 1711.93   42.90
  -3  -2   1 1660.33   47.00
  -3  -2   1 1637.94   53.29
  -3  -2   1 1635.14   54.29
  -3  -2   1 1655.43   54.19
  -3  -2   1 1592.04   43.00
  -3  -2   1 1714.43   53.09
  -3  -2   1 1587.34   43.40
   2   2  -1  157.48   11.50
   2   2  -1  121.39   10.70
   2   2  -1  134.09   11.20
   2   2  -1  161.18    7.90
  -2  -2   1  148.49   11.20
  -2  -2   1  130.19   11.50
  -2  -2   1  150.18   11.10
   1   2  -1 5656.43  140.99
   1   2  -1 5322.37  142.09
   1   2  -1 5384.36  143.39
   1   2  -1 5232.88  143.59
  -1  -2   1 5337.07  141.89
  -1  -2   1 5328.07  143.89
  -1  -2   1 5338.57  143.09
   0   2  -1 3424.36   93.49
   0   2  -1 3464.55   94.29
   0   2  -1 3454.75   93.79
   0   2  -1 3729.43   94.49
   0  -2   1 3415.06   93.59
   0  -2   1 3410.66   94.29
  -1   2  -1  645.94   21.00
  -1   2  -1  632.64   18.50
  -1   2  -1  658.33   21.80
  -1   2  -1  664.83   20.90
  -1   2  -1  669.73   20.90
   1  -2   1  653.63   20.50
   1  -2   1  639.54   21.10
   1  -2   1  646.54   21.70
   1  -2   1  632.74   20.90
  -2   2  -1  608.54   17.90
  -2   2  -1  589.04   19.30
  -2   2  -1  626.74   22.80
  -2   2  -1  594.94   22.20
  -2   2  -1  569.14   20.10
   2  -2   1  601.84   20.00
   2  -2   1  610.54   17.90
   2  -2   1  556.64   20.40
   2  -2   1  600.14   18.50
   2  -2   1  586.74   21.90
  -3   2  -1 1516.45   43.60
  -3   2  -1 1617.94   43.30
  -3   2  -1 1649.13   51.09
  -3   2  -1 1650.33   49.99
   3  -2   1 1632.94   50.69
   3  -2   1 1613.64   43.70
   3  -2   1 1666.93   51.09
   3  -2   1 1623.84   44.20
   3  -2   1 1692.93   49.40
  -4   2  -1 1375.56   37.70
  -4   2  -1 1464.15   45.30
  -4   2  -1 1351.96   38.00
  -4   2  -1 1360.16   47.10
   4  -2   1 1440.76   48.00
   4  -2   1 1339.37   50.89
   4  -2   1 1409.66   45.50
   4  -2   1 1406.86   39.00
   4  -2   1 1407.16   47.50
   4  -2   1 1402.66   38.80
  -5   2  -1  363.36   18.60
  -5   2  -1  352.26   21.70
  -5   2  -1  347.47   12.50
  -5   2  -1  354.16   21.80
  -5   2  -1  354.86   12.00
   5  -2   1  347.27   21.80
   5  -2   1  372.06   20.80
   5  -2   1  329.67   21.80
   5  -2   1  344.47   14.30
   5  -2   1  341.97   13.40
   5  -2   1  399.76   24.10
  -6   2  -1  512.35   23.40
  -6   2  -1  532.05   28.80
  -6   2  -1  486.55   16.50
  -6   2  -1  504.75   16.10
  -6   2  -1  497.75   30.80
   6  -2   1  532.45   31.60
   6  -2   1  524.15   28.20
   6  -2   1  551.84   32.60
   6  -2   1  518.95   30.60
   6  -2   1  493.75   18.40
   6  -2   1  485.55   19.90
  -7   2  -1   25.00    3.20
  -7   2  -1   29.80    3.30
  -7   2  -1   33.50   14.20
  -7   2  -1   22.00    9.60
  -7   2  -1   32.30   15.70
   7  -2   1   33.10   18.50
   7  -2   1   21.10   16.10
   7  -2   1   34.40    6.50
   7  -2   1   24.50   13.90
   7  -2   1   20.30    6.30
   7  -2   1   34.10    7.90
   7  -2   1   56.39   19.80
   7  -2   1   29.40   12.00
  -8   2  -1    0.30   16.30
  -8   2  -1    8.90   18.40
   8  -2   1  -24.70   22.30
   8  -2   1    7.80   24.50
   8  -2   1   11.00   17.60
   8  -2   1    9.40    6.90
   8  -2   1   -0.70    8.80
   8  -2   1   -9.10   30.20
   7   1  -1   -9.20   14.00
   7   1  -1    9.50   10.90
   7   1  -1  -21.80   20.80
   7   1  -1  -12.10   25.00
  -7  -1   1    5.20   11.60
  -7  -1   1   -6.50   10.60
  -7  -1   1  -13.70   15.80
   6   1  -1  265.47   22.20
   6   1  -1  201.78   26.80
   6   1  -1  276.87   19.60
  -6  -1   1  292.57   26.10
  -6  -1   1  266.27   20.30
  -6  -1   1  298.27   19.30
  -6  -1   1  288.37   19.90
   5   1  -1  299.37   18.20
   5   1  -1  307.17   19.90
   5   1  -1  331.47   25.60
  -5  -1   1  311.27   16.80
  -5  -1   1  309.67   18.80
  -5  -1   1  269.47   21.50
  -5  -1   1  303.57   18.20
   4   1  -1  638.84   25.50
   4   1  -1  648.94   26.90
   4   1  -1  685.73   31.30
  -4  -1   1  644.44   26.20
  -4  -1   1  650.03   25.70
  -4  -1   1  714.03   30.10
  -4  -1   1  643.24   23.70
   3   1  -1 4431.76  109.69
   3   1  -1 4181.08  116.99
   3   1  -1 4343.57  120.49
   3   1  -1 4259.07  116.29
  -3  -1   1 4201.48  116.49
  -3  -1   1 4226.58  119.59
  -3  -1   1 4508.95  119.79
  -3  -1   1 4106.79  112.79
  -3  -1   1 4292.37  116.09
   2   1  -1  688.43   24.70
   2   1  -1  670.53   22.90
   2   1  -1  667.83   23.30
  -2  -1   1  654.33   18.20
  -2  -1   1  675.23   23.80
  -2  -1   1  645.24   22.50
  -2  -1   1  654.03   19.50
  -2  -1   1  664.93   24.30
  -2  -1   1  663.73   23.30
   1   1  -1   70.79    5.50
   1   1  -1   72.49    5.60
   1   1  -1   66.89    5.30
  -1  -1   1   65.59    5.80
  -1  -1   1   68.59    5.20
  -1  -1   1   73.59    5.70
   0   1  -1 1459.95   38.40
   0   1  -1 1362.56   37.80
   0   1  -1 1338.07   36.60
   0   1  -1 1387.86   37.90
   0   1  -1 1335.57   37.50
   0  -1   1 1354.36   37.50
   0  -1   1 1338.87   36.60
  -1   1  -1 3453.25   93.29
  -1   1  -1 3483.15   92.59
  -1   1  -1 3440.36   90.99
  -1   1  -1 3346.27   90.89
  -1   1  -1 3888.61   93.99
   1  -1   1 3459.35   92.79
   1  -1   1 3438.76   90.89
   1  -1   1 3511.35   93.39
   1  -1   1 3385.76   91.19
   1  -1   1 3882.51   93.99
  -2   1  -1 8416.96  220.98
  -2   1  -1 8491.55  220.38
  -2   1  -1 9044.70  219.38
   2  -1   1 8599.24  220.48
   2  -1   1 8418.26  219.28
   2  -1   1 7938.11  215.78
   2  -1   1 8381.46  220.68
  -3   1  -1   24.90    6.60
  -3   1  -1   25.60    5.20
  -3   1  -1   18.60    3.30
  -3   1  -1   23.80    5.70
   3  -1   1   45.30    6.80
   3  -1   1   24.80    5.60
   3  -1   1   25.60    3.40
   3  -1   1   20.70    3.40
   3  -1   1   35.00    5.80
  -4   1  -1   28.80    8.50
  -4   1  -1    7.00    6.10
  -4   1  -1   -2.90    3.10
  -4   1  -1    1.70    5.50
   4  -1   1   18.50    6.70
   4  -1   1    8.60    7.70
   4  -1   1    7.90    6.40
   4  -1   1    6.10    3.90
  -5   1  -1  232.48   19.10
  -5   1  -1  193.08   11.90
  -5   1  -1  200.28   12.10
  -5   1  -1  221.88   17.10
   5  -1   1  215.98   22.50
   5  -1   1  194.38   13.10
   5  -1   1  214.58   11.60
   5  -1   1  206.68    9.50
   5  -1   1  193.98   22.80
  -6   1  -1  200.98   21.60
  -6   1  -1  188.18   13.60
  -6   1  -1  205.78   20.50
   6  -1   1  221.98   13.20
   6  -1   1  162.68   21.50
   6  -1   1  194.48   15.30
   6  -1   1  210.78    8.10
  -7   1  -1  388.56   19.60
  -7   1  -1  357.06   28.50
  -7   1  -1  318.47   36.00
  -7   1  -1  337.07   16.60
   7  -1   1  373.06   22.20
   7  -1   1  336.57   34.40
   7  -1   1  324.17   32.70
   7  -1   1  393.96   34.40
   7  -1   1  388.06   19.00
  -8   1  -1    5.90    7.50
  -8   1  -1   -2.60   18.10
  -8   1  -1  -17.70   20.80
  -8   1  -1   -4.60    8.50
   8  -1   1   17.90   13.20
   8  -1   1  -15.80   18.10
   8  -1   1    2.70    9.40
   8   0  -1   58.89   15.10
  -8   0   1   20.10   19.60
  -8   0   1   45.70   10.40
  -8   0   1   47.80   11.80
   7   0  -1  272.87   18.70
   7   0  -1  273.17   21.00
  -7   0   1  267.47   18.20
  -7   0   1  288.47   29.10
  -7   0   1  319.77   22.80
   6   0  -1  852.11   33.60
   6   0  -1  920.01   32.30
  -6   0   1  905.61   41.60
  -6   0   1  883.21   34.70
  -6   0   1  854.51   30.70
  -6   0   1  898.21   31.60
   5   0  -1  -12.40    6.80
   5   0  -1    1.10    8.10
   5   0  -1   -3.50    5.20
   5   0  -1   -0.50    4.90
  -5   0   1    0.70    4.80
  -5   0   1    1.70    4.60
  -5   0   1    9.00    6.30
  -5   0   1   -1.50    6.00
   4   0  -1 8648.13  226.48
   4   0  -1 8996.40  235.28
   4   0  -1 9006.60  224.58
   4   0  -1 8766.52  227.48
   4   0  -1 8666.93  232.28
   4   0  -1 8563.34  227.78
  -4   0   1 8643.64  232.98
  -4   0   1 8644.74  226.18
  -4   0   1 8547.94  227.68
  -4   0   1 8678.63  226.08
   3   0  -1 1739.23   50.49
   3   0  -1 1719.83   55.19
   3   0  -1 1745.53   50.49
   3   0  -1 1833.22   50.19
   3   0  -1 1685.33   53.29
   3   0  -1 1927.11   49.30
   3   0  -1 1777.22   46.70
  -3   0   1 1803.92   50.09
  -3   0   1 1768.72   50.59
  -3   0   1 1820.12   54.09
  -3   0   1 1799.82   49.80
  -3   0   1 1781.42   55.09
   2   0  -1 4628.44  108.29
   2   0  -1 4099.09  108.69
   2   0  -1 4166.58  108.69
   2   0  -1 4154.68  106.99
   2   0  -1 4038.40  110.69
   2   0  -1 4217.78  112.39
  -2   0   1 4231.88  108.89
  -2   0   1 4157.18  108.39
  -2   0   1 4071.79  111.99
  -2   0   1 3983.30  110.79
  -2   0   1 4188.78  107.39
   1   0  -1 6119.89  151.58
   1   0  -1 5904.21  150.88
  -1   0   1 5546.15  150.88
  -1   0  -1 4907.91  129.19
  -1   0  -1 4989.50  127.59
  -1   0  -1 4980.60  127.49
   1   0   1 5043.50  127.79
   1   0   1 4805.02  129.09
  -2   0  -1  432.16   17.10
  -2   0  -1  416.56   15.30
  -2   0  -1  456.15   14.00
  -2   0  -1  432.66   15.10
  -2   0  -1  444.46   18.00
   2   0   1  414.16   17.70
   2   0   1  450.05   13.10
   2   0   1  428.06   15.70
   2   0   1  433.56   15.10
  -3   0  -1  577.44   21.00
  -3   0  -1  578.74   24.90
  -3   0  -1  572.14   22.90
  -3   0  -1  620.84   18.10
  -3   0  -1  613.64   23.60
   3   0   1  583.54   21.80
   3   0   1  584.44   25.30
   3   0   1  601.74   20.80
   3   0   1  594.94   17.00
   3   0   1  564.94   24.50
  -4   0  -1  204.68   12.70
  -4   0  -1  196.28   15.10
  -4   0  -1  217.98   16.50
  -4   0  -1  153.38   16.70
  -4   0  -1  200.98    7.80
   4   0   1  206.88   16.50
   4   0   1  189.38   16.10
   4   0   1  199.48   13.40
   4   0   1  192.68   11.80
   4   0   1  198.08    6.20
  -5   0  -1  434.56   20.60
  -5   0  -1  388.06   20.30
  -5   0  -1  450.65   27.20
  -5   0  -1  465.25   24.20
   5   0   1  447.46   26.60
   5   0   1  408.76   25.80
   5   0   1  448.76   22.50
  -6   0  -1  211.48   17.70
  -6   0  -1  253.17   21.40
  -6   0  -1  198.58   23.50
   6   0   1  181.58   18.40
  -7   0  -1  293.57   27.30
  -7   0  -1  352.46   23.80
  -7   0  -1  356.46   24.20
  -7   0  -1  323.87   31.90
   7   0   1  346.97   21.80
   7   0   1  278.57   34.20
   7   0   1  344.57   26.70
   8  -1  -1  160.68   18.00
   8  -1  -1  142.29   13.80
   8  -1  -1  110.39   30.80
   8  -1  -1  100.79   29.50
  -8   1   1  125.79    8.30
  -8   1   1  114.19   23.60
  -8   1   1  125.39    8.00
   7  -1  -1  238.08   25.40
   7  -1  -1  204.38   15.20
  -7   1   1  195.18   10.90
  -7   1   1  203.78   24.10
  -7   1   1  190.28   10.20
   6  -1  -1 1229.28   37.20
   6  -1  -1 1200.78   38.50
   6  -1  -1 1266.27   48.50
   6  -1  -1 1289.97   45.60
   6  -1  -1 1200.88   35.40
   6  -1  -1 1193.48   51.19
   6  -1  -1 1275.37   50.79
  -6   1   1 1184.98   35.30
  -6   1   1 1268.77   49.40
  -6   1   1 1247.48   35.90
  -6   1   1 1211.48   44.10
   5  -1  -1  498.25   26.70
   5  -1  -1  505.35   23.30
   5  -1  -1  508.55   17.60
   5  -1  -1  506.45   17.60
   5  -1  -1  505.75   18.70
   5  -1  -1  514.05   27.80
  -5   1   1  521.85   16.80
  -5   1   1  531.25   23.30
  -5   1   1  505.75   25.80
  -5   1   1  497.85   16.50
  -5   1   1  524.45   19.30
   4  -1  -1 5539.25  147.59
   4  -1  -1 5946.80  156.78
   4  -1  -1 5453.45  148.49
   4  -1  -1 6013.70  157.68
   4  -1  -1 5467.15  146.99
   4  -1  -1 5730.53  153.08
   4  -1  -1 5915.71  155.38
  -4   1   1 5868.11  153.28
  -4   1   1 5794.62  156.08
  -4   1   1 5831.02  149.88
  -4   1   1 5466.35  146.19
  -4   1   1 5437.26  146.09
   3  -1  -1  102.89    8.20
   3  -1  -1  111.09    7.00
   3  -1  -1  105.29    4.70
   3  -1  -1  100.39    4.60
   3  -1  -1   98.49    9.00
   3  -1  -1  106.79    8.20
   3  -1  -1  101.89    8.30
  -3   1   1  107.89    8.30
  -3   1   1  111.79    8.80
  -3   1   1  104.29    3.90
  -3   1   1   97.89    7.80
  -3   1   1  103.49    3.70
  -3   1   1  102.09    7.30
   2  -1  -1  919.81   27.30
   2  -1  -1  897.71   23.80
   2  -1  -1  939.81   28.00
   2  -1  -1  915.21   27.60
   2  -1  -1  890.41   28.80
   2  -1  -1  901.31   28.40
   2  -1  -1  815.22   24.10
  -2   1   1  943.51   28.80
  -2   1   1  983.10   27.70
  -2   1   1  919.51   27.90
  -2   1   1  921.11   28.30
   1  -1  -1 4137.09   99.49
   1  -1  -1 3736.13   97.79
   1  -1  -1 3643.04   97.19
   1  -1  -1 3694.03   99.09
  -1   1   1 4030.90   99.19
  -1   1   1 3698.43   97.39
  -1   1   1 3665.03   97.59
  -1   1   1 3663.93   99.09
   0  -1  -1  105.09    5.20
   0  -1  -1   98.19    5.50
   0  -1  -1   91.09    5.60
   0   1   1  108.69    4.90
   0   1   1  101.39    5.80
   0   1   1   95.69    5.20
   0   1   1  102.09    5.60
  -1  -1  -1 2661.53   71.19
  -1  -1  -1 2576.34   71.09
  -1  -1  -1 2776.62   67.49
  -1  -1  -1 2460.55   67.69
  -1  -1  -1 2619.44   71.59
   1   1   1 2580.14   70.79
   1   1   1 2485.95   68.49
   1   1   1 2608.34   71.69
  -2  -1  -1  450.35   19.10
  -2  -1  -1  420.06   12.70
  -2  -1  -1  421.96   17.60
  -2  -1  -1  445.36   17.90
   2   1   1  404.56   18.00
   2   1   1  448.46   17.60
   2   1   1  455.25   19.30
  -3  -1  -1 2636.74   79.09
  -3  -1  -1 2726.13   78.79
  -3  -1  -1 2793.82   79.29
  -3  -1  -1 2871.31   83.09
   3   1   1 2799.92   80.79
   3   1   1 2834.52   83.29
   3   1   1 2720.03   78.59
  -4  -1  -1  704.43   28.70
  -4  -1  -1  732.13   29.00
  -4  -1  -1  709.53   28.00
  -4  -1  -1  732.03   32.20
   4   1   1  688.63   29.90
   4   1   1  737.03   33.90
   4   1   1  722.83   28.10
  -5  -1  -1   -2.10    8.10
  -5  -1  -1    4.50    9.40
  -5  -1  -1    5.00    8.20
  -5  -1  -1    5.10    7.50
   5   1   1   -4.40   13.50
   5   1   1  -10.50    8.70
   5   1   1   -3.40    7.30
  -6  -1  -1  488.85   25.80
  -6  -1  -1  501.45   28.80
  -6  -1  -1  493.05   29.20
   6   1   1  506.05   31.30
   6   1   1  522.15   27.00
  -7  -1  -1  -22.60   15.40
  -7  -1  -1   10.20   12.00
  -7  -1  -1   -0.60   18.60
  -7  -1  -1   11.70   16.20
   7   1   1    6.60   18.30
   8  -2  -1    2.40    3.10
   8  -2  -1    8.70    3.30
   8  -2  -1   28.90   16.10
   8  -2  -1  -25.20   20.50
   8  -2  -1  -40.70   16.90
   8  -2  -1    4.30    4.90
   8  -2  -1   -3.10   23.10
  -8   2   1    8.60   16.80
   7  -2  -1   -9.30   15.60
   7  -2  -1    6.80    3.40
   7  -2  -1    6.50    3.20
   7  -2  -1    9.50   15.50
   7  -2  -1    9.80    6.20
   7  -2  -1    2.90   11.70
  -7   2   1    2.00    7.80
  -7   2   1    8.10   12.20
   6  -2  -1   60.69   12.00
   6  -2  -1   55.19    4.40
   6  -2  -1   55.29    8.20
   6  -2  -1   55.89   14.90
   6  -2  -1   55.29    3.90
   6  -2  -1   45.80   12.80
   6  -2  -1   51.39   14.00
  -6   2   1   35.90   11.90
  -6   2   1   72.99   10.40
   5  -2  -1 1646.64   55.99
   5  -2  -1 1637.04   53.89
   5  -2  -1 1611.54   49.10
   5  -2  -1 1559.44   52.69
   5  -2  -1 1634.54   55.79
  -5   2   1 1570.74   49.80
  -5   2   1 1614.84   54.99
   4  -2  -1 1507.95   49.60
   4  -2  -1 1520.05   49.20
   4  -2  -1 1528.05   50.29
   4  -2  -1 1555.14   46.90
   4  -2  -1 1520.35   49.10
  -4   2   1 1556.04   47.50
   3  -2  -1 2853.91   77.99
   3  -2  -1 2752.22   74.89
   3  -2  -1 2681.93   77.39
   3  -2  -1 2884.61   78.99
   3  -2  -1 2829.72   77.99
   3  -2  -1 2817.62   79.19
   3  -2  -1 2712.13   70.89
   3  -2  -1 2577.74   70.59
  -3   2   1 2889.81   78.39
  -3   2   1 2775.12   78.39
   2  -2  -1  500.95   16.90
   2  -2  -1  490.05   15.80
   2  -2  -1  525.15   16.10
   2  -2  -1  546.45   19.10
  -2   2   1  531.15   19.30
  -2   2   1  505.15   15.20
  -2   2   1  516.05   17.00
  -2   2   1  495.05   16.00
  -2   2   1  532.85   19.40
   1  -2  -1  108.79    6.60
   1  -2  -1  100.79    6.80
   1  -2  -1  103.09    7.10
  -1   2   1  114.29    7.10
  -1   2   1  100.99    7.50
  -1   2   1  114.59    3.90
  -1   2   1  103.89    5.00
   0  -2  -1  229.28   11.30
   0  -2  -1  228.58   10.60
   0  -2  -1  232.98   11.70
   0   2   1  219.48   11.60
   0   2   1  225.38   11.30
   0   2   1  237.58   11.40
  -1  -2  -1  204.18   12.30
  -1  -2  -1  191.18    9.10
  -1  -2  -1  204.28   10.00
  -1  -2  -1  173.78   11.20
   1   2   1  182.58   10.60
   1   2   1  207.38    8.30
   1   2   1  198.48   12.40
   1   2   1  180.08   11.30
  -2  -2  -1 1502.75   48.00
  -2  -2  -1 1452.05   47.70
  -2  -2  -1 1441.26   40.80
  -2  -2  -1 1540.85   48.90
  -2  -2  -1 1576.34   40.00
   2   2   1 1451.25   47.30
   2   2   1 1465.15   48.90
   2   2   1 1463.65   47.70
  -3  -2  -1    0.70    7.20
  -3  -2  -1    1.20    1.30
  -3  -2  -1   -7.30    5.70
  -3  -2  -1   -1.90    6.80
   3   2   1   -6.00    7.90
   3   2   1   -8.90    6.90
   3   2   1    2.20    6.40
  -4  -2  -1   -3.10    8.70
  -4  -2  -1   -3.80    8.50
  -4  -2  -1    3.60    7.50
  -4  -2  -1   12.00    7.20
   4   2   1    2.70    7.40
   4   2   1    0.00   10.40
   4   2   1  -22.60    8.70
  -5  -2  -1   23.10   13.00
  -5  -2  -1   24.90   13.40
  -5  -2  -1   23.90   10.50
  -5  -2  -1   17.00   11.20
   5   2   1   12.40   16.50
   5   2   1   12.50   10.00
   5   2   1   10.30   14.10
  -6  -2  -1  691.23   35.10
  -6  -2  -1  720.73   42.40
  -6  -2  -1  742.13   35.80
  -6  -2  -1  689.53   40.00
   6   2   1  728.43   43.00
   6   2   1  782.02   51.39
   6   2   1  724.53   35.40
   8  -3  -1  101.49   25.50
   8  -3  -1   63.69   16.10
   8  -3  -1   34.10   17.60
   8  -3  -1   55.29   10.80
   8  -3  -1   44.10   18.90
   8  -3  -1   67.69   23.20
  -8   3   1   65.09   13.00
   7  -3  -1  523.25   35.10
   7  -3  -1  440.26   30.50
   7  -3  -1  522.05   31.40
   7  -3  -1  532.25   24.70
   7  -3  -1  483.25   27.60
   7  -3  -1  460.85   34.10
  -7   3   1  517.55   25.70
   6  -3  -1 1253.17   43.70
   6  -3  -1 1230.48   42.60
   6  -3  -1 1201.88   46.50
  -6   3   1 1174.78   43.10
   5  -3  -1  283.47   18.80
   5  -3  -1  265.07   15.40
   5  -3  -1  278.97   20.90
   5  -3  -1  276.87   16.90
   5  -3  -1  284.97   18.20
   5  -3  -1  269.47   18.90
  -5   3   1  285.37   17.30
   4  -3  -1 1296.97   43.00
   4  -3  -1 1279.97   39.10
   4  -3  -1 1240.68   33.40
   4  -3  -1 1283.37   42.10
   4  -3  -1 1267.27   43.80
  -4   3   1 1264.67   43.20
  -4   3   1 1248.38   42.50
   3  -3  -1  713.03   22.10
   3  -3  -1  702.03   27.40
   3  -3  -1  695.53   22.50
   3  -3  -1  671.23   21.80
   3  -3  -1  702.13   24.00
  -3   3   1  728.63   27.90
  -3   3   1  728.63   22.10
  -3   3   1  723.63   26.40
   2  -3  -1 8215.68  211.48
   2  -3  -1 7489.15  210.18
   2  -3  -1 8082.99  211.58
  -2   3   1 8168.48  211.78
  -2   3   1 8070.99  208.68
  -2   3   1 8837.42  215.98
   1  -3  -1 1298.17   41.20
   1  -3  -1 1332.77   44.10
  -1   3   1 1282.37   41.50
  -1   3   1 1304.17   40.60
  -1   3   1 1366.76   41.80
   0  -3  -1  242.28   14.40
   0  -3  -1  234.88   14.10
   0  -3  -1  232.08   13.00
   0   3   1  230.98   10.00
   0   3   1  241.48   14.90
   0   3   1  246.08   12.30
   0   3   1  237.88   13.80
  -1  -3  -1  312.87   17.80
  -1  -3  -1  332.67   18.40
  -1  -3  -1  329.37   14.90
   1   3   1  328.07   17.80
   1   3   1  315.17   19.00
   1   3   1  332.27   15.30
  -2  -3  -1 2373.66   64.89
  -2  -3  -1 2327.97   71.59
  -2  -3  -1 2217.18   70.69
  -2  -3  -1 2261.37   71.19
  -2  -3  -1 2206.88   62.89
   2   3   1 2185.98   68.99
   2   3   1 2328.67   73.09
   2   3   1 2285.97   70.79
  -3  -3  -1  201.58   17.50
  -3  -3  -1  166.88    8.30
  -3  -3  -1  188.08   17.30
  -3  -3  -1  194.48   18.30
   3   3   1  170.18   16.30
   3   3   1  193.18   18.70
   3   3   1  193.38   20.30
  -4  -3  -1  118.49   18.00
  -4  -3  -1  128.89   14.90
  -4  -3  -1  123.19   17.80
  -4  -3  -1  106.89   16.10
   4   3   1  127.79   19.40
   4   3   1  125.49   16.70
   4   3   1  120.89   20.20
  -5  -3  -1   53.29   13.10
  -5  -3  -1   46.70   15.20
  -5  -3  -1   78.59   19.00
  -5  -3  -1   44.00   16.40
   5   3   1   58.29   20.40
   5   3   1   53.69   14.30
   9  -4  -1   41.80   14.60
   9  -4  -1   25.00   33.80
   9  -4  -1   30.40   24.60
   9  -4  -1   16.90   25.20
   9  -4  -1   -2.70   30.10
   9  -4  -1   47.50   31.70
  -9   4   1   29.00   14.00
   8  -4  -1  397.96   36.20
   8  -4  -1  421.56   35.70
   8  -4  -1  437.16   27.40
   8  -4  -1  470.25   39.60
   8  -4  -1  397.06   33.40
   8  -4  -1  368.06   28.90
  -8   4   1  455.25   27.40
   7  -4  -1  181.38   19.30
   7  -4  -1  208.18   18.90
   7  -4  -1  218.68   26.30
   7  -4  -1  201.18   22.20
   7  -4  -1  202.68   26.50
   7  -4  -1  229.98   26.10
  -7   4   1  205.48   19.70
   6  -4  -1  266.97   21.90
   6  -4  -1  337.37   22.00
   6  -4  -1  323.87   23.70
   6  -4  -1  276.67   23.90
   6  -4  -1  309.67   18.90
  -6   4   1  312.37   20.60
   5  -4  -1    3.50    6.90
   5  -4  -1   13.10    8.50
   5  -4  -1    6.60    7.30
   5  -4  -1   -1.20    5.10
   5  -4  -1    2.80    1.90
   5  -4  -1    8.70    7.70
   5  -4  -1    1.90    1.80
   5  -4  -1   -6.10    7.20
  -5   4   1   -5.50    6.20
   4  -4  -1 5765.92  153.38
   4  -4  -1 5930.81  157.38
   4  -4  -1 6010.30  163.28
   4  -4  -1 5747.32  153.28
   4  -4  -1 5850.92  155.28
  -4   4   1 5796.12  152.68
  -4   4   1 6059.39  160.38
  -4   4   1 5851.71  162.98
   3  -4  -1 3112.29   86.29
   3  -4  -1 3132.79   84.39
   3  -4  -1 3111.19   83.99
   3  -4  -1 3124.09   86.59
  -3   4   1 3192.88   89.69
  -3   4   1 3164.38   92.49
  -3   4   1 3137.09   83.99
  -3   4   1 3078.69   86.39
  -3   4   1 3133.89   86.69
   2  -4  -1 1040.00   35.40
   2  -4  -1 1030.90   35.10
  -2   4   1 1062.39   34.80
  -2   4   1 1101.39   38.20
  -2   4   1 1021.90   35.60
  -2   4   1  987.60   31.60
   1  -4  -1 3093.99   88.59
   1  -4  -1 3040.10   87.89
  -1   4   1 3022.60   87.39
  -1   4   1 3062.99   87.99
  -1   4   1 2984.60   88.59
   0  -4  -1  245.18   17.00
   0  -4  -1  213.68   14.20
   0   4   1  255.47   16.70
   0   4   1  189.18   10.50
   0   4   1  252.67   17.90
   0   4   1  218.18   13.90
  -1  -4  -1  878.91   32.30
  -1  -4  -1  954.50   37.50
  -1  -4  -1  931.11   37.60
   1   4   1  920.51   31.00
   1   4   1  948.61   39.10
   1   4   1  931.71   36.90
   1   4   1  889.91   32.30
  -2  -4  -1   21.00   10.30
  -2  -4  -1   28.10   10.40
  -2  -4  -1    3.30    5.20
   2   4   1   -2.30    8.30
   2   4   1  -11.70    7.60
   2   4   1   -6.60   10.00
   2   4   1   -2.50    7.80
  -3  -4  -1  138.89    9.80
  -3  -4  -1  150.68   19.90
  -3  -4  -1  142.89   19.00
   3   4   1  105.79   17.20
   3   4   1  159.38   21.50
   3   4   1  138.29   19.50
  -4  -4  -1   88.39   14.20
  -4  -4  -1   50.49   17.80
  -4  -4  -1   97.49   23.60
  -4  -4  -1  105.79   18.80
   4   4   1  102.79   21.10
   4   4   1   56.59   24.60
   4   4   1   49.80   20.30
  -5  -4  -1  299.57   32.00
  -5  -4  -1  251.17   30.30
  -5  -4  -1  365.26   27.30
   5   4   1  292.77   29.20
   5   4   1  367.36   43.10
   5   4   1  331.07   41.70
   9  -5  -1   48.70   26.00
   9  -5  -1   26.30   30.10
   9  -5  -1   58.59   17.30
   9  -5  -1   67.59   34.70
   9  -5  -1   66.79   28.60
   9  -5  -1   35.90   19.70
  -9   5   1   50.59   16.70
   8  -5  -1  132.39   24.00
   8  -5  -1  147.09   27.30
   8  -5  -1  221.68   24.30
   8  -5  -1  198.18   24.70
   8  -5  -1  125.39   24.80
   8  -5  -1  137.49   23.10
  -8   5   1  197.28   22.20
   7  -5  -1   37.20   14.60
   7  -5  -1   24.40   11.80
   7  -5  -1   -7.20   13.50
   7  -5  -1   11.90   16.50
   7  -5  -1   31.60   16.10
   7  -5  -1   20.30   12.40
  -7   5   1   20.50   12.00
   6  -5  -1  202.38   19.80
   6  -5  -1  133.39   18.40
   6  -5  -1  177.78   15.60
   6  -5  -1  199.58   19.60
   6  -5  -1  221.88   22.50
   6  -5  -1  164.68    5.90
   6  -5  -1  166.38   21.60
   6  -5  -1  179.08    6.10
  -6   5   1  171.28   18.60
   5  -5  -1   -0.10    6.90
   5  -5  -1   11.60    6.00
   5  -5  -1  -10.10    9.70
   5  -5  -1   -1.70    4.00
   5  -5  -1    2.80    4.10
  -5   5   1    1.30    3.20
  -5   5   1   14.70    9.40
  -5   5   1   -8.80    7.00
   4  -5  -1 2423.36   66.49
   4  -5  -1 2335.67   67.39
   4  -5  -1 2237.08   65.89
   4  -5  -1 2323.47   67.59
   4  -5  -1 2356.36   75.39
  -4   5   1 2300.67   75.59
  -4   5   1 2341.27   66.19
  -4   5   1 2205.38   70.59
  -4   5   1 2377.66   65.29
  -4   5   1 2370.56   67.29
  -3   5   1  297.17   19.70
   2  -5  -1   21.40    7.60
   2  -5  -1   19.80    7.00
  -2   5   1   14.50    6.90
  -2   5   1   17.90    8.60
  -2   5   1   30.00    7.90
  -2   5   1   12.50    5.10
   1  -5  -1 3002.70   92.29
   1  -5  -1 3193.18   93.69
   1  -5  -1 2940.71   91.99
  -1   5   1 3148.98   94.19
  -1   5   1 3160.18   92.39
  -1   5   1 3126.49   88.99
  -1   5   1 3134.79   92.49
   0  -5  -1   18.90    8.20
   0  -5  -1    2.10    9.10
   0  -5  -1    8.30    8.70
   0   5   1   32.00    9.00
   0   5   1   24.60    5.80
   0   5   1   40.30   10.00
   0   5   1   29.60   11.20
  -1  -5  -1  103.39   15.90
   1   5   1  104.09   16.70
   1   5   1  136.69   12.30
   1   5   1  100.69   15.60
   1   5   1  106.09   13.00
  -2  -5  -1  469.85   22.20
  -2  -5  -1  480.65   30.80
  -2  -5  -1  447.16   31.20
   2   5   1  504.95   27.70
   2   5   1  489.45   29.90
   2   5   1  496.75   20.30
   2   5   1  455.85   33.30
  -3  -5  -1  177.78   12.90
  -3  -5  -1  197.78   23.90
   3   5   1  184.28   27.70
   3   5   1  151.38   22.60
  -4  -5  -1   10.30   17.80
  -4  -5  -1   -2.40   12.60
  -4  -5  -1   21.50   17.00
   4   5   1  -32.10   15.90
   4   5   1  -13.00   24.10
   4   5   1   19.00   27.40
   8  -6  -1  149.88   24.70
   8  -6  -1  137.49   23.60
   8  -6  -1  134.49   19.80
   8  -6  -1  172.28   29.50
   8  -6  -1  143.99   23.60
  -8   6   1  188.28   22.90
   7  -6  -1   74.49   17.10
   7  -6  -1   65.99   19.90
   7  -6  -1   66.99   13.40
   7  -6  -1   65.79   17.20
   7  -6  -1   79.29   21.00
  -7   6   1   66.69   16.90
   6  -6  -1  325.27   25.10
   6  -6  -1  288.27   21.20
   6  -6  -1  309.57   19.40
   6  -6  -1  297.27   14.20
   6  -6  -1  286.57   25.20
   6  -6  -1  299.77   14.40
   6  -6  -1  264.17   28.00
  -6   6   1  299.87   24.90
  -6   6   1  311.37   11.50
  -6   6   1  299.77   11.20
   5  -6  -1  286.77   16.10
   5  -6  -1  259.67   21.60
   5  -6  -1  275.27   16.10
   5  -6  -1  271.57   16.00
   5  -6  -1  272.57   16.10
  -5   6   1  230.88   18.40
  -5   6   1  251.57   20.60
  -5   6   1  257.67   14.20
  -5   6   1  250.57   15.20
   4  -6  -1  128.89   15.50
   4  -6  -1  120.29   13.60
   4  -6  -1  114.79    8.20
   4  -6  -1  139.89   14.30
  -4   6   1  135.29   10.90
  -4   6   1  142.09   17.40
  -4   6   1  140.69   13.30
  -4   6   1  147.99   14.10
  -4   6   1  158.18   15.40
   3  -6  -1   40.70    9.60
   3  -6  -1   26.40    9.00
  -3   6   1   38.40    9.40
  -3   6   1   14.40    9.20
  -3   6   1   33.20    7.30
   2  -6  -1  168.58   18.40
   2  -6  -1  143.59   17.10
   2  -6  -1  158.48   16.80
  -2   6   1  157.28   13.90
  -2   6   1  134.69   16.40
  -2   6   1  135.79   15.70
  -2   6   1  137.19   17.60
   1  -6  -1  300.07   22.60
   1  -6  -1  277.27   21.30
   1  -6  -1  274.97   22.60
  -1   6   1  251.57   19.20
  -1   6   1  262.67   18.10
  -1   6   1  252.17   23.30
  -1   6   1  277.27   21.40
   0  -6  -1  879.21   37.60
   0  -6  -1  834.52   41.00
   0  -6  -1  877.01   40.90
   0   6   1  987.60   41.80
   0   6   1  954.90   50.59
   0   6   1  872.51   36.20
  -1  -6  -1  112.09   19.80
  -1  -6  -1  122.39   19.70
  -1  -6  -1   96.59   14.50
   1   6   1  113.09   21.20
   1   6   1   95.09   18.10
   1   6   1  109.19   14.20
   1   6   1   80.19   12.80
  -2  -6  -1    7.90   10.30
  -2  -6  -1    5.00   18.60
  -2  -6  -1   18.50   14.90
   2   6   1   14.10   14.70
   2   6   1  -15.30   15.50
   2   6   1   25.50    9.50
   2   6   1   35.10   21.10
  -3  -6  -1   45.40    9.90
  -3  -6  -1   40.80   20.20
  -3  -6  -1   61.09   18.80
   3   6   1   49.70   23.20
   3   6   1   68.69   28.70
   3   6   1   37.00   18.40
   8  -7  -1    9.00   31.80
   8  -7  -1   74.29   23.00
   8  -7  -1    4.60   14.20
   8  -7  -1   -9.50   19.40
   8  -7  -1   16.70   28.10
  -8   7   1  -26.10   13.70
   7  -7  -1   23.40   17.40
   7  -7  -1   26.30   11.90
   7  -7  -1   17.40   21.60
   7  -7  -1   17.80    6.20
   7  -7  -1   45.50   17.30
   7  -7  -1   24.20    6.50
   7  -7  -1   50.39   15.40
  -7   7   1   19.70   15.20
   6  -7  -1   24.20    8.20
   6  -7  -1   21.30   15.90
   6  -7  -1   45.30   10.00
   6  -7  -1   28.20   10.20
   6  -7  -1   41.60    8.90
  -6   7   1   13.70   13.10
  -6   7   1   17.40   12.60
   5  -7  -1  880.51   43.60
   5  -7  -1  834.02   28.70
   5  -7  -1  875.91   34.90
   5  -7  -1  933.91   35.80
  -5   7   1  856.61   37.20
  -5   7   1  883.51   35.00
  -5   7   1  884.21   30.90
  -5   7   1  864.81   33.50
  -5   7   1  807.12   42.10
   4  -7  -1 1141.89   43.40
   4  -7  -1 1134.79   43.50
   4  -7  -1 1102.99   47.00
   4  -7  -1 1142.29   49.80
  -4   7   1 1064.39   47.70
  -4   7   1 1141.69   41.90
  -4   7   1 1134.59   43.90
  -4   7   1 1107.49   38.10
  -4   7   1 1135.69   44.00
   3  -7  -1  243.18   22.90
   3  -7  -1  255.77   22.60
   3  -7  -1  251.87   23.80
  -3   7   1  276.07   21.90
  -3   7   1  299.17   18.50
  -3   7   1  292.67   25.00
   2  -7  -1  889.31   40.60
   2  -7  -1  833.12   41.00
   2  -7  -1  829.02   39.90
  -2   7   1  863.21   35.30
  -2   7   1  837.52   39.60
  -2   7   1  862.71   39.00
   1  -7  -1   61.19   14.80
   1  -7  -1   58.39   16.90
   1  -7  -1   49.80   14.20
  -1   7   1   68.19   18.50
  -1   7   1   38.80   14.50
  -1   7   1   33.20   12.00
  -1   7   1   50.39   13.90
   0  -7  -1   17.80   12.80
   0  -7  -1   19.00   14.60
   0  -7  -1   39.90   17.50
   0   7   1   13.30   15.30
   0   7   1   28.30   14.40
   0   7   1   18.60   19.80
   0   7   1   18.50   12.00
  -1  -7  -1  411.06   28.10
  -1  -7  -1  431.26   38.90
   1   7   1  405.36   34.50
   1   7   1  481.35   42.40
   1   7   1  373.86   24.30
  -2  -7  -1   26.60   20.30
  -2  -7  -1    1.60   17.80
  -2  -7  -1   18.40   13.30
   2   7   1   17.40   30.90
   2   7   1   15.50   19.70
   2   7   1  -13.70   19.50
   7  -8  -1  346.07   23.40
   7  -8  -1  344.17   25.50
   7  -8  -1  348.57   20.20
   7  -8  -1  329.27   39.40
   7  -8  -1  348.37   20.50
   7  -8  -1  328.97   35.80
  -7   8   1  310.67   16.90
   6  -8  -1  133.59   16.20
   6  -8  -1  154.18   24.90
   6  -8  -1  146.99   18.40
   6  -8  -1  104.49   30.40
   6  -8  -1  130.49   14.10
  -6   8   1  157.38   24.90
  -6   8   1  177.28   19.30
  -6   8   1  137.69   18.60
   5  -8  -1    9.70   12.10
   5  -8  -1   38.70   22.00
   5  -8  -1   17.90   12.30
  -5   8   1    7.40   11.10
  -5   8   1   23.80   12.90
  -5   8   1    5.30    8.80
  -5   8   1   26.60   15.20
  -5   8   1   23.40   13.70
   4  -8  -1  569.44   32.60
   4  -8  -1  536.95   32.50
   4  -8  -1  460.25   35.80
  -4   8   1  443.46   32.90
  -4   8   1  550.24   25.90
  -4   8   1  537.45   30.90
  -4   8   1  495.85   29.80
   3  -8  -1   54.89   17.90
   3  -8  -1   56.29   17.70
   3  -8  -1   33.20   15.10
  -3   8   1   58.69   13.50
  -3   8   1   51.99   15.80
  -3   8   1   41.80   14.80
   2  -8  -1  221.28   26.10
   2  -8  -1  236.08   26.40
  -2   8   1  223.38   25.50
  -2   8   1  182.58   23.20
  -2   8   1  195.78   22.40
   1  -8  -1 1244.88   56.09
   1  -8  -1 1082.19   55.49
   1  -8  -1 1149.69   52.09
  -1   8   1 1156.48   49.50
  -1   8   1 1266.27   54.99
  -1   8   1 1198.98   52.39
  -1   8   1 1147.09   59.09
   0  -8  -1  100.29   25.80
   0  -8  -1  122.69   23.90
   0  -8  -1  116.69   19.70
   0   8   1   81.29   21.60
   0   8   1  124.99   20.40
   0   8   1   94.09   31.20
   6  -9  -1   14.20   14.50
   6  -9  -1   -0.50   14.00
  -6   9   1   14.70   11.00
  -6   9   1   31.00   15.60
  -6   9   1   13.50   16.10
  -6   9   1    5.30   13.00
  -6   9   1    0.30   16.70
   5  -9  -1    4.10   15.10
   5  -9  -1   -2.20   21.60
   5  -9  -1  -21.20   16.30
   5  -9  -1  -15.60   14.40
  -5   9   1   31.30   20.30
  -5   9   1   -2.80   11.10
  -5   9   1    6.50   14.90
  -5   9   1   -7.10   14.10
  -5   9   1   19.80   18.80
   4  -9  -1  338.57   31.80
   4  -9  -1  276.07   33.90
   4  -9  -1  286.07   34.20
  -4   9   1  318.97   29.60
  -4   9   1  385.66   35.20
  -4   9   1  311.37   27.80
  -4   9   1  326.87   25.80
  -4   9   1  363.06   30.30
   3  -9  -1  102.79   24.50
   3  -9  -1   51.69   22.10
   3  -9  -1   97.19   23.90
   3  -9  -1   61.89   20.10
  -3   9   1   53.19   26.00
  -3   9   1   72.09   20.30
  -3   9   1   58.59   18.90
   2  -9  -1   43.40   22.90
   2  -9  -1   15.10   19.60
   2  -9  -1    1.50   18.70
  -2   9   1   40.50   20.70
  -2   9   1   10.60   19.70
  -2   9   1   -9.50   15.30
  -1   9  -2  323.57   30.90
  -1   9  -2  254.47   34.10
  -1   9  -2  373.86   56.99
   1  -9   2  296.67   36.10
   1  -9   2  278.97   35.00
   1  -9   2  310.67   33.10
  -2   9  -2  304.97   32.40
  -2   9  -2  220.28   28.50
  -2   9  -2  247.58   32.00
  -2   9  -2  215.38   32.10
  -2   9  -2  296.37   19.80
   2  -9   2  206.78   27.90
   2  -9   2  265.57   33.80
   2  -9   2  221.58   29.20
  -3   9  -2  507.35   22.10
  -3   9  -2  487.05   39.30
  -3   9  -2  549.15   37.90
  -3   9  -2  568.54   39.20
  -3   9  -2  520.35   38.80
   3  -9   2  554.74   37.40
   3  -9   2  527.75   37.90
  -4   9  -2  191.98   24.40
  -4   9  -2  183.18   25.40
  -4   9  -2  235.68   29.00
   4  -9   2  177.68   23.90
   4  -9   2  192.78   29.80
   4  -9   2  226.98   26.80
  -5   9  -2  295.77   28.90
  -5   9  -2  271.27   28.50
  -5   9  -2  239.48   28.90
  -5   9  -2  268.97   29.20
   5  -9   2  253.27   27.60
   5  -9   2  260.07   14.70
   5  -9   2  315.17   29.60
   5  -9   2  304.07   34.00
  -6   9  -2    1.40   13.90
  -6   9  -2    2.30   17.50
  -6   9  -2    6.80   14.60
  -6   9  -2   21.40   15.20
   6  -9   2   32.40   13.30
   6  -9   2   12.00   14.10
   6  -9   2   -4.90   15.40
   6  -9   2   28.80   15.30
   1   8  -2   63.59   28.90
   1   8  -2   52.69   25.60
   1   8  -2   62.09   17.60
   1   8  -2   24.20   21.80
  -1  -8   2   82.69   27.70
  -1  -8   2   67.59   20.60
  -1  -8   2   40.40   15.70
  -1  -8   2   48.30   21.60
   0   8  -2  361.36   41.40
   0   8  -2  491.45   38.60
   0   8  -2  401.36   29.60
   0  -8   2  437.56   37.70
   0  -8   2  427.76   37.80
  -1   8  -2  286.47   29.70
  -1   8  -2  208.58   27.60
  -1   8  -2  232.88   25.00
  -1   8  -2  211.78   29.00
   1  -8   2  217.98   26.60
   1  -8   2  220.78   33.30
   1  -8   2  245.88   25.90
  -2   8  -2  128.79   20.30
  -2   8  -2  129.59   22.30
  -2   8  -2  104.19   19.60
  -2   8  -2   98.49   12.10
   2  -8   2   88.29   19.80
   2  -8   2  138.19   20.10
   2  -8   2  126.39   19.60
  -3   8  -2 1286.77   40.30
  -3   8  -2 1289.17   50.79
  -3   8  -2 1350.56   52.79
  -3   8  -2 1252.47   56.39
   3  -8   2 1321.27   54.59
   3  -8   2 1245.78   53.69
   3  -8   2 1311.57   52.29
  -4   8  -2  675.53   41.40
  -4   8  -2  768.82   36.50
  -4   8  -2  718.63   35.00
   4  -8   2  655.43   33.70
   4  -8   2  683.63   24.20
   4  -8   2  721.33   38.10
  -5   8  -2  133.09   18.80
  -5   8  -2  123.29   16.50
  -5   8  -2   88.69   21.40
  -5   8  -2  124.99   15.90
   5  -8   2  134.69   18.80
   5  -8   2  105.99   17.80
   5  -8   2  119.09   15.50
   5  -8   2  134.09   24.70
   5  -8   2  140.39   18.30
  -6   8  -2  332.57   21.40
  -6   8  -2  270.77   31.20
  -6   8  -2  329.17   22.20
  -6   8  -2  280.07   26.70
   6  -8   2  317.67   28.60
   6  -8   2  277.07   36.50
   6  -8   2  334.67   25.30
   6  -8   2  311.67   24.90
   6  -8   2  312.57   21.00
  -7   8  -2    5.10    7.90
  -7   8  -2   29.20   19.80
  -7   8  -2    7.20    7.10
   7  -8   2  -23.00   17.70
   7  -8   2   20.30    9.10
   7  -8   2    7.10   11.90
   7  -8   2   28.60   23.80
   7  -8   2   -4.90   17.40
   2   7  -2   -3.40   23.20
   2   7  -2   39.20   19.60
   2   7  -2    9.50   21.80
   2   7  -2   12.20   12.60
  -2  -7   2   18.60   10.20
  -2  -7   2  -39.80   18.80
  -2  -7   2   -6.50   13.60
  -2  -7   2  -27.60   30.50
   1   7  -2   26.10   13.40
   1   7  -2   24.70   15.10
   1   7  -2   -1.00   18.10
  -1  -7   2   22.50   18.10
  -1  -7   2  -29.50   14.40
  -1  -7   2    6.50   10.70
   0   7  -2  681.13   35.80
   0   7  -2  728.23   38.10
   0   7  -2  715.73   38.20
   0  -7   2  699.53   39.20
   0  -7   2  630.14   37.20
   0  -7   2  614.54   30.60
  -1   7  -2   44.80   16.30
  -1   7  -2    7.50   12.20
  -1   7  -2   38.00   13.10
  -1   7  -2   23.20   13.20
   1  -7   2   31.10    6.00
   1  -7   2   42.20   11.90
   1  -7   2   45.10   14.60
   1  -7   2    2.20   12.30
  -2   7  -2  -26.60   10.50
  -2   7  -2    9.10   11.20
  -2   7  -2    4.40   12.30
  -2   7  -2   -5.20    5.80
  -2   7  -2  -17.00    9.70
   2  -7   2   16.50   11.10
   2  -7   2   -5.90   10.70
   2  -7   2    4.00    4.60
  -3   7  -2  275.97   14.00
  -3   7  -2  269.97   21.80
  -3   7  -2  255.17   24.60
  -3   7  -2  278.47   22.50
  -3   7  -2  279.17   21.60
   3  -7   2  311.57   24.10
   3  -7   2  286.07   23.80
   3  -7   2  269.77   20.90
  -4   7  -2   46.40   12.60
  -4   7  -2   38.60   11.30
  -4   7  -2   51.69   11.50
  -4   7  -2   41.40   15.60
   4  -7   2   48.10   15.70
   4  -7   2   59.09   12.50
   4  -7   2   37.60   11.20
   4  -7   2   47.20   12.30
  -5   7  -2    8.80    9.40
  -5   7  -2   -7.50    9.90
  -5   7  -2   -2.60   13.30
  -5   7  -2  -10.70    7.70
   5  -7   2   21.90   15.60
   5  -7   2   -3.90    9.10
   5  -7   2    2.80   11.60
   5  -7   2   14.10    9.10
   5  -7   2   -2.20    8.00
  -6   7  -2  146.79   17.70
  -6   7  -2  125.09   12.50
  -6   7  -2  108.29   21.80
   6  -7   2  106.99   13.70
   6  -7   2  129.49   19.30
   6  -7   2  134.59   19.00
   6  -7   2  134.89   13.30
  -7   7  -2   56.79   18.60
   7  -7   2   64.09   18.50
   7  -7   2   66.49   23.60
   7  -7   2   63.29   10.30
   7  -7   2   84.19   22.80
   7  -7   2   50.09   19.70
   3   6  -2   19.60    9.90
   3   6  -2   72.09   23.50
   3   6  -2   -1.10   17.10
  -3  -6   2   26.90   19.30
  -3  -6   2   31.40    8.00
  -3  -6   2   26.70   11.30
  -3  -6   2    3.40   16.70
   2   6  -2 1224.88   52.29
   2   6  -2 1085.29   42.60
   2   6  -2 1153.98   54.49
  -2  -6   2 1113.59   38.70
  -2  -6   2 1220.68   53.49
  -2  -6   2 1256.37   56.99
   1   6  -2   53.59   15.80
   1   6  -2   38.30   11.60
   1   6  -2   28.10   13.80
   1   6  -2   43.70   14.20
  -1  -6   2   24.80   13.70
  -1  -6   2   25.60   13.10
  -1  -6   2   34.30    9.00
  -1  -6   2   18.60    8.50
   0   6  -2  711.63   34.90
   0   6  -2  678.33   35.40
   0   6  -2  654.63   33.00
   0  -6   2  571.54   44.40
   0  -6   2  719.73   36.20
   0  -6   2  679.13   29.00
   0  -6   2  699.93   25.60
  -1   6  -2  890.31   37.30
  -1   6  -2  834.52   38.70
  -1   6  -2  935.71   39.30
  -1   6  -2  876.21   38.10
   1  -6   2  861.11   35.00
   1  -6   2  865.11   28.50
   1  -6   2  871.61   37.20
   1  -6   2  895.01   39.70
  -2   6  -2 4041.00  114.69
  -2   6  -2 3864.91  104.39
  -2   6  -2 3917.21  115.49
  -2   6  -2 3913.81  112.69
  -2   6  -2 3691.53  118.09
   2  -6   2 3822.32  114.99
   2  -6   2 4048.40  113.59
   2  -6   2 3936.51  114.09
  -3   6  -2 2690.93   90.79
  -3   6  -2 2864.71   94.09
  -3   6  -2 2906.01   86.39
  -3   6  -2 2978.80   87.29
   3  -6   2 2951.60   87.39
   3  -6   2 2903.61   85.99
   3  -6   2 2989.00   88.79
   3  -6   2 2965.40   91.09
  -4   6  -2   55.59   10.20
  -4   6  -2   42.10   14.40
  -4   6  -2   46.40    8.90
  -4   6  -2   59.49   10.30
   4  -6   2   52.69   13.20
   4  -6   2   52.19   10.40
   4  -6   2   40.70    8.60
   4  -6   2   52.29   11.10
  -5   6  -2  295.47   19.40
  -5   6  -2  291.57   15.10
  -5   6  -2  272.07   16.10
  -5   6  -2  248.38   24.50
   5  -6   2  296.37   26.50
   5  -6   2  303.67   18.50
   5  -6   2  276.27   15.40
   5  -6   2  297.87   22.30
  -6   6  -2   17.70    4.70
  -6   6  -2   26.30   15.40
  -6   6  -2   16.20    5.40
   6  -6   2   17.50    5.90
   6  -6   2   25.50   16.10
   6  -6   2   16.10    7.40
   6  -6   2   21.30   13.60
   6  -6   2   16.70   12.20
  -7   6  -2  130.89   22.90
   7  -6   2  127.39    9.10
   7  -6   2  126.39   10.70
   7  -6   2  129.79   23.00
   7  -6   2  114.89   27.90
   7  -6   2  153.98   25.20
   7  -6   2  144.49   24.30
   7  -6   2  161.68   23.50
  -8   6  -2   37.40   17.50
   8  -6   2   31.00   25.10
   8  -6   2    3.80   24.60
   8  -6   2   20.40   18.50
   8  -6   2   57.99   29.20
   8  -6   2   10.80   24.90
   4   5  -2  840.12   43.20
   4   5  -2  727.63   45.20
   4   5  -2  831.62   49.00
  -4  -5   2  815.42   44.20
  -4  -5   2  817.72   42.80
  -4  -5   2  775.62   26.50
  -4  -5   2  775.32   25.40
   3   5  -2  175.68   24.50
   3   5  -2  156.18   14.30
   3   5  -2  201.98   23.20
  -3  -5   2  170.08   22.90
  -3  -5   2  155.38   15.20
   2   5  -2  219.68   16.70
   2   5  -2  240.58   21.90
   2   5  -2  205.18   28.10
  -2  -5   2  222.08   17.90
  -2  -5   2  235.48   22.60
  -2  -5   2  196.58   20.60
   1   5  -2   91.39   15.60
   1   5  -2   65.19   13.30
   1   5  -2   70.89   12.50
   1   5  -2   75.69   13.20
  -1  -5   2   73.09    9.10
  -1  -5   2   64.19    9.40
  -1  -5   2   70.99   14.00
   0   5  -2 2388.76   73.79
   0   5  -2 2311.77   71.89
   0   5  -2 2229.08   72.19
   0   5  -2 2287.97   73.49
   0  -5   2 2396.46   74.89
   0  -5   2 2184.38   66.99
   0  -5   2 2196.08   65.19
   0  -5   2 2236.68   71.89
  -1   5  -2 3301.07   96.59
  -1   5  -2 3230.48   94.79
  -1   5  -2 3362.16   96.69
   1  -5   2 3202.18   93.49
   1  -5   2 3239.88   97.19
   1  -5   2 3262.67   95.29
   1  -5   2 3228.08   89.09
  -2   5  -2  437.46   25.10
  -2   5  -2  485.55   22.60
  -2   5  -2  467.55   22.60
  -2   5  -2  439.46   15.80
  -2   5  -2  449.46   21.50
   2  -5   2  447.96   21.20
   2  -5   2  434.06   22.50
   2  -5   2  439.36   21.40
   2  -5   2  453.45   23.10
  -3   5  -2 1363.76   44.10
  -3   5  -2 1342.77   43.40
  -3   5  -2 1247.58   41.90
  -3   5  -2 1212.38   48.90
   3  -5   2 1234.48   41.70
   3  -5   2 1248.98   46.90
   3  -5   2 1307.77   44.10
   3  -5   2 1408.56   45.30
  -4   5  -2  193.68   13.00
  -4   5  -2  205.98   15.50
  -4   5  -2  203.78   12.10
  -4   5  -2  189.68   19.10
   4  -5   2  200.48   12.10
   4  -5   2  192.58   16.80
   4  -5   2  187.48   14.80
   4  -5   2  194.08   18.80
   4  -5   2  213.98   14.30
  -5   5  -2 1329.27   52.99
  -5   5  -2 1394.06   47.40
  -5   5  -2 1332.57   39.00
  -5   5  -2 1278.77   40.90
   5  -5   2 1381.66   53.39
   5  -5   2 1309.77   39.90
   5  -5   2 1379.56   42.70
   5  -5   2 1343.47   48.90
   5  -5   2 1344.17   51.99
   5  -5   2 1332.37   48.40
  -6   5  -2  162.08    6.00
  -6   5  -2  181.08   20.60
  -6   5  -2  187.98    6.60
   6  -5   2  170.98   23.10
   6  -5   2  165.28   23.10
   6  -5   2  172.68   19.60
   6  -5   2  180.58   21.70
   6  -5   2  175.68   14.00
   6  -5   2  197.48   25.80
   6  -5   2  189.98   12.10
  -7   5  -2   71.39   17.20
   7  -5   2   73.19   20.00
   7  -5   2   57.99   19.00
   7  -5   2   55.59   18.90
   7  -5   2   53.09    5.10
   7  -5   2   63.89    5.80
   7  -5   2   26.50   15.00
  -8   5  -2   53.79   16.70
   8  -5   2   80.79   26.00
   8  -5   2   85.89   27.90
   8  -5   2   48.30   24.50
   8  -5   2   46.80   25.90
   8  -5   2   77.79   28.50
   5   4  -2   96.69   20.50
   5   4  -2  163.18   25.10
  -5  -4   2  111.79   21.40
  -5  -4   2  124.39   22.20
  -5  -4   2  117.79   22.00
   4   4  -2  100.49   20.10
   4   4  -2   87.99   19.00
   4   4  -2   63.89   14.90
  -4  -4   2   78.79    6.30
  -4  -4   2   94.59   17.40
  -4  -4   2   57.49   16.10
  -4  -4   2   70.79    7.80
   3   4  -2  218.78   21.90
   3   4  -2  187.78   19.90
   3   4  -2  190.58   19.60
   3   4  -2  198.68   13.10
  -3  -4   2  198.98   20.80
  -3  -4   2  174.68   18.90
  -3  -4   2  219.38   18.10
   2   4  -2   88.79   11.00
   2   4  -2   79.49   12.60
   2   4  -2   62.89   12.40
   2   4  -2   78.59   13.50
  -2  -4   2   74.79   11.10
  -2  -4   2   63.29   13.20
  -2  -4   2   77.89   12.10
   1   4  -2  708.93   30.30
   1   4  -2  689.13   28.30
   1   4  -2  689.33   31.10
  -1  -4   2  677.33   29.50
  -1  -4   2  692.53   26.60
  -1  -4   2  691.23   31.10
   0   4  -2  452.25   22.50
   0   4  -2  475.65   22.70
   0   4  -2  437.16   21.40
   0   4  -2  463.55   22.20
   0  -4   2  443.96   18.20
   0  -4   2  417.16   18.20
   0  -4   2  474.85   23.40
   0  -4   2  445.06   24.70
  -1   4  -2   18.70    6.50
  -1   4  -2   20.80    6.70
  -1   4  -2   22.80    6.40
  -1   4  -2   18.40    7.00
   1  -4   2   20.70    6.00
   1  -4   2   26.00    6.20
   1  -4   2   18.90    6.60
   1  -4   2   15.20    5.90
  -2   4  -2    0.20    5.20
  -2   4  -2    9.00    4.70
  -2   4  -2    1.90    4.90
  -2   4  -2    5.00    7.20
   2  -4   2   -1.30    3.90
   2  -4   2    4.80    5.00
   2  -4   2    3.10    5.50
   2  -4   2    6.40    4.90
  -3   4  -2 4193.18  118.29
  -3   4  -2 4137.69  119.99
  -3   4  -2 4178.98  114.39
  -3   4  -2 4168.58  111.09
   3  -4   2 4085.49  117.59
   3  -4   2 4150.58  110.99
   3  -4   2 4169.38  112.99
   3  -4   2 3970.30  111.89
   3  -4   2 4118.49  115.39
  -4   4  -2  979.50   28.90
  -4   4  -2  939.81   38.70
  -4   4  -2  987.40   39.30
  -4   4  -2  961.40   34.40
   4  -4   2  863.91   36.90
   4  -4   2  935.01   35.50
   4  -4   2  909.41   34.00
   4  -4   2  937.91   29.10
   4  -4   2  926.41   31.00
  -5   4  -2   91.29   15.20
  -5   4  -2   84.59    6.90
  -5   4  -2   80.09   14.40
   5  -4   2   76.69    8.40
   5  -4   2   73.99   13.80
   5  -4   2   77.99    6.70
   5  -4   2   86.59   12.80
   5  -4   2   74.09   12.60
   5  -4   2   56.29   14.40
  -6   4  -2  429.96   27.40
  -6   4  -2  456.85   29.80
   6  -4   2  428.66   26.70
   6  -4   2  439.66   16.80
   6  -4   2  401.56   27.20
   6  -4   2  411.96   29.20
   6  -4   2  424.96   29.20
  -7   4  -2   33.00   13.80
  -7   4  -2   28.70   15.90
   7  -4   2   43.20   19.00
   7  -4   2   21.40    4.40
   7  -4   2   15.50   14.00
   7  -4   2   22.70   17.00
   7  -4   2    5.10   17.90
   7  -4   2   24.80    4.70
   7  -4   2   46.60   19.00
  -8   4  -2   27.90   16.00
  -8   4  -2   69.79   20.90
   8  -4   2   68.49   28.90
   8  -4   2  113.99   27.50
   8  -4   2   63.29   25.40
   8  -4   2   51.69   20.10
   8  -4   2   63.89   24.60
   8  -4   2   57.29   16.40
   6   3  -2   -0.40   14.10
   6   3  -2  -34.30   17.10
   6   3  -2  -36.90   22.00
  -6  -3   2   10.50   15.30
  -6  -3   2   15.40   14.00
  -6  -3   2  -12.90   16.10
   5   3  -2  251.77   21.80
   5   3  -2  218.18   28.80
   5   3  -2  205.48   24.10
  -5  -3   2  222.08   23.70
  -5  -3   2  209.08   21.00
   4   3  -2   29.80    2.80
   4   3  -2   25.90   10.80
   4   3  -2   23.40   14.30
   4   3  -2   31.20   12.20
  -4  -3   2   20.60    2.40
  -4  -3   2    7.10   11.10
  -4  -3   2   18.10    9.30
  -4  -3   2    5.70    9.90
  -4  -3   2   25.90    2.90
   3   3  -2  201.38   16.60
   3   3  -2  191.78   11.30
   3   3  -2  195.08   17.10
   3   3  -2  181.48   17.60
  -3  -3   2  154.98   15.90
  -3  -3   2  153.18    8.40
  -3  -3   2  168.08   15.40
  -3  -3   2  154.48   16.40
  -3  -3   2  181.38    9.10
   2   3  -2    3.10    5.80
   2   3  -2    4.90    6.50
   2   3  -2    0.60    6.10
   2   3  -2    8.70    5.50
  -2  -3   2    7.40    6.00
  -2  -3   2   -3.40    5.60
  -2  -3   2   -0.80    6.30
   1   3  -2 1391.96   43.30
   1   3  -2 1343.27   45.10
   1   3  -2 1325.37   44.60
  -1  -3   2 1313.57   38.30
  -1  -3   2 1357.96   42.50
  -1  -3   2 1353.06   45.40
  -1  -3   2 1396.56   44.40
   0   3  -2 1986.20   59.29
   0   3  -2 2074.09   60.19
   0   3  -2 2027.30   59.19
   0   3  -2 2011.60   59.09
   0  -3   2 1888.71   58.09
   0  -3   2 1916.51   55.59
   0  -3   2 1970.30   56.59
   0  -3   2 1929.41   59.59
  -1   3  -2  140.99    9.90
  -1   3  -2  163.18   12.00
  -1   3  -2  154.38   10.20
  -1   3  -2  152.48    9.80
  -1   3  -2  133.79    9.50
   1  -3   2  140.19   10.00
   1  -3   2  133.89   10.00
   1  -3   2  144.89   10.10
   1  -3   2  150.58    9.50
  -2   3  -2  858.91   27.00
  -2   3  -2  868.61   30.70
  -2   3  -2  754.22   29.20
  -2   3  -2  844.62   28.90
  -2   3  -2  839.82   31.70
   2  -3   2  800.72   29.00
   2  -3   2  849.72   25.80
   2  -3   2  845.12   26.70
   2  -3   2  883.61   30.60
   2  -3   2  838.12   27.90
  -3   3  -2 3340.67   91.09
  -3   3  -2 3261.97   94.09
  -3   3  -2 3206.38   86.89
  -3   3  -2 3214.38   94.49
  -3   3  -2 3213.78   86.19
   3  -3   2 3252.07   87.79
   3  -3   2 3253.77   89.69
   3  -3   2 3215.38   86.29
   3  -3   2 3195.48   91.79
   3  -3   2 3205.18   93.69
  -4   3  -2   41.60   10.00
  -4   3  -2   24.10    8.80
  -4   3  -2   32.00    4.00
   4  -3   2   32.80    8.40
   4  -3   2   34.30    4.50
   4  -3   2   36.30    9.80
   4  -3   2   30.30    7.80
   4  -3   2   33.70    5.20
   4  -3   2   51.69   10.20
  -5   3  -2   33.10    4.30
  -5   3  -2   44.60   11.50
  -5   3  -2   39.80    5.10
  -5   3  -2   35.90   10.50
   5  -3   2   31.50    5.20
   5  -3   2   39.20   10.60
   5  -3   2   37.90   10.10
   5  -3   2   21.90    4.70
   5  -3   2   40.90   10.30
   5  -3   2   21.60    8.80
  -6   3  -2  175.18    7.90
  -6   3  -2  201.88   21.60
  -6   3  -2  174.38   18.00
  -6   3  -2  173.98    7.70
   6  -3   2  195.18   11.70
   6  -3   2  184.68   21.60
   6  -3   2  223.38   21.90
   6  -3   2  201.48   24.20
   6  -3   2  167.28   22.00
   6  -3   2  184.68   11.10
   6  -3   2  206.58   20.00
  -7   3  -2   67.99   14.60
  -7   3  -2   75.09   18.40
   7  -3   2   48.60   20.40
   7  -3   2   34.20   15.20
   7  -3   2   41.40   18.40
   7  -3   2   50.59   21.50
   7  -3   2   67.69    7.70
   7  -3   2   41.80    8.40
   7  -3   2   52.09   18.70
  -8   3  -2   12.70   29.80
  -8   3  -2   10.80   13.60
   8  -3   2   17.30   11.50
   8  -3   2   13.60    6.70
   8  -3   2  -23.90   30.30
   8  -3   2   18.50    7.50
   8  -3   2   -1.40    9.60
   8  -3   2  -42.50   16.00
   8  -3   2    2.30   26.10
   7   2  -2  138.79   35.70
   7   2  -2  207.98   25.40
   7   2  -2  252.27   34.90
   7   2  -2  234.08   30.50
  -7  -2   2  196.78   28.00
  -7  -2   2  207.28   22.60
  -7  -2   2  162.18   21.40
   6   2  -2   81.69   15.50
   6   2  -2   71.39   16.60
  -6  -2   2   38.70   13.90
  -6  -2   2   99.19   15.80
  -6  -2   2  104.09   18.90
   5   2  -2 1125.69   41.90
   5   2  -2 1017.40   47.60
   5   2  -2 1028.10   41.90
  -5  -2   2 1072.39   44.00
  -5  -2   2 1091.69   41.70
  -5  -2   2  996.90   32.50
  -5  -2   2 1050.79   40.30
   4   2  -2  431.36   26.80
   4   2  -2  449.76   14.20
   4   2  -2  452.35   14.00
   4   2  -2  420.66   23.40
   4   2  -2  457.45   23.30
  -4  -2   2  472.05   23.80
  -4  -2   2  426.96   15.50
  -4  -2   2  432.56   24.20
  -4  -2   2  422.76   23.60
  -4  -2   2  465.25   22.80
   3   2  -2  405.46   22.00
   3   2  -2  388.56   19.70
   3   2  -2  394.56   20.90
   3   2  -2  403.16   15.40
  -3  -2   2  377.36   20.00
  -3  -2   2  410.46   21.30
  -3  -2   2  404.06   20.90
  -3  -2   2  373.66   12.20
  -3  -2   2  404.56   19.70
  -3  -2   2  374.56   12.80
   2   2  -2 2942.41   84.79
   2   2  -2 2922.51   83.79
   2   2  -2 2909.31   84.29
  -2  -2   2 2896.71   83.09
  -2  -2   2 2879.51   84.59
  -2  -2   2 3119.29   76.59
  -2  -2   2 2930.91   84.29
   1   2  -2 2011.10   56.69
   1   2  -2 1907.91   57.19
  -1  -2   2 1883.01   51.39
  -1  -2   2 1942.71   57.69
  -1  -2   2 2006.50   56.79
  -1  -2   2 1959.00   56.49
   0   2  -2 4155.98  112.89
   0   2  -2 4271.87  114.89
   0   2  -2 4308.57  113.39
   0   2  -2 4166.08  110.99
   0   2  -2 4258.57  113.49
   0  -2   2 4250.57  112.69
   0  -2   2 4372.86  113.79
   0  -2   2 4088.39  110.79
   0  -2   2 4200.78  113.49
  -1   2  -2 3816.12  100.99
  -1   2  -2 3672.53   99.19
  -1   2  -2 3984.20  103.39
  -1   2  -2 3672.13   99.39
  -1   2  -2 3720.13  101.09
   1  -2   2 3759.42  100.99
   1  -2   2 3725.13   98.89
   1  -2   2 3649.23  100.99
   1  -2   2 3685.93   99.79
  -2   2  -2 1992.00   57.59
  -2   2  -2 2012.20   54.49
  -2   2  -2 2100.99   59.99
  -2   2  -2 1985.30   59.19
  -2   2  -2 1962.70   54.59
   2  -2   2 1949.80   58.89
   2  -2   2 2000.50   54.29
   2  -2   2 2009.00   58.29
   2  -2   2 1958.40   55.09
  -3   2  -2 1197.68   34.80
  -3   2  -2 1252.77   40.60
  -3   2  -2 1200.18   34.60
  -3   2  -2 1233.78   41.70
   3  -2   2 1179.18   35.30
   3  -2   2 1203.08   41.20
   3  -2   2 1182.78   40.90
   3  -2   2 1232.68   40.00
   3  -2   2 1222.58   34.80
  -4   2  -2  197.88   13.70
  -4   2  -2  198.58   16.10
  -4   2  -2  187.18    9.30
   4  -2   2  164.58    9.60
   4  -2   2  181.78   15.40
   4  -2   2  195.28   15.50
   4  -2   2  193.78    9.90
   4  -2   2  194.48   14.60
  -5   2  -2 1546.55   56.09
  -5   2  -2 1500.95   43.70
  -5   2  -2 1497.75   49.20
  -5   2  -2 1578.24   54.59
   5  -2   2 1531.85   54.89
   5  -2   2 1465.15   44.10
   5  -2   2 1481.35   53.69
   5  -2   2 1489.95   45.20
   5  -2   2 1427.56   51.79
   5  -2   2 1512.15   56.29
  -6   2  -2  195.28   12.10
  -6   2  -2  195.78   10.60
  -6   2  -2  210.28   22.50
  -6   2  -2  178.38   16.10
  -6   2  -2  183.48   20.90
   6  -2   2  194.88   12.50
   6  -2   2  201.78   12.80
   6  -2   2  189.78   19.90
   6  -2   2  261.67   26.30
   6  -2   2  211.78   14.20
   6  -2   2  230.08   23.10
  -7   2  -2  -13.00   17.60
  -7   2  -2   10.20   14.30
  -7   2  -2    9.00    9.90
  -7   2  -2   -5.70    5.70
  -7   2  -2   -2.40    4.90
   7  -2   2   -4.60   13.00
   7  -2   2   -3.70   21.00
   7  -2   2    6.50    8.70
   7  -2   2   -1.40    6.80
   7  -2   2   -3.30    6.00
   7  -2   2   -5.20    7.50
   7  -2   2   10.40   18.00
   7  -2   2   26.90   20.10
  -8   2  -2   -2.20    9.40
  -8   2  -2   13.70   22.60
  -8   2  -2   10.90    3.80
   8  -2   2   15.70    8.80
   8  -2   2   -3.70   32.30
   8  -2   2    1.30   18.70
   7   1  -2  924.81   55.79
   7   1  -2  960.50   39.10
   7   1  -2  869.01   40.20
   7   1  -2  901.11   50.79
  -7  -1   2  956.10   38.00
  -7  -1   2  939.51   48.00
  -7  -1   2  920.51   37.90
   6   1  -2  352.66   21.40
   6   1  -2  271.47   21.60
   6   1  -2  298.87   28.00
   6   1  -2  352.56   31.20
  -6  -1   2  286.07   24.60
  -6  -1   2  345.47   21.00
  -6  -1   2  306.77   20.10
   5   1  -2   -2.00    7.30
   5   1  -2    4.20   10.60
   5   1  -2    2.80   10.40
   5   1  -2   -6.00    6.30
   5   1  -2    8.60    4.50
  -5  -1   2   -2.70    7.50
  -5  -1   2   -0.90    6.10
  -5  -1   2    0.70    6.90
   4   1  -2   63.29    9.10
   4   1  -2   57.19    8.80
   4   1  -2   75.99   12.50
   4   1  -2   68.29    7.90
  -4  -1   2   67.19   10.80
  -4  -1   2   66.39    6.80
  -4  -1   2   68.39   11.60
  -4  -1   2   68.09    8.80
  -4  -1   2   77.49    9.80
   3   1  -2  208.78   12.50
   3   1  -2  210.38   15.40
   3   1  -2  216.98   13.10
  -3  -1   2  244.78   13.90
  -3  -1   2  202.88   11.90
  -3  -1   2  205.58   13.10
  -3  -1   2  214.38    8.00
  -3  -1   2  240.18   15.40
   2   1  -2  247.08   11.80
   2   1  -2  235.38   12.60
   2   1  -2  249.88   12.00
   2   1  -2  217.78   11.50
  -2  -1   2  239.08   11.20
  -2  -1   2  238.88    8.80
  -2  -1   2  220.58   11.80
  -2  -1   2  248.38   13.30
   1   1  -2   59.89    5.20
   1   1  -2   50.99    4.20
   1   1  -2   53.29    5.00
   1   1  -2   57.29    2.70
  -1  -1   2   63.69    4.30
  -1  -1   2   62.69    6.10
  -1  -1   2   62.19    5.00
  -1  -1   2   57.99    5.60
   0   1  -2  224.78    9.20
   0   1  -2  227.78    9.80
   0   1  -2  238.78    9.40
   0  -1   2  242.48    9.10
   0  -1   2  219.88    8.90
   0  -1   2  233.58    9.60
   0  -1   2  223.08    9.90
  -1   1  -2  116.69    7.20
  -1   1  -2  108.69    5.80
  -1   1  -2  121.39    7.80
  -1   1  -2  112.59    5.90
   1  -1   2  108.29    7.20
   1  -1   2  116.89    6.20
   1  -1   2  111.59    5.70
   1  -1   2  117.99    7.60
  -2   1  -2 7897.21  196.68
  -2   1  -2 7539.05  197.88
  -2   1  -2 7209.98  192.88
  -2   1  -2 7647.54  197.88
  -2   1  -2 7467.05  192.98
   2  -1   2 7574.74  197.68
   2  -1   2 7248.88  192.98
   2  -1   2 7470.05  197.38
   2  -1   2 7571.74  196.68
   2  -1   2 7336.87  193.08
  -3   1  -2 1951.10   60.69
  -3   1  -2 1908.81   53.69
  -3   1  -2 1931.61   59.69
  -3   1  -2 1901.31   54.09
  -3   1  -2 2046.40   57.09
   3  -1   2 1900.61   59.79
   3  -1   2 1926.81   53.89
   3  -1   2 1899.41   58.29
   3  -1   2 1923.01   54.59
  -4   1  -2 1364.46   42.20
  -4   1  -2 1446.86   50.49
  -4   1  -2 1434.86   43.50
  -4   1  -2 1397.56   48.20
  -4   1  -2 1341.47   41.10
   4  -1   2 1369.96   49.20
   4  -1   2 1332.27   42.90
   4  -1   2 1477.65   48.30
   4  -1   2 1434.66   41.90
   4  -1   2 1403.76   40.60
  -5   1  -2  299.07   15.40
  -5   1  -2  277.87   15.60
  -5   1  -2  304.57   22.50
  -5   1  -2  308.07   21.10
   5  -1   2  309.17   12.70
   5  -1   2  283.17   14.70
   5  -1   2  266.27   21.50
   5  -1   2  301.17   22.70
   5  -1   2  302.47   20.80
   5  -1   2  278.77   16.70
  -6   1  -2   43.70    7.40
  -6   1  -2   52.49   13.90
  -6   1  -2   58.49   15.80
  -6   1  -2   67.29   12.50
   6  -1   2   43.30   13.90
   6  -1   2   34.40   10.20
   6  -1   2   45.50    7.00
   6  -1   2   58.49    8.90
   6  -1   2   57.99    6.20
  -7   1  -2   11.70   14.50
  -7   1  -2  -13.10   15.10
  -7   1  -2    9.20   10.20
   7  -1   2  -19.90   23.40
   7  -1   2   12.70   15.20
   7  -1   2  -15.10   18.00
   7  -1   2   -7.00    7.70
   7  -1   2   -4.50   11.30
   8   0  -2   56.69   29.70
   8   0  -2   64.89   13.70
   8   0  -2   67.59   12.80
  -8   0   2   74.69   10.30
  -8   0   2   74.09   11.30
  -8   0   2   78.29   21.10
   7   0  -2  264.67   17.90
   7   0  -2  248.78   19.30
  -7   0   2  230.38   26.10
  -7   0   2  268.57   16.80
   6   0  -2  752.72   45.10
   6   0  -2  738.03   28.60
   6   0  -2  748.43   29.40
   6   0  -2  765.32   38.50
  -6   0   2  731.43   36.10
  -6   0   2  746.43   27.40
  -6   0   2  749.62   27.00
   5   0  -2  759.22   36.90
   5   0  -2  753.82   28.20
   5   0  -2  802.42   28.40
   5   0  -2  754.02   27.30
   5   0  -2  732.43   33.20
  -5   0   2  775.02   33.30
  -5   0   2  815.42   35.30
  -5   0   2  788.92   26.50
  -5   0   2  739.83   26.90
   4   0  -2  599.94   35.10
   4   0  -2  607.74   22.30
   4   0  -2  601.94   21.80
   4   0  -2  610.94   28.40
   4   0  -2  597.14   21.90
   4   0  -2  597.94   26.90
   4   0  -2  611.74   22.30
  -4   0   2  635.14   28.20
  -4   0   2  600.24   25.60
  -4   0   2  632.64   21.20
  -4   0   2  606.24   22.00
   3   0  -2  295.47   10.30
   3   0  -2  274.87   11.30
   3   0  -2  260.77   13.30
   3   0  -2  294.57   12.10
   3   0  -2  281.47   11.90
   3   0  -2  269.27   14.90
   3   0  -2  284.67   15.90
  -3   0   2  281.67   12.00
  -3   0   2  269.37   14.70
  -3   0   2  282.77   11.20
  -3   0   2  287.17   10.70
  -3   0   2  276.47   13.80
   2   0  -2 8707.93  211.88
   2   0  -2 7672.93  208.88
   2   0  -2 7820.32  208.28
   2   0  -2 8119.99  205.38
  -2   0   2 7960.80  209.08
  -2   0   2 7846.22  207.88
  -2   0   2 8101.99  205.78
  -2   0   2 7832.12  204.68
  -2   0   2 8162.88  204.98
  -2   0   2 7757.02  206.28
   1   0  -2   13.00    2.20
   1   0  -2   11.60    2.10
   1   0  -2   14.70    2.40
   1   0  -2   15.90    2.50
  -1   0   2   13.50    2.30
  -1   0   2   10.60    2.00
  -1   0   2   12.70    2.30
  -1   0   2    9.60    2.70
   0   0  -2 1897.11   52.99
   0   0  -2 1957.80   52.79
   0   0  -2 2022.50   52.99
   0   0  -2 2029.40   52.99
   0   0  -2 1887.71   51.89
   0   0   2 2040.00   52.89
   0   0   2 2015.80   52.89
   0   0   2 1951.00   54.59
   0   0   2 1969.30   52.79
   0   0   2 1890.51   51.89
  -1   0  -2 2505.85   67.39
  -1   0  -2 2542.35   69.79
  -1   0  -2 2492.55   68.19
   1   0   2 2586.74   67.39
   1   0   2 2597.34   68.59
   1   0   2 2533.55   69.19
   1   0   2 2473.15   69.49
   1   0   2 2556.04   68.19
  -2   0  -2  265.57   13.90
  -2   0  -2  248.18   11.70
  -2   0  -2  254.17   13.70
  -2   0  -2  253.47   11.50
   2   0   2  266.97   11.60
   2   0   2  249.18   13.80
   2   0   2  270.47   10.00
   2   0   2  269.87   12.40
  -3   0  -2 2314.37   66.69
  -3   0  -2 2345.87   69.79
  -3   0  -2 2421.56   63.89
  -3   0  -2 2388.76   65.89
  -3   0  -2 2280.27   71.29
   3   0   2 2337.57   62.49
   3   0   2 2301.57   67.39
   3   0   2 2270.77   70.89
  -4   0  -2  120.19    7.50
  -4   0  -2  110.99   10.30
  -4   0  -2  112.19   14.30
  -4   0  -2  107.69   11.10
  -4   0  -2  116.99   13.10
   4   0   2   91.09   13.30
   4   0   2   94.59   11.80
   4   0   2  107.49    6.10
   4   0   2  137.69   16.40
  -5   0  -2  113.29   12.00
  -5   0  -2  126.49   16.20
  -5   0  -2  120.09   17.10
   5   0   2  111.39   19.50
   5   0   2  165.08   16.20
   5   0   2  108.69   16.40
   5   0   2  116.89   12.00
  -6   0  -2  418.76   22.30
  -6   0  -2  469.55   29.80
  -6   0  -2  432.26   25.20
  -6   0  -2  441.26   31.90
   6   0   2  460.55   23.10
   6   0   2  470.15   27.50
  -7   0  -2  101.89   21.60
  -7   0  -2   80.59   20.10
  -7   0  -2   92.79   15.30
   7   0   2   99.19   16.10
   7   0   2   90.49   21.20
   7   0   2   84.79   18.10
   7   0   2  105.29   30.80
   8  -1  -2 1040.40   58.29
  -8   1   2  766.52   21.50
  -8   1   2  798.02   21.70
   7  -1  -2  481.15   19.20
   7  -1  -2  435.16   20.00
   7  -1  -2  434.76   30.20
   7  -1  -2  447.26   15.70
   7  -1  -2  482.35   27.10
  -7   1   2  527.85   31.90
  -7   1   2  480.75   16.10
  -7   1   2  485.15   16.20
   6  -1  -2   74.19    8.20
   6  -1  -2   73.39   11.40
   6  -1  -2   67.59    7.70
   6  -1  -2  103.89   15.80
   6  -1  -2   65.49   13.20
   6  -1  -2   53.49   15.10
   6  -1  -2   68.49    7.10
  -6   1   2   71.29    6.10
  -6   1   2   70.29    6.30
  -6   1   2   74.59   14.00
   5  -1  -2  201.98   10.10
   5  -1  -2  178.18   17.80
   5  -1  -2  194.58    9.70
   5  -1  -2  205.48   17.80
   5  -1  -2  191.38   15.00
   5  -1  -2  181.28    9.70
   5  -1  -2  176.58   13.90
  -5   1   2  197.38    8.10
  -5   1   2  199.28   16.90
  -5   1   2  192.98    8.60
  -5   1   2  182.08   15.20
   4  -1  -2    6.90    5.50
   4  -1  -2  -13.30    5.50
   4  -1  -2   -2.80    2.20
   4  -1  -2   -0.40    3.10
   4  -1  -2    1.00    4.80
   4  -1  -2   -5.50    2.50
   4  -1  -2    4.50    4.40
  -4   1   2    5.00    4.70
  -4   1   2   -5.30    5.70
  -4   1   2    3.70    3.60
  -4   1   2   -3.90    2.00
   3  -1  -2   36.00    3.10
   3  -1  -2   34.10    6.20
   3  -1  -2   32.20    5.20
   3  -1  -2   28.60    4.30
   3  -1  -2   33.50    6.60
   3  -1  -2   35.00    3.30
  -3   1   2   35.60    5.50
  -3   1   2   40.00    6.40
  -3   1   2   31.50    5.60
  -3   1   2   33.10    3.30
  -3   1   2   38.10    2.70
  -3   1   2   38.00    5.50
  -3   1   2   30.80    4.90
   2  -1  -2  539.15   17.50
   2  -1  -2  559.04   16.40
   2  -1  -2  568.34   19.80
   2  -1  -2  573.14   18.80
   2  -1  -2  546.75   17.40
   2  -1  -2  571.54   20.70
  -2   1   2  557.34   19.00
  -2   1   2  581.54   20.70
  -2   1   2  518.75   20.30
  -2   1   2  539.85   16.30
  -2   1   2  570.14   19.70
   1  -1  -2  440.76   12.50
   1  -1  -2  433.86   14.40
   1  -1  -2  440.66   15.40
   1  -1  -2  454.25   14.50
  -1   1   2  486.55   15.60
  -1   1   2  453.35   14.40
  -1   1   2  455.35   14.70
  -1   1   2  435.46   12.60
  -1   1   2  442.56   15.70
   0  -1  -2 1026.00   30.40
   0  -1  -2 1062.59   31.40
   0  -1  -2 1049.70   30.30
   0  -1  -2 1079.49   31.50
   0  -1  -2 1130.09   30.80
   0   1   2 1006.20   30.70
   0   1   2 1012.50   31.50
  -1  -1  -2 1078.99   31.60
  -1  -1  -2 1154.18   35.20
  -1  -1  -2 1110.29   34.40
  -1  -1  -2 1172.08   31.60
  -1  -1  -2 1106.09   34.70
   1   1   2 1094.59   35.00
   1   1   2 1107.09   32.30
   1   1   2 1088.69   34.10
  -2  -1  -2 2310.37   69.09
  -2  -1  -2 2420.76   71.19
  -2  -1  -2 2461.85   69.19
  -2  -1  -2 2289.97   64.09
  -2  -1  -2 2593.74   63.59
   2   1   2 2419.66   70.49
   2   1   2 2383.86   68.59
   2   1   2 2394.96   64.79
  -3  -1  -2 2793.12   82.99
  -3  -1  -2 2734.53   79.59
  -3  -1  -2 2745.93   78.79
  -3  -1  -2 2748.53   80.69
   3   1   2 2761.72   82.99
   3   1   2 2697.43   78.49
   3   1   2 2743.43   80.89
   3   1   2 2639.44   72.19
  -4  -1  -2  122.89   16.30
  -4  -1  -2  141.99   13.00
  -4  -1  -2  124.79   14.80
  -4  -1  -2  128.39   14.00
   4   1   2  100.19   20.10
   4   1   2  112.69   14.40
   4   1   2  119.09   11.80
  -5  -1  -2   72.79   11.80
  -5  -1  -2   56.19   13.40
  -5  -1  -2   55.89   14.80
  -5  -1  -2   78.19   14.30
   5   1   2   96.89   19.20
   5   1   2   63.19   13.70
  -6  -1  -2  120.29   18.80
  -6  -1  -2  100.19   15.00
  -6  -1  -2   89.99   19.90
   6   1   2  137.69   26.40
   6   1   2   44.70   17.90
   8  -2  -2  276.27   34.40
   8  -2  -2  311.47   30.30
   8  -2  -2  255.57   29.70
   8  -2  -2  312.77   14.80
  -8   2   2  330.77   30.60
   7  -2  -2  180.48    6.30
   7  -2  -2  194.78   20.20
   7  -2  -2  189.58   24.10
   7  -2  -2  186.18   13.00
   7  -2  -2  205.58   21.60
   7  -2  -2  214.98   30.60
   7  -2  -2  177.38    6.40
  -7   2   2  213.78   22.20
  -7   2   2  191.28   15.00
   6  -2  -2   63.89   15.60
   6  -2  -2   82.39   10.10
   6  -2  -2   76.59   12.10
   6  -2  -2   69.69   15.10
   6  -2  -2   69.99    3.20
   6  -2  -2   74.99   13.00
  -6   2   2   68.49    9.60
  -6   2   2   64.29   12.60
   5  -2  -2 1220.08   39.80
   5  -2  -2 1243.78   43.40
   5  -2  -2 1270.77   43.40
   5  -2  -2 1263.27   46.80
   5  -2  -2 1235.18   46.10
  -5   2   2 1270.87   44.40
  -5   2   2 1235.28   40.80
   4  -2  -2  250.57   13.50
   4  -2  -2  251.07   16.50
   4  -2  -2  253.87    7.80
   4  -2  -2  255.97   15.90
   4  -2  -2  260.27   15.10
   4  -2  -2  259.57   14.10
  -4   2   2  247.38   15.40
  -4   2   2  263.17   14.00
  -4   2   2  269.77   16.10
   3  -2  -2  497.75   20.10
   3  -2  -2  486.05   14.50
   3  -2  -2  478.05   14.70
   3  -2  -2  480.55   19.40
   3  -2  -2  482.35   21.20
   3  -2  -2  489.65   18.50
  -3   2   2  491.25   19.20
  -3   2   2  478.95   14.30
  -3   2   2  477.35   14.70
  -3   2   2  522.55   19.70
  -3   2   2  488.15   20.80
   2  -2  -2 1902.71   54.49
   2  -2  -2 1908.71   51.19
   2  -2  -2 1813.22   51.09
  -2   2   2 1846.42   54.79
  -2   2   2 1862.81   51.59
  -2   2   2 1856.21   50.69
  -2   2   2 1921.31   54.19
  -2   2   2 1852.11   51.79
   1  -2  -2 1033.90   32.60
   1  -2  -2 1028.60   31.80
   1  -2  -2 1065.09   32.10
  -1   2   2 1036.80   32.30
  -1   2   2 1024.70   31.40
  -1   2   2 1066.39   32.10
  -1   2   2 1002.40   32.80
   0  -2  -2   75.09    6.50
   0  -2  -2   93.99    7.90
   0  -2  -2   75.19    7.40
   0   2   2   76.79    7.90
   0   2   2   88.09    7.10
   0   2   2   71.89    7.10
   0   2   2   84.19    7.50
  -1  -2  -2  749.73   24.00
  -1  -2  -2  725.13   27.50
  -1  -2  -2  768.92   27.50
  -1  -2  -2  753.52   27.80
   1   2   2  741.03   25.10
   1   2   2  762.62   27.50
   1   2   2  772.22   32.20
  -2  -2  -2 1581.94   50.09
  -2  -2  -2 1523.75   50.19
  -2  -2  -2 1602.54   51.19
  -2  -2  -2 1471.95   43.00
  -2  -2  -2 1606.54   42.90
   2   2   2 1548.74   50.19
   2   2   2 1458.25   48.80
   2   2   2 1531.35   51.39
  -3  -2  -2  730.43   23.50
  -3  -2  -2  791.12   33.00
  -3  -2  -2  824.92   34.50
  -3  -2  -2  780.42   31.80
   3   2   2  806.72   31.80
   3   2   2  820.42   34.80
   3   2   2  801.22   34.40
  -4  -2  -2  532.05   27.10
  -4  -2  -2  523.35   29.80
  -4  -2  -2  532.65   26.90
  -4  -2  -2  538.15   28.40
   4   2   2  518.55   30.10
   4   2   2  536.25   26.90
   4   2   2  562.94   30.00
  -5  -2  -2  457.05   29.00
  -5  -2  -2  483.05   28.30
  -5  -2  -2  520.55   33.80
   5   2   2  457.75   33.00
   5   2   2  505.55   27.60
  -6  -2  -2  130.99   24.60
  -6  -2  -2  136.39   20.50
  -6  -2  -2  131.39   18.90
  -6  -2  -2  171.78   24.20
   6   2   2  146.99   32.60
   6   2   2  120.29   23.90
   9  -3  -2   23.50   20.20
   9  -3  -2  -22.40   22.50
   9  -3  -2   25.10   10.00
   9  -3  -2    5.60   24.10
   8  -3  -2   48.40   10.60
   8  -3  -2   66.19   17.90
   8  -3  -2   69.19   20.30
   8  -3  -2   44.90   18.10
   8  -3  -2   75.19   21.20
   8  -3  -2   49.50   13.40
  -8   3   2   51.29   12.30
   7  -3  -2  449.16   23.00
   7  -3  -2  424.56   27.80
   7  -3  -2  457.95   25.20
   7  -3  -2  442.86   28.70
   7  -3  -2  455.65   29.50
  -7   3   2  409.16   22.60
   6  -3  -2  107.69   16.40
   6  -3  -2  109.79   14.70
   6  -3  -2  104.09   13.40
   6  -3  -2  102.29   14.40
   6  -3  -2  130.09   12.90
  -6   3   2  109.29   14.10
   5  -3  -2  547.35   26.00
   5  -3  -2  560.04   21.80
   5  -3  -2  554.94   24.40
   5  -3  -2  527.05   28.10
   5  -3  -2  547.65   26.60
   5  -3  -2  566.24   25.10
  -5   3   2  543.45   24.70
   4  -3  -2 1186.18   41.10
   4  -3  -2 1170.58   39.90
   4  -3  -2 1144.89   31.70
   4  -3  -2 1160.78   42.00
   4  -3  -2 1167.28   32.40
   4  -3  -2 1161.78   38.70
   4  -3  -2 1157.78   34.80
   4  -3  -2 1170.28   39.10
  -4   3   2 1159.58   40.80
  -4   3   2 1169.28   30.80
  -4   3   2 1145.59   38.30
  -4   3   2 1126.89   39.50
  -4   3   2 1144.89   31.30
   3  -3  -2  112.09    8.30
   3  -3  -2  126.39    7.40
   3  -3  -2  119.39    7.40
   3  -3  -2  128.89    5.90
   3  -3  -2  126.59   10.20
  -3   3   2  133.89   10.20
  -3   3   2  114.79    7.70
  -3   3   2  148.49   11.70
  -3   3   2  119.49    8.40
   2  -3  -2  115.49    8.50
   2  -3  -2  119.39   10.50
   2  -3  -2  143.79    9.20
  -2   3   2  141.69   10.60
  -2   3   2  134.79    6.20
  -2   3   2  142.79    8.80
  -2   3   2  137.79    9.50
  -2   3   2  131.89    5.60
   1  -3  -2 1468.15   46.50
   1  -3  -2 1491.25   46.60
   1  -3  -2 1544.85   47.30
  -1   3   2 1485.45   47.30
  -1   3   2 1519.75   46.10
  -1   3   2 1560.34   46.40
   0  -3  -2  269.37   15.60
   0  -3  -2  265.47   13.70
   0  -3  -2  264.87   15.40
   0   3   2  266.97   12.80
   0   3   2  258.07   14.90
   0   3   2  302.67   16.70
  -1  -3  -2   60.99    7.40
  -1  -3  -2   54.09    9.40
  -1  -3  -2   56.19    9.20
   1   3   2   66.19    8.00
   1   3   2   46.70   10.30
   1   3   2   40.60    8.50
   1   3   2   58.29    6.70
  -2  -3  -2  192.28   16.90
  -2  -3  -2  191.88   15.90
  -2  -3  -2  186.88   10.40
  -2  -3  -2  174.48   15.80
   2   3   2  165.08   14.90
   2   3   2  189.48   18.40
   2   3   2  185.98   15.50
  -3  -3  -2   33.00   11.70
  -3  -3  -2   26.00    4.50
  -3  -3  -2   22.90   10.00
  -3  -3  -2   35.30   11.00
   3   3   2   36.20   12.10
   3   3   2   34.80   10.10
   3   3   2   21.00   11.90
  -4  -3  -2   36.10   11.60
  -4  -3  -2   36.70   14.50
  -4  -3  -2   22.30   11.80
   4   3   2   17.60   16.00
   4   3   2   22.60   16.30
   4   3   2   42.70   12.80
  -5  -3  -2  325.27   32.50
  -5  -3  -2  381.56   28.70
  -5  -3  -2  361.86   32.00
  -5  -3  -2  383.76   29.00
   5   3   2  345.47   27.10
   5   3   2  366.06   41.30
   5   3   2  362.96   38.00
   9  -4  -2   63.59   24.40
   9  -4  -2   17.10   31.10
   9  -4  -2    3.30   21.90
   9  -4  -2  -16.30   28.60
   9  -4  -2   16.60   17.40
   9  -4  -2   11.40   12.90
  -9   4   2   -2.70   12.80
   8  -4  -2  738.83   34.30
   8  -4  -2  814.82   41.30
   8  -4  -2  674.23   47.20
   8  -4  -2  715.33   44.70
   8  -4  -2  753.52   42.90
   8  -4  -2  833.22   38.20
  -8   4   2  720.83   35.10
   7  -4  -2 1785.62   65.29
   7  -4  -2 1817.72   60.69
   7  -4  -2 1765.12   65.89
   7  -4  -2 1759.52   68.79
   7  -4  -2 1841.92   63.79
   7  -4  -2 1784.42   59.19
  -7   4   2 1715.53   60.69
   6  -4  -2  169.48   18.30
   6  -4  -2  164.28   16.30
   6  -4  -2  166.98   14.30
   6  -4  -2  182.28   20.80
   6  -4  -2  197.18   17.70
  -6   4   2  169.38   16.00
   5  -4  -2  208.58   12.50
   5  -4  -2  186.68    7.70
   5  -4  -2  196.68   16.40
   5  -4  -2  202.38   18.50
   5  -4  -2  185.18   16.60
   5  -4  -2  199.18   15.00
  -5   4   2  210.98   16.60
  -5   4   2  163.38   15.50
   4  -4  -2   16.30    4.00
   4  -4  -2    9.00    5.30
   4  -4  -2   19.40    8.20
   4  -4  -2   17.30    4.40
   4  -4  -2   16.20    4.30
  -4   4   2   20.50    4.50
  -4   4   2   19.70    6.90
  -4   4   2   13.20    7.50
   3  -4  -2 1219.68   38.40
   3  -4  -2 1213.88   43.20
   3  -4  -2 1196.58   38.50
  -3   4   2 1207.28   33.60
  -3   4   2 1197.98   38.90
  -3   4   2 1221.48   37.60
  -3   4   2 1229.08   43.00
   2  -4  -2   12.80    6.70
   2  -4  -2   25.20    6.30
   2  -4  -2   16.30    5.80
  -2   4   2   27.90    7.20
  -2   4   2   18.10    4.10
  -2   4   2   25.90    6.70
  -2   4   2   22.00    5.80
   1  -4  -2  134.89   12.80
   1  -4  -2  134.09   12.50
   1  -4  -2  150.38   13.00
  -1   4   2  135.89    5.90
  -1   4   2  138.59   11.40
  -1   4   2  139.99   13.80
  -1   4   2  139.09   12.10
   0  -4  -2  234.78   17.10
   0  -4  -2  206.58   14.70
   0  -4  -2  215.48   19.80
   0   4   2  248.98   19.00
   0   4   2  231.98   11.80
   0   4   2  223.08   13.70
   0   4   2  234.18   16.40
  -1  -4  -2 1446.66   51.49
  -1  -4  -2 1367.16   45.60
  -1  -4  -2 1423.66   51.79
   1   4   2 1505.65   51.39
   1   4   2 1494.45   44.30
   1   4   2 1376.66   46.30
   1   4   2 1507.75   54.39
  -2  -4  -2  561.34   30.00
  -2  -4  -2  522.45   21.50
  -2  -4  -2  591.84   29.60
  -2  -4  -2  556.64   30.70
   2   4   2  547.75   28.60
   2   4   2  567.64   28.20
   2   4   2  555.14   32.70
  -3  -4  -2  939.81   42.10
  -3  -4  -2  909.11   40.90
  -3  -4  -2  858.61   28.30
   3   4   2  878.41   40.20
   3   4   2  846.82   44.70
   3   4   2  880.31   41.10
  -4  -4  -2   18.60   12.40
  -4  -4  -2   -9.10   12.70
  -4  -4  -2   11.20   18.60
  -4  -4  -2   33.80   15.50
   4   4   2    0.10   19.00
   4   4   2  -14.40   12.40
   4   4   2    2.10   20.10
   9  -5  -2   80.89   18.40
   9  -5  -2  103.09   24.60
   9  -5  -2   25.70   27.30
   9  -5  -2   57.49   19.60
   9  -5  -2   82.79   33.70
   9  -5  -2   75.89   27.70
  -9   5   2   55.49   17.50
   8  -5  -2  153.68   25.80
   8  -5  -2  227.48   30.80
   8  -5  -2  174.08   21.50
   8  -5  -2  152.18   23.10
   8  -5  -2  155.38   25.20
   8  -5  -2  225.98   24.20
  -8   5   2  146.59   19.70
   7  -5  -2  260.67   27.20
   7  -5  -2  227.38   28.60
   7  -5  -2  177.68   22.30
   7  -5  -2  288.77   19.60
   7  -5  -2  188.98   22.30
  -7   5   2  252.47   21.20
   6  -5  -2   42.10    4.20
   6  -5  -2   39.30   10.50
   6  -5  -2   30.60   11.00
   6  -5  -2   55.19    9.20
   6  -5  -2   38.00   12.70
   6  -5  -2   45.70    4.80
  -6   5   2   33.20   11.30
  -6   5   2   54.39   13.00
   5  -5  -2 2684.43   78.59
   5  -5  -2 2642.04   74.49
   5  -5  -2 2700.33   73.99
   5  -5  -2 2694.13   74.49
   5  -5  -2 2809.32   85.69
   5  -5  -2 2752.92   88.09
  -5   5   2 2710.13   83.29
  -5   5   2 2569.24   72.59
  -5   5   2 2496.65   83.89
  -5   5   2 2679.73   73.49
   4  -5  -2  485.55   20.40
   4  -5  -2  425.96   25.20
   4  -5  -2  472.15   20.20
   4  -5  -2  438.66   18.20
  -4   5   2  405.76   23.50
  -4   5   2  472.75   15.90
  -4   5   2  443.36   23.90
  -4   5   2  477.85   20.80
   3  -5  -2   84.09   10.90
   3  -5  -2  118.99   14.70
   2  -5  -2  116.39   13.20
   2  -5  -2  156.08   15.70
   2  -5  -2  144.49   14.40
  -2   5   2  170.98   14.00
  -2   5   2  168.88   11.00
  -2   5   2  147.69   15.10
   1  -5  -2  219.48   18.50
   1  -5  -2  241.08   18.60
   1  -5  -2  233.68   17.60
  -1   5   2  237.98   17.10
  -1   5   2  250.77   17.60
  -1   5   2  241.88   19.10
   0  -5  -2 2175.78   72.19
   0  -5  -2 2147.89   71.49
   0  -5  -2 2172.38   68.19
   0   5   2 2155.78   62.19
   0   5   2 2152.68   66.09
   0   5   2 2204.88   70.89
  -1  -5  -2  238.08   21.60
  -1  -5  -2  238.98   16.90
   1   5   2  208.38   20.40
   1   5   2  242.48   17.00
   1   5   2  203.68   23.80
   1   5   2  241.58   15.20
  -2  -5  -2  440.16   32.60
  -2  -5  -2  491.15   22.50
  -2  -5  -2  487.25   29.40
  -2  -5  -2  475.75   30.90
   2   5   2  484.85   35.50
   2   5   2  454.25   27.90
   2   5   2  549.54   31.40
  -3  -5  -2  385.36   31.30
  -3  -5  -2  350.86   30.20
  -3  -5  -2  280.07   38.50
  -3  -5  -2  369.76   17.50
   3   5   2  381.76   39.10
   3   5   2  341.57   33.10
   3   5   2  338.97   29.30
  -4  -5  -2  178.88   27.10
  -4  -5  -2  160.18   25.20
  -4  -5  -2  154.88   21.80
   4   5   2  196.58   34.20
   4   5   2  224.68   28.80
   8  -6  -2  494.05   29.50
   8  -6  -2  558.74   43.40
   8  -6  -2  486.25   36.20
   8  -6  -2  445.46   35.10
   8  -6  -2  455.55   33.70
  -8   6   2  493.65   32.10
   7  -6  -2  215.38   18.00
   7  -6  -2  195.68   23.70
   7  -6  -2  196.58   23.70
   7  -6  -2  186.78   24.10
   7  -6  -2  190.08   23.30
  -7   6   2  184.78   21.60
   6  -6  -2  168.68   23.60
   6  -6  -2  215.58   14.50
   6  -6  -2  200.88   12.10
   6  -6  -2  185.08   22.30
   6  -6  -2  196.18   12.80
   6  -6  -2  171.28   17.60
  -6   6   2  183.88    9.50
  -6   6   2  190.68   20.60
  -6   6   2  183.38   10.40
  -6   6   2  201.48   21.20
   5  -6  -2  240.58   24.40
   5  -6  -2  276.67   16.10
   5  -6  -2  272.27   23.60
   5  -6  -2  289.07   17.30
   5  -6  -2  295.07   14.10
   5  -6  -2  257.37   16.10
  -5   6   2  269.67   22.90
  -5   6   2  287.17   15.30
  -5   6   2  304.47   17.40
  -5   6   2  306.77   22.20
   4  -6  -2  112.29   16.80
   4  -6  -2  103.89   13.00
   4  -6  -2  110.69   14.10
  -4   6   2  113.29   15.20
  -4   6   2  102.29   11.90
  -4   6   2   77.89   12.30
  -4   6   2   88.39    8.10
  -4   6   2   76.39   14.00
   3  -6  -2  113.59   17.00
   3  -6  -2  119.39   14.90
   3  -6  -2  125.39   14.70
  -3   6   2  105.89   14.60
  -3   6   2  113.59   10.30
  -3   6   2  123.79   16.30
  -3   6   2  104.09   13.20
   2  -6  -2  580.64   29.60
   2  -6  -2  560.64   29.70
   2  -6  -2  588.24   30.60
  -2   6   2  591.34   28.80
  -2   6   2  600.64   30.00
  -2   6   2  598.64   31.30
  -2   6   2  587.74   24.90
   1  -6  -2   68.59   13.20
   1  -6  -2   71.99   13.70
   1  -6  -2   73.19   14.70
  -1   6   2   53.39   12.80
  -1   6   2   77.19   13.40
  -1   6   2   74.39   15.30
   0  -6  -2  219.28   24.50
   0  -6  -2  242.38   22.00
   0  -6  -2  207.98   19.80
   0   6   2  191.38   13.70
   0   6   2  249.18   27.00
   0   6   2  202.78   17.30
   0   6   2  238.38   22.10
  -1  -6  -2  311.47   30.60
  -1  -6  -2  282.57   21.30
  -1  -6  -2  336.37   27.70
   1   6   2  301.27   19.20
   1   6   2  286.87   25.50
   1   6   2  309.07   21.50
   1   6   2  327.07   31.50
  -2  -6  -2  329.87   31.60
  -2  -6  -2  371.46   29.90
  -2  -6  -2  333.37   21.70
   2   6   2  319.77   30.10
   2   6   2  321.87   39.30
   2   6   2  384.46   30.00
   8  -7  -2   95.19   22.40
   8  -7  -2  100.59   24.30
   8  -7  -2  108.19   15.90
   8  -7  -2  108.99   31.10
   8  -7  -2  142.39   23.50
  -8   7   2  101.89   22.40
   7  -7  -2   56.89   24.40
   7  -7  -2   76.59    8.60
   7  -7  -2   70.19   16.10
   7  -7  -2   73.59   11.30
   7  -7  -2  102.69   21.80
   7  -7  -2   55.69   18.70
  -7   7   2  101.09   18.00
  -7   7   2   67.59   16.40
   6  -7  -2  215.48   17.20
   6  -7  -2  208.38   26.10
   6  -7  -2  227.38   15.00
   6  -7  -2  205.08   16.20
   6  -7  -2  233.48   17.90
  -6   7   2  249.68   17.00
  -6   7   2  255.67   23.60
  -6   7   2  199.48   22.90
   5  -7  -2   24.50    9.90
   5  -7  -2   31.10    9.80
   5  -7  -2   -6.10   10.20
  -5   7   2   54.09   12.90
  -5   7   2   33.30    6.50
  -5   7   2   12.20    8.80
  -5   7   2   34.50   13.10
  -5   7   2   26.60   10.80
   4  -7  -2  140.39   17.70
   4  -7  -2  159.28   18.40
   4  -7  -2  162.48   19.20
  -4   7   2  174.68   17.40
  -4   7   2  162.08   20.10
  -4   7   2  137.89   20.10
  -4   7   2  134.59   18.30
  -4   7   2  170.18   12.50
   3  -7  -2   70.39   15.50
   3  -7  -2   57.09   14.00
   3  -7  -2   85.09   15.20
  -3   7   2   72.89   15.70
  -3   7   2   71.59   16.10
  -3   7   2   84.79   14.30
  -3   7   2   65.89   10.50
   2  -7  -2   10.30   11.70
   2  -7  -2   13.10   11.70
  -2   7   2    0.80   10.90
  -2   7   2    2.10   11.00
  -2   7   2   27.30   10.10
   1  -7  -2   87.09   19.50
   1  -7  -2   66.59   15.90
   1  -7  -2   68.49   16.30
  -1   7   2   80.89   17.00
  -1   7   2   53.99   15.30
  -1   7   2   91.29   15.40
  -1   7   2   87.09   19.70
   0  -7  -2   94.09   17.40
   0  -7  -2   84.49   18.80
   0  -7  -2   51.39   20.20
   0   7   2  102.09   24.40
   0   7   2   41.90   16.40
   0   7   2  100.29   16.20
  -1  -7  -2   -1.70   12.70
  -1  -7  -2   47.60   24.10
  -1  -7  -2    9.70   18.20
   1   7   2   -0.70   25.10
   1   7   2   21.80   13.60
   1   7   2   37.90   12.70
   1   7   2   54.79   18.60
   7  -8  -2  307.37   23.90
   7  -8  -2  334.77   20.50
   7  -8  -2  331.77   36.40
   7  -8  -2  311.97   20.60
   7  -8  -2  388.56   35.20
  -7   8   2  357.56   30.80
  -7   8   2  328.77   16.80
  -7   8   2  348.57   19.10
   6  -8  -2  147.59   41.60
   6  -8  -2  190.68   24.80
   6  -8  -2  206.08   21.30
   6  -8  -2  154.28   19.00
  -6   8   2  222.18   25.10
  -6   8   2  169.98   21.10
  -6   8   2  195.68   21.50
   5  -8  -2  601.74   41.40
   5  -8  -2  498.65   44.40
   5  -8  -2  585.84   33.40
   5  -8  -2  682.43   33.00
  -5   8   2  596.54   34.50
  -5   8   2  620.34   23.50
  -5   8   2  616.54   30.50
  -5   8   2  538.65   36.30
   4  -8  -2  478.55   29.40
   4  -8  -2  451.75   31.80
   4  -8  -2  371.46   35.70
  -4   8   2  436.96   31.20
  -4   8   2  380.76   29.80
  -4   8   2  440.86   29.10
  -4   8   2  451.95   22.00
   3  -8  -2  236.98   26.90
   3  -8  -2  217.98   26.70
  -3   8   2  261.37   24.50
  -3   8   2  235.98   30.90
  -3   8   2  226.08   23.70
  -3   8   2  223.38   20.70
   2  -8  -2    4.90   17.10
   2  -8  -2  -11.10   15.20
   2  -8  -2   34.40   15.60
  -2   8   2   11.40   14.60
  -2   8   2   18.10   12.80
  -2   8   2   26.40   14.40
   1  -8  -2   41.50   17.90
   1  -8  -2    7.70   20.30
   1  -8  -2   44.60   16.40
  -1   8   2   25.50   14.80
  -1   8   2   -6.00   16.40
  -1   8   2   34.10   17.70
  -1   8   2   18.00   25.30
   0  -8  -2  581.84   37.70
   0  -8  -2  584.54   41.30
   0  -8  -2  613.34   49.80
   0   8   2  511.75   62.09
   0   8   2  602.94   41.50
   0   8   2  586.34   32.70
   6  -9  -2  154.58   21.40
   6  -9  -2  141.09   19.70
   6  -9  -2  147.29   27.70
  -6   9   2  183.98   24.10
  -6   9   2  161.68   19.20
  -6   9   2  127.79   21.80
  -6   9   2  134.99   26.20
   5  -9  -2  305.67   35.10
   5  -9  -2  398.46   29.40
   5  -9  -2  359.76   31.30
   5  -9  -2  337.37   44.30
  -5   9   2  391.56   21.10
  -5   9   2  325.37   28.20
  -5   9   2  434.46   35.90
  -5   9   2  410.96   32.70
  -5   9   2  339.67   33.00
   4  -9  -2   80.99   23.10
   4  -9  -2   92.59   19.40
   4  -9  -2   90.19   23.10
   4  -9  -2  101.79   26.70
  -4   9   2  125.89   26.70
  -4   9   2   98.99   15.20
  -4   9   2  124.19   22.70
  -4   9   2  105.69   20.10
  -4   9   2  103.29   27.30
   3  -9  -2   84.89   24.00
   3  -9  -2   24.70   21.00
   3  -9  -2   76.89   19.80
  -3   9   2   85.69   21.20
  -3   9   2   52.99   19.40
  -3   9   2   54.49   16.70
   2  -9  -2  487.75   38.90
   2  -9  -2  469.85   47.00
   2  -9  -2  514.05   39.30
  -2   9   2  590.94   41.40
  -2   9   2  463.55   33.90
  -2   9   2  561.34   38.40
  -1   9  -3   53.09   25.70
  -1   9  -3   52.89   26.40
  -1   9  -3   -5.30   16.00
   1  -9   3   49.20   20.30
   1  -9   3   62.49   21.60
   1  -9   3   29.70   22.40
  -2   9  -3    4.70   17.00
  -2   9  -3  -14.70   22.20
  -2   9  -3   -3.60   18.60
   2  -9   3   23.90   19.70
   2  -9   3    7.80   20.30
   2  -9   3   41.30   20.60
  -3   9  -3   50.59   20.70
  -3   9  -3   63.29   21.00
  -3   9  -3   51.09   20.60
  -3   9  -3   74.69   22.60
   3  -9   3   59.39   19.40
   3  -9   3   42.20   19.30
  -4   9  -3  301.47   36.00
  -4   9  -3  359.36   32.90
  -4   9  -3  384.86   34.30
  -4   9  -3  381.66   34.20
   4  -9   3  344.87   17.40
   4  -9   3  317.17   31.00
   4  -9   3  359.36   16.10
   4  -9   3  413.26   39.60
   4  -9   3  340.17   34.20
  -5   9  -3   -0.20   20.30
  -5   9  -3    3.90   15.50
  -5   9  -3  -21.40   15.60
  -5   9  -3   24.90   18.20
   5  -9   3  -21.20   15.50
   5  -9   3   21.20   15.10
   5  -9   3   -0.40   16.40
   5  -9   3  -28.30   25.80
   5  -9   3   -2.40   10.60
   1   8  -3  188.48   32.20
   1   8  -3  142.49   21.50
   1   8  -3  135.59   31.20
   1   8  -3  112.49   24.30
  -1  -8   3  132.69   17.40
  -1  -8   3  141.59   27.50
  -1  -8   3  140.39   27.60
   0   8  -3  460.05   31.90
   0   8  -3  489.65   38.60
   0   8  -3  472.65   41.70
   0  -8   3  482.05   30.30
   0  -8   3  491.85   38.70
   0  -8   3  412.46   37.30
  -1   8  -3  286.97   30.30
  -1   8  -3  222.58   28.80
  -1   8  -3  276.07   27.20
  -1   8  -3  340.67   31.60
   1  -8   3  343.37   16.60
   1  -8   3  338.27   30.90
   1  -8   3  263.17   45.70
   1  -8   3  354.66   27.30
  -2   8  -3  382.96   31.40
  -2   8  -3  440.56   32.80
  -2   8  -3  392.26   31.20
   2  -8   3  452.75   31.00
   2  -8   3  464.95   34.90
   2  -8   3  401.16   17.60
   2  -8   3  464.25   31.60
  -3   8  -3  469.65   31.70
  -3   8  -3  364.16   29.80
  -3   8  -3  465.35   32.00
   3  -8   3  358.06   30.60
   3  -8   3  414.36   32.50
   3  -8   3  372.36   28.80
   3  -8   3  422.66   19.90
  -4   8  -3  190.78   27.90
  -4   8  -3  185.48   24.20
  -4   8  -3  238.58   24.10
   4  -8   3  249.58   26.20
   4  -8   3  223.48   24.20
   4  -8   3  244.48   23.40
  -5   8  -3    6.00   12.40
  -5   8  -3    1.30   17.30
  -5   8  -3   -3.00   14.40
   5  -8   3   -4.80    9.90
   5  -8   3    9.70   14.90
   5  -8   3   -3.80   12.10
   5  -8   3   22.40   19.80
  -6   8  -3  176.58   19.20
  -6   8  -3  204.28   36.70
  -6   8  -3  230.08   26.50
  -6   8  -3  190.38   23.20
   6  -8   3  187.98   19.50
   6  -8   3  162.08   19.50
   6  -8   3  214.88   28.70
   6  -8   3  212.98   31.20
  -7   8  -3  367.66   18.90
  -7   8  -3  402.66   38.80
  -7   8  -3  362.96   20.80
   7  -8   3  384.56   21.30
   7  -8   3  412.96   37.40
   7  -8   3  373.76   37.60
   7  -8   3  396.16   27.00
   2   7  -3   63.19   23.40
   2   7  -3   34.70   14.00
   2   7  -3   45.40   19.10
   2   7  -3   33.80   24.00
  -2  -7   3   77.19   21.40
  -2  -7   3   38.90   10.20
  -2  -7   3   33.50   22.80
   1   7  -3  992.20   48.70
   1   7  -3  987.30   50.49
   1   7  -3  950.00   43.40
  -1  -7   3  943.41   36.60
  -1  -7   3  904.21   46.70
  -1  -7   3 1020.40   38.30
  -1  -7   3  910.81   48.60
   0   7  -3  278.57   26.90
   0   7  -3  348.47   45.40
   0   7  -3  267.47   24.10
   0   7  -3  251.97   26.80
   0  -7   3  273.97   25.50
   0  -7   3  261.97   27.30
   0  -7   3  321.17   17.90
   0  -7   3  280.67   21.40
  -1   7  -3   35.40   13.70
  -1   7  -3   -0.30   12.00
  -1   7  -3   -3.10   12.60
   1  -7   3   16.90   12.90
   1  -7   3   31.30    7.70
   1  -7   3   10.40   13.20
   1  -7   3   28.20   11.70
  -2   7  -3   54.59   16.20
  -2   7  -3   20.20   12.70
  -2   7  -3   19.60   11.90
  -2   7  -3   18.00   12.90
   2  -7   3   22.50   13.40
   2  -7   3   12.80   11.60
   2  -7   3   26.00    7.80
   2  -7   3   30.90   12.10
  -3   7  -3  334.17   24.20
  -3   7  -3  370.46   25.70
  -3   7  -3  342.07   28.30
   3  -7   3  379.86   26.70
   3  -7   3  391.16   27.70
   3  -7   3  351.46   24.00
   3  -7   3  388.66   24.70
  -4   7  -3   14.50    9.70
  -4   7  -3   10.20   13.30
  -4   7  -3   -3.70    9.80
   4  -7   3    1.10   11.70
   4  -7   3   16.70   14.60
   4  -7   3   17.00   11.30
   4  -7   3    2.30    8.90
  -5   7  -3   17.60   13.50
  -5   7  -3    7.70   11.10
  -5   7  -3   31.70   10.70
  -5   7  -3    4.80    8.50
   5  -7   3   20.50   13.50
   5  -7   3    5.00    8.40
   5  -7   3   22.30   11.10
  -6   7  -3   -0.70    7.40
  -6   7  -3    0.40   15.20
  -6   7  -3   33.40   14.90
   6  -7   3    9.10   10.10
   6  -7   3   -5.40   14.70
   6  -7   3   -2.80   18.30
   6  -7   3    0.40   14.90
   6  -7   3   11.20    7.60
  -7   7  -3   43.80   18.60
  -7   7  -3   51.19    6.80
   7  -7   3   50.99   19.20
   7  -7   3   48.10   21.50
   7  -7   3   43.10    8.80
   7  -7   3   12.90   25.50
   7  -7   3   47.40   21.00
   7  -7   3   55.09   24.40
   7  -7   3   39.80   11.10
   4   6  -3  375.56   36.60
   4   6  -3  358.06   20.30
   4   6  -3  428.36   46.10
  -4  -6   3  365.26   34.50
  -4  -6   3  375.56   22.70
  -4  -6   3  399.46   20.10
  -4  -6   3  478.15   41.10
   3   6  -3  402.86   33.90
   3   6  -3  441.46   39.10
   3   6  -3  423.56   24.60
  -3  -6   3  456.25   36.30
  -3  -6   3  398.16   34.60
   2   6  -3   89.69   20.30
   2   6  -3   74.59   18.30
   2   6  -3  130.29   21.60
   2   6  -3  101.79   15.70
  -2  -6   3  109.29   20.80
  -2  -6   3   91.69   11.60
  -2  -6   3  114.99   15.60
   1   6  -3 1470.55   56.89
   1   6  -3 1394.26   55.39
   1   6  -3 1324.07   51.89
   1   6  -3 1346.17   56.39
  -1  -6   3 1397.16   45.30
  -1  -6   3 1432.66   48.00
  -1  -6   3 1415.06   54.39
  -1  -6   3 1448.06   57.89
   0   6  -3   10.40   11.10
   0   6  -3    4.10   11.10
   0   6  -3   -2.10   10.00
   0   6  -3    5.20   10.60
   0  -6   3   -6.30    7.50
   0  -6   3   -3.00    6.00
   0  -6   3    4.10   11.00
  -1   6  -3  133.79   17.90
  -1   6  -3  105.39   14.70
  -1   6  -3  129.09   16.80
  -1   6  -3  123.89   16.10
   1  -6   3  133.99   16.40
   1  -6   3  119.19   16.90
   1  -6   3  121.19   11.90
   1  -6   3  111.49   14.70
  -2   6  -3  322.57   24.70
  -2   6  -3  349.07   22.00
  -2   6  -3  327.57   21.90
  -2   6  -3  338.57   21.70
   2  -6   3  307.37   22.30
   2  -6   3  315.67   20.90
   2  -6   3  317.17   20.50
   2  -6   3  336.37   22.20
  -3   6  -3  296.37   20.10
  -3   6  -3  309.47   20.00
  -3   6  -3  271.97   23.80
  -3   6  -3  327.67   20.70
   3  -6   3  320.97   21.20
   3  -6   3  294.77   21.50
   3  -6   3  278.17   18.30
  -4   6  -3   50.39   16.30
  -4   6  -3   57.69   10.10
  -4   6  -3   51.69   11.70
   4  -6   3   51.99    9.50
   4  -6   3   48.90   12.10
   4  -6   3   57.29   13.80
   4  -6   3   52.09   10.70
  -5   6  -3   -5.30   12.60
  -5   6  -3   12.90    7.90
  -5   6  -3    1.90   10.00
   5  -6   3    7.00   10.90
   5  -6   3   18.60   11.10
   5  -6   3   -5.30    8.00
   5  -6   3    1.10    5.90
  -6   6  -3  177.38   23.20
  -6   6  -3  121.59   10.70
  -6   6  -3  135.19   12.70
   6  -6   3  147.49   20.70
   6  -6   3  130.69   21.60
   6  -6   3  102.69   18.40
   6  -6   3  128.39   11.30
   6  -6   3  113.89   15.10
  -7   6  -3  -22.50   13.70
   7  -6   3    2.90   21.90
   7  -6   3   14.50    8.40
   7  -6   3   -0.50   19.60
   7  -6   3   -2.80    6.50
   7  -6   3    3.00   17.00
   7  -6   3   25.80   20.40
   7  -6   3   25.10   20.00
   5   5  -3  -19.90   22.30
   5   5  -3   63.09   31.30
   5   5  -3   16.30   19.10
   5   5  -3   17.30   24.80
  -5  -5   3  -10.10   15.60
  -5  -5   3    2.30   19.70
   4   5  -3  147.89   25.60
   4   5  -3  152.88   25.30
   4   5  -3  121.59   13.50
   4   5  -3  144.59   21.90
  -4  -5   3  137.49   14.40
  -4  -5   3  156.28   22.70
  -4  -5   3  136.79   11.70
  -4  -5   3  142.39   23.40
   3   5  -3 1856.11   68.39
   3   5  -3 1832.22   69.89
   3   5  -3 1776.22   58.59
  -3  -5   3 1937.51   70.19
  -3  -5   3 1921.81   65.49
   2   5  -3  258.27   22.40
   2   5  -3  198.28   17.60
   2   5  -3  241.18   28.00
   2   5  -3  221.68   23.00
  -2  -5   3  179.48   21.80
  -2  -5   3  235.18   21.60
  -2  -5   3  222.18   18.20
  -2  -5   3  230.08   11.70
   1   5  -3 1110.79   44.40
   1   5  -3 1062.89   48.50
   1   5  -3  984.50   40.80
   1   5  -3 1048.20   43.30
  -1  -5   3  940.51   33.90
  -1  -5   3 1015.00   37.80
  -1  -5   3 1184.58   53.39
  -1  -5   3 1249.07   46.40
   0   5  -3 1130.69   43.00
   0   5  -3 1076.39   42.90
   0   5  -3 1139.19   42.30
   0   5  -3 1081.29   42.70
   0  -5   3 1094.59   37.30
   0  -5   3 1068.99   37.00
   0  -5   3 1109.69   43.80
   0  -5   3 1088.29   41.50
  -1   5  -3 1395.86   53.59
  -1   5  -3 1522.45   51.39
  -1   5  -3 1492.25   51.69
  -1   5  -3 1467.65   50.89
   1  -5   3 1530.65   52.89
   1  -5   3 1572.74   50.79
   1  -5   3 1484.95   49.10
  -2   5  -3  591.14   26.60
  -2   5  -3  602.54   31.00
  -2   5  -3  647.44   27.50
  -2   5  -3  657.83   26.90
   2  -5   3  612.44   25.80
   2  -5   3  575.44   27.20
   2  -5   3  646.84   28.30
   2  -5   3  611.64   27.90
  -3   5  -3   42.20    9.90
  -3   5  -3   44.50    7.90
  -3   5  -3   40.10   10.50
  -3   5  -3   47.00    8.90
  -3   5  -3   52.69    9.70
   3  -5   3   59.29   10.70
   3  -5   3   43.20   10.50
   3  -5   3   58.09    8.40
   3  -5   3   53.19    9.70
  -4   5  -3  573.04   30.40
  -4   5  -3  546.55   31.70
  -4   5  -3  638.84   27.90
   4  -5   3  591.04   31.40
   4  -5   3  643.24   29.30
   4  -5   3  608.54   23.10
   4  -5   3  629.94   26.10
   4  -5   3  495.85   24.20
  -5   5  -3  241.88   12.60
  -5   5  -3  253.47   23.40
  -5   5  -3  234.78   23.30
   5  -5   3  242.58   20.00
   5  -5   3  202.48   23.10
   5  -5   3  251.57   16.10
   5  -5   3  228.38   22.40
   5  -5   3  261.07   21.20
   5  -5   3  234.78   13.10
  -6   5  -3  999.10   31.10
  -6   5  -3  994.60   46.10
  -6   5  -3 1012.50   48.10
   6  -5   3 1068.79   45.30
   6  -5   3  960.00   43.80
   6  -5   3 1072.99   34.90
   6  -5   3  852.71   45.00
   6  -5   3 1026.20   32.20
   6  -5   3  998.90   47.90
  -7   5  -3  144.89   24.50
  -7   5  -3  126.69   21.20
   7  -5   3  124.09   24.20
   7  -5   3   93.79   23.00
   7  -5   3  124.39   24.60
   7  -5   3  153.28   13.00
   7  -5   3  126.79   23.30
   7  -5   3  145.39   12.10
   7  -5   3  142.39   22.30
  -8   5  -3   42.10   22.10
  -8   5  -3   89.89   20.70
   8  -5   3   16.50   29.30
   8  -5   3   37.80   31.00
   8  -5   3   95.09   27.70
   8  -5   3   57.89   21.90
   5   4  -3   97.09   39.00
   5   4  -3  139.69   21.30
   5   4  -3   70.19   30.30
  -5  -4   3   95.89   19.90
  -5  -4   3  133.39   22.40
  -5  -4   3  139.49   22.50
   4   4  -3    4.40   16.30
   4   4  -3   14.50    8.80
   4   4  -3   21.50   14.60
   4   4  -3    8.80   12.40
  -4  -4   3   -0.70   11.00
  -4  -4   3   15.40    5.10
  -4  -4   3   16.00   10.40
  -4  -4   3   12.50   12.90
   3   4  -3  148.29   18.60
   3   4  -3  156.78   20.90
   3   4  -3  174.18   14.30
   3   4  -3  208.38   21.10
  -3  -4   3  169.18   20.10
  -3  -4   3  160.88   18.70
  -3  -4   3  175.28   17.30
   2   4  -3  112.79   15.20
   2   4  -3  123.29   12.40
   2   4  -3   95.89   14.70
  -2  -4   3  106.89   12.50
  -2  -4   3  110.79    6.60
  -2  -4   3  112.79   13.70
  -2  -4   3  118.59   15.20
   1   4  -3 1326.67   46.40
   1   4  -3 1247.88   44.70
   1   4  -3 1355.76   46.80
   1   4  -3 1293.77   51.49
  -1  -4   3 1300.07   43.30
  -1  -4   3 1318.77   45.10
  -1  -4   3 1217.98   38.30
  -1  -4   3 1271.97   47.00
   0   4  -3 5237.38  141.49
   0   4  -3 5034.10  140.79
   0   4  -3 5070.99  141.09
   0   4  -3 5148.49  142.79
   0  -4   3 5109.39  139.99
   0  -4   3 4907.61  135.89
   0  -4   3 5120.19  142.29
   0  -4   3 5040.00  137.79
  -1   4  -3  119.19   11.70
  -1   4  -3  113.69   10.90
  -1   4  -3  120.19   11.50
  -1   4  -3  117.69   11.80
   1  -4   3  106.29   11.30
   1  -4   3  122.29   10.70
   1  -4   3  110.79   11.70
   1  -4   3  124.59   10.60
  -2   4  -3  461.15   20.40
  -2   4  -3  461.75   24.10
  -2   4  -3  453.05   21.40
  -2   4  -3  474.65   22.80
  -2   4  -3  462.75   19.70
   2  -4   3  475.15   19.60
   2  -4   3  473.25   22.30
   2  -4   3  486.55   22.50
   2  -4   3  467.15   21.20
  -3   4  -3  407.16   24.00
  -3   4  -3  398.76   21.80
  -3   4  -3  414.06   20.40
  -3   4  -3  418.96   17.30
  -3   4  -3  425.36   18.80
   3  -4   3  391.46   22.40
   3  -4   3  415.36   19.20
   3  -4   3  379.96   21.00
   3  -4   3  392.16   17.30
   3  -4   3  414.26   17.20
  -4   4  -3 1721.73   60.09
  -4   4  -3 1742.53   49.70
  -4   4  -3 1687.63   50.79
  -4   4  -3 1723.43   60.39
  -4   4  -3 1755.22   56.09
   4  -4   3 1653.53   58.79
   4  -4   3 1725.83   54.29
   4  -4   3 1711.43   52.09
   4  -4   3 1706.63   57.59
   4  -4   3 1730.63   59.99
   4  -4   3 1717.03   49.90
  -5   4  -3  119.29   17.60
  -5   4  -3  103.89   16.80
  -5   4  -3   97.39    8.10
   5  -4   3  100.99   16.70
   5  -4   3   94.29   14.10
   5  -4   3  101.19   15.80
   5  -4   3  100.29   14.80
   5  -4   3   97.99    8.80
   5  -4   3   98.39   10.60
  -6   4  -3   12.60    5.00
  -6   4  -3    8.50    4.60
  -6   4  -3   40.30   14.30
  -6   4  -3   10.80   11.70
   6  -4   3   26.70   14.80
   6  -4   3   13.70    5.60
   6  -4   3   13.10   13.20
   6  -4   3   19.10   11.50
   6  -4   3    7.30   13.30
   6  -4   3   13.50    6.60
  -7   4  -3  231.48   29.50
  -7   4  -3  222.88   24.40
   7  -4   3  330.47   31.90
   7  -4   3  281.97   33.70
   7  -4   3  297.87   34.80
   7  -4   3  285.27   15.60
   7  -4   3  288.47   27.80
   7  -4   3  247.88   30.50
   7  -4   3  255.67   21.40
  -8   4  -3  201.58   24.60
  -8   4  -3  151.48   27.60
   8  -4   3  138.29   11.50
   8  -4   3  158.78   26.80
   8  -4   3  135.29   11.50
   8  -4   3  127.59   32.50
   6   3  -3  178.88   32.60
   6   3  -3  195.58   25.60
   6   3  -3  203.38   27.40
   6   3  -3  232.48   26.10
  -6  -3   3  202.58   26.30
  -6  -3   3  185.98   23.00
  -6  -3   3  215.18   27.30
   5   3  -3   58.19   14.70
   5   3  -3   48.20   15.40
   5   3  -3   31.30   14.20
   5   3  -3   22.20   18.10
  -5  -3   3   62.89   16.30
  -5  -3   3   29.50   12.80
  -5  -3   3   23.60   13.20
  -5  -3   3   61.89   14.60
   4   3  -3 1382.06   50.89
   4   3  -3 1318.37   53.59
   4   3  -3 1351.76   51.09
  -4  -3   3 1386.06   51.09
  -4  -3   3 1302.77   38.20
  -4  -3   3 1380.86   52.39
  -4  -3   3 1350.36   50.99
  -4  -3   3 1392.56   49.20
   3   3  -3  295.27   21.50
   3   3  -3  305.47   20.40
   3   3  -3  300.37   16.40
   3   3  -3  278.67   20.30
  -3  -3   3  297.07   19.20
  -3  -3   3  325.17   20.00
  -3  -3   3  285.87   20.30
  -3  -3   3  297.47   13.20
   2   3  -3  178.88   15.00
   2   3  -3  183.48   14.70
   2   3  -3  169.08   12.40
  -2  -3   3  187.48   14.20
  -2  -3   3  173.18   15.20
  -2  -3   3  170.18   13.50
   1   3  -3 2837.62   82.09
   1   3  -3 2751.92   81.49
   1   3  -3 2842.32   81.29
   1   3  -3 2775.12   81.49
  -1  -3   3 2753.62   82.19
  -1  -3   3 2757.42   80.39
  -1  -3   3 2891.11   80.49
  -1  -3   3 2682.03   74.39
   0   3  -3  385.06   18.20
   0   3  -3  389.96   19.50
   0   3  -3  381.76   18.00
   0   3  -3  395.66   15.80
   0   3  -3  354.96   11.10
   0   3  -3  389.06   18.00
   0  -3   3  376.76   15.50
   0  -3   3  364.86   18.30
   0  -3   3  377.86   17.10
   0  -3   3  405.46   18.60
  -1   3  -3  345.07   15.60
  -1   3  -3  358.36   19.00
  -1   3  -3  357.26   16.60
  -1   3  -3  348.67   16.00
  -1   3  -3  343.87   16.70
   1  -3   3  345.27   15.40
   1  -3   3  359.86   16.80
   1  -3   3  356.26   17.30
   1  -3   3  350.96   16.30
  -2   3  -3 1741.33   49.80
  -2   3  -3 1718.53   55.79
  -2   3  -3 1650.93   50.09
  -2   3  -3 1737.43   53.09
  -2   3  -3 1660.63   53.89
   2  -3   3 1774.82   53.89
   2  -3   3 1718.63   51.09
   2  -3   3 1695.33   49.40
   2  -3   3 1674.13   53.59
  -3   3  -3   79.69   12.30
  -3   3  -3   75.19    9.60
  -3   3  -3   67.49    7.50
  -3   3  -3   78.69   11.30
  -3   3  -3   60.79    6.70
   3  -3   3   54.19   10.20
   3  -3   3   86.59   11.00
   3  -3   3   67.09    7.70
   3  -3   3   59.29    9.50
   3  -3   3   59.49    6.60
  -4   3  -3  321.87   21.30
  -4   3  -3  292.87   13.00
  -4   3  -3  294.37   13.50
  -4   3  -3  283.47   19.40
   4  -3   3  289.87   20.40
   4  -3   3  315.27   14.80
   4  -3   3  292.47   19.00
   4  -3   3  284.17   13.30
   4  -3   3  298.97   19.00
  -5   3  -3  135.69   17.80
  -5   3  -3  142.29   15.60
  -5   3  -3  131.89    9.50
   5  -3   3  118.69   10.50
   5  -3   3  121.79   15.90
   5  -3   3  126.19   17.20
   5  -3   3  114.69    9.90
  -6   3  -3  181.88   19.10
  -6   3  -3  205.48   24.10
  -6   3  -3  171.28   10.90
  -6   3  -3  184.88   11.70
   6  -3   3  170.78   20.40
   6  -3   3  191.28   22.80
   6  -3   3  154.28   20.80
   6  -3   3  178.48   13.10
   6  -3   3  167.38   13.00
  -7   3  -3  103.19   20.80
  -7   3  -3   99.99   17.10
  -7   3  -3   74.79    8.60
  -7   3  -3   65.89    7.20
   7  -3   3   70.59   12.00
   7  -3   3   61.39   23.60
   7  -3   3   90.29   23.00
   7  -3   3   80.09   10.20
   7  -3   3   81.09   11.50
   7  -3   3   66.19   20.40
   7  -3   3   84.59   20.30
   7   2  -3   -5.60   14.00
   7   2  -3  -16.40   16.70
   7   2  -3   51.39   27.60
   7   2  -3   21.80   24.80
  -7  -2   3   -1.60   16.00
  -7  -2   3    3.60   13.90
  -7  -2   3    2.00   14.80
   6   2  -3  949.31   40.20
   6   2  -3  874.11   40.90
  -6  -2   3  931.81   38.30
  -6  -2   3  859.81   39.20
  -6  -2   3  930.71   44.50
   5   2  -3   44.30    8.00
   5   2  -3   48.80   14.40
   5   2  -3   45.40    6.80
   5   2  -3   34.40   15.90
   5   2  -3   51.79   12.30
   5   2  -3   30.00   10.90
  -5  -2   3   40.80   10.90
  -5  -2   3   47.80   12.10
  -5  -2   3   38.60   13.30
  -5  -2   3   46.20   11.90
   4   2  -3  658.33   32.60
   4   2  -3  631.74   29.00
   4   2  -3  631.94   29.50
   4   2  -3  659.13   28.60
  -4  -2   3  617.44   19.70
  -4  -2   3  663.03   27.90
  -4  -2   3  668.33   29.50
  -4  -2   3  633.54   29.30
  -4  -2   3  641.04   31.10
   3   2  -3  411.76   22.60
   3   2  -3  478.85   21.70
   3   2  -3  439.46   20.80
   3   2  -3  433.76   21.40
  -3  -2   3  416.06   21.40
  -3  -2   3  461.45   20.60
  -3  -2   3  426.86   22.50
  -3  -2   3  424.76   15.40
   2   2  -3 1489.55   44.50
   2   2  -3 1514.55   48.50
   2   2  -3 1396.06   46.10
   2   2  -3 1495.05   46.70
  -2  -2   3 1434.46   47.40
  -2  -2   3 1453.45   47.30
  -2  -2   3 1412.36   41.90
  -2  -2   3 1467.55   45.50
   1   2  -3 9983.30  256.07
   1   2  -3 9666.83  255.17
   1   2  -3 9593.84  251.37
   1   2  -3 9730.43  255.27
  -1  -2   3 9588.54  255.77
  -1  -2   3 9999.00  256.37
  -1  -2   3 9997.30  254.67
   0   2  -3  651.23   21.90
   0   2  -3  663.73   23.00
   0   2  -3  680.73   23.30
   0   2  -3  647.84   23.90
   0  -2   3  707.53   24.50
   0  -2   3  681.63   22.10
   0  -2   3  640.54   18.30
   0  -2   3  672.63   23.70
   0  -2   3  609.14   22.10
  -1   2  -3  227.18   13.70
  -1   2  -3  229.18   11.00
  -1   2  -3  223.08   12.10
  -1   2  -3  221.58   10.50
  -1   2  -3  228.38   12.50
   1  -2   3  229.18   11.50
   1  -2   3  220.68   11.90
   1  -2   3  246.88   12.90
   1  -2   3  222.18   12.10
  -2   2  -3    4.70    4.50
  -2   2  -3    5.10    3.40
  -2   2  -3   12.10    3.40
  -2   2  -3   -2.40    4.20
  -2   2  -3   10.80    6.20
   2  -2   3    7.50    4.70
   2  -2   3   11.20    3.90
   2  -2   3    8.30    4.90
   2  -2   3   10.00    3.30
   2  -2   3   12.40    5.40
  -3   2  -3  702.03   29.50
  -3   2  -3  709.13   23.50
  -3   2  -3  702.93   23.80
  -3   2  -3  734.83   29.10
  -3   2  -3  748.83   27.90
   3  -2   3  736.73   24.50
   3  -2   3  689.43   28.90
   3  -2   3  686.23   29.20
   3  -2   3  678.43   23.50
   3  -2   3  704.33   28.30
  -4   2  -3  153.48   13.20
  -4   2  -3  135.09    9.50
  -4   2  -3  176.38   16.00
  -4   2  -3  140.39    9.40
   4  -2   3  135.09   15.10
   4  -2   3  149.09   10.30
   4  -2   3  152.48   15.90
   4  -2   3  129.29   13.90
   4  -2   3  141.79   10.20
  -5   2  -3   23.60   10.80
  -5   2  -3   24.30    5.50
  -5   2  -3   29.60   10.00
  -5   2  -3   16.90    6.00
   5  -2   3   22.10   10.40
   5  -2   3   33.60   10.10
   5  -2   3   19.50    5.90
   5  -2   3   15.10    6.20
   5  -2   3   26.60    7.10
  -6   2  -3  187.48   15.20
  -6   2  -3  204.68   18.40
  -6   2  -3  254.77   24.40
   6  -2   3  192.38   16.60
   6  -2   3  218.08   22.60
   6  -2   3  215.28   14.10
   6  -2   3  175.78   25.60
   6  -2   3  216.78   15.00
  -7   2  -3   45.10   12.60
  -7   2  -3    9.10   17.00
  -7   2  -3   36.40    8.10
  -7   2  -3   34.80    9.60
   7  -2   3   42.40   20.50
   7  -2   3   36.60    8.30
   7  -2   3   61.09   19.30
   7  -2   3   26.90    9.30
   7  -2   3   43.80   12.10
   7  -2   3   18.10   22.70
   7   1  -3  444.86   27.30
   7   1  -3  426.86   39.00
   7   1  -3  378.26   41.20
   7   1  -3  424.56   27.90
  -7  -1   3  464.65   25.40
  -7  -1   3  485.65   40.60
  -7  -1   3  406.56   26.00
   6   1  -3  131.59   20.30
   6   1  -3  117.49   14.40
   6   1  -3   92.99   14.10
   6   1  -3  142.19   21.70
  -6  -1   3  133.59   18.40
  -6  -1   3  143.39   14.90
  -6  -1   3   98.89   13.50
   5   1  -3   11.20    9.40
   5   1  -3   12.00    7.50
   5   1  -3   16.50   14.30
   5   1  -3   16.30    8.10
  -5  -1   3    9.00    7.60
  -5  -1   3   30.60    9.10
  -5  -1   3   25.50    7.20
  -5  -1   3   22.20   10.60
   4   1  -3  194.38   15.80
   4   1  -3  180.68   13.30
   4   1  -3  196.28   17.40
   4   1  -3  201.28   13.80
  -4  -1   3  197.38   12.80
  -4  -1   3  189.88   14.40
  -4  -1   3  199.98   16.70
  -4  -1   3  184.38    8.80
  -4  -1   3  200.08   14.40
   3   1  -3 3049.59   85.69
   3   1  -3 3096.19   85.99
   3   1  -3 3158.28   90.39
   3   1  -3 3028.80   87.49
  -3  -1   3 3119.89   89.59
  -3  -1   3 3080.99   84.59
  -3  -1   3 3144.29   86.49
  -3  -1   3 2902.41   85.79
  -3  -1   3 2937.31   81.19
   2   1  -3 1280.27   42.00
   2   1  -3 1259.97   39.30
   2   1  -3 1251.97   38.80
   2   1  -3 1291.67   39.10
  -2  -1   3 1332.57   38.40
  -2  -1   3 1239.58   39.40
  -2  -1   3 1291.17   41.60
  -2  -1   3 1257.67   36.60
   1   1  -3 2886.31   76.69
   1   1  -3 2845.82   76.49
   1   1  -3 2795.82   77.29
  -1  -1   3 2721.73   75.19
  -1  -1   3 2736.13   75.69
  -1  -1   3 2805.62   76.99
  -1  -1   3 2789.02   77.19
  -1  -1   3 2847.32   75.59
   0   1  -3 7392.06  187.48
   0   1  -3 7152.48  187.38
   0   1  -3 7338.97  188.58
   0   1  -3 7174.38  188.08
   0  -1   3 7215.78  186.98
   0  -1   3 7264.87  187.58
   0  -1   3 7197.98  187.98
   0  -1   3 7136.09  188.68
  -1   1  -3 7092.39  185.28
  -1   1  -3 6880.81  181.98
  -1   1  -3 7144.89  184.18
  -1   1  -3 6993.90  182.18
   1  -1   3 6911.51  182.48
   1  -1   3 7053.19  182.58
   1  -1   3 7042.30  184.48
   1  -1   3 7020.20  183.88
   1  -1   3 7060.69  182.18
  -2   1  -3 2726.13   76.09
  -2   1  -3 2879.71   79.49
  -2   1  -3 2735.03   76.09
  -2   1  -3 2840.02   81.09
  -2   1  -3 2816.82   80.29
   2  -1   3 2717.13   76.29
   2  -1   3 2804.52   76.39
   2  -1   3 2856.41   80.39
   2  -1   3 2717.23   76.19
   2  -1   3 2864.91   80.09
  -3   1  -3   92.49   11.40
  -3   1  -3  100.89    8.40
  -3   1  -3   99.49    9.90
  -3   1  -3  110.79   12.70
  -3   1  -3   97.09    8.30
   3  -1   3   92.39    8.20
   3  -1   3   78.09    9.10
   3  -1   3   84.49    7.80
   3  -1   3  104.69   11.70
   3  -1   3   81.99    8.30
  -4   1  -3  885.51   30.30
  -4   1  -3  917.61   37.30
  -4   1  -3  895.11   31.40
  -4   1  -3  920.01   37.80
  -4   1  -3  931.81   32.50
   4  -1   3  908.61   37.50
   4  -1   3  905.81   29.20
   4  -1   3  916.71   30.80
   4  -1   3  935.01   36.40
   4  -1   3  854.41   31.60
  -5   1  -3   29.20    7.90
  -5   1  -3   25.70   11.10
  -5   1  -3   21.10    7.60
  -5   1  -3   53.39    9.40
  -5   1  -3   36.20   12.20
   5  -1   3   22.30    5.80
   5  -1   3   42.80   12.80
   5  -1   3   39.10   11.60
   5  -1   3   27.30    7.10
   5  -1   3   20.50    8.70
   5  -1   3   36.40   14.30
  -6   1  -3  176.78   13.70
  -6   1  -3  168.38   17.50
  -6   1  -3  220.58   24.70
  -6   1  -3  123.79   18.10
  -6   1  -3  157.98   23.70
   6  -1   3  183.88   19.20
   6  -1   3  197.98   15.60
   6  -1   3  180.88   10.50
   6  -1   3  155.28   21.10
  -7   1  -3  175.78   26.40
  -7   1  -3  141.29   15.50
  -7   1  -3  111.39   16.10
  -7   1  -3  188.48   25.60
   7  -1   3  154.28   33.50
   7  -1   3  129.49   18.50
   7  -1   3  140.39   27.40
   7  -1   3  147.69   24.10
   7  -1   3  163.78   17.90
   8   0  -3   44.60   30.30
   8   0  -3   -6.80   28.80
   8   0  -3   40.20   11.70
   8   0  -3   32.90   11.70
  -8   0   3   41.20    9.40
  -8   0   3   24.40   18.30
  -8   0   3   46.20    9.90
   7   0  -3   -5.20    8.00
   7   0  -3   -1.60    8.00
  -7   0   3   -3.40   11.90
  -7   0   3    1.60    6.90
   6   0  -3  193.98   14.40
   6   0  -3  176.28   21.60
   6   0  -3  147.19   22.80
   6   0  -3  214.18   14.80
  -6   0   3  185.88   13.70
  -6   0   3  197.98   12.70
  -6   0   3  213.18   21.40
  -6   0   3  156.68   18.10
   5   0  -3   22.20    5.90
   5   0  -3   22.40   10.70
   5   0  -3   11.70    4.00
   5   0  -3   13.00    5.90
   5   0  -3   10.60    5.60
   5   0  -3   22.00    8.50
  -5   0   3   15.40    7.20
  -5   0   3   15.10    5.20
  -5   0   3    6.30    8.30
  -5   0   3   10.90    5.50
   4   0  -3  267.27   18.90
   4   0  -3  278.57   14.10
   4   0  -3  295.77   11.90
   4   0  -3  274.17   18.00
   4   0  -3  261.77   12.60
   4   0  -3  300.47   13.90
  -4   0   3  309.27   18.90
  -4   0   3  283.07   14.10
  -4   0   3  272.87   12.40
  -4   0   3  282.27   12.70
  -4   0   3  300.17   16.20
   3   0  -3 1644.64   52.99
   3   0  -3 1728.93   48.20
   3   0  -3 1677.33   46.90
   3   0  -3 1733.23   47.20
   3   0  -3 1654.73   52.09
   3   0  -3 1723.33   48.00
  -3   0   3 1664.03   47.00
  -3   0   3 1679.73   52.99
  -3   0   3 1679.53   51.59
  -3   0   3 1680.03   47.40
  -3   0   3 1566.64   48.90
  -3   0   3 1672.73   48.40
   2   0  -3   26.20    5.40
   2   0  -3   24.90    3.70
   2   0  -3   19.30    3.70
   2   0  -3   23.40    3.70
  -2   0   3   23.50    4.60
  -2   0   3   27.30    5.90
  -2   0   3   27.80    4.20
  -2   0   3   21.20    3.10
  -2   0   3   20.40    4.60
  -2   0   3   27.70    3.50
   1   0  -3 1028.70   30.20
   1   0  -3 1043.70   30.50
   1   0  -3 1001.80   30.00
   1   0  -3 1061.39   30.40
  -1   0   3 1041.70   30.40
  -1   0   3  999.50   29.90
  -1   0   3 1031.60   30.50
  -1   0   3  991.70   30.10
   0   0  -3 4533.35  115.09
   0   0  -3 3923.61  114.89
   0   0  -3 4479.75  115.09
   0   0  -3 4311.77  114.69
   0   0  -3 4386.76  114.89
   0   0   3 4501.95  114.99
   0   0   3 4461.05  115.29
   0   0   3 4527.85  114.89
   0   0   3 4169.48  113.49
   0   0   3 4317.07  114.79
  -1   0  -3   78.09    5.90
  -1   0  -3   79.39    6.30
  -1   0  -3   87.79    7.30
   1   0   3  107.49    7.40
   1   0   3   90.69    6.60
   1   0   3   67.09    6.50
   1   0   3   82.49    6.80
   1   0   3   66.79    5.50
  -2   0  -3 2444.26   68.09
  -2   0  -3 2426.56   67.39
  -2   0  -3 2385.46   71.09
  -2   0  -3 2450.15   71.09
   2   0   3 2379.46   67.29
   2   0   3 2429.36   68.59
   2   0   3 2201.28   69.89
   2   0   3 2434.86   69.99
   2   0   3 2426.16   65.69
  -3   0  -3 3277.77   97.99
  -3   0  -3 3378.06   97.39
  -3   0  -3 3318.97   92.19
  -3   0  -3 3445.06   91.39
  -3   0  -3 3285.27   93.39
   3   0   3 3175.58   97.39
   3   0   3 3412.46   94.39
   3   0   3 3397.26   89.39
   3   0   3 3346.17   92.49
   3   0   3 3265.87   96.09
  -4   0  -3   89.69    9.40
  -4   0  -3  133.89   13.10
  -4   0  -3  122.09   11.10
  -4   0  -3  115.49   14.90
  -4   0  -3   94.19   14.70
   4   0   3  111.49   10.80
   4   0   3   96.69   12.80
   4   0   3  117.09    8.10
   4   0   3   98.89   13.70
   4   0   3  129.49   14.20
  -5   0  -3   13.40   10.50
  -5   0  -3    3.90    7.10
  -5   0  -3   17.10    4.70
  -5   0  -3    6.70    9.00
  -5   0  -3   26.90   12.00
   5   0   3   13.30    4.00
   5   0   3    6.90   12.20
   5   0   3   15.70    9.90
   5   0   3   -3.60    9.90
   5   0   3   20.50    7.40
  -6   0  -3    3.40   12.60
  -6   0  -3   16.30   14.10
  -6   0  -3    3.10    9.10
  -6   0  -3   -9.70   13.50
   6   0   3   12.20   13.90
   6   0   3    0.10   13.90
   6   0   3   19.70    9.50
   6   0   3   16.40   21.90
  -7   0  -3  292.87   32.20
  -7   0  -3  287.67   33.80
  -7   0  -3  287.37   23.20
  -7   0  -3  262.17   30.30
   7   0   3  353.46   32.30
   7   0   3  288.87   23.50
   7   0   3  247.98   32.70
   8  -1  -3  -18.10   23.80
   8  -1  -3    2.90    7.10
   8  -1  -3   23.50   24.40
  -8   1   3    8.80   15.40
   7  -1  -3  184.98   10.20
   7  -1  -3  162.38   12.30
   7  -1  -3  103.29   20.50
   7  -1  -3  200.28   19.10
   7  -1  -3  178.58   12.40
  -7   1   3  179.98   20.80
  -7   1   3  171.68    8.70
  -7   1   3  175.98    9.20
   6  -1  -3   29.80   12.10
   6  -1  -3   13.80    5.20
   6  -1  -3    5.90    4.60
   6  -1  -3   15.20    7.90
   6  -1  -3   11.70    4.90
   6  -1  -3    1.50   12.20
   6  -1  -3   33.90   10.10
  -6   1   3    6.50    9.30
  -6   1   3   18.10    9.00
  -6   1   3   21.90    4.40
  -6   1   3   10.70    3.50
   5  -1  -3  176.48    9.20
   5  -1  -3  164.18   13.20
   5  -1  -3  143.79   12.10
   5  -1  -3  178.58    9.90
   5  -1  -3  153.18   17.00
   5  -1  -3  153.48   10.00
   5  -1  -3  145.99   14.70
  -5   1   3  155.38   14.80
  -5   1   3  175.98    7.90
  -5   1   3  173.98    9.00
  -5   1   3  181.88   14.70
   4  -1  -3  241.68   13.40
   4  -1  -3  228.98   13.00
   4  -1  -3  253.27   16.90
   4  -1  -3  255.37   10.30
   4  -1  -3  259.27   16.80
   4  -1  -3  228.68   11.70
   4  -1  -3  242.98   10.70
  -4   1   3  272.47   16.30
  -4   1   3  246.18   12.90
  -4   1   3  254.97   16.40
  -4   1   3  232.48    9.30
  -4   1   3  248.78   14.20
   3  -1  -3 1020.30   29.40
   3  -1  -3  995.90   29.30
   3  -1  -3  991.00   35.40
   3  -1  -3 1043.60   35.20
   3  -1  -3  984.20   31.30
   3  -1  -3 1019.60   30.80
  -3   1   3 1036.10   29.10
  -3   1   3 1014.60   29.90
  -3   1   3 1002.50   32.20
  -3   1   3  985.50   31.10
  -3   1   3 1013.80   34.70
  -3   1   3 1043.10   34.70
   2  -1  -3 1100.59   30.40
   2  -1  -3 1090.19   31.60
   2  -1  -3 1125.69   32.10
   2  -1  -3 1151.58   32.50
   2  -1  -3 1129.59   34.00
  -2   1   3 1118.49   35.50
  -2   1   3 1105.59   32.20
  -2   1   3 1132.39   32.30
  -2   1   3 1156.48   34.60
  -2   1   3 1086.39   36.30
   1  -1  -3 8419.96  214.78
   1  -1  -3 8416.56  214.58
   1  -1  -3 8095.49  215.08
  -1   1   3 8338.77  214.78
  -1   1   3 8318.47  215.68
  -1   1   3 8307.27  214.38
   0  -1  -3    7.10    2.60
   0  -1  -3    6.10    2.90
   0  -1  -3    4.50    2.90
   0   1   3    7.30    3.40
   0   1   3    2.50    2.60
   0   1   3    7.90    3.10
   0   1   3    1.40    2.80
  -1  -1  -3  484.45   19.30
  -1  -1  -3  535.75   20.30
  -1  -1  -3  489.65   17.40
  -1  -1  -3  499.95   19.90
   1   1   3  512.45   18.10
   1   1   3  503.05   19.90
   1   1   3  475.25   22.70
  -2  -1  -3  219.98   13.30
  -2  -1  -3  220.78   13.90
  -2  -1  -3  205.88   10.00
  -2  -1  -3  216.98   14.20
   2   1   3  206.58   10.60
   2   1   3  195.28   14.00
   2   1   3  214.88   14.60
  -3  -1  -3   79.59    7.70
  -3  -1  -3   92.59   12.90
  -3  -1  -3   88.99   12.30
  -3  -1  -3   98.69    7.70
  -3  -1  -3   94.29   12.20
  -3  -1  -3   81.89   10.70
   3   1   3   78.09    7.40
   3   1   3   68.69   11.10
  -4  -1  -3  106.19   15.10
  -4  -1  -3  105.89   12.70
  -4  -1  -3  108.19   14.50
  -4  -1  -3  118.19   14.50
   4   1   3  107.29    7.80
   4   1   3  122.29   17.60
   4   1   3  114.59   15.00
  -5  -1  -3  149.88   16.30
  -5  -1  -3  160.08   20.50
  -5  -1  -3  159.58   18.90
  -5  -1  -3  183.88   22.90
   5   1   3  163.38   25.40
   5   1   3  165.18   16.60
   5   1   3  159.88   20.20
  -6  -1  -3   54.79   17.50
  -6  -1  -3   58.09   18.90
  -6  -1  -3   42.80   17.60
  -6  -1  -3   47.70   13.00
   6   1   3   16.20   18.90
   6   1   3   22.30   12.30
   6   1   3   47.00   26.30
   6   1   3   52.19   17.70
   8  -2  -3  354.86   28.60
   8  -2  -3  396.16   18.20
   8  -2  -3  369.16   30.30
   8  -2  -3  389.06   40.00
   8  -2  -3  479.35   42.80
  -8   2   3  430.86   31.60
   7  -2  -3  257.67   21.70
   7  -2  -3  238.48    8.50
   7  -2  -3  254.07   15.20
   7  -2  -3  253.47   22.20
   7  -2  -3  277.97   28.70
  -7   2   3  251.67   22.30
   6  -2  -3  260.77   27.90
   6  -2  -3  291.27   10.10
   6  -2  -3  295.27   19.20
   6  -2  -3  300.67   24.20
   6  -2  -3  308.27   20.00
   6  -2  -3  296.97   15.80
   6  -2  -3  300.87   10.30
  -6   2   3  322.67   23.00
  -6   2   3  287.67   16.70
  -6   2   3  288.87   21.00
   5  -2  -3  400.56   22.90
   5  -2  -3  389.86   13.10
   5  -2  -3  398.96   27.70
   5  -2  -3  381.56   18.10
   5  -2  -3  406.86   21.30
   5  -2  -3  405.56   19.60
  -5   2   3  409.16   18.90
  -5   2   3  380.96   20.00
  -5   2   3  407.46   22.70
   4  -2  -3 3271.37   89.49
   4  -2  -3 3154.48   84.39
   4  -2  -3 3281.87   98.49
   4  -2  -3 3272.87   90.29
   4  -2  -3 3224.98   84.39
   4  -2  -3 3249.27   95.29
  -4   2   3 3294.27   94.19
  -4   2   3 3079.39   83.79
  -4   2   3 3248.67   92.59
  -4   2   3 3321.77   90.89
  -4   2   3 3081.59   83.99
   3  -2  -3 1805.52   49.60
   3  -2  -3 1865.31   54.29
   3  -2  -3 1828.22   51.19
   3  -2  -3 1805.52   55.19
  -3   2   3 1868.61   54.39
  -3   2   3 1763.72   49.40
  -3   2   3 1817.32   56.69
  -3   2   3 1763.12   49.90
  -3   2   3 1834.02   54.09
  -3   2   3 1806.82   54.99
   2  -2  -3  897.81   27.60
   2  -2  -3  897.41   27.20
   2  -2  -3  887.71   29.70
  -2   2   3  839.82   28.00
  -2   2   3  876.41   29.30
  -2   2   3  868.01   27.70
  -2   2   3  865.51   26.90
  -2   2   3  867.91   30.10
   1  -2  -3 1985.30   56.49
   1  -2  -3 1877.91   55.69
   1  -2  -3 1930.21   56.39
  -1   2   3 1877.41   52.39
  -1   2   3 2007.30   57.69
  -1   2   3 2072.39   56.29
  -1   2   3 1933.61   56.69
   0  -2  -3   50.29    7.20
   0  -2  -3   37.50    5.50
   0  -2  -3   42.60    6.50
   0   2   3   38.90    6.80
   0   2   3   51.29   11.30
   0   2   3   32.90    5.70
  -1  -2  -3 1273.97   37.80
  -1  -2  -3 1319.87   41.90
  -1  -2  -3 1178.38   41.40
  -1  -2  -3 1251.17   41.10
   1   2   3 1288.47   43.20
   1   2   3 1227.48   40.90
   1   2   3 1229.48   39.10
  -2  -2  -3 2678.13   75.39
  -2  -2  -3 2723.33   82.59
  -2  -2  -3 2920.81   83.99
  -2  -2  -3 2812.32   81.99
   2   2   3 2735.03   81.39
   2   2   3 2745.23   83.99
   2   2   3 2798.62   77.49
  -3  -2  -3   52.39    4.80
  -3  -2  -3   37.70    9.00
  -3  -2  -3   41.30    5.40
  -3  -2  -3   43.00   11.30
  -3  -2  -3   54.49   11.20
   3   2   3   39.60   11.40
   3   2   3   31.40    8.60
   3   2   3   54.99   12.00
  -4  -2  -3    1.00    9.00
  -4  -2  -3   33.30   12.50
  -4  -2  -3   16.00   10.80
  -4  -2  -3   26.30   11.80
   4   2   3   22.70   12.90
   4   2   3   18.40   15.10
  -5  -2  -3   10.50   14.80
  -5  -2  -3    7.60   10.90
  -5  -2  -3  -17.10   14.40
  -5  -2  -3   -6.00   13.10
   5   2   3   20.70   17.30
   9  -3  -3   31.50   23.20
   9  -3  -3   39.40   21.20
   9  -3  -3   41.00   29.40
   9  -3  -3   10.00    9.80
   9  -3  -3  -15.50   15.70
   8  -3  -3   10.40   19.60
   8  -3  -3   19.50   12.00
   8  -3  -3   49.90   15.90
   8  -3  -3   16.90   22.00
   8  -3  -3   15.20   16.20
   8  -3  -3   25.40    9.90
  -8   3   3   22.20   10.50
   7  -3  -3   11.30    8.70
   7  -3  -3  -29.90   22.10
   7  -3  -3    4.70    8.90
   7  -3  -3   21.80   15.80
   7  -3  -3   -1.20   14.40
   7  -3  -3    1.30   10.20
  -7   3   3   23.10    8.50
   6  -3  -3  564.24   26.30
   6  -3  -3  477.15   35.20
   6  -3  -3  493.75   28.50
   6  -3  -3  519.25   27.50
   6  -3  -3  506.75   24.20
  -6   3   3  476.95   23.90
   5  -3  -3   10.50    2.30
   5  -3  -3   14.20    8.60
   5  -3  -3    6.60    6.30
   5  -3  -3   10.30    6.60
   5  -3  -3    8.50    7.50
   5  -3  -3    8.30    9.40
   5  -3  -3   11.70    4.60
  -5   3   3    3.80    6.50
  -5   3   3    1.60    7.50
  -5   3   3    9.90    6.90
   4  -3  -3  254.17   15.70
   4  -3  -3  279.87   16.60
   4  -3  -3  291.07   14.90
   4  -3  -3  271.17   11.40
   4  -3  -3  291.87   11.10
   4  -3  -3  291.97   10.90
  -4   3   3  271.67   16.30
  -4   3   3  263.77   11.20
  -4   3   3  277.77   15.50
  -4   3   3  234.48   16.90
   3  -3  -3 1433.76   46.80
   3  -3  -3 1448.16   42.10
   3  -3  -3 1422.06   42.60
  -3   3   3 1447.26   43.00
  -3   3   3 1425.76   46.20
  -3   3   3 1502.35   48.70
  -3   3   3 1445.16   43.00
  -3   3   3 1394.56   41.50
   2  -3  -3 1332.87   42.90
   2  -3  -3 1330.47   40.50
   2  -3  -3 1277.67   40.60
  -2   3   3 1272.87   43.50
  -2   3   3 1305.57   41.30
  -2   3   3 1299.07   41.80
  -2   3   3 1279.97   37.70
   1  -3  -3 3878.11  106.39
   1  -3  -3 3693.53  106.29
   1  -3  -3 3739.53  106.19
  -1   3   3 3814.72  105.59
  -1   3   3 4020.80  106.39
  -1   3   3 3801.72  107.59
  -1   3   3 3880.21  107.79
   0  -3  -3 4081.69  116.29
   0  -3  -3 4072.89  113.09
   0  -3  -3 4195.28  116.29
   0   3   3 4234.08  117.79
   0   3   3 3925.61  114.49
   0   3   3 4287.67  112.09
   0   3   3 4171.48  115.39
  -1  -3  -3  913.51   35.90
  -1  -3  -3  898.81   34.30
  -1  -3  -3  975.80   36.10
  -1  -3  -3  901.41   30.60
   1   3   3  924.71   37.10
   1   3   3  886.61   34.40
  -2  -3  -3  365.96   21.80
  -2  -3  -3  375.96   23.50
  -2  -3  -3  356.96   15.80
  -2  -3  -3  368.36   22.10
   2   3   3  363.06   21.60
   2   3   3  363.86   21.50
   2   3   3  353.76   24.40
  -3  -3  -3   65.09   12.60
  -3  -3  -3   69.19   13.50
   3   3   3   52.69   14.90
   3   3   3   65.39   15.70
   3   3   3   63.09   12.70
  -4  -3  -3  424.56   35.30
  -4  -3  -3  473.25   28.80
  -4  -3  -3  407.56   30.40
  -4  -3  -3  421.56   28.90
   4   3   3  346.77   32.80
   4   3   3  378.36   26.40
   4   3   3  384.56   32.80
  -5  -3  -3    4.30   15.50
  -5  -3  -3   -6.90   16.50
  -5  -3  -3  -14.70   20.10
  -5  -3  -3   10.50   15.00
   5   3   3   40.70   26.30
   5   3   3  -45.20   21.20
   9  -4  -3   -9.90   12.40
   9  -4  -3   35.00   17.10
   9  -4  -3  -28.60   25.30
   9  -4  -3  -28.20   22.70
   9  -4  -3  -21.50   31.40
   9  -4  -3   38.80   20.30
  -9   4   3   26.40   13.50
   8  -4  -3  297.27   27.00
   8  -4  -3  301.57   23.20
   8  -4  -3  315.07   23.50
   8  -4  -3  262.77   33.20
   8  -4  -3  353.26   33.00
   8  -4  -3  271.97   33.50
  -8   4   3  254.07   21.30
   7  -4  -3    7.90    8.30
   7  -4  -3    5.20   13.60
   7  -4  -3    5.80   10.20
   7  -4  -3    3.10   14.50
   7  -4  -3   -8.10   15.40
   7  -4  -3    2.40    9.60
  -7   4   3    0.40    8.80
   6  -4  -3   51.59   11.30
   6  -4  -3   57.39   11.90
   6  -4  -3   43.00    7.90
   6  -4  -3   42.40   12.40
  -6   4   3   67.39   13.10
  -6   4   3   46.40   11.50
   5  -4  -3   -2.60    8.90
   5  -4  -3   15.70    4.10
   5  -4  -3    8.60    4.50
   5  -4  -3    6.90    3.10
   5  -4  -3    2.50    6.70
   5  -4  -3   11.80    7.10
   5  -4  -3    8.60    8.60
  -5   4   3    7.20    2.70
  -5   4   3   14.60    8.30
  -5   4   3    8.00    3.40
  -5   4   3   13.50    8.40
   4  -4  -3   58.69    7.80
   4  -4  -3   73.69    9.10
   4  -4  -3   66.99    3.60
   4  -4  -3   74.79   11.70
   4  -4  -3   75.99    7.70
  -4   4   3   79.69    8.80
  -4   4   3   85.69   12.50
  -4   4   3   66.89    6.70
  -4   4   3   86.89    8.90
  -4   4   3   87.79   12.70
   3  -4  -3   55.59    9.10
   3  -4  -3   31.90    6.70
   3  -4  -3   33.00    6.20
  -3   4   3   44.50    7.60
  -3   4   3   33.50    8.60
  -3   4   3   37.20    6.30
  -3   4   3   39.80    5.20
   2  -4  -3  -13.40    4.80
   2  -4  -3    1.60    5.30
   2  -4  -3    5.60    5.70
  -2   4   3   -2.00    4.70
  -2   4   3    0.50    5.70
  -2   4   3    1.30    2.20
  -2   4   3    6.10    5.60
   1  -4  -3  527.65   23.50
   1  -4  -3  494.15   23.70
   1  -4  -3  494.15   23.50
  -1   4   3  494.55   24.60
  -1   4   3  482.45   22.80
  -1   4   3  510.55   22.20
   0  -4  -3  243.68   18.00
   0  -4  -3  239.68   15.50
   0  -4  -3  231.58   18.30
   0   4   3  249.88   14.70
   0   4   3  277.27   17.10
   0   4   3  274.87   19.30
   0   4   3  231.88   13.20
  -1  -4  -3  399.26   19.30
  -1  -4  -3  436.96   25.90
  -1  -4  -3  387.46   24.20
  -1  -4  -3  403.76   22.80
   1   4   3  387.86   23.20
   1   4   3  359.06   26.30
   1   4   3  425.56   21.30
  -2  -4  -3   85.79   16.00
  -2  -4  -3   75.39   14.20
  -2  -4  -3   68.49   13.40
  -2  -4  -3   68.89    9.00
   2   4   3   68.39   19.60
   2   4   3   87.29   14.10
   2   4   3   85.89   14.90
  -3  -4  -3  110.29   18.10
  -3  -4  -3  105.69   18.50
  -3  -4  -3   95.69   10.30
   3   4   3  118.89   19.50
   3   4   3  103.69   17.00
   3   4   3  130.09   23.40
  -4  -4  -3   23.70   15.90
  -4  -4  -3   63.59   17.60
  -4  -4  -3   82.69   18.80
  -4  -4  -3   53.49   23.20
   4   4   3   -0.40   22.90
   4   4   3   50.09   16.00
   9  -5  -3  148.39   19.90
   9  -5  -3  163.88   30.10
   9  -5  -3   82.09   33.10
   9  -5  -3  161.18   29.80
   9  -5  -3  150.98   21.40
   9  -5  -3  127.49   23.80
  -9   5   3  119.69   19.60
   8  -5  -3   54.89   15.60
   8  -5  -3   74.29   14.40
   8  -5  -3   79.89   22.00
   8  -5  -3   96.79   17.30
   8  -5  -3   68.49   19.30
  -8   5   3   87.49   17.00
   7  -5  -3   37.00    9.70
   7  -5  -3   25.90   12.40
   7  -5  -3  -20.60   14.60
   7  -5  -3   48.80   14.60
   7  -5  -3   10.70   12.60
  -7   5   3   30.60   12.20
   6  -5  -3    2.20    8.90
   6  -5  -3   12.40    5.80
   6  -5  -3    7.60   13.00
   6  -5  -3    0.60    9.10
   6  -5  -3    1.70    9.50
   6  -5  -3    5.30    3.30
  -6   5   3    9.60    7.80
  -6   5   3   -3.90    9.80
   5  -5  -3    4.90    7.40
   5  -5  -3   30.40   11.20
   5  -5  -3    5.50    5.30
   5  -5  -3   12.50    5.00
  -5   5   3   13.00    9.20
  -5   5   3   10.30    5.50
  -5   5   3    7.70    8.50
   4  -5  -3 1946.21   64.79
   4  -5  -3 1904.41   58.39
   4  -5  -3 1909.01   57.59
  -4   5   3 1780.62   62.99
  -4   5   3 1995.00   59.19
  -4   5   3 1863.41   63.79
   3  -5  -3   25.00    7.40
   3  -5  -3   29.10    8.00
   3  -5  -3   12.70    7.10
  -3   5   3   36.40    7.50
  -3   5   3   41.40    9.60
   2  -5  -3  210.48   17.40
   2  -5  -3  210.08   16.70
   2  -5  -3  196.08   15.90
  -2   5   3  172.68   15.20
  -2   5   3  216.48   12.20
  -2   5   3  206.38   15.60
  -2   5   3  212.18   18.30
   1  -5  -3 1945.21   64.89
   1  -5  -3 1973.60   62.89
   1  -5  -3 1918.51   63.69
  -1   5   3 1882.31   60.69
  -1   5   3 1888.41   52.59
  -1   5   3 1893.81   62.69
   0  -5  -3   41.20    9.60
   0  -5  -3   34.40   12.90
   0  -5  -3   36.60   11.60
   0   5   3   32.10   13.60
   0   5   3   46.00    9.80
   0   5   3   28.00   10.70
   0   5   3   40.60    7.80
  -1  -5  -3  478.95   23.10
  -1  -5  -3  404.86   30.20
  -1  -5  -3  498.95   29.50
   1   5   3  534.95   34.40
   1   5   3  430.56   27.00
   1   5   3  381.56   23.00
  -2  -5  -3 1281.17   56.99
  -2  -5  -3 1317.77   54.59
  -2  -5  -3 1329.17   44.10
  -2  -5  -3 1375.56   54.39
   2   5   3 1306.67   60.09
   2   5   3 1315.57   51.89
   2   5   3 1372.06   54.29
  -3  -5  -3    1.90    7.20
  -3  -5  -3    4.10   16.40
  -3  -5  -3   -8.20   21.30
  -3  -5  -3    6.90   16.00
   3   5   3   24.60   22.90
   3   5   3   -0.40   18.40
   3   5   3   15.10   14.10
   9  -6  -3  137.89   20.00
   9  -6  -3  196.18   31.80
   9  -6  -3  123.59   26.60
   9  -6  -3   81.69   30.80
   9  -6  -3  132.99   24.00
  -9   6   3  137.69   23.20
   8  -6  -3   98.29   20.60
   8  -6  -3   88.39   19.90
   8  -6  -3  152.08   18.70
   8  -6  -3  112.39   27.00
   8  -6  -3  114.49   21.10
  -8   6   3  114.59   20.70
   7  -6  -3    4.90   13.10
   7  -6  -3   11.10   14.20
   7  -6  -3   21.60    4.70
   7  -6  -3   -2.40   12.90
   7  -6  -3   19.90    8.20
   7  -6  -3    8.10   17.70
   7  -6  -3   26.70    4.10
  -7   6   3   13.80   11.80
  -7   6   3   14.60   13.10
   6  -6  -3  656.83   23.80
   6  -6  -3  642.64   29.30
   6  -6  -3  636.04   33.70
   6  -6  -3  598.34   24.70
   6  -6  -3  637.44   21.80
   6  -6  -3  662.73   38.20
  -6   6   3  609.84   33.40
  -6   6   3  663.13   23.70
  -6   6   3  610.14   32.60
  -6   6   3  642.24   21.70
   5  -6  -3  251.87   23.60
   5  -6  -3  305.47   18.30
   5  -6  -3  294.07   17.30
  -5   6   3  305.47   18.90
  -5   6   3  278.87   22.20
  -5   6   3  297.67   22.60
   4  -6  -3   -4.80    6.90
   4  -6  -3   10.50    8.70
   4  -6  -3   17.80   10.90
  -4   6   3   -4.60    9.40
  -4   6   3    8.80    7.00
  -4   6   3    3.60    2.90
  -4   6   3    6.10    7.40
  -4   6   3    2.50    9.30
   3  -6  -3  255.97   19.00
   3  -6  -3  249.38   20.00
   3  -6  -3  249.58   19.90
  -3   6   3  236.88   19.70
  -3   6   3  253.37   12.90
  -3   6   3  289.37   19.20
  -3   6   3  252.97   20.90
   2  -6  -3  657.93   33.00
   2  -6  -3  688.53   32.40
   2  -6  -3  674.33   33.50
  -2   6   3  668.93   34.60
  -2   6   3  703.33   31.70
  -2   6   3  639.84   26.40
  -2   6   3  626.04   30.80
   1  -6  -3 1374.16   51.99
   1  -6  -3 1293.77   52.69
   1  -6  -3 1356.26   49.90
  -1   6   3 1358.86   54.79
  -1   6   3 1231.48   36.00
  -1   6   3 1372.26   50.99
  -1   6   3 1270.07   47.60
   0  -6  -3  158.58   18.50
   0  -6  -3  190.98   24.30
   0  -6  -3  186.18   21.80
   0   6   3  139.99   23.20
   0   6   3  177.98   14.20
   0   6   3  183.08   21.30
   0   6   3  146.79   15.60
  -1  -6  -3    2.20   12.80
  -1  -6  -3   16.40   18.10
  -1  -6  -3   11.90   10.50
   1   6   3    9.10   14.50
   1   6   3   21.50   20.40
   1   6   3    5.70   11.40
  -2  -6  -3  133.59   23.60
  -2  -6  -3  178.78   25.10
  -2  -6  -3  146.69   18.10
   2   6   3  153.28   31.20
   2   6   3  162.18   23.90
   8  -7  -3  148.69   17.20
   8  -7  -3  160.78   24.80
   8  -7  -3  121.09   30.90
   8  -7  -3  128.39   25.00
   8  -7  -3  142.19   24.50
  -8   7   3  153.48   25.00
   7  -7  -3  198.08   13.20
   7  -7  -3  184.08   12.20
   7  -7  -3  237.28   26.00
   7  -7  -3  164.68   26.00
   7  -7  -3  159.38   14.60
   7  -7  -3  215.68   30.90
   7  -7  -3  176.28   22.70
  -7   7   3  214.48   24.90
  -7   7   3  194.78   10.60
  -7   7   3  187.48    9.70
  -7   7   3  187.28   23.40
   6  -7  -3   -8.00    8.50
   6  -7  -3   14.90   15.00
   6  -7  -3   -8.80    7.40
  -6   7   3    3.70   12.70
  -6   7   3    2.10    9.10
  -6   7   3    3.20   12.80
  -6   7   3    2.00    6.70
   5  -7  -3   92.49   13.20
   5  -7  -3   92.89   14.20
   5  -7  -3   94.89   19.10
  -5   7   3  118.09   18.30
  -5   7   3  128.79   16.10
  -5   7   3   88.69   17.20
   4  -7  -3   30.20   14.20
   4  -7  -3   28.40   12.10
   4  -7  -3   36.30   10.90
  -4   7   3    1.70   11.90
  -4   7   3   16.10   11.80
  -4   7   3   29.90    6.20
  -4   7   3   29.70   10.00
   3  -7  -3  636.84   32.50
   3  -7  -3  609.04   35.00
   3  -7  -3  525.15   32.80
  -3   7   3  600.84   24.70
  -3   7   3  601.64   34.40
  -3   7   3  569.14   32.20
  -3   7   3  630.44   31.00
   2  -7  -3  156.58   21.00
   2  -7  -3  169.08   21.00
   2  -7  -3  148.09   21.30
  -2   7   3  174.28   19.90
  -2   7   3  174.78   17.80
  -2   7   3  206.78   21.90
   1  -7  -3  118.59   20.30
   1  -7  -3  129.99   21.10
   1  -7  -3  105.69   17.60
  -1   7   3  105.29   18.50
  -1   7   3  114.59   24.20
  -1   7   3  105.09   17.10
   0  -7  -3    4.50   11.90
   0  -7  -3   11.70   16.30
   0  -7  -3  -21.00   16.60
   0   7   3    7.90   21.80
   0   7   3   12.20   11.00
   0   7   3   44.40   15.70
   0   7   3    1.00    8.80
  -1  -7  -3  808.32   44.50
  -1  -7  -3  821.52   47.40
  -1  -7  -3  800.82   37.90
  -1  -7  -3  711.03   53.39
   1   7   3  811.32   57.79
   1   7   3  846.42   46.80
   1   7   3  776.02   37.40
   7  -8  -3   92.19   13.90
   7  -8  -3   46.20   28.10
   7  -8  -3   81.19   22.60
   7  -8  -3   80.19   12.10
  -7   8   3   62.29   10.20
  -7   8   3   67.79   19.60
  -7   8   3   91.19   13.10
  -7   8   3   85.79   21.90
   6  -8  -3  218.48   20.60
   6  -8  -3  172.38   22.60
   6  -8  -3  210.78   32.50
   6  -8  -3  226.18   26.20
  -6   8   3  246.88   28.50
  -6   8   3  218.48   23.80
  -6   8   3  223.58   25.50
   5  -8  -3   58.09   19.70
   5  -8  -3   41.90   15.00
   5  -8  -3   23.20   12.70
  -5   8   3   50.19   16.20
  -5   8   3   36.50   12.40
  -5   8   3   47.40   17.00
   4  -8  -3  229.78   26.10
  -4   8   3  320.97   31.90
  -4   8   3  252.57   24.60
  -4   8   3  242.78   15.80
  -4   8   3  257.37   24.70
   3  -8  -3   71.19   19.60
   3  -8  -3   27.70   19.50
   3  -8  -3   26.30   14.60
  -3   8   3   37.80   11.20
  -3   8   3   37.40   15.80
  -3   8   3   42.10   15.60
  -3   8   3   63.49   21.10
   2  -8  -3  392.76   32.30
   2  -8  -3  457.95   38.80
   2  -8  -3  435.16   33.80
  -2   8   3  428.66   39.80
  -2   8   3  474.75   30.10
  -2   8   3  461.95   29.80
  -2   8   3  460.15   32.80
   1  -8  -3  346.67   31.90
   1  -8  -3  335.07   39.90
   1  -8  -3  292.07   31.00
  -1   8   3  307.07   24.70
  -1   8   3  304.57   37.60
  -1   8   3  315.67   31.00
   6  -9  -3   80.69   25.00
   6  -9  -3  103.39   18.30
   6  -9  -3  112.39   20.80
  -6   9   3  109.39   23.50
  -6   9   3   67.29   22.00
  -6   9   3  104.09   23.10
   5  -9  -3   16.20   15.70
   5  -9  -3   29.90   20.80
   5  -9  -3   20.30   27.60
   5  -9  -3   57.09   20.80
  -5   9   3   46.00    7.70
  -5   9   3   56.29   21.70
  -5   9   3   54.09   16.40
  -5   9   3   30.30   20.00
  -5   9   3  -15.10   22.80
   4  -9  -3  228.18   30.50
   4  -9  -3  334.67   35.30
   4  -9  -3  261.57   29.20
  -4   9   3  299.77   21.20
  -4   9   3  303.07   30.00
  -4   9   3  251.37   34.30
   3  -9  -3  -15.80   16.00
   3  -9  -3    9.50   19.50
   3  -9  -3   11.60   23.60
  -3   9   3    7.10   18.10
  -3   9   3   19.50   15.60
  -3   9   3    1.70   16.50
  -1   9  -4  107.49   27.40
  -1   9  -4   31.20   20.20
  -1   9  -4   -7.80   25.00
   1  -9   4   25.20   22.70
   1  -9   4    3.10   19.20
   1  -9   4  -40.50   20.40
   1  -9   4   -2.60    8.20
  -2   9  -4  219.58   32.40
  -2   9  -4  251.77   31.60
  -2   9  -4  199.68   35.20
  -2   9  -4  240.48   30.40
   2  -9   4  166.58   26.40
   2  -9   4  329.67   34.70
   2  -9   4  225.88   15.30
   2  -9   4  232.08   30.00
  -3   9  -4   67.39   21.60
  -3   9  -4   53.69   21.70
   3  -9   4   45.50   19.90
   3  -9   4   17.60   18.20
   3  -9   4   34.40   10.20
   3  -9   4   60.99   25.70
  -4   9  -4   82.79   21.60
  -4   9  -4  116.49   23.00
  -4   9  -4   79.49   25.30
   4  -9   4  124.99   27.60
   4  -9   4   80.29   21.60
   4  -9   4  132.69   20.60
  -5   9  -4  133.99   29.30
  -5   9  -4  181.88   24.40
  -5   9  -4  166.08   22.40
   5  -9   4  161.48   25.10
   5  -9   4  146.19   32.60
   5  -9   4  164.08   24.70
   5  -9   4  204.88   26.80
   1   8  -4   46.50   29.60
   1   8  -4  114.09   15.30
   1   8  -4  160.38   27.60
   1   8  -4   99.09   22.20
   1   8  -4  175.28   31.20
  -1  -8   4  166.58   27.30
  -1  -8   4  135.89   16.60
  -1  -8   4  118.69   27.30
  -1  -8   4  145.09   17.90
   0   8  -4  298.27   15.90
   0   8  -4  318.97   35.00
   0   8  -4  341.77   35.10
   0   8  -4  312.87   34.20
   0   8  -4  282.57   29.20
   0  -8   4  342.17   21.70
   0  -8   4  333.37   34.30
   0  -8   4  375.36   34.90
   0  -8   4  338.27   26.30
  -1   8  -4   41.70   20.40
  -1   8  -4   37.20   19.00
  -1   8  -4   10.20   15.40
  -1   8  -4   -7.90   15.90
   1  -8   4   -1.80    8.80
   1  -8   4  -11.30   13.50
   1  -8   4    4.30   14.90
   1  -8   4   -2.20   14.80
  -2   8  -4  236.58   27.10
  -2   8  -4  203.78   25.40
  -2   8  -4  281.97   28.60
   2  -8   4  195.18   17.20
   2  -8   4  253.47   26.20
   2  -8   4  201.58   24.70
  -3   8  -4  287.17   27.90
  -3   8  -4  341.27   31.20
  -3   8  -4  262.57   29.20
  -3   8  -4  283.57   27.80
   3  -8   4  276.57   32.60
   3  -8   4  343.87   30.10
   3  -8   4  264.87   25.80
  -4   8  -4   12.10   15.90
  -4   8  -4   35.60   15.00
  -4   8  -4   38.00   17.90
   4  -8   4   17.50   13.00
   4  -8   4   50.19   15.40
   4  -8   4   37.40   16.00
  -5   8  -4    8.40   13.40
  -5   8  -4   11.70   16.10
  -5   8  -4    5.70   17.90
   5  -8   4   -2.40   14.20
   5  -8   4   17.20   20.50
   5  -8   4   20.50   17.40
   5  -8   4    9.70   11.50
  -6   8  -4  119.19   28.10
   6  -8   4  118.29   22.70
   6  -8   4  162.48   30.50
   6  -8   4  171.48   25.80
   6  -8   4  120.99   16.00
   3   7  -4   12.80   14.30
   3   7  -4    9.70   18.90
   3   7  -4   13.40   18.70
   3   7  -4  -14.60   29.40
  -3  -7   4   14.90   23.70
   2   7  -4   45.50   23.90
   2   7  -4   29.00   18.90
   2   7  -4    5.30   12.90
   2   7  -4   38.60   24.10
  -2  -7   4    6.90   19.30
  -2  -7   4  -18.20   20.40
  -2  -7   4   23.30   13.40
  -2  -7   4   -1.00    7.50
   1   7  -4   12.70   12.60
   1   7  -4   23.80   18.60
   1   7  -4   21.20   16.30
  -1  -7   4   14.40    9.90
  -1  -7   4   19.50   16.70
  -1  -7   4   15.50   11.00
  -1  -7   4   28.50   18.00
   0   7  -4  297.87   13.50
   0   7  -4  247.98   28.50
   0   7  -4  244.88   24.80
   0   7  -4  217.58   28.10
   0   7  -4  310.17   28.20
   0  -7   4  302.27   21.40
   0  -7   4  246.58   28.30
   0  -7   4  370.66   28.70
   0  -7   4  322.77   20.30
  -1   7  -4   11.40   13.00
  -1   7  -4    9.90   12.50
  -1   7  -4   52.49   14.60
   1  -7   4   30.00    9.50
   1  -7   4   43.90   12.50
   1  -7   4   11.20   12.90
   1  -7   4   18.10   12.70
  -2   7  -4   -5.80   12.30
  -2   7  -4   14.20   12.70
  -2   7  -4   24.70   12.30
   2  -7   4    1.20   10.50
   2  -7   4   -9.40   10.50
   2  -7   4   13.80   12.10
  -3   7  -4  598.14   29.90
  -3   7  -4  580.74   36.40
  -3   7  -4  604.24   32.30
  -3   7  -4  620.44   31.80
   3  -7   4  566.24   28.70
   3  -7   4  597.14   33.00
   3  -7   4  583.14   33.10
   3  -7   4  498.35   32.30
  -4   7  -4   26.70   10.90
  -4   7  -4   18.20   12.00
  -4   7  -4   29.00   13.60
  -4   7  -4   27.00   14.30
   4  -7   4   39.20   10.80
   4  -7   4   51.69   15.10
   4  -7   4   17.10   16.00
   4  -7   4   19.30   12.10
  -5   7  -4  195.48   23.10
  -5   7  -4  213.38   20.10
  -5   7  -4  142.29   16.90
  -5   7  -4  191.98   27.50
   5  -7   4  196.58   17.50
   5  -7   4  180.98   22.60
   5  -7   4  163.68   20.80
  -6   7  -4 1044.30   39.70
  -6   7  -4 1067.09   48.20
  -6   7  -4  964.60   51.19
   6  -7   4  999.50   58.49
   6  -7   4 1112.19   42.80
   6  -7   4 1074.29   49.99
   6  -7   4 1036.40   37.50
   6  -7   4 1020.00   53.19
  -7   7  -4   67.99   22.50
  -7   7  -4   35.90    9.30
   7  -7   4   21.30   24.00
   7  -7   4   68.29   24.10
   7  -7   4   39.70   13.30
   7  -7   4   35.60    9.50
   4   6  -4   -9.10   18.50
   4   6  -4    1.00   19.70
   4   6  -4  -17.30   25.90
   4   6  -4   17.50   12.50
  -4  -6   4   -5.10   14.70
  -4  -6   4   -9.20   20.20
  -4  -6   4    1.20   10.00
   3   6  -4   43.60   20.40
   3   6  -4    9.60   12.10
   3   6  -4   15.60   21.30
   3   6  -4    2.40   15.20
   3   6  -4   -5.50   15.80
  -3  -6   4   -6.80   17.60
  -3  -6   4   -6.70   12.50
  -3  -6   4   12.30   18.20
   2   6  -4  468.45   33.60
   2   6  -4  521.55   36.30
   2   6  -4  464.95   28.60
  -2  -6   4  401.36   34.00
  -2  -6   4  475.75   28.20
  -2  -6   4  480.15   18.70
  -2  -6   4  520.45   39.10
   1   6  -4    7.30   11.20
   1   6  -4   13.10   12.90
   1   6  -4   -2.60   13.60
   1   6  -4    2.00   13.00
  -1  -6   4   -0.60   10.90
  -1  -6   4   -2.20    6.80
  -1  -6   4   -3.00    8.20
  -1  -6   4   -0.60   12.60
   0   6  -4  569.04   32.00
   0   6  -4  511.35   30.80
   0   6  -4  544.35   31.40
   0   6  -4  536.05   31.40
   0   6  -4  533.25   17.80
   0  -6   4  579.94   26.10
   0  -6   4  547.35   25.00
   0  -6   4  549.45   32.30
   0  -6   4  526.95   32.00
  -1   6  -4   19.40   10.80
  -1   6  -4   21.80   10.20
  -1   6  -4   19.60    9.40
   1  -6   4   19.70    9.20
   1  -6   4    4.00    9.70
   1  -6   4   20.70    9.70
  -2   6  -4  120.69   15.70
  -2   6  -4  100.99   14.00
  -2   6  -4  128.99   16.20
  -2   6  -4  112.69   19.30
   2  -6   4   98.89   14.70
   2  -6   4   96.29   14.80
   2  -6   4  111.09   14.10
   2  -6   4   98.19   15.50
  -3   6  -4  436.06   23.90
  -3   6  -4  406.06   26.10
  -3   6  -4  407.86   29.40
  -3   6  -4  446.26   23.50
   3  -6   4  414.16   25.70
   3  -6   4  425.06   26.90
   3  -6   4  429.16   25.90
   3  -6   4  432.86   22.20
  -4   6  -4  821.22   39.50
  -4   6  -4  837.62   33.80
  -4   6  -4  802.22   31.50
  -4   6  -4  765.22   41.60
  -4   6  -4  828.32   36.60
   4  -6   4  787.12   35.00
   4  -6   4  820.62   37.90
   4  -6   4  854.71   39.10
   4  -6   4  774.22   31.10
  -5   6  -4   32.40   14.40
  -5   6  -4    1.40    7.00
  -5   6  -4   -1.90   10.00
  -5   6  -4   10.20   11.90
   5  -6   4   -3.50   10.10
   5  -6   4   17.10    9.90
   5  -6   4   19.90   13.80
   5  -6   4    6.30    7.20
  -6   6  -4  216.18   25.00
  -6   6  -4  233.78   14.80
   6  -6   4  224.68   15.90
   6  -6   4  242.68   26.70
   6  -6   4  208.98   25.50
   6  -6   4  257.17   20.20
  -7   6  -4   69.49   20.10
  -7   6  -4   62.69   21.70
  -7   6  -4   42.80    8.20
  -7   6  -4   36.90    6.70
   7  -6   4   14.50   21.70
   7  -6   4   23.30   23.40
   7  -6   4   28.30   22.40
   7  -6   4   51.79   28.20
   7  -6   4   19.10   11.10
   7  -6   4   44.30    9.40
   5   5  -4  503.85   37.00
   5   5  -4  456.45   43.00
  -5  -5   4  499.95   36.50
  -5  -5   4  423.66   38.40
  -5  -5   4  368.66   14.70
   4   5  -4  286.37   20.00
   4   5  -4  310.67   34.90
   4   5  -4  310.57   30.30
   4   5  -4  356.66   30.20
  -4  -5   4  351.86   30.20
  -4  -5   4  420.96   33.20
  -4  -5   4  344.77   17.90
   3   5  -4   87.29   14.90
   3   5  -4   89.89   18.30
   3   5  -4   94.69   17.80
   3   5  -4   92.59   14.70
  -3  -5   4   76.49   17.90
  -3  -5   4   74.89   15.70
  -3  -5   4  111.79   13.30
   2   5  -4   25.70   13.80
   2   5  -4   39.80   12.00
   2   5  -4   34.00    8.80
   2   5  -4   40.20   13.00
   2   5  -4   34.70   14.10
  -2  -5   4   23.80   10.20
  -2  -5   4   27.80   12.60
  -2  -5   4   31.50    5.00
  -2  -5   4   37.70   12.70
   1   5  -4  116.89   17.10
   1   5  -4  118.69   17.00
   1   5  -4  127.89    9.60
   1   5  -4  128.69   16.80
   1   5  -4  120.29   17.20
  -1  -5   4  120.59   16.90
  -1  -5   4  109.59   13.90
  -1  -5   4  124.69   10.40
   0   5  -4  126.19   16.00
   0   5  -4   70.79    4.60
   0   5  -4   88.79   14.00
   0  -5   4   70.09   12.80
  -1   5  -4  560.24   30.70
  -1   5  -4  623.74   28.90
  -1   5  -4  634.24   28.10
  -1   5  -4  644.34   29.30
   1  -5   4  595.84   28.60
   1  -5   4  569.74   26.40
   1  -5   4  604.24   27.00
   1  -5   4  583.14   29.20
  -2   5  -4  655.13   28.70
  -2   5  -4  633.54   29.20
  -2   5  -4  626.24   27.20
  -2   5  -4  650.73   29.50
  -2   5  -4  637.54   32.40
   2  -5   4  690.13   30.40
   2  -5   4  646.44   27.10
   2  -5   4  633.64   29.40
   2  -5   4  683.23   30.70
  -3   5  -4  183.38   18.30
  -4   5  -4   -4.50   10.00
  -4   5  -4   13.90    8.20
  -4   5  -4   15.10    6.10
  -4   5  -4   30.70   10.50
  -4   5  -4    6.10    7.50
   4  -5   4   11.90   11.80
   4  -5   4   11.40    7.90
   4  -5   4   15.80    6.10
   4  -5   4    7.70    6.90
   4  -5   4    5.80    9.40
  -5   5  -4 1298.67   55.59
  -5   5  -4 1433.26   43.50
  -5   5  -4 1454.65   57.69
  -5   5  -4 1392.66   45.20
  -5   5  -4 1478.15   52.59
   5  -5   4 1424.86   47.40
   5  -5   4 1306.57   53.39
   5  -5   4 1396.96   43.90
   5  -5   4 1345.27   49.60
  -6   5  -4  236.08   28.00
  -6   5  -4  186.58   23.20
   6  -5   4  262.77   25.40
   6  -5   4  231.78   30.10
  -7   5  -4   46.30   17.40
  -7   5  -4   30.90    5.40
  -7   5  -4   31.00    5.90
  -7   5  -4   17.70   18.70
   7  -5   4   29.10    9.90
   7  -5   4    3.80   23.00
   7  -5   4   33.30    9.80
   7  -5   4   28.80   20.00
   7  -5   4   38.60   21.70
   7  -5   4   38.70   23.40
   6   4  -4  -15.60   32.00
   6   4  -4    4.30   24.00
   6   4  -4   73.49   24.40
   6   4  -4   16.80   18.80
  -6  -4   4   16.80   19.00
   5   4  -4  -17.80   15.80
   5   4  -4   45.00   17.00
  -5  -4   4   36.00   16.90
  -5  -4   4   23.30   15.10
  -5  -4   4   24.80   15.80
   4   4  -4 1094.89   51.09
   4   4  -4 1139.29   48.50
   4   4  -4 1109.09   48.90
   4   4  -4 1104.19   39.80
  -4  -4   4 1143.19   46.90
  -4  -4   4 1119.59   35.80
  -4  -4   4 1185.68   50.49
  -4  -4   4 1207.38   49.50
   3   4  -4  107.79   13.80
   3   4  -4  120.99   17.30
   3   4  -4  142.99   15.50
   3   4  -4  108.59   16.70
  -3  -4   4  135.89   11.60
  -3  -4   4  126.89   16.30
  -3  -4   4   99.19   16.60
  -3  -4   4  120.49   15.70
   2   4  -4  412.66   24.90
   2   4  -4  417.26   26.00
   2   4  -4  434.36   25.70
   2   4  -4  438.96   19.90
   2   4  -4  440.66   23.20
  -2  -4   4  454.45   24.90
  -2  -4   4  436.46   25.80
  -2  -4   4  443.96   23.50
   1   4  -4  930.21   40.80
   1   4  -4  890.61   36.20
   1   4  -4  936.91   37.20
   1   4  -4  852.01   28.10
   1   4  -4  839.52   35.70
  -1  -4   4  906.31   35.00
  -1  -4   4  882.81   36.80
  -1  -4   4  912.51   34.30
  -1  -4   4  869.21   28.50
   0   4  -4  606.84   27.10
   0   4  -4  620.54   26.90
   0   4  -4  581.84   27.00
   0   4  -4  620.94   29.10
   0  -4   4  622.64   27.50
   0  -4   4  608.74   25.70
   0  -4   4  566.94   22.90
   0  -4   4  611.74   28.20
  -1   4  -4   55.79    9.00
  -1   4  -4   69.19    9.60
  -1   4  -4   57.39    9.20
  -1   4  -4   47.90    8.20
  -1   4  -4   68.09   11.60
   1  -4   4   56.99    8.90
   1  -4   4   47.80    8.20
   1  -4   4   42.50    8.90
   1  -4   4   49.00    9.80
  -2   4  -4  255.17   16.60
  -2   4  -4  272.17   14.80
  -2   4  -4  260.27   15.30
  -2   4  -4  264.57   19.40
  -2   4  -4  264.07   17.70
   2  -4   4  248.58   16.10
   2  -4   4  259.67   16.60
   2  -4   4  264.97   14.30
   2  -4   4  265.97   17.60
   2  -4   4  247.98   10.20
  -3   4  -4 1491.65   50.29
  -3   4  -4 1507.55   45.90
  -3   4  -4 1439.36   53.99
  -3   4  -4 1415.26   46.60
  -3   4  -4 1499.15   53.19
   3  -4   4 1503.25   48.40
   3  -4   4 1534.35   52.89
   3  -4   4 1496.95   51.89
   3  -4   4 1482.95   45.60
   3  -4   4 1444.16   44.90
  -4   4  -4   13.40    9.20
  -4   4  -4   18.00   11.10
  -4   4  -4   -1.50    8.00
  -4   4  -4   20.20   10.70
  -4   4  -4    5.60    5.00
   4  -4   4   12.70    6.90
   4  -4   4   16.50    5.50
   4  -4   4   13.40    9.40
   4  -4   4    9.70    8.20
   4  -4   4   19.70    7.70
   4  -4   4    5.90    8.70
  -5   4  -4  451.05   20.00
  -5   4  -4  481.15   30.90
  -5   4  -4  452.55   18.90
  -5   4  -4  437.76   27.80
   5  -4   4  445.36   27.90
   5  -4   4  437.36   19.30
   5  -4   4  472.25   30.70
   5  -4   4  453.85   26.80
   5  -4   4  449.56   21.50
   5  -4   4  443.16   28.90
  -6   4  -4  529.85   21.10
  -6   4  -4  516.35   21.20
  -6   4  -4  534.25   31.80
  -6   4  -4  546.15   35.70
   6  -4   4  473.75   35.50
   6  -4   4  519.75   32.90
   6  -4   4  545.15   34.50
   6  -4   4  513.45   22.50
   6  -4   4  544.55   24.20
  -7   4  -4   23.10   18.90
  -7   4  -4   20.40   10.50
  -7   4  -4   21.50   14.40
  -7   4  -4   11.80    6.30
   7  -4   4   15.60    9.20
   7  -4   4   20.50    9.30
   7  -4   4    1.80   21.40
   7  -4   4   16.10   21.40
   7  -4   4    3.50   17.30
   7  -4   4  -17.20   18.40
   6   3  -4   29.60   15.30
   6   3  -4  -23.90   24.50
   6   3  -4   40.20   34.70
   6   3  -4    5.10   16.50
  -6  -3   4   39.90   15.00
  -6  -3   4  -16.80   13.60
  -6  -3   4   32.70   16.50
   5   3  -4  275.47   16.70
   5   3  -4  331.57   26.60
   5   3  -4  262.77   25.30
   5   3  -4  231.38   24.00
   5   3  -4  311.17   31.10
  -5  -3   4  271.67   22.60
  -5  -3   4  273.17   25.70
  -5  -3   4  309.27   24.40
  -5  -3   4  278.37   26.20
  -5  -3   4  287.87   11.40
   4   3  -4  480.65   26.20
   4   3  -4  454.55   22.00
   4   3  -4  445.06   27.10
   4   3  -4  430.06   27.30
   4   3  -4  418.56   29.60
  -4  -3   4  463.35   27.70
  -4  -3   4  462.55   25.90
  -4  -3   4  423.96   27.40
  -4  -3   4  469.15   25.20
  -4  -3   4  426.56   17.20
   3   3  -4   -1.30    6.50
   3   3  -4  -14.70    7.40
   3   3  -4    0.40    7.50
  -3  -3   4    2.80    4.40
  -3  -3   4   10.10    8.20
  -3  -3   4   -1.70    7.80
  -3  -3   4   -1.30    6.30
   2   3  -4  690.33   28.80
   2   3  -4  620.44   28.80
   2   3  -4  648.14   24.30
   2   3  -4  622.24   27.90
  -2  -3   4  638.44   28.20
  -2  -3   4  641.84   29.00
  -2  -3   4  658.73   27.00
  -2  -3   4  629.64   23.60
   1   3  -4  912.31   34.40
   1   3  -4  888.01   33.20
   1   3  -4  919.21   33.70
   1   3  -4  850.21   27.50
  -1  -3   4  956.30   34.10
  -1  -3   4  882.31   32.10
  -1  -3   4  882.71   34.20
  -1  -3   4  844.42   27.20
   0   3  -4  354.06   19.50
   0   3  -4  341.57   17.90
   0   3  -4  332.87   15.50
   0   3  -4  330.47   16.60
   0   3  -4  343.77   17.30
   0  -3   4  352.96   18.20
   0  -3   4  311.67   14.70
   0  -3   4  331.27   17.90
   0  -3   4  306.57   16.10
  -1   3  -4  303.67   19.20
  -1   3  -4  329.87   15.80
  -1   3  -4  328.57   16.90
  -1   3  -4  298.87   18.80
  -1   3  -4  335.17   17.60
   1  -3   4  311.47   16.20
   1  -3   4  353.26   18.20
   1  -3   4  323.77   16.70
   1  -3   4  320.87   15.20
  -2   3  -4    1.20    4.40
  -2   3  -4   -1.60    5.50
  -2   3  -4   -1.30    5.50
  -2   3  -4   -3.60    3.90
  -2   3  -4   -2.30    5.20
   2  -3   4    1.80    3.80
   2  -3   4    5.90    5.70
   2  -3   4    3.30    6.00
   2  -3   4    2.00    4.50
  -3   3  -4 1196.08   39.70
  -3   3  -4 1264.57   46.40
  -3   3  -4 1237.98   39.00
  -3   3  -4 1260.17   46.60
  -3   3  -4 1301.07   44.30
   3  -3   4 1270.07   45.00
   3  -3   4 1311.47   41.30
   3  -3   4 1268.57   39.20
   3  -3   4 1288.27   45.80
   3  -3   4 1239.58   45.80
  -4   3  -4  227.48   19.40
  -4   3  -4  235.98   18.70
  -4   3  -4  227.18   12.70
   4  -3   4  231.18   14.20
   4  -3   4  217.18   23.40
   4  -3   4  241.78   18.80
   4  -3   4  230.48   22.30
   4  -3   4  217.28   13.00
  -5   3  -4   25.70    6.40
  -5   3  -4    9.40   10.40
  -5   3  -4   20.90    6.20
  -5   3  -4   29.90   11.90
   5  -3   4   22.30   12.10
   5  -3   4   19.90    6.70
   5  -3   4   18.90    7.10
   5  -3   4   20.60   11.10
  -6   3  -4 1097.29   45.00
  -6   3  -4 1176.58   51.49
   6  -3   4 1070.89   38.30
   6  -3   4 1023.80   47.20
   6  -3   4 1069.49   39.20
   6  -3   4 1095.19   38.20
  -7   3  -4    0.00    8.60
  -7   3  -4   11.90    7.10
  -7   3  -4    0.10   17.00
  -7   3  -4  -19.50   13.10
   7  -3   4   -1.90   22.70
   7  -3   4    4.60    9.10
   7  -3   4  -18.70    9.80
   7  -3   4   37.90   22.30
   7  -3   4    8.70   11.00
   7  -3   4   12.10   16.30
   7   2  -4   62.79   26.50
   7   2  -4   66.79   18.70
   7   2  -4  121.89   33.10
   7   2  -4   60.09   18.00
  -7  -2   4   49.40   15.20
  -7  -2   4   72.79   17.80
  -7  -2   4   79.29   19.60
   6   2  -4   17.40   17.10
   6   2  -4   31.50    8.30
   6   2  -4   11.60   12.80
   6   2  -4   20.40   11.70
  -6  -2   4   17.50   13.10
  -6  -2   4   25.70   14.00
  -6  -2   4   17.80   12.60
  -6  -2   4   12.40   10.40
   5   2  -4 2812.42   94.19
   5   2  -4 2935.41   87.79
   5   2  -4 2805.32   89.99
   5   2  -4 2800.32   86.89
  -5  -2   4 2925.91   89.89
  -5  -2   4 2653.73   75.39
  -5  -2   4 2813.52   87.39
  -5  -2   4 2791.52   91.99
  -5  -2   4 2872.61   84.59
   4   2  -4  412.76   24.00
   4   2  -4  433.76   23.30
   4   2  -4  403.46   23.00
   4   2  -4  405.66   25.50
  -4  -2   4  442.16   21.60
  -4  -2   4  417.26   16.20
  -4  -2   4  469.15   26.20
  -4  -2   4  431.46   23.10
  -4  -2   4  445.86   22.90
   3   2  -4  195.88   14.50
   3   2  -4  195.28   13.90
   3   2  -4  196.98   17.30
   3   2  -4  177.48   14.00
  -3  -2   4  195.28   13.30
  -3  -2   4  181.48   14.60
  -3  -2   4  182.48   14.30
  -3  -2   4  191.68   10.30
   2   2  -4  189.38   13.90
   2   2  -4  196.98   13.10
   2   2  -4  198.78   11.50
   2   2  -4  211.78   13.70
  -2  -2   4  202.28   10.70
  -2  -2   4  188.48   13.60
  -2  -2   4  180.68   11.90
  -2  -2   4  191.38   14.30
   1   2  -4  922.41   31.10
   1   2  -4  901.71   32.10
   1   2  -4  907.51   27.70
   1   2  -4  905.01   31.20
  -1  -2   4  856.01   31.60
  -1  -2   4  925.61   27.50
  -1  -2   4  882.61   30.00
  -1  -2   4  949.01   32.50
  -1  -2   4  859.41   29.30
   0   2  -4  291.97   14.00
   0   2  -4  296.87   14.00
   0   2  -4  282.87   14.20
   0   2  -4  297.47   15.20
   0  -2   4  303.57   14.90
   0  -2   4  296.07   13.60
   0  -2   4  308.17   15.30
  -1   2  -4  118.79    8.90
  -1   2  -4  115.39    9.40
  -1   2  -4  118.49   10.30
  -1   2  -4  122.79    8.40
   1  -2   4  115.19   10.20
   1  -2   4  116.09    8.20
   1  -2   4  111.89    9.00
  -2   2  -4  239.58   12.60
  -2   2  -4  247.18   14.80
  -2   2  -4  248.78   16.00
  -2   2  -4  245.08   12.20
  -2   2  -4  254.37   16.30
   2  -2   4  226.18   14.90
   2  -2   4  251.17   15.20
   2  -2   4  233.28   12.20
   2  -2   4  246.78   13.00
  -3   2  -4  567.34   21.70
  -3   2  -4  571.04   26.30
  -3   2  -4  541.55   21.10
  -3   2  -4  584.14   27.60
  -3   2  -4  555.04   25.30
   3  -2   4  580.94   21.70
   3  -2   4  543.35   25.70
   3  -2   4  567.84   26.40
   3  -2   4  559.24   22.10
  -4   2  -4  143.69   11.30
  -4   2  -4  144.99   16.60
  -4   2  -4  143.59   11.10
  -4   2  -4  143.09   14.40
   4  -2   4  144.79   11.70
   4  -2   4  127.29   15.30
   4  -2   4  136.69   11.60
   4  -2   4  131.09   19.00
   4  -2   4  133.79   11.10
  -5   2  -4  330.97   25.00
  -5   2  -4  287.77   17.40
  -5   2  -4  263.87   20.30
   5  -2   4  296.97   18.10
   5  -2   4  311.37   23.00
   5  -2   4  285.87   16.60
   5  -2   4  255.57   23.50
   5  -2   4  291.87   16.90
  -6   2  -4  441.16   22.70
  -6   2  -4  406.86   20.00
  -6   2  -4  462.75   32.20
  -6   2  -4  428.56   25.40
   6  -2   4  390.26   24.00
   6  -2   4  404.86   30.30
   6  -2   4  439.96   21.00
   6  -2   4  389.06   21.50
  -7   2  -4   43.60   13.80
  -7   2  -4   31.10   35.90
  -7   2  -4   57.19   13.10
   7  -2   4   30.30   28.40
   7  -2   4   25.20   18.10
   7  -2   4   36.40   22.50
   7  -2   4   26.20   11.50
   7  -2   4   48.00    9.80
   7  -2   4   31.70   14.00
   7   1  -4  450.55   38.90
   7   1  -4  471.25   43.40
   7   1  -4  487.95   28.50
   7   1  -4  504.65   28.60
  -7  -1   4  525.55   28.80
  -7  -1   4  543.55   34.00
  -7  -1   4  469.45   25.00
   6   1  -4  104.09   18.80
   6   1  -4   64.39   12.70
   6   1  -4   78.29   12.00
   6   1  -4   50.79   18.50
  -6  -1   4   66.69   10.60
  -6  -1   4   61.19   11.60
  -6  -1   4   69.39   16.80
  -6  -1   4   56.79   13.40
   5   1  -4  311.87   19.00
   5   1  -4  368.36   24.40
   5   1  -4  330.67   19.60
   5   1  -4  322.67   22.90
  -5  -1   4  302.67   13.70
  -5  -1   4  337.17   17.50
  -5  -1   4  314.07   19.60
  -5  -1   4  324.17   23.40
  -5  -1   4  311.07   20.30
   4   1  -4  483.85   15.30
   4   1  -4  503.15   25.00
   4   1  -4  482.45   22.40
   4   1  -4  489.35   22.00
   4   1  -4  504.05   26.50
  -4  -1   4  505.15   20.90
  -4  -1   4  497.05   26.50
  -4  -1   4  543.65   23.70
  -4  -1   4  507.65   23.00
  -4  -1   4  501.65   18.40
   3   1  -4 1058.59   36.90
   3   1  -4 1066.89   35.40
   3   1  -4 1063.69   32.90
   3   1  -4 1024.10   39.50
   3   1  -4 1022.70   28.80
   3   1  -4 1045.50   34.90
  -3  -1   4 1028.20   32.10
  -3  -1   4 1064.49   36.10
  -3  -1   4 1052.09   33.80
  -3  -1   4 1054.59   34.60
  -3  -1   4 1049.99   39.00
   2   1  -4 4076.79  110.09
   2   1  -4 4127.99  111.29
   2   1  -4 4062.69  112.19
   2   1  -4 4143.19  111.09
   2   1  -4 4060.39  111.79
  -2  -1   4 4140.99  111.09
  -2  -1   4 4010.60  109.29
  -2  -1   4 4111.39  111.99
  -2  -1   4 4195.78  115.19
  -2  -1   4 4070.09  109.99
   1   1  -4  353.16   15.70
   1   1  -4  359.96   15.10
   1   1  -4  350.56   15.00
   1   1  -4  351.96   14.90
  -1  -1   4  354.26   14.40
  -1  -1   4  355.36   14.50
  -1  -1   4  349.37   15.70
  -1  -1   4  361.26   15.60
   0   1  -4  150.58    8.80
   0   1  -4  152.58    8.90
   0   1  -4  141.29    9.60
   0  -1   4  154.38   10.00
   0  -1   4  145.09    8.90
   0  -1   4  135.49    9.10
   0  -1   4  157.38    8.70
  -1   1  -4  576.64   21.00
  -1   1  -4  583.84   22.70
  -1   1  -4  588.24   24.00
  -1   1  -4  592.74   21.20
   1  -1   4  597.84   21.10
   1  -1   4  566.34   21.70
   1  -1   4  601.34   23.20
   1  -1   4  602.74   21.40
   1  -1   4  595.84   21.60
  -2   1  -4 4335.07  118.69
  -2   1  -4 4163.08  113.19
  -2   1  -4 4202.78  116.19
  -2   1  -4 4196.08  113.09
   2  -1   4 4144.69  113.29
   2  -1   4 4276.27  113.19
   2  -1   4 4250.57  116.89
   2  -1   4 4086.59  113.39
   2  -1   4 4083.39  116.49
  -3   1  -4 3189.28   89.49
  -3   1  -4 3239.58   96.19
  -3   1  -4 3253.27   92.09
  -3   1  -4 3095.09   88.69
  -3   1  -4 3196.58   95.39
   3  -1   4 3248.77   88.49
   3  -1   4 3243.18   94.89
   3  -1   4 3163.18   93.99
   3  -1   4 3175.38   89.29
   3  -1   4 3206.98   90.09
  -4   1  -4   92.99   12.90
  -4   1  -4   99.99   14.80
  -4   1  -4  110.39   12.10
  -4   1  -4   69.89   13.30
  -4   1  -4  111.99   10.40
   4  -1   4  135.69   15.60
   4  -1   4   96.89   14.90
   4  -1   4  112.39   11.20
   4  -1   4  103.39   12.30
  -5   1  -4 1391.96   46.20
  -5   1  -4 1339.87   47.10
  -5   1  -4 1364.46   45.10
  -5   1  -4 1473.35   56.99
  -5   1  -4 1389.56   54.69
   5  -1   4 1380.76   46.10
   5  -1   4 1366.86   53.29
   5  -1   4 1416.36   42.90
   5  -1   4 1375.76   48.60
   5  -1   4 1391.16   55.99
  -6   1  -4    5.20    9.60
  -6   1  -4   29.90   12.20
  -6   1  -4   10.30    8.80
  -6   1  -4   16.00   14.90
  -6   1  -4    4.00   16.90
   6  -1   4   29.20   12.90
   6  -1   4   22.00    9.60
   6  -1   4    5.90   17.30
   6  -1   4   16.10    7.10
  -7   1  -4   33.40   18.70
  -7   1  -4   39.40   25.40
  -7   1  -4   33.10   19.60
   7  -1   4   21.90   16.90
   7  -1   4   14.60   11.30
   7  -1   4   62.09   21.00
   8   0  -4   66.69   12.30
   8   0  -4   31.00   12.20
   8   0  -4   51.99   30.30
   8   0  -4   91.89   28.70
  -8   0   4   49.30    9.80
  -8   0   4   45.90   18.00
  -8   0   4   33.70   10.00
   7   0  -4  164.68   15.90
   7   0  -4  140.99   16.00
  -7   0   4  151.78   13.50
  -7   0   4  164.98   21.80
  -7   0   4  214.28   26.40
   6   0  -4  150.98   21.40
   6   0  -4   95.29   12.60
   6   0  -4  114.19   11.90
   6   0  -4  113.19    9.00
   6   0  -4   96.99   11.70
   6   0  -4  109.69   19.30
  -6   0   4  107.29   12.20
  -6   0   4  120.29   16.10
  -6   0   4   78.79   16.30
  -6   0   4   99.69   10.50
   5   0  -4  575.24   22.70
   5   0  -4  626.84   30.60
   5   0  -4  571.74   31.20
   5   0  -4  597.24   21.00
   5   0  -4  565.74   21.70
   5   0  -4  568.94   23.40
  -5   0   4  562.94   23.30
  -5   0   4  562.84   21.80
  -5   0   4  529.25   28.10
  -5   0   4  605.24   21.50
  -5   0   4  579.64   26.50
   4   0  -4 7598.74  198.28
   4   0  -4 7324.17  196.58
   4   0  -4 7722.83  197.38
   4   0  -4 7672.53  198.98
   4   0  -4 7688.73  205.28
   4   0  -4 7514.85  206.78
  -4   0   4 7555.64  197.98
  -4   0   4 7460.65  205.78
  -4   0   4 7434.26  200.48
  -4   0   4 7678.33  197.08
   3   0  -4  266.37   16.10
   3   0  -4  274.37   12.60
   3   0  -4  262.27   12.20
   3   0  -4  243.98   15.20
   3   0  -4  246.88   12.20
  -3   0   4  263.07   15.00
  -3   0   4  271.07   11.70
  -3   0   4  241.38   15.20
  -3   0   4  246.48   11.90
  -3   0   4  298.17   13.00
  -3   0   4  273.27   13.30
   2   0  -4  471.75   17.40
   2   0  -4  482.55   17.20
   2   0  -4  445.56   17.40
   2   0  -4  463.75   17.10
  -2   0   4  453.35   17.40
  -2   0   4  450.65   16.50
  -2   0   4  444.46   20.30
  -2   0   4  428.86   19.00
  -2   0   4  472.85   17.50
   1   0  -4 4118.89  113.29
   1   0  -4 4381.86  113.79
   1   0  -4 4322.97  113.49
   1   0  -4 4198.18  113.79
  -1   0   4 4294.17  113.59
  -1   0   4 4390.96  114.09
  -1   0   4 4240.58  113.89
  -1   0   4 4167.18  113.19
   0   0  -4  920.51   29.90
   0   0  -4  960.90   30.00
   0   0  -4  954.50   30.10
   0   0  -4  952.30   30.20
   0   0   4  951.10   30.10
   0   0   4  968.70   30.00
   0   0   4  969.60   30.60
   0   0   4  869.91   28.10
   0   0   4  923.01   29.90
  -1   0  -4  981.20   32.20
  -1   0  -4  991.10   31.50
  -1   0  -4  952.90   32.40
  -1   0  -4  990.00   31.90
   1   0   4 1018.10   32.20
   1   0   4  928.21   32.20
   1   0   4 1007.30   32.60
   1   0   4 1076.19   39.40
   1   0   4  982.10   33.20
  -2   0  -4 1265.07   41.20
  -2   0  -4 1268.27   43.50
  -2   0  -4 1284.67   40.60
   2   0   4 1254.97   43.30
   2   0   4 1328.07   39.40
   2   0   4 1304.07   42.10
   2   0   4 1308.07   40.80
   2   0   4 1309.27   43.20
  -3   0  -4 1334.07   44.80
  -3   0  -4 1324.57   48.40
  -3   0  -4 1370.06   49.20
  -3   0  -4 1348.77   43.50
   3   0   4 1345.07   47.30
   3   0   4 1384.76   45.80
   3   0   4 1436.76   41.60
   3   0   4 1344.17   43.80
   3   0   4 1330.97   48.40
  -4   0  -4    3.50    8.90
  -4   0  -4  -10.00    7.50
  -4   0  -4   -3.50    8.90
  -4   0  -4   -3.80    6.00
  -4   0  -4   -0.40    7.40
   4   0   4    8.30    6.50
   4   0   4    2.70    7.80
   4   0   4   -0.10    4.80
   4   0   4   -2.90    9.50
   4   0   4    0.50    8.00
  -5   0  -4 1227.78   52.69
  -5   0  -4 1259.87   51.29
  -5   0  -4 1262.37   46.50
  -5   0  -4 1209.88   37.20
  -5   0  -4 1221.48   43.10
   5   0   4 1244.78   50.29
   5   0   4 1248.98   48.40
   5   0   4 1024.60   56.79
   5   0   4 1291.77   44.50
   5   0   4 1254.37   37.30
  -6   0  -4  535.15   37.70
  -6   0  -4  518.85   34.90
  -6   0  -4  529.15   27.60
   6   0   4  520.35   34.00
   6   0   4  508.45   35.90
   6   0   4  587.64   37.40
   6   0   4  476.05   44.00
   6   0   4  500.75   34.40
   8  -1  -4  191.28   16.90
   8  -1  -4  208.38   23.40
   8  -1  -4  202.58   31.90
   8  -1  -4  316.67   38.10
   8  -1  -4  194.18   15.20
  -8   1   4  184.08    8.20
  -8   1   4  214.58   26.10
  -8   1   4  185.48    8.60
   7  -1  -4   90.59   21.40
   7  -1  -4   80.39    9.90
   7  -1  -4   61.49    8.10
   7  -1  -4   60.19    8.70
   7  -1  -4   85.39   13.00
  -7   1   4   58.99    7.20
  -7   1   4   69.19    8.20
  -7   1   4   83.99   15.30
  -7   1   4   78.09   17.20
   6  -1  -4   -8.20   11.20
   6  -1  -4   11.20   12.20
   6  -1  -4   -2.10    7.10
   6  -1  -4    2.60    5.00
   6  -1  -4    3.50    5.10
   6  -1  -4   -2.10    4.30
  -6   1   4   -9.70    7.10
  -6   1   4    1.90    3.50
  -6   1   4   -4.60    4.20
  -6   1   4   12.50   10.90
   5  -1  -4  282.37   12.60
   5  -1  -4  273.37   13.80
   5  -1  -4  286.47   13.50
   5  -1  -4  279.37   15.90
   5  -1  -4  283.77   16.00
   5  -1  -4  242.58   20.60
   5  -1  -4  270.67   20.90
  -5   1   4  283.47   20.40
  -5   1   4  245.28   15.30
  -5   1   4  290.37   17.30
  -5   1   4  262.97   11.40
   4  -1  -4   16.20    8.00
   4  -1  -4   16.00    4.50
   4  -1  -4   10.10    3.90
   4  -1  -4   15.60    7.70
   4  -1  -4   17.80    3.90
   4  -1  -4   10.50    4.80
  -4   1   4   12.20    4.20
  -4   1   4   11.80    6.40
  -4   1   4   12.50    6.50
  -4   1   4   13.60    4.80
  -4   1   4    9.50    3.40
  -4   1   4   14.20    5.50
   3  -1  -4  149.59    8.20
   3  -1  -4  145.09    9.30
   3  -1  -4  136.59    6.90
   3  -1  -4  145.29    8.10
   3  -1  -4  144.79    8.60
  -3   1   4  138.49    7.80
  -3   1   4  130.89   11.60
  -3   1   4  136.19    9.80
  -3   1   4  132.89    7.60
  -3   1   4  141.59    8.40
  -3   1   4  127.69   11.40
   2  -1  -4   66.79    5.20
   2  -1  -4   74.89    6.40
   2  -1  -4   64.79    5.60
   2  -1  -4   77.69    6.30
  -2   1   4   71.69    6.20
  -2   1   4   73.59    5.60
  -2   1   4   75.29    6.10
   1  -1  -4 3489.55   96.39
   1  -1  -4 3676.43   96.59
   1  -1  -4 3518.95   94.09
   1  -1  -4 3583.04   95.99
   1  -1  -4 3467.25   91.89
  -1   1   4 3611.04   96.19
  -1   1   4 3514.55   96.29
  -1   1   4 3544.95   94.49
  -1   1   4 3585.14   97.19
   0  -1  -4  100.39    7.00
   0  -1  -4  100.19    8.10
   0  -1  -4  100.69    7.70
   0   1   4   98.59    8.10
   0   1   4   99.59    8.40
   0   1   4   89.69    7.90
   0   1   4   91.29    7.70
  -1  -1  -4   44.50    6.70
  -1  -1  -4   45.40    7.10
  -1  -1  -4   43.00    7.10
  -1  -1  -4   46.80    6.10
   1   1   4   42.60    6.80
   1   1   4   38.10    6.90
   1   1   4   43.90    7.40
   1   1   4   28.90    7.10
   1   1   4   54.89    7.20
  -2  -1  -4    9.80    6.40
  -2  -1  -4   14.80    4.80
  -2  -1  -4    7.50    5.40
  -2  -1  -4    0.20    5.70
   2   1   4    5.40    4.40
   2   1   4   16.60    6.10
   2   1   4   12.70    6.60
   2   1   4    8.90    6.40
   2   1   4   11.70    6.50
  -3  -1  -4 1112.99   42.60
  -3  -1  -4 1163.68   43.40
  -3  -1  -4 1080.89   38.40
   3   1   4 1097.49   38.80
   3   1   4 1052.19   34.70
   3   1   4 1049.59   41.30
   3   1   4 1078.19   41.30
  -4  -1  -4   14.50    9.50
  -4  -1  -4   21.80    9.30
  -4  -1  -4   21.60    5.50
  -4  -1  -4   17.50    6.50
  -4  -1  -4   13.10   10.50
  -4  -1  -4   12.10   10.30
   4   1   4    1.00   11.90
   4   1   4    7.30    7.80
   4   1   4    4.60   10.70
   4   1   4   10.00    5.80
   4   1   4   14.70   10.10
  -5  -1  -4  247.48   20.30
  -5  -1  -4  202.78   25.50
  -5  -1  -4  233.98   26.80
   5   1   4  217.28   20.50
   5   1   4  190.78   24.70
  -6  -1  -4  384.06   27.60
  -6  -1  -4  426.06   37.10
  -6  -1  -4  439.16   36.00
  -6  -1  -4  418.46   37.20
   6   1   4  397.16   39.90
   6   1   4  392.26   47.90
   6   1   4  429.36   28.60
   6   1   4  359.36   33.80
   9  -2  -4   51.59    8.90
   9  -2  -4   20.60   20.00
  -9   2   4   44.90   20.30
   8  -2  -4  270.37   17.10
   8  -2  -4  314.17   40.80
   8  -2  -4  270.27    9.50
   8  -2  -4  310.27   28.70
   8  -2  -4  307.57   36.60
  -8   2   4  307.77   26.90
   7  -2  -4  151.78   17.80
   7  -2  -4  146.29   13.20
   7  -2  -4  139.69    8.40
   7  -2  -4  139.19   17.70
   7  -2  -4  164.48   23.40
   7  -2  -4  128.39    7.90
  -7   2   4  146.89   19.30
  -7   2   4  160.18   21.00
   6  -2  -4   -7.20    7.60
   6  -2  -4    6.20    8.30
   6  -2  -4   14.40   12.40
   6  -2  -4    0.30    5.90
   6  -2  -4   -3.90    3.40
   6  -2  -4   -1.50    3.50
   6  -2  -4    6.20    6.80
  -6   2   4   -6.70    7.00
  -6   2   4   -4.10    9.00
  -6   2   4    0.90    1.20
   5  -2  -4 2673.13   76.19
   5  -2  -4 2594.54   83.69
   5  -2  -4 2510.85   70.49
   5  -2  -4 2695.53   78.79
   5  -2  -4 2702.23   82.59
   5  -2  -4 2668.63   76.09
   5  -2  -4 2642.74   71.09
  -5   2   4 2688.13   81.39
  -5   2   4 2702.83   77.49
  -5   2   4 2510.95   69.49
  -5   2   4 2601.84   81.79
  -5   2   4 2554.34   70.29
   4  -2  -4  103.69    9.90
   4  -2  -4  117.19    7.20
   4  -2  -4   99.09    7.10
   4  -2  -4  117.19    8.30
   4  -2  -4  109.29   12.50
  -4   2   4  131.79   10.80
  -4   2   4  111.29    7.10
  -4   2   4  124.19   13.00
  -4   2   4   99.59   10.80
  -4   2   4  122.19   11.40
  -4   2   4  125.69    9.50
   3  -2  -4   55.79    5.70
   3  -2  -4   55.39    6.10
   3  -2  -4   54.39    7.70
   3  -2  -4   52.89    4.80
   3  -2  -4   51.59    4.00
  -3   2   4   42.70    7.50
  -3   2   4   49.50    9.00
  -3   2   4   51.19    5.90
  -3   2   4   58.09    7.70
  -3   2   4   39.90    7.60
  -3   2   4   49.50    6.80
   2  -2  -4 5156.38  136.59
   2  -2  -4 5145.89  134.29
  -2   2   4 5218.28  138.09
  -2   2   4 4946.00  133.89
  -2   2   4 5120.79  135.29
  -2   2   4 4802.02  129.89
   1  -2  -4  171.28   10.60
   1  -2  -4  145.29   13.30
   1  -2  -4  164.58   10.00
  -1   2   4  147.99   11.00
  -1   2   4  162.68    8.30
  -1   2   4  146.29    9.40
  -1   2   4  163.48   11.40
   0  -2  -4    9.50    5.00
   0  -2  -4    5.40    3.90
   0  -2  -4    1.40    3.50
   0  -2  -4    4.30    5.00
   0   2   4    0.70    4.50
   0   2   4    3.00    4.50
   0   2   4    6.10    4.10
   0   2   4    5.90    5.60
  -1  -2  -4    1.80    5.50
  -1  -2  -4    3.60    6.00
  -1  -2  -4    8.50    4.30
  -1  -2  -4   -5.60    4.40
   1   2   4   -3.80    4.50
   1   2   4    2.40    6.60
  -2  -2  -4 1464.25   48.80
  -2  -2  -4 1414.36   49.99
  -2  -2  -4 1497.75   50.69
  -2  -2  -4 1426.46   43.40
   2   2   4 1423.46   45.40
   2   2   4 1410.66   51.49
  -3  -2  -4   44.40   11.60
  -3  -2  -4   17.50    9.70
  -3  -2  -4   23.00    9.00
  -3  -2  -4   17.40    5.60
   3   2   4   26.00    7.30
   3   2   4   12.90   11.60
  -4  -2  -4    9.90   10.50
  -4  -2  -4   27.70   13.40
  -4  -2  -4    8.20   10.20
   4   2   4    5.10   13.90
   4   2   4   27.70   16.80
   4   2   4  -15.00    8.80
  -5  -2  -4  143.59   24.20
  -5  -2  -4  153.18   19.40
  -5  -2  -4  162.98   23.40
  -5  -2  -4  140.09   21.80
   5   2   4  122.89   21.70
   5   2   4  103.39   26.10
   5   2   4  143.89   26.30
   5   2   4  126.09   18.10
   9  -3  -4   97.09   32.80
   9  -3  -4   17.60   31.60
   9  -3  -4   20.00   11.10
   9  -3  -4   33.10   22.20
   9  -3  -4   22.60   19.30
   9  -3  -4    7.60   15.00
   8  -3  -4   36.70   22.30
   8  -3  -4    5.90   20.00
   8  -3  -4    5.40   13.90
   8  -3  -4   11.20   15.80
   8  -3  -4   21.10   10.00
   7  -3  -4  407.26   26.00
   7  -3  -4  398.46   32.90
   7  -3  -4  442.56   31.20
   7  -3  -4  386.16   21.90
  -7   3   4  407.16   27.00
  -7   3   4  389.96   22.30
   6  -3  -4   73.69   13.60
   6  -3  -4   79.79   16.70
   6  -3  -4   83.79    5.60
   6  -3  -4   92.49    5.90
   6  -3  -4   92.79   15.50
   6  -3  -4   92.19   11.70
   6  -3  -4  106.09   13.30
  -6   3   4   73.69   14.30
  -6   3   4   89.99   11.80
  -6   3   4   85.49   14.30
   5  -3  -4 2218.08   59.99
   5  -3  -4 2306.57   70.99
   5  -3  -4 2164.08   60.39
   5  -3  -4 2253.57   68.09
   5  -3  -4 2231.68   65.49
  -5   3   4 2282.87   72.49
  -5   3   4 2201.68   68.99
  -5   3   4 2154.28   68.09
  -5   3   4 2118.39   59.69
  -5   3   4 2165.68   59.39
   4  -3  -4 3804.92  102.79
   4  -3  -4 3719.03  100.69
   4  -3  -4 3668.03  101.49
   4  -3  -4 3870.11  107.69
   4  -3  -4 3603.44   97.39
  -4   3   4 3743.93  100.59
  -4   3   4 3802.92  110.79
  -4   3   4 3752.62  108.99
  -4   3   4 3935.61  106.49
  -4   3   4 3852.91  107.59
  -4   3   4 3828.12  101.89
   3  -3  -4   11.00    4.80
   3  -3  -4    6.80    5.90
   3  -3  -4   10.20    3.80
  -3   3   4    0.90    5.40
  -3   3   4   11.60    4.90
  -3   3   4    7.00    3.90
  -3   3   4    1.80    6.10
  -3   3   4   14.60    5.10
   2  -3  -4 3452.85   94.89
   2  -3  -4 3374.96   96.19
   2  -3  -4 3303.87   93.89
  -2   3   4 3496.35   95.99
  -2   3   4 3392.66   95.39
  -2   3   4 3204.18   87.69
  -2   3   4 3443.56   93.79
  -2   3   4 3405.56   98.09
   1  -3  -4  294.67   15.90
   1  -3  -4  295.37   16.20
   1  -3  -4  320.77   17.30
  -1   3   4  285.87   17.20
  -1   3   4  297.97   15.20
  -1   3   4  267.27   16.90
   0  -3  -4 1556.64   50.99
   0  -3  -4 1591.94   52.29
   0  -3  -4 1487.65   48.00
   0  -3  -4 1592.24   49.20
   0   3   4 1532.05   50.49
   0   3   4 1559.94   53.09
   0   3   4 1505.55   50.09
  -1  -3  -4 1337.07   48.10
  -1  -3  -4 1401.46   46.60
  -1  -3  -4 1325.47   47.00
  -1  -3  -4 1268.87   41.90
   1   3   4 1378.86   46.90
   1   3   4 1289.07   44.70
   1   3   4 1329.07   49.70
  -2  -3  -4  215.78   19.60
  -2  -3  -4  182.78   17.50
  -2  -3  -4  196.98   12.40
  -2  -3  -4  208.58   17.90
   2   3   4  178.88   21.00
   2   3   4  186.18   17.00
  -3  -3  -4   14.10    8.30
  -3  -3  -4   10.80    5.90
  -3  -3  -4    9.90   10.50
  -3  -3  -4    3.30   11.30
   3   3   4   -3.10   13.60
   3   3   4    7.70   14.30
  -4  -3  -4   42.00   17.50
  -4  -3  -4   21.00   15.30
  -4  -3  -4   31.20   13.60
  -4  -3  -4    2.50   13.60
   4   3   4   21.10   20.20
   9  -4  -4   15.50   32.20
   9  -4  -4   33.20   14.20
   9  -4  -4   57.69   20.20
   9  -4  -4   74.99   27.40
   9  -4  -4   67.19   24.80
   9  -4  -4   44.70   15.60
   8  -4  -4   39.50   18.20
   8  -4  -4   22.70   22.80
   8  -4  -4   32.50   14.10
   8  -4  -4   50.19   13.30
   8  -4  -4   50.89   12.30
   8  -4  -4   32.00   18.50
  -8   4   4   51.39   13.50
   7  -4  -4  338.17   28.80
   7  -4  -4  423.06   21.30
   7  -4  -4  417.26   29.60
   7  -4  -4  404.66   25.20
   7  -4  -4  412.16   24.30
  -7   4   4  399.26   24.30
   6  -4  -4  287.17   22.40
   6  -4  -4  169.88   25.50
   6  -4  -4  257.17   14.10
   6  -4  -4  252.07   18.40
   6  -4  -4  267.77   19.30
   6  -4  -4  255.07   10.40
  -6   4   4  277.87   22.10
  -6   4   4  251.37   19.10
  -6   4   4  273.07   20.50
   5  -4  -4    2.20    8.20
   5  -4  -4    2.30    3.40
   5  -4  -4    0.90    4.10
   5  -4  -4  -10.80    5.40
   5  -4  -4    6.60    7.70
  -5   4   4   -2.50    7.30
  -5   4   4    4.10    6.90
  -5   4   4   -6.20    8.10
  -5   4   4    2.30    4.40
   4  -4  -4 1099.89   36.30
   4  -4  -4 1055.09   40.80
   4  -4  -4 1139.69   35.30
  -4   4   4 1103.39   36.80
  -4   4   4 1113.49   41.00
  -4   4   4 1022.10   36.90
  -4   4   4 1104.59   36.40
  -4   4   4 1153.18   43.70
   3  -4  -4  564.64   26.30
   3  -4  -4  582.54   23.10
   3  -4  -4  552.44   23.70
  -3   4   4  594.34   26.20
  -3   4   4  560.34   22.60
  -3   4   4  585.44   25.00
  -3   4   4  561.14   20.70
   2  -4  -4  428.66   22.10
   2  -4  -4  451.35   22.00
   2  -4  -4  440.96   21.10
  -2   4   4  447.76   22.70
  -2   4   4  429.56   21.50
   1  -4  -4 3213.38   93.69
   1  -4  -4 3068.09   94.09
   1  -4  -4 3105.09   92.49
  -1   4   4 3269.77   91.59
  -1   4   4 3166.98   95.89
  -1   4   4 3258.07   93.09
   0  -4  -4    4.60    7.70
   0  -4  -4   -2.90    6.00
   0  -4  -4   -2.80    9.20
   0   4   4   18.90   12.30
   0   4   4   14.00    8.10
  -1  -4  -4   16.40    7.00
  -1  -4  -4   -0.50    9.80
  -1  -4  -4   -3.00    7.60
  -1  -4  -4   -1.30    8.80
   1   4   4    1.30   13.40
   1   4   4   -2.40    8.90
   1   4   4   12.80    8.80
  -2  -4  -4   44.50   14.70
  -2  -4  -4   43.20   13.10
  -2  -4  -4   29.50    8.00
  -2  -4  -4   42.30   13.50
   2   4   4   38.10   13.80
   2   4   4   16.80    9.90
   2   4   4   48.80   17.60
  -3  -4  -4  902.81   45.50
  -3  -4  -4  860.81   30.60
  -3  -4  -4  929.31   42.70
   3   4   4  916.11   42.50
   3   4   4  830.02   50.39
   3   4   4  874.21   44.00
  -4  -4  -4   -1.50   16.30
  -4  -4  -4   -4.40   16.60
  -4  -4  -4   20.00   18.90
   4   4   4  -20.00   24.10
   4   4   4   -6.70   25.80
   9  -5  -4    4.70   14.70
   9  -5  -4  -42.80   26.00
   9  -5  -4   14.50   19.70
   9  -5  -4   26.20   16.80
   9  -5  -4   32.40   25.20
  -9   5   4   22.00   13.90
   8  -5  -4  186.88   19.40
   8  -5  -4  157.38   22.00
   8  -5  -4  133.49   24.50
   8  -5  -4  201.78   22.50
   8  -5  -4  196.38   28.00
  -8   5   4  195.88   21.20
   7  -5  -4  158.78   22.10
   7  -5  -4  173.78   20.40
   7  -5  -4  150.68    5.30
   7  -5  -4  156.58   13.70
   7  -5  -4  144.99    5.00
   7  -5  -4  141.59   28.40
  -7   5   4  155.18   21.30
  -7   5   4  153.18   17.90
   6  -5  -4  350.16   15.90
   6  -5  -4  376.66   23.20
   6  -5  -4  377.36   25.00
   6  -5  -4  361.56   16.90
   6  -5  -4  391.66   15.40
   6  -5  -4  412.56   27.60
   6  -5  -4  347.27   21.70
  -6   5   4  417.56   27.10
  -6   5   4  372.56   15.30
  -6   5   4  392.66   14.00
  -6   5   4  390.86   24.90
   5  -5  -4 1271.17   48.00
   5  -5  -4 1180.98   40.20
   5  -5  -4 1271.27   39.10
  -5   5   4 1160.18   37.60
  -5   5   4 1214.38   47.10
  -5   5   4 1251.17   49.10
  -5   5   4 1228.98   40.60
  -5   5   4 1197.58   40.70
   4  -5  -4  354.96   23.10
   4  -5  -4  355.76   19.50
   4  -5  -4  371.66   18.60
  -4   5   4  332.77   15.50
  -4   5   4  391.76   22.90
  -4   5   4  358.46   20.30
  -4   5   4  354.36   17.60
   3  -5  -4   27.90    9.80
   3  -5  -4   16.60    7.40
   3  -5  -4    8.30    7.30
  -3   5   4   42.20    9.60
  -3   5   4   20.10    9.20
   2  -5  -4  211.68   18.30
   2  -5  -4  225.98   17.50
   2  -5  -4  191.78   17.10
  -2   5   4  197.48   16.00
  -2   5   4  181.78   18.70
  -2   5   4  245.88   17.30
   1  -5  -4  136.19   17.80
   1  -5  -4   78.59   12.90
  -1   5   4   84.79   12.40
   0  -5  -4  123.59   17.80
   0  -5  -4  100.79   13.50
   0  -5  -4   95.09   15.30
   0   5   4  119.19   16.10
   0   5   4  105.39   12.80
   0   5   4  104.99   19.90
  -1  -5  -4  353.56   25.40
  -1  -5  -4  357.96   29.50
  -1  -5  -4  375.96   21.20
  -1  -5  -4  322.07   25.70
   1   5   4  316.87   22.80
   1   5   4  328.77   25.80
   1   5   4  401.76   33.50
  -2  -5  -4  113.59   14.50
  -2  -5  -4  119.39   23.30
  -2  -5  -4   88.39   18.10
  -2  -5  -4  108.39   19.40
   2   5   4  175.68   26.90
   2   5   4  135.89   20.50
   2   5   4   98.09   19.10
  -3  -5  -4  198.28   27.10
  -3  -5  -4  256.07   29.80
  -3  -5  -4  196.88   16.50
   3   5   4  232.78   30.00
   3   5   4  175.28   24.30
   3   5   4  168.68   33.30
   9  -6  -4  139.89   24.30
   9  -6  -4   94.59   33.40
   9  -6  -4  134.39   18.60
   9  -6  -4  128.09   31.30
   9  -6  -4  123.79   33.10
  -9   6   4  112.89   21.20
   8  -6  -4  242.58   32.70
   8  -6  -4  230.38   17.90
   8  -6  -4  207.38   24.30
   8  -6  -4  242.78   32.20
   8  -6  -4  245.48   27.50
  -8   6   4  219.58   22.90
   7  -6  -4  282.57   13.20
   7  -6  -4  302.17   26.10
   7  -6  -4  297.17   33.40
   7  -6  -4  278.17   26.20
   7  -6  -4  324.17   26.20
   7  -6  -4  315.17   13.50
  -7   6   4  300.77   26.90
  -7   6   4  300.97   24.70
   6  -6  -4    0.40    5.80
   6  -6  -4    1.50    7.10
   6  -6  -4    4.10   12.10
   6  -6  -4   17.10   14.80
  -6   6   4   -2.20    7.40
  -6   6   4    0.10    9.90
  -6   6   4   14.60   12.10
   5  -6  -4 1213.28   41.80
   5  -6  -4 1190.58   43.40
   5  -6  -4 1249.28   50.49
  -5   6   4 1296.27   51.29
  -5   6   4 1222.98   40.90
  -5   6   4 1209.68   44.00
  -5   6   4 1199.08   49.30
   4  -6  -4   55.39   12.70
   4  -6  -4   69.09   12.90
   4  -6  -4   54.79   10.80
  -4   6   4   66.59   13.00
  -4   6   4   59.79   12.50
   3  -6  -4  123.69   16.20
   3  -6  -4  110.09   15.70
   3  -6  -4  101.79   14.20
  -3   6   4  111.29   14.00
  -3   6   4   99.99    8.90
  -3   6   4  108.19   16.40
  -3   6   4  126.79   15.20
   2  -6  -4 1940.91   66.39
   2  -6  -4 1956.30   67.09
   2  -6  -4 1934.51   68.29
  -2   6   4 1894.41   64.99
  -2   6   4 2051.99   77.59
  -2   6   4 1893.61   65.09
   1  -6  -4   56.79   14.20
   1  -6  -4   81.89   14.00
   1  -6  -4   33.80   15.80
  -1   6   4   62.99    7.20
  -1   6   4   60.09   12.90
  -1   6   4   86.39   18.60
  -1   6   4   52.89   13.20
   0  -6  -4   11.10    9.90
   0  -6  -4   29.80   16.50
   0  -6  -4   13.70   12.70
   0   6   4  -16.20   17.40
   0   6   4    1.40   11.90
   0   6   4    7.20    8.60
  -1  -6  -4   19.30   20.70
  -1  -6  -4    7.60   13.90
  -1  -6  -4   -0.70   15.20
  -1  -6  -4    3.20   11.00
   1   6   4   19.30   16.20
   1   6   4   -1.30   22.40
   1   6   4   -9.80   12.70
  -2  -6  -4  193.58   26.10
  -2  -6  -4  212.28   20.40
  -2  -6  -4  215.88   27.30
   2   6   4  257.57   30.50
   2   6   4  171.48   35.60
   2   6   4  167.88   24.20
   8  -7  -4  -14.00   19.10
   8  -7  -4    1.70    4.70
   8  -7  -4   41.50   19.40
   8  -7  -4  -48.50   25.60
   8  -7  -4   11.20   18.10
   8  -7  -4   -0.60    4.10
  -8   7   4   28.40   18.70
   7  -7  -4  367.56   18.20
   7  -7  -4  350.26   32.60
   7  -7  -4  306.17   19.80
   7  -7  -4  342.27   28.10
  -7   7   4  354.06   29.00
  -7   7   4  343.07   30.60
  -7   7   4  352.96   15.70
   6  -7  -4   43.90   10.10
   6  -7  -4   39.80   11.00
   6  -7  -4   75.39   18.30
  -6   7   4   23.70   11.30
  -6   7   4   17.40   14.70
  -6   7   4   37.20   15.20
   5  -7  -4  462.95   24.80
   5  -7  -4  443.56   31.70
   5  -7  -4  426.46   27.00
  -5   7   4  441.66   31.30
  -5   7   4  433.56   28.40
  -5   7   4  406.86   28.70
   4  -7  -4  266.67   21.90
   4  -7  -4  302.57   26.20
   4  -7  -4  252.57   23.10
  -4   7   4  269.17    9.20
  -4   7   4  268.17   21.40
  -4   7   4  223.88   20.10
  -4   7   4  317.47   27.50
   3  -7  -4  280.17   23.50
   3  -7  -4  322.97   26.40
   3  -7  -4  233.08   26.80
  -3   7   4  326.37   24.50
  -3   7   4  310.27   23.60
  -3   7   4  277.77   16.50
   2  -7  -4  780.32   43.00
   2  -7  -4  798.92   39.10
   2  -7  -4  771.62   39.20
  -2   7   4  749.73   32.60
  -2   7   4  723.33   36.10
  -2   7   4  800.82   38.60
   1  -7  -4  117.79   19.20
   1  -7  -4  113.99   24.30
   1  -7  -4  128.89   22.50
  -1   7   4   83.49   15.30
  -1   7   4   97.79   24.20
  -1   7   4  130.09   19.90
   0  -7  -4   66.79   16.30
   0  -7  -4   79.09   20.70
   0  -7  -4   95.59   24.90
   0   7   4  114.89   27.40
   0   7   4   85.99   12.60
   0   7   4   97.69   21.10
   7  -8  -4   49.50   20.90
   7  -8  -4   34.80   10.40
   7  -8  -4   -0.70   11.80
   7  -8  -4   89.49   30.40
  -7   8   4   60.79   31.90
  -7   8   4   31.50   13.10
  -7   8   4   49.40   19.50
   6  -8  -4  180.78   26.60
   6  -8  -4  142.69   19.10
   6  -8  -4  154.58   19.50
   6  -8  -4  157.58   29.80
  -6   8   4  138.09   16.50
  -6   8   4  169.48   25.40
  -6   8   4  142.79   28.10
   5  -8  -4  209.58   25.20
   5  -8  -4  228.28   27.90
   5  -8  -4  129.49   25.20
  -5   8   4  223.68   29.30
  -5   8   4  160.48   24.50
  -5   8   4  134.49   22.80
   4  -8  -4  435.86   34.70
   4  -8  -4  342.67   27.50
   4  -8  -4  384.26   33.20
  -4   8   4  375.46   36.10
  -4   8   4  338.67   28.50
  -4   8   4  373.76   27.30
  -4   8   4  344.07   15.40
   3  -8  -4   95.19   18.90
   3  -8  -4  115.69   23.00
   3  -8  -4   85.99   19.40
  -3   8   4  106.69   20.20
  -3   8   4   75.09   23.70
  -3   8   4   94.89   13.30
  -3   8   4  102.29   18.90
   2  -8  -4    2.70   26.10
   2  -8  -4   46.90   22.50
   2  -8  -4   23.00   16.40
  -2   8   4   19.00   15.00
  -2   8   4    3.50   24.60
  -2   8   4   12.10   15.90
  -2   8   4   13.60   13.00
   1  -8  -4  136.09   28.80
   1  -8  -4   66.09   20.20
  -1   8   4   99.09   21.80
  -1   8   4   35.10   20.20
  -1   8   4   66.09   15.80
   5  -9  -4  144.79   29.50
   5  -9  -4  130.29   27.90
   5  -9  -4  140.99   22.40
  -5   9   4  171.88   28.00
  -5   9   4  142.89   29.80
  -5   9   4  129.09   24.20
   4  -9  -4    1.80   20.80
   4  -9  -4    8.00   16.30
   4  -9  -4   54.29   24.90
  -4   9   4   10.70   17.20
  -4   9   4   25.40    9.60
  -4   9   4   34.00   19.10
  -1   9  -5  -32.80   26.80
  -1   9  -5   14.50   23.90
   1  -9   5  -30.70   21.00
   1  -9   5   -0.40   22.00
   1  -9   5    8.70   11.80
   1  -9   5   11.90   19.90
  -2   9  -5   49.00   23.30
  -2   9  -5   31.10   20.00
  -2   9  -5   62.59   27.30
   2  -9   5   29.90   25.90
   2  -9   5   73.69   21.90
   2  -9   5   40.20   20.50
   2  -9   5   49.00   12.90
  -3   9  -5   92.09   23.40
  -3   9  -5   60.79   21.70
  -3   9  -5   82.69   25.30
  -3   9  -5   53.59   24.30
   3  -9   5  129.09   17.80
   3  -9   5  142.69   23.20
   3  -9   5   69.39   22.10
   3  -9   5   66.69   25.10
  -4   9  -5    9.10   21.40
  -4   9  -5   -4.30   18.70
  -4   9  -5   -3.70   19.70
  -4   9  -5   41.20   23.70
   4  -9   5   -2.60   19.30
   4  -9   5   34.40   26.30
   1   8  -5    5.20   15.50
   1   8  -5  -34.90   26.50
   1   8  -5   45.20   26.30
   1   8  -5   11.30   22.60
   1   8  -5  -15.10    9.90
  -1  -8   5  -11.90   19.50
  -1  -8   5   34.00   23.00
  -1  -8   5    4.40   12.90
  -1  -8   5    8.80   14.40
   0   8  -5   89.89   23.20
   0   8  -5   57.99   18.80
   0   8  -5   42.60   22.90
   0   8  -5   71.19   23.70
   0  -8   5    8.10   19.90
   0  -8   5   37.50   20.70
   0  -8   5   60.09   16.40
   0  -8   5   45.40   13.90
  -1   8  -5  285.07   31.60
  -1   8  -5  300.27   29.60
  -1   8  -5  241.08   30.60
   1  -8   5  343.77   31.20
   1  -8   5  322.77   28.50
   1  -8   5  240.88   31.00
   1  -8   5  308.67   22.80
  -2   8  -5  127.19   22.50
  -2   8  -5  101.99   26.80
   2  -8   5  129.29   19.60
   2  -8   5   81.49   20.20
   2  -8   5  104.49   21.00
   2  -8   5  102.59   15.80
  -3   8  -5  333.77   28.00
  -3   8  -5  316.27   30.80
  -3   8  -5  298.47   29.10
  -3   8  -5  300.27   31.00
   3  -8   5  342.17   26.70
   3  -8   5  288.17   30.90
   3  -8   5  334.87   28.90
   3  -8   5  284.97   29.50
  -4   8  -5   31.00   14.70
  -4   8  -5   21.40   17.10
  -4   8  -5   31.90   15.80
  -4   8  -5   -2.30   19.60
   4  -8   5   10.60   15.70
   4  -8   5   48.50   20.90
   4  -8   5   19.70   13.30
   4  -8   5   16.20   17.20
  -5   8  -5   76.19   18.10
  -5   8  -5   65.49   15.00
   5  -8   5    7.90   23.60
   5  -8   5   53.99   14.80
   5  -8   5   41.50   17.80
   5  -8   5   63.59   20.00
  -6   8  -5   42.70   17.10
  -6   8  -5   57.59   14.70
  -6   8  -5   34.00   24.00
  -6   8  -5  -16.50   20.50
   6  -8   5   61.49   22.60
   6  -8   5   51.09   13.90
   6  -8   5   75.29   17.60
   3   7  -5  -18.30   29.40
   3   7  -5   48.40   28.90
   3   7  -5   18.20   22.00
   3   7  -5   22.10   16.00
  -3  -7   5    2.70   14.70
  -3  -7   5    7.60   23.70
  -3  -7   5  -10.50   15.70
   2   7  -5   11.40   22.20
   2   7  -5   -3.20   11.60
   2   7  -5   14.30   22.30
   2   7  -5    8.90   14.20
   2   7  -5   12.90   19.60
  -2  -7   5    4.70   19.50
  -2  -7   5   21.40   14.20
   1   7  -5  678.33   25.30
   1   7  -5  588.54   36.40
   1   7  -5  621.84   41.50
   1   7  -5  734.83   43.60
  -1  -7   5  704.93   39.60
  -1  -7   5  676.03   33.70
  -1  -7   5  621.64   28.40
  -1  -7   5  686.63   42.50
   0   7  -5  195.58   25.10
   0   7  -5  202.58   24.00
   0   7  -5  209.88   26.20
   0   7  -5  204.58   26.40
   0  -7   5  167.28   24.90
   0  -7   5  177.28   19.00
   0  -7   5  170.08   18.60
   0  -7   5  175.28   21.40
  -1   7  -5    4.50   10.90
  -1   7  -5   19.50   14.00
  -1   7  -5   20.80   15.20
   1  -7   5   15.30   10.20
   1  -7   5   27.30   11.80
   1  -7   5   13.40   13.70
   1  -7   5   -4.40   11.60
  -2   7  -5 1218.58   57.29
  -2   7  -5 1421.86   54.79
  -2   7  -5 1324.97   53.39
   2  -7   5 1319.47   51.79
   2  -7   5 1351.16   54.89
   2  -7   5 1315.47   53.39
   2  -7   5 1387.06   51.09
  -3   7  -5   42.60   16.40
  -3   7  -5   43.50   15.10
  -3   7  -5   68.19   15.60
  -3   7  -5   66.09   13.90
   3  -7   5   77.99   16.30
   3  -7   5   76.69   17.20
   3  -7   5   63.89   16.00
   3  -7   5   57.09   13.20
  -4   7  -5  556.94   39.00
  -4   7  -5  676.03   36.70
  -4   7  -5  670.93   31.50
  -4   7  -5  707.43   34.50
   4  -7   5  659.13   34.60
   4  -7   5  708.33   37.70
   4  -7   5  629.04   30.70
  -5   7  -5  139.19   17.50
  -5   7  -5  105.89   20.90
  -5   7  -5  165.58   21.30
  -5   7  -5  144.39   26.00
   5  -7   5  146.09   19.80
   5  -7   5  140.59   17.50
   5  -7   5  114.49   24.50
   5  -7   5  133.39   22.20
  -6   7  -5   98.79   22.40
  -6   7  -5   81.19   12.60
  -6   7  -5   52.59   14.90
  -6   7  -5   65.09   22.30
   6  -7   5   80.59   19.40
   6  -7   5  128.29   27.50
   6  -7   5  133.59   28.90
   6  -7   5   60.99   15.80
   6  -7   5   70.69   12.50
   6  -7   5   87.89   22.70
   4   6  -5   28.20   25.90
   4   6  -5   25.50   19.40
   4   6  -5   -0.10   13.70
   4   6  -5   11.70   21.10
  -4  -6   5   38.60   22.80
  -4  -6   5   24.90   11.50
  -4  -6   5   19.50   19.10
   3   6  -5  -13.20   15.20
   3   6  -5   14.20   13.20
   3   6  -5    4.30   19.50
   3   6  -5   11.60   13.30
   3   6  -5   28.20   20.10
  -3  -6   5   22.10   17.40
  -3  -6   5  -21.10   17.60
  -3  -6   5    4.40   14.00
  -3  -6   5   21.40   11.70
   2   6  -5  201.68   25.30
   2   6  -5  215.58   28.30
   2   6  -5  247.68   18.40
   2   6  -5  240.78   21.90
  -2  -6   5  210.38   25.30
  -2  -6   5  252.37   22.10
  -2  -6   5  240.78   27.00
   1   6  -5  523.35   32.80
   1   6  -5  485.05   30.40
   1   6  -5  498.15   19.60
   1   6  -5  474.45   32.90
   1   6  -5  558.34   33.20
  -1  -6   5  505.15   30.80
  -1  -6   5  488.85   27.40
  -1  -6   5  450.35   21.70
  -1  -6   5  495.85   33.30
   0   6  -5  703.03   35.30
   0   6  -5  651.23   35.40
   0   6  -5  666.13   36.50
   0   6  -5  682.83   35.70
   0  -6   5  704.43   31.50
   0  -6   5  690.13   33.30
   0  -6   5  696.03   29.50
   0  -6   5  697.03   37.00
  -1   6  -5  100.69   15.40
  -1   6  -5  119.79   16.70
  -1   6  -5  130.09   17.00
  -1   6  -5   91.49   16.00
   1  -6   5   92.39   15.90
   1  -6   5  102.09   14.60
   1  -6   5  102.49   16.70
   1  -6   5  108.09   13.80
  -2   6  -5 2447.66   79.69
  -2   6  -5 2235.68   83.89
  -2   6  -5 2477.45   78.99
  -2   6  -5 2469.65   76.79
   2  -6   5 2409.16   78.39
   2  -6   5 2403.86   79.89
   2  -6   5 2439.16   75.69
   2  -6   5 2515.75   80.49
  -3   6  -5  343.37   28.40
  -3   6  -5  369.96   25.30
  -3   6  -5  367.46   21.70
  -3   6  -5  369.56   26.30
  -3   6  -5  375.66   23.50
   3  -6   5  370.16   25.80
   3  -6   5  374.36   25.80
   3  -6   5  342.07   26.80
   3  -6   5  385.76   21.50
  -4   6  -5   24.60   15.40
  -4   6  -5   13.30   13.20
  -4   6  -5   37.80   14.60
  -4   6  -5   24.60   10.80
  -4   6  -5   30.40    9.60
   4  -6   5   44.20   11.90
   4  -6   5   59.29   16.00
   4  -6   5   41.40    9.90
   4  -6   5   30.60   13.60
  -5   6  -5  833.42   45.70
  -5   6  -5  954.10   47.70
  -5   6  -5  903.01   42.00
  -5   6  -5  913.71   34.00
  -5   6  -5  961.00   37.40
   5  -6   5  918.81   34.50
   5  -6   5  882.11   43.90
   5  -6   5  892.21   37.40
   5  -6   5  940.21   39.00
  -6   6  -5   -1.60    9.90
  -6   6  -5  -16.10    8.30
  -6   6  -5   -7.00   15.20
  -6   6  -5    7.70   17.00
   6  -6   5    0.40    8.20
   6  -6   5   -3.60   16.50
   6  -6   5   -1.60   11.20
   6  -6   5  -23.90   15.40
  -7   6  -5    8.10   22.40
  -7   6  -5    1.40    9.50
  -7   6  -5    2.50    8.10
  -7   6  -5   22.90   20.20
   7  -6   5   34.70   22.10
   7  -6   5    1.20   12.40
   7  -6   5   12.00   23.70
   7  -6   5   15.80   10.20
   5   5  -5  123.09   24.90
   5   5  -5  103.89   26.30
   5   5  -5   86.09   14.30
  -5  -5   5   91.79   10.30
  -5  -5   5   93.79   23.50
  -5  -5   5   68.19   21.00
  -5  -5   5  108.39   21.60
   4   5  -5   86.99   15.80
   4   5  -5  108.89   18.60
   4   5  -5   75.59   21.10
   4   5  -5   76.39   20.40
  -4  -5   5   81.69   11.50
  -4  -5   5   86.09   18.50
  -4  -5   5   78.49   20.10
   3   5  -5  184.28   19.20
   3   5  -5  232.38   20.00
   3   5  -5  208.18   26.50
   3   5  -5  185.28   24.50
  -3  -5   5  203.08   24.80
  -3  -5   5  191.78   22.70
  -3  -5   5  196.48   16.40
   2   5  -5   14.40   12.40
   2   5  -5   19.90   11.10
   2   5  -5   13.90   10.70
   2   5  -5   46.90   14.40
   2   5  -5   16.40    7.60
  -2  -5   5   58.19   13.30
  -2  -5   5   12.40   10.00
  -2  -5   5   -5.40    9.70
   1   5  -5   33.20    5.90
  -1  -5   5   59.99   12.50
  -1  -5   5   50.89   12.50
  -1  -5   5   41.70   10.20
   0   5  -5  271.77   21.00
   0   5  -5  214.38   20.20
   0   5  -5  238.48   19.90
   0  -5   5  227.58   20.30
   0  -5   5  198.38   15.00
   0  -5   5  240.78   18.10
  -1   5  -5  259.17   19.40
  -1   5  -5  279.77   20.70
  -1   5  -5  277.17   21.70
  -1   5  -5  266.87   18.00
  -1   5  -5  275.77   22.80
   1  -5   5  297.17   19.40
   1  -5   5  321.67   21.40
   1  -5   5  265.67   20.50
   1  -5   5  298.67   18.70
  -2   5  -5  847.52   36.30
  -2   5  -5  776.52   36.20
  -2   5  -5  852.91   36.10
  -2   5  -5  870.41   35.40
  -2   5  -5  817.52   40.00
   2  -5   5  887.51   33.10
   2  -5   5  841.62   35.90
   2  -5   5  887.11   37.10
   2  -5   5  830.72   36.10
  -3   5  -5 1091.99   48.40
  -3   5  -5 1117.89   45.60
  -3   5  -5 1124.19   41.10
   3  -5   5 1113.89   45.00
   3  -5   5 1095.99   38.50
   3  -5   5 1074.09   34.40
   3  -5   5 1165.78   42.90
   3  -5   5 1075.69   44.70
  -4   5  -5    9.60    6.90
  -4   5  -5   23.20    8.10
  -4   5  -5   -4.00   10.50
  -4   5  -5   18.90   12.20
  -4   5  -5    3.10   10.80
   4  -5   5   19.50    8.80
   4  -5   5    7.40    8.00
   4  -5   5   34.50   13.20
   4  -5   5   23.90   11.30
   4  -5   5    6.70    6.60
  -5   5  -5  132.39   18.60
  -5   5  -5  139.89   18.10
  -5   5  -5   88.99   19.60
  -5   5  -5  141.19   21.30
  -5   5  -5  138.19   13.40
   5  -5   5  138.29   21.00
   5  -5   5  138.99   13.40
   5  -5   5  121.99   16.50
   5  -5   5  157.28   17.00
  -6   5  -5  -19.00   13.40
  -6   5  -5   11.20   20.40
   6  -5   5    7.10   15.10
   6  -5   5    4.50    9.60
   6  -5   5   15.10   16.20
   6  -5   5   27.80   20.60
   6  -5   5    5.90    8.10
  -7   5  -5   74.79   20.40
  -7   5  -5   63.59   22.90
  -7   5  -5   49.00    9.70
  -7   5  -5   40.40    9.90
   7  -5   5   17.20   21.80
   7  -5   5   67.59   12.10
   7  -5   5   69.89   13.60
   7  -5   5   60.69   21.00
   6   4  -5  208.98   30.00
   6   4  -5  144.39   30.60
   6   4  -5  137.79   24.40
  -6  -4   5  202.38   28.60
  -6  -4   5  199.88   27.20
  -6  -4   5  152.88   27.00
   5   4  -5  217.98   18.50
   5   4  -5  236.48   29.50
   5   4  -5  216.78   25.40
   5   4  -5  224.68   31.80
  -5  -4   5  232.58   30.10
  -5  -4   5  194.38   13.40
  -5  -4   5  241.78   25.70
  -5  -4   5  262.37   27.80
  -5  -4   5  193.48   24.30
   4   4  -5   46.40   14.90
   4   4  -5   52.19   14.80
   4   4  -5   54.49   14.80
   4   4  -5   45.80   12.30
  -4  -4   5   30.20    8.00
  -4  -4   5   54.69   16.10
  -4  -4   5   37.90   13.80
   3   4  -5   17.40   10.70
   3   4  -5    6.30   12.60
   3   4  -5   13.60   11.20
   3   4  -5   -0.50   11.10
   3   4  -5    5.80    8.70
  -3  -4   5    0.90    9.40
  -3  -4   5   14.60   10.30
  -3  -4   5   16.40    7.20
  -3  -4   5   41.20   12.40
   2   4  -5 1257.27   46.30
   2   4  -5 1260.17   46.90
   2   4  -5 1102.59   51.59
   2   4  -5 1160.68   39.10
   2   4  -5 1164.18   45.50
  -2  -4   5 1156.28   46.70
  -2  -4   5 1125.99   39.80
  -2  -4   5 1274.37   46.20
   1   4  -5 1429.96   51.39
   1   4  -5 1453.15   51.09
   1   4  -5 1339.77   51.49
   1   4  -5 1464.55   51.59
  -1  -4   5 1438.66   50.39
  -1  -4   5 1422.46   48.90
  -1  -4   5 1429.06   51.89
   0   4  -5  419.16   25.20
   0   4  -5  382.66   22.90
   0   4  -5  422.46   19.80
   0   4  -5  451.15   22.40
   0   4  -5  436.96   23.00
   0  -4   5  418.16   21.00
   0  -4   5  412.46   23.10
   0  -4   5  432.46   23.30
   0  -4   5  442.86   19.80
  -1   4  -5  771.72   31.90
  -1   4  -5  709.93   29.90
  -1   4  -5  727.33   30.30
  -1   4  -5  738.53   29.40
  -1   4  -5  730.43   33.70
   1  -4   5  729.83   32.20
   1  -4   5  735.73   29.60
   1  -4   5  738.43   28.50
   1  -4   5  719.13   31.00
  -2   4  -5    8.90    6.50
  -2   4  -5    0.30    5.30
  -2   4  -5    0.70    6.80
  -2   4  -5   12.60    7.60
  -2   4  -5    7.30    9.50
   2  -4   5    1.90    7.00
   2  -4   5    9.60    6.00
   2  -4   5   13.80    6.90
   2  -4   5    7.10    7.90
  -3   4  -5  136.69   17.40
  -3   4  -5  147.69   12.10
  -3   4  -5  199.78   17.00
  -3   4  -5  135.59   19.50
  -3   4  -5  138.59   12.80
   3  -4   5  146.99   13.80
   3  -4   5  163.08   11.90
   3  -4   5  150.68   17.20
   3  -4   5  154.58   16.40
  -4   4  -5  834.92   39.20
  -4   4  -5  775.12   29.10
  -4   4  -5  783.82   30.80
  -4   4  -5  774.72   35.10
  -4   4  -5  773.72   38.10
   4  -4   5  830.52   32.50
   4  -4   5  764.42   37.70
   4  -4   5  837.72   37.90
   4  -4   5  814.92   37.20
   4  -4   5  800.22   29.60
  -5   4  -5  160.98   21.70
  -5   4  -5  147.39   19.80
  -5   4  -5  161.58   13.40
   5  -4   5  177.98   21.00
   5  -4   5  154.78   13.50
   5  -4   5  126.89   15.40
   5  -4   5  128.59   21.00
  -6   4  -5  109.09   16.20
  -6   4  -5   89.59   19.80
  -6   4  -5   88.89   11.30
  -6   4  -5  119.09   23.20
   6  -4   5   85.69   19.60
   6  -4   5   98.09   12.60
   6  -4   5   90.89   13.50
  -7   4  -5    4.40    9.40
  -7   4  -5   -1.20    8.80
  -7   4  -5   17.50   19.90
  -7   4  -5    2.50   16.00
   7  -4   5    6.00   11.10
   7  -4   5    1.40   10.60
   7  -4   5  -16.10   22.00
   7  -4   5   53.69   30.60
   7  -4   5    6.40   14.20
   7  -4   5  -10.30   26.40
   7  -4   5   18.80   18.60
   6   3  -5  -13.20   24.50
   6   3  -5    8.60   16.30
   6   3  -5   -6.30   14.70
   6   3  -5   13.80   10.00
  -6  -3   5  -20.80   17.20
  -6  -3   5   -1.20   14.90
  -6  -3   5   13.70   18.60
  -6  -3   5  -36.60   12.80
   5   3  -5  125.69   20.20
   5   3  -5  146.49   19.10
   5   3  -5  150.38   20.30
   5   3  -5  112.79   15.30
   5   3  -5  164.78   24.50
  -5  -3   5  122.89   20.20
  -5  -3   5  132.59   17.00
  -5  -3   5  121.19   10.80
  -5  -3   5  132.79   18.30
  -5  -3   5  143.69   20.90
   4   3  -5  834.72   37.60
   4   3  -5  854.01   36.80
   4   3  -5  904.71   39.00
  -4  -3   5  862.31   29.50
  -4  -3   5  860.81   38.80
  -4  -3   5  900.11   36.70
  -4  -3   5  847.12   40.00
   3   3  -5   78.29   12.50
   3   3  -5   84.29   12.70
   3   3  -5   79.69   11.40
   3   3  -5  101.89   17.80
  -3  -3   5   82.49    9.50
  -3  -3   5   69.29   13.20
  -3  -3   5   87.59   13.80
   2   3  -5  690.03   30.30
   2   3  -5  651.43   28.40
   2   3  -5  612.64   24.30
   2   3  -5  598.74   28.10
  -2  -3   5  635.64   24.50
  -2  -3   5  638.94   29.50
  -2  -3   5  635.74   29.40
  -2  -3   5  648.04   26.90
   1   3  -5 1013.00   37.00
   1   3  -5 1014.80   37.60
   1   3  -5 1074.69   38.90
   1   3  -5 1019.30   32.70
  -1  -3   5  994.20   35.00
  -1  -3   5 1039.00   38.60
  -1  -3   5 1078.79   36.60
   0   3  -5  318.77   17.10
   0   3  -5  305.37   17.80
   0   3  -5  345.57   16.50
   0   3  -5  316.07   17.50
   0  -3   5  336.07   18.60
   0  -3   5  315.87   16.30
   0  -3   5  303.27   18.40
  -1   3  -5  611.14   26.00
  -1   3  -5  598.84   26.30
  -1   3  -5  610.04   24.80
  -1   3  -5  576.94   23.50
   1  -3   5  621.44   25.60
   1  -3   5  609.64   23.50
   1  -3   5  597.54   25.40
   1  -3   5  597.64   27.10
  -2   3  -5 6802.62  179.78
  -2   3  -5 6816.22  187.98
  -2   3  -5 6629.04  180.58
  -2   3  -5 6732.23  183.88
  -2   3  -5 7085.19  186.18
   2  -3   5 6816.62  185.58
   2  -3   5 6629.34  179.18
   2  -3   5 6727.93  181.88
   2  -3   5 6634.04  184.38
  -3   3  -5 1043.60   39.30
  -3   3  -5 1061.09   41.50
  -3   3  -5  992.90   34.30
  -3   3  -5  990.20   41.50
  -3   3  -5 1029.40   35.50
   3  -3   5 1059.79   40.90
   3  -3   5  990.00   34.30
   3  -3   5 1044.00   40.50
   3  -3   5  979.40   36.20
  -4   3  -5  146.69   13.20
  -4   3  -5  182.78   12.90
  -4   3  -5  147.09   18.70
  -4   3  -5  216.18   19.80
   4  -3   5  164.58   13.10
   4  -3   5  163.38   18.00
   4  -3   5  188.58   18.20
   4  -3   5  173.58   14.40
  -5   3  -5  454.75   27.90
  -5   3  -5  449.36   22.40
  -5   3  -5  479.95   22.30
  -5   3  -5  478.65   31.30
   5  -3   5  454.05   29.80
   5  -3   5  460.95   23.50
   5  -3   5  485.15   29.40
   5  -3   5  488.85   23.00
   5  -3   5  505.65   24.70
  -6   3  -5   32.70   17.90
  -6   3  -5   25.50    9.00
  -6   3  -5   21.50    9.50
  -6   3  -5   27.30   13.90
   6  -3   5   16.80   10.60
   6  -3   5   25.90   16.40
   6  -3   5    8.30    9.90
   6  -3   5   23.60   10.60
  -7   3  -5  198.48   29.60
  -7   3  -5  173.88   23.50
  -7   3  -5  210.48   20.80
   7  -3   5  175.18   27.60
   7  -3   5  141.39   17.90
   7  -3   5  149.69   19.70
   7  -3   5  173.28   21.00
   7   2  -5   38.90   24.60
   7   2  -5   46.90   16.60
   7   2  -5  102.19   33.20
   7   2  -5   80.19   17.40
  -7  -2   5   43.80   14.90
  -7  -2   5   69.69   19.10
  -7  -2   5   41.30   16.50
  -7  -2   5   49.90   18.40
   6   2  -5   77.99   20.80
   6   2  -5   93.69   25.20
   6   2  -5   98.89   17.50
  -6  -2   5   95.79   16.80
  -6  -2   5   97.99   14.20
  -6  -2   5   91.09   16.20
  -6  -2   5   81.59   19.30
  -6  -2   5  104.49    9.00
   5   2  -5  645.84   37.80
   5   2  -5  592.44   33.40
   5   2  -5  606.74   30.90
   5   2  -5  594.34   29.40
  -5  -2   5  644.64   30.90
  -5  -2   5  601.64   28.20
  -5  -2   5  574.54   22.10
  -5  -2   5  613.84   34.00
  -5  -2   5  603.24   30.90
   4   2  -5  272.97   18.70
   4   2  -5  257.37   19.20
   4   2  -5  285.47   19.90
  -4  -2   5  278.17   20.40
  -4  -2   5  275.07   14.00
  -4  -2   5  281.07   21.80
  -4  -2   5  269.07   17.50
  -4  -2   5  252.37   19.10
   3   2  -5   81.49   10.60
   3   2  -5   66.19   10.40
   3   2  -5   92.59   13.10
   3   2  -5   87.89   11.20
  -3  -2   5   66.09    8.30
  -3  -2   5   85.79   10.30
  -3  -2   5   87.79   13.70
  -3  -2   5   89.79   12.10
   2   2  -5   83.19    9.20
   2   2  -5   91.79   10.10
   2   2  -5   79.79   11.10
   2   2  -5   83.29    6.50
   2   2  -5   88.29   10.10
  -2  -2   5   79.99    8.20
  -2  -2   5  108.19   12.40
  -2  -2   5   85.49    8.90
  -2  -2   5   86.69   11.20
   1   2  -5  537.65   21.80
   1   2  -5  490.55   22.40
   1   2  -5  525.15   19.70
   1   2  -5  489.05   21.70
  -1  -2   5  495.55   20.60
  -1  -2   5  505.75   22.70
  -1  -2   5  528.25   22.90
  -1  -2   5  525.95   20.80
  -1  -2   5  543.75   19.00
   0   2  -5  775.12   27.70
   0   2  -5  771.02   28.20
   0   2  -5  779.72   28.50
   0   2  -5  791.12   29.50
   0  -2   5  770.82   27.20
   0  -2   5  813.02   28.20
   0  -2   5  775.72   29.90
   0  -2   5  765.62   29.00
  -1   2  -5  145.89   10.30
  -1   2  -5  131.09   10.50
  -1   2  -5  147.39   12.80
  -1   2  -5  144.19   12.30
   1  -2   5  144.69   10.80
   1  -2   5  141.89    9.90
   1  -2   5  160.88   11.60
   1  -2   5  157.38   13.00
  -2   2  -5 3170.58   88.79
  -2   2  -5 3192.88   88.29
  -2   2  -5 3235.48   94.69
  -2   2  -5 3117.99   91.79
   2  -2   5 3122.99   89.39
   2  -2   5 3162.08   88.19
   2  -2   5 3102.89   91.59
   2  -2   5 3149.58   89.19
   2  -2   5 3103.29   92.69
  -3   2  -5   28.70   10.20
  -3   2  -5    9.00    5.70
  -3   2  -5   16.30    8.10
  -3   2  -5   13.00    5.80
  -3   2  -5   31.60   10.20
   3  -2   5   13.20    6.30
   3  -2   5    4.50    5.50
   3  -2   5   10.00    7.80
   3  -2   5   15.80    6.00
   3  -2   5   21.40    8.40
  -4   2  -5   36.50    8.40
  -4   2  -5   44.60    8.30
  -4   2  -5   30.00   11.50
  -4   2  -5   38.00   12.40
   4  -2   5   41.00    8.90
   4  -2   5   42.80   12.40
   4  -2   5   47.50   11.50
   4  -2   5   32.00    8.10
   4  -2   5   39.00    8.30
  -5   2  -5  305.77   22.50
  -5   2  -5  344.27   27.70
  -5   2  -5  308.17   18.60
  -5   2  -5  295.27   19.70
   5  -2   5  327.17   21.10
   5  -2   5  370.26   20.40
   5  -2   5  355.76   19.20
   5  -2   5  321.57   27.70
   5  -2   5  357.36   26.50
  -6   2  -5    9.90   11.00
  -6   2  -5   -4.50   13.20
  -6   2  -5   10.50    9.50
  -6   2  -5    4.70   16.30
   6  -2   5   -4.50   12.00
   6  -2   5  -12.00   18.50
   6  -2   5   11.40   15.60
   6  -2   5    1.10    9.50
   6  -2   5   -5.20    9.20
  -7   2  -5   32.30   22.20
  -7   2  -5   -0.50   14.90
  -7   2  -5   14.10   11.10
   7  -2   5  -19.50   19.10
   7  -2   5   -1.60   11.90
   7  -2   5   -4.80   15.20
   7  -2   5    9.30   10.50
   7   1  -5   24.60   13.00
   7   1  -5   16.10   21.90
   7   1  -5   23.90   19.70
   7   1  -5   28.50   12.20
  -7  -1   5   30.80   12.70
  -7  -1   5   31.80   11.10
  -7  -1   5   43.80   15.50
  -7  -1   5   37.30   19.30
   6   1  -5  197.18   18.60
   6   1  -5  256.57   26.50
   6   1  -5  186.38   17.90
  -6  -1   5  191.08   19.10
  -6  -1   5  184.48   12.50
  -6  -1   5  189.48   23.30
  -6  -1   5  156.18   18.20
  -6  -1   5  218.08   16.40
   5   1  -5   19.20   11.60
   5   1  -5   24.30    8.20
   5   1  -5   36.30   11.50
   5   1  -5   23.60    8.50
  -5  -1   5   29.70    7.90
  -5  -1   5   24.20    6.50
  -5  -1   5   23.90   11.20
  -5  -1   5   21.60    8.60
  -5  -1   5   30.70    9.30
   4   1  -5  232.88   13.10
   4   1  -5  233.88   14.60
   4   1  -5  226.68   15.50
   4   1  -5  222.68   17.50
   4   1  -5  207.38    8.80
   4   1  -5  197.08   18.00
  -4  -1   5  202.78   17.90
  -4  -1   5  236.48   13.90
  -4  -1   5  236.98   14.50
  -4  -1   5  239.68   16.00
  -4  -1   5  212.18   12.60
   3   1  -5  528.55   21.80
   3   1  -5  566.74   21.40
   3   1  -5  535.05   22.40
   3   1  -5  518.35   23.80
  -3  -1   5  513.25   22.80
  -3  -1   5  521.95   20.70
  -3  -1   5  533.95   25.90
  -3  -1   5  507.05   22.50
  -3  -1   5  510.35   20.30
   2   1  -5 1707.13   50.29
   2   1  -5 1690.03   50.19
   2   1  -5 1596.74   50.09
   2   1  -5 1641.64   51.29
  -2  -1   5 1640.84   49.20
  -2  -1   5 1681.73   50.69
  -2  -1   5 1669.63   49.30
  -2  -1   5 1607.14   50.99
   1   1  -5  713.73   25.20
   1   1  -5  701.83   25.40
   1   1  -5  661.33   25.60
   1   1  -5  704.43   25.60
  -1  -1   5  673.83   25.90
  -1  -1   5  728.93   26.30
  -1  -1   5  703.13   24.70
  -1  -1   5  712.93   24.70
   0   1  -5  659.13   24.00
   0   1  -5  621.14   24.70
   0   1  -5  653.33   24.60
   0   1  -5  656.93   24.20
   0  -1   5  687.53   24.90
   0  -1   5  644.44   23.90
   0  -1   5  710.73   24.00
   0  -1   5  608.14   24.80
  -1   1  -5 1831.62   53.19
  -1   1  -5 1760.62   54.59
  -1   1  -5 1778.92   56.49
  -1   1  -5 1752.52   52.69
   1  -1   5 1730.53   52.49
   1  -1   5 1758.32   53.39
   1  -1   5 1777.72   53.39
   1  -1   5 1768.72   52.79
   1  -1   5 1715.63   54.89
  -2   1  -5 1837.92   55.89
  -2   1  -5 1887.01   56.39
  -2   1  -5 1801.52   61.09
  -2   1  -5 1923.31   59.19
   2  -1   5 1845.52   56.29
   2  -1   5 1865.81   58.79
   2  -1   5 1861.01   56.49
   2  -1   5 1857.11   55.59
   2  -1   5 1888.11   59.79
  -3   1  -5  254.37   18.00
  -3   1  -5  245.68   18.30
  -3   1  -5  238.68   15.10
  -3   1  -5  223.98   14.70
  -3   1  -5  249.38   19.50
   3  -1   5  313.47   19.70
   3  -1   5  222.38   15.10
   3  -1   5  272.87   15.40
   3  -1   5  227.48   17.90
  -4   1  -5 1094.79   40.40
  -4   1  -5 1102.19   39.00
  -4   1  -5 1205.68   48.30
  -4   1  -5 1118.39   46.50
  -4   1  -5 1139.89   41.80
   4  -1   5 1131.39   46.20
   4  -1   5 1102.89   45.20
   4  -1   5 1153.78   42.00
   4  -1   5 1166.28   40.20
   4  -1   5 1144.19   38.00
  -5   1  -5  193.68   19.20
  -5   1  -5  174.78   22.90
  -5   1  -5  200.38   24.60
  -5   1  -5  201.78   17.40
  -5   1  -5  241.08   19.30
   5  -1   5  196.38   23.60
   5  -1   5  185.38   17.10
   5  -1   5  244.38   21.40
   5  -1   5  243.48   15.80
  -6   1  -5   -9.00    9.70
  -6   1  -5   12.80   16.70
  -6   1  -5    0.70   11.50
  -6   1  -5   -3.10   17.20
   6  -1   5    3.60    8.40
   6  -1   5   13.10   10.80
   6  -1   5   35.10   25.70
   6  -1   5    2.30   19.40
   6  -1   5   -1.20   14.10
   6  -1   5  -16.00   15.60
   8   0  -5  745.83   53.19
   8   0  -5  692.93   53.79
   8   0  -5  685.03   31.20
   8   0  -5  715.73   32.50
  -8   0   5  711.03   27.90
  -8   0   5  732.33   42.70
   7   0  -5  112.09   14.50
   7   0  -5  102.69   13.40
  -7   0   5  115.49   14.80
  -7   0   5  112.49   12.70
  -7   0   5   88.29   17.50
  -7   0   5   99.49   21.10
   6   0  -5  121.29   12.50
   6   0  -5  136.19   19.70
   6   0  -5  136.29   11.30
   6   0  -5  113.19   18.50
   6   0  -5  115.29   13.60
   6   0  -5  109.99   11.70
  -6   0   5  154.38   14.50
  -6   0   5  123.69   18.00
  -6   0   5   99.59   14.00
  -6   0   5  101.79   12.10
  -6   0   5  139.89   11.50
   5   0  -5  587.54   22.30
   5   0  -5  623.34   31.10
   5   0  -5  575.84   24.00
   5   0  -5  603.94   23.50
   5   0  -5  544.75   21.50
  -5   0   5  521.05   24.60
  -5   0   5  519.45   28.70
  -5   0   5  589.44   23.30
  -5   0   5  566.94   24.40
  -5   0   5  576.24   21.70
   4   0  -5   -2.10    3.90
   4   0  -5    3.10    4.50
   4   0  -5    1.70    5.00
   4   0  -5  -11.30    7.20
  -4   0   5   13.10    5.10
  -4   0   5   -4.30    7.40
  -4   0   5   12.30    4.90
  -4   0   5    5.50    5.50
  -4   0   5    1.50    6.50
  -4   0   5    8.30    4.30
   3   0  -5 3012.60   83.49
   3   0  -5 3058.49   83.79
   3   0  -5 3080.49   84.69
   3   0  -5 3086.59   83.29
  -3   0   5 2948.00   83.69
  -3   0   5 3007.90   87.29
  -3   0   5 2883.11   80.79
  -3   0   5 3040.10   82.49
  -3   0   5 2928.21   83.99
  -3   0   5 2901.81   88.59
   2   0  -5  644.74   23.30
   2   0  -5  635.44   23.10
   2   0  -5  619.24   23.00
   2   0  -5  646.04   23.60
  -2   0   5  656.83   23.80
  -2   0   5  626.14   23.30
  -2   0   5  664.63   23.70
  -2   0   5  646.34   22.70
   1   0  -5 2012.50   57.29
   1   0  -5 1985.70   57.39
   1   0  -5 1980.50   57.79
  -1   0   5 1965.70   57.09
  -1   0   5 2021.50   57.49
  -1   0   5 2009.30   57.79
  -1   0   5 1974.80   57.59
  -1   0   5 1831.82   52.59
   0   0  -5 1133.59   35.10
   0   0  -5 1069.59   35.00
   0   0  -5 1100.79   35.10
   0   0  -5 1096.29   35.20
   0   0   5 1057.29   34.80
   0   0   5 1107.59   35.80
   0   0   5  998.80   32.60
   0   0   5 1045.00   34.90
   0   0   5 1066.79   35.00
  -1   0  -5 6518.35  170.08
  -1   0  -5 6402.96  170.88
  -1   0  -5 6456.55  169.48
  -1   0  -5 6373.36  170.28
  -1   0  -5 6226.38  170.18
   1   0   5 6590.74  169.38
   1   0   5 6404.66  171.48
   1   0   5 6248.67  169.68
   1   0   5 6499.25  170.78
   1   0   5 6031.00  169.68
  -2   0  -5 2269.17   67.09
  -2   0  -5 2270.87   66.09
  -2   0  -5 2208.98   68.69
   2   0   5 2277.87   64.79
   2   0   5 2075.79   68.09
   2   0   5 2259.27   69.19
   2   0   5 2202.58   65.99
   2   0   5 2229.08   67.59
  -3   0  -5  269.87   20.80
  -3   0  -5  267.77   19.80
  -3   0  -5  243.58   15.80
   3   0   5  287.97   15.50
   3   0   5  246.48   19.50
   3   0   5  250.57   16.00
   3   0   5  273.87   19.40
   3   0   5  299.37   19.70
  -4   0  -5  621.84   29.90
  -4   0  -5  592.34   26.20
  -4   0  -5  610.94   32.60
  -4   0  -5  599.74   27.00
  -4   0  -5  616.74   33.70
   4   0   5  560.34   30.60
   4   0   5  586.74   30.50
   4   0   5  550.94   32.10
   4   0   5  621.54   27.60
   4   0   5  645.74   24.50
  -5   0  -5   29.30    9.90
  -5   0  -5   32.50   13.60
  -5   0  -5   38.30   10.70
  -5   0  -5   26.80   15.50
   5   0   5   13.00   17.20
   5   0   5   43.90   15.30
   5   0   5   20.50    7.90
   5   0   5   29.00   11.10
  -6   0  -5   26.40   20.20
  -6   0  -5   21.70   13.00
  -6   0  -5   10.10   31.00
  -6   0  -5   21.70   18.60
   6   0   5   80.39   19.80
   6   0   5   21.80   30.30
   6   0   5   17.40   12.80
   6   0   5   46.10   19.40
   6   0   5   29.50    6.60
   8  -1  -5  246.18   16.60
   8  -1  -5  257.67   23.40
   8  -1  -5  253.87   15.50
   8  -1  -5  326.87   40.90
   8  -1  -5  284.97   36.70
   8  -1  -5  243.58   17.20
  -8   1   5  256.27   26.00
  -8   1   5  261.27   12.00
  -8   1   5  295.07   31.70
  -8   1   5  256.57   12.80
   7  -1  -5   35.00   17.80
   7  -1  -5    9.20    7.10
   7  -1  -5   11.70    7.10
   7  -1  -5  -10.00    9.00
   7  -1  -5    2.10    5.80
  -7   1   5   -4.20    9.90
  -7   1   5   19.40   10.80
  -7   1   5   16.10    5.10
  -7   1   5    5.60    6.00
   6  -1  -5  154.78   14.40
   6  -1  -5  166.08   12.60
   6  -1  -5  129.39   20.30
   6  -1  -5  146.59   12.10
   6  -1  -5  138.79   10.80
   6  -1  -5  139.59   20.60
  -6   1   5  180.08   19.70
  -6   1   5  139.69   14.10
  -6   1   5  136.69   15.30
  -6   1   5  145.59    9.60
   5  -1  -5 2871.91   89.39
   5  -1  -5 2799.92   77.49
   5  -1  -5 2787.62   78.29
   5  -1  -5 2808.92   80.49
   5  -1  -5 2833.52   79.59
   5  -1  -5 2876.81   89.09
  -5   1   5 2746.33   86.09
  -5   1   5 2847.62   81.19
  -5   1   5 2634.74   77.89
  -5   1   5 2740.43   76.19
  -5   1   5 2689.83   81.19
  -5   1   5 2827.32   87.89
   4  -1  -5   92.99    9.00
   4  -1  -5   86.89    8.10
   4  -1  -5   92.49    8.20
  -4   1   5   92.09   12.50
  -4   1   5   80.19    7.60
  -4   1   5   97.09   10.90
  -4   1   5  113.59   13.00
  -4   1   5  100.69    8.10
   3  -1  -5  131.79    9.10
   3  -1  -5  122.39    8.50
   3  -1  -5  130.89    9.80
   3  -1  -5  139.19    9.20
  -3   1   5  123.79   12.30
  -3   1   5  137.99   10.90
  -3   1   5  122.59    8.70
  -3   1   5  123.49    9.60
  -3   1   5  124.39   11.20
   2  -1  -5   99.59    8.00
   2  -1  -5   87.39    7.90
   2  -1  -5   93.89    7.00
   2  -1  -5  108.49    9.00
  -2   1   5   75.79    7.50
  -2   1   5   97.79    8.20
  -2   1   5   88.79    7.00
  -2   1   5   82.09    9.00
   1  -1  -5 5558.04  150.58
   1  -1  -5 5516.95  150.08
   1  -1  -5 5455.15  148.29
   1  -1  -5 5866.91  151.18
  -1   1   5 5676.03  151.58
  -1   1   5 5709.23  150.48
  -1   1   5 5718.73  151.08
  -1   1   5 5650.23  149.09
   0  -1  -5  695.93   25.30
   0  -1  -5  676.73   23.40
   0  -1  -5  659.03   24.40
   0   1   5  658.03   24.70
   0   1   5  672.83   26.10
   0   1   5  674.43   25.10
   0   1   5  638.14   25.00
  -1  -1  -5   91.69    9.30
  -1  -1  -5  100.99   11.00
  -1  -1  -5  114.39   11.70
  -1  -1  -5   87.49    9.60
   1   1   5   87.69    9.60
   1   1   5  121.19   10.90
   1   1   5   95.59    9.70
   1   1   5  100.59   11.50
   1   1   5   87.79   10.10
  -2  -1  -5 1471.65   49.90
  -2  -1  -5 1474.55   48.20
  -2  -1  -5 1496.75   50.69
  -2  -1  -5 1452.15   45.50
   2   1   5 1482.95   46.50
   2   1   5 1493.25   50.19
   2   1   5 1449.55   50.69
   2   1   5 1438.26   50.09
   2   1   5 1452.55   48.10
  -3  -1  -5   59.49   12.40
  -3  -1  -5   74.09   13.60
  -3  -1  -5   66.89   11.20
   3   1   5   50.69   12.60
   3   1   5   60.19   10.10
   3   1   5   69.89   12.40
   3   1   5   61.49    9.10
  -4  -1  -5  565.14   27.70
  -4  -1  -5  506.65   32.10
  -4  -1  -5  542.95   32.00
  -4  -1  -5  479.05   29.80
   4   1   5  462.15   21.80
   4   1   5  507.05   32.10
   4   1   5  503.55   30.30
   4   1   5  517.95   27.00
  -5  -1  -5  662.13   39.70
  -5  -1  -5  573.04   38.00
  -5  -1  -5  578.14   37.30
  -5  -1  -5  572.44   30.90
   5   1   5  573.44   38.90
   5   1   5  610.14   37.50
   5   1   5  608.24   45.20
   5   1   5  536.45   21.70
   5   1   5  630.44   32.20
   9  -2  -5  180.78   16.80
   9  -2  -5  166.98   24.00
   8  -2  -5  317.77   13.50
   8  -2  -5  421.26   39.90
   8  -2  -5  332.07   14.50
   8  -2  -5  332.27   28.10
   8  -2  -5  358.16   19.90
  -8   2   5  292.47   27.90
   7  -2  -5  343.87   19.70
   7  -2  -5  407.16   25.40
   7  -2  -5  371.86   31.30
   7  -2  -5  371.56   16.40
   7  -2  -5  424.46   23.80
  -7   2   5  407.46   25.70
  -7   2   5  380.86   28.40
   6  -2  -5  100.19   12.50
   6  -2  -5   99.89    9.30
   6  -2  -5   91.19    8.20
   6  -2  -5  103.79   14.50
   6  -2  -5   93.49   17.40
   6  -2  -5   91.49   17.20
   6  -2  -5  108.89   12.80
  -6   2   5  108.69   16.80
  -6   2   5   93.19    7.00
  -6   2   5   99.99    8.10
  -6   2   5  120.69   17.00
   5  -2  -5   86.59   14.80
   5  -2  -5  105.79   11.00
   5  -2  -5  116.29    9.80
   5  -2  -5   95.09    8.10
   5  -2  -5  104.39    8.40
  -5   2   5   98.69    7.80
  -5   2   5   99.79   12.60
  -5   2   5  118.39   14.30
  -5   2   5  110.39   15.00
   4  -2  -5  259.57   11.80
   4  -2  -5  267.97   11.40
   4  -2  -5  255.67   12.30
   4  -2  -5  232.78   12.30
   4  -2  -5  261.97   15.10
  -4   2   5  264.07   17.20
  -4   2   5  273.97   16.90
  -4   2   5  261.77   12.70
  -4   2   5  245.68   12.50
  -4   2   5  250.87   18.20
   3  -2  -5  838.72   28.60
   3  -2  -5  829.52   27.70
   3  -2  -5  887.11   30.90
   3  -2  -5  824.42   23.50
   3  -2  -5  807.62   24.50
  -3   2   5  842.12   28.60
  -3   2   5  836.92   31.70
  -3   2   5  867.91   32.00
  -3   2   5  819.12   27.80
   2  -2  -5    7.30    4.20
   2  -2  -5    9.10    4.80
   2  -2  -5   11.30    2.80
  -2   2   5   10.00    6.10
  -2   2   5    8.30    3.20
  -2   2   5    6.70    4.60
  -2   2   5   11.70    4.80
   1  -2  -5  760.32   24.20
   1  -2  -5  730.43   27.40
   1  -2  -5  737.73   27.40
   1  -2  -5  758.62   28.50
  -1   2   5  727.43   27.20
  -1   2   5  757.32   25.10
  -1   2   5  785.32   29.20
  -1   2   5  729.23   29.00
   0  -2  -5  873.11   33.20
   0  -2  -5  890.41   32.20
   0  -2  -5  867.51   30.60
   0  -2  -5  913.51   30.40
   0   2   5  888.21   32.60
   0   2   5  834.02   31.60
   0   2   5  864.01   33.80
   0   2   5  870.41   30.30
  -1  -2  -5 1183.08   38.80
  -1  -2  -5 1188.88   43.20
  -1  -2  -5 1271.37   42.10
  -1  -2  -5 1205.58   41.80
   1   2   5 1131.09   43.80
   1   2   5 1216.18   40.90
   1   2   5 1168.08   41.50
   1   2   5 1178.78   41.00
  -2  -2  -5 1372.76   48.30
  -2  -2  -5 1290.57   46.20
  -2  -2  -5 1371.46   49.10
  -2  -2  -5 1276.07   41.70
   2   2   5 1293.87   46.90
   2   2   5 1342.07   50.39
   2   2   5 1311.27   44.00
   2   2   5 1250.27   45.80
  -3  -2  -5   -3.20    8.30
  -3  -2  -5   11.20   19.10
  -3  -2  -5   -0.60    5.80
  -3  -2  -5    4.60    9.50
   3   2   5   -2.50    7.10
   3   2   5   -7.80   12.20
   3   2   5   17.20    9.20
   3   2   5   -1.10    9.70
  -4  -2  -5    2.20   14.50
  -4  -2  -5    3.10   11.90
  -4  -2  -5    5.40   11.00
  -4  -2  -5    5.50   14.90
   4   2   5    5.50   13.10
   4   2   5   29.20   17.20
  -5  -2  -5  134.59   19.90
  -5  -2  -5   78.49   24.20
  -5  -2  -5   95.49   24.40
  -5  -2  -5   57.19   21.80
   5   2   5   95.39   26.20
   5   2   5  124.69   32.70
   5   2   5  101.89   18.00
   5   2   5   95.89   21.00
   9  -3  -5   42.70   33.00
   9  -3  -5   77.19   33.50
   9  -3  -5  118.69   22.10
   9  -3  -5  124.69   15.50
   9  -3  -5   73.49   22.30
   8  -3  -5  153.48   25.90
   8  -3  -5  266.67   34.40
   8  -3  -5  230.18   27.90
   8  -3  -5  211.88   21.90
   8  -3  -5  226.08   19.30
   7  -3  -5   71.49   12.40
   7  -3  -5   57.39    6.60
   7  -3  -5   52.79   11.80
   7  -3  -5   40.80   18.90
   7  -3  -5   62.79   17.80
   7  -3  -5   60.69    6.20
  -7   3   5   48.50   14.20
   6  -3  -5 2932.31   86.69
   6  -3  -5 2882.81   78.79
   6  -3  -5 2930.71   84.69
   6  -3  -5 2935.31   92.99
   6  -3  -5 2966.00   90.19
  -6   3   5 2985.10   88.49
  -6   3   5 2733.83   77.29
  -6   3   5 2938.41   90.89
  -6   3   5 2834.22   77.29
  -6   3   5 3014.30   93.49
   5  -3  -5  419.66   18.30
   5  -3  -5  423.16   16.60
   5  -3  -5  420.66   21.80
  -5   3   5  423.86   25.60
  -5   3   5  441.76   23.50
  -5   3   5  415.36   22.00
  -5   3   5  417.26   17.00
  -5   3   5  427.76   24.30
   4  -3  -5   16.70    6.90
   4  -3  -5   12.40    4.80
   4  -3  -5   21.60    5.40
   4  -3  -5   17.00    4.40
  -4   3   5   17.50    7.80
  -4   3   5   21.10    5.20
  -4   3   5    6.00    7.90
  -4   3   5   27.70    9.50
  -4   3   5   16.60    5.50
  -4   3   5   19.50    7.00
   3  -3  -5  815.02   29.40
   3  -3  -5  784.12   31.10
   3  -3  -5  793.82   28.20
  -3   3   5  812.52   29.70
  -3   3   5  787.22   33.20
  -3   3   5  830.12   30.30
  -3   3   5  817.92   28.10
  -3   3   5  792.72   30.70
   2  -3  -5  869.51   32.80
   2  -3  -5  882.41   31.70
   2  -3  -5  939.81   33.60
  -2   3   5  876.61   33.30
  -2   3   5  895.71   31.50
  -2   3   5  914.71   35.80
  -2   3   5  887.91   26.80
   1  -3  -5  516.45   22.60
   1  -3  -5  523.85   24.50
   1  -3  -5  498.85   22.40
  -1   3   5  489.75   22.50
  -1   3   5  500.35   24.50
  -1   3   5  499.65   25.30
  -1   3   5  495.05   19.20
   0  -3  -5  890.51   32.30
   0  -3  -5  956.10   41.70
   0  -3  -5  866.61   34.50
   0  -3  -5  906.41   32.80
   0   3   5  948.41   43.80
   0   3   5  864.61   34.00
   0   3   5  861.41   31.70
   0   3   5  881.71   35.10
  -1  -3  -5 1420.16   45.80
  -1  -3  -5 1477.15   50.39
  -1  -3  -5 1428.36   50.39
  -1  -3  -5 1399.96   52.09
   1   3   5 1462.15   54.29
   1   3   5 1374.76   48.50
  -2  -3  -5  430.96   25.80
  -2  -3  -5  433.06   28.80
  -2  -3  -5  373.86   24.10
  -2  -3  -5  432.06   20.00
   2   3   5  398.86   22.90
  -3  -3  -5   22.70    8.10
  -3  -3  -5  -14.50   10.50
  -3  -3  -5   27.90   12.70
   3   3   5    4.40   15.30
   3   3   5    0.40   11.50
   3   3   5   44.30   18.40
  -4  -3  -5  378.76   41.20
  -4  -3  -5  478.05   31.70
  -4  -3  -5  572.44   38.30
  -4  -3  -5  515.35   35.90
   4   3   5  408.36   42.20
   4   3   5  448.86   40.60
   4   3   5  497.45   34.40
   4   3   5  479.25   32.50
   9  -4  -5    8.40   14.00
   9  -4  -5   14.00   17.40
   9  -4  -5   32.80   24.20
   9  -4  -5    0.20   13.20
   9  -4  -5   17.60   27.10
   8  -4  -5  410.96   26.70
   8  -4  -5  418.36   24.50
   8  -4  -5  396.96   35.50
   8  -4  -5  429.46   37.10
   8  -4  -5  471.15   29.30
  -8   4   5  399.96   26.10
   7  -4  -5  113.39   20.50
   7  -4  -5  143.99    8.30
   7  -4  -5  152.98   22.20
   7  -4  -5  142.19    7.90
   7  -4  -5  136.49   17.40
   7  -4  -5  187.48   17.20
   7  -4  -5  149.88   13.20
  -7   4   5  135.39   16.40
  -7   4   5  153.38   19.60
  -7   4   5  155.18   20.90
   6  -4  -5   90.19    8.50
   6  -4  -5   88.79    9.20
   6  -4  -5   81.89   13.70
   6  -4  -5   73.59    7.80
   6  -4  -5   99.49   12.50
   6  -4  -5  101.49   16.20
  -6   4   5   83.19   13.80
  -6   4   5   89.59    7.30
  -6   4   5   88.59   13.30
  -6   4   5   65.99   15.50
  -6   4   5   79.39    8.30
   5  -4  -5 1792.52   54.49
   5  -4  -5 1873.21   61.39
   5  -4  -5 1858.41   55.59
   5  -4  -5 1857.91   53.19
  -5   4   5 1735.83   60.49
  -5   4   5 1853.81   58.59
  -5   4   5 1746.93   52.39
  -5   4   5 1824.12   64.69
  -5   4   5 1826.02   54.69
   4  -4  -5   41.80    7.20
   4  -4  -5   38.70   10.20
   4  -4  -5   37.30    7.90
  -4   4   5   43.50   10.00
  -4   4   5   45.80    8.10
  -4   4   5   44.40    7.90
  -4   4   5   47.00    7.40
   3  -4  -5  790.32   33.50
   3  -4  -5  817.82   30.60
   3  -4  -5  807.92   32.00
  -3   4   5  819.52   33.10
  -3   4   5  841.42   29.60
  -3   4   5  801.92   35.20
  -3   4   5  857.01   33.30
  -3   4   5  846.22   30.50
   2  -4  -5    7.40    6.20
   2  -4  -5    8.80    6.10
   2  -4  -5    1.10    6.90
  -2   4   5    1.50    3.40
  -2   4   5   -1.40    7.50
  -2   4   5   -9.40    8.40
  -2   4   5    5.40    6.30
  -2   4   5    1.90    5.90
   1  -4  -5  799.32   34.20
   1  -4  -5  769.62   32.10
   1  -4  -5  760.12   31.20
  -1   4   5  715.93   33.70
  -1   4   5  769.62   35.90
   0  -4  -5  654.33   28.80
   0  -4  -5  647.24   27.40
   0  -4  -5  641.14   30.40
   0  -4  -5  616.94   32.10
   0   4   5  653.73   33.60
   0   4   5  618.04   30.60
  -1  -4  -5 1440.76   52.49
  -1  -4  -5 1409.96   51.29
  -1  -4  -5 1331.87   46.00
  -1  -4  -5 1351.16   54.19
   1   4   5 1386.66   56.89
  -2  -4  -5  796.82   38.60
  -2  -4  -5  843.12   38.90
  -2  -4  -5  799.72   30.80
   2   4   5  717.63   44.30
   2   4   5  790.62   38.80
  -3  -4  -5   75.39   18.50
  -3  -4  -5   91.09   18.70
  -3  -4  -5   61.69   10.70
  -3  -4  -5   37.50   22.30
   3   4   5   86.79   22.50
   3   4   5  120.59   27.40
   9  -5  -5  152.68   23.20
   9  -5  -5  103.09   29.20
   9  -5  -5  128.89   20.20
   9  -5  -5  154.88   32.20
   9  -5  -5  149.39   18.90
  -9   5   5  167.58   22.40
   8  -5  -5  339.27   26.50
   8  -5  -5  326.47   36.00
   8  -5  -5  357.96   21.30
   8  -5  -5  324.57   33.70
   8  -5  -5  404.26   27.80
  -8   5   5  350.46   25.70
   7  -5  -5   56.99   14.40
   7  -5  -5   67.69    7.70
   7  -5  -5   81.49   18.30
   7  -5  -5   73.99    9.50
   7  -5  -5   43.20   11.60
   7  -5  -5   58.19   11.30
  -7   5   5   57.59   16.10
  -7   5   5   66.09   14.00
   6  -5  -5   18.60    8.70
   6  -5  -5   16.00    6.60
   6  -5  -5   19.70    5.60
   6  -5  -5   47.90   13.00
  -6   5   5   21.00   11.20
  -6   5   5   13.50    9.70
  -6   5   5   18.30   12.40
  -6   5   5   28.80    7.20
   5  -5  -5  512.45   29.00
   5  -5  -5  507.65   23.70
   5  -5  -5  542.25   22.20
  -5   5   5  527.35   21.90
  -5   5   5  519.35   31.20
  -5   5   5  513.05   24.30
  -5   5   5  513.95   28.20
  -5   5   5  534.65   23.90
   4  -5  -5   96.79   12.50
   4  -5  -5  127.19   16.10
   4  -5  -5   91.89   11.50
  -4   5   5   59.89    8.60
  -4   5   5   71.99   13.30
  -4   5   5   96.19   11.70
   3  -5  -5  421.36   24.10
   3  -5  -5  478.25   23.60
   3  -5  -5  505.05   26.80
  -3   5   5  360.16   16.80
  -3   5   5  429.26   12.90
  -3   5   5  437.86   24.40
  -3   5   5  476.95   23.00
  -3   5   5  426.56   12.80
  -3   5   5  487.65   26.70
   2  -5  -5  686.43   31.60
   2  -5  -5  662.43   30.60
   2  -5  -5  617.64   31.80
  -2   5   5  661.33   29.80
  -2   5   5  672.43   33.80
   1  -5  -5  590.14   28.50
   1  -5  -5  591.44   30.30
   1  -5  -5  596.24   32.90
  -1   5   5  637.64   34.90
   0  -5  -5   58.39   14.70
   0  -5  -5   69.29   13.10
   0  -5  -5   40.80   11.80
   0  -5  -5   57.49   11.50
   0   5   5   67.19   13.30
   0   5   5   54.49   17.80
   0   5   5   64.69   11.00
  -1  -5  -5  161.48   19.50
  -1  -5  -5  155.98   23.60
  -1  -5  -5  145.49   16.20
  -1  -5  -5  196.98   22.70
   1   5   5  155.98   18.80
   1   5   5  211.68   22.40
   1   5   5  135.39   25.30
  -2  -5  -5  733.53   48.40
  -2  -5  -5  710.83   59.19
  -2  -5  -5  747.33   31.80
  -2  -5  -5  777.02   41.10
   2   5   5  801.12   53.69
   2   5   5  686.43   41.30
   8  -6  -5   29.10   25.00
   8  -6  -5   40.50   20.00
   8  -6  -5   45.00    7.80
   8  -6  -5   31.20   17.20
   8  -6  -5   52.49   16.20
  -8   6   5   60.39   20.30
  -8   6   5   67.09   17.00
   7  -6  -5   21.80    7.90
   7  -6  -5    1.40   18.70
   7  -6  -5   13.90   14.00
   7  -6  -5   10.20    6.20
  -7   6   5    0.50   12.20
  -7   6   5    7.00    6.30
  -7   6   5   -5.80   14.60
  -7   6   5   10.40    5.00
   6  -6  -5  954.60   33.80
   6  -6  -5 1027.90   45.40
   6  -6  -5  941.51   36.40
  -6   6   5 1003.10   46.60
  -6   6   5  955.60   32.90
  -6   6   5  856.81   42.30
   5  -6  -5  302.67   18.40
   5  -6  -5  251.27   23.80
   5  -6  -5  222.08   19.00
  -5   6   5  254.57   21.90
  -5   6   5  275.17   17.70
  -5   6   5  240.58   24.90
  -5   6   5  285.67   21.50
   4  -6  -5   -4.80    9.40
   4  -6  -5    2.70   10.80
   4  -6  -5    0.40    7.90
  -4   6   5    8.20   11.50
  -4   6   5   -7.80    7.20
  -4   6   5    5.10    9.90
   3  -6  -5    6.70    8.70
   3  -6  -5    9.70   11.10
   3  -6  -5    2.30    9.30
  -3   6   5   -5.40    4.40
  -3   6   5    0.80   12.90
  -3   6   5    6.20    8.30
  -3   6   5    4.90    4.00
   2  -6  -5  258.87   21.70
   2  -6  -5  247.38   21.20
   2  -6  -5  257.57   25.90
  -2   6   5  253.77   19.70
  -2   6   5  246.78   11.30
  -2   6   5  300.57   22.70
   1  -6  -5  539.05   35.40
   1  -6  -5  504.35   30.60
   1  -6  -5  513.75   28.50
  -1   6   5  527.25   37.20
  -1   6   5  505.15   30.40
  -1   6   5  473.65   21.20
  -1   6   5  456.65   25.90
   0  -6  -5   81.69   16.10
   0  -6  -5   69.79   20.40
   0  -6  -5   49.90   12.80
   0  -6  -5   73.29   17.40
   0   6   5   16.20   13.00
   0   6   5   30.10   23.50
   0   6   5   51.69   12.40
  -1  -6  -5   75.19   20.10
  -1  -6  -5   60.79   13.80
  -1  -6  -5   50.79   20.20
  -1  -6  -5   96.59   24.00
   1   6   5   56.49   18.00
   1   6   5   73.79   19.70
   1   6   5   83.69   27.30
   8  -7  -5  368.96   35.50
   8  -7  -5  430.06   48.90
   8  -7  -5  434.16   17.90
   8  -7  -5  478.95   34.10
   8  -7  -5  392.16   20.40
  -8   7   5  468.55   39.80
  -8   7   5  432.06   34.60
   7  -7  -5   65.69   17.30
   7  -7  -5   56.59   19.90
   7  -7  -5   36.20    8.90
   7  -7  -5   50.49   11.90
  -7   7   5   30.90    9.50
  -7   7   5   20.40   10.70
  -7   7   5   43.90   16.80
  -7   7   5   27.70   22.10
   6  -7  -5  795.22   36.90
   6  -7  -5  818.32   33.30
  -6   7   5  819.42   32.80
  -6   7   5  887.91   38.00
  -6   7   5  862.11   45.20
  -6   7   5  794.82   41.70
   5  -7  -5    5.20   10.10
   5  -7  -5   -8.00   12.80
   5  -7  -5   29.90   19.60
  -5   7   5   16.90   13.10
  -5   7   5  -11.30   13.40
  -5   7   5    9.10    9.70
  -5   7   5   -8.40   14.50
   4  -7  -5  239.18   25.80
   4  -7  -5  246.98   26.00
   4  -7  -5  266.77   22.00
   3  -7  -5  734.73   37.20
   3  -7  -5  712.83   38.40
   3  -7  -5  729.23   40.00
  -3   7   5  696.23   26.20
  -3   7   5  697.03   35.40
   2  -7  -5   86.69   18.50
   2  -7  -5  112.69   21.80
   2  -7  -5   57.49   16.80
  -2   7   5   96.39   14.40
  -2   7   5  104.59   17.30
  -2   7   5   96.49   18.00
   1  -7  -5  -15.60   18.20
   1  -7  -5   -7.70   13.30
   1  -7  -5    7.40   14.90
  -1   7   5  -10.90   23.50
  -1   7   5   -7.20   14.40
  -1   7   5   -6.20    6.60
   0  -7  -5   33.30   18.80
   0  -7  -5    4.80   15.50
   0  -7  -5   17.90   15.30
   0  -7  -5   -3.60   27.90
   0   7   5    9.60   17.50
   0   7   5   15.50   12.70
   0   7   5   58.39   30.10
   7  -8  -5   -5.30   18.30
   7  -8  -5   17.60   13.90
   7  -8  -5  -17.60   17.90
  -7   8   5    5.90   10.30
  -7   8   5   25.10   15.90
  -7   8   5   46.40   21.30
   6  -8  -5  103.59   15.70
   6  -8  -5  140.89   20.30
   6  -8  -5   63.59   21.10
  -6   8   5   98.59   22.40
  -6   8   5  100.49   15.40
  -6   8   5  141.39   30.70
  -6   8   5  110.79   20.50
   5  -8  -5  488.95   34.10
   5  -8  -5  487.15   35.20
   5  -8  -5  464.55   29.80
  -5   8   5  558.54   31.20
  -5   8   5  561.14   40.30
  -5   8   5  528.45   40.50
  -5   8   5  480.65   32.10
   4  -8  -5   15.50   16.10
   4  -8  -5   11.60   19.40
   4  -8  -5   23.20   14.50
  -4   8   5   20.40   13.70
  -4   8   5   29.70   21.50
   3  -8  -5  168.78   22.70
   3  -8  -5  184.78   28.60
   3  -8  -5  184.98   25.60
  -3   8   5  145.79   29.20
  -3   8   5  141.49   21.40
  -3   8   5  141.09   17.80
   2  -8  -5   36.50   26.30
   2  -8  -5    4.90   16.90
   2  -8  -5   21.30   17.10
  -2   8   5   19.60   13.90
  -2   8   5   25.90   15.50
  -2   8   5    6.80   17.90
  -2   9  -6   -0.60   21.90
  -2   9  -6   25.80   22.10
  -2   9  -6   24.80   25.70
   2  -9   6   -3.80   20.20
   2  -9   6    3.10   15.50
   2  -9   6  -21.60   19.40
  -3   9  -6   22.90   17.90
  -3   9  -6   42.40   26.00
  -3   9  -6    4.80   22.10
   3  -9   6   12.50   20.90
   3  -9   6   -3.50   25.60
   3  -9   6    8.70   18.90
   1   8  -6  308.27   37.70
   1   8  -6  435.66   41.80
   1   8  -6  398.36   45.20
   1   8  -6  324.07   31.30
  -1  -8   6  385.66   41.40
  -1  -8   6  388.36   30.80
  -1  -8   6  374.86   25.60
  -1  -8   6  308.17   39.20
   0   8  -6    9.60   22.30
   0   8  -6   55.79   21.60
   0   8  -6   73.29   25.80
   0   8  -6   67.39   21.20
   0  -8   6   55.19   21.20
   0  -8   6   62.39   23.30
   0  -8   6   70.29   16.60
   0  -8   6   69.19   16.70
  -1   8  -6    1.20   16.80
  -1   8  -6   -5.70   17.20
  -1   8  -6  -10.70   20.40
  -1   8  -6  -22.90   17.50
   1  -8   6  -16.80   14.70
   1  -8   6   25.40   19.00
   1  -8   6    5.70   13.20
   1  -8   6   16.50   17.70
  -2   8  -6   75.79   20.00
  -2   8  -6   43.90   21.00
  -2   8  -6   36.10   25.80
   2  -8   6   69.69   17.50
   2  -8   6   46.20   19.10
   2  -8   6   32.20   19.00
  -3   8  -6  -26.80   11.20
  -3   8  -6  -11.30   16.20
  -3   8  -6   -8.10   15.60
   3  -8   6    2.40   16.10
   3  -8   6   -2.30   17.10
   3  -8   6    2.20   14.70
  -4   8  -6   -8.40   14.40
  -4   8  -6   32.30   20.30
  -4   8  -6    5.30   16.00
   4  -8   6  -23.50   20.70
   4  -8   6    7.50   14.20
   4  -8   6    2.40   16.20
   4  -8   6   11.70   29.10
  -5   8  -6   -3.10   16.30
  -5   8  -6   28.70   16.10
  -5   8  -6    8.40   20.00
  -5   8  -6   12.80   20.60
   5  -8   6  -19.00   18.10
   5  -8   6   13.30   13.70
   5  -8   6  -70.89   26.10
   5  -8   6   -4.30   17.80
   2   7  -6   64.89   12.60
   2   7  -6   58.29   20.90
   2   7  -6   73.29   27.30
   2   7  -6   57.19   24.60
   2   7  -6   45.30   17.80
  -2  -7   6   14.70   19.40
  -2  -7   6   40.80   17.20
  -2  -7   6   59.59   27.10
   1   7  -6  136.29   25.40
   1   7  -6  128.79   23.70
   1   7  -6  145.29   24.20
   1   7  -6  114.09   21.80
  -1  -7   6  177.78   22.80
  -1  -7   6  157.88   23.00
  -1  -7   6  159.98   17.70
  -1  -7   6  151.78   24.80
   0   7  -6  523.15   35.00
   0   7  -6  428.56   33.30
   0   7  -6  503.35   34.90
   0  -7   6  541.35   30.70
   0  -7   6  515.75   37.20
   0  -7   6  547.15   33.60
   0  -7   6  539.25   28.60
  -1   7  -6   99.59   20.70
  -1   7  -6  109.79   19.10
  -1   7  -6  104.69   20.90
   1  -7   6   90.69   18.80
   1  -7   6  117.99   18.50
  -2   7  -6  121.19   20.00
  -2   7  -6   66.19   16.30
  -2   7  -6   69.79   18.10
   2  -7   6   99.39   19.40
   2  -7   6   73.89   17.70
   2  -7   6   93.89   18.60
   2  -7   6   75.89   17.80
  -3   7  -6  190.88   25.20
  -3   7  -6  195.08   25.00
  -3   7  -6  191.08   24.80
   3  -7   6  211.98   25.70
   3  -7   6  187.78   23.60
   3  -7   6  181.38   23.80
   3  -7   6  217.58   21.60
  -4   7  -6  213.28   23.70
  -4   7  -6  208.48   26.90
  -4   7  -6  154.68   27.10
   4  -7   6  249.88   21.30
   4  -7   6  171.08   21.80
   4  -7   6  157.38   24.00
  -5   7  -6  352.66   28.40
  -5   7  -6  321.67   37.20
  -5   7  -6  342.07   34.60
  -5   7  -6  331.57   32.80
   5  -7   6  369.86   36.80
   5  -7   6  381.86   34.10
   5  -7   6  294.47   23.20
   5  -7   6  376.66   31.60
  -6   7  -6  371.56   36.40
  -6   7  -6  260.87   30.30
  -6   7  -6  359.36   38.80
  -6   7  -6  300.07   28.80
   6  -7   6  308.57   30.40
   6  -7   6  334.27   35.90
   6  -7   6  319.57   30.60
   6  -7   6  324.57   24.10
   4   6  -6   97.19   22.70
   4   6  -6   38.70   17.00
   4   6  -6   59.19   23.10
   4   6  -6   83.89   26.30
  -4  -6   6   41.80   23.90
  -4  -6   6   36.50   19.90
  -4  -6   6   41.10   20.30
   3   6  -6   56.19   15.20
   3   6  -6   69.39   24.10
   3   6  -6   71.39   20.50
   3   6  -6  102.49   19.10
   3   6  -6   68.59   22.60
  -3  -6   6   88.59   18.70
  -3  -6   6   98.49   15.60
  -3  -6   6   78.79   20.80
  -3  -6   6  109.49   24.20
   2   6  -6 2162.28   76.59
   2   6  -6 1833.62   71.29
   2   6  -6 1950.20   61.19
   2   6  -6 2070.99   74.89
  -2  -6   6 2049.79   71.09
  -2  -6   6 2011.60   76.39
  -2  -6   6 1964.90   71.69
   1   6  -6 1235.98   54.49
   1   6  -6 1335.87   54.79
   1   6  -6 1279.97   53.59
   1   6  -6 1335.07   55.69
  -1  -6   6 1294.67   51.39
  -1  -6   6 1284.77   42.70
  -1  -6   6 1318.07   51.09
  -1  -6   6 1312.47   56.09
   0   6  -6   44.40   13.90
   0   6  -6   49.00   13.40
   0   6  -6   33.40   12.40
   0   6  -6   27.60   14.70
   0  -6   6   23.40   11.10
   0  -6   6  -11.50   11.20
   0  -6   6   29.80   11.70
   0  -6   6   19.10    9.80
  -1   6  -6  926.41   41.10
  -1   6  -6  821.52   43.90
  -1   6  -6  834.92   40.10
  -1   6  -6  864.41   38.40
   1  -6   6  864.91   41.80
   1  -6   6  886.71   41.00
   1  -6   6  889.61   37.70
   1  -6   6  842.62   36.30
  -2   6  -6   34.20   14.10
  -2   6  -6   12.90   10.70
  -2   6  -6    0.00   13.20
  -2   6  -6   19.10   11.00
  -2   6  -6   33.20   12.50
   2  -6   6   29.00   10.20
   2  -6   6   17.80   11.50
   2  -6   6    0.50   11.40
   2  -6   6    6.20   12.00
  -3   6  -6  689.53   37.00
  -3   6  -6  691.23   31.60
  -3   6  -6  729.23   34.30
  -3   6  -6  725.73   41.30
  -3   6  -6  666.43   36.40
   3  -6   6  729.43   36.40
   3  -6   6  736.43   37.80
   3  -6   6  715.43   31.20
   3  -6   6  710.83   37.40
  -4   6  -6  140.89   20.00
  -4   6  -6  149.99   21.10
  -4   6  -6  166.68   19.00
  -4   6  -6  173.78   17.40
  -4   6  -6  138.19   23.60
   4  -6   6  175.98   17.20
   4  -6   6  136.79   18.50
   4  -6   6  155.48   14.60
   4  -6   6  160.78   22.40
   4  -6   6  145.39   21.60
  -5   6  -6  185.38   18.10
  -5   6  -6  175.88   21.20
  -5   6  -6  167.58   26.90
   5  -6   6  213.38   18.50
   5  -6   6  220.58   41.50
   5  -6   6  190.98   23.10
   5  -6   6  170.28   20.50
   5  -6   6  214.28   27.00
  -6   6  -6  191.88   19.50
  -6   6  -6  271.97   30.40
  -6   6  -6  200.68   30.70
   6  -6   6  245.68   20.00
   6  -6   6  180.78   30.40
   6  -6   6  193.18   28.80
   6  -6   6  237.78   25.30
   6  -6   6  285.77   32.10
   5   5  -6   95.99   17.50
   5   5  -6  112.09   26.40
   5   5  -6  144.59   24.90
   5   5  -6   57.19   22.20
  -5  -5   6   97.99   21.10
  -5  -5   6  107.19   25.20
  -5  -5   6  137.79   24.70
  -5  -5   6   99.99   13.30
   4   5  -6  244.88   30.70
   4   5  -6  230.88   28.90
   4   5  -6  266.07   23.70
  -4  -5   6  244.78   31.10
  -4  -5   6  256.97   19.20
  -4  -5   6  213.58   26.20
   3   5  -6  350.66   30.10
   3   5  -6  255.97   27.20
   3   5  -6  307.27   22.20
   3   5  -6  280.07   24.30
  -3  -5   6  343.37   26.50
  -3  -5   6  340.37   29.50
  -3  -5   6  325.97   21.50
   2   5  -6  342.07   27.00
   2   5  -6  348.27   26.20
   2   5  -6  378.56   19.60
   2   5  -6  393.06   27.90
  -2  -5   6  404.16   29.10
  -2  -5   6  365.46   21.60
  -2  -5   6  345.77   25.30
  -2  -5   6  353.56   25.00
   1   5  -6  355.86   24.50
   1   5  -6  288.37   23.80
   1   5  -6  313.37   24.40
   1   5  -6  328.27   25.20
  -1  -5   6  385.86   26.60
  -1  -5   6  303.07   22.20
  -1  -5   6  290.67   22.40
   0   5  -6  282.67   18.00
   0   5  -6  249.18   20.40
   0   5  -6  290.47   21.10
   0   5  -6  231.78   21.60
   0   5  -6  245.18   22.90
   0  -5   6  286.67   17.60
   0  -5   6  283.07   22.10
   0  -5   6  262.37   19.40
   0  -5   6  296.57   23.20
  -1   5  -6 1474.65   51.29
  -1   5  -6 1325.47   56.29
  -1   5  -6 1435.86   52.19
  -1   5  -6 1392.16   50.09
  -1   5  -6 1432.06   53.29
   1  -5   6 1471.15   54.19
   1  -5   6 1468.85   53.99
   1  -5   6 1431.96   50.09
   1  -5   6 1421.56   49.30
  -2   5  -6  557.44   30.40
  -2   5  -6  681.23   32.10
  -2   5  -6  572.74   28.80
  -2   5  -6  530.65   33.40
  -2   5  -6  589.94   27.10
   2  -5   6  621.74   32.20
   2  -5   6  657.83   31.60
   2  -5   6  560.04   29.90
   2  -5   6  593.34   26.90
  -3   5  -6   59.19   14.00
  -3   5  -6   71.29   10.80
  -3   5  -6   61.69   15.20
  -3   5  -6   86.29   13.90
  -3   5  -6   43.70   10.60
   3  -5   6   44.20    7.10
   3  -5   6   58.89   10.20
   3  -5   6   77.19   13.50
   3  -5   6   56.99   13.50
   3  -5   6   53.39   13.50
  -4   5  -6  514.45   30.80
  -4   5  -6  537.05   24.80
  -4   5  -6  499.65   26.50
  -4   5  -6  501.65   33.00
  -4   5  -6  541.95   34.10
   4  -5   6  501.55   33.40
   4  -5   6  515.75   24.40
   4  -5   6  521.85   24.60
   4  -5   6  494.75   28.20
   4  -5   6  494.05   32.30
   4  -5   6  555.64   33.00
  -5   5  -6  340.57   22.50
  -5   5  -6  333.07   20.20
  -5   5  -6  339.07   29.00
  -5   5  -6  401.16   32.40
   5  -5   6  336.17   23.90
   5  -5   6  328.67   20.40
   5  -5   6  294.57   27.90
   5  -5   6  288.77   24.20
  -6   5  -6  348.87   31.30
  -6   5  -6  365.56   36.20
  -6   5  -6  312.07   26.80
   6  -5   6  378.56   36.30
   6  -5   6  379.66   26.40
   6  -5   6  304.27   32.50
   6  -5   6  347.57   34.80
   6  -5   6  377.16   22.90
   6   4  -6   42.30   26.40
   6   4  -6   61.19   14.10
   6   4  -6   25.90   23.50
   6   4  -6   57.79   21.70
  -6  -4   6   44.00   22.70
  -6  -4   6   86.99   21.30
  -6  -4   6   40.30   21.70
  -6  -4   6   45.10    8.60
   5   4  -6   28.40   13.90
   5   4  -6   -8.40   17.80
   5   4  -6   22.30   16.40
   5   4  -6   -0.30   17.40
   5   4  -6  -24.20   18.30
  -5  -4   6  -17.70   15.70
  -5  -4   6   15.40    8.60
  -5  -4   6   -6.30   16.10
  -5  -4   6   21.30   12.90
  -5  -4   6    7.10   14.70
   4   4  -6  154.48   19.30
   4   4  -6  148.49   19.50
   4   4  -6  184.18   22.70
   4   4  -6   95.89   20.10
  -4  -4   6  130.69   20.50
  -4  -4   6  131.79   20.30
  -4  -4   6  133.29   14.40
   3   4  -6  239.28   21.60
   3   4  -6  245.98   21.90
   3   4  -6  238.38   22.50
   3   4  -6  246.78   22.60
   3   4  -6  236.48   18.70
  -3  -4   6  262.77   24.10
  -3  -4   6  245.88   22.40
  -3  -4   6  265.67   20.70
  -3  -4   6  266.77   16.50
   2   4  -6   55.89    9.30
   2   4  -6   83.99   14.50
   2   4  -6   65.59   12.50
   2   4  -6   47.80   12.20
  -2  -4   6   71.59   11.90
  -2  -4   6   67.99   10.60
  -2  -4   6   58.99   13.10
  -2  -4   6   54.19   13.70
   1   4  -6  909.21   37.00
   1   4  -6  919.71   38.50
   1   4  -6  916.61   37.90
   1   4  -6  911.81   31.60
  -1  -4   6  879.71   34.20
  -1  -4   6  898.61   38.70
   0   4  -6  146.79   13.50
   0   4  -6  147.39   16.00
   0   4  -6  123.29   14.30
   0   4  -6  122.59   14.60
   0   4  -6  132.59   16.80
   0  -4   6  134.29   15.80
   0  -4   6  167.28   13.60
   0  -4   6  151.88   16.10
  -1   4  -6   74.09   11.80
  -1   4  -6   52.79   14.20
  -1   4  -6   52.29   10.00
  -1   4  -6   47.60    9.50
  -1   4  -6   42.30    9.60
   1  -4   6   35.80    8.70
   1  -4   6   43.00   11.10
   1  -4   6   55.69   10.10
   1  -4   6   56.59   11.30
  -2   4  -6   20.90    8.50
  -2   4  -6   31.70    8.10
  -2   4  -6   37.50   10.60
  -2   4  -6   38.20    9.50
  -2   4  -6   37.60   11.10
   2  -4   6   26.30   11.30
   2  -4   6   44.20    8.30
   2  -4   6   38.50    9.70
   2  -4   6   24.00   10.20
  -3   4  -6    9.80    7.60
  -3   4  -6    8.90    9.80
  -3   4  -6    6.10    6.70
  -3   4  -6    6.00    9.70
  -3   4  -6   -8.50    9.50
   3  -4   6    1.30    8.30
   3  -4   6    6.60    9.00
   3  -4   6    0.80    8.80
   3  -4   6    6.80    6.30
  -4   4  -6   38.80   13.40
  -4   4  -6   39.80   12.60
  -4   4  -6   37.60   14.30
  -4   4  -6   30.40    9.30
  -4   4  -6   46.20    8.70
   4  -4   6   46.80   13.60
   4  -4   6   37.60    9.10
   4  -4   6   43.20   10.70
   4  -4   6   33.80   13.40
  -5   4  -6  142.99   16.20
  -5   4  -6  133.89   15.20
  -5   4  -6  112.09   20.60
  -5   4  -6   81.39   19.00
   5  -4   6  143.29   17.50
   5  -4   6  135.79   17.50
   5  -4   6  126.29   15.20
   5  -4   6  119.39   20.50
  -6   4  -6   19.30   17.30
  -6   4  -6   96.09   22.10
  -6   4  -6   52.49   11.60
   6  -4   6   39.00   13.10
   6  -4   6   34.70   18.80
   6  -4   6   32.80   15.10
   6  -4   6   55.79   12.50
   6  -4   6   16.70   20.00
   6   3  -6   51.19   14.60
   6   3  -6   59.89   17.40
   6   3  -6   57.09   17.20
  -6  -3   6   51.79   17.60
  -6  -3   6   37.20   19.70
  -6  -3   6   54.09   15.40
  -6  -3   6   48.70   18.20
  -6  -3   6   45.90    8.40
   5   3  -6  312.87   26.00
   5   3  -6  258.17   26.00
   5   3  -6  310.67   26.70
  -5  -3   6  287.57   24.90
  -5  -3   6  284.27   23.20
  -5  -3   6  281.37   27.20
  -5  -3   6  284.67   16.60
   4   3  -6  662.73   32.10
   4   3  -6  640.54   35.70
   4   3  -6  592.74   31.30
   4   3  -6  618.94   32.60
  -4  -3   6  614.54   33.00
  -4  -3   6  664.13   30.50
  -4  -3   6  654.73   35.00
  -4  -3   6  601.04   25.00
   3   3  -6  613.94   30.50
   3   3  -6  660.13   30.70
   3   3  -6  565.24   34.20
   3   3  -6  637.04   28.20
  -3  -3   6  685.83   26.30
  -3  -3   6  602.24   31.30
  -3  -3   6  663.63   33.10
  -3  -3   6  656.53   28.60
   2   3  -6 2487.45   68.69
   2   3  -6 2499.65   78.89
   2   3  -6 2407.46   77.49
   2   3  -6 2511.95   76.99
  -2  -3   6 2500.65   80.19
  -2  -3   6 2577.74   75.69
  -2  -3   6 2528.75   73.69
  -2  -3   6 2518.25   79.19
   1   3  -6 3099.59   96.39
   1   3  -6 3192.58   87.79
   1   3  -6 3125.89   92.49
   1   3  -6 3124.49   93.59
  -1  -3   6 3061.69   93.49
  -1  -3   6 3030.00   84.49
  -1  -3   6 3163.78   93.89
  -1  -3   6 3219.28   90.69
  -1  -3   6 3132.49   89.79
   0   3  -6  832.02   32.30
   0   3  -6  800.72   31.00
   0   3  -6  874.21   32.10
   0   3  -6  810.62   33.30
   0  -3   6  777.52   30.30
   0  -3   6  795.02   30.20
   0  -3   6  772.32   33.30
   0  -3   6  841.72   33.40
  -1   3  -6  675.73   30.20
  -1   3  -6  740.03   29.30
  -1   3  -6  719.83   28.00
  -1   3  -6  716.23   30.90
   1  -3   6  721.63   27.40
   1  -3   6  705.93   31.50
   1  -3   6  721.83   29.90
   1  -3   6  660.73   27.70
  -2   3  -6    4.10    5.60
  -2   3  -6    1.90    5.90
  -2   3  -6    1.20    6.70
  -2   3  -6    7.20    6.40
  -2   3  -6    0.20    5.90
   2  -3   6  -10.00    5.40
   2  -3   6    6.00    6.30
   2  -3   6    7.30    5.50
   2  -3   6    4.80    7.60
  -3   3  -6 1217.88   42.00
  -3   3  -6 1280.57   49.70
  -3   3  -6 1202.38   42.20
  -3   3  -6 1241.78   46.50
  -3   3  -6 1156.18   48.20
   3  -3   6 1242.38   41.50
   3  -3   6 1180.48   43.10
   3  -3   6 1227.98   43.20
   3  -3   6 1251.77   47.00
   3  -3   6 1216.38   47.10
  -4   3  -6   67.89   16.10
  -4   3  -6   42.60   13.70
  -4   3  -6   56.59    9.60
  -4   3  -6   56.69   10.30
   4  -3   6   59.59   14.60
   4  -3   6   57.09   11.80
   4  -3   6   52.09   10.40
   4  -3   6   40.00   10.30
   4  -3   6   73.49   15.20
  -5   3  -6   -7.90   14.10
  -5   3  -6  -10.60    8.70
  -5   3  -6   -5.00   13.30
  -5   3  -6    0.00    8.40
   5  -3   6   -5.30   13.10
   5  -3   6   -5.40    9.20
   5  -3   6   -1.40    8.70
  -6   3  -6   92.89   14.30
  -6   3  -6  117.19   21.00
  -6   3  -6   93.69   14.80
  -6   3  -6  123.49   23.70
   6  -3   6  113.49   16.20
   6  -3   6  115.69   23.70
   6  -3   6  122.09   17.00
   6  -3   6   77.29   15.20
   6  -3   6   99.09   22.00
   7   2  -6  225.58   27.50
   7   2  -6  231.48   33.90
   7   2  -6  276.07   27.30
   7   2  -6  226.78   31.80
  -7  -2   6  204.78   24.10
  -7  -2   6  224.18   30.30
  -7  -2   6  181.08   23.00
   6   2  -6  201.58   22.30
   6   2  -6  308.27   29.60
   6   2  -6  203.38   23.90
  -6  -2   6  217.68   24.00
  -6  -2   6  256.47   22.70
  -6  -2   6  223.28   27.50
  -6  -2   6  196.08   14.90
   5   2  -6  185.18   22.40
   5   2  -6  189.68   19.80
   5   2  -6  256.87   21.20
  -5  -2   6  249.28   22.50
  -5  -2   6  261.77   15.60
  -5  -2   6  246.88   18.80
  -5  -2   6  247.68   20.00
  -5  -2   6  254.57   25.00
   4   2  -6 1373.96   48.50
   4   2  -6 1351.76   49.20
   4   2  -6 1377.66   50.29
  -4  -2   6 1354.86   43.80
  -4  -2   6 1416.76   50.79
  -4  -2   6 1407.06   47.00
  -4  -2   6 1413.26   53.99
   3   2  -6 1623.14   53.29
   3   2  -6 1582.84   54.49
   3   2  -6 1492.15   51.69
   3   2  -6 1619.14   52.29
  -3  -2   6 1582.64   54.09
  -3  -2   6 1528.55   48.90
  -3  -2   6 1627.04   50.89
  -3  -2   6 1615.04   56.89
   2   2  -6 2941.71   86.49
   2   2  -6 3015.40   85.99
   2   2  -6 2841.62   87.09
   2   2  -6 2935.41   81.19
  -2  -2   6 2926.21   83.69
  -2  -2   6 3029.40   94.19
  -2  -2   6 2973.70   84.49
  -2  -2   6 2878.21   82.99
   1   2  -6  601.74   23.90
   1   2  -6  599.54   23.50
   1   2  -6  552.84   25.30
   1   2  -6  592.24   24.90
  -1  -2   6  619.74   26.00
  -1  -2   6  556.74   25.60
  -1  -2   6  559.64   22.00
  -1  -2   6  570.24   23.50
  -1  -2   6  578.04   23.30
   0   2  -6  162.18   12.70
   0   2  -6  136.59   12.40
   0   2  -6  161.98   12.40
   0   2  -6  148.89   11.60
   0  -2   6  146.99   13.60
   0  -2   6  153.98   10.70
   0  -2   6  153.58   11.90
   0  -2   6  164.08   12.10
  -1   2  -6 4272.47  117.69
  -1   2  -6 4231.08  120.89
  -1   2  -6 4219.38  119.59
  -1   2  -6 4367.46  116.99
   1  -2   6 4306.67  117.49
   1  -2   6 4049.49  116.99
   1  -2   6 4286.17  118.59
   1  -2   6 4122.49  120.19
   1  -2   6 4168.88  116.09
  -2   2  -6  363.26   22.90
  -2   2  -6  364.76   18.70
  -2   2  -6  362.26   18.40
  -2   2  -6  381.06   21.40
   2  -2   6  353.06   20.20
   2  -2   6  359.96   18.70
   2  -2   6  352.46   17.90
   2  -2   6  378.56   21.40
   2  -2   6  352.46   19.10
  -3   2  -6  136.09   14.70
  -3   2  -6  145.79   18.80
  -3   2  -6  137.29   12.60
  -3   2  -6  146.89   17.50
  -3   2  -6  147.79   16.40
   3  -2   6  159.88   13.40
   3  -2   6  141.79   14.10
   3  -2   6  162.08   16.20
   3  -2   6  148.29   17.00
   3  -2   6  172.88   13.80
  -4   2  -6   48.60    9.50
  -4   2  -6   21.40   10.90
  -4   2  -6   33.80   14.00
  -4   2  -6   28.50    8.40
   4  -2   6   36.50    9.80
   4  -2   6   47.20   14.00
   4  -2   6   52.79   10.70
   4  -2   6   52.39   10.80
   4  -2   6   69.59   14.30
  -5   2  -6  777.42   32.50
  -5   2  -6  723.73   33.30
  -5   2  -6  797.42   43.10
  -5   2  -6  790.82   37.70
   5  -2   6  783.22   31.90
   5  -2   6  769.02   35.30
   5  -2   6  762.02   33.20
   5  -2   6  849.32   41.90
  -6   2  -6  279.67   33.20
  -6   2  -6  262.17   25.60
  -6   2  -6  198.38   20.40
   6  -2   6  229.98   20.80
   6  -2   6  208.28   28.50
   6  -2   6  267.47   35.60
   6  -2   6  261.37   26.00
   7   1  -6   73.49   27.50
   7   1  -6   41.00   14.00
   7   1  -6  118.49   25.40
   7   1  -6   44.80   12.90
  -7  -1   6   42.30   21.10
  -7  -1   6   86.09   17.90
  -7  -1   6   82.19   13.50
  -7  -1   6   37.30   14.10
   6   1  -6   24.60    9.80
   6   1  -6   27.30   11.10
   6   1  -6   46.80   16.30
  -6  -1   6   28.10   11.20
  -6  -1   6   30.10    8.60
  -6  -1   6   27.10   14.00
  -6  -1   6   37.70   11.30
  -6  -1   6   36.60    9.60
   5   1  -6  -11.30    7.30
   5   1  -6    0.00    6.90
   5   1  -6    6.80   11.90
   5   1  -6   -5.70    3.20
  -5  -1   6    4.30    6.40
  -5  -1   6   -1.00    6.90
  -5  -1   6   -6.00   10.50
  -5  -1   6    5.90    6.30
  -5  -1   6    5.80    7.80
   4   1  -6    7.40    6.00
   4   1  -6   -2.10    5.60
   4   1  -6    8.90    8.40
   4   1  -6   -3.20    6.40
   4   1  -6   10.30    9.30
  -4  -1   6    8.60    5.20
  -4  -1   6    4.60    6.90
  -4  -1   6   -4.30    4.60
  -4  -1   6    7.30    5.90
  -4  -1   6   -7.50    8.60
   3   1  -6  236.98   14.60
   3   1  -6  224.38   14.10
   3   1  -6  221.78   14.50
   3   1  -6  215.08   15.60
  -3  -1   6  238.18   18.60
  -3  -1   6  211.88   15.30
  -3  -1   6  206.88   13.50
  -3  -1   6  216.28   15.30
  -3  -1   6  236.98   13.50
   2   1  -6 4785.02  138.49
   2   1  -6 4747.43  132.79
   2   1  -6 4919.01  133.19
   2   1  -6 4815.62  132.29
  -2  -1   6 4878.91  131.59
  -2  -1   6 4953.10  134.19
  -2  -1   6 4987.30  133.99
  -2  -1   6 4847.12  132.09
  -2  -1   6 4868.21  133.99
   1   1  -6 1231.08   41.50
   1   1  -6 1237.38   41.20
   1   1  -6 1274.77   41.30
   1   1  -6 1223.08   40.50
  -1  -1   6 1249.18   40.50
  -1  -1   6 1297.77   40.40
  -1  -1   6 1274.97   42.20
  -1  -1   6 1249.97   41.80
   0   1  -6  183.08   12.30
   0   1  -6  195.58   12.70
   0   1  -6  146.59   12.70
   0   1  -6  177.78   12.70
   0  -1   6  187.68   12.40
   0  -1   6  193.28   13.00
   0  -1   6  192.68   11.00
   0  -1   6  188.38   13.90
  -1   1  -6  716.93   27.10
  -1   1  -6  681.53   26.70
  -1   1  -6  680.03   28.10
   1  -1   6  684.03   26.70
   1  -1   6  695.73   27.20
   1  -1   6  648.64   28.50
   1  -1   6  721.43   29.60
   1  -1   6  687.43   26.70
  -2   1  -6    4.30    5.30
  -2   1  -6    7.40    6.10
  -2   1  -6   -6.10    5.90
  -2   1  -6   15.40    8.00
   2  -1   6    6.20    5.60
   2  -1   6    2.20    5.70
   2  -1   6    4.00    5.40
   2  -1   6   13.40    7.20
   2  -1   6    7.40    6.20
  -3   1  -6    5.20    9.60
  -3   1  -6   14.80    6.70
  -3   1  -6    4.80    6.80
   3  -1   6    5.20    8.50
   3  -1   6    7.20    7.30
   3  -1   6   14.90    6.70
   3  -1   6   19.20    7.30
   3  -1   6   -6.10    8.10
  -4   1  -6  941.71   42.30
  -4   1  -6  925.21   38.30
  -4   1  -6  925.61   35.70
  -4   1  -6  934.31   37.80
  -4   1  -6  937.21   44.40
   4  -1   6  926.51   41.80
   4  -1   6  920.91   36.40
   4  -1   6  864.71   37.40
   4  -1   6  948.21   42.70
   4  -1   6  912.41   34.20
  -5   1  -6   77.69   18.10
  -5   1  -6   24.30   14.00
  -5   1  -6   65.79   12.30
  -5   1  -6   67.49   18.80
   5  -1   6   42.20   14.00
   5  -1   6   58.09   11.50
   5  -1   6   43.80   11.80
  -6   1  -6   22.50   12.30
  -6   1  -6   -2.90   17.20
  -6   1  -6   32.20   16.80
  -6   1  -6   17.90   15.00
  -6   1  -6    9.30   19.60
   6  -1   6  -14.40   17.20
   6  -1   6    1.20   19.30
   6  -1   6  -22.10   12.00
   6  -1   6  -10.70   22.40
   6  -1   6    3.20   10.40
   8   0  -6  121.99   16.90
   8   0  -6  131.89   31.20
   8   0  -6  118.89   31.70
   8   0  -6  118.49   14.90
  -8   0   6  109.89   12.70
  -8   0   6  130.99   21.30
  -8   0   6  111.29   24.40
   7   0  -6  180.48   16.90
   7   0  -6  180.58   18.90
   7   0  -6  168.48   14.80
   7   0  -6  178.98   14.70
  -7   0   6  150.58   18.80
  -7   0   6  149.39   14.50
  -7   0   6  141.49   23.40
  -7   0   6  183.68   22.00
   6   0  -6  272.27   15.30
   6   0  -6  285.47   19.10
   6   0  -6  221.78   25.70
   6   0  -6  280.47   16.50
   6   0  -6  233.48   28.10
   6   0  -6  273.37   17.00
  -6   0   6  283.27   19.50
  -6   0   6  262.67   18.00
  -6   0   6  269.37   16.00
  -6   0   6  285.27   24.90
  -6   0   6  273.07   19.10
   5   0  -6  578.24   23.10
   5   0  -6  632.74   24.70
   5   0  -6  617.34   32.50
   5   0  -6  621.34   26.00
   5   0  -6  618.24   24.70
  -5   0   6  597.74   25.30
  -5   0   6  605.44   25.50
  -5   0   6  580.24   23.20
  -5   0   6  606.04   26.20
  -5   0   6  601.94   32.10
   4   0  -6 1956.20   57.59
   4   0  -6 1927.71   58.39
   4   0  -6 1929.71   59.89
   4   0  -6 2002.30   58.39
  -4   0   6 1902.41   58.89
  -4   0   6 1854.81   55.69
  -4   0   6 1949.90   56.59
  -4   0   6 1847.82   62.09
  -4   0   6 1923.31   58.49
  -4   0   6 1832.92   64.39
   3   0  -6  828.02   30.00
   3   0  -6  892.41   31.00
   3   0  -6  884.21   31.10
   3   0  -6  895.81   30.40
  -3   0   6  839.12   30.70
  -3   0   6  858.41   31.00
  -3   0   6  836.92   34.70
  -3   0   6  804.42   33.10
  -3   0   6  860.81   29.40
  -3   0   6  829.72   25.90
   2   0  -6  723.13   26.20
   2   0  -6  698.43   26.20
   2   0  -6  699.73   26.20
   2   0  -6  702.83   26.80
  -2   0   6  723.93   26.60
  -2   0   6  679.13   25.60
  -2   0   6  694.13   26.10
  -2   0   6  729.83   27.00
   1   0  -6  664.23   25.20
   1   0  -6  636.74   24.90
   1   0  -6  659.33   24.90
   1   0  -6  631.04   24.50
  -1   0   6  651.03   25.00
  -1   0   6  597.14   20.10
  -1   0   6  646.34   25.10
  -1   0   6  686.13   25.60
  -1   0   6  690.13   25.10
   0   0  -6 2509.35   72.59
   0   0  -6 2521.65   72.29
   0   0  -6 2552.04   72.69
   0   0  -6 2435.76   72.39
   0   0   6 2285.67   69.09
   0   0   6 2588.54   72.69
   0   0   6 2498.45   73.09
   0   0   6 2435.06   76.29
   0   0   6 2486.25   72.59
  -1   0  -6  182.68   13.20
  -1   0  -6  174.38   12.70
  -1   0  -6  168.18   12.60
  -1   0  -6  194.28   14.40
  -1   0  -6  167.58   13.40
   1   0   6  170.68   12.30
   1   0   6  177.68   13.00
   1   0   6  168.28   13.60
   1   0   6  190.48   14.30
   1   0   6  170.58   12.60
  -2   0  -6   35.30    8.10
  -2   0  -6   40.60    9.00
  -2   0  -6   57.69   10.70
   2   0   6   27.80    9.50
   2   0   6   32.90    8.10
   2   0   6   20.30    8.10
   2   0   6   53.09    8.80
   2   0   6   29.00    9.20
  -3   0  -6   35.60   10.70
  -3   0  -6   34.80   10.70
  -3   0  -6   30.00    8.90
  -3   0  -6   31.30   11.90
   3   0   6   20.80    7.70
   3   0   6    6.80    9.60
   3   0   6   30.90    8.60
   3   0   6   31.90   11.60
   3   0   6   34.40   10.80
  -4   0  -6  174.08   21.80
  -4   0  -6  150.28   17.30
  -4   0  -6  176.18   22.80
  -4   0  -6  175.68   18.40
  -4   0  -6  185.08   21.30
   4   0   6  158.08   20.10
   4   0   6  179.48   15.40
   4   0   6  158.68   21.50
   4   0   6  172.38   17.40
   4   0   6  155.38   21.90
  -5   0  -6   29.80   12.10
  -5   0  -6   31.00   16.70
  -5   0  -6   57.89   19.50
  -5   0  -6   11.00   15.90
  -5   0  -6   44.40   13.10
   5   0   6   35.90   10.90
   5   0   6   57.79   19.00
   5   0   6   35.30   17.30
   5   0   6   57.79   14.50
   5   0   6   39.70   20.50
   8  -1  -6   15.60    9.20
   8  -1  -6   -7.90   24.60
   8  -1  -6   40.20   13.30
   8  -1  -6   31.40   10.30
   8  -1  -6    9.80   28.10
   8  -1  -6   28.90    8.60
  -8   1   6   21.30   17.40
  -8   1   6   37.50   15.40
  -8   1   6    6.20   10.00
  -8   1   6    9.10    7.70
   7  -1  -6  363.06   20.40
   7  -1  -6  348.57   18.30
   7  -1  -6  312.87   34.00
   7  -1  -6  367.06   19.80
   7  -1  -6  350.46   21.60
  -7   1   6  361.36   24.50
  -7   1   6  353.86   16.50
  -7   1   6  338.67   28.50
   6  -1  -6  228.08   14.20
   6  -1  -6  216.18   15.20
   6  -1  -6  241.18   24.90
   6  -1  -6  244.58   15.70
   6  -1  -6  219.68   22.10
   6  -1  -6  241.18   17.00
  -6   1   6  224.78   19.70
  -6   1   6  238.88   15.70
  -6   1   6  261.87   13.70
  -6   1   6  261.07   19.30
  -6   1   6  248.78   17.80
   5  -1  -6 1264.57   41.70
   5  -1  -6 1219.58   40.30
   5  -1  -6 1210.58   39.50
  -5   1   6 1235.58   47.60
  -5   1   6 1231.98   43.60
  -5   1   6 1246.68   48.60
  -5   1   6 1241.98   40.40
  -5   1   6 1259.37   38.90
   4  -1  -6 1313.87   40.90
   4  -1  -6 1249.97   42.10
   4  -1  -6 1252.47   41.10
   4  -1  -6 1320.97   41.00
  -4   1   6 1314.77   47.30
  -4   1   6 1300.27   47.20
  -4   1   6 1295.47   40.20
  -4   1   6 1241.98   41.10
  -4   1   6 1254.37   43.70
  -4   1   6 1300.57   37.90
   3  -1  -6 2073.69   61.09
   3  -1  -6 1999.40   59.29
   3  -1  -6 2046.30   60.49
   3  -1  -6 2065.29   62.19
  -3   1   6 2063.49   66.69
  -3   1   6 2046.90   65.99
  -3   1   6 2122.89   60.79
  -3   1   6 2106.79   63.59
  -3   1   6 2111.39   61.19
   2  -1  -6 3439.06   94.59
   2  -1  -6 3370.26   92.69
   2  -1  -6 3289.57   95.29
   2  -1  -6 3537.15   95.59
  -2   1   6 3433.66   95.09
  -2   1   6 3442.36   96.89
  -2   1   6 3298.77   92.79
  -2   1   6 3392.66   94.79
   1  -1  -6  328.97   16.50
   1  -1  -6  325.97   15.10
   1  -1  -6  315.67   16.20
   1  -1  -6  350.26   20.00
  -1   1   6  294.77   15.40
  -1   1   6  301.17   16.00
  -1   1   6  348.77   17.60
  -1   1   6  300.07   16.60
   0  -1  -6 1692.93   52.69
   0  -1  -6 1732.53   50.49
   0  -1  -6 1628.24   51.89
   0   1   6 1793.02   57.99
   0   1   6 1635.84   49.90
   0   1   6 1675.93   53.49
   0   1   6 1630.14   52.49
  -1  -1  -6  198.58   14.10
  -1  -1  -6  169.78   14.80
  -1  -1  -6  162.78   13.40
  -1  -1  -6  180.58   13.40
   1   1   6  187.58   14.20
   1   1   6  195.38   14.20
   1   1   6  229.48   15.10
   1   1   6  222.98   16.90
   1   1   6  183.68   14.40
  -2  -1  -6  183.98   15.30
  -2  -1  -6  201.38   14.30
  -2  -1  -6  226.18   17.60
  -2  -1  -6  201.78   17.90
   2   1   6  184.58   15.30
   2   1   6  202.78   17.30
   2   1   6  210.48   17.60
   2   1   6  211.58   15.50
   2   1   6  203.78   18.40
  -3  -1  -6  257.27   22.90
  -3  -1  -6  263.47   19.20
  -3  -1  -6  208.28   20.70
  -3  -1  -6  244.98   23.00
   3   1   6  207.48   21.60
   3   1   6  255.07   20.60
   3   1   6  247.18   18.40
   3   1   6  229.18   17.30
  -4  -1  -6   26.30   14.70
  -4  -1  -6   47.80   12.20
  -4  -1  -6   45.40   12.20
  -4  -1  -6   36.00   16.10
   4   1   6   59.39   18.50
   4   1   6   42.30   12.20
   4   1   6   29.60   10.40
   4   1   6   25.70   14.70
  -5  -1  -6    5.30   12.90
  -5  -1  -6   14.30   20.00
  -5  -1  -6  -14.80   16.50
   5   1   6  -25.30   27.40
   5   1   6   -1.70   16.00
   5   1   6   11.80   20.80
   5   1   6    8.40   10.10
   5   1   6    2.10   13.30
   9  -2  -6  118.39   22.40
   9  -2  -6  160.78   10.10
   9  -2  -6  169.98   11.10
   9  -2  -6  155.58   18.50
   8  -2  -6  -10.20   14.30
   8  -2  -6    0.90    6.90
   8  -2  -6   17.20    9.90
   8  -2  -6   -6.10    6.90
  -8   2   6   10.90   25.20
   7  -2  -6   27.60   12.20
   7  -2  -6    9.50   18.10
   7  -2  -6   23.70    7.10
   7  -2  -6   22.20    6.20
   7  -2  -6   27.50    9.30
  -7   2   6   33.10    5.30
  -7   2   6   33.10    6.40
  -7   2   6   42.80   15.30
   6  -2  -6  425.06   18.40
   6  -2  -6  409.96   21.10
   6  -2  -6  368.56   29.10
   6  -2  -6  380.46   17.30
  -6   2   6  420.36   25.20
  -6   2   6  391.76   16.40
  -6   2   6  388.66   26.60
  -6   2   6  393.86   26.70
   5  -2  -6  649.64   27.00
   5  -2  -6  634.94   23.60
   5  -2  -6  615.84   23.50
   5  -2  -6  595.64   22.00
   5  -2  -6  624.04   23.90
  -5   2   6  632.74   29.30
  -5   2   6  596.34   23.40
  -5   2   6  654.63   32.20
  -5   2   6  622.84   22.90
  -5   2   6  624.84   30.70
   4  -2  -6   28.60    5.40
   4  -2  -6   23.30    6.30
   4  -2  -6   34.90    7.90
   4  -2  -6   31.80    6.20
  -4   2   6   24.30    8.90
  -4   2   6   39.10   10.90
  -4   2   6   21.20    6.00
  -4   2   6   31.20    9.40
  -4   2   6   34.50    6.30
   3  -2  -6   65.19    6.20
   3  -2  -6   53.49    7.70
   3  -2  -6   70.09    9.20
   3  -2  -6   85.29   10.20
  -3   2   6   64.49    8.20
  -3   2   6   73.49    9.40
  -3   2   6   73.79   10.90
   2  -2  -6 3454.55   91.99
   2  -2  -6 3504.05  100.39
   2  -2  -6 3478.55   94.99
   2  -2  -6 3601.64   99.39
  -2   2   6 3540.35   95.79
  -2   2   6 3618.04   99.49
  -2   2   6 3587.34  100.79
  -2   2   6 3650.03  103.19
   1  -2  -6  641.64   21.80
   1  -2  -6  613.84   26.40
   1  -2  -6  621.14   25.60
   1  -2  -6  606.54   25.40
  -1   2   6  608.74   23.50
  -1   2   6  642.74   25.70
  -1   2   6  658.63   27.40
  -1   2   6  644.14   27.80
   0  -2  -6    6.40    6.70
   0  -2  -6   -1.00    5.10
   0  -2  -6    1.10    5.70
   0  -2  -6   -1.10    4.20
   0   2   6    9.50    7.50
   0   2   6    2.40    6.70
   0   2   6    7.90    5.50
   0   2   6    6.30    5.70
  -1  -2  -6 1245.68   43.90
  -1  -2  -6 1191.98   41.00
  -1  -2  -6 1207.28   50.79
  -1  -2  -6 1239.78   43.70
   1   2   6 1197.48   43.00
   1   2   6 1264.27   44.20
   1   2   6 1212.28   46.70
   1   2   6 1224.48   43.70
  -2  -2  -6   27.80   10.30
  -2  -2  -6   36.30   12.10
  -2  -2  -6   50.19   10.70
  -2  -2  -6   31.60    8.20
   2   2   6   14.40    8.80
   2   2   6   36.50   10.70
   2   2   6   42.40   10.00
   2   2   6   45.30   13.70
  -3  -2  -6  148.09   14.20
  -3  -2  -6  159.48   20.60
  -3  -2  -6  159.58   18.30
   3   2   6  153.98   17.50
   3   2   6  162.98   20.70
   3   2   6  162.38   19.10
  -4  -2  -6   83.79   16.50
  -4  -2  -6   90.89   21.10
  -4  -2  -6   62.59   19.90
  -4  -2  -6   90.59   21.90
  -4  -2  -6   65.99   10.40
   4   2   6  109.29   25.50
   4   2   6   87.19   16.30
   4   2   6   77.59   23.30
   4   2   6   67.99   13.50
   4   2   6   76.19   19.20
   9  -3  -6  109.69   23.60
   9  -3  -6  149.99   36.60
   9  -3  -6  130.39   17.10
   8  -3  -6   57.09   13.00
   8  -3  -6   78.19   17.90
   8  -3  -6   14.80   22.90
   8  -3  -6   57.49    6.40
   8  -3  -6   97.59   16.00
   8  -3  -6   52.39    6.80
  -8   3   6   62.09   19.90
   7  -3  -6   34.90    9.60
   7  -3  -6   35.70   17.60
   7  -3  -6   11.50    9.90
   7  -3  -6   28.80    6.40
   7  -3  -6   11.60   13.20
  -7   3   6   44.50   15.50
  -7   3   6   17.80   13.00
  -7   3   6   28.90    4.10
  -7   3   6   32.10    4.50
   6  -3  -6   47.10    7.00
   6  -3  -6   64.29    9.20
   6  -3  -6   50.59    8.20
   6  -3  -6   55.59   12.00
  -6   3   6   69.29   13.70
  -6   3   6   39.10   12.70
  -6   3   6   52.59   14.70
  -6   3   6   62.69    7.40
   5  -3  -6  992.00   31.60
   5  -3  -6 1049.20   33.10
   5  -3  -6  998.20   38.10
   5  -3  -6  939.81   29.60
  -5   3   6  974.70   42.90
  -5   3   6 1000.40   39.60
  -5   3   6  982.80   33.30
  -5   3   6 1020.20   33.80
  -5   3   6 1016.60   41.50
   4  -3  -6  766.92   31.80
   4  -3  -6  780.42   29.10
   4  -3  -6  766.92   23.80
   4  -3  -6  810.92   28.20
  -4   3   6  785.32   29.50
  -4   3   6  782.92   34.70
  -4   3   6  759.52   31.70
  -4   3   6  737.03   27.50
  -4   3   6  765.42   36.20
   3  -3  -6   91.49   11.00
   3  -3  -6   99.69   11.90
   3  -3  -6  109.69   10.20
  -3   3   6  101.09   12.30
  -3   3   6  114.49   14.60
  -3   3   6   86.39    9.70
   2  -3  -6  790.82   30.00
   2  -3  -6  757.02   30.60
   2  -3  -6  787.32   31.40
  -2   3   6  779.32   32.10
  -2   3   6  803.62   34.10
  -2   3   6  745.93   25.10
  -2   3   6  741.03   29.30
   1  -3  -6   -9.20    7.20
   1  -3  -6   11.40    5.00
   1  -3  -6   13.40    6.80
   1  -3  -6   19.50    7.10
  -1   3   6   14.30    5.40
  -1   3   6   10.40    6.90
  -1   3   6   29.80    9.40
  -1   3   6   22.20    9.30
   0  -3  -6  352.86   18.50
   0  -3  -6  344.17   27.50
   0  -3  -6  338.97   18.70
   0  -3  -6  336.37   20.50
   0   3   6  341.97   20.40
   0   3   6  323.97   18.50
   0   3   6  359.76   22.30
   0   3   6  328.47   23.30
  -1  -3  -6 1208.48   43.10
  -1  -3  -6 1321.67   47.40
  -1  -3  -6 1360.86   48.40
  -1  -3  -6 1384.16   51.69
   1   3   6 1261.37   47.50
   1   3   6 1253.97   46.00
   1   3   6 1270.47   47.40
   1   3   6 1336.57   54.19
  -2  -3  -6    4.60    7.80
  -2  -3  -6    3.40    9.60
  -2  -3  -6   -7.70    9.40
   2   3   6   -4.60    9.20
   2   3   6    2.90   10.40
   2   3   6  -20.70   10.00
   2   3   6   -9.10   13.90
  -3  -3  -6  142.89   16.00
  -3  -3  -6  136.39   22.00
  -3  -3  -6  142.59   19.80
   3   3   6  169.48   24.60
   3   3   6  134.79   18.30
   3   3   6  108.89   19.30
   3   3   6  159.88   26.20
  -4  -3  -6   61.59   18.00
  -4  -3  -6   85.29   36.90
  -4  -3  -6   38.80   19.00
   4   3   6   65.49   28.30
   4   3   6   48.00   27.70
   4   3   6   65.59   20.80
   4   3   6   18.00   16.80
   9  -4  -6   14.40   17.20
   9  -4  -6   24.80   29.80
   9  -4  -6   41.80   24.30
   9  -4  -6   36.20   16.20
   9  -4  -6   50.19   15.10
   8  -4  -6   17.20   12.90
   8  -4  -6    1.90   17.00
   8  -4  -6   36.20   22.10
   8  -4  -6    6.60    9.20
  -8   4   6    6.20   14.70
   7  -4  -6  435.06   19.00
   7  -4  -6  468.15   23.30
   7  -4  -6  402.86   17.70
   7  -4  -6  385.16   30.40
   7  -4  -6  467.15   26.20
   7  -4  -6  420.96   17.00
  -7   4   6  381.56   27.80
  -7   4   6  421.46   28.50
  -7   4   6  398.56   14.30
  -7   4   6  384.06   14.10
   6  -4  -6   38.00    6.80
   6  -4  -6   51.19    8.00
   6  -4  -6   54.99   11.60
   6  -4  -6   54.39    8.80
   6  -4  -6   47.40    5.00
  -6   4   6   46.50   11.80
  -6   4   6   34.10    7.20
  -6   4   6   41.40   11.20
  -6   4   6   49.99   13.90
   5  -4  -6   46.80   11.40
   5  -4  -6   35.10    8.20
   5  -4  -6   33.20    6.80
   5  -4  -6   36.10    6.90
  -5   4   6   50.79   10.90
  -5   4   6   30.30    8.40
  -5   4   6   33.50    9.60
  -5   4   6   31.10    7.10
  -5   4   6   44.50   13.60
  -5   4   6   37.60   11.80
   4  -4  -6  756.72   30.40
   4  -4  -6  749.13   28.60
   4  -4  -6  786.22   33.60
  -4   4   6  747.23   32.80
  -4   4   6  769.02   30.90
  -4   4   6  773.62   28.80
  -4   4   6  761.72   31.30
  -4   4   6  739.43   37.10
   3  -4  -6 2446.56   73.99
   3  -4  -6 2424.86   76.09
   3  -4  -6 2470.55   77.19
  -3   4   6 2468.65   82.79
  -3   4   6 2565.94   74.29
   2  -4  -6 2809.62   83.29
   2  -4  -6 2908.11   84.69
   2  -4  -6 2728.13   85.49
  -2   4   6 2716.93   76.09
  -2   4   6 2678.53   87.39
  -2   4   6 2743.43   82.69
   1  -4  -6  188.28   14.20
   1  -4  -6  200.38   17.20
   1  -4  -6  200.88   16.00
   1  -4  -6  202.68   20.10
  -1   4   6  180.68   13.10
  -1   4   6  176.48   19.90
  -1   4   6  194.08   20.90
  -1   4   6  191.48   16.90
   0  -4  -6 1263.07   50.89
   0  -4  -6 1274.47   45.70
   0  -4  -6 1286.97   48.20
   0  -4  -6 1218.98   44.10
   0   4   6 1284.47   52.89
   0   4   6 1287.67   49.60
   0   4   6 1234.58   43.70
   0   4   6 1234.88   47.30
  -1  -4  -6    9.50    8.50
  -1  -4  -6    6.90   17.60
  -1  -4  -6   12.70   10.40
  -1  -4  -6    1.20   10.50
   1   4   6   11.40    9.70
   1   4   6    3.80   16.40
   1   4   6   14.30   10.80
  -2  -4  -6   90.59   17.10
  -2  -4  -6   84.49   12.80
  -2  -4  -6   78.79   21.80
  -2  -4  -6   96.29   18.50
   2   4   6   87.59   17.10
   2   4   6   89.39   20.00
   2   4   6  143.89   26.10
   2   4   6   85.39   16.70
  -3  -4  -6  297.87   29.20
  -3  -4  -6  230.18   19.90
  -3  -4  -6  267.37   31.30
   3   4   6  279.07   28.20
   3   4   6  223.58   28.40
   3   4   6  203.58   33.50
   9  -5  -6  615.04   48.10
   9  -5  -6  601.94   37.90
   9  -5  -6  580.94   30.10
   9  -5  -6  567.04   53.99
   9  -5  -6  582.44   36.60
   8  -5  -6   79.29    7.60
   8  -5  -6   89.39   17.80
   8  -5  -6   82.89   10.60
   8  -5  -6   77.69   17.70
   8  -5  -6  111.09   24.60
   8  -5  -6   90.59    7.70
  -8   5   6   77.29   17.10
  -8   5   6   88.59   21.40
   7  -5  -6  236.68   19.70
   7  -5  -6  287.27   14.60
   7  -5  -6  312.97   25.40
   7  -5  -6  274.47   16.20
  -7   5   6  296.87   14.20
  -7   5   6  251.97   21.90
  -7   5   6  268.27   13.00
  -7   5   6  229.38   22.10
  -7   5   6  242.48   27.30
   6  -5  -6  121.19   17.50
   6  -5  -6  103.29   13.10
   6  -5  -6   70.29    9.30
   6  -5  -6   87.29   11.40
  -6   5   6   76.09   12.70
  -6   5   6   78.79   17.90
  -6   5   6   93.89   10.80
  -6   5   6   84.49   14.40
   5  -5  -6 1032.40   42.40
   5  -5  -6 1067.89   36.80
   5  -5  -6  999.40   38.60
  -5   5   6 1035.70   47.20
  -5   5   6 1033.40   38.10
  -5   5   6 1036.30   39.50
  -5   5   6 1035.20   42.90
  -5   5   6 1028.50   36.20
   4  -5  -6  849.41   35.70
   4  -5  -6  892.71   38.40
   4  -5  -6  888.61   33.60
  -4   5   6  830.92   36.80
  -4   5   6  812.82   31.10
  -4   5   6  867.61   33.20
  -4   5   6  840.82   36.60
   3  -5  -6  248.48   21.20
   3  -5  -6  283.77   20.90
   3  -5  -6  242.48   17.90
  -3   5   6  223.48    9.70
  -3   5   6  268.47   19.10
  -3   5   6  247.58   16.00
  -3   5   6  261.97   21.90
   2  -5  -6 1080.79   42.30
   2  -5  -6 1041.30   41.60
   2  -5  -6 1013.50   44.10
  -2   5   6  989.30   33.60
  -2   5   6 1056.49   45.70
  -2   5   6 1113.99   41.80
   1  -5  -6   34.90   11.70
   1  -5  -6   27.50   10.20
   1  -5  -6   25.30   14.20
   1  -5  -6   31.80   10.50
  -1   5   6   50.89   15.50
  -1   5   6   33.20    8.40
  -1   5   6   31.30   11.00
   0  -5  -6  689.63   31.90
   0  -5  -6  700.73   35.60
   0  -5  -6  702.63   33.10
   0  -5  -6  653.13   39.20
   0   5   6  742.83   42.90
   0   5   6  671.93   30.50
  -1  -5  -6   93.79   22.20
  -1  -5  -6   91.39   17.70
  -1  -5  -6  102.19   15.40
  -1  -5  -6  103.69   17.90
   1   5   6  139.59   25.80
  -2  -5  -6  242.18   20.90
  -2  -5  -6  191.18   26.10
   2   5   6  224.98   28.30
   2   5   6  178.58   24.30
   2   5   6  179.48   27.20
   2   5   6  233.48   36.80
   8  -6  -6   -9.70   22.50
   8  -6  -6   14.10   18.40
   8  -6  -6  -10.10    5.80
   8  -6  -6  -10.10   13.50
   8  -6  -6    1.30    7.80
  -8   6   6   -5.70   12.00
  -8   6   6  -24.30   16.80
   7  -6  -6   25.70    9.40
   7  -6  -6   38.60   12.40
   7  -6  -6   33.20    8.10
   7  -6  -6   38.30   16.70
  -7   6   6   23.20    9.70
  -7   6   6   27.70   10.50
  -7   6   6   31.70    7.50
   6  -6  -6   80.99   13.70
   6  -6  -6  109.29   13.30
   6  -6  -6   90.29   17.80
   6  -6  -6   66.79   12.60
  -6   6   6   65.49   12.20
  -6   6   6   70.49   10.90
  -6   6   6   93.19   19.60
  -6   6   6   64.89   15.30
  -6   6   6   75.99   14.00
   5  -6  -6  417.36   22.70
   5  -6  -6  402.66   28.40
   5  -6  -6  332.87   24.70
  -5   6   6  358.46   25.20
  -5   6   6  330.37   30.10
  -5   6   6  373.16   26.10
  -5   6   6  408.06   19.80
  -5   6   6  403.76   22.10
   4  -6  -6  117.69   15.30
   4  -6  -6  109.09   17.60
   4  -6  -6  145.89   18.60
  -4   6   6  118.79   15.50
  -4   6   6  113.79   18.50
  -4   6   6  111.69   16.60
  -4   6   6  124.09   11.10
   3  -6  -6   41.00   14.20
   3  -6  -6   37.90   11.60
   3  -6  -6   24.90   13.00
  -3   6   6   59.19   12.40
  -3   6   6   33.00    5.80
  -3   6   6   39.50    5.80
  -3   6   6   50.59   12.90
  -3   6   6   38.40    6.90
   2  -6  -6  242.08   22.90
   2  -6  -6  262.87   23.00
   2  -6  -6  273.57   27.80
  -2   6   6  271.37   16.10
   1  -6  -6   22.40   11.70
   1  -6  -6   16.50   13.50
   1  -6  -6   29.80   11.10
   1  -6  -6    4.10   17.70
  -1   6   6    5.10    9.20
  -1   6   6   29.10   32.70
   0  -6  -6   -5.70   12.60
   0  -6  -6   29.60   12.70
   0  -6  -6   38.90   22.60
   0  -6  -6   -9.60   14.90
   0   6   6    5.40   12.40
   0   6   6   40.60   24.80
  -1  -6  -6  289.57   32.20
  -1  -6  -6  262.17   24.00
  -1  -6  -6  250.07   28.70
   1   6   6  300.17   31.80
   1   6   6  186.38   39.10
   8  -7  -6   -4.60   10.80
   8  -7  -6  -12.30   18.40
   8  -7  -6   -8.70    7.30
   8  -7  -6  -21.10   15.90
  -8   7   6    6.40    5.40
  -8   7   6   37.10   20.60
  -8   7   6    2.30   15.00
   7  -7  -6  376.66   21.40
   7  -7  -6  370.06   33.10
   7  -7  -6  328.97   25.30
   7  -7  -6  288.87   27.10
  -7   7   6  431.16   26.10
  -7   7   6  424.56   36.80
  -7   7   6  338.37   21.60
   6  -7  -6   -4.90    9.10
   6  -7  -6   -4.90   12.50
   6  -7  -6  -19.60   13.20
  -6   7   6   -5.10   18.60
  -6   7   6  -10.50   11.20
  -6   7   6    0.40    9.30
   5  -7  -6  165.58   21.70
   5  -7  -6  158.98   22.80
   5  -7  -6  170.98   19.60
  -5   7   6  121.09   18.70
  -5   7   6  186.58   20.00
   4  -7  -6    1.70   14.60
  -4   7   6   18.50    9.90
  -4   7   6   -4.80   17.10
  -4   7   6   18.00   11.90
   3  -7  -6  546.45   37.70
   3  -7  -6  484.15   31.10
   3  -7  -6  444.46   36.70
  -3   7   6  528.05   31.40
  -3   7   6  474.45   19.30
  -3   7   6  500.65   21.10
  -3   7   6  478.25   29.70
   2  -7  -6  552.64   34.80
   2  -7  -6  588.64   36.00
   2  -7  -6  611.94   43.50
  -2   7   6  587.84   26.80
  -2   7   6  609.94   46.40
   1  -7  -6   -9.60   13.90
   1  -7  -6   19.40   16.30
   1  -7  -6   28.00   26.80
   1  -7  -6    0.20   13.80
  -1   7   6    1.20    9.80
  -1   7   6   29.20   28.40
   6  -8  -6   20.50   17.70
   6  -8  -6  -31.00   18.00
   6  -8  -6   13.60   12.90
  -6   8   6   -0.20   22.10
  -6   8   6   11.50   20.30
  -6   8   6   10.90   15.80
  -6   8   6   -6.40   12.40
   5  -8  -6   80.79   18.10
   5  -8  -6   74.99   22.40
   5  -8  -6   97.99   16.50
  -5   8   6   99.19   18.50
  -5   8   6   53.49   22.90
  -5   8   6   55.29   18.30
   4  -8  -6  501.95   41.30
   4  -8  -6  530.05   34.60
   4  -8  -6  517.15   33.00
  -4   8   6  514.85   33.80
  -4   8   6  444.16   33.10
  -4   8   6  549.65   47.60
   3  -8  -6   66.39   18.50
   3  -8  -6   61.99   20.30
   3  -8  -6  108.69   28.70
  -3   8   6   79.99   18.70
  -3   8   6   87.69   11.10
  -3   8   6  105.19   13.50
   1   8  -7  139.79   28.50
   1   8  -7   78.39   23.50
  -1  -8   7  102.99   26.30
  -1  -8   7  135.59   27.60
  -1  -8   7   99.29   21.30
   0   8  -7  128.79   26.90
   0   8  -7  155.38   30.10
   0   8  -7  125.69   25.20
   0  -8   7  125.69   23.10
   0  -8   7  145.99   22.30
   0  -8   7  139.59   25.90
   0  -8   7  160.88   25.90
  -1   8  -7   29.30   19.80
  -1   8  -7   67.89   22.60
  -1   8  -7   28.20   20.30
  -1   8  -7   54.19   23.80
   1  -8   7   47.10   18.20
   1  -8   7   13.10   18.50
   1  -8   7   21.30   16.70
   1  -8   7   30.20   19.30
  -2   8  -7  177.88   28.00
  -2   8  -7  181.18   25.20
  -2   8  -7  140.79   24.90
  -2   8  -7  136.79   28.40
   2  -8   7  125.49   21.30
   2  -8   7  187.58   26.50
   2  -8   7  170.18   26.00
  -3   8  -7  496.25   41.00
  -3   8  -7  392.16   46.70
  -3   8  -7  553.14   38.90
  -3   8  -7  470.15   35.10
   3  -8   7  545.35   43.10
   3  -8   7  536.45   35.90
   3  -8   7  558.94   39.20
   3  -8   7  558.74   39.60
  -4   8  -7  146.69   25.50
  -4   8  -7  137.09   22.10
  -4   8  -7  133.49   30.30
  -4   8  -7  168.08   27.90
   4  -8   7  159.08   21.20
   4  -8   7  191.28   30.60
   4  -8   7  147.09   29.20
   4  -8   7  190.28   26.60
   2   7  -7   68.89   26.00
   2   7  -7   71.09   23.10
   2   7  -7   72.29   20.10
   2   7  -7  101.39   28.10
  -2  -7   7   82.89   19.30
  -2  -7   7   83.69   23.10
  -2  -7   7   41.50   24.90
  -2  -7   7   68.49   22.70
   1   7  -7  111.29   24.30
   1   7  -7  113.89   23.30
   1   7  -7  102.19   23.00
   1   7  -7   89.99   21.50
  -1  -7   7   66.79   19.80
  -1  -7   7  112.59   21.00
  -1  -7   7   86.49   28.10
   0   7  -7  -11.90   15.20
   0   7  -7   12.10   19.90
   0   7  -7   -3.50   15.70
   0   7  -7   23.70   15.50
   0  -7   7    2.80   13.70
   0  -7   7    6.30   11.90
   0  -7   7   15.30   15.20
   0  -7   7   22.20   28.00
  -1   7  -7   42.70   18.00
  -1   7  -7   39.80   17.50
   1  -7   7   52.59   14.70
   1  -7   7   45.90   15.00
   1  -7   7   61.59   18.00
  -2   7  -7  167.18   22.70
  -2   7  -7  200.38   26.00
   2  -7   7  208.58   26.20
   2  -7   7  195.38   26.10
   2  -7   7  232.98   23.30
   2  -7   7  225.58   28.00
  -3   7  -7   23.50   13.80
  -3   7  -7   38.00   16.30
  -3   7  -7   22.20   16.40
  -3   7  -7   37.90   19.20
   3  -7   7   45.50   17.60
   3  -7   7   32.50   13.80
  -4   7  -7  122.69   29.00
  -4   7  -7  174.18   21.10
  -4   7  -7  136.09   23.70
  -4   7  -7  134.49   20.30
  -4   7  -7  112.69   25.90
   4  -7   7  157.48   23.00
   4  -7   7  175.28   25.10
   4  -7   7  183.58   22.10
  -5   7  -7  209.48   28.00
  -5   7  -7  208.98   23.50
  -5   7  -7  281.37   29.10
  -5   7  -7  241.38   31.90
   5  -7   7  252.47   30.20
   5  -7   7  291.67   36.30
   5  -7   7  248.68   36.00
   5  -7   7  274.17   24.20
   5  -7   7  167.08   30.10
   4   6  -7   28.20   19.80
   4   6  -7   25.10   26.20
   4   6  -7   -4.20   22.10
   4   6  -7   -5.60   16.00
  -4  -6   7  -34.80   20.80
  -4  -6   7   -8.30   21.60
  -4  -6   7   -3.70   13.90
   3   6  -7   47.80   22.50
   3   6  -7   44.70   16.70
   3   6  -7   34.50   14.30
   3   6  -7   56.89   22.40
   3   6  -7   33.20   19.60
  -3  -6   7   13.30   16.50
  -3  -6   7    8.80   14.20
  -3  -6   7   37.00   19.20
  -3  -6   7   42.60   18.90
   2   6  -7  176.18   24.80
   2   6  -7  154.18   24.30
   2   6  -7  124.29   22.40
  -2  -6   7  168.08   20.20
  -2  -6   7  160.28   25.00
  -2  -6   7  206.98   25.70
  -2  -6   7  186.28   23.30
   1   6  -7  535.45   34.00
   1   6  -7  520.05   34.90
   1   6  -7  473.95   34.20
  -1  -6   7  541.15   32.20
  -1  -6   7  553.84   36.50
  -1  -6   7  528.45   32.10
   0   6  -7   48.50   14.80
   0   6  -7   28.70   16.00
   0   6  -7   58.29   18.00
   0   6  -7   56.69   15.70
   0  -6   7   44.40   13.10
   0  -6   7   62.79   16.50
  -1   6  -7    3.30   15.30
  -1   6  -7   18.20   13.90
  -1   6  -7   23.60   11.70
  -1   6  -7   19.50   12.90
   1  -6   7   24.70   12.90
   1  -6   7   28.40   12.10
   1  -6   7   13.20   12.80
   1  -6   7   31.00   12.60
  -2   6  -7 1042.70   52.79
  -2   6  -7 1140.99   48.70
  -2   6  -7 1127.19   48.30
  -2   6  -7 1158.38   47.90
   2  -6   7 1105.29   43.70
   2  -6   7 1115.49   47.40
   2  -6   7 1161.68   50.09
   2  -6   7 1176.18   49.30
  -3   6  -7   73.79   20.20
  -3   6  -7  101.89   14.60
  -3   6  -7   99.09   19.00
  -3   6  -7   91.29   16.30
  -3   6  -7  106.99   20.10
   3  -6   7   91.79   18.70
   3  -6   7   65.89   15.70
   3  -6   7  125.29   19.70
   3  -6   7  112.09   14.70
  -4   6  -7  496.85   36.00
  -4   6  -7  447.26   30.20
  -4   6  -7  454.15   35.70
   4  -6   7  480.55   22.80
   4  -6   7  477.65   31.90
   4  -6   7  496.85   26.80
   4  -6   7  457.35   34.20
  -5   6  -7  445.26   30.00
  -5   6  -7  346.37   34.20
  -5   6  -7  423.66   38.10
  -5   6  -7  426.36   35.00
   5  -6   7  512.65   37.60
   5  -6   7  439.66   35.40
   5  -6   7  469.05   26.50
   5  -6   7  405.16   28.00
   5  -6   7  443.86   38.00
  -6   6  -7   44.40   22.80
  -6   6  -7    9.20   13.50
  -6   6  -7   24.60   16.10
  -6   6  -7   55.09   21.80
   6  -6   7   -4.90   19.80
   6  -6   7   27.70   15.90
   6  -6   7   26.30   19.80
   6  -6   7   36.10   13.70
   5   5  -7   48.80   23.90
   5   5  -7  102.89   24.50
   5   5  -7   51.09   16.70
   5   5  -7   52.69   24.30
  -5  -5   7   60.79   13.40
  -5  -5   7   21.70   21.60
  -5  -5   7   63.39   18.60
  -5  -5   7   69.19   23.90
   4   5  -7  100.39   21.70
   4   5  -7   74.19   25.80
   4   5  -7   53.49   19.80
   4   5  -7   98.69   18.50
   4   5  -7  128.39   20.20
  -4  -5   7   61.49   20.80
  -4  -5   7   63.79   22.60
  -4  -5   7   96.79   21.80
  -4  -5   7  101.69   21.50
   3   5  -7  874.61   36.40
   3   5  -7  875.81   42.90
   3   5  -7  864.61   43.70
   3   5  -7  932.11   45.40
  -3  -5   7  865.61   43.00
  -3  -5   7  873.21   36.40
  -3  -5   7  703.03   38.70
  -3  -5   7  883.51   45.30
   2   5  -7  569.04   32.40
   2   5  -7  541.05   33.20
   2   5  -7  577.44   33.80
  -2  -5   7  546.35   28.60
  -2  -5   7  555.64   34.90
  -2  -5   7  519.95   33.00
   1   5  -7   41.30   15.70
   1   5  -7   89.29   15.70
  -1  -5   7   71.99   13.00
  -1  -5   7   50.39   10.90
  -1  -5   7   37.30   13.30
   0   5  -7  427.16   27.30
   0   5  -7  380.86   27.10
   0   5  -7  366.96   22.30
   0   5  -7  387.16   27.40
   0   5  -7  417.46   25.50
   0  -5   7  413.96   27.00
   0  -5   7  417.26   27.60
  -1   5  -7  388.76   25.30
  -1   5  -7  385.66   27.20
  -1   5  -7  367.56   29.00
  -1   5  -7  418.66   25.70
  -1   5  -7  419.76   24.10
   1  -5   7  411.66   27.60
   1  -5   7  442.06   23.70
   1  -5   7  365.26   26.20
  -2   5  -7 1466.85   54.69
  -2   5  -7 1238.88   56.39
  -2   5  -7 1430.46   53.89
  -2   5  -7 1450.55   49.50
  -2   5  -7 1400.26   51.99
   2  -5   7 1290.37   37.50
   2  -5   7 1484.05   55.99
   2  -5   7 1379.86   53.09
   2  -5   7 1360.76   48.20
  -3   5  -7  343.07   26.60
  -3   5  -7  323.27   29.10
  -3   5  -7  379.56   28.70
  -3   5  -7  365.46   24.30
  -3   5  -7  381.96   21.90
   3  -5   7  364.46   21.30
   3  -5   7  363.66   26.20
   3  -5   7  372.56   28.40
  -4   5  -7  291.07   20.40
  -4   5  -7  260.67   27.60
  -4   5  -7  255.87   22.50
  -4   5  -7  189.48   25.90
  -4   5  -7  316.37   29.90
   4  -5   7  176.18   24.20
   4  -5   7  294.27   27.10
   4  -5   7  272.57   24.30
   4  -5   7  275.57   20.20
  -5   5  -7  449.36   34.60
  -5   5  -7  493.85   34.60
  -5   5  -7  543.35   39.60
  -5   5  -7  507.25   29.30
   5  -5   7  427.36   35.70
   5  -5   7  484.75   26.50
   5  -5   7  520.75   32.30
   5  -5   7  487.35   31.00
  -6   5  -7   -4.60   21.00
  -6   5  -7   27.20   19.10
  -6   5  -7   19.40   14.20
   6  -5   7   22.20   15.30
   6  -5   7   20.10   19.40
   6  -5   7   18.10   18.30
   6  -5   7   13.10   19.20
   6  -5   7   42.60   24.80
   6  -5   7    4.40   12.50
   5   4  -7  319.57   28.00
   5   4  -7  419.76   35.40
   5   4  -7  389.16   55.89
   5   4  -7  409.26   32.40
   5   4  -7  358.86   32.00
  -5  -4   7  404.06   40.60
  -5  -4   7  399.16   36.10
  -5  -4   7  370.16   22.20
  -5  -4   7  389.16   30.00
  -5  -4   7  409.76   29.40
   4   4  -7  432.86   28.50
   4   4  -7  458.55   34.20
   4   4  -7  420.06   30.80
   4   4  -7  378.76   30.20
  -4  -4   7  374.96   30.40
  -4  -4   7  410.36   22.90
  -4  -4   7  484.45   32.90
   3   4  -7  -20.50    9.50
   3   4  -7  -11.80   13.60
   3   4  -7   40.10   23.40
   3   4  -7   -6.90    9.20
  -3  -4   7   -1.50    7.40
  -3  -4   7    1.10   11.10
  -3  -4   7   -5.10   11.60
  -3  -4   7   15.10   10.00
   2   4  -7    5.60   11.70
   2   4  -7   12.20   10.50
   2   4  -7   12.00   11.20
  -2  -4   7    7.10   11.30
  -2  -4   7   14.60    9.10
  -2  -4   7   13.00   11.10
  -2  -4   7    0.80    7.50
   1   4  -7   -0.40   10.10
   1   4  -7   -5.60    8.80
   1   4  -7   13.80    7.00
   1   4  -7   15.60   10.00
  -1  -4   7   11.80    9.50
  -1  -4   7    6.80    7.50
  -1  -4   7    6.30    7.50
  -1  -4   7   23.10    8.90
   0   4  -7 1030.20   38.90
   0   4  -7 1013.20   40.90
   0  -4   7 1044.60   38.70
   0  -4   7  998.90   42.30
   0  -4   7 1009.50   42.10
  -1   4  -7  118.59   15.00
  -1   4  -7   90.79   13.90
  -1   4  -7  105.29   13.60
  -1   4  -7  105.09   17.50
  -1   4  -7   96.89   15.40
   1  -4   7  115.39   14.50
   1  -4   7  130.99   17.20
   1  -4   7  120.39   15.80
   1  -4   7  108.69   13.20
  -2   4  -7   12.40   10.30
  -2   4  -7   16.20    9.30
  -2   4  -7   10.60   12.50
  -2   4  -7   22.70    9.20
  -2   4  -7   -6.30    7.10
   2  -4   7   10.60    9.90
   2  -4   7    8.00    7.20
   2  -4   7   11.20    8.90
   2  -4   7   20.00    9.50
  -3   4  -7   35.00   13.50
  -3   4  -7   14.10    8.30
  -3   4  -7   49.40   15.60
  -3   4  -7   44.10   13.10
  -3   4  -7   36.00   11.10
   3  -4   7   30.50   12.40
   3  -4   7   34.90   11.30
   3  -4   7   39.10   11.20
   3  -4   7   39.30    9.20
   3  -4   7   54.99   12.20
  -4   4  -7  730.53   40.80
  -4   4  -7  806.52   38.40
  -4   4  -7  742.83   40.60
  -4   4  -7  748.83   33.40
  -4   4  -7  749.92   31.50
   4  -4   7  726.83   39.10
   4  -4   7  802.32   35.50
   4  -4   7  729.33   39.50
   4  -4   7  774.62   35.10
   4  -4   7  737.53   31.40
  -5   4  -7  474.85   27.30
  -5   4  -7  467.65   33.50
  -5   4  -7  426.96   39.10
   5  -4   7  442.16   30.10
   5  -4   7  481.15   35.70
   5  -4   7  468.55   26.90
   5  -4   7  461.15   28.60
  -6   4  -7  196.58   22.60
  -6   4  -7  170.48   21.90
  -6   4  -7  236.98   33.10
  -6   4  -7  200.18   27.70
   6  -4   7  300.97   38.10
   6  -4   7  161.18   23.10
   6  -4   7  227.78   24.10
   6  -4   7  203.28   27.70
   6  -4   7  168.98   21.80
   6   3  -7  -20.30   22.00
   6   3  -7   17.50   17.10
   6   3  -7   39.60   18.10
  -6  -3   7    3.10   14.20
  -6  -3   7   -8.40   13.80
  -6  -3   7   14.30   16.90
  -6  -3   7   25.80   14.90
  -6  -3   7   15.30    9.70
   5   3  -7  933.81   43.20
   5   3  -7  893.71   41.80
   5   3  -7  916.71   44.90
   5   3  -7  924.11   47.10
  -5  -3   7  922.11   40.70
  -5  -3   7  906.21   43.60
  -5  -3   7  865.41   33.80
  -5  -3   7  850.31   43.70
   4   3  -7  514.85   40.90
   4   3  -7  528.75   29.60
   4   3  -7  571.84   29.90
   4   3  -7  553.94   30.80
  -4  -3   7  509.65   32.70
  -4  -3   7  568.04   32.00
  -4  -3   7  621.14   25.70
  -4  -3   7  543.05   28.40
   3   3  -7 1018.60   40.60
   3   3  -7  981.60   41.40
   3   3  -7 1009.90   43.30
  -3  -3   7 1033.60   38.80
  -3  -3   7 1018.70   36.90
  -3  -3   7  991.10   42.60
  -3  -3   7 1011.80   44.20
   2   3  -7  376.66   17.50
   2   3  -7  423.56   23.10
   2   3  -7  378.06   23.20
   2   3  -7  415.56   24.80
  -2  -3   7  368.06   20.00
  -2  -3   7  402.56   26.30
  -2  -3   7  389.36   21.30
  -2  -3   7  389.16   24.50
   1   3  -7  319.77   17.80
   1   3  -7  330.67   22.30
   1   3  -7  308.37   20.30
   1   3  -7  296.57   21.10
  -1  -3   7  320.67   18.60
  -1  -3   7  327.97   15.30
  -1  -3   7  322.67   21.40
  -1  -3   7  316.87   19.00
  -1  -3   7  350.36   21.70
   0   3  -7  194.28   15.70
   0   3  -7  190.78   15.90
   0   3  -7  167.88   15.40
   0   3  -7  175.78   14.50
   0  -3   7  185.68   17.20
   0  -3   7  206.38   17.20
   0  -3   7  179.28   14.80
   0  -3   7  179.78   14.20
  -1   3  -7  346.47   21.10
  -1   3  -7  344.37   20.40
  -1   3  -7  348.77   22.40
  -1   3  -7  325.87   18.70
   1  -3   7  328.57   19.90
   1  -3   7  324.57   22.30
   1  -3   7  335.07   20.80
   1  -3   7  341.87   18.40
  -2   3  -7  888.61   38.10
  -2   3  -7  937.51   40.40
  -2   3  -7  871.41   35.10
  -2   3  -7  853.61   37.40
   2  -3   7  818.32   35.40
   2  -3   7  888.91   38.90
   2  -3   7  935.91   34.20
   2  -3   7  924.61   37.00
   2  -3   7  883.01   35.50
  -3   3  -7   10.70    7.60
  -3   3  -7   23.50   11.10
  -3   3  -7    0.60    7.40
  -3   3  -7   -4.80   10.20
  -3   3  -7    8.90   11.40
   3  -3   7   19.10   10.30
   3  -3   7   13.70    9.60
   3  -3   7    3.10    6.90
   3  -3   7   -4.40    7.60
   3  -3   7    3.20    7.80
  -4   3  -7  229.98   18.60
  -4   3  -7  247.18   19.20
  -4   3  -7  222.18   23.10
  -4   3  -7  209.58   24.70
   4  -3   7  169.98   22.50
   4  -3   7  218.88   18.70
   4  -3   7  226.28   19.90
   4  -3   7  188.98   22.90
   4  -3   7  233.78   19.60
  -5   3  -7   33.00   12.20
  -5   3  -7   70.19   20.40
  -5   3  -7   25.40   16.30
   5  -3   7   42.40   20.80
   5  -3   7   58.29   19.20
   5  -3   7   46.90   13.40
   5  -3   7   21.60   12.10
   5  -3   7   39.20   13.20
  -6   3  -7   -0.50   13.80
  -6   3  -7    3.90   12.70
  -6   3  -7   10.10   17.00
  -6   3  -7    9.50   19.70
   6  -3   7    0.10   15.10
   6  -3   7  -33.60   22.20
   6  -3   7  -37.20   17.90
   6  -3   7    0.20   15.60
   6  -3   7   18.30   14.00
   7   2  -7   38.30   17.00
   7   2  -7  -28.30   24.70
   7   2  -7   86.99   19.70
  -7  -2   7   49.40   11.10
  -7  -2   7   52.69   15.60
  -7  -2   7   43.60   21.80
  -7  -2   7   59.49   19.00
  -7  -2   7   19.00   15.60
   6   2  -7  267.57   32.70
   6   2  -7  255.57   22.90
   6   2  -7  264.67   25.90
   6   2  -7  307.67   31.30
  -6  -2   7  258.27   22.70
  -6  -2   7  281.77   29.80
  -6  -2   7  243.38   25.20
  -6  -2   7  226.78   18.10
   5   2  -7 1471.75   58.09
   5   2  -7 1452.45   56.79
   5   2  -7 1342.07   51.09
   5   2  -7 1473.95   54.19
  -5  -2   7 1421.56   49.70
  -5  -2   7 1400.86   58.29
  -5  -2   7 1445.96   54.59
  -5  -2   7 1395.86   46.80
  -5  -2   7 1448.26   50.89
   4   2  -7   79.69   14.90
   4   2  -7   70.09    3.80
   4   2  -7   83.19   13.70
   4   2  -7   67.19   13.40
   4   2  -7   63.49   11.60
  -4  -2   7   77.49   10.80
  -4  -2   7   60.59   10.70
  -4  -2   7   60.69   15.20
  -4  -2   7   66.49   13.20
   3   2  -7  722.03   31.30
   3   2  -7  721.63   30.50
   3   2  -7  722.93   32.60
   3   2  -7  652.73   24.10
  -3  -2   7  688.13   27.70
  -3  -2   7  713.93   35.00
  -3  -2   7  712.13   29.40
  -3  -2   7  679.93   28.70
  -3  -2   7  704.13   31.90
   2   2  -7 1009.70   39.10
   2   2  -7  976.40   36.00
   2   2  -7  940.31   37.00
   2   2  -7  966.80   33.70
  -2  -2   7  910.91   37.20
  -2  -2   7  930.41   37.70
  -2  -2   7 1014.40   35.30
  -2  -2   7  998.80   35.20
  -2  -2   7  961.50   34.30
   1   2  -7 1164.98   42.60
   1   2  -7 1168.58   41.50
   1   2  -7 1187.38   41.10
  -1  -2   7 1144.59   42.40
  -1  -2   7 1192.48   40.20
  -1  -2   7 1153.48   42.80
  -1  -2   7 1182.98   40.10
   0   2  -7   55.09    9.10
   0   2  -7   56.79   10.60
   0   2  -7   48.80    9.30
   0   2  -7   55.29   10.20
   0  -2   7   39.90    9.70
   0  -2   7   43.90    8.10
   0  -2   7   42.00    8.60
   0  -2   7   35.70    9.10
  -1   2  -7  107.09   12.20
  -1   2  -7  119.89   12.30
  -1   2  -7  122.29   14.20
  -1   2  -7  104.19   14.00
   1  -2   7  117.39   11.80
   1  -2   7  125.09   11.90
   1  -2   7  100.89   12.30
   1  -2   7  102.49   10.60
   1  -2   7  104.59   14.40
  -2   2  -7 2268.87   70.39
  -2   2  -7 2416.46   77.29
   2  -2   7 2231.28   70.99
   2  -2   7 2274.77   70.19
   2  -2   7 2297.17   74.79
   2  -2   7 2274.17   69.79
   2  -2   7 2278.37   72.19
  -3   2  -7  107.79   13.80
  -3   2  -7  116.69   18.60
  -3   2  -7  126.19   18.70
  -3   2  -7  107.99   13.30
   3  -2   7   98.69   13.00
   3  -2   7  126.69   16.60
   3  -2   7   92.59   12.80
   3  -2   7  108.79   14.00
   3  -2   7  101.49   17.10
  -4   2  -7 1282.87   45.90
  -4   2  -7 1256.47   46.20
  -4   2  -7 1205.68   50.19
  -4   2  -7 1277.47   55.39
   4  -2   7 1214.78   52.59
   4  -2   7 1227.88   46.10
   4  -2   7 1280.17   47.20
   4  -2   7 1278.47   47.00
   4  -2   7 1269.97   51.69
  -5   2  -7  482.65   27.70
  -5   2  -7  558.74   33.50
   5  -2   7  520.15   36.90
   5  -2   7  514.45   29.50
   5  -2   7  547.15   31.90
   5  -2   7  546.45   34.50
  -6   2  -7  319.57   26.50
  -6   2  -7  381.86   37.90
  -6   2  -7  333.77   32.30
  -6   2  -7  416.96   31.90
   6  -2   7  339.17   27.70
   6  -2   7  408.86   33.90
   6  -2   7  386.06   37.10
   7   1  -7   50.69   13.90
   7   1  -7  135.79   26.60
   7   1  -7   85.99   17.50
  -7  -1   7   97.79   14.00
  -7  -1   7   85.59   16.50
  -7  -1   7   89.79   16.90
  -7  -1   7   83.39   18.90
   6   1  -7  829.12   40.50
   6   1  -7  758.12   42.20
   6   1  -7  803.92   36.30
   6   1  -7  752.92   33.50
  -6  -1   7  799.72   35.30
  -6  -1   7  740.93   31.40
  -6  -1   7  754.32   42.20
  -6  -1   7  734.83   35.50
  -6  -1   7  741.83   31.10
   5   1  -7  370.56   22.00
   5   1  -7  294.57   28.50
   5   1  -7  373.36   20.10
   5   1  -7  354.16   14.40
   5   1  -7  326.67   22.40
  -5  -1   7  358.56   23.30
  -5  -1   7  375.96   20.20
  -5  -1   7  340.07   19.20
  -5  -1   7  408.46   28.30
  -5  -1   7  355.96   20.00
   4   1  -7  677.83   28.50
   4   1  -7  697.63   30.10
   4   1  -7  688.13   28.70
   4   1  -7  736.83   31.80
  -4  -1   7  666.73   30.60
  -4  -1   7  659.33   27.60
  -4  -1   7  674.53   27.90
  -4  -1   7  666.23   26.00
  -4  -1   7  657.83   30.40
  -4  -1   7  662.13   33.30
   3   1  -7 1132.59   41.30
   3   1  -7 1187.08   40.00
   3   1  -7 1178.98   40.70
   3   1  -7 1134.89   40.60
  -3  -1   7 1097.79   45.40
  -3  -1   7 1183.08   41.90
  -3  -1   7 1122.29   41.40
  -3  -1   7 1133.29   38.60
  -3  -1   7 1096.39   39.10
   2   1  -7  524.95   23.00
   2   1  -7  526.65   24.10
   2   1  -7  516.95   23.50
   2   1  -7  534.45   23.60
  -2  -1   7  492.95   23.60
  -2  -1   7  520.05   23.90
  -2  -1   7  490.65   24.10
  -2  -1   7  515.95   22.70
  -2  -1   7  529.35   22.40
   1   1  -7   41.60    8.40
   1   1  -7   52.99    8.80
   1   1  -7   39.20    8.40
  -1  -1   7   39.70    7.90
  -1  -1   7   37.50    8.40
  -1  -1   7   48.60    8.50
  -1  -1   7   40.00    8.70
   0   1  -7 2392.76   72.79
   0   1  -7 2330.77   69.99
   0   1  -7 2302.37   70.09
   0   1  -7 2205.18   70.39
   0  -1   7 2375.76   70.09
   0  -1   7 2388.56   71.09
   0  -1   7 2357.66   72.29
   0  -1   7 2321.97   69.59
   0  -1   7 2284.37   67.19
  -1   1  -7   65.19   10.10
  -1   1  -7   65.29    9.60
  -1   1  -7   67.09   10.00
   1  -1   7   48.80    9.10
   1  -1   7   71.89   11.90
   1  -1   7   51.79    9.30
   1  -1   7   53.49    9.20
   1  -1   7   78.39   11.00
  -2   1  -7  385.06   21.00
  -2   1  -7  405.36   26.60
  -2   1  -7  387.66   21.70
   2  -1   7  421.46   22.10
   2  -1   7  379.36   21.20
   2  -1   7  425.56   23.50
   2  -1   7  379.06   23.90
   2  -1   7  456.25   21.80
  -3   1  -7   78.99   15.90
  -3   1  -7   76.69   11.70
  -3   1  -7   83.39   12.50
   3  -1   7   87.79   12.50
   3  -1   7   84.19   12.60
   3  -1   7  118.49   15.30
   3  -1   7   70.49   14.80
   3  -1   7   86.09   14.90
  -4   1  -7  470.65   29.60
  -4   1  -7  508.85   34.80
  -4   1  -7  473.15   25.80
  -4   1  -7  466.55   28.70
   4  -1   7  551.94   26.50
   4  -1   7  509.25   27.30
   4  -1   7  528.45   33.70
   4  -1   7  521.25   32.50
   4  -1   7  505.95   29.70
  -5   1  -7  815.42   36.90
  -5   1  -7  806.42   39.40
  -5   1  -7  852.01   48.90
  -5   1  -7  829.22   42.00
   5  -1   7  801.22   42.60
   5  -1   7  871.51   47.00
   5  -1   7  877.81   45.50
   5  -1   7  851.91   38.40
   5  -1   7  836.42   35.40
   8   0  -7  322.17   23.00
   8   0  -7  317.47   42.80
   8   0  -7  326.17   50.09
   8   0  -7  282.47   25.60
  -8   0   7  281.77   20.40
  -8   0   7  343.07   29.80
  -8   0   7  198.18   31.30
  -8   0   7  315.27   24.50
   7   0  -7    3.10    8.00
   7   0  -7   -3.00    8.90
   7   0  -7  -22.50    9.70
   7   0  -7    2.60    9.10
  -7   0   7    7.40   11.10
  -7   0   7    7.50    8.00
  -7   0   7   16.10   10.90
  -7   0   7   10.00   11.60
   6   0  -7  256.27   22.20
   6   0  -7  219.08   16.70
   6   0  -7  215.78   16.50
   6   0  -7  198.48   25.90
   6   0  -7  222.28   18.50
   6   0  -7  212.88   14.70
  -6   0   7  245.68   18.50
  -6   0   7  180.58   22.90
  -6   0   7  215.98   17.50
  -6   0   7  223.08   15.80
  -6   0   7  268.47   20.00
   5   0  -7   13.60    8.00
   5   0  -7    7.10    8.80
   5   0  -7   13.50    7.10
   5   0  -7   12.90    7.50
  -5   0   7   -0.40    7.50
  -5   0   7  -10.90    7.50
  -5   0   7   15.30    8.50
  -5   0   7    9.20    9.30
  -5   0   7   13.30    6.30
   4   0  -7  135.39   12.00
   4   0  -7  140.89   13.10
   4   0  -7  148.79   13.40
   4   0  -7  146.19   13.10
  -4   0   7  144.89   15.30
  -4   0   7  122.19    9.30
  -4   0   7  146.39   12.00
  -4   0   7  142.59   13.20
  -4   0   7  148.69   17.40
  -4   0   7  154.28   13.30
   3   0  -7  591.14   24.70
   3   0  -7  547.05   23.30
   3   0  -7  573.14   24.10
   3   0  -7  508.85   23.00
  -3   0   7  508.45   27.30
  -3   0   7  530.65   22.70
  -3   0   7  545.75   24.20
  -3   0   7  548.55   26.80
  -3   0   7  564.84   24.60
   2   0  -7  222.48   14.50
   2   0  -7  217.88   14.00
   2   0  -7  216.18   14.30
   2   0  -7  238.18   15.20
  -2   0   7  212.08   14.60
  -2   0   7  244.28   14.30
  -2   0   7  209.38    8.10
  -2   0   7  238.08   14.90
  -2   0   7  233.88   15.40
   1   0  -7 1908.01   62.19
   1   0  -7 1834.32   58.19
   1   0  -7 1836.92   57.19
   1   0  -7 1859.11   57.59
  -1   0   7 1757.92   51.69
  -1   0   7 1871.11   58.29
  -1   0   7 1936.01   58.69
  -1   0   7 1885.51   63.09
  -1   0   7 1878.81   57.79
   0   0  -7   17.60    6.60
   0   0  -7   21.60    6.90
   0   0  -7   20.10    7.00
   0   0  -7   15.00    6.50
   0   0   7    9.60    6.00
   0   0   7   12.30    4.90
   0   0   7   20.00    7.10
   0   0   7   11.80    6.40
   0   0   7   19.30    7.40
  -1   0  -7  370.76   20.70
  -1   0  -7  378.46   20.00
  -1   0  -7  385.76   20.30
   1   0   7  380.26   21.70
   1   0   7  382.96   21.10
   1   0   7  415.56   20.60
   1   0   7  369.26   19.70
   1   0   7  366.36   20.30
  -2   0  -7   57.49   11.40
  -2   0  -7   43.60   10.70
  -2   0  -7   37.90    9.50
   2   0   7   53.59   10.30
   2   0   7   46.50   11.50
   2   0   7   50.89   10.20
   2   0   7   51.09   11.60
   2   0   7   40.80   10.40
  -3   0  -7  298.37   21.00
  -3   0  -7  286.77   22.90
  -3   0  -7  278.07   25.50
  -3   0  -7  254.57   21.90
   3   0   7  272.87   24.50
   3   0   7  317.87   20.60
   3   0   7  307.17   20.20
   3   0   7  292.27   22.20
   3   0   7  309.77   23.70
  -4   0  -7  159.38   20.00
  -4   0  -7  175.18   24.30
  -4   0  -7  123.79   20.50
  -4   0  -7  161.68   18.70
   4   0   7  138.49   17.80
   4   0   7  175.88   24.50
   4   0   7  161.98   22.00
   4   0   7  142.89   16.00
  -5   0  -7  -39.50   16.40
  -5   0  -7   14.10   13.00
  -5   0  -7    8.80   14.90
  -5   0  -7   20.80   21.40
  -5   0  -7   55.39   19.90
   5   0   7   -5.90   11.70
   5   0   7   -2.60   20.10
   5   0   7   -8.20   22.50
   5   0   7    7.80   13.00
   5   0   7   -0.20   18.70
   8  -1  -7  329.47   24.80
   8  -1  -7  269.07   36.30
   8  -1  -7  374.86   23.80
   8  -1  -7  325.57   21.90
   8  -1  -7  325.37   19.70
  -8   1   7  357.56   18.00
  -8   1   7  323.27   27.90
  -8   1   7  387.46   36.60
  -8   1   7  307.87   20.10
   7  -1  -7  349.27   19.20
   7  -1  -7  336.17   22.40
   7  -1  -7  376.66   21.50
   7  -1  -7  354.26   21.40
  -7   1   7  378.46   23.60
  -7   1   7  358.56   18.00
  -7   1   7  326.17   24.70
  -7   1   7  360.46   27.70
  -7   1   7  294.17   20.10
   6  -1  -7 1401.46   46.80
   6  -1  -7 1357.76   44.40
   6  -1  -7 1344.37   45.70
   6  -1  -7 1375.46   48.80
  -6   1   7 1296.17   54.09
  -6   1   7 1382.96   46.00
  -6   1   7 1344.97   53.59
  -6   1   7 1401.36   49.30
  -6   1   7 1302.17   52.69
   5  -1  -7 1966.90   59.29
   5  -1  -7 1950.20   60.39
   5  -1  -7 1947.21   60.69
   5  -1  -7 1912.21   58.49
  -5   1   7 1862.31   66.79
  -5   1   7 1886.81   62.39
  -5   1   7 1938.01   57.69
  -5   1   7 1887.81   59.59
  -5   1   7 1912.81   56.29
  -5   1   7 1960.50   67.19
   4  -1  -7  462.75   22.50
   4  -1  -7  484.05   21.40
   4  -1  -7  476.55   21.50
   4  -1  -7  492.45   21.70
  -4   1   7  525.65   27.50
  -4   1   7  493.45   24.30
  -4   1   7  467.05   20.60
  -4   1   7  503.25   27.70
  -4   1   7  471.05   21.80
   3  -1  -7   24.50    5.80
   3  -1  -7    8.30    6.20
   3  -1  -7    7.50    5.10
   3  -1  -7    1.40    5.30
  -3   1   7   18.50    6.50
  -3   1   7    7.40    6.70
  -3   1   7   16.00    6.10
   2  -1  -7    2.20    5.10
   2  -1  -7   -0.20    5.00
   2  -1  -7   10.50    5.90
   2  -1  -7    1.90    4.70
  -2   1   7   -6.80    4.80
  -2   1   7    4.60    5.20
  -2   1   7   -6.30    4.60
  -2   1   7   -8.60    4.80
   1  -1  -7 1400.26   44.90
   1  -1  -7 1395.86   46.40
   1  -1  -7 1464.25   47.20
   1  -1  -7 1415.36   47.60
  -1   1   7 1398.96   47.50
  -1   1   7 1394.96   45.80
  -1   1   7 1473.45   47.30
  -1   1   7 1403.36   48.00
   0  -1  -7   16.60    5.80
   0  -1  -7   20.70    6.90
   0  -1  -7   18.20    6.60
   0   1   7   11.20    7.80
   0   1   7    9.60    6.50
   0   1   7   15.00    7.60
   0   1   7   14.80    7.00
  -1  -1  -7    4.90    8.30
  -1  -1  -7    9.10    6.90
  -1  -1  -7    7.90    6.80
  -1  -1  -7   17.40    7.30
   1   1   7   18.10    8.00
   1   1   7   14.90    7.60
   1   1   7    6.30    7.30
   1   1   7    6.80    8.70
   1   1   7   -7.50    7.80
  -2  -1  -7   47.20   11.60
  -2  -1  -7   41.70   12.40
  -2  -1  -7   40.00   10.10
  -2  -1  -7   47.90   10.70
   2   1   7   43.90   11.70
   2   1   7   54.39   14.10
   2   1   7   30.60    9.70
   2   1   7   51.49   11.70
  -3  -1  -7  322.37   28.70
  -3  -1  -7  317.87   22.30
  -3  -1  -7  332.97   25.20
   3   1   7  289.07   26.90
   3   1   7  346.67   25.90
   3   1   7  278.17   22.30
   3   1   7  328.37   22.30
  -4  -1  -7  381.66   52.29
  -4  -1  -7  436.66   26.30
  -4  -1  -7  407.96   34.90
  -4  -1  -7  435.36   28.30
  -4  -1  -7  487.85   38.20
   4   1   7  418.06   44.30
   4   1   7  471.65   33.80
   4   1   7  440.36   28.90
   4   1   7  422.16   26.40
   8  -2  -7  167.58   21.00
   8  -2  -7  153.68   16.20
   8  -2  -7  148.19   13.80
   8  -2  -7  177.18   31.50
   8  -2  -7  183.48   18.90
  -8   2   7  162.38   26.20
  -8   2   7  168.58   12.20
  -8   2   7  165.78   10.70
   7  -2  -7  106.29   14.00
   7  -2  -7  115.59   16.80
   7  -2  -7  130.69   14.00
   7  -2  -7   97.99   12.00
  -7   2   7  102.29   20.40
  -7   2   7  105.19   10.70
  -7   2   7  133.19   21.20
  -7   2   7   80.59   14.90
  -7   2   7  107.19   19.70
   6  -2  -7  278.07   16.60
   6  -2  -7  273.17   15.80
   6  -2  -7  314.17   18.70
   6  -2  -7  286.87   19.70
  -6   2   7  278.67   24.60
  -6   2   7  276.37   24.30
  -6   2   7  283.67   16.80
  -6   2   7  340.17   23.50
  -6   2   7  266.77   15.50
   5  -2  -7  541.45   25.60
   5  -2  -7  534.65   22.10
   5  -2  -7  593.74   23.60
   5  -2  -7  538.25   23.30
  -5   2   7  544.55   29.40
  -5   2   7  517.35   28.10
  -5   2   7  546.25   22.70
  -5   2   7  546.55   23.50
  -5   2   7  574.04   30.30
   4  -2  -7  236.98   14.90
   4  -2  -7  198.08   11.70
   4  -2  -7  208.18   15.80
   4  -2  -7  209.78   13.40
  -4   2   7  224.08   18.40
  -4   2   7  205.58   13.70
  -4   2   7  258.37   19.10
  -4   2   7  215.28   20.40
  -4   2   7  221.48   14.50
   3  -2  -7 1553.54   51.69
   3  -2  -7 1655.13   50.29
   3  -2  -7 1551.94   46.00
   3  -2  -7 1627.54   51.49
  -3   2   7 1568.94   54.19
  -3   2   7 1583.84   51.29
  -3   2   7 1598.34   50.29
  -3   2   7 1540.05   46.30
   2  -2  -7 1701.63   46.70
   2  -2  -7 1711.13   51.19
   2  -2  -7 1728.13   54.89
   2  -2  -7 1739.53   56.09
  -2   2   7 1863.21   55.69
  -2   2   7 1754.52   58.59
  -2   2   7 1730.53   51.99
  -2   2   7 1751.32   56.69
   1  -2  -7  205.58   17.20
   1  -2  -7  223.18   15.60
   1  -2  -7  228.48   12.30
   1  -2  -7  246.28   16.40
  -1   2   7  242.38   23.40
  -1   2   7  258.37   16.40
  -1   2   7  231.48   17.70
  -1   2   7  233.48   14.70
   0  -2  -7  119.69   15.50
   0  -2  -7  133.79   12.90
   0  -2  -7  144.69   14.40
   0  -2  -7  148.19   12.70
   0   2   7  131.89   16.40
   0   2   7  144.29   14.40
   0   2   7  155.78   14.40
   0   2   7  130.79   15.80
  -1  -2  -7  135.09   17.40
  -1  -2  -7  131.49   13.10
  -1  -2  -7  124.79   14.00
  -1  -2  -7  108.79   14.70
   1   2   7  112.39   14.70
   1   2   7  132.29   15.30
   1   2   7  132.39   16.00
   1   2   7   99.39   19.80
  -2  -2  -7 1428.56   52.19
  -2  -2  -7 1439.16   53.69
  -2  -2  -7 1399.66   48.20
   2   2   7 1394.26   51.79
   2   2   7 1445.36   53.79
   2   2   7 1464.45   58.39
   2   2   7 1429.36   51.59
  -3  -2  -7   55.99   14.80
  -3  -2  -7   64.39   16.60
   3   2   7   37.80   13.50
   3   2   7   36.70   19.70
   3   2   7   28.90   15.10
   3   2   7   32.70   13.40
  -4  -2  -7   86.69   24.30
  -4  -2  -7  105.09   22.30
  -4  -2  -7  140.19   18.70
  -4  -2  -7   92.69   18.90
   4   2   7  132.79   17.50
   4   2   7  125.69   28.00
   4   2   7  114.79   23.20
   4   2   7  108.29   18.60
   9  -3  -7   51.19   35.90
   9  -3  -7   95.09   24.20
   9  -3  -7   78.99    6.20
   9  -3  -7   71.99    5.60
   9  -3  -7   81.79   15.30
  -9   3   7   43.40   22.90
   8  -3  -7    3.10    7.40
   8  -3  -7   15.40   17.90
   8  -3  -7   11.50   12.00
  -8   3   7    3.20   16.70
   7  -3  -7   24.40    7.50
   7  -3  -7   45.90   10.40
   7  -3  -7   26.10    9.00
   7  -3  -7   16.90   10.40
   7  -3  -7   20.70   13.70
  -7   3   7   22.50    6.80
  -7   3   7   26.70    6.80
  -7   3   7   26.80   12.90
  -7   3   7   27.30   14.70
   6  -3  -7  567.94   27.50
   6  -3  -7  555.94   22.60
   6  -3  -7  501.85   20.30
   6  -3  -7  492.85   20.70
  -6   3   7  511.35   22.40
  -6   3   7  518.75   32.00
  -6   3   7  554.54   30.70
  -6   3   7  507.85   32.60
   5  -3  -7  588.24   24.20
   5  -3  -7  617.34   19.70
   5  -3  -7  585.14   19.70
   5  -3  -7  617.94   27.90
  -5   3   7  583.44   33.50
  -5   3   7  586.34   31.80
  -5   3   7  596.64   24.60
  -5   3   7  626.24   25.90
  -5   3   7  653.63   31.20
   4  -3  -7  329.47   16.90
   4  -3  -7  281.37   18.10
   4  -3  -7  295.17    8.90
  -4   3   7  312.37   17.30
  -4   3   7  291.47   18.20
  -4   3   7  319.17   20.70
   3  -3  -7 1584.94   49.00
   3  -3  -7 1750.12   57.59
   3  -3  -7 1739.63   56.99
   3  -3  -7 1804.12   55.29
  -3   3   7 1767.82   62.49
  -3   3   7 1785.72   55.29
  -3   3   7 1811.62   58.09
  -3   3   7 1709.53   48.70
   2  -3  -7   19.10    7.90
   2  -3  -7   22.40    8.70
   2  -3  -7   24.90    5.00
   2  -3  -7   29.90    9.40
  -2   3   7    6.50    7.10
  -2   3   7   17.50   11.20
  -2   3   7   24.50    6.40
   1  -3  -7   81.59    9.90
   1  -3  -7  106.39   15.20
   1  -3  -7   89.99   12.60
   1  -3  -7   80.99   11.80
  -1   3   7   89.59   10.90
  -1   3   7   85.79   15.20
  -1   3   7  104.09   15.20
  -1   3   7   81.89   12.00
   0  -3  -7  126.19   15.70
   0  -3  -7  105.59   16.90
   0  -3  -7  120.99   13.10
   0  -3  -7  124.89   13.50
   0   3   7  123.79   14.80
   0   3   7  135.39   18.20
   0   3   7  138.89   18.00
   0   3   7  114.59   14.80
  -1  -3  -7    1.00    9.50
  -1  -3  -7   11.50    8.20
  -1  -3  -7    6.00    9.20
  -1  -3  -7   -7.00   12.10
   1   3   7    4.30    9.40
   1   3   7  -19.50   11.80
   1   3   7  -28.50   13.40
   1   3   7   -5.90    9.00
  -2  -3  -7    2.20   11.50
  -2  -3  -7   20.70   11.80
  -2  -3  -7  -14.10    8.50
   2   3   7    4.00   19.00
   2   3   7    2.50   13.20
   2   3   7  -20.30   16.20
   2   3   7    1.30   11.80
  -3  -3  -7   10.80   11.20
  -3  -3  -7  -18.80   21.00
  -3  -3  -7   17.50   16.50
  -3  -3  -7   19.20   14.80
   3   3   7   18.90   23.70
   3   3   7   22.50   16.90
   3   3   7   21.10   15.00
   3   3   7   15.10   14.90
   9  -4  -7   17.90   12.80
   9  -4  -7   21.40   25.40
   9  -4  -7   11.70   16.00
   9  -4  -7   17.60   15.50
  -9   4   7   55.69   21.10
   8  -4  -7  168.88   25.60
   8  -4  -7  159.98   19.30
   8  -4  -7  166.98   13.80
   8  -4  -7  188.08   17.20
   8  -4  -7  221.38   18.60
   8  -4  -7  180.28   13.60
   8  -4  -7  203.18   21.90
  -8   4   7  209.08   25.00
  -8   4   7  214.58   27.70
   7  -4  -7  408.66   17.70
   7  -4  -7  451.35   20.80
   7  -4  -7  417.56   17.80
   7  -4  -7  468.55   27.40
   7  -4  -7  432.46   22.10
   7  -4  -7  429.66   19.90
  -7   4   7  461.05   19.90
  -7   4   7  508.95   31.10
  -7   4   7  487.35   34.20
  -7   4   7  425.46   18.90
   6  -4  -7  832.42   28.10
   6  -4  -7  792.72   35.70
   6  -4  -7  765.42   30.70
   6  -4  -7  822.42   29.70
  -6   4   7  674.33   36.00
  -6   4   7  814.22   41.70
  -6   4   7  830.52   37.70
   5  -4  -7    3.10    4.10
   5  -4  -7   -0.80    7.70
   5  -4  -7   13.10    6.40
   5  -4  -7   -1.40    9.20
  -5   4   7    9.60    8.00
  -5   4   7  -10.70   12.10
  -5   4   7    4.90    6.10
  -5   4   7   -2.40   10.90
  -5   4   7   -4.90    8.70
   4  -4  -7  220.38   17.90
   4  -4  -7  200.98   15.50
   4  -4  -7  201.08   17.70
  -4   4   7  245.38   15.90
  -4   4   7  249.18   19.40
  -4   4   7  215.88   23.40
  -4   4   7  192.58   17.20
   3  -4  -7  119.69   15.60
   3  -4  -7  104.69   12.80
   3  -4  -7  102.89   12.90
  -3   4   7   73.49   13.90
  -3   4   7   98.29   12.50
  -3   4   7   98.79   17.50
   2  -4  -7  263.17   19.30
   2  -4  -7  251.97   22.00
   2  -4  -7  238.58   14.40
   2  -4  -7  244.28   18.50
  -2   4   7  228.78   22.10
  -2   4   7  354.06   26.20
  -2   4   7  310.17   19.90
  -2   4   7  270.37   14.80
   1  -4  -7    1.30    9.50
   1  -4  -7    9.70    8.60
   1  -4  -7   10.60    7.00
   1  -4  -7   20.70    9.50
  -1   4   7   14.40    9.50
  -1   4   7   16.50   13.20
  -1   4   7  -26.10   10.40
  -1   4   7   -3.30    6.20
   0  -4  -7   -2.90    7.60
   0  -4  -7   -4.20   13.70
   0  -4  -7   -0.50    8.10
   0  -4  -7    8.10    9.40
   0   4   7   20.10   14.50
   0   4   7    8.10   14.00
   0   4   7    6.70   10.70
   0   4   7   13.30    9.20
  -1  -4  -7   15.50   11.00
  -1  -4  -7   39.30   17.50
  -1  -4  -7   20.00   12.70
  -1  -4  -7    5.80    9.70
   1   4   7   -8.20   18.70
   1   4   7   12.90   12.30
   1   4   7   18.20   12.80
   1   4   7    7.80   15.00
  -2  -4  -7   43.60   15.80
  -2  -4  -7   38.80   23.00
  -2  -4  -7   70.49   17.70
  -2  -4  -7   35.00   12.60
   2   4   7   11.40   15.50
   2   4   7   30.30   16.10
   2   4   7    0.60   24.40
   8  -5  -7 1000.10   32.60
   8  -5  -7  932.91   53.69
   8  -5  -7  920.91   27.60
   8  -5  -7 1051.19   46.20
   8  -5  -7  972.80   39.70
  -8   5   7 1008.10   48.70
  -8   5   7 1068.19   52.89
   7  -5  -7   56.99   10.70
   7  -5  -7   79.29   16.60
   7  -5  -7   66.89   11.10
   7  -5  -7   50.09    9.00
  -7   5   7   52.79   10.40
  -7   5   7   62.29   16.50
   6  -5  -7  846.82   31.70
   6  -5  -7  831.92   38.90
   6  -5  -7  846.72   34.70
   6  -5  -7  758.22   30.10
  -6   5   7  800.22   37.90
  -6   5   7  805.72   36.10
  -6   5   7  835.52   44.50
  -6   5   7  882.51   35.00
  -6   5   7  870.81   31.90
   5  -5  -7  172.78   19.90
   5  -5  -7  174.68   15.60
   5  -5  -7  165.48   18.80
  -5   5   7  187.28   17.00
  -5   5   7  175.98   24.20
  -5   5   7  193.28   17.30
  -5   5   7  202.28   20.10
  -5   5   7  157.38   15.60
   4  -5  -7 1394.76   52.49
   4  -5  -7 1428.86   49.50
   4  -5  -7 1406.36   53.59
  -4   5   7 1457.45   63.49
  -4   5   7 1482.45   49.00
  -4   5   7 1438.86   53.59
  -4   5   7 1449.76   49.40
   3  -5  -7  419.36   24.00
   3  -5  -7  370.46   25.00
   3  -5  -7  405.86   27.30
  -3   5   7  428.76   24.60
  -3   5   7  427.76   31.70
   2  -5  -7  568.64   34.20
   2  -5  -7  603.74   30.40
   2  -5  -7  610.04   26.50
   2  -5  -7  595.64   30.70
  -2   5   7  582.44   30.40
  -2   5   7  632.64   37.20
  -2   5   7  587.94   23.90
   1  -5  -7   29.80   11.80
   1  -5  -7   28.80   10.30
   1  -5  -7   26.40   12.30
   1  -5  -7   45.80   15.60
  -1   5   7   19.90    9.50
  -1   5   7   30.30   19.20
  -1   5   7   50.09   13.60
   0  -5  -7   -8.30   17.90
   0  -5  -7   -2.60   12.90
   0  -5  -7   -3.00   10.50
   0  -5  -7    8.10   10.70
   0   5   7   29.00   12.10
   0   5   7    6.30   13.60
   0   5   7   41.00   21.10
  -1  -5  -7    4.90   15.30
  -1  -5  -7   -0.60   12.20
  -1  -5  -7   14.20   14.30
  -1  -5  -7   30.90   24.70
   1   5   7   47.00   25.60
   1   5   7   29.90   15.10
   1   5   7    6.00   14.20
   1   5   7    8.00   17.90
   8  -6  -7   -5.40   12.30
   8  -6  -7    9.00    7.60
   8  -6  -7   -2.10   25.10
   8  -6  -7   20.10   16.60
   8  -6  -7    0.30    9.80
  -8   6   7    6.60    5.90
  -8   6   7  -14.50   19.30
   7  -6  -7   80.29   14.00
   7  -6  -7   69.79   11.30
   7  -6  -7   66.69   12.80
   7  -6  -7   40.00   16.20
  -7   6   7   50.69   15.40
  -7   6   7   79.79   21.00
  -7   6   7   69.19   13.20
  -7   6   7   60.59   16.00
  -7   6   7   36.20   11.10
   6  -6  -7  407.56   36.00
   6  -6  -7  425.16   26.90
   6  -6  -7  429.66   23.00
   6  -6  -7  421.46   23.00
  -6   6   7  435.16   36.60
  -6   6   7  395.66   27.70
  -6   6   7  393.06   28.10
  -6   6   7  423.86   25.10
  -6   6   7  428.66   23.20
   5  -6  -7  237.98   23.80
   5  -6  -7  233.28   23.90
   5  -6  -7  221.48   18.80
  -5   6   7  217.48   21.60
  -5   6   7  251.87   18.50
  -5   6   7  266.57   20.20
  -5   6   7  226.08   23.20
   4  -6  -7   11.60   10.10
   4  -6  -7   14.60   13.00
   4  -6  -7    3.10   12.40
  -4   6   7   14.70   10.70
  -4   6   7   16.60   10.60
  -4   6   7   13.50    8.10
   3  -6  -7   46.20   13.30
   3  -6  -7   19.70   16.00
   3  -6  -7   34.90   13.20
  -3   6   7   39.00    6.20
  -3   6   7   38.10    9.50
  -3   6   7   43.50   13.10
   2  -6  -7   70.49   19.60
   2  -6  -7   79.09   16.50
  -2   6   7   77.39   11.00
  -2   6   7   44.20   22.00
  -2   6   7   92.89   17.00
   1  -6  -7  141.99   19.80
   1  -6  -7  138.89   20.50
   1  -6  -7  147.99   19.40
   1  -6  -7  150.48   26.10
  -1   6   7  140.29   20.20
  -1   6   7  143.19   29.80
  -1   6   7  147.79   19.10
   0  -6  -7  130.39   19.70
   0  -6  -7  122.69   30.10
   0  -6  -7  134.59   22.40
   0  -6  -7  135.09   20.60
   0   6   7  123.39   20.10
   0   6   7  131.89   22.30
   0   6   7  147.49   19.70
   0   6   7  117.89   30.50
   7  -7  -7   36.60   14.60
   7  -7  -7   24.30   14.20
   7  -7  -7   17.60   17.00
   7  -7  -7   16.80   14.30
  -7   7   7   -8.50   20.30
  -7   7   7   25.00   16.20
   6  -7  -7  164.48   20.70
   6  -7  -7  152.48   18.10
   6  -7  -7  161.48   24.50
  -6   7   7  164.78   23.40
  -6   7   7  132.39   25.60
  -6   7   7  160.58   20.10
   5  -7  -7    1.10   14.80
   5  -7  -7    2.20   11.50
   5  -7  -7    3.70   15.40
  -5   7   7    7.30   11.80
  -5   7   7  -12.30   11.60
  -5   7   7   -1.50   18.80
   4  -7  -7   25.30   19.20
   4  -7  -7   -2.40   12.20
   4  -7  -7    5.70   13.70
  -4   7   7   19.70   14.00
  -4   7   7   20.30   12.70
  -4   7   7   40.40   21.00
   3  -7  -7  718.83   40.10
   3  -7  -7  742.23   38.30
   3  -7  -7  694.23   46.70
  -3   7   7  723.63   51.09
  -3   7   7  787.12   38.90
  -3   7   7  708.13   26.00
  -3   7   7  674.93   24.80
  -3   7   7  642.94   21.00
   2  -7  -7   63.99   24.20
   2  -7  -7    7.10   15.20
   2  -7  -7   28.80   16.70
  -2   7   7    6.50   15.50
  -2   7   7   -1.40   10.50
  -2   7   7   -0.20    8.40
  -2   7   7   33.50   28.30
   5  -8  -7   45.70   22.80
   5  -8  -7   39.00   16.20
   5  -8  -7   52.99   18.30
  -5   8   7   82.09   19.40
  -5   8   7   67.19   18.40
   0   8  -8   23.10   23.50
   0  -8   8   18.80   21.20
   0  -8   8   -1.30   17.90
   0  -8   8   36.20   21.00
  -1   8  -8  325.67   37.70
  -1   8  -8  340.77   37.80
  -1   8  -8  222.78   41.60
   1  -8   8  401.76   34.80
   1  -8   8  329.17   35.70
   1  -8   8  363.66   35.60
  -2   8  -8   18.40   22.50
  -2   8  -8   42.00   21.00
  -2   8  -8   44.20   22.50
  -2   8  -8   71.99   26.90
   2  -8   8   53.39   20.30
   2  -8   8   41.80   21.80
   2  -8   8   34.90   20.30
  -3   8  -8  147.09   31.10
  -3   8  -8  152.38   28.20
  -3   8  -8  157.08   31.40
   3  -8   8  125.89   25.40
   3  -8   8  181.78   30.30
   3  -8   8  200.68   30.10
   3  -8   8  161.68   24.20
   2   7  -8   11.40   17.20
   2   7  -8  -28.50   20.20
   2   7  -8   22.80   25.20
  -2  -7   8  -37.70   16.40
  -2  -7   8    6.60   21.30
  -2  -7   8  -20.00   21.10
  -2  -7   8   40.30   21.30
   1   7  -8  280.77   34.90
   1   7  -8  302.87   34.80
   1   7  -8  311.57   36.30
   1   7  -8  291.87   32.30
  -1  -7   8  373.46   33.20
  -1  -7   8  380.16   33.00
  -1  -7   8  307.87   36.10
  -1  -7   8  328.27   29.50
   0   7  -8  343.27   35.00
   0   7  -8  234.98   30.80
   0   7  -8  238.18   31.50
   0  -7   8  236.88   29.30
   0  -7   8  235.48   28.10
   0  -7   8  308.37   31.50
  -1   7  -8  541.25   39.20
  -1   7  -8  466.75   36.80
  -1   7  -8  463.95   38.40
   1  -7   8  370.56   39.90
   1  -7   8  509.55   33.00
   1  -7   8  489.65   38.10
  -2   7  -8  773.32   44.10
  -2   7  -8  641.34   45.10
  -2   7  -8  714.33   41.50
  -2   7  -8  752.12   42.10
   2  -7   8  729.43   40.70
   2  -7   8  665.33   43.10
   2  -7   8  664.73   49.50
   2  -7   8  705.83   38.30
  -3   7  -8   22.30   19.30
  -3   7  -8   35.40   17.40
  -3   7  -8   44.00   16.90
  -3   7  -8   42.60   19.50
  -3   7  -8   17.70   17.90
   3  -7   8   15.60   18.10
   3  -7   8    6.80   16.70
   3  -7   8   43.50   19.70
  -4   7  -8   18.60   17.80
  -4   7  -8    1.10   14.50
  -4   7  -8  -36.50   19.10
  -4   7  -8   34.90   22.00
   4  -7   8   26.20   18.10
   4  -7   8   21.50   20.40
   4  -7   8   -3.80   14.00
  -5   7  -8    1.60   18.20
  -5   7  -8   33.90   20.50
  -5   7  -8   15.90   24.00
  -5   7  -8   30.80   22.70
   5  -7   8   17.20   13.50
   5  -7   8   27.50   15.90
   5  -7   8   22.60   20.20
   5  -7   8   69.29   25.20
   3   6  -8   12.20   19.40
   3   6  -8   48.00   26.90
   3   6  -8   11.30   21.90
   3   6  -8   41.00   18.10
  -3  -6   8   16.30   14.80
  -3  -6   8   26.60   19.90
  -3  -6   8   34.90   20.80
  -3  -6   8   19.90   18.50
   2   6  -8  497.45   36.60
   2   6  -8  577.54   38.50
  -2  -6   8  554.64   39.60
  -2  -6   8  522.95   35.10
  -2  -6   8  576.74   36.00
  -2  -6   8  534.35   33.00
   1   6  -8  110.39   20.20
   1   6  -8   96.09   20.60
   1   6  -8  112.99   23.00
  -1  -6   8   97.19   21.40
  -1  -6   8  116.19   17.60
  -1  -6   8  119.49   18.60
  -1  -6   8  105.99   21.70
   0   6  -8   -4.10   24.90
   0   6  -8   -1.30   10.40
   0   6  -8   16.20   14.10
   0   6  -8   12.20   14.40
   0  -6   8    6.90   12.50
   0  -6   8   23.20   12.50
   0  -6   8   19.90   15.20
  -1   6  -8  154.18   20.00
  -1   6  -8  169.08   26.90
  -1   6  -8  146.79   21.20
   1  -6   8  179.58   23.80
   1  -6   8  154.08   22.40
   1  -6   8  170.78   19.90
  -2   6  -8   31.90   13.50
  -2   6  -8   13.90   14.00
  -2   6  -8   23.20   14.80
   2  -6   8   15.40   14.70
   2  -6   8   28.90   14.80
  -3   6  -8   34.00   14.40
  -3   6  -8   32.50   15.80
  -3   6  -8   28.80   14.80
   3  -6   8   46.40   15.90
   3  -6   8   31.20   13.10
   3  -6   8   -5.00   15.00
  -4   6  -8   47.00   21.70
  -4   6  -8   40.60   14.30
  -4   6  -8   35.50   18.80
  -4   6  -8   19.90   19.60
  -4   6  -8   59.69   16.80
   4  -6   8   18.90   18.90
   4  -6   8   39.80   12.90
   4  -6   8    9.40   18.60
   4  -6   8   33.00   10.60
   4  -6   8   58.09   19.80
  -5   6  -8   26.70   21.70
  -5   6  -8   69.79   24.40
  -5   6  -8   80.49   21.90
  -5   6  -8   74.89   16.10
  -5   6  -8   76.49   18.20
   5  -6   8   81.99   16.60
   5  -6   8   52.99   16.60
   5  -6   8   43.60   21.40
   5  -6   8   38.40   24.80
   5  -6   8   86.09   20.90
   5  -6   8   56.79   21.80
   4   5  -8  160.98   22.20
   4   5  -8  138.59   29.10
   4   5  -8  242.78   30.40
   4   5  -8  195.38   26.70
   4   5  -8  120.19   21.70
  -4  -5   8  150.68   22.20
  -4  -5   8  208.38   28.80
  -4  -5   8  202.78   22.20
  -4  -5   8  146.69   25.60
   3   5  -8   34.70   15.20
   3   5  -8   19.40   16.90
   3   5  -8   25.30   15.90
  -3  -5   8   69.89   15.70
  -3  -5   8   20.60   15.80
  -3  -5   8   55.49   18.80
  -3  -5   8   64.49   13.50
   2   5  -8  953.50   48.10
   2   5  -8  985.10   45.40
   2   5  -8 1053.89   47.90
  -2  -5   8  996.20   43.00
  -2  -5   8  988.10   48.70
  -2  -5   8 1044.10   41.40
  -2  -5   8  966.00   46.70
   1   5  -8   40.80   16.60
   1   5  -8   30.40   12.10
   1   5  -8   25.50    9.80
   1   5  -8   26.10   12.20
  -1  -5   8   18.70   14.10
  -1  -5   8   48.20   12.70
  -1  -5   8   46.60   12.40
   0   5  -8  380.26   27.00
   0   5  -8  336.97   29.00
   0   5  -8  309.27   23.10
   0   5  -8  424.66   25.70
   0  -5   8  394.76   24.70
   0  -5   8  358.16   27.70
   0  -5   8  325.17   21.70
   0  -5   8  359.26   27.40
  -1   5  -8 1645.54   62.09
  -1   5  -8 1805.22   70.09
  -1   5  -8 1721.33   62.19
  -1   5  -8 1670.13   69.09
   1  -5   8 1696.33   64.09
   1  -5   8 1748.03   65.39
   1  -5   8 1767.02   59.49
  -2   5  -8   51.29   17.40
  -2   5  -8   47.40   18.00
  -2   5  -8   19.80   11.30
  -2   5  -8   39.00   13.50
   2  -5   8   43.70   11.00
   2  -5   8   25.30   13.70
   2  -5   8   51.69   13.80
   2  -5   8   29.10   11.90
  -3   5  -8    4.30   11.30
  -3   5  -8   -4.50    9.70
  -3   5  -8  -11.40   13.00
  -3   5  -8   11.10   10.90
   3  -5   8    7.40   12.00
   3  -5   8    7.90   12.80
   3  -5   8  -15.70   13.30
   3  -5   8   19.80   10.50
   3  -5   8  -14.90   13.40
  -4   5  -8   82.59   15.90
  -4   5  -8  108.49   20.20
  -4   5  -8   88.79   22.30
   4  -5   8  114.49   15.80
   4  -5   8  108.59   18.80
   4  -5   8   93.49   17.20
  -5   5  -8   40.00   22.00
  -5   5  -8   49.40   19.60
  -5   5  -8   79.59   23.90
  -5   5  -8   20.70   14.50
  -5   5  -8   28.00   15.50
   5  -5   8   29.00   16.00
   5  -5   8   -0.80   17.60
   5  -5   8   40.30   22.30
   5  -5   8   49.50   14.00
   5  -5   8   10.90   18.20
   5   4  -8   57.99   20.80
   5   4  -8   41.90   23.00
   5   4  -8   68.99   20.00
   5   4  -8   -1.50   17.00
  -5  -4   8   53.89   17.00
  -5  -4   8   38.40   14.80
  -5  -4   8   48.60   20.30
  -5  -4   8   26.20   18.60
  -5  -4   8   46.00   13.90
   4   4  -8  448.56   42.10
   4   4  -8  475.95   33.30
   4   4  -8  480.25   33.50
  -4  -4   8  521.75   35.50
  -4  -4   8  414.16   33.50
  -4  -4   8  460.25   26.50
   3   4  -8   70.39   18.00
   3   4  -8   99.59   16.10
   3   4  -8   73.59   16.00
  -3  -4   8   59.59   15.70
  -3  -4   8   72.29   17.60
  -3  -4   8   93.69   18.60
  -3  -4   8   54.19   12.00
   2   4  -8  139.59   18.70
   2   4  -8  178.38   21.90
   2   4  -8  136.59   12.90
   2   4  -8  160.28   20.10
  -2  -4   8  144.49   16.20
  -2  -4   8  153.88   21.50
  -2  -4   8  142.09   17.70
  -2  -4   8  159.18   20.30
   1   4  -8  416.56   22.50
   1   4  -8  385.46   25.00
   1   4  -8  450.95   26.90
   1   4  -8  397.36   26.00
  -1  -4   8  426.06   26.20
  -1  -4   8  435.36   28.20
  -1  -4   8  399.96   23.60
  -1  -4   8  411.26   24.10
   0   4  -8  333.37   21.70
   0   4  -8  313.87   21.70
   0   4  -8  356.96   24.30
   0   4  -8  374.96   25.50
   0  -4   8  315.47   24.50
   0  -4   8  342.27   21.20
   0  -4   8  344.47   24.50
   0  -4   8  284.27   21.30
   0  -4   8  314.27   14.10
  -1   4  -8 1815.22   62.79
  -1   4  -8 1829.12   60.39
  -1   4  -8 1855.61   64.19
  -1   4  -8 1910.81   64.99
   1  -4   8 1824.52   65.99
   1  -4   8 1813.02   64.19
   1  -4   8 1764.02   60.99
   1  -4   8 1735.33   59.09
  -2   4  -8  495.25   27.40
  -2   4  -8  487.95   30.80
  -2   4  -8  456.25   29.10
  -2   4  -8  509.15   25.80
  -2   4  -8  465.55   32.60
   2  -4   8  484.35   30.40
   2  -4   8  427.86   27.90
   2  -4   8  445.86   26.30
   2  -4   8  489.75   25.10
  -3   4  -8  321.27   22.10
  -3   4  -8  297.27   23.00
  -3   4  -8  309.27   28.80
  -3   4  -8  268.97   27.20
   3  -4   8  323.07   27.30
   3  -4   8  312.97   23.70
   3  -4   8  315.57   23.80
   3  -4   8  310.57   25.80
   3  -4   8  323.27   21.00
  -4   4  -8  258.77   26.90
  -4   4  -8  235.08   29.90
  -4   4  -8  268.47   23.70
   4  -4   8  259.87   26.00
   4  -4   8  235.18   20.70
   4  -4   8  279.07   28.20
   4  -4   8  286.87   25.20
  -5   4  -8   24.50   17.40
  -5   4  -8   59.19   20.40
  -5   4  -8   51.79   14.70
   5  -4   8   50.99   15.90
   5  -4   8   -3.00   18.00
   5  -4   8   59.59   18.30
   5  -4   8   28.00   13.50
   5  -4   8   29.80   16.00
   6   3  -8  150.08   27.30
   6   3  -8   99.09   28.20
   6   3  -8  140.89   22.90
  -6  -3   8  188.58   20.20
  -6  -3   8  164.28   21.00
  -6  -3   8  144.89   27.80
  -6  -3   8  137.19   20.80
  -6  -3   8  191.38   25.50
   5   3  -8  154.78   20.60
   5   3  -8  139.69   21.60
   5   3  -8  164.28   24.70
   5   3  -8  137.09   21.30
  -5  -3   8  157.08   30.20
  -5  -3   8  166.68   18.40
  -5  -3   8  159.98   23.00
  -5  -3   8  171.18   19.90
  -5  -3   8  176.48   25.80
   4   3  -8  129.79   17.70
   4   3  -8  125.99   21.00
   4   3  -8  132.49   19.10
  -4  -3   8  156.58   22.60
  -4  -3   8  155.78   17.10
  -4  -3   8  138.69   20.20
   3   3  -8  153.38   18.50
   3   3  -8  169.58   24.00
   3   3  -8  167.78   19.00
   3   3  -8  164.38   11.20
  -3  -3   8  162.58   15.30
  -3  -3   8  149.29   19.60
  -3  -3   8  176.08   16.60
  -3  -3   8  163.48   21.30
   2   3  -8  634.14   26.30
   2   3  -8  609.54   32.30
   2   3  -8  636.44   30.00
   2   3  -8  633.24   31.40
  -2  -3   8  592.24   28.20
  -2  -3   8  640.54   25.70
  -2  -3   8  640.24   32.30
  -2  -3   8  629.44   28.80
   1   3  -8 1213.48   45.90
   1   3  -8 1204.38   43.80
   1   3  -8 1217.48   43.80
  -1  -3   8 1216.18   43.00
  -1  -3   8 1173.08   46.70
  -1  -3   8 1185.48   46.90
  -1  -3   8 1176.18   39.30
   0   3  -8  256.27   19.00
   0   3  -8  303.27   20.60
   0  -3   8  245.78   18.50
   0  -3   8  264.37   17.80
   0  -3   8  246.08   20.60
   0  -3   8  239.38   20.10
  -1   3  -8  127.39   15.50
  -1   3  -8  106.69   13.70
  -1   3  -8  129.99   17.20
  -1   3  -8  133.39   17.50
   1  -3   8  133.59   17.70
   1  -3   8  119.59   16.00
   1  -3   8  123.29   15.10
   1  -3   8  115.79   13.80
  -2   3  -8  323.17   21.00
  -2   3  -8  376.16   23.50
  -2   3  -8  368.46   22.60
  -2   3  -8  317.07   25.50
   2  -3   8  329.17   20.60
   2  -3   8  307.07   21.80
   2  -3   8  341.17   25.00
   2  -3   8  304.77   22.60
   2  -3   8  353.76   21.80
  -3   3  -8  448.16   25.00
  -3   3  -8  528.25   27.70
  -3   3  -8  499.85   31.00
  -3   3  -8  445.36   31.30
   3  -3   8  477.95   31.70
   3  -3   8  495.65   30.70
   3  -3   8  464.75   27.10
   3  -3   8  502.85   27.10
   3  -3   8  490.55   25.90
  -4   3  -8   60.69   18.10
  -4   3  -8   47.00   17.10
  -4   3  -8   37.70   12.50
   4  -3   8   32.80   15.60
   4  -3   8   35.10   14.00
   4  -3   8   29.60   16.30
   4  -3   8   38.20   12.90
   4  -3   8   28.10   12.40
  -5   3  -8  126.29   18.20
  -5   3  -8  113.69   22.40
  -5   3  -8  151.08   19.20
  -5   3  -8  127.79   24.90
   5  -3   8   88.49   22.10
   5  -3   8  172.58   21.50
   5  -3   8  101.99   17.40
   5  -3   8  135.39   19.50
   5  -3   8  106.49   22.20
   7   2  -8    2.10   25.50
   7   2  -8   19.10   16.50
   7   2  -8   47.80   26.80
   7   2  -8   49.30   18.00
  -7  -2   8   25.60   18.50
  -7  -2   8   11.50   19.40
  -7  -2   8   -2.60   14.70
  -7  -2   8    8.20   15.30
  -7  -2   8   27.10   12.90
   6   2  -8   97.89   17.10
   6   2  -8  127.49   24.00
   6   2  -8  103.79   23.30
   6   2  -8   83.69   20.50
  -6  -2   8   89.39   18.30
  -6  -2   8   93.69   16.70
  -6  -2   8   71.69   22.40
  -6  -2   8   86.69   14.30
   5   2  -8  357.16   29.10
   5   2  -8  335.77   25.50
   5   2  -8  305.27   24.50
  -5  -2   8  377.66   30.50
  -5  -2   8  366.16   22.20
  -5  -2   8  399.96   22.90
  -5  -2   8  319.47   26.00
  -5  -2   8  386.76   23.90
   4   2  -8   46.60   14.40
   4   2  -8   67.89   13.10
   4   2  -8   58.79   12.10
   4   2  -8   54.59    7.00
  -4  -2   8   63.79   11.30
  -4  -2   8   77.89   17.10
  -4  -2   8   52.79   10.50
  -4  -2   8   57.29   13.60
   3   2  -8  193.88   14.10
   3   2  -8  200.08   19.60
   3   2  -8  221.38   17.50
   3   2  -8  234.78   18.80
  -3  -2   8  223.28   16.10
  -3  -2   8  230.08   16.60
  -3  -2   8  205.58   16.80
  -3  -2   8  212.78   20.10
  -3  -2   8  225.28   22.10
   2   2  -8  877.51   32.90
   2   2  -8  870.51   34.30
   2   2  -8  877.31   35.60
   2   2  -8  878.71   36.70
  -2  -2   8  838.92   33.30
  -2  -2   8  818.32   35.70
  -2  -2   8  899.11   33.50
  -2  -2   8  802.52   32.60
  -2  -2   8  813.52   35.90
   1   2  -8  104.99   13.50
   1   2  -8   99.99   12.60
   1   2  -8  106.49   13.00
  -1  -2   8   94.89   12.10
  -1  -2   8   87.79   12.30
  -1  -2   8   75.99   11.90
  -1  -2   8  107.29   14.50
   0   2  -8 2318.37   72.09
   0   2  -8 2272.97   72.99
   0   2  -8 2417.86   75.29
   0   2  -8 2284.37   75.29
   0  -2   8 2379.46   71.69
   0  -2   8 2432.96   76.39
   0  -2   8 2327.87   71.99
   0  -2   8 2332.47   74.39
  -1   2  -8 1643.34   55.39
  -1   2  -8 1659.43   56.39
  -1   2  -8 1727.53   61.09
   1  -2   8 1648.83   59.29
   1  -2   8 1635.64   61.09
   1  -2   8 1697.63   55.39
   1  -2   8 1736.53   55.59
   1  -2   8 1687.23   57.39
  -2   2  -8   13.90    8.70
  -2   2  -8    8.70   10.70
  -2   2  -8   22.40   10.40
  -2   2  -8    4.90    9.10
   2  -2   8   22.50    9.60
   2  -2   8   17.60    9.50
   2  -2   8   22.00   11.20
   2  -2   8   16.90    8.40
   2  -2   8   22.90    9.00
  -3   2  -8   58.79   12.30
  -3   2  -8   91.99   17.30
  -3   2  -8   52.09   11.60
   3  -2   8   42.60   11.70
   3  -2   8   24.90   13.50
   3  -2   8   48.80   12.00
   3  -2   8   46.70   13.50
   3  -2   8   70.09   13.00
  -4   2  -8   77.69   20.90
  -4   2  -8    6.70   10.60
  -4   2  -8   33.60   15.00
   4  -2   8   -4.10   10.70
   4  -2   8   11.20   12.40
   4  -2   8    5.30   12.10
   4  -2   8  -15.50   17.00
   4  -2   8   10.00   17.90
  -5   2  -8   18.40   16.20
  -5   2  -8   50.59   21.90
  -5   2  -8   27.90   14.10
  -5   2  -8   65.29   19.70
   5  -2   8   68.79   16.20
   5  -2   8   12.20   21.00
   5  -2   8   37.70   17.90
   5  -2   8   53.39   15.70
   5  -2   8   50.29   19.70
   7   1  -8  275.37   24.50
   7   1  -8  329.67   37.90
   7   1  -8  241.18   30.70
  -7  -1   8  219.48   26.90
  -7  -1   8  250.67   24.50
  -7  -1   8  281.47   33.10
  -7  -1   8  256.27   23.30
   6   1  -8  974.30   41.10
   6   1  -8  945.31   44.00
   6   1  -8  828.52   27.00
   6   1  -8  917.71   37.60
  -6  -1   8  903.61   35.40
  -6  -1   8  963.00   38.60
  -6  -1   8  843.22   47.10
  -6  -1   8  903.41   40.50
  -6  -1   8  944.51   37.60
   5   1  -8   -6.80    8.30
   5   1  -8    8.30    8.20
   5   1  -8    8.70    9.70
   5   1  -8    5.60   11.80
  -5  -1   8    5.90    9.10
  -5  -1   8   -4.90    7.70
  -5  -1   8   10.70    7.60
  -5  -1   8   10.30   10.70
  -5  -1   8    9.90   12.40
   4   1  -8  129.99   15.30
   4   1  -8  118.19   14.20
   4   1  -8  104.49   14.50
   4   1  -8  118.39   15.90
  -4  -1   8   98.49   12.00
  -4  -1   8  110.59   15.30
  -4  -1   8   99.29   13.20
  -4  -1   8  109.99   17.40
  -4  -1   8  115.89   15.30
  -4  -1   8  128.29   10.40
   3   1  -8    3.00    6.60
   3   1  -8   -0.60    6.80
   3   1  -8    0.30    6.10
   3   1  -8   -0.30    7.80
  -3  -1   8    4.00    7.50
  -3  -1   8   -6.20    6.20
  -3  -1   8    4.10    7.20
  -3  -1   8   -2.80    7.50
  -3  -1   8   -2.20    6.50
   2   1  -8 3490.05  102.39
   2   1  -8 3420.86  102.69
   2   1  -8 3536.95  102.79
   2   1  -8 3645.14  101.99
  -2  -1   8 3554.74  103.19
  -2  -1   8 3562.74  100.89
  -2  -1   8 3532.85  101.89
  -2  -1   8 3505.85  103.59
   1   1  -8  809.72   32.40
   1   1  -8  876.81   33.70
   1   1  -8  824.02   33.60
   1   1  -8  836.72   33.60
  -1  -1   8  804.52   31.90
  -1  -1   8  803.32   27.70
  -1  -1   8  832.32   32.80
  -1  -1   8  786.02   33.30
  -1  -1   8  839.22   34.00
   0   1  -8  206.08   16.60
   0   1  -8  212.08   16.70
   0   1  -8  194.58   15.90
   0   1  -8  206.18   16.00
   0  -1   8  194.78   16.90
   0  -1   8  210.58   13.60
   0  -1   8  225.48   16.50
   0  -1   8  224.38   16.80
   0  -1   8  187.98   15.90
  -1   1  -8 2500.75   78.69
  -1   1  -8 2574.64   78.89
  -1   1  -8 2588.44   81.89
   1  -1   8 2652.83   78.89
   1  -1   8 2661.03   79.39
   1  -1   8 2622.74   77.89
   1  -1   8 2548.05   81.69
   1  -1   8 2522.25   79.39
  -2   1  -8   86.59   17.40
  -2   1  -8  124.39   15.30
  -2   1  -8  130.49   16.30
   2  -1   8   87.09   14.10
   2  -1   8  116.99   15.00
   2  -1   8  121.19   15.00
   2  -1   8  136.29   15.80
   2  -1   8  116.99   16.90
  -3   1  -8  192.48   19.10
  -3   1  -8  183.38   24.80
  -3   1  -8  186.68   19.70
   3  -1   8  215.98   19.00
   3  -1   8  222.78   23.20
   3  -1   8  197.88   21.80
   3  -1   8  203.38   22.50
   3  -1   8  204.18   21.90
  -4   1  -8  494.85   32.90
  -4   1  -8  498.15   29.40
  -4   1  -8  549.95   32.10
   4  -1   8  527.25   33.80
   4  -1   8  534.15   33.80
   4  -1   8  552.54   29.60
  -5   1  -8   16.70   18.30
  -5   1  -8    9.70   20.80
  -5   1  -8   -9.20   16.80
  -5   1  -8   17.20   14.20
   5  -1   8   14.90   20.30
   5  -1   8    8.50   14.80
   5  -1   8   21.10   23.20
   5  -1   8   10.60   18.10
   5  -1   8   10.60   14.50
   8   0  -8  246.28   17.40
   8   0  -8  246.78   31.10
   8   0  -8  285.17   23.40
   8   0  -8  293.67   39.80
  -8   0   8  229.08   26.70
  -8   0   8  236.18   32.20
   7   0  -8  136.09   15.20
   7   0  -8  152.28   18.20
   7   0  -8  146.99   17.90
   7   0  -8  143.49   21.40
   7   0  -8  133.79   17.40
  -7   0   8  153.18   19.00
  -7   0   8  133.89   24.00
  -7   0   8  102.09   17.00
  -7   0   8  127.89   17.40
  -7   0   8  165.68   17.10
   6   0  -8   10.30    9.40
   6   0  -8   -3.50    7.60
   6   0  -8   20.10    9.80
   6   0  -8   18.80   12.80
   6   0  -8    2.80    8.50
  -6   0   8   10.60   10.00
  -6   0   8    2.50   10.40
  -6   0   8    6.30    8.00
  -6   0   8   10.90    8.50
  -6   0   8    5.70   13.00
   5   0  -8  105.09   13.80
   5   0  -8  105.29   13.90
   5   0  -8  128.99   16.20
   5   0  -8  120.69   14.00
  -5   0   8  125.69   19.90
  -5   0   8  116.59   14.60
  -5   0   8  123.69   15.40
  -5   0   8  131.09   17.50
  -5   0   8  116.59   13.80
  -5   0   8  120.19   11.10
   4   0  -8  487.45   24.60
   4   0  -8  506.05   23.80
   4   0  -8  498.65   24.30
   4   0  -8  501.15   23.80
  -4   0   8  459.35   29.10
  -4   0   8  455.15   17.10
  -4   0   8  480.25   24.50
  -4   0   8  457.05   26.60
  -4   0   8  448.76   24.00
   3   0  -8   27.60    8.40
   3   0  -8   31.10    8.00
   3   0  -8   39.60    9.00
   3   0  -8   33.40    8.60
  -3   0   8   24.80    8.40
  -3   0   8   37.00    9.70
  -3   0   8   39.30   10.90
  -3   0   8   30.30    8.20
  -3   0   8   24.00    7.20
  -3   0   8   28.20    3.30
   2   0  -8   26.80    8.30
   2   0  -8   35.70    8.70
   2   0  -8   17.90    7.30
   2   0  -8   30.60    7.40
  -2   0   8   30.00    7.80
  -2   0   8   29.40    8.40
  -2   0   8   31.70    3.90
  -2   0   8   28.30    8.00
  -2   0   8   34.80    8.20
   1   0  -8  279.37   17.80
   1   0  -8  281.57   17.10
   1   0  -8  253.47   17.10
   1   0  -8  274.37   17.80
  -1   0   8  297.97   18.60
  -1   0   8  291.07   18.60
  -1   0   8  272.17   17.60
  -1   0   8  263.67   17.60
  -1   0   8  244.08   12.10
   0   0  -8  253.87   17.30
   0   0  -8  226.38   16.80
   0   0  -8  229.68   17.40
   0   0  -8  222.58   16.60
   0   0   8  233.38   17.20
   0   0   8  233.38   18.40
   0   0   8  208.18   16.70
   0   0   8  275.17   26.70
   0   0   8  226.78   13.80
  -1   0  -8  742.53   32.00
  -1   0  -8  772.92   32.40
   1   0   8  719.83   31.10
   1   0   8  816.92   33.00
   1   0   8  783.62   34.70
   1   0   8  802.72   34.50
   1   0   8  789.12   33.10
  -2   0  -8  539.55   26.80
   2   0   8  563.24   28.00
   2   0   8  510.55   27.00
   2   0   8  529.95   29.80
   2   0   8  515.25   29.30
   2   0   8  435.66   26.80
  -3   0  -8  159.68   21.00
  -3   0  -8  139.79   22.50
  -3   0  -8  145.89   17.20
   3   0   8  159.28   21.70
   3   0   8  117.49   19.50
   3   0   8  146.59   20.40
   3   0   8  130.09   16.70
   3   0   8  128.69   19.90
  -4   0  -8  312.37   30.40
  -4   0  -8  264.47   33.20
  -4   0  -8  263.37   27.30
  -4   0  -8  310.67   24.90
  -4   0  -8  332.37   40.10
   4   0   8  272.77   33.60
   4   0   8  335.57   25.80
   4   0   8  296.17   29.80
   8  -1  -8   16.10   19.90
   8  -1  -8   26.70   12.30
   8  -1  -8   10.20   12.20
   8  -1  -8   14.70   13.50
   8  -1  -8   10.00   10.20
  -8   1   8   12.30    9.40
  -8   1   8    5.80   16.60
  -8   1   8   11.90   13.70
   7  -1  -8   82.49   13.90
   7  -1  -8   64.39   13.40
   7  -1  -8   52.39   15.20
   7  -1  -8   86.09   14.50
   7  -1  -8   58.79   11.00
  -7   1   8   53.29   10.00
  -7   1   8   57.49   12.40
  -7   1   8   56.09   20.10
   6  -1  -8   92.79   11.80
   6  -1  -8  109.19   13.40
   6  -1  -8   88.59   13.20
   6  -1  -8   98.09   14.60
  -6   1   8  125.79   13.70
  -6   1   8  168.68   22.10
  -6   1   8  101.89   13.40
  -6   1   8  110.89   12.20
  -6   1   8  123.99   19.10
   5  -1  -8   -8.50    7.30
   5  -1  -8    3.30    7.10
   5  -1  -8    9.80    7.50
  -5   1   8    1.50    9.70
  -5   1   8   -0.50    6.50
  -5   1   8    5.50   10.40
  -5   1   8   -7.30    9.80
  -5   1   8    2.10    7.30
   4  -1  -8  219.78   15.00
   4  -1  -8  203.78   14.90
   4  -1  -8  184.18   15.60
   4  -1  -8  196.68   16.00
  -4   1   8  215.08   18.20
  -4   1   8  218.48   16.30
  -4   1   8  186.98   17.20
  -4   1   8  211.18   19.90
  -4   1   8  207.68   18.60
   3  -1  -8  118.39   12.80
   3  -1  -8   85.69   12.10
   3  -1  -8  125.59   12.20
   3  -1  -8  112.49   11.40
  -3   1   8   96.09   11.90
  -3   1   8  115.49   12.60
  -3   1   8   87.59   10.90
  -3   1   8  113.89   14.60
   2  -1  -8   65.49    9.60
   2  -1  -8   55.69   10.30
   2  -1  -8   64.39    9.90
   2  -1  -8   55.49   10.30
  -2   1   8   60.69    9.70
  -2   1   8   65.29   10.20
  -2   1   8   53.89   11.10
  -2   1   8   59.09   10.00
   1  -1  -8   83.69   11.90
   1  -1  -8   88.39   11.50
   1  -1  -8   73.39   10.10
   1  -1  -8   92.29   12.70
  -1   1   8   67.49   12.10
  -1   1   8   80.79   11.40
  -1   1   8   90.59   11.70
  -1   1   8   93.79   12.30
   0  -1  -8 1363.66   48.80
   0  -1  -8 1407.66   45.70
   0  -1  -8 1410.66   48.80
   0   1   8 1508.95   50.89
   0   1   8 1447.96   51.59
   0   1   8 1417.26   49.50
   0   1   8 1377.16   49.00
  -1  -1  -8  228.38   21.20
  -1  -1  -8  306.17   19.90
  -1  -1  -8  308.17   19.50
  -1  -1  -8  305.57   20.50
   1   1   8  265.97   24.70
   1   1   8  313.37   21.40
   1   1   8  288.57   22.40
   1   1   8  321.77   20.80
  -2  -1  -8   63.49   11.70
  -2  -1  -8   71.39   13.50
  -2  -1  -8   79.59   14.90
   2   1   8   83.29   13.90
   2   1   8   51.69   14.30
   2   1   8   80.49   13.80
   2   1   8   86.39   18.10
  -3  -1  -8  194.18   23.90
  -3  -1  -8  215.68   25.30
  -3  -1  -8  206.58   21.90
   3   1   8  226.58   29.10
   3   1   8  230.68   25.90
   3   1   8  211.88   25.70
   3   1   8  222.28   22.10
  -4  -1  -8   -1.20   20.50
  -4  -1  -8   -7.40   14.00
  -4  -1  -8    1.80   25.40
  -4  -1  -8   27.30   16.40
  -4  -1  -8   40.70   19.80
   4   1   8   21.00   15.60
   4   1   8    4.80   17.70
   4   1   8    4.10   13.60
   4   1   8  -27.00   21.40
   8  -2  -8   27.70   11.50
   8  -2  -8    0.10   16.30
   8  -2  -8   13.60   12.50
   8  -2  -8   15.10    8.60
  -8   2   8   28.10    8.60
  -8   2   8   95.19   22.00
  -8   2   8   26.50    9.70
   7  -2  -8  121.09   14.00
   7  -2  -8  125.79   16.30
   7  -2  -8  138.29   17.00
   7  -2  -8  132.19   15.80
  -7   2   8  107.19   13.40
  -7   2   8  152.18   23.20
  -7   2   8  127.79   21.60
  -7   2   8  123.79   15.90
  -7   2   8  134.69   20.60
   6  -2  -8 1390.66   47.40
   6  -2  -8 1435.76   50.69
   6  -2  -8 1382.46   47.10
   6  -2  -8 1430.36   47.70
  -6   2   8 1544.55   58.69
  -6   2   8 1416.26   46.60
  -6   2   8 1460.05   58.49
  -6   2   8 1448.16   48.40
  -6   2   8 1416.56   54.79
   5  -2  -8   81.49    9.80
   5  -2  -8   78.39   11.20
   5  -2  -8  110.19   14.00
   5  -2  -8  100.39   12.30
  -5   2   8   96.39   12.60
  -5   2   8   86.89   16.90
  -5   2   8   79.39   11.20
  -5   2   8  110.69   16.50
  -5   2   8  101.19   16.30
   4  -2  -8  111.49   13.60
   4  -2  -8  104.59   12.90
   4  -2  -8   97.29   10.00
   4  -2  -8   95.79   11.40
  -4   2   8  101.29   14.40
  -4   2   8  121.99   16.80
  -4   2   8  112.69   12.60
  -4   2   8  113.79   17.80
   3  -2  -8   92.39   11.40
   3  -2  -8  101.79   13.00
   3  -2  -8  114.89   13.60
   3  -2  -8   79.09    9.40
  -3   2   8   86.99   11.50
  -3   2   8   87.09    9.90
   2  -2  -8 2898.11   87.99
   2  -2  -8 3001.20   87.49
   2  -2  -8 2861.41   82.99
  -2   2   8 3002.70   87.79
  -2   2   8 2975.20   84.39
   1  -2  -8   28.50    9.50
   1  -2  -8   36.90    9.40
   1  -2  -8   35.10    6.70
   1  -2  -8   47.20   11.30
  -1   2   8   31.20    8.40
  -1   2   8   35.30   11.60
  -1   2   8   50.19   10.20
   0  -2  -8  216.98   18.10
   0  -2  -8  297.57   22.80
   0  -2  -8  239.58   16.10
   0  -2  -8  207.38   16.90
   0   2   8  250.77   18.90
   0   2   8  239.08   18.70
   0   2   8  213.28   22.10
  -1  -2  -8  833.92   39.30
  -1  -2  -8  805.42   34.10
  -1  -2  -8  807.32   35.80
  -1  -2  -8  794.22   34.90
   1   2   8  796.42   35.50
   1   2   8  777.82   35.70
   1   2   8  780.32   40.10
  -2  -2  -8  100.29   16.40
  -2  -2  -8   63.69   14.40
  -2  -2  -8   91.79   13.80
   2   2   8   79.49   15.80
   2   2   8   71.79   19.10
   2   2   8  110.69   19.60
   2   2   8   83.89   16.60
  -3  -2  -8  475.35   41.50
  -3  -2  -8  555.24   35.30
  -3  -2  -8  524.45   32.30
   3   2   8  588.34   43.70
   3   2   8  516.15   32.40
   3   2   8  533.15   35.80
   8  -3  -8  209.18   23.30
   8  -3  -8  228.58   22.60
   8  -3  -8  285.07   29.80
   8  -3  -8  219.88   18.00
  -8   3   8  241.08   30.10
  -8   3   8  248.28   15.80
   7  -3  -8   19.30    8.60
   7  -3  -8    6.80   10.70
   7  -3  -8    8.70   10.60
  -7   3   8    1.40   18.70
  -7   3   8   12.30    8.40
  -7   3   8   39.90   16.80
  -7   3   8   16.90   14.70
   6  -3  -8  202.08   13.20
   6  -3  -8  261.17   16.90
   6  -3  -8  256.07   20.10
  -6   3   8  208.38   17.00
  -6   3   8  200.28   21.90
  -6   3   8  211.08   17.10
  -6   3   8  301.07   26.30
  -6   3   8  216.38   25.00
   5  -3  -8   20.60    9.00
   5  -3  -8   13.50    4.70
   5  -3  -8   16.60    8.00
  -5   3   8    5.80   11.20
  -5   3   8   31.90   13.50
  -5   3   8   14.30    8.50
  -5   3   8   23.90    7.90
  -5   3   8   40.30   13.50
   4  -3  -8  648.34   30.20
   4  -3  -8  734.93   29.20
  -4   3   8  713.33   36.00
  -4   3   8  706.93   29.40
  -4   3   8  700.53   34.30
  -4   3   8  676.43   30.70
   3  -3  -8 1075.59   41.50
   3  -3  -8 1024.00   38.60
   3  -3  -8 1102.39   40.90
  -3   3   8 1041.80   39.00
  -3   3   8 1019.20   33.30
  -3   3   8 1075.09   42.30
  -3   3   8 1057.59   45.00
   2  -3  -8  242.38   20.50
   2  -3  -8  209.38   17.70
   2  -3  -8  204.68   11.30
   2  -3  -8  196.98   16.80
  -2   3   8  197.08   16.80
  -2   3   8  210.38   14.10
  -2   3   8  214.48   20.40
  -2   3   8  243.18   22.60
   1  -3  -8    4.30    8.20
   1  -3  -8   -2.70    8.20
   1  -3  -8    4.30    6.00
   1  -3  -8  -15.20   11.00
  -1   3   8  -11.70    7.00
  -1   3   8   -4.00    8.30
  -1   3   8  -19.10   10.70
  -1   3   8   -2.50   12.00
   0  -3  -8  152.58   15.10
   0  -3  -8  169.58   21.20
   0  -3  -8  144.39   15.80
   0  -3  -8  151.98   17.70
   0   3   8  164.08   16.20
   0   3   8  153.08   21.70
   0   3   8  147.29   17.40
   0   3   8  125.69   18.80
  -1  -3  -8 1330.57   57.59
  -1  -3  -8 1386.76   51.89
  -1  -3  -8 1411.66   53.09
  -1  -3  -8 1339.77   49.10
   1   3   8 1391.26   53.19
   1   3   8 1280.07   51.09
   1   3   8 1401.86   54.69
   1   3   8 1419.36   59.99
  -2  -3  -8   65.49   16.20
  -2  -3  -8   72.29   17.00
  -2  -3  -8   42.80   13.20
  -2  -3  -8   54.89   20.60
   2   3   8   34.20   16.60
   2   3   8   51.99   18.50
   2   3   8   42.30   15.00
   2   3   8   74.69   24.30
   8  -4  -8    1.50    7.80
   8  -4  -8   31.20   19.80
   8  -4  -8   19.70   13.60
   8  -4  -8   21.00    9.60
   8  -4  -8   18.50    8.90
   8  -4  -8   25.70    9.20
  -8   4   8   14.80    7.20
  -8   4   8   22.50   16.40
  -8   4   8   -8.30   15.90
   7  -4  -8  555.54   30.60
   7  -4  -8  482.05   23.20
   7  -4  -8  467.55   24.30
   7  -4  -8  452.75   16.70
   7  -4  -8  501.25   21.20
  -7   4   8  387.36   39.80
  -7   4   8  524.15   24.80
  -7   4   8  523.95   32.70
  -7   4   8  573.84   29.40
   6  -4  -8   37.50   10.20
   6  -4  -8   34.60    8.80
   6  -4  -8   52.59   12.70
   6  -4  -8   56.59    7.30
  -6   4   8   41.90   10.80
  -6   4   8   55.59   15.00
  -6   4   8   40.00    9.70
  -6   4   8   36.30   16.40
  -6   4   8   42.80   15.70
   5  -4  -8  283.67   18.10
   5  -4  -8  280.47   22.20
   5  -4  -8  283.57    9.80
   5  -4  -8  262.77   19.70
  -5   4   8  278.37   28.00
  -5   4   8  249.58   21.10
  -5   4   8  273.97   18.20
  -5   4   8  292.07   28.00
  -5   4   8  308.57   21.20
   4  -4  -8  161.78   18.00
   4  -4  -8  145.09   14.90
   4  -4  -8  171.88   18.50
  -4   4   8  172.68   15.70
  -4   4   8  183.08   18.90
  -4   4   8  164.28   31.70
  -4   4   8  180.68   18.90
   3  -4  -8  152.68   15.60
   3  -4  -8  140.89    9.80
   3  -4  -8  135.09   17.90
   3  -4  -8  138.39   17.10
  -3   4   8  168.38   20.20
  -3   4   8  156.48   10.00
  -3   4   8  131.99   20.70
  -3   4   8  187.38   17.80
   2  -4  -8    9.70    9.80
   2  -4  -8    0.40   12.80
   2  -4  -8   21.90    6.80
   2  -4  -8   13.10    9.90
  -2   4   8  -10.80   10.60
  -2   4   8   21.00    7.40
  -2   4   8    8.00    8.10
  -2   4   8   18.00   13.30
   1  -4  -8  481.75   27.60
   1  -4  -8  416.86   31.40
   1  -4  -8  481.95   24.00
   1  -4  -8  488.75   27.00
  -1   4   8  459.35   23.90
  -1   4   8  458.65   27.20
  -1   4   8  482.25   33.70
  -1   4   8  459.35   33.00
   0  -4  -8  101.49   20.00
   0  -4  -8   72.49   13.70
   0  -4  -8   96.29   16.10
   0  -4  -8   71.09   13.20
   0   4   8   74.09   14.30
   0   4   8   97.49   22.10
   0   4   8   63.99   19.40
   0   4   8   89.09   16.80
  -1  -4  -8  114.49   19.30
  -1  -4  -8   68.69   23.30
  -1  -4  -8  159.68   19.70
  -1  -4  -8   99.39   18.20
   1   4   8  155.78   24.10
   1   4   8  106.49   18.10
   1   4   8  129.79   18.70
   1   4   8   82.09   25.30
  -2  -4  -8   47.40   19.30
  -2  -4  -8   23.00   18.00
  -2  -4  -8   13.70   13.70
   2   4   8   26.90   18.60
   2   4   8   30.60   17.80
   2   4   8   80.49   32.20
   8  -5  -8   39.10   11.20
   8  -5  -8   16.10   16.40
   8  -5  -8   39.30   11.40
   8  -5  -8   40.60    9.70
  -8   5   8   32.60    8.40
  -8   5   8   35.80    9.60
  -8   5   8   58.19   19.30
  -8   5   8   32.30   22.00
   7  -5  -8  152.28   18.70
   7  -5  -8  143.59   22.60
   7  -5  -8  110.99   14.40
   7  -5  -8   84.39   10.80
  -7   5   8   90.89   17.70
  -7   5   8  132.49   15.30
  -7   5   8   85.39   13.20
  -7   5   8   94.49   22.40
   6  -5  -8   63.89   13.60
   6  -5  -8   74.19   11.40
   6  -5  -8   50.79   16.00
   6  -5  -8   51.29    7.90
  -6   5   8   78.49   22.20
  -6   5   8   72.29   14.40
  -6   5   8   60.39   11.40
  -6   5   8   85.19   16.10
   5  -5  -8   24.70   13.20
   5  -5  -8   12.50   11.90
   5  -5  -8   21.10    9.20
   5  -5  -8   15.60    6.20
  -5   5   8   23.60   12.60
  -5   5   8   31.80   12.00
  -5   5   8   31.30   10.50
   4  -5  -8  148.79   17.30
   4  -5  -8  183.68   21.60
   4  -5  -8  209.88   18.60
  -4   5   8  178.48   19.30
  -4   5   8  208.48   23.10
  -4   5   8  179.08   19.00
   3  -5  -8   -3.20    6.10
   3  -5  -8   14.00   12.10
   3  -5  -8    9.60    9.80
   3  -5  -8   17.30   14.70
  -3   5   8    1.60    9.60
  -3   5   8   -0.30   15.70
  -3   5   8    2.40    4.90
   2  -5  -8   28.80    9.40
   2  -5  -8   10.40   14.20
   2  -5  -8   18.50   11.60
   2  -5  -8   11.80   11.20
  -2   5   8   31.30   12.50
  -2   5   8   46.90   18.30
  -2   5   8   14.80    8.60
  -2   5   8    0.10   17.80
   1  -5  -8   87.09   14.30
   1  -5  -8  101.19   20.70
   1  -5  -8   85.99   19.80
   1  -5  -8   60.19   14.00
  -1   5   8   80.69   13.50
  -1   5   8   60.59   22.00
  -1   5   8   67.89   14.60
  -1   5   8   48.00   22.10
   0  -5  -8  358.36   26.80
   0  -5  -8  326.67   26.30
   0  -5  -8  309.37   28.70
   0  -5  -8  399.46   39.90
   0   5   8  365.96   30.00
   0   5   8  331.17   41.50
   0   5   8  313.57   26.20
   8  -6  -8    8.00   11.40
   8  -6  -8  -12.80   16.00
   8  -6  -8    4.10    9.20
   8  -6  -8   17.80   12.30
  -8   6   8  -11.10   22.30
  -8   6   8    6.70   11.40
  -8   6   8    4.90   18.40
  -8   6   8   -6.40    9.00
   7  -6  -8   36.00   10.20
   7  -6  -8   22.90   13.10
   7  -6  -8   38.30   15.80
   7  -6  -8   36.80   10.70
  -7   6   8   35.70   16.60
  -7   6   8   22.40   15.60
  -7   6   8   24.70   15.10
  -7   6   8   22.40   20.80
   6  -6  -8  579.44   25.50
   6  -6  -8  549.85   35.70
   6  -6  -8  593.24   28.90
   6  -6  -8  529.95   33.60
  -6   6   8  589.94   29.30
  -6   6   8  597.44   42.30
  -6   6   8  567.74   31.00
   5  -6  -8  112.99   18.80
   5  -6  -8  122.79   19.00
   5  -6  -8   96.19   18.90
  -5   6   8   94.69   14.80
  -5   6   8  116.89   16.20
  -5   6   8   81.89   26.50
   4  -6  -8  156.58   22.50
   4  -6  -8  162.98   39.90
  -4   6   8  190.38   18.80
  -4   6   8  205.68   22.30
  -4   6   8  180.98   25.80
   3  -6  -8   62.79   14.50
   3  -6  -8   61.39   18.90
   3  -6  -8   45.60   11.40
  -3   6   8   32.40    7.20
  -3   6   8   46.00   14.40
   2  -6  -8  380.36   29.50
   2  -6  -8  335.87   37.80
   2  -6  -8  387.06   24.80
  -2   6   8  449.16   41.90
  -2   6   8  361.16   22.40
  -2   6   8  434.56   30.30
   1  -6  -8   40.20   16.70
   1  -6  -8   34.10   14.90
   1  -6  -8   -4.00   24.20
  -1   6   8   32.00   16.20
  -1   6   8   55.69   29.80
  -1   6   8   23.60   14.10
   7  -7  -8  123.19   23.80
   7  -7  -8   72.99   15.10
   7  -7  -8   80.19   20.70
   7  -7  -8  104.69   15.40
  -7   7   8  133.49   28.00
  -7   7   8  121.59   21.90
  -7   7   8   96.89   17.70
  -7   7   8   87.69   15.60
   6  -7  -8  327.67   25.40
   6  -7  -8  339.37   32.50
   6  -7  -8  326.07   32.10
  -6   7   8  293.87   22.40
  -6   7   8  319.27   39.00
  -6   7   8  281.97   35.40
  -6   7   8  305.37   25.70
   5  -7  -8   39.40   13.30
   5  -7  -8   14.20   16.10
   5  -7  -8   -4.50   23.10
  -5   7   8   34.80   15.20
  -5   7   8   44.10   10.30
  -5   7   8   70.09   23.60
   4  -7  -8   24.90   13.90
   4  -7  -8   30.30   17.20
   4  -7  -8   30.10   21.40
  -4   7   8   -2.40   23.40
  -4   7   8    4.60   14.40
  -4   7   8   24.80    8.40
   3  -7  -8   46.00   17.50
   3  -7  -8    1.70   15.20
   3  -7  -8   82.89   26.00
  -3   7   8    4.60    7.60
  -3   7   8    9.40    9.50
  -3   7   8   23.20    9.10
  -3   7   8   -2.90   15.50
   1   7  -9   15.10   23.40
   1   7  -9  -38.90   21.20
   1   7  -9  -22.20   17.80
   1   7  -9   -2.10   25.90
  -1  -7   9   -1.50   21.00
  -1  -7   9   24.60   19.60
  -1  -7   9   17.10   20.40
  -1  -7   9  -32.20   17.80
   0   7  -9  285.97   34.60
   0   7  -9  238.08   35.00
   0   7  -9  307.67   39.70
   0  -7   9  290.77   31.70
   0  -7   9  309.27   34.40
   0  -7   9  286.67   31.60
  -1   7  -9   40.70   19.30
  -1   7  -9   57.89   19.30
  -1   7  -9   17.10   19.50
  -1   7  -9   25.10   21.80
  -1   7  -9   43.00   16.40
   1  -7   9   22.80   18.50
   1  -7   9   43.90   19.70
   1  -7   9   35.60   17.10
   1  -7   9   52.59   20.80
  -2   7  -9  137.59   24.40
  -2   7  -9  173.98   26.60
  -2   7  -9  165.18   22.90
  -2   7  -9  113.99   26.40
   2  -7   9  156.38   26.40
   2  -7   9  100.29   23.40
   2  -7   9  165.48   22.20
  -3   7  -9   54.79   25.90
  -3   7  -9  122.59   29.20
  -3   7  -9  119.49   21.90
  -3   7  -9  103.29   23.30
  -3   7  -9  128.29   25.70
   3  -7   9  113.29   20.20
   3  -7   9  101.59   25.30
   3  -7   9  114.89   23.40
  -4   7  -9   91.49   26.70
  -4   7  -9   91.79   27.80
  -4   7  -9   56.99   22.70
  -4   7  -9  160.88   26.50
   4  -7   9   92.19   24.40
   4  -7   9  148.49   29.40
   4  -7   9  111.89   22.30
   3   6  -9  -25.80   23.00
   3   6  -9    6.70   19.00
   3   6  -9   29.20   18.30
  -3  -6   9   29.70   25.10
  -3  -6   9   55.59   24.20
   2   6  -9  254.27   29.90
   2   6  -9  263.37   33.60
   2   6  -9  199.38   30.30
   2   6  -9  176.38   26.50
  -2  -6   9  242.38   30.10
  -2  -6   9  218.08   34.90
  -2  -6   9  163.28   23.90
   1   6  -9   18.60   15.50
   1   6  -9   20.20   16.20
   1   6  -9   15.50   15.00
  -1  -6   9  -11.30   16.10
  -1  -6   9   33.70   16.40
  -1  -6   9   53.59   19.10
   0   6  -9   16.30   15.00
   0   6  -9   -1.20   12.50
   0   6  -9    5.10   15.80
   0   6  -9   27.60   18.50
   0  -6   9    2.40   14.30
   0  -6   9   -4.20   14.60
  -1   6  -9  571.84   41.80
  -1   6  -9  678.23   37.80
  -1   6  -9  636.54   39.50
   1  -6   9  610.94   45.50
   1  -6   9  637.84   46.60
   1  -6   9  671.63   35.00
  -2   6  -9   19.90   14.20
  -2   6  -9   23.30   16.10
  -2   6  -9   32.70   19.70
  -2   6  -9   11.00   16.60
   2  -6   9    2.10   12.80
   2  -6   9   27.10   19.00
  -3   6  -9   48.10   18.60
  -3   6  -9    0.90   13.90
  -3   6  -9   -1.90   13.90
  -3   6  -9   12.70   17.10
   3  -6   9  -13.50   18.40
   3  -6   9    4.30    6.30
   3  -6   9   -6.40   16.60
   3  -6   9   16.80   16.90
  -4   6  -9  -10.60   20.70
  -4   6  -9  -15.30   22.70
  -4   6  -9  -15.90   16.60
  -4   6  -9   -1.40   19.70
  -4   6  -9   -1.70   14.60
   4  -6   9   26.30   12.40
   4  -6   9    2.20   14.40
   4  -6   9    7.70   21.40
   4  -6   9   19.50   17.40
   4  -6   9   35.40   21.20
   4  -6   9   14.10   19.90
   4   5  -9  103.39   22.40
   4   5  -9   70.49   20.10
   4   5  -9   75.49   29.50
   4   5  -9   81.99   21.90
  -4  -5   9   97.89   21.40
  -4  -5   9  153.58   27.40
  -4  -5   9  105.09   24.30
  -4  -5   9  118.29   18.60
   3   5  -9  727.93   42.10
   3   5  -9  736.43   44.60
   3   5  -9  737.63   43.70
   3   5  -9  762.72   46.30
  -3  -5   9  744.03   44.00
  -3  -5   9  674.83   44.00
  -3  -5   9  742.03   39.70
  -3  -5   9  694.53   36.20
   2   5  -9   72.29   18.20
   2   5  -9   78.39   17.70
   2   5  -9   64.99   20.90
  -2  -5   9   99.19   16.60
  -2  -5   9  116.89   18.10
  -2  -5   9   80.39   19.70
  -2  -5   9   74.79   19.30
   1   5  -9  116.29   19.30
   1   5  -9  121.89   15.90
   1   5  -9  115.89   18.00
   1   5  -9   78.79   24.50
  -1  -5   9   54.89   15.40
  -1  -5   9  118.99   21.30
  -1  -5   9  114.39   17.40
   0   5  -9   16.30   13.30
   0   5  -9    1.60   11.80
   0   5  -9   -2.20   10.90
   0   5  -9   10.80   15.60
   0  -5   9   15.50   13.20
   0  -5   9    1.50   11.90
   0  -5   9   -4.00   10.90
   0  -5   9    8.60   13.60
  -1   5  -9   12.60   13.60
  -1   5  -9    1.40   14.00
  -1   5  -9   13.50   13.10
   1  -5   9   23.20   14.20
   1  -5   9   36.50   12.70
   1  -5   9   19.00   14.10
  -2   5  -9   36.10   17.70
  -2   5  -9   18.00   13.10
  -2   5  -9   38.60   16.10
   2  -5   9   26.00   14.10
   2  -5   9   49.20   18.20
   2  -5   9   14.70   12.90
  -3   5  -9   16.80   18.10
  -3   5  -9   26.10   12.20
  -3   5  -9   30.60   17.60
  -3   5  -9    3.30   14.10
   3  -5   9   33.00   25.20
   3  -5   9    2.80   14.60
   3  -5   9   19.00   11.80
  -4   5  -9   13.80   14.70
  -4   5  -9   19.60   13.90
  -4   5  -9   11.60   20.60
  -4   5  -9    4.50   18.90
  -4   5  -9   -3.40   18.90
   4  -5   9    1.80   12.90
   4  -5   9    1.70   14.90
   4  -5   9    5.30   19.10
   4  -5   9   27.10   17.80
   4  -5   9   31.10   18.80
  -5   5  -9   -7.90   23.40
  -5   5  -9  -28.00   15.60
  -5   5  -9  -16.90   17.80
  -5   5  -9    8.00   17.10
   5  -5   9  -19.70   15.30
   5  -5   9   -8.70   28.80
   5  -5   9    0.10   19.60
   5  -5   9   43.40   21.10
   5  -5   9    1.40   17.30
   5   4  -9  380.16   35.30
   5   4  -9  358.76   33.50
   5   4  -9  305.67   37.80
  -5  -4   9  373.16   28.40
  -5  -4   9  386.66   26.90
  -5  -4   9  373.36   37.60
  -5  -4   9  441.56   33.60
  -5  -4   9  329.17   35.90
   4   4  -9   45.40   21.60
   4   4  -9   44.80   16.70
   4   4  -9   37.40   18.20
  -4  -4   9   36.40   13.50
  -4  -4   9   28.70   17.50
  -4  -4   9   75.29   18.10
   3   4  -9 1040.40   32.70
   3   4  -9  971.80   65.19
   3   4  -9 1045.90   45.90
   3   4  -9 1038.10   48.00
  -3  -4   9 1044.90   41.90
  -3  -4   9  891.01   41.90
  -3  -4   9 1073.19   49.10
  -3  -4   9 1013.40   49.40
   2   4  -9  -12.90   10.80
   2   4  -9   -3.80   13.70
   2   4  -9    9.20    8.10
   2   4  -9    5.10   10.10
  -2  -4   9    7.80    9.30
  -2  -4   9    1.90   13.10
  -2  -4   9    5.00   14.20
   1   4  -9  262.77   23.70
   1   4  -9  255.87   21.60
   1   4  -9  246.08   24.30
   1   4  -9  274.87   20.70
  -1  -4   9  303.57   21.90
  -1  -4   9  270.97   24.20
  -1  -4   9  278.27   21.60
  -1  -4   9  259.27   14.80
  -1  -4   9  242.28   24.70
   0   4  -9 1245.18   47.60
   0   4  -9 1288.27   50.39
   0   4  -9 1287.97   49.30
   0   4  -9 1248.38   51.19
   0  -4   9 1201.88   39.60
   0  -4   9 1285.07   46.90
   0  -4   9 1177.58   47.30
   0  -4   9 1169.78   50.99
   0  -4   9 1299.87   52.19
  -1   4  -9   26.50   12.20
  -1   4  -9    0.60   13.90
  -1   4  -9    8.00   11.70
   1  -4   9   18.80   11.40
   1  -4   9   26.00   12.60
   1  -4   9   42.70   14.60
  -2   4  -9   -8.90   13.40
  -2   4  -9    5.30   11.10
  -2   4  -9   10.50   14.90
   2  -4   9    1.80   10.90
   2  -4   9   -5.80   14.70
   2  -4   9   -1.60   11.00
   2  -4   9    0.50   11.50
   2  -4   9   11.50   10.70
  -3   4  -9  -18.30   11.50
  -3   4  -9  -14.70   14.30
  -3   4  -9    3.10   15.40
   3  -4   9   -0.40   15.50
   3  -4   9   -9.30   14.10
   3  -4   9    0.80   12.40
   3  -4   9   -1.60   12.50
   3  -4   9    4.10   11.20
  -4   4  -9  583.54   33.50
  -4   4  -9  627.44   42.80
  -4   4  -9  636.34   35.10
  -4   4  -9  523.95   50.49
  -4   4  -9  615.54   40.70
   4  -4   9  619.74   40.90
   4  -4   9  604.24   35.30
   4  -4   9  530.65   38.80
   4  -4   9  611.84   35.30
   4  -4   9  631.24   32.70
  -5   4  -9   44.50   24.20
  -5   4  -9   24.10   16.30
  -5   4  -9   21.20   20.70
   5  -4   9   66.49   18.00
   5  -4   9   30.10   18.60
   5  -4   9   53.29   23.20
   5  -4   9   33.30   17.30
   5  -4   9   76.49   26.20
   6   3  -9   -6.00   25.50
   6   3  -9   21.20   19.50
   6   3  -9   12.90   19.00
  -6  -3   9    8.40   18.30
  -6  -3   9    7.40   14.30
  -6  -3   9   17.10   16.30
  -6  -3   9   19.00   15.10
  -6  -3   9   15.90   20.40
   5   3  -9  365.36   30.10
   5   3  -9  371.16   35.10
   5   3  -9  344.07   30.70
  -5  -3   9  339.17   25.30
  -5  -3   9  338.77   31.80
  -5  -3   9  350.76   25.20
  -5  -3   9  367.96   27.40
   4   3  -9   27.50   15.70
   4   3  -9    9.20   12.90
   4   3  -9   -2.60   13.70
  -4  -3   9    0.10   10.70
  -4  -3   9   -6.60   12.10
  -4  -3   9    9.70   13.00
   3   3  -9  725.53   37.60
   3   3  -9  679.93   27.50
   3   3  -9  641.34   38.80
   3   3  -9  715.03   35.80
  -3  -3   9  666.13   32.00
  -3  -3   9  743.93   40.50
  -3  -3   9  722.23   37.30
  -3  -3   9  715.93   32.50
   2   3  -9 2242.48   76.29
   2   3  -9 2299.07   69.99
   2   3  -9 2294.47   73.09
   2   3  -9 2216.18   74.89
  -2  -3   9 2281.27   71.39
  -2  -3   9 2170.08   75.19
  -2  -3   9 2204.98   76.19
  -2  -3   9 2161.98   67.59
  -2  -3   9 2203.18   71.09
   1   3  -9   44.30   11.20
   1   3  -9   41.00   11.10
   1   3  -9   55.99   11.90
   1   3  -9   28.70   12.40
  -1  -3   9   56.49   11.20
  -1  -3   9   30.00   12.50
  -1  -3   9   45.80   12.20
  -1  -3   9   43.10   10.90
  -1  -3   9   47.90    9.80
   0   3  -9  335.57   23.40
   0   3  -9  309.47   21.10
   0   3  -9  275.67   23.40
   0   3  -9  260.27   22.20
   0  -3   9  275.37   19.10
   0  -3   9  295.57   22.80
   0  -3   9  294.37   23.40
  -1   3  -9   92.89   14.90
  -1   3  -9   77.59   13.20
  -1   3  -9  110.09   16.40
  -1   3  -9   81.19   16.10
   1  -3   9   84.39   13.70
   1  -3   9   78.29   13.60
   1  -3   9   96.09   15.70
   1  -3   9   84.59   14.90
   1  -3   9   97.89   17.40
  -2   3  -9  -14.70   12.10
  -2   3  -9    7.50   10.10
  -2   3  -9    4.90   12.80
   2  -3   9   -3.30    9.30
   2  -3   9   -2.90    8.60
   2  -3   9   -0.30    9.40
   2  -3   9    9.60   10.90
   2  -3   9   -4.40    9.70
  -3   3  -9   86.99   20.30
  -3   3  -9   80.19   19.20
  -3   3  -9   71.19   15.10
   3  -3   9   74.99   16.20
   3  -3   9   99.19   15.20
   3  -3   9   50.49   16.40
   3  -3   9   69.79   18.20
   3  -3   9   90.59   15.40
  -4   3  -9   -8.20   16.50
  -4   3  -9   22.70   18.20
  -4   3  -9   -7.30   12.60
   4  -3   9   10.00   15.10
   4  -3   9  -20.70   16.60
   4  -3   9    4.30   14.10
   4  -3   9    2.60   14.40
  -5   3  -9   44.70   19.40
  -5   3  -9   25.40   15.70
  -5   3  -9   37.20   24.00
  -5   3  -9   19.50   19.90
   5  -3   9    0.20   24.20
   5  -3   9   50.29   17.80
   5  -3   9   54.29   22.00
   5  -3   9   38.30   19.90
   5  -3   9   11.60   15.00
   7   2  -9    5.20   18.70
   7   2  -9    3.10   16.80
   7   2  -9   25.60   26.80
  -7  -2   9    2.80   15.80
  -7  -2   9    0.60   19.90
  -7  -2   9   34.20   22.70
  -7  -2   9  -13.90   18.80
  -7  -2   9    3.50   15.00
   6   2  -9   80.99   18.80
   6   2  -9   93.89   17.70
   6   2  -9  110.69   24.50
  -6  -2   9   64.99   18.30
  -6  -2   9   87.39   16.60
  -6  -2   9   83.39   16.30
  -6  -2   9   98.69   16.20
  -6  -2   9   99.09   20.50
   5   2  -9  140.69   19.50
   5   2  -9   94.09   16.30
   5   2  -9  130.79   21.70
  -5  -2   9  117.89   15.80
  -5  -2   9   98.09   21.30
  -5  -2   9  119.69   15.40
  -5  -2   9   86.09   17.90
   4   2  -9  398.26   25.70
   4   2  -9  443.56   29.30
   4   2  -9  441.56   20.60
   4   2  -9  443.86   27.50
  -4  -2   9  436.36   25.00
  -4  -2   9  433.36   31.60
  -4  -2   9  411.56   28.20
  -4  -2   9  417.96   25.30
   3   2  -9  135.99   17.90
   3   2  -9  102.09   14.50
   3   2  -9  110.09   15.60
  -3  -2   9  102.39   18.60
  -3  -2   9  125.69   15.30
  -3  -2   9  129.29   16.20
  -3  -2   9  130.69   14.60
  -3  -2   9   84.09   15.50
   2   2  -9  175.48   18.00
   2   2  -9  181.48   16.90
  -2  -2   9  183.18   16.80
  -2  -2   9  206.98   16.30
  -2  -2   9  167.28   17.80
  -2  -2   9  169.38   18.60
  -2  -2   9  184.78   15.20
   1   2  -9  130.99   15.80
   1   2  -9  139.69   17.30
  -1  -2   9  130.39   15.70
  -1  -2   9  142.79   17.00
  -1  -2   9  153.88   18.10
   0   2  -9  114.59   16.60
   0   2  -9  144.59   18.30
   0   2  -9  129.89   15.80
   0   2  -9  144.79   16.00
   0  -2   9  130.99   15.30
   0  -2   9  139.69   13.50
   0  -2   9  171.78   18.10
   0  -2   9  127.79   16.00
   0  -2   9  143.79   16.90
  -1   2  -9  102.89   17.60
  -1   2  -9  119.19   14.70
  -1   2  -9  104.69   17.80
  -1   2  -9  107.79   14.80
   1  -2   9  118.19   15.40
   1  -2   9  103.79   14.80
   1  -2   9  104.49   14.90
   1  -2   9  132.49   16.40
   1  -2   9  117.69   18.00
  -2   2  -9    7.50    9.20
  -2   2  -9   10.30   11.30
  -2   2  -9   -3.10   12.70
   2  -2   9   12.10   12.30
   2  -2   9  -16.40    8.50
   2  -2   9    6.40   10.00
   2  -2   9   -1.80    9.30
   2  -2   9    6.90   11.70
  -3   2  -9   21.90   11.60
  -3   2  -9   23.10   13.60
   3  -2   9   37.20   13.10
   3  -2   9   28.80   14.30
   3  -2   9   32.90   12.90
   3  -2   9   23.40   15.40
   3  -2   9   27.70   11.90
  -4   2  -9   78.19   24.10
  -4   2  -9  108.89   22.90
  -4   2  -9  109.09   17.50
  -4   2  -9  128.09   19.30
   4  -2   9  100.49   19.70
   4  -2   9  125.39   23.70
   4  -2   9  184.48   22.40
   4  -2   9   55.29   33.30
   4  -2   9  106.19   18.50
   7   1  -9   17.70   15.90
   7   1  -9   24.30   21.20
   7   1  -9   30.40   14.10
  -7  -1   9    2.70   12.30
  -7  -1   9    0.40   15.20
  -7  -1   9   -2.60   17.00
  -7  -1   9   12.90   13.00
   6   1  -9 1150.98   45.80
   6   1  -9 1237.78   49.30
   6   1  -9 1156.18   36.20
   6   1  -9 1102.69   50.89
  -6  -1   9 1145.29   45.70
  -6  -1   9 1197.18   49.90
  -6  -1   9  943.71   74.99
  -6  -1   9 1203.98   44.00
   5   1  -9  169.28   17.90
   5   1  -9  187.08   23.90
   5   1  -9  170.38   18.00
   5   1  -9  162.18   20.30
  -5  -1   9  181.38   22.10
  -5  -1   9  196.98   15.00
  -5  -1   9  197.38   21.10
  -5  -1   9  188.38   25.30
  -5  -1   9  202.78   16.90
  -5  -1   9  146.29   19.30
   4   1  -9   93.29   13.90
   4   1  -9   84.49   13.80
   4   1  -9   86.69   14.70
   4   1  -9   76.59   12.70
  -4  -1   9   78.79   14.70
  -4  -1   9   91.89   12.30
  -4  -1   9   89.19   14.70
  -4  -1   9   97.19   14.30
  -4  -1   9   78.19   17.40
  -4  -1   9   86.19    9.20
   3   1  -9 1231.08   45.40
   3   1  -9 1150.78   44.40
   3   1  -9 1191.48   44.80
   3   1  -9 1195.58   43.80
  -3  -1   9 1198.28   46.00
  -3  -1   9 1162.18   45.70
  -3  -1   9 1191.88   42.60
  -3  -1   9 1172.18   44.70
   2   1  -9   56.09   11.40
   2   1  -9   52.39   10.60
   2   1  -9   39.90    9.50
   2   1  -9   38.30    9.90
  -2  -1   9   56.19   11.40
  -2  -1   9   27.30    8.50
  -2  -1   9   48.80   11.30
  -2  -1   9   35.10   10.60
   1   1  -9   98.09   13.40
   1   1  -9  113.89   14.90
   1   1  -9  120.19   14.30
   1   1  -9  120.59   15.10
  -1  -1   9   92.69   13.70
  -1  -1   9   90.99   14.10
  -1  -1   9  105.39   16.40
  -1  -1   9  116.59    9.90
  -1  -1   9  116.59   14.50
   0   1  -9  753.92   33.10
   0   1  -9  751.12   38.30
   0   1  -9  774.92   33.40
   0  -1   9  781.42   33.60
   0  -1   9  758.82   34.00
   0  -1   9  790.32   35.70
   0  -1   9  770.12   29.70
   0  -1   9  798.52   33.60
  -1   1  -9  197.28   18.00
  -1   1  -9  207.28   22.00
  -1   1  -9  204.98   20.30
  -1   1  -9  200.38   18.70
   1  -1   9  222.08   20.60
   1  -1   9  211.08   17.60
   1  -1   9  230.28   19.40
   1  -1   9  223.88   19.80
   1  -1   9  203.98   18.30
  -2   1  -9    3.30    9.00
  -2   1  -9    4.70   10.00
   2  -1   9    7.20   10.50
   2  -1   9   38.70   13.10
   2  -1   9    7.60    9.00
   2  -1   9    3.10   11.20
   2  -1   9    6.10   10.80
  -3   1  -9    8.90   13.00
  -3   1  -9   -5.50   12.60
  -3   1  -9   31.10   12.20
   3  -1   9    5.20   14.60
   3  -1   9   21.80   13.30
   3  -1   9   -2.50   15.10
   3  -1   9   27.20   12.20
   3  -1   9   48.50   20.40
  -4   1  -9   98.69   16.80
  -4   1  -9   74.59   19.30
  -4   1  -9  108.79   22.50
  -4   1  -9  107.29   20.90
   4  -1   9   79.39   18.30
   4  -1   9   80.89   16.90
   4  -1   9   87.09   22.50
   4  -1   9  140.49   24.30
   4  -1   9   91.79   21.80
   8   0  -9  222.08   24.20
   8   0  -9  195.48   23.10
   8   0  -9  222.58   18.40
   8   0  -9  174.58   29.20
  -8   0   9  205.08   33.00
  -8   0   9  227.68   25.30
  -8   0   9  225.88   28.70
  -8   0   9  241.88   23.30
  -8   0   9  202.68   25.20
   7   0  -9  293.17   28.70
   7   0  -9  284.37   23.70
   7   0  -9  275.17   25.30
   7   0  -9  222.58   19.20
   7   0  -9  247.68   22.10
  -7   0   9  207.88   25.90
  -7   0   9  245.98   26.60
  -7   0   9  218.88   25.70
  -7   0   9  275.37   21.60
   6   0  -9   87.69   15.50
   6   0  -9   92.59   17.80
   6   0  -9  106.39   15.30
   6   0  -9  129.69   15.30
  -6   0   9  108.79   13.90
  -6   0   9   96.19   16.50
  -6   0   9  118.79   19.70
  -6   0   9  118.99   16.60
  -6   0   9   92.09   12.70
  -6   0   9  105.69   22.20
   5   0  -9   85.19   12.70
   5   0  -9   77.09   13.50
   5   0  -9   56.09   13.10
   5   0  -9   69.29   12.90
  -5   0   9   65.99    9.10
  -5   0   9   78.19   15.30
  -5   0   9   74.89   15.50
  -5   0   9   62.09   13.30
  -5   0   9   66.59   11.00
  -5   0   9   72.49   14.10
   4   0  -9  142.29   15.80
   4   0  -9  153.78   15.80
   4   0  -9  141.99   15.20
   4   0  -9  134.29   15.50
  -4   0   9  130.09   19.80
  -4   0   9  146.29   18.40
  -4   0   9  117.39   13.90
  -4   0   9  130.99   15.90
  -4   0   9  133.09   16.90
   3   0  -9 3015.20   87.99
   3   0  -9 2938.11   88.09
   3   0  -9 3016.80   89.29
   3   0  -9 2921.01   86.99
  -3   0   9 2874.41   86.59
  -3   0   9 2937.21   89.39
  -3   0   9 2839.12   86.89
  -3   0   9 2963.40   89.19
  -3   0   9 2754.82   91.39
   2   0  -9  667.53   30.00
   2   0  -9  627.94   28.40
   2   0  -9  667.03   29.00
   2   0  -9  654.33   29.20
  -2   0   9  602.04   28.00
  -2   0   9  657.83   30.20
  -2   0   9  575.74   18.90
  -2   0   9  633.74   29.10
  -2   0   9  602.74   28.90
   1   0  -9   77.19   11.80
   1   0  -9   64.69   11.60
   1   0  -9   63.19   11.20
   1   0  -9   76.09   12.70
  -1   0   9   46.70   11.00
  -1   0   9   68.29   12.90
  -1   0   9   54.59    7.70
  -1   0   9   57.09   10.70
   0   0  -9  749.62   34.10
   0   0  -9  759.82   33.60
   0   0  -9  786.22   33.10
   0   0  -9  745.23   33.10
   0   0   9  718.13   29.00
   0   0   9  757.82   33.40
   0   0   9  758.72   34.30
   0   0   9  827.22   34.60
  -1   0  -9   64.39   12.30
  -1   0  -9   87.79   14.00
   1   0   9   68.89   12.70
   1   0   9   71.99   13.90
   1   0   9   38.40   14.90
   1   0   9   78.89   13.70
   1   0   9   69.79   12.70
  -2   0  -9  104.19   15.50
  -2   0  -9   83.89   18.00
   2   0   9   86.89   15.10
   2   0   9   67.59   15.80
   2   0   9   96.19   15.70
   2   0   9   85.99   17.20
   2   0   9   86.59   15.20
  -3   0  -9  203.48   29.00
  -3   0  -9  235.78   28.30
  -3   0  -9  256.87   23.90
   3   0   9  242.98   23.50
   3   0   9  284.17   24.10
   3   0   9  293.17   29.60
   3   0   9  240.78   27.40
  -4   0  -9   71.39   17.30
  -4   0  -9   95.69   21.70
  -4   0  -9   57.29   22.90
   4   0   9   75.59   24.70
   4   0   9   42.50   20.70
   4   0   9   50.49   16.30
   4   0   9   84.49   25.60
   4   0   9   42.00   18.90
   8  -1  -9   10.10   14.00
   8  -1  -9  -26.10   13.70
   8  -1  -9  -10.10   13.40
   8  -1  -9    3.40   18.20
   8  -1  -9  -10.80   11.30
  -8   1   9    4.60   18.00
  -8   1   9    4.90   13.10
  -8   1   9  -30.70   18.20
  -8   1   9    2.80   13.30
   7  -1  -9   44.50   13.30
   7  -1  -9   45.20   13.60
   7  -1  -9   48.00   12.10
   7  -1  -9   54.69   14.40
   7  -1  -9   60.09   16.00
  -7   1   9   63.79   14.40
  -7   1   9   72.19   22.60
  -7   1   9   45.90   10.70
  -7   1   9   62.79   12.10
  -7   1   9   87.99   19.40
   6  -1  -9   28.40   11.20
   6  -1  -9   12.10    9.00
   6  -1  -9   -1.60    9.90
   6  -1  -9    9.20    9.50
  -6   1   9   26.90   13.10
  -6   1   9   29.20   14.20
  -6   1   9   10.20    9.40
  -6   1   9    6.50   10.60
  -6   1   9   -0.70   14.70
   5  -1  -9 1011.70   38.40
   5  -1  -9  924.01   37.10
   5  -1  -9  932.31   37.30
   5  -1  -9 1019.80   39.90
  -5   1   9  977.70   44.60
  -5   1   9 1007.50   37.50
  -5   1   9  966.90   41.90
  -5   1   9  972.90   39.00
  -5   1   9 1010.10   46.20
   4  -1  -9    8.50    8.70
   4  -1  -9    9.00    7.30
   4  -1  -9   11.20    8.50
   4  -1  -9    9.20    8.10
  -4   1   9   10.80   10.70
  -4   1   9   -6.50    9.60
  -4   1   9    7.50   11.40
  -4   1   9   22.90    9.20
  -4   1   9    7.80    7.90
   3  -1  -9   85.19   13.20
   3  -1  -9   77.39   12.70
   3  -1  -9   63.69   10.80
   3  -1  -9   69.39   10.90
  -3   1   9   87.89   14.60
  -3   1   9   76.19   12.10
  -3   1   9   63.39   11.20
  -3   1   9   59.39   10.40
   2  -1  -9  287.07   17.90
   2  -1  -9  341.27   20.20
   2  -1  -9  319.47   21.20
   2  -1  -9  308.57   20.60
  -2   1   9  318.47   21.00
  -2   1   9  322.87   20.30
  -2   1   9  315.37   20.80
  -2   1   9  325.47   19.40
   1  -1  -9  372.06   21.30
   1  -1  -9  364.86   22.50
   1  -1  -9  362.56   27.70
   1  -1  -9  354.46   21.40
  -1   1   9  376.36   35.40
  -1   1   9  393.36   24.80
  -1   1   9  376.46   22.30
  -1   1   9  358.06   21.50
   0  -1  -9  526.25   27.20
   0  -1  -9  533.85   27.40
   0   1   9  539.95   29.30
   0   1   9  526.55   27.60
   0   1   9  540.75   30.30
   0   1   9  538.65   28.70
  -1  -1  -9  263.97   21.90
  -1  -1  -9  277.97   20.90
  -1  -1  -9  307.87   20.80
  -1  -1  -9  264.37   24.30
   1   1   9  298.17   23.80
   1   1   9  267.87   22.40
   1   1   9  329.07   22.70
   1   1   9  242.88   26.00
  -2  -1  -9    2.50   11.00
  -2  -1  -9   -3.10   10.80
  -2  -1  -9   -8.30    9.90
   2   1   9  -10.40   12.20
   2   1   9  -26.00   12.40
   2   1   9   14.50   17.60
   2   1   9    2.10   16.80
  -3  -1  -9   15.00   14.30
  -3  -1  -9   -1.30   14.20
  -3  -1  -9   52.69   21.30
  -3  -1  -9    9.60   20.90
   3   1   9   19.90   17.20
   3   1   9   10.30   16.70
   3   1   9   21.90   13.50
   3   1   9   36.00   20.80
   8  -2  -9  127.29   18.30
   8  -2  -9  137.69   21.80
   8  -2  -9  105.49   14.10
   8  -2  -9  140.69   17.60
   8  -2  -9  115.79   20.20
  -8   2   9  147.59   26.90
  -8   2   9  158.28   17.30
  -8   2   9  107.59   24.60
   7  -2  -9   -3.40   11.00
   7  -2  -9   -6.10    8.70
   7  -2  -9   10.70   11.90
   7  -2  -9   33.10   10.70
  -7   2   9   22.10   16.50
  -7   2   9   -1.00   10.60
  -7   2   9   -3.70   15.50
  -7   2   9  -18.40    8.40
  -7   2   9   22.00   18.40
   6  -2  -9   77.19   12.20
   6  -2  -9   88.79   12.80
   6  -2  -9   86.69   12.20
   6  -2  -9  105.69   15.10
  -6   2   9   84.69   19.40
  -6   2   9   89.79   19.10
  -6   2   9  124.99   15.60
  -6   2   9   89.29   18.20
  -6   2   9   97.99   14.20
   5  -2  -9  145.39   16.90
   5  -2  -9  153.58   13.40
   5  -2  -9  126.99   15.40
   5  -2  -9  142.89   15.20
  -5   2   9  134.89   16.40
  -5   2   9  159.18   20.00
  -5   2   9  144.49   16.30
  -5   2   9  175.08   21.20
  -5   2   9  158.88   22.10
   4  -2  -9  683.83   32.30
   4  -2  -9  713.43   31.90
   4  -2  -9  768.12   31.40
   4  -2  -9  716.63   27.40
  -4   2   9  772.32   32.20
  -4   2   9  707.93   36.30
  -4   2   9  793.52   38.20
  -4   2   9  730.43   32.30
   3  -2  -9 1356.76   48.40
   3  -2  -9 1271.87   41.70
   3  -2  -9 1302.47   47.80
   3  -2  -9 1249.47   45.60
  -3   2   9 1295.07   46.50
  -3   2   9 1277.77   42.60
  -3   2   9 1316.97   51.09
  -3   2   9 1312.87   48.30
   2  -2  -9  230.08   18.00
   2  -2  -9  239.78   18.60
  -2   2   9  240.68   18.50
  -2   2   9  234.08   20.50
  -2   2   9  218.98   16.40
  -2   2   9  222.78   22.00
   1  -2  -9  635.84   29.50
   1  -2  -9  590.54   23.40
   1  -2  -9  592.44   28.90
   1  -2  -9  597.84   32.10
  -1   2   9  601.54   32.70
  -1   2   9  579.84   32.50
  -1   2   9  618.04   28.70
  -1   2   9  588.54   29.20
   0  -2  -9   -5.60    7.60
   0  -2  -9    9.30   12.60
   0  -2  -9   13.20    8.80
   0  -2  -9    4.60    9.20
   0   2   9   30.20   13.50
   0   2   9    9.60   11.20
   0   2   9   16.10   10.00
   0   2   9   -1.10   13.90
  -1  -2  -9   68.19   14.00
  -1  -2  -9   71.79   14.10
  -1  -2  -9   66.39   18.10
  -1  -2  -9   83.09   15.50
   1   2   9   84.89   16.50
   1   2   9   82.29   15.80
   1   2   9   84.99   20.80
   1   2   9   94.59   17.50
  -2  -2  -9   79.09   21.60
  -2  -2  -9   97.29   17.40
  -2  -2  -9   94.69   16.50
  -2  -2  -9   76.29   17.10
   2   2   9   60.49   22.60
   2   2   9   89.89   17.10
   2   2   9  109.39   19.80
   2   2   9   91.89   19.80
  -3  -2  -9   -4.20   17.80
  -3  -2  -9  -10.80   15.30
  -3  -2  -9   21.60   22.20
   3   2   9   37.70   27.10
   3   2   9  -31.70   19.10
   3   2   9   -1.60   14.60
   3   2   9   -5.40   17.50
   8  -3  -9   35.90   11.80
   8  -3  -9   56.79   13.90
   8  -3  -9   22.70   14.90
   8  -3  -9   41.10   19.60
  -8   3   9   39.00   10.80
  -8   3   9   46.50   21.40
  -8   3   9   30.60   12.10
  -8   3   9   27.40   19.70
   7  -3  -9  158.28   15.90
   7  -3  -9  185.68   21.90
   7  -3  -9  147.69   17.50
   7  -3  -9  173.18   17.50
  -7   3   9  207.88   27.00
  -7   3   9  155.58   18.00
  -7   3   9  171.08   25.80
  -7   3   9  185.88   26.80
   6  -3  -9  341.77   24.50
   6  -3  -9  308.77   16.30
   6  -3  -9  319.57   20.30
  -6   3   9  366.36   23.00
  -6   3   9  361.86   28.80
  -6   3   9  389.86   31.20
  -6   3   9  345.87   22.10
  -6   3   9  363.06   28.60
   5  -3  -9   16.10   11.20
   5  -3  -9    6.10    4.90
   5  -3  -9   14.80    7.90
  -5   3   9   10.90    8.40
  -5   3   9   33.40   15.10
  -5   3   9   21.80   15.70
  -5   3   9   16.30   13.50
  -5   3   9   15.00   10.40
   4  -3  -9   54.89   12.20
   4  -3  -9   72.09   11.40
  -4   3   9   71.69   16.70
  -4   3   9   79.29   18.00
  -4   3   9   59.09   11.20
  -4   3   9   66.09   13.30
   3  -3  -9 1313.77   46.80
   3  -3  -9 1265.07   49.30
   3  -3  -9 1266.27   48.00
  -3   3   9 1288.17   53.89
  -3   3   9 1264.67   46.60
  -3   3   9 1335.97   53.59
  -3   3   9 1219.58   40.60
   2  -3  -9  304.87   14.50
   2  -3  -9  328.57   21.60
   2  -3  -9  323.97   22.00
   2  -3  -9  358.26   26.40
  -2   3   9  310.47   25.30
  -2   3   9  316.67   18.70
  -2   3   9  333.67   26.90
  -2   3   9  314.67   21.80
   1  -3  -9   98.39   12.40
   1  -3  -9  103.89   14.80
   1  -3  -9   83.19   14.90
   1  -3  -9  101.49   18.80
  -1   3   9  116.59   19.80
  -1   3   9   99.29   13.90
  -1   3   9  119.99   20.00
  -1   3   9  137.39   17.90
   0  -3  -9  570.04   37.10
   0  -3  -9  526.45   30.80
   0  -3  -9  545.85   29.40
   0  -3  -9  580.94   28.40
   0   3   9  562.34   37.20
   0   3   9  568.04   31.90
   0   3   9  567.64   30.80
   0   3   9  539.15   37.70
  -1  -3  -9    6.70   13.90
  -1  -3  -9   22.20   11.70
  -1  -3  -9   21.30   13.40
   1   3   9   38.80   14.70
   1   3   9   48.00   22.10
   1   3   9   19.70   18.30
   1   3   9   26.00   14.40
  -2  -3  -9   49.40   18.00
  -2  -3  -9   46.20   17.70
  -2  -3  -9   69.99   16.40
   2   3   9   40.40   18.60
   2   3   9   33.90   17.00
   2   3   9   43.60   27.90
   2   3   9   52.09   22.20
   8  -4  -9    5.70   10.50
   8  -4  -9    1.50    8.10
   8  -4  -9    9.70   10.40
   8  -4  -9   -6.80    7.30
  -8   4   9   21.90   21.30
  -8   4   9   20.10   10.60
  -8   4   9   12.50   21.70
  -8   4   9   21.50   10.20
   7  -4  -9   34.00   14.70
   7  -4  -9   16.40   11.50
   7  -4  -9   22.50    9.90
  -7   4   9   34.20   15.70
  -7   4   9   45.50   13.40
  -7   4   9   42.50   12.10
  -7   4   9   23.50   16.30
   6  -4  -9  110.99   18.10
   6  -4  -9  118.99   15.10
   6  -4  -9  105.09   16.10
  -6   4   9  101.99   19.00
  -6   4   9   82.19   36.60
  -6   4   9  115.79   15.80
  -6   4   9  123.69   14.80
   5  -4  -9  210.68   17.20
   5  -4  -9  241.58   21.90
   5  -4  -9  169.98   20.50
  -5   4   9  212.08   23.10
  -5   4   9  229.68   22.50
  -5   4   9  218.08   27.90
  -5   4   9  192.38   18.40
   4  -4  -9   11.00   12.20
   4  -4  -9   -2.20    7.80
   4  -4  -9    4.10    8.30
  -4   4   9    6.80    9.30
  -4   4   9   -1.00   11.60
  -4   4   9   14.50   12.60
   3  -4  -9  434.46   27.50
   3  -4  -9  491.15   26.70
   3  -4  -9  470.55   17.40
  -3   4   9  453.25   26.60
  -3   4   9  462.95   20.00
  -3   4   9  558.64   37.10
   2  -4  -9   32.90   10.90
   2  -4  -9   33.90   11.70
   2  -4  -9   38.70    8.10
   2  -4  -9   38.70   15.70
  -2   4   9   46.50   16.70
  -2   4   9   22.90    9.40
  -2   4   9    9.70   16.40
  -2   4   9   50.19   12.90
   1  -4  -9  116.49   15.70
   1  -4  -9  119.69   22.00
   1  -4  -9  135.69   18.20
   1  -4  -9  133.89   18.30
  -1   4   9  135.09   24.70
  -1   4   9  144.09   19.00
  -1   4   9  130.49   16.70
  -1   4   9  156.08   24.30
   0  -4  -9 1088.19   44.90
   0  -4  -9  991.50   54.69
   0  -4  -9 1206.38   46.00
   0   4   9 1060.59   55.59
   0   4   9 1117.49   46.20
   0   4   9 1080.89   58.09
   0   4   9 1209.38   56.99
  -1  -4  -9   -3.20   14.70
  -1  -4  -9   31.50   15.80
  -1  -4  -9   36.70   17.00
   1   4   9   24.70   22.60
   1   4   9   33.70   16.90
   1   4   9   42.70   17.80
   1   4   9   -0.80   27.80
   8  -5  -9  103.79   16.20
   8  -5  -9  108.39   20.90
   8  -5  -9  153.88   18.00
  -8   5   9   83.89   14.50
  -8   5   9  121.09   25.00
  -8   5   9  108.19   26.20
  -8   5   9  128.19   16.00
   7  -5  -9   67.59   18.60
   7  -5  -9   40.70   13.60
   7  -5  -9   59.49   12.20
   7  -5  -9   33.10    6.20
  -7   5   9   40.70   12.60
  -7   5   9   -5.10   19.20
  -7   5   9   54.49   17.50
  -7   5   9   48.90   16.20
   6  -5  -9   61.59    4.70
   6  -5  -9   68.99   16.90
   6  -5  -9   73.49   13.40
   6  -5  -9   60.99   15.60
  -6   5   9   94.99   18.60
  -6   5   9   60.19   21.40
  -6   5   9   67.69   13.10
  -6   5   9  120.19   25.60
   5  -5  -9  167.18   19.20
   5  -5  -9  137.59   20.50
   5  -5  -9  149.88    7.40
  -5   5   9  160.28   19.80
  -5   5   9  144.19   18.00
   4  -5  -9  352.76   27.50
   4  -5  -9  384.16   16.00
   4  -5  -9  360.86   32.00
   4  -5  -9  373.86   24.90
  -4   5   9  367.26   36.40
  -4   5   9  400.86   26.80
  -4   5   9  419.46   27.90
   3  -5  -9  294.07   25.30
   3  -5  -9  271.97   31.00
   3  -5  -9  289.37   16.70
  -3   5   9  311.17   24.90
  -3   5   9  303.47   34.80
  -3   5   9  287.07   16.10
   2  -5  -9  274.17   24.80
   2  -5  -9  316.77   33.50
   2  -5  -9  258.07   19.30
   2  -5  -9  263.77   25.00
  -2   5   9  245.78   19.80
  -2   5   9  311.27   26.40
  -2   5   9  284.97   32.90
  -2   5   9  268.67   34.70
   1  -5  -9   23.00   12.50
   1  -5  -9   -2.60   12.80
   1  -5  -9   27.50   14.50
   1  -5  -9   -4.10   22.00
  -1   5   9   31.80   24.70
  -1   5   9  -21.90   23.20
  -1   5   9   18.00   12.90
   0  -5  -9    9.90   16.20
   0  -5  -9  -20.60   27.10
   0  -5  -9    6.20   14.70
   0  -5  -9   22.50   15.10
   0   5   9  -31.50   28.80
   0   5   9   31.00   17.00
   0   5   9    9.20   15.20
   7  -6  -9   26.00   15.70
   7  -6  -9   16.10    7.90
   7  -6  -9   11.30   11.80
   7  -6  -9   36.80   18.80
  -7   6   9   29.60   17.90
  -7   6   9   15.50   21.40
  -7   6   9   32.90   17.20
  -7   6   9   12.40   13.00
   6  -6  -9  337.47   23.60
   6  -6  -9  371.36   31.60
   6  -6  -9  308.87   30.10
   6  -6  -9  334.07   16.70
  -6   6   9  352.46   25.90
  -6   6   9  355.66   32.70
  -6   6   9  299.97   27.60
  -6   6   9  305.07   37.40
   5  -6  -9  322.57   24.10
   5  -6  -9  266.87   29.20
   5  -6  -9  261.57   27.40
  -5   6   9  293.87   25.80
  -5   6   9  287.07   24.90
  -5   6   9  281.87   31.70
   4  -6  -9  124.09   17.80
   4  -6  -9  123.09   24.50
   4  -6  -9   90.69   20.00
   4  -6  -9  110.29   13.60
  -4   6   9  102.99   24.30
  -4   6   9  108.09   17.10
  -4   6   9  119.59   18.50
   3  -6  -9  190.38   22.90
   3  -6  -9  193.58   18.00
   3  -6  -9  177.58   27.90
   3  -6  -9  226.08   26.10
  -3   6   9  170.58   29.20
  -3   6   9  180.48   22.50
  -3   6   9  207.28   14.70
   2  -6  -9  -15.00   11.50
   2  -6  -9    2.50   15.40
   2  -6  -9  -12.50   13.40
   2  -6  -9    4.50   23.30
  -2   6   9   23.10   12.20
  -2   6   9   22.40   26.30
   5  -7  -9   -1.50   22.10
   5  -7  -9  -11.20   12.90
   5  -7  -9   25.30   15.30
  -5   7   9    7.20   16.40
  -5   7   9    8.30   12.20
   1   7 -10   97.19   26.80
   1   7 -10  121.99   30.00
  -1  -7  10  125.99   28.90
  -1  -7  10  127.79   25.50
  -1  -7  10   72.99   25.70
   0   7 -10  184.98   33.90
   0   7 -10  228.48   33.20
   0  -7  10  325.27   35.50
   0  -7  10  223.88   27.90
   0  -7  10  354.66   38.70
  -1   7 -10  334.47   32.40
  -1   7 -10  310.27   38.20
  -1   7 -10  379.36   39.60
  -1   7 -10  265.37   41.20
   1  -7  10  361.26   34.50
   1  -7  10  325.87   35.50
   1  -7  10  351.66   36.80
   1  -7  10  398.56   38.70
  -2   7 -10  210.18   45.70
  -2   7 -10  244.58   31.80
  -2   7 -10  203.88   34.80
   2  -7  10  259.17   31.60
   2  -7  10  269.97   34.00
   2  -7  10  293.97   35.80
   3   6 -10   79.79   25.40
   3   6 -10   90.39   26.40
   3   6 -10   61.99   27.40
  -3  -6  10   90.99   26.50
  -3  -6  10  101.89   21.30
  -3  -6  10  102.69   27.30
   2   6 -10   12.30   18.00
   2   6 -10   -6.30   25.70
   2   6 -10   22.10   19.20
   2   6 -10   32.50   20.50
  -2  -6  10   10.40   18.80
  -2  -6  10   -9.50   20.50
  -2  -6  10   30.80   17.30
   1   6 -10  125.49   27.60
   1   6 -10  166.08   20.10
   1   6 -10  156.68   25.10
   1   6 -10  103.59   24.00
  -1  -6  10  202.88   29.20
  -1  -6  10  169.48   28.00
  -1  -6  10  172.98   24.20
  -1  -6  10  219.78   27.10
   0   6 -10   60.59   22.70
   0   6 -10   32.70   15.00
   0   6 -10   74.99   22.30
   0   6 -10   60.09   21.50
   0  -6  10  104.29   19.60
   0  -6  10  102.89   23.00
   0  -6  10   36.80   21.10
   0  -6  10   66.59   18.90
  -1   6 -10  307.97   32.50
  -1   6 -10  221.68   34.60
  -1   6 -10  205.68   27.20
  -1   6 -10  252.07   30.50
  -1   6 -10  231.58   31.20
   1  -6  10  220.68   27.80
   1  -6  10  273.37   27.10
   1  -6  10  291.77   32.30
   1  -6  10  228.98   30.10
  -2   6 -10  241.88   30.30
  -2   6 -10  229.58   29.10
  -2   6 -10  207.58   24.80
  -2   6 -10  246.18   29.50
  -2   6 -10  186.88   29.70
   2  -6  10  246.08   32.40
   2  -6  10  177.18   27.10
   2  -6  10  217.78   27.50
   2  -6  10  299.97   27.40
  -3   6 -10  161.38   25.80
  -3   6 -10  177.58   30.30
  -3   6 -10  133.29   22.20
  -3   6 -10  148.59   31.80
  -3   6 -10  177.78   29.50
   3  -6  10  160.58   26.90
   3  -6  10  215.38   30.50
   3  -6  10  179.38   23.40
   3  -6  10  176.78   14.70
   3  -6  10  156.88   28.10
   3  -6  10  197.48   28.30
   4   5 -10   27.30   19.70
   4   5 -10   30.40   22.40
   4   5 -10   42.00   21.60
  -4  -5  10   -4.40   21.10
  -4  -5  10  -17.80   18.90
   3   5 -10  197.68   30.00
   3   5 -10  170.78   25.60
   3   5 -10  185.18   26.50
  -3  -5  10  201.08   29.10
  -3  -5  10  163.98   23.90
   2   5 -10    7.50   19.20
   2   5 -10    9.00   10.70
   2   5 -10    3.60   16.60
   2   5 -10   13.30   20.00
  -2  -5  10  -12.80   12.40
  -2  -5  10   -9.60   15.50
  -2  -5  10  -15.90   17.00
   1   5 -10   44.10   22.60
   1   5 -10   75.59   18.20
   1   5 -10   98.89   19.70
  -1  -5  10   89.89   16.90
  -1  -5  10   77.19   19.60
  -1  -5  10   98.09   21.10
   0   5 -10  218.78   26.50
   0   5 -10  131.89   21.20
   0   5 -10  186.88   22.80
   0   5 -10  144.79   27.00
   0  -5  10  140.79   23.20
   0  -5  10  157.38   23.90
   0  -5  10  175.78   21.70
  -1   5 -10  215.98   27.40
  -1   5 -10  155.58   22.90
  -1   5 -10  153.68   25.80
   1  -5  10  154.38   25.20
   1  -5  10  156.88   11.90
   1  -5  10  184.78   24.80
   1  -5  10  185.18   22.00
  -2   5 -10   52.89   18.20
  -2   5 -10   20.80   14.40
  -2   5 -10   -9.20   14.90
   2  -5  10    6.30   14.80
   2  -5  10   19.80   16.30
   2  -5  10   -5.80   13.30
   2  -5  10   19.90   17.40
  -3   5 -10   11.90   16.30
  -3   5 -10   10.60   15.10
  -3   5 -10  -21.30   18.10
  -3   5 -10   -8.20   16.70
  -3   5 -10   -5.60   19.10
   3  -5  10   -8.50   19.30
   3  -5  10   23.40   15.10
   3  -5  10   -3.30   17.70
   3  -5  10    3.40   16.10
   3  -5  10   38.00   18.30
  -4   5 -10  251.37   30.60
  -4   5 -10  293.47   35.50
  -4   5 -10  242.88   34.10
  -4   5 -10  252.77   28.60
   4  -5  10  287.97   35.00
   4  -5  10  289.37   37.00
   4  -5  10  263.87   33.40
   4  -5  10  276.07   35.90
   5   4 -10   26.50   19.40
   5   4 -10  -21.00   20.10
   5   4 -10   13.30   27.80
  -5  -4  10   27.70   20.80
  -5  -4  10    5.80   22.80
  -5  -4  10   10.80   16.40
   4   4 -10  469.25   39.90
   4   4 -10  495.95   35.70
   4   4 -10  454.15   35.10
  -4  -4  10  418.86   31.30
  -4  -4  10  472.45   38.60
  -4  -4  10  447.46   28.80
  -4  -4  10  414.26   36.90
   3   4 -10   15.70    9.00
   3   4 -10   30.60   15.10
   3   4 -10   13.70   18.60
   3   4 -10   17.60   16.20
  -3  -4  10   14.60   15.90
  -3  -4  10    9.10   12.80
  -3  -4  10  -21.50   12.00
  -3  -4  10   -6.90   14.70
   2   4 -10   85.79   17.10
   2   4 -10  107.59   18.00
   2   4 -10   96.09   14.50
  -2  -4  10  110.99   17.10
  -2  -4  10   93.09   18.60
  -2  -4  10  106.99   16.10
   1   4 -10    1.90   12.60
   1   4 -10    7.10   14.00
   1   4 -10   10.40   11.90
   1   4 -10   -4.80   10.30
  -1  -4  10  -16.10   10.80
  -1  -4  10   -0.50   11.50
  -1  -4  10    8.80   11.00
  -1  -4  10  -21.00   12.10
  -1  -4  10   -1.90    6.90
   0   4 -10  776.42   38.70
   0   4 -10  709.63   38.60
   0   4 -10  721.63   37.70
   0   4 -10  704.23   34.50
   0  -4  10  696.73   38.90
   0  -4  10  671.33   38.60
   0  -4  10  695.63   28.70
   0  -4  10  735.03   34.80
  -1   4 -10  283.67   27.80
  -1   4 -10  274.17   25.20
   1  -4  10  314.27   24.00
   1  -4  10  248.38   25.90
   1  -4  10  188.68   23.10
   1  -4  10  323.17   29.00
  -2   4 -10   -5.20   15.10
  -2   4 -10   -2.80   14.50
  -2   4 -10   -0.50   12.60
   2  -4  10   -8.20   14.20
   2  -4  10    1.20   13.10
   2  -4  10    7.80   12.90
   2  -4  10    5.50   12.10
   2  -4  10   -9.90   13.30
  -3   4 -10   70.49   17.70
  -3   4 -10   61.69   25.00
  -3   4 -10   78.69   22.40
  -3   4 -10   74.19   20.20
  -3   4 -10   86.29   17.00
   3  -4  10   92.19   17.40
   3  -4  10   74.09   18.50
   3  -4  10   71.39   20.10
   3  -4  10   47.50   17.50
  -4   4 -10  218.98   31.70
  -4   4 -10  238.28   27.00
  -4   4 -10  200.18   31.30
  -4   4 -10  223.08   27.40
   4  -4  10  191.48   28.50
   4  -4  10  249.28   28.10
   4  -4  10  205.98   26.20
   4  -4  10  210.88   31.30
   6   3 -10  436.96   45.90
   6   3 -10  340.27   35.40
   6   3 -10  398.56   38.30
  -6  -3  10  427.76   41.30
  -6  -3  10  430.96   31.20
  -6  -3  10  357.56   30.70
  -6  -3  10  416.26   35.90
   5   3 -10  333.87   35.60
   5   3 -10  244.78   26.70
   5   3 -10  223.88   28.70
  -5  -3  10  289.87   26.50
  -5  -3  10  219.58   31.20
  -5  -3  10  219.28   25.20
  -5  -3  10  213.78   21.40
  -5  -3  10  233.98   29.80
   4   3 -10  125.79   12.60
   4   3 -10  152.68   20.20
   4   3 -10  114.09   21.20
   4   3 -10  139.19   23.00
  -4  -3  10  150.48   18.80
  -4  -3  10  177.18   26.20
  -4  -3  10  154.88   23.10
   3   3 -10   58.99   11.70
   3   3 -10   21.70   14.00
   3   3 -10   34.20   14.30
   3   3 -10   55.79   15.40
  -3  -3  10   17.50   12.00
  -3  -3  10   18.20   11.20
  -3  -3  10   15.30   14.40
  -3  -3  10   26.30   10.90
  -3  -3  10   23.80   13.00
   2   3 -10    4.90   11.30
   2   3 -10    2.00   13.70
   2   3 -10    3.30   10.10
   2   3 -10   -2.20   11.50
  -2  -3  10    8.30    9.40
  -2  -3  10   -4.30   10.90
  -2  -3  10   -1.00   11.20
  -2  -3  10   -0.20    8.40
  -2  -3  10  -12.80   10.90
   1   3 -10 1085.79   48.10
   1   3 -10 1185.48   48.00
   1   3 -10 1145.49   45.70
   1   3 -10 1194.48   47.60
  -1  -3  10 1194.58   44.80
  -1  -3  10 1140.19   49.10
  -1  -3  10 1129.99   49.00
  -1  -3  10 1104.59   42.30
  -1  -3  10 1169.08   45.80
   0   3 -10   10.10   11.20
   0   3 -10   -8.40   11.20
   0   3 -10  -19.80    8.30
   0  -3  10   14.90   10.70
   0  -3  10   11.60   12.90
   0  -3  10   -4.00   10.70
  -1   3 -10   24.10   14.30
  -1   3 -10   20.20   12.50
  -1   3 -10   29.90   14.40
   1  -3  10   25.50   12.40
   1  -3  10   38.20   12.00
   1  -3  10   20.40   13.90
   1  -3  10   30.80   13.00
   1  -3  10   46.00   14.00
  -2   3 -10  210.38   26.90
  -2   3 -10  179.58   23.00
  -2   3 -10  180.98   21.40
   2  -3  10  221.18   23.40
   2  -3  10  188.28   25.50
   2  -3  10  213.48   21.60
   2  -3  10  174.48   21.70
   2  -3  10  160.48   21.30
  -3   3 -10  605.74   35.50
  -3   3 -10  591.04   39.00
  -3   3 -10  589.14   41.80
  -3   3 -10  579.74   33.40
  -3   3 -10  552.84   39.30
   3  -3  10  495.55   34.50
   3  -3  10  627.44   36.20
   3  -3  10  585.84   34.40
   3  -3  10  525.85   38.40
   3  -3  10  567.04   35.50
  -4   3 -10  616.74   45.70
  -4   3 -10  486.65   40.10
  -4   3 -10  518.35   34.60
   4  -3  10  521.35   40.70
   4  -3  10  556.94   36.10
   4  -3  10  530.35   36.40
   4  -3  10  526.05   40.60
   4  -3  10  488.35   36.50
   6   2 -10   54.49   18.00
   6   2 -10   80.69   18.40
   6   2 -10   15.30   22.00
  -6  -2  10   70.99   17.40
  -6  -2  10   21.60   15.30
  -6  -2  10   50.49   14.30
  -6  -2  10   90.19   21.50
  -6  -2  10   39.60   20.10
   5   2 -10   88.89   17.20
   5   2 -10  116.69   31.00
   5   2 -10   78.69    9.60
   5   2 -10   72.69   19.90
  -5  -2  10   79.09   19.20
  -5  -2  10   61.09   15.90
  -5  -2  10   70.89   12.30
  -5  -2  10   94.19   15.40
   4   2 -10   14.40   21.80
   4   2 -10    0.70   14.30
   4   2 -10    8.40   12.00
   4   2 -10    5.10    8.60
  -4  -2  10    3.10   10.60
  -4  -2  10    4.80   11.50
  -4  -2  10  -12.00   14.90
  -4  -2  10    0.10   12.40
   3   2 -10  540.85   34.50
   3   2 -10  575.44   32.50
   3   2 -10  595.04   32.00
  -3  -2  10  580.64   29.80
  -3  -2  10  554.54   29.00
  -3  -2  10  566.34   32.90
  -3  -2  10  558.44   29.50
   2   2 -10  510.55   29.70
   2   2 -10  571.24   31.40
   2   2 -10  569.54   28.90
  -2  -2  10  547.85   31.70
  -2  -2  10  550.74   27.90
  -2  -2  10  514.05   28.50
  -2  -2  10  593.14   31.30
  -2  -2  10  598.94   29.90
   1   2 -10   19.80   11.70
   1   2 -10    8.70    9.70
   1   2 -10   36.10   11.40
   1   2 -10   15.60   11.40
  -1  -2  10    5.80   11.20
  -1  -2  10   12.30   11.50
  -1  -2  10   -5.60    8.70
  -1  -2  10    8.40   10.60
   0   2 -10  116.79   16.00
   0   2 -10  120.69   16.00
   0   2 -10  115.99   17.40
   0   2 -10   89.99   17.10
   0  -2  10   98.29   12.50
   0  -2  10  108.69   17.50
   0  -2  10  117.29   16.30
   0  -2  10  117.89   16.80
   0  -2  10  136.79   17.20
  -1   2 -10  626.34   32.40
  -1   2 -10  584.84   34.00
  -1   2 -10  583.04   36.00
   1  -2  10  631.84   30.80
   1  -2  10  580.54   32.20
   1  -2  10  625.24   32.20
   1  -2  10  642.14   32.40
   1  -2  10  566.04   32.60
  -2   2 -10  541.45   34.30
  -2   2 -10  503.05   36.90
  -2   2 -10  538.95   30.80
   2  -2  10  539.15   34.90
   2  -2  10  504.95   30.90
   2  -2  10  605.24   31.60
   2  -2  10  593.24   32.40
   2  -2  10  535.95   32.00
  -3   2 -10  134.09   22.30
  -3   2 -10  194.18   22.80
   3  -2  10  115.29   21.30
   3  -2  10  116.59   22.20
   3  -2  10  150.28   20.90
   3  -2  10  178.38   21.20
   3  -2  10  162.48   22.60
  -4   2 -10  418.16   33.70
  -4   2 -10  366.76   40.60
  -4   2 -10  355.46   30.20
  -4   2 -10  400.96   39.60
   4  -2  10  312.17   29.30
   4  -2  10  315.17   35.10
   4  -2  10  339.77   33.70
   4  -2  10  283.17   36.10
   4  -2  10  350.96   36.30
   7   1 -10  308.67   31.30
   7   1 -10  258.57   32.40
   7   1 -10  269.87   27.40
  -7  -1  10  338.17   34.00
  -7  -1  10  290.17   26.60
  -7  -1  10  299.67   36.90
  -7  -1  10  254.67   27.10
  -7  -1  10  311.07   25.30
   6   1 -10  114.49   17.90
   6   1 -10  106.29   21.80
  -6  -1  10  115.69   24.40
  -6  -1  10  127.19   19.10
  -6  -1  10  107.29   20.60
  -6  -1  10  114.59   16.20
  -6  -1  10  156.58   19.60
   5   1 -10   31.90   14.10
   5   1 -10    6.30   11.50
   5   1 -10   -6.60   10.40
   5   1 -10   11.50   11.90
  -5  -1  10   17.40   12.30
  -5  -1  10    0.50   12.10
  -5  -1  10  -11.30   11.70
  -5  -1  10   -1.60   15.60
  -5  -1  10  -10.20    6.40
   4   1 -10  141.09   17.30
   4   1 -10  107.99   17.00
   4   1 -10  124.19   16.90
   4   1 -10  118.89   16.00
  -4  -1  10  157.48   10.70
  -4  -1  10  152.58   19.60
  -4  -1  10  112.69   16.70
  -4  -1  10  130.59   22.00
  -4  -1  10  102.79   17.60
   3   1 -10  105.59   16.00
   3   1 -10  101.89   15.10
   3   1 -10  133.99   17.10
  -3  -1  10  133.29   17.20
  -3  -1  10  141.89   18.00
  -3  -1  10  117.79   16.80
  -3  -1  10  164.58   18.80
  -3  -1  10  125.79   15.60
   2   1 -10   11.30    8.80
   2   1 -10    5.60   11.50
   2   1 -10    5.30   11.80
   2   1 -10    9.50    9.10
  -2  -1  10   10.80    9.10
  -2  -1  10   11.80   10.60
  -2  -1  10   10.00    4.90
  -2  -1  10   -5.90    8.60
  -2  -1  10    5.10    9.70
   1   1 -10    2.20    7.60
   1   1 -10   -7.30   10.20
   1   1 -10    5.30    9.20
   1   1 -10   20.40   10.40
  -1  -1  10   11.10    9.00
  -1  -1  10    3.90    9.50
  -1  -1  10    8.90    9.90
  -1  -1  10   -0.50   10.30
  -1  -1  10    0.40    5.50
   0   1 -10  293.47   22.90
   0   1 -10  372.06   25.50
   0   1 -10  324.17   23.10
   0  -1  10  315.47   23.20
   0  -1  10  326.07   24.60
   0  -1  10  350.66   23.70
   0  -1  10  309.47   18.80
  -1   1 -10  198.68   24.90
  -1   1 -10  170.78   21.70
  -1   1 -10  182.78   19.60
   1  -1  10  183.38   21.70
   1  -1  10  213.68   20.70
   1  -1  10  192.78   18.30
   1  -1  10  206.08   21.30
   1  -1  10  187.28   21.90
  -2   1 -10   23.50   12.10
  -2   1 -10   13.80   16.90
   2  -1  10   23.70   14.10
   2  -1  10   11.90   14.00
   2  -1  10   28.70   12.40
   2  -1  10   34.10   14.10
   2  -1  10   14.80   11.70
  -3   1 -10   72.79   19.70
  -3   1 -10   34.80   21.60
  -3   1 -10   92.69   17.50
   3  -1  10   71.29   16.20
   3  -1  10   41.00   19.10
   3  -1  10   47.90   16.90
   3  -1  10   28.80   20.70
   3  -1  10   87.29   20.50
   7   0 -10  365.66   24.20
   7   0 -10  445.56   29.30
   7   0 -10  436.56   31.10
   7   0 -10  399.76   35.50
   7   0 -10  382.66   26.60
  -7   0  10  409.66   24.60
  -7   0  10  331.07   31.70
  -7   0  10  425.46   27.40
  -7   0  10  347.27   31.00
  -7   0  10  430.86   34.50
   6   0 -10  214.28   22.90
   6   0 -10  216.48   23.30
   6   0 -10  203.88   20.50
   6   0 -10  208.18   23.90
  -6   0  10  177.78   23.20
  -6   0  10  204.28   24.00
  -6   0  10  207.88   15.10
  -6   0  10  238.58   30.30
  -6   0  10  234.58   25.70
   5   0 -10   39.50   12.40
   5   0 -10   30.90   11.90
   5   0 -10   22.00   11.10
   5   0 -10   24.10   12.80
  -5   0  10   16.50   13.60
  -5   0  10   13.00   10.20
  -5   0  10   17.50    5.00
  -5   0  10   11.70   11.90
  -5   0  10   15.40   12.60
  -5   0  10   21.70   12.90
   4   0 -10 1322.67   48.00
   4   0 -10 1286.57   47.50
   4   0 -10 1331.07   48.80
   4   0 -10 1300.87   49.10
  -4   0  10 1274.87   55.69
  -4   0  10 1280.27   46.70
  -4   0  10 1297.37   49.90
  -4   0  10 1270.07   49.20
  -4   0  10 1164.88   51.29
   3   0 -10   49.40   11.60
   3   0 -10   56.69   11.60
   3   0 -10   53.29   11.90
   3   0 -10   56.99   12.20
  -3   0  10   63.59   12.20
  -3   0  10   27.50   10.40
  -3   0  10   53.29   12.30
  -3   0  10   50.89   11.10
   2   0 -10  109.09   14.30
   2   0 -10  111.99   15.00
   2   0 -10  125.39   16.70
  -2   0  10  122.69   15.60
  -2   0  10  132.39   16.80
  -2   0  10  127.99   16.30
  -2   0  10   88.99   15.90
  -2   0  10  103.09    6.40
   1   0 -10  204.38   17.90
   1   0 -10  174.58   19.20
   1   0 -10  217.28   20.30
   1   0 -10  168.98   18.70
  -1   0  10  195.28   20.10
  -1   0  10  182.48   18.50
  -1   0  10  199.78   20.30
  -1   0  10  205.58   19.40
  -1   0  10  164.38   11.90
   0   0 -10  346.87   23.80
   0   0 -10  392.56   24.60
   0   0 -10  381.26   24.60
   0   0  10  323.57   25.30
   0   0  10  384.16   25.70
   0   0  10  346.27   19.80
   0   0  10  380.66   24.40
   0   0  10  412.56   26.60
  -1   0 -10  163.88   19.60
   1   0  10  165.18   19.40
   1   0  10  146.59   18.60
   1   0  10  159.38   21.60
   1   0  10  181.38   23.80
   1   0  10  189.38   22.20
  -2   0 -10   43.80   19.40
  -2   0 -10   67.29   15.10
   2   0  10   70.69   15.80
   2   0  10   56.29   18.80
   2   0  10   49.20   15.60
   2   0  10   50.89   14.70
   2   0  10   47.90   17.90
  -3   0 -10  147.79   26.10
  -3   0 -10  215.88   25.20
  -3   0 -10  185.58   28.70
   3   0  10  220.38   25.90
   3   0  10  229.98   30.60
   3   0  10  260.47   25.20
   3   0  10  331.47   36.80
   8  -1 -10   36.50   14.50
   8  -1 -10   25.60   16.90
   8  -1 -10   45.80   22.60
   8  -1 -10   53.09   16.00
   8  -1 -10   22.90   16.40
  -8   1  10   12.90   21.70
  -8   1  10   59.69   14.20
  -8   1  10   55.29   23.00
  -8   1  10   24.90   17.00
   7  -1 -10   42.40   16.40
   7  -1 -10   58.69   15.40
   7  -1 -10   35.70   13.30
   7  -1 -10   62.29   15.70
  -7   1  10   34.00   18.00
  -7   1  10   14.50   16.70
  -7   1  10    8.70   17.60
  -7   1  10   51.49   16.00
   6  -1 -10  225.78   21.50
   6  -1 -10  268.97   23.20
   6  -1 -10  264.97   22.40
   6  -1 -10  226.28   21.40
  -6   1  10  279.87   27.10
  -6   1  10  216.68   19.90
  -6   1  10  274.57   28.30
  -6   1  10  250.37   29.50
  -6   1  10  246.78   23.20
   5  -1 -10   77.09   13.50
   5  -1 -10   52.49   12.70
   5  -1 -10   80.89   15.00
   5  -1 -10   94.09   13.40
  -5   1  10   62.69   12.50
  -5   1  10   63.59   17.00
  -5   1  10   60.79   15.10
  -5   1  10   64.79   13.60
  -5   1  10   91.59   18.20
   4  -1 -10 1129.99   43.20
   4  -1 -10 1128.09   42.90
   4  -1 -10 1078.49   43.10
   4  -1 -10 1100.69   40.50
  -4   1  10 1125.59   49.80
  -4   1  10 1109.89   46.60
  -4   1  10 1106.29   42.80
  -4   1  10 1058.99   49.90
  -4   1  10 1078.09   43.30
   3  -1 -10  285.77   19.20
   3  -1 -10  293.47   22.50
   3  -1 -10  297.77   22.00
   3  -1 -10  370.76   21.80
  -3   1  10  291.37   24.60
  -3   1  10  299.87   19.80
  -3   1  10  304.57   21.80
  -3   1  10  300.27   21.90
   2  -1 -10   59.59   12.10
   2  -1 -10   56.89   11.80
   2  -1 -10   44.60   12.20
   2  -1 -10   39.70   12.90
  -2   1  10   55.69   14.80
  -2   1  10   56.79   12.40
  -2   1  10   53.09   11.90
  -2   1  10   52.59   11.70
   1  -1 -10  159.18   17.40
   1  -1 -10  217.68   19.40
   1  -1 -10  199.38   21.50
   1  -1 -10  190.88   17.60
  -1   1  10  156.28   18.10
  -1   1  10  218.68   19.30
  -1   1  10  215.58   19.70
  -1   1  10  196.38   20.80
   0  -1 -10  157.48   19.50
   0  -1 -10  139.69   17.50
   0  -1 -10  149.29   18.20
   0   1  10  144.19   19.30
   0   1  10  196.88   22.60
   0   1  10  122.59   19.30
   0   1  10  147.19   18.80
  -1  -1 -10  142.89   18.40
  -1  -1 -10  126.89   20.60
  -1  -1 -10  132.69   18.20
   1   1  10  133.49   19.80
   1   1  10  116.99   19.00
   1   1  10  119.59   21.90
   1   1  10   86.99   16.40
  -2  -1 -10  234.68   28.60
  -2  -1 -10  223.68   24.90
   2   1  10  274.57   34.80
   2   1  10  267.67   26.30
   2   1  10  258.67   30.20
   8  -2 -10  120.29   20.60
   8  -2 -10  151.78   20.50
   8  -2 -10  188.58   25.10
   8  -2 -10  160.48   17.80
  -8   2  10  152.98   29.30
  -8   2  10  125.99   28.30
  -8   2  10  175.58   29.40
   7  -2 -10  233.68   23.00
   7  -2 -10  199.28   21.30
   7  -2 -10  153.28   20.20
   7  -2 -10  202.28   22.00
  -7   2  10  210.88   22.80
  -7   2  10  247.08   30.70
   6  -2 -10  420.46   25.50
   6  -2 -10  406.66   27.20
   6  -2 -10  440.56   23.60
   6  -2 -10  444.96   29.10
  -6   2  10  395.66   25.20
  -6   2  10  498.55   35.50
  -6   2  10  504.55   35.80
  -6   2  10  450.05   33.50
  -6   2  10  420.66   26.10
   5  -2 -10   -2.80    9.50
   5  -2 -10   15.60   11.00
   5  -2 -10   -1.70    8.40
   5  -2 -10    6.70    7.60
  -5   2  10   18.50   15.30
  -5   2  10   11.00   10.20
  -5   2  10    5.70   14.30
  -5   2  10    0.10   13.40
  -5   2  10    7.90   10.70
   4  -2 -10   -9.40    8.00
   4  -2 -10  -13.80   10.20
   4  -2 -10    0.80    9.50
   4  -2 -10    6.60    7.10
  -4   2  10   10.00   10.80
  -4   2  10    6.30   13.70
  -4   2  10    0.30    8.60
   3  -2 -10  336.97   23.10
   3  -2 -10  285.67   24.00
   3  -2 -10  275.17   18.00
   3  -2 -10  321.87   21.50
  -3   2  10  326.77   19.40
  -3   2  10  305.97   21.80
   2  -2 -10  172.58   18.40
   2  -2 -10  172.48   17.60
  -2   2  10  162.08   20.50
  -2   2  10  179.98   23.40
  -2   2  10  186.08   17.00
  -2   2  10  183.58   18.30
   1  -2 -10  159.88   18.80
   1  -2 -10  190.68   21.50
   1  -2 -10  163.18   18.70
  -1   2  10  180.78   22.80
  -1   2  10  177.68   20.20
  -1   2  10  195.78   24.90
  -1   2  10  187.88   19.60
   0  -2 -10   92.69   16.70
   0  -2 -10  105.09   20.10
   0  -2 -10  109.19   16.60
   0  -2 -10  121.89   16.40
   0   2  10  107.29   17.30
   0   2  10   85.49   20.60
   0   2  10  116.39   20.10
   0   2  10  103.39   17.10
  -1  -2 -10    2.00   12.40
  -1  -2 -10  -13.30   18.30
  -1  -2 -10   10.50   11.80
  -1  -2 -10    1.20   12.60
   1   2  10   -0.10   13.70
   1   2  10   26.80   20.00
   1   2  10   18.80   18.60
   1   2  10   -6.20   14.70
  -2  -2 -10  -12.90   14.60
  -2  -2 -10   13.30   15.40
  -2  -2 -10    4.70   16.10
   2   2  10   23.00   24.80
   2   2  10   31.10   22.40
   2   2  10    7.00   18.40
   2   2  10   13.20   15.10
   8  -3 -10    2.00   13.20
   8  -3 -10    9.70   16.10
  -8   3  10   27.80   13.50
  -8   3  10    4.50   21.80
  -8   3  10    0.90   24.10
  -8   3  10   39.50   22.40
   7  -3 -10  176.58   21.50
   7  -3 -10  150.48   15.70
   7  -3 -10  151.88   19.20
  -7   3  10  130.69   26.30
  -7   3  10  120.19   16.80
  -7   3  10  178.68   27.30
   6  -3 -10   35.50    8.10
   6  -3 -10   50.69   11.80
   6  -3 -10   75.49   15.60
  -6   3  10   26.00   16.30
  -6   3  10   54.09   15.80
  -6   3  10   39.10   13.00
   5  -3 -10  379.56   24.10
   5  -3 -10  347.77   15.90
   5  -3 -10  345.47   22.50
  -5   3  10  338.47   28.40
  -5   3  10  281.57   25.20
  -5   3  10  343.27   22.70
  -5   3  10  405.36   33.40
   4  -3 -10  106.29   16.20
   4  -3 -10   69.89   12.60
  -4   3  10   78.89   15.60
  -4   3  10  114.49   15.20
   3  -3 -10  403.36   26.20
   3  -3 -10  358.56   28.70
   3  -3 -10  368.66   24.40
  -3   3  10  367.76   20.30
  -3   3  10  380.16   28.10
  -3   3  10  423.16   26.00
   2  -3 -10   -2.80    9.60
   2  -3 -10   31.20   14.70
   2  -3 -10    4.60   10.20
  -2   3  10   19.50   11.30
  -2   3  10   -0.50   13.60
  -2   3  10   19.50    9.70
  -2   3  10   34.20   17.50
   1  -3 -10   20.20   12.30
   1  -3 -10   24.70   11.90
   1  -3 -10   36.70    9.70
   1  -3 -10   27.10   17.80
  -1   3  10   24.10   17.50
  -1   3  10   55.89   13.50
  -1   3  10   55.69   19.00
  -1   3  10   47.50   13.60
   0  -3 -10   -0.60   12.70
   0  -3 -10    0.10   10.80
   0  -3 -10   10.50   13.10
   0  -3 -10  -20.90   18.70
   0   3  10    2.70   20.40
   0   3  10   -6.10   16.50
   0   3  10  -13.30   12.30
   0   3  10  -48.00   18.10
  -1  -3 -10  271.37   27.20
  -1  -3 -10  272.37   31.80
  -1  -3 -10  259.07   26.20
  -1  -3 -10  342.27   41.90
   1   3  10  265.77   36.20
   1   3  10  262.17   27.00
   1   3  10  261.67   32.70
   1   3  10  274.67   31.00
   8  -4 -10   17.70   13.70
   8  -4 -10   15.30    6.50
   8  -4 -10   35.80   16.40
  -8   4  10   63.79   24.60
  -8   4  10    9.90   19.70
  -8   4  10   12.60   13.20
   7  -4 -10  593.74   36.30
   7  -4 -10  599.64   33.70
   7  -4 -10  606.34   35.50
  -7   4  10  621.64   44.30
  -7   4  10  625.94   31.80
  -7   4  10  647.04   48.10
  -7   4  10  707.23   41.00
   6  -4 -10  432.36   25.90
   6  -4 -10  384.26   29.20
   6  -4 -10  439.26   28.40
  -6   4  10  410.66   36.90
  -6   4  10  400.06   33.70
  -6   4  10  433.56   26.20
  -6   4  10  459.65   40.00
   5  -4 -10   -0.70    9.50
   5  -4 -10    4.80   20.50
   5  -4 -10  -14.40   12.10
  -5   4  10   12.50   11.00
  -5   4  10    6.30   14.60
   4  -4 -10  966.20   41.30
   4  -4 -10  946.71   43.50
  -4   4  10 1017.70   41.80
   3  -4 -10   36.20   13.50
   3  -4 -10   26.50   13.10
   3  -4 -10    1.00   16.20
  -3   4  10   37.60    9.20
  -3   4  10   35.90   22.60
  -3   4  10   32.90   11.90
   2  -4 -10  122.49   13.20
   2  -4 -10  146.49   19.20
   2  -4 -10  143.99   24.00
   2  -4 -10  129.39   22.60
  -2   4  10   97.59   24.90
  -2   4  10  145.39   24.70
  -2   4  10  144.99   17.70
  -2   4  10  129.19   19.10
   1  -4 -10  379.36   29.00
   1  -4 -10  379.66   24.10
   1  -4 -10  396.16   38.60
   1  -4 -10  351.66   27.40
  -1   4  10  370.06   34.50
  -1   4  10  352.06   27.10
  -1   4  10  387.26   39.50
  -1   4  10  347.27   39.80
   0  -4 -10   26.90   13.90
   0  -4 -10   19.40   16.70
   0  -4 -10  -11.40   23.00
   0  -4 -10    7.80   14.60
   0   4  10   14.00   24.30
   0   4  10   36.50   17.60
   0   4  10   37.80   16.40
   0   4  10   91.19   30.40
   7  -5 -10  168.68   22.80
   7  -5 -10  143.89   21.30
   7  -5 -10  150.38   18.20
  -7   5  10  151.08   21.80
  -7   5  10  134.49   29.60
  -7   5  10  147.29   18.00
  -7   5  10  119.49   24.60
   6  -5 -10  154.18   22.20
   6  -5 -10  207.48   21.00
   6  -5 -10  151.78   21.60
  -6   5  10  173.88   30.60
  -6   5  10  141.79   31.70
  -6   5  10  149.79   21.90
  -6   5  10  124.99   22.40
  -6   5  10  187.48   21.90
   5  -5 -10   -2.50   11.10
   5  -5 -10   18.60   11.80
   5  -5 -10  -23.00   15.50
  -5   5  10   -2.50   16.60
  -5   5  10   19.90   23.60
  -5   5  10   17.60   13.20
  -5   5  10   32.10   16.40
   4  -5 -10  352.96   34.20
   4  -5 -10  342.87   25.50
   4  -5 -10  324.87   27.90
  -4   5  10  328.57   29.50
  -4   5  10  424.76   43.00
  -4   5  10  314.47   34.60
  -4   5  10  398.46   29.10
   3  -5 -10  116.79   19.60
   3  -5 -10  114.99   18.20
   3  -5 -10  101.19   23.50
   3  -5 -10  133.29   12.80
  -3   5  10  115.59   14.70
  -3   5  10  126.49   27.80
  -3   5  10  105.49   24.50
  -3   5  10  130.59   19.90
   2  -5 -10   10.80   14.40
   2  -5 -10    3.80   10.00
   2  -5 -10    6.20   22.40
   2  -5 -10   -3.00   12.30
  -2   5  10   22.90   12.10
  -2   5  10   23.50   15.30
  -2   5  10  -41.40   26.40
  -2   5  10   16.40   24.10
   1  -5 -10  165.68   22.80
   1  -5 -10  255.27   36.20
   1  -5 -10  219.98   23.40
   1  -5 -10  239.08   28.70
  -1   5  10  188.98   22.80
  -1   5  10  222.78   35.90
  -1   5  10  157.88   24.50
   6  -6 -10  146.39   24.80
   6  -6 -10  171.98   24.60
   6  -6 -10  193.88   23.50
  -6   6  10  238.58   34.10
  -6   6  10  150.58   22.80
  -6   6  10  178.08   28.30
  -6   6  10  179.48   21.30
   5  -6 -10  134.79   18.90
   5  -6 -10  113.19   22.10
   5  -6 -10   80.39   24.70
  -5   6  10  167.88   21.80
  -5   6  10  121.39   26.50
  -5   6  10  145.19   20.20
   4  -6 -10  193.48   25.20
   4  -6 -10  169.48   15.10
   4  -6 -10  142.29   28.80
   4  -6 -10  149.59   21.20
  -4   6  10  183.78   23.00
  -4   6  10  159.78   22.50
   3  -6 -10  178.28   32.70
   3  -6 -10  199.68   25.50
   3  -6 -10  182.48   19.30
   3  -6 -10  174.08   23.70
  -3   6  10  217.78   25.90
  -3   6  10  161.78   16.50
   2   6 -11  268.37   33.90
   2   6 -11  203.08   29.30
   2   6 -11  260.77   44.40
  -2  -6  11  277.67   35.80
  -2  -6  11  214.68   28.70
  -2  -6  11  274.87   36.90
   1   6 -11  331.97   49.30
   1   6 -11  340.07   38.50
   1   6 -11  266.87   31.90
   1   6 -11  277.87   47.60
   1   6 -11  316.87   30.20
  -1  -6  11  314.47   34.40
  -1  -6  11  351.06   39.20
  -1  -6  11  321.97   34.70
   0   6 -11  571.64   49.40
   0   6 -11  430.16   43.50
   0   6 -11  481.95   45.60
   0   6 -11  495.05   35.70
   0   6 -11  563.54   46.40
   0  -6  11  524.55   41.00
   0  -6  11  511.25   41.50
   0  -6  11  588.84   38.00
   0  -6  11  492.15   38.20
  -1   6 -11  347.27   40.60
  -1   6 -11  280.67   37.30
  -1   6 -11  378.86   34.20
  -1   6 -11  423.36   38.50
  -1   6 -11  396.36   36.00
   1  -6  11  378.86   33.20
   1  -6  11  424.26   41.10
   1  -6  11  348.07   37.40
   1  -6  11  328.07   37.10
  -2   6 -11  200.68   29.40
  -2   6 -11  159.08   33.50
  -2   6 -11  199.98   31.00
   2  -6  11  144.19   23.90
   2  -6  11  158.88   26.80
   2  -6  11  198.98   30.60
   3   5 -11  374.96   37.40
   3   5 -11  283.77   34.30
   3   5 -11  326.27   42.70
  -3  -5  11  234.88   31.40
  -3  -5  11  278.77   36.90
  -3  -5  11  275.47   30.60
   2   5 -11  326.97   33.60
   2   5 -11  327.87   26.20
   2   5 -11  320.97   40.50
   2   5 -11  343.47   34.60
  -2  -5  11  326.87   30.80
  -2  -5  11  341.07   37.20
  -2  -5  11  374.56   31.50
   1   5 -11   36.70   15.30
   1   5 -11   -0.10   17.40
   1   5 -11    3.60   21.00
   1   5 -11   14.50   15.70
  -1  -5  11    9.20   17.10
  -1  -5  11    2.50   13.30
  -1  -5  11   47.20   16.60
  -1  -5  11   21.50   20.10
   0   5 -11  127.89   22.80
   0   5 -11  156.78   25.90
   0   5 -11  113.59   22.70
   0   5 -11  100.69   21.40
   0   5 -11  121.49   25.40
   0  -5  11  110.69   10.90
   0  -5  11  123.49   21.60
   0  -5  11  134.19   23.70
   0  -5  11  113.69   23.60
   0  -5  11  146.39   20.30
  -1   5 -11  186.28   27.00
  -1   5 -11  155.18   21.90
  -1   5 -11  125.49   27.80
  -1   5 -11  141.09   26.60
  -1   5 -11  135.19   23.40
   1  -5  11  143.39   25.60
   1  -5  11  130.59   21.00
   1  -5  11  152.28   25.60
   1  -5  11  156.08   15.20
   1  -5  11  117.29   22.80
  -2   5 -11   41.10   24.40
  -2   5 -11   47.50   26.30
  -2   5 -11   83.29   20.00
  -2   5 -11   69.69   22.90
  -2   5 -11   29.00   19.00
   2  -5  11   78.69   18.80
   2  -5  11   49.00   21.10
   2  -5  11   42.50   18.80
   2  -5  11   63.69   21.20
  -3   5 -11  143.29   31.70
  -3   5 -11  224.08   33.20
  -3   5 -11  274.37   32.20
   3  -5  11  225.18   29.30
   3  -5  11  204.58   29.70
   3  -5  11  251.77   33.00
   3  -5  11  216.08   27.80
   3  -5  11  224.08   29.30
   4   4 -11   73.39   21.60
   4   4 -11  100.19   27.60
   4   4 -11   66.99   20.60
  -4  -4  11   51.89   24.70
  -4  -4  11   69.59   19.90
  -4  -4  11   34.50   22.20
   3   4 -11  167.18   19.50
   3   4 -11  155.48   22.00
   3   4 -11  171.28   27.70
   3   4 -11  138.79   23.20
  -3  -4  11  157.08   29.80
  -3  -4  11  179.98   26.70
  -3  -4  11  118.69   20.50
   2   4 -11    2.90   17.50
   2   4 -11  -20.00   15.20
   2   4 -11    9.90   12.60
   2   4 -11    2.60   14.50
  -2  -4  11    3.90   13.00
  -2  -4  11   11.80    9.90
  -2  -4  11  -23.80   14.60
   1   4 -11   62.89   17.00
   1   4 -11   80.89   19.10
   1   4 -11   46.30   15.90
   1   4 -11   49.50   19.70
  -1  -4  11   67.49   11.70
  -1  -4  11   83.99   19.20
  -1  -4  11   50.99   15.80
  -1  -4  11   96.99   20.40
   0   4 -11 1012.20   48.00
   0   4 -11  968.50   47.00
   0   4 -11  948.81   48.80
   0   4 -11  973.00   44.20
   0  -4  11  957.50   48.70
   0  -4  11  951.00   43.00
   0  -4  11  949.21   48.70
  -1   4 -11   11.20   15.20
  -1   4 -11   40.50   19.00
  -1   4 -11   15.50   17.30
   1  -4  11   51.59   15.00
   1  -4  11   19.00   14.30
   1  -4  11   21.30   20.10
   1  -4  11   29.50   15.80
   1  -4  11   25.20   17.10
  -2   4 -11   12.70   20.30
  -2   4 -11   -0.90   19.30
  -2   4 -11   -1.30   18.80
  -2   4 -11   41.80   17.00
  -2   4 -11  -15.00   15.00
   2  -4  11   14.10   16.20
   2  -4  11    3.70   16.00
   2  -4  11   -7.10   16.80
   2  -4  11   20.60   19.80
   2  -4  11   26.80   15.80
  -3   4 -11   68.49   29.00
  -3   4 -11   84.29   25.80
  -3   4 -11   82.09   20.80
  -3   4 -11   87.29   26.20
  -3   4 -11  112.09   21.70
   3  -4  11  138.09   24.80
   3  -4  11   86.89   21.00
   3  -4  11  137.99   27.10
   3  -4  11  101.69   24.00
   3  -4  11  158.78   22.90
   5   3 -11  111.19   26.90
   5   3 -11   73.09   19.90
   5   3 -11  104.39   22.60
  -5  -3  11   80.69   22.80
  -5  -3  11   86.79   15.70
  -5  -3  11   96.19   19.10
  -5  -3  11   70.19   22.80
   4   3 -11    6.70    9.90
   4   3 -11   13.30   16.60
   4   3 -11   -2.20   19.00
   4   3 -11   25.30   16.10
  -4  -3  11   10.00   19.50
  -4  -3  11   -2.10   15.70
   3   3 -11   76.49   14.00
   3   3 -11   42.40   16.40
   3   3 -11   77.09   19.30
   3   3 -11   73.09   17.40
  -3  -3  11   36.50   12.90
  -3  -3  11   61.79   19.10
  -3  -3  11   72.49   15.00
  -3  -3  11   83.39   23.50
   2   3 -11  437.46   31.20
   2   3 -11  404.56   28.70
   2   3 -11  473.45   33.70
   2   3 -11  387.16   28.20
  -2  -3  11  428.96   28.10
  -2  -3  11  414.86   31.00
  -2  -3  11  389.56   25.40
  -2  -3  11  425.56   32.20
   1   3 -11   27.70   14.10
   1   3 -11   24.10   13.70
   1   3 -11   21.20   13.10
   1   3 -11   39.70   15.50
  -1  -3  11   32.40   13.00
  -1  -3  11   29.20   14.80
  -1  -3  11   -9.30   13.10
   0   3 -11  798.42   43.70
   0   3 -11  947.01   41.50
   0   3 -11  906.81   45.70
   0   3 -11  854.41   42.50
   0  -3  11  839.32   43.70
   0  -3  11  868.91   44.50
   0  -3  11  903.91   40.20
   0  -3  11  977.40   39.00
  -1   3 -11   93.59   19.60
  -1   3 -11   20.80   14.70
  -1   3 -11   45.50   17.30
   1  -3  11   58.39   17.30
   1  -3  11   61.89   13.90
   1  -3  11   44.40   19.10
   1  -3  11   74.09   15.50
   1  -3  11   69.29   16.60
  -2   3 -11  212.88   26.90
  -2   3 -11  213.68   29.90
   2  -3  11  229.08   29.40
   2  -3  11  244.28   28.40
   2  -3  11  209.18   24.20
   2  -3  11  209.88   25.60
   2  -3  11  200.48   25.10
  -3   3 -11   71.89   19.60
  -3   3 -11   37.20   19.20
  -3   3 -11   98.99   25.30
  -3   3 -11   49.70   23.10
  -3   3 -11   82.69   24.10
   3  -3  11   59.09   20.10
   3  -3  11   59.59   19.10
   3  -3  11  112.89   33.30
   3  -3  11   74.69   20.40
   3  -3  11   35.20   20.10
   6   2 -11  319.27   31.30
   6   2 -11  290.67   31.60
   6   2 -11  273.47   33.90
  -6  -2  11  317.87   29.90
  -6  -2  11  267.57   36.30
  -6  -2  11  258.07   27.90
  -6  -2  11  290.17   34.70
  -6  -2  11  318.77   24.70
   5   2 -11   77.79   17.80
   5   2 -11   64.99   11.90
   5   2 -11   75.59   18.70
   5   2 -11   86.79   22.90
  -5  -2  11   92.39   19.40
  -5  -2  11   71.49   16.80
  -5  -2  11   86.39   12.80
  -5  -2  11   60.89   19.70
  -5  -2  11   88.49   23.30
   4   2 -11   24.80   14.10
   4   2 -11   32.40   16.70
   4   2 -11   38.50   12.20
   4   2 -11   33.30   15.10
  -4  -2  11   51.29   17.00
  -4  -2  11   20.50   13.30
  -4  -2  11   42.00   14.60
  -4  -2  11   51.29   20.80
   3   2 -11   94.89   17.70
   3   2 -11   81.49   18.60
   3   2 -11   93.29   16.70
  -3  -2  11  103.29   16.70
  -3  -2  11  111.09   17.00
  -3  -2  11   92.79   18.00
   2   2 -11 1429.46   57.59
   2   2 -11 1489.95   57.29
   2   2 -11 1564.04   56.99
   2   2 -11 1542.25   56.09
  -2  -2  11 1494.95   58.19
  -2  -2  11 1414.16   54.49
  -2  -2  11 1431.96   55.09
  -2  -2  11 1483.35   58.09
   1   2 -11  173.48   20.50
   1   2 -11  181.28   21.40
   1   2 -11  172.98   21.60
   1   2 -11  199.88   23.50
  -1  -2  11  140.69   20.60
  -1  -2  11  188.38   22.00
  -1  -2  11  191.48   20.70
  -1  -2  11  170.78   15.40
   0   2 -11  914.41   45.30
   0   2 -11  823.22   40.50
   0   2 -11  935.51   42.10
   0   2 -11  896.91   42.70
   0  -2  11  908.41   36.30
   0  -2  11  933.91   41.30
   0  -2  11  873.71   42.40
   0  -2  11  871.71   43.30
   0  -2  11  839.02   39.40
  -1   2 -11  311.77   26.10
  -1   2 -11  319.97   29.10
  -1   2 -11  330.57   31.00
   1  -2  11  335.07   27.50
   1  -2  11  259.07   26.10
   1  -2  11  346.67   26.90
   1  -2  11  324.47   29.40
  -2   2 -11  980.40   45.80
  -2   2 -11  872.31   48.10
  -2   2 -11  918.91   49.10
   2  -2  11 1033.40   46.70
   2  -2  11 1044.80   45.80
   2  -2  11  988.50   50.09
   2  -2  11  967.70   46.30
   2  -2  11  983.10   45.60
  -3   2 -11  208.08   32.00
  -3   2 -11  270.47   28.40
   3  -2  11  267.77   29.40
   3  -2  11  263.37   33.40
   3  -2  11  210.78   27.60
   3  -2  11  269.47   32.90
   6   1 -11   27.40   16.00
   6   1 -11  -10.20   15.00
   6   1 -11   26.90   18.30
  -6  -1  11    1.30    9.20
  -6  -1  11    7.90   17.20
  -6  -1  11   -4.20   14.20
  -6  -1  11    9.10   16.40
  -6  -1  11   27.10   21.70
  -6  -1  11   32.80   17.10
   5   1 -11   24.90   14.10
   5   1 -11    7.40   15.20
   5   1 -11   42.40   14.80
  -5  -1  11   32.30    7.60
  -5  -1  11   46.50   13.40
  -5  -1  11   -1.10   26.10
  -5  -1  11   37.80   15.50
  -5  -1  11   24.90   15.40
  -5  -1  11   27.70   15.10
   4   1 -11  388.36   27.80
   4   1 -11  389.46   28.20
   4   1 -11  424.46   28.00
   4   1 -11  375.46   27.40
  -4  -1  11  434.56   34.80
  -4  -1  11  395.96   28.60
  -4  -1  11  405.86   16.50
  -4  -1  11  392.86   27.50
  -4  -1  11  426.66   29.30
   3   1 -11   65.69   14.00
   3   1 -11   77.69   13.90
   3   1 -11   85.09   15.80
   3   1 -11   69.89   15.30
  -3  -1  11   74.89   15.60
  -3  -1  11   66.49   15.00
  -3  -1  11   70.69   16.70
  -3  -1  11   67.29   16.00
   2   1 -11   10.10   10.60
   2   1 -11   13.90   11.90
   2   1 -11   32.40   12.90
   2   1 -11   19.40   12.10
  -2  -1  11   19.10    5.70
  -2  -1  11    8.90   11.10
  -2  -1  11   18.90   10.90
  -2  -1  11  -21.20   10.30
   1   1 -11   93.49   15.90
   1   1 -11  109.59   17.00
   1   1 -11  111.89   16.70
   1   1 -11  126.89   18.50
  -1  -1  11  109.19   17.30
  -1  -1  11  101.69   17.20
  -1  -1  11   95.89   16.70
  -1  -1  11   95.19   15.80
  -1  -1  11  116.99   12.50
   0   1 -11  665.83   34.10
   0   1 -11  697.33   35.30
   0  -1  11  610.04   36.10
   0  -1  11  618.54   34.20
   0  -1  11  607.04   28.30
   0  -1  11  656.23   34.50
   0  -1  11  586.04   31.60
  -1   1 -11  345.77   39.70
  -1   1 -11  404.66   28.40
  -1   1 -11  299.07   28.10
  -1   1 -11  415.16   31.30
   1  -1  11  452.75   30.70
   1  -1  11  402.36   26.80
   1  -1  11  395.86   29.70
   1  -1  11  384.96   32.50
   1  -1  11  427.36   31.90
  -2   1 -11    7.70   15.30
  -2   1 -11   -5.20   13.20
   2  -1  11   -5.00   16.70
   2  -1  11    1.30   13.80
   2  -1  11  -21.90   16.90
   2  -1  11   14.00   15.00
   2  -1  11    6.40   16.60
  -3   1 -11   85.09   19.50
  -3   1 -11   84.49   26.30
   3  -1  11   67.49   18.60
   3  -1  11   80.89   25.70
   3  -1  11   76.89   23.00
   3  -1  11   57.89   22.90
   3  -1  11   63.49   21.90
   7   0 -11  447.66   31.30
   7   0 -11  487.65   39.50
   7   0 -11  441.66   31.40
   7   0 -11  418.26   33.00
  -7   0  11  421.76   34.10
  -7   0  11  424.86   40.70
  -7   0  11  442.06   30.70
  -7   0  11  422.96   37.60
  -7   0  11  353.96   22.70
   6   0 -11   19.80   14.10
   6   0 -11   27.80   17.40
   6   0 -11  -23.20   12.40
   6   0 -11  -18.60   13.30
  -6   0  11   -3.00   17.70
  -6   0  11    5.10   16.30
  -6   0  11    7.00   16.40
  -6   0  11    1.20   14.40
  -6   0  11   15.60    6.60
  -6   0  11   19.20   13.00
   5   0 -11  -11.40   12.10
   5   0 -11  -14.10   12.30
   5   0 -11   -2.60   11.50
   5   0 -11   -8.00   12.30
  -5   0  11    4.10   14.30
  -5   0  11    7.20   17.40
  -5   0  11   15.80   13.30
  -5   0  11   -2.80   13.60
   4   0 -11   18.00   10.70
   4   0 -11   25.40   12.00
   4   0 -11   26.20   13.50
   4   0 -11   56.69   14.00
  -4   0  11   17.60   11.90
  -4   0  11   18.10   18.40
  -4   0  11   19.10   13.50
  -4   0  11   30.60   15.20
   3   0 -11 1314.47   50.39
   3   0 -11 1285.67   49.99
   3   0 -11 1329.77   51.49
   3   0 -11 1272.07   49.50
  -3   0  11 1335.27   51.89
  -3   0  11 1241.28   48.70
   2   0 -11    3.20   10.30
   2   0 -11   -5.40   10.10
   2   0 -11  -11.90   12.00
   2   0 -11   -6.60   10.70
  -2   0  11   -5.70   10.40
  -2   0  11   -1.10   10.60
  -2   0  11  -12.80   10.90
   1   0 -11   14.10    9.40
   1   0 -11    1.00   11.90
   1   0 -11    4.80    8.60
   1   0 -11   24.80   12.10
  -1   0  11    8.40   11.60
  -1   0  11   24.70   13.90
  -1   0  11   15.90   12.40
  -1   0  11    4.90   12.00
  -1   0  11   19.00    6.50
   0   0 -11  298.37   24.20
   0   0 -11  310.77   25.40
   0   0 -11  320.77   27.90
   0   0 -11  342.77   26.70
   0   0  11  313.37   25.00
   0   0  11  294.07   20.00
   0   0  11  335.67   28.40
   0   0  11  322.97   26.50
   0   0  11  312.07   27.40
  -1   0 -11   72.19   16.30
   1   0  11   69.09   16.30
   1   0  11   85.19   19.90
   1   0  11  118.09   21.50
   1   0  11   56.49   18.70
  -2   0 -11   26.20   22.10
  -2   0 -11   22.00   15.50
  -2   0 -11   68.49   22.90
   2   0  11   69.99   19.10
   2   0  11   67.69   21.00
   2   0  11   43.70   16.00
   2   0  11   52.89   20.80
   2   0  11   67.09   23.10
   7  -1 -11   15.00   15.80
   7  -1 -11    9.20   16.80
   7  -1 -11   23.40   14.00
   7  -1 -11   -7.00   14.40
  -7   1  11    3.00   19.50
  -7   1  11   13.30   21.30
  -7   1  11   12.40   15.80
  -7   1  11   16.50   14.50
   6  -1 -11   -3.90   12.00
   6  -1 -11    7.20   13.00
   6  -1 -11  -13.30   12.60
  -6   1  11    7.00   13.70
  -6   1  11    6.90   14.70
   5  -1 -11  514.65   29.10
   5  -1 -11  491.05   30.20
   5  -1 -11  469.65   27.40
   5  -1 -11  535.55   29.60
  -5   1  11  445.46   29.40
  -5   1  11  527.25   37.80
  -5   1  11  534.35   36.20
   4  -1 -11   31.40   11.60
   4  -1 -11   10.50   11.90
   4  -1 -11   20.50   10.70
   4  -1 -11   25.00   12.60
  -4   1  11   37.50   15.90
  -4   1  11   22.90   11.50
  -4   1  11   14.10   14.60
   3  -1 -11   73.99   12.70
   3  -1 -11   95.09   14.60
   3  -1 -11   72.69   15.00
   3  -1 -11   78.19   15.80
  -3   1  11   87.19   14.70
  -3   1  11   76.29   15.50
   2  -1 -11  157.08   19.60
   2  -1 -11  125.79   17.10
   2  -1 -11  147.69   18.50
   2  -1 -11  117.39   18.00
  -2   1  11  140.99   18.90
  -2   1  11  135.19   18.90
  -2   1  11  146.39   19.10
  -2   1  11  146.49   19.30
   1  -1 -11  672.43   33.80
   1  -1 -11  603.34   33.70
  -1   1  11  644.24   36.90
  -1   1  11  670.13   37.60
  -1   1  11  703.93   35.40
  -1   1  11  689.03   34.50
   0  -1 -11  753.02   42.30
   0  -1 -11  827.62   38.50
   0  -1 -11  799.52   38.40
   0   1  11  763.22   41.30
   0   1  11  765.42   43.70
   0   1  11  793.42   38.90
   0   1  11  763.12   40.00
  -1  -1 -11   41.00   15.50
  -1  -1 -11   54.99   20.60
  -1  -1 -11   61.99   16.20
   1   1  11   53.59   20.10
   1   1  11   35.00   21.20
   1   1  11   67.39   16.70
   1   1  11   41.10   18.20
  -2  -1 -11  234.58   27.90
   2   1  11  255.87   29.80
   2   1  11  193.18   29.40
   2   1  11  219.28   28.60
   2   1  11  189.08   32.20
   7  -2 -11  124.29   19.30
   7  -2 -11  128.19   17.20
   7  -2 -11  147.09   19.60
  -7   2  11  130.69   27.70
  -7   2  11  179.18   28.00
  -7   2  11  135.69   25.00
  -7   2  11  121.79   18.00
  -7   2  11  124.89   19.50
   6  -2 -11  136.19   19.00
   6  -2 -11  118.99   15.30
   6  -2 -11  109.59   18.70
  -6   2  11  135.29   18.50
  -6   2  11  127.19   20.30
  -6   2  11  153.68   26.70
  -6   2  11  112.19   22.40
   5  -2 -11   69.79   15.00
   5  -2 -11   69.79   14.20
   5  -2 -11   84.89   16.70
   5  -2 -11   59.09   11.90
  -5   2  11   84.09   21.90
  -5   2  11   69.79   14.80
  -5   2  11   73.29   20.20
   4  -2 -11   87.69   16.00
   4  -2 -11   80.19   12.20
   4  -2 -11   83.39   14.60
  -4   2  11  108.99   16.50
   3  -2 -11   -9.30   10.50
   3  -2 -11   -0.50    9.40
   3  -2 -11    4.70    8.70
   3  -2 -11   11.00   12.70
  -3   2  11  -15.10    9.00
  -3   2  11   -4.30   10.40
   2  -2 -11 1214.28   47.70
   2  -2 -11 1161.58   48.30
  -2   2  11 1167.78   60.39
  -2   2  11 1186.18   45.50
  -2   2  11 1098.69   50.69
  -2   2  11 1169.28   47.80
   1  -2 -11  183.78   24.10
   1  -2 -11  111.79   17.80
   1  -2 -11  134.69   18.70
  -1   2  11  183.78   25.60
  -1   2  11  136.49   19.80
  -1   2  11  148.19   24.40
  -1   2  11  137.59   18.80
   0  -2 -11  507.55   34.10
   0  -2 -11  582.54   40.50
   0  -2 -11  623.74   34.70
   0   2  11  677.63   37.20
   0   2  11  542.25   41.50
   0   2  11  526.55   34.40
   0   2  11  541.55   39.80
  -1  -2 -11  176.98   23.70
  -1  -2 -11  135.29   25.30
   1   2  11  106.09   39.50
   1   2  11  172.88   31.20
   1   2  11  113.59   21.60
   1   2  11  204.18   31.00
   7  -3 -11  252.97   26.20
   7  -3 -11  235.18   18.60
   7  -3 -11  190.58   23.00
  -7   3  11  217.28   24.90
  -7   3  11  261.87   38.20
  -7   3  11  253.57   29.40
  -7   3  11  274.07   27.20
  -7   3  11  275.67   35.20
   6  -3 -11  -11.10   13.40
   6  -3 -11    0.00   11.60
   6  -3 -11   -5.20    7.40
  -6   3  11    6.50   15.30
  -6   3  11  -45.70   18.60
  -6   3  11   26.90   19.00
  -6   3  11    9.80   12.90
  -6   3  11   13.20   20.70
   5  -3 -11   27.60   17.50
   5  -3 -11   15.00    7.50
  -5   3  11   37.80   17.50
  -5   3  11   38.40   17.70
  -5   3  11    7.70   17.60
  -5   3  11   33.50   15.80
  -5   3  11   26.00   13.00
   4  -3 -11   -1.60   14.30
  -4   3  11   -0.70   11.20
   3  -3 -11   53.19   16.00
   3  -3 -11   48.10   17.70
  -3   3  11   37.90   20.60
  -3   3  11   39.90   13.90
  -3   3  11   65.99   11.90
   2  -3 -11   12.30   15.00
   2  -3 -11   31.80   16.90
  -2   3  11   12.70   11.80
  -2   3  11    3.90   11.70
  -2   3  11   -1.10   19.20
  -2   3  11   26.30   17.40
   1  -3 -11  -29.60   19.50
   1  -3 -11  -16.90   11.80
  -1   3  11    8.80   14.30
  -1   3  11    1.30   21.30
  -1   3  11  -31.60   20.30
   0  -3 -11  112.69   20.40
   0  -3 -11   79.09   18.00
   0  -3 -11   83.59   17.20
   0  -3 -11   60.19   27.10
   0   3  11   45.20   25.60
   0   3  11  107.79   21.10
   0   3  11   98.89   20.90
   0   3  11   79.09   28.10
   7  -4 -11   40.50   14.30
   7  -4 -11   70.89   19.20
   7  -4 -11   68.79   19.20
  -7   4  11   61.79   19.20
  -7   4  11   42.10   21.80
  -7   4  11   56.19   25.30
  -7   4  11   31.10   30.60
  -7   4  11   47.70   16.00
   6  -4 -11  177.48   21.50
   6  -4 -11  112.79   20.60
   6  -4 -11  119.49   19.90
  -6   4  11  120.39   22.00
  -6   4  11  115.59   23.90
  -6   4  11  126.69   27.30
  -6   4  11  135.29   18.40
  -6   4  11  104.49   29.60
   5  -4 -11  298.27   23.70
   5  -4 -11  303.37   27.90
  -5   4  11  286.57   30.90
  -5   4  11  278.57   24.70
  -5   4  11  291.77   29.90
  -5   4  11  310.17   37.70
   4  -4 -11    6.00   17.60
   4  -4 -11   50.89   13.80
   4  -4 -11   10.20   13.50
  -4   4  11   39.90   26.20
  -4   4  11   37.90   14.20
  -4   4  11   14.50   18.50
   3  -4 -11  436.36   30.80
   3  -4 -11  393.06   36.90
   3  -4 -11  490.05   30.10
  -3   4  11  452.95   38.80
  -3   4  11  453.85   31.50
  -3   4  11  427.26   43.40
  -3   4  11  413.16   23.70
   2  -4 -11   45.70   15.50
   2  -4 -11   47.10    9.90
   2  -4 -11   62.99   22.20
   2  -4 -11   73.09   17.30
  -2   4  11   66.89   15.10
  -2   4  11   34.10   26.70
  -2   4  11   61.29   17.10
   1  -4 -11  281.97   27.80
   1  -4 -11  302.37   36.70
   1  -4 -11  266.07   29.50
   1  -4 -11  308.37   23.70
  -1   4  11  298.77   30.90
  -1   4  11  281.87   38.40
  -1   4  11  291.67   28.80
  -1   4  11  282.97   40.40
   6  -5 -11   56.99   14.70
   6  -5 -11   57.89   20.80
   6  -5 -11   57.39   19.30
  -6   5  11   83.89   22.50
  -6   5  11   66.79   24.30
  -6   5  11   44.90   16.80
  -6   5  11   23.00   25.60
   5  -5 -11  271.07   24.90
   5  -5 -11  355.56   30.80
   5  -5 -11  229.28   30.70
  -5   5  11  301.07   37.30
  -5   5  11  287.77   27.30
  -5   5  11  310.67   32.30
  -5   5  11  247.98   62.59
   4  -5 -11   28.10   13.90
   4  -5 -11   45.20   23.40
   4  -5 -11   26.40   17.50
  -4   5  11   23.70   16.80
  -4   5  11    1.70   18.20
  -4   5  11   47.50   27.90
   3  -5 -11  229.18   15.30
   3  -5 -11  182.38   32.50
   3  -5 -11  228.98   26.10
   3  -5 -11  261.67   27.30
  -3   5  11  215.68   26.20
  -3   5  11  257.47   20.20
  -3   5  11  139.19   34.90
   2   5 -12  122.79   20.30
   2   5 -12  142.19   28.00
   2   5 -12  176.38   31.40
   2   5 -12  126.49   25.50
  -2  -5  12  137.39   25.20
  -2  -5  12  119.99   22.40
  -2  -5  12  142.79   30.60
  -2  -5  12  118.89   26.10
   1   5 -12   72.99   31.40
   1   5 -12  103.79   20.60
   1   5 -12   79.09   22.40
   1   5 -12   84.19   23.50
  -1  -5  12   93.19   22.30
  -1  -5  12  101.89   25.10
  -1  -5  12   72.99   22.50
  -1  -5  12  106.69   20.30
   0   5 -12   61.89   21.80
   0   5 -12   61.89   37.00
   0   5 -12   49.40   25.30
   0   5 -12   48.60   20.00
   0  -5  12   31.40   19.80
   0  -5  12   64.39   21.10
   0  -5  12   29.10   19.70
   0  -5  12   61.59   23.20
   0  -5  12   66.39   10.90
  -1   5 -12   62.49   26.40
  -1   5 -12   70.09   22.80
  -1   5 -12   63.79   23.30
   1  -5  12   57.19   22.90
   1  -5  12   76.69   20.70
   1  -5  12   69.09   22.40
  -2   5 -12   29.00   24.90
  -2   5 -12   20.70   20.90
  -2   5 -12    8.40   22.60
   2  -5  12   30.10   20.50
   2  -5  12   47.50   22.70
   2  -5  12  -15.40   19.40
   4   4 -12  222.78   29.60
   4   4 -12  222.68   19.40
   4   4 -12  245.68   32.10
   4   4 -12  230.38   35.80
  -4  -4  12  226.28   32.60
  -4  -4  12  267.77   36.10
  -4  -4  12  246.48   31.80
   3   4 -12  334.07   40.50
   3   4 -12  382.96   35.90
   3   4 -12  301.67   35.50
   3   4 -12  381.76   27.50
  -3  -4  12  383.86   39.70
  -3  -4  12  320.07   39.50
  -3  -4  12  369.56   34.60
   2   4 -12   86.29   21.40
   2   4 -12  103.49   20.40
   2   4 -12  142.99   26.90
   2   4 -12   75.49   21.00
  -2  -4  12   97.49   15.90
  -2  -4  12  137.59   21.50
  -2  -4  12   96.09   22.20
  -2  -4  12  119.19   21.10
   1   4 -12  215.08   28.30
   1   4 -12  195.98   25.40
   1   4 -12  213.78   28.70
   1   4 -12  213.98   24.50
  -1  -4  12  209.18   26.10
  -1  -4  12  218.28   21.10
  -1  -4  12  244.68   30.60
  -1  -4  12  179.88   26.70
  -1  -4  12  259.37   28.00
   0   4 -12  110.59   25.20
   0   4 -12  103.99   22.90
   0   4 -12   73.29   23.30
   0   4 -12  120.49   24.00
   0  -4  12  114.19   21.40
   0  -4  12   78.09   21.30
   0  -4  12  105.89   22.70
   0  -4  12  119.19   20.70
  -1   4 -12  125.79   26.30
  -1   4 -12  124.49   23.80
  -1   4 -12  103.69   21.90
  -1   4 -12  155.58   28.30
   1  -4  12  130.99   27.30
   1  -4  12  151.48   22.70
   1  -4  12  169.88   27.30
   1  -4  12  149.09   21.10
   1  -4  12  162.18   25.30
  -2   4 -12   71.99   27.40
  -2   4 -12   98.49   27.50
  -2   4 -12  109.69   24.00
   2  -4  12  133.19   27.00
   2  -4  12   78.99   21.30
   2  -4  12  100.19   21.40
   2  -4  12   87.89   23.20
   5   3 -12  100.59   23.80
   5   3 -12   67.19   22.90
   5   3 -12   93.99   11.10
   5   3 -12  122.79   30.10
  -5  -3  12  113.59   17.50
  -5  -3  12  131.89   28.00
  -5  -3  12   84.39   22.60
  -5  -3  12   86.59   28.40
   4   3 -12  193.88   25.50
   4   3 -12  159.78   28.70
   4   3 -12  199.78   23.20
   4   3 -12  174.58   25.60
  -4  -3  12  226.68   27.00
  -4  -3  12  185.68   24.00
  -4  -3  12  265.37   25.80
  -4  -3  12  201.58   33.00
  -4  -3  12  198.98   28.60
   3   3 -12   -7.50   13.10
   3   3 -12    1.80   16.00
   3   3 -12   14.70   16.40
   3   3 -12    9.30   19.00
  -3  -3  12    4.40   16.40
  -3  -3  12   -4.80   12.10
  -3  -3  12    7.90   16.70
  -3  -3  12  -35.90   13.90
   2   3 -12    7.90   17.90
   2   3 -12    2.20   13.50
   2   3 -12   -7.90   17.90
  -2  -3  12  -12.10   12.50
  -2  -3  12   -7.90   14.60
  -2  -3  12   19.10   15.80
  -2  -3  12   14.60   14.40
  -2  -3  12  -15.60   15.20
   1   3 -12  339.87   32.60
   1   3 -12  360.46   28.00
   1   3 -12  355.56   30.20
   1   3 -12  387.56   31.10
  -1  -3  12  314.07   32.20
  -1  -3  12  346.97   23.50
  -1  -3  12  344.37   31.60
  -1  -3  12  338.37   28.60
   0   3 -12   17.80   18.90
   0   3 -12   13.60   18.10
   0   3 -12  -22.40   16.80
   0   3 -12   16.00   15.90
   0  -3  12   49.70   17.20
   0  -3  12   15.60   16.00
   0  -3  12   26.90   15.30
  -1   3 -12  143.79   24.90
  -1   3 -12   74.29   21.70
  -1   3 -12   63.59   19.20
  -1   3 -12  146.89   20.50
   1  -3  12   69.09   17.50
   1  -3  12   65.69   18.90
   1  -3  12   90.49   23.60
   1  -3  12   65.79   17.40
   1  -3  12   61.59   20.30
  -2   3 -12   16.10   17.40
  -2   3 -12  -13.90   21.40
  -2   3 -12  -35.10   22.00
   2  -3  12   -0.50   18.20
   2  -3  12  -18.10   16.50
   2  -3  12   19.60   19.40
   2  -3  12   12.00   20.60
   2  -3  12   26.80   20.80
   5   2 -12   80.69   20.20
   5   2 -12  125.99   16.80
   5   2 -12   85.99   22.10
   5   2 -12   81.39   24.50
  -5  -2  12  107.89   25.80
  -5  -2  12  132.99   22.20
  -5  -2  12   99.19   22.10
  -5  -2  12   80.49   19.30
  -5  -2  12  101.89   13.60
  -5  -2  12  129.39   24.80
   4   2 -12  864.91   42.20
   4   2 -12  776.82   44.20
   4   2 -12  786.82   43.40
   4   2 -12  904.81   40.20
  -4  -2  12  830.12   42.30
  -4  -2  12  846.52   43.20
  -4  -2  12  775.12   44.70
  -4  -2  12  860.01   50.99
   3   2 -12  577.14   36.40
   3   2 -12  556.04   34.50
   3   2 -12  611.94   35.40
  -3  -2  12  544.25   35.30
  -3  -2  12  567.84   36.80
  -3  -2  12  503.25   33.80
  -3  -2  12  539.25   33.90
  -3  -2  12  570.84   32.80
   2   2 -12  142.29   21.50
   2   2 -12  187.48   24.50
   2   2 -12  172.18   22.40
   2   2 -12  182.28   23.70
  -2  -2  12  156.98   22.50
  -2  -2  12  177.98   15.30
  -2  -2  12  185.88   25.00
  -2  -2  12  183.48   22.10
  -2  -2  12  151.48   22.30
   1   2 -12  207.48   25.70
   1   2 -12  179.08   23.00
   1   2 -12  193.78   23.00
   1   2 -12  183.28   23.70
  -1  -2  12  146.09   22.40
  -1  -2  12  152.08   20.10
  -1  -2  12  183.88   17.10
  -1  -2  12  178.38   23.50
   0   2 -12    4.20   16.50
   0   2 -12   22.20   18.10
   0   2 -12   26.10   14.90
   0   2 -12    1.70   14.10
   0  -2  12   43.80   12.90
   0  -2  12   29.40   15.00
   0  -2  12   20.10   17.50
  -1   2 -12  184.88   23.50
  -1   2 -12  125.89   25.50
  -1   2 -12  177.48   26.40
  -1   2 -12  124.79   21.50
   1  -2  12  138.09   22.80
   1  -2  12  149.88   23.00
   1  -2  12  162.98   20.30
   1  -2  12  148.59   25.60
   1  -2  12  160.18   24.30
  -2   2 -12   19.50   23.80
  -2   2 -12   15.30   23.20
  -2   2 -12   31.50   17.90
   2  -2  12   63.19   17.90
   2  -2  12   43.00   20.70
   2  -2  12   24.70   18.10
   2  -2  12   39.70   20.90
   2  -2  12   54.49   21.40
   6   1 -12  646.24   38.60
   6   1 -12  603.74   41.00
   6   1 -12  667.03   45.80
  -6  -1  12  649.93   27.20
  -6  -1  12  759.52   46.30
  -6  -1  12  623.14   44.00
  -6  -1  12  663.13   41.70
  -6  -1  12  620.94   36.50
  -6  -1  12  678.43   44.80
   5   1 -12    8.70   16.30
   5   1 -12   -3.30   16.70
   5   1 -12    5.50   15.20
   5   1 -12   -9.10   15.20
  -5  -1  12  -11.90   15.50
  -5  -1  12    9.50    5.90
  -5  -1  12   18.30   20.40
  -5  -1  12    7.40   16.00
  -5  -1  12  -34.70   16.60
  -5  -1  12  -13.00   13.70
   4   1 -12  251.87   26.00
   4   1 -12  265.47   26.80
   4   1 -12  302.57   27.80
   4   1 -12  320.87   28.30
  -4  -1  12  290.77   29.60
  -4  -1  12  255.27   27.40
  -4  -1  12  252.57   39.10
   3   1 -12  473.95   31.40
   3   1 -12  482.25   30.70
   3   1 -12  535.05   33.20
   3   1 -12  524.35   32.80
  -3  -1  12  463.95   16.60
  -3  -1  12  466.25   31.60
  -3  -1  12  485.65   33.40
  -3  -1  12  397.46   28.60
  -3  -1  12  486.95   32.60
   2   1 -12  209.38   24.50
   2   1 -12  196.28   22.90
   2   1 -12  189.18   24.30
   2   1 -12  220.08   23.40
  -2  -1  12  200.78   12.70
  -2  -1  12  183.08   23.50
  -2  -1  12  225.28   24.90
  -2  -1  12  218.78   23.20
   1   1 -12  166.68   21.50
   1   1 -12  163.68   22.40
   1   1 -12  133.49   21.20
  -1  -1  12  197.18   25.80
  -1  -1  12  159.78   22.70
  -1  -1  12  153.18   20.90
  -1  -1  12  152.48   20.70
  -1  -1  12  145.09   14.70
   0   1 -12  306.47   28.70
   0   1 -12  339.07   30.20
   0   1 -12  318.17   27.50
   0  -1  12  288.37   30.10
   0  -1  12  386.66   29.70
   0  -1  12  327.47   22.20
   0  -1  12  321.77   30.70
  -1   1 -12  116.69   19.60
  -1   1 -12   97.49   24.30
  -1   1 -12   94.79   21.90
  -1   1 -12  120.49   23.30
   1  -1  12  115.99   21.40
   1  -1  12  128.29   23.30
   1  -1  12  143.19   23.60
   1  -1  12  108.59   18.10
   1  -1  12  119.59   19.90
  -2   1 -12   -5.60   16.00
  -2   1 -12   13.60   23.80
   2  -1  12  -30.00   20.70
   2  -1  12   35.20   23.30
   2  -1  12  -14.40   18.60
   2  -1  12  -11.50   15.40
   2  -1  12   43.70   20.40
   6   0 -12   32.70   16.50
   6   0 -12   13.80   17.60
  -6   0  12  -12.60   17.30
  -6   0  12   -7.20   17.00
  -6   0  12   10.50   19.70
  -6   0  12   15.00   21.90
  -6   0  12    3.70   14.90
   5   0 -12   39.70   15.10
   5   0 -12   28.50   14.90
   5   0 -12   42.40   19.40
   5   0 -12   40.70   15.60
  -5   0  12   36.80   21.00
  -5   0  12    8.80   17.60
  -5   0  12   32.60   15.70
  -5   0  12   -7.50   17.50
  -5   0  12   18.50   14.40
   4   0 -12  311.77   27.10
   4   0 -12  330.47   26.00
   4   0 -12  302.67   27.60
  -4   0  12  308.87   32.70
  -4   0  12  309.37   28.00
  -4   0  12  315.67   30.00
   3   0 -12  115.19   19.70
   3   0 -12  114.79   18.20
   3   0 -12  107.29   17.90
   3   0 -12  121.49   18.90
  -3   0  12  133.09   20.30
  -3   0  12  132.39   18.60
   2   0 -12    6.30   12.70
   2   0 -12   15.50   12.40
   2   0 -12   -1.90   13.30
   2   0 -12   -0.10   12.90
  -2   0  12    6.50   13.60
  -2   0  12   -4.80   12.10
  -2   0  12   -2.30   13.20
   1   0 -12  358.76   27.70
   1   0 -12  285.67   27.80
   1   0 -12  319.57   29.70
  -1   0  12  318.47   25.90
  -1   0  12  297.37   27.20
  -1   0  12  302.67   26.90
  -1   0  12  308.27   29.10
   0   0 -12  107.19   20.70
   0   0 -12   94.99   18.30
   0   0  12   84.89   13.70
   0   0  12   79.99   18.50
   0   0  12  133.79   22.90
   0   0  12  106.69   20.70
   0   0  12  123.79   21.40
  -1   0 -12    1.20   14.70
  -1   0 -12   38.60   22.30
   1   0  12  -17.40   16.70
   1   0  12    2.70   14.80
   1   0  12   26.40   21.20
   1   0  12  -10.20   13.30
   1   0  12  -29.50   21.10
   7  -1 -12    3.90   19.10
   7  -1 -12   55.49   18.90
   7  -1 -12   31.00   17.20
   7  -1 -12   77.29   19.20
  -7   1  12   79.99   26.40
  -7   1  12   45.60   18.20
  -7   1  12   36.50   25.50
  -7   1  12   45.20   19.10
  -7   1  12   51.89   23.40
   6  -1 -12    4.00   14.30
   6  -1 -12    7.40   14.30
   6  -1 -12  -14.80   14.30
   6  -1 -12   -5.10   15.40
  -6   1  12   22.60   19.70
  -6   1  12   -4.60   15.60
  -6   1  12   -0.40   20.90
  -6   1  12    1.70   14.70
  -6   1  12   -0.80   20.00
   5  -1 -12   39.00   17.10
   5  -1 -12   52.09   14.60
   5  -1 -12   26.20   13.90
   5  -1 -12   23.90   18.10
  -5   1  12   33.70   14.90
  -5   1  12    4.50   18.90
  -5   1  12   36.00   16.10
   4  -1 -12  907.61   43.10
   4  -1 -12  930.01   39.00
   4  -1 -12  709.73   53.99
  -4   1  12  899.91   46.80
  -4   1  12  935.31   49.60
  -4   1  12  903.71   42.90
   3  -1 -12  147.49   22.00
   3  -1 -12  135.39   21.20
   3  -1 -12  135.89   30.00
   3  -1 -12  118.89   28.70
  -3   1  12  132.19   17.90
  -3   1  12  132.09   18.30
   2  -1 -12   47.40   14.50
   2  -1 -12   40.20   13.80
   2  -1 -12   47.10   17.30
  -2   1  12   54.39   19.80
  -2   1  12   26.90   15.30
  -2   1  12   31.30   13.90
  -2   1  12   36.00   17.40
   1  -1 -12  417.26   34.90
   1  -1 -12  320.27   33.10
  -1   1  12  370.86   29.10
  -1   1  12  429.06   34.20
  -1   1  12  487.65   36.10
  -1   1  12  341.67   28.60
   0  -1 -12  214.78   26.90
   0  -1 -12  259.57   34.20
   0   1  12  246.18   30.20
   0   1  12  244.28   27.60
   0   1  12  346.17   34.50
   0   1  12  251.57   28.20
  -1  -1 -12   37.90   17.60
   1   1  12   21.40   16.60
   1   1  12   56.29   24.10
   1   1  12   22.60   26.10
   1   1  12   44.50   20.60
   7  -2 -12   -9.00   15.10
   7  -2 -12   -5.80   14.40
   7  -2 -12   -5.50   15.50
   7  -2 -12   19.40   17.40
  -7   2  12   23.10   17.40
  -7   2  12   43.70   23.70
  -7   2  12  -11.80   26.90
  -7   2  12  -18.60   16.40
  -7   2  12   30.70   22.50
   6  -2 -12  860.61   43.50
   6  -2 -12  910.21   42.30
   6  -2 -12  882.31   44.40
   6  -2 -12  862.71   36.90
  -6   2  12  914.51   43.90
  -6   2  12  872.91   51.59
  -6   2  12  913.91   52.09
  -6   2  12 1011.40   53.69
  -6   2  12  837.22   41.70
   5  -2 -12   11.70   12.10
   5  -2 -12   28.70   15.70
   5  -2 -12    1.50   10.50
   5  -2 -12    3.90   14.90
  -5   2  12   -4.20   19.00
  -5   2  12  -37.40   15.70
  -5   2  12   -3.50   14.30
  -5   2  12    5.10   14.40
  -5   2  12    5.00   20.20
   4  -2 -12  243.18   23.20
   4  -2 -12  191.98   23.60
   4  -2 -12  213.78   19.70
   4  -2 -12  223.58   27.40
  -4   2  12  240.88   21.00
  -4   2  12  275.77   25.50
   3  -2 -12  327.37   25.60
   3  -2 -12  293.47   23.60
   3  -2 -12  302.37   26.60
  -3   2  12  329.57   31.90
  -3   2  12  249.88   32.10
  -3   2  12  308.87   23.90
  -3   2  12  300.67   25.90
   2  -2 -12  247.78   25.90
   2  -2 -12  212.18   27.30
   2  -2 -12  257.97   24.30
  -2   2  12  258.27   25.80
  -2   2  12  229.68   31.10
  -2   2  12  243.68   31.80
  -2   2  12  253.97   25.20
   1  -2 -12  833.12   41.70
   1  -2 -12  740.73   40.80
   1  -2 -12  798.52   48.70
  -1   2  12  778.02   40.70
  -1   2  12  815.62   48.60
  -1   2  12  877.11   50.59
  -1   2  12  809.02   42.10
   0  -2 -12  170.38   35.70
   0  -2 -12  117.59   20.80
   0  -2 -12  138.59   21.90
   0   2  12  161.08   25.90
   0   2  12  117.29   29.40
   0   2  12  103.89   21.30
   0   2  12  136.49   32.00
   7  -3 -12   68.69   19.40
   7  -3 -12   42.50   15.40
   7  -3 -12    9.30   11.20
  -7   3  12   32.90   17.50
  -7   3  12   36.90   32.60
  -7   3  12   25.00   20.10
  -7   3  12   63.19   24.30
  -7   3  12    4.50   22.30
   6  -3 -12   74.09   10.90
   6  -3 -12   38.00   18.00
   6  -3 -12   98.59   17.00
  -6   3  12   25.30   23.50
  -6   3  12  105.59   31.40
  -6   3  12   91.29   21.30
  -6   3  12   86.89   18.60
   5  -3 -12   80.09   15.80
   5  -3 -12   99.39   19.80
  -5   3  12  128.19   28.00
  -5   3  12  120.19   25.50
  -5   3  12   81.09   18.00
  -5   3  12  123.09   22.10
  -5   3  12   69.79   25.50
   4  -3 -12  258.27   24.90
   4  -3 -12  265.97   23.20
   4  -3 -12  259.27   29.10
  -4   3  12  258.77   30.00
  -4   3  12  256.97   26.00
  -4   3  12  234.58   31.90
  -4   3  12  254.07   20.60
   3  -3 -12  148.39   21.90
   3  -3 -12  189.08   27.80
   3  -3 -12  159.18   21.00
  -3   3  12  197.48   27.60
  -3   3  12  195.08   21.30
  -3   3  12  198.68   25.30
   2  -3 -12   60.19   16.20
   2  -3 -12   37.20   23.40
   2  -3 -12   23.70   14.40
  -2   3  12   69.69   27.00
  -2   3  12   43.10   16.10
  -2   3  12   61.99   26.60
   1  -3 -12  -32.60   13.30
   1  -3 -12   15.10   17.10
   1  -3 -12   -5.30   23.90
  -1   3  12   -0.70   17.20
  -1   3  12  -10.10   16.20
  -1   3  12    8.90   28.20
  -1   3  12   66.49   29.40
   6  -4 -12   30.10   17.60
   6  -4 -12   -1.40   12.80
  -6   4  12  -21.80   21.00
  -6   4  12   18.60   22.70
  -6   4  12   19.10   25.30
  -6   4  12  -11.80   15.50
   5  -4 -12   -8.80   20.30
   5  -4 -12   24.00   13.80
   5  -4 -12   47.50   15.10
  -5   4  12   -6.40   15.10
  -5   4  12   41.40   20.80
  -5   4  12   24.30   22.90
   4  -4 -12  285.37   26.40
   4  -4 -12  329.77   29.90
   4  -4 -12  231.68   31.20
  -4   4  12  253.07   27.80
  -4   4  12  259.67   45.10
   3  -4 -12   30.80   16.40
   3  -4 -12   35.30   23.80
   3  -4 -12   20.50   14.80
  -3   4  12   64.49   40.10
  -3   4  12   56.59   13.90
  -3   4  12   14.00   16.20
   3   4 -13   48.10   47.70
   3   4 -13    5.40   20.20
   3   4 -13  -14.80   16.00
   3   4 -13    5.20   22.10
  -3  -4  13  -37.50   24.20
  -3  -4  13   14.40   26.50
  -3  -4  13  -18.60   21.00
   2   4 -13   52.79   21.90
   2   4 -13   33.70   27.60
   2   4 -13   32.40   19.10
   2   4 -13   26.80   20.90
  -2  -4  13   55.79   22.20
  -2  -4  13   54.59   25.60
  -2  -4  13    5.70   19.80
  -2  -4  13   49.40   14.70
  -2  -4  13   -9.70   21.70
   1   4 -13   86.39   23.90
   1   4 -13   67.59   23.00
   1   4 -13   54.59   24.80
   1   4 -13   88.49   24.60
  -1  -4  13   95.59   17.30
  -1  -4  13   87.19   25.80
  -1  -4  13  128.79   26.10
  -1  -4  13   98.09   21.70
   0   4 -13  753.02   50.19
   0   4 -13  637.44   55.29
   0   4 -13  713.33   45.90
   0  -4  13  685.13   39.80
   0  -4  13  741.83   48.90
   0  -4  13  726.83   44.10
   0  -4  13  752.22   47.00
   4   3 -13  117.69   25.10
   4   3 -13   91.39   22.60
   4   3 -13   67.39   17.80
   4   3 -13   79.89   28.40
  -4  -3  13   88.29   29.40
  -4  -3  13   61.29   17.50
  -4  -3  13   58.19   23.20
  -4  -3  13   68.29   24.50
   3   3 -13   10.90   17.00
   3   3 -13   19.50   16.80
   3   3 -13   47.50   20.00
   3   3 -13   40.70   23.70
  -3  -3  13   37.80   16.90
  -3  -3  13   10.00   36.20
  -3  -3  13   26.40   20.80
   2   3 -13  -31.40   19.20
   2   3 -13  -14.90   15.20
   2   3 -13  -19.00   15.40
   2   3 -13    2.50   18.60
  -2  -3  13    3.60   17.00
  -2  -3  13   20.10   18.50
  -2  -3  13  -24.70   18.80
  -2  -3  13   -2.10   17.60
  -2  -3  13   -4.10   14.50
   1   3 -13   -9.00   17.20
   1   3 -13   10.50   17.80
   1   3 -13   -2.60   21.70
   1   3 -13   12.40   19.00
  -1  -3  13   -9.20   16.80
  -1  -3  13   14.70   18.70
  -1  -3  13   20.90   12.60
  -1  -3  13   13.10   19.70
  -1  -3  13   45.90   18.10
   0   3 -13   23.90   21.90
   0   3 -13   24.60   20.10
   0   3 -13   22.90   22.30
   0  -3  13   56.39   20.20
   0  -3  13    6.90   19.20
   0  -3  13   36.20   15.40
   0  -3  13   43.50   21.30
   0  -3  13   41.40   20.80
  -1   3 -13   13.10   30.10
  -1   3 -13   22.10   23.60
   1  -3  13    0.30   18.80
   1  -3  13   24.20   20.60
   1  -3  13   54.19   20.50
   1  -3  13   19.40   21.30
   5   2 -13  137.59   25.10
   5   2 -13  107.19   23.40
   5   2 -13   95.29   28.20
   5   2 -13  123.29   19.80
  -5  -2  13  127.79   25.90
  -5  -2  13  114.99   30.40
  -5  -2  13  138.59   23.10
  -5  -2  13  102.39   13.40
  -5  -2  13  111.19   27.40
   4   2 -13  106.49   24.60
   4   2 -13   95.99   19.50
   4   2 -13   74.39   19.80
   4   2 -13   81.69   21.60
  -4  -2  13   72.39   19.40
  -4  -2  13   77.19   23.30
  -4  -2  13   68.69   26.60
  -4  -2  13   75.09   20.70
  -4  -2  13   95.89   23.10
   3   2 -13   10.90   16.60
   3   2 -13   28.60   16.10
   3   2 -13   -6.20   15.40
   3   2 -13   11.90   18.90
  -3  -2  13   12.30   15.70
  -3  -2  13   25.20   18.40
  -3  -2  13  -11.00   15.90
  -3  -2  13   13.90   19.60
  -3  -2  13   -6.20   15.80
  -3  -2  13   11.50    8.10
   2   2 -13  101.89   20.70
   2   2 -13   74.39   21.10
   2   2 -13   93.89   19.90
   2   2 -13  105.39   22.90
  -2  -2  13   71.39   20.70
  -2  -2  13   71.79   19.10
  -2  -2  13   67.09   21.50
  -2  -2  13   60.89   11.30
  -2  -2  13   64.69   20.40
   1   2 -13  116.59   23.20
   1   2 -13   90.29   21.50
   1   2 -13  132.99   22.80
   1   2 -13   62.79   23.10
  -1  -2  13  106.99   14.40
  -1  -2  13  136.29   23.90
  -1  -2  13   63.29   21.00
  -1  -2  13   93.09   20.30
   0   2 -13   28.70   18.60
   0   2 -13  -19.20   19.50
   0   2 -13  -12.40   20.30
   0  -2  13   30.60   18.70
   0  -2  13   -3.90   20.30
   0  -2  13  -12.30   17.90
   0  -2  13    0.40   13.10
   0  -2  13    0.80   16.80
  -1   2 -13    7.90   21.40
  -1   2 -13   34.00   24.40
   1  -2  13   -0.10   16.60
   1  -2  13   75.39   25.10
   1  -2  13   -6.20   19.20
   1  -2  13   11.50   16.70
   1  -2  13  -12.40   21.10
   5   1 -13  356.76   37.80
   5   1 -13  295.27   33.90
   5   1 -13  351.76   33.70
  -5  -1  13  337.97   35.40
  -5  -1  13  348.47   41.10
  -5  -1  13  339.77   40.40
  -5  -1  13  299.97   36.70
   4   1 -13  396.36   33.10
   4   1 -13  321.07   31.90
   4   1 -13  342.47   34.30
   4   1 -13  367.36   32.50
  -4  -1  13  394.76   35.40
  -4  -1  13  381.16   35.30
  -4  -1  13  412.46   41.00
  -4  -1  13  316.97   30.40
  -4  -1  13  360.26   33.60
   3   1 -13   36.50   18.10
   3   1 -13   28.30   18.10
   3   1 -13   70.59   18.50
   3   1 -13   46.00   19.60
  -3  -1  13   54.29   20.60
  -3  -1  13   44.50   17.40
  -3  -1  13   48.90   16.40
  -3  -1  13   85.99   19.60
  -3  -1  13   83.69   20.50
   2   1 -13   39.40   15.90
   2   1 -13   26.30   15.90
   2   1 -13   31.30   16.80
  -2  -1  13   35.20    7.60
  -2  -1  13   65.79   20.10
  -2  -1  13   64.39   18.00
  -2  -1  13   24.00   17.00
  -2  -1  13   15.70   16.60
   1   1 -13  207.88   26.10
   1   1 -13  201.38   26.20
   1   1 -13  255.27   27.60
  -1  -1  13  186.98   25.20
  -1  -1  13  199.28   17.60
  -1  -1  13  231.68   28.90
  -1  -1  13  222.58   27.50
  -1  -1  13  181.08   25.10
   0   1 -13  333.97   36.90
   0   1 -13  320.47   31.90
   0   1 -13  354.06   36.20
   0   1 -13  317.37   34.30
   0  -1  13  352.56   37.20
   0  -1  13  312.97   35.80
   0  -1  13  374.66   32.90
   0  -1  13  347.67   25.20
   0  -1  13  384.56   37.40
   6   0 -13   85.29   21.50
   6   0 -13   49.99   19.20
   6   0 -13   56.99   19.90
   6   0 -13   69.39   20.90
  -6   0  13   39.40   26.80
  -6   0  13   36.30   26.60
  -6   0  13   60.09   24.60
  -6   0  13   47.30   22.90
   5   0 -13   -6.70   17.10
   5   0 -13   11.90   15.60
   5   0 -13  -13.60   15.60
   5   0 -13   -4.20   16.40
  -5   0  13  -30.10   18.70
  -5   0  13   -2.60   21.80
  -5   0  13   -8.20   16.80
  -5   0  13    8.60   17.50
  -5   0  13   20.30   22.60
   4   0 -13  354.96   29.70
   4   0 -13  391.46   32.30
   4   0 -13  369.16   31.60
   4   0 -13  434.26   33.10
  -4   0  13  371.66   33.60
  -4   0  13  454.95   37.40
  -4   0  13  399.46   31.80
  -4   0  13  377.66   36.40
   3   0 -13  117.99   19.50
   3   0 -13  114.99   19.80
   3   0 -13  101.29   19.60
   3   0 -13  125.79   20.00
  -3   0  13  149.29   21.90
  -3   0  13  132.79   21.40
  -3   0  13  122.59   21.30
  -3   0  13  143.59   24.90
   2   0 -13  125.49   20.80
   2   0 -13   95.69   17.90
   2   0 -13  118.99   22.70
   2   0 -13  126.99   19.40
  -2   0  13  130.29   22.80
  -2   0  13  114.89   21.10
  -2   0  13  123.99   20.90
  -2   0  13  121.59   25.00
   1   0 -13   74.89   19.30
   1   0 -13   59.09   21.30
   1   0 -13   82.69   20.20
   1   0 -13   67.39   16.70
  -1   0  13   64.49   18.40
  -1   0  13   41.60   22.00
  -1   0  13   92.69   20.60
  -1   0  13   52.29   22.20
   0   0 -13  120.99   21.00
   0   0  13  116.99   25.50
   0   0  13  132.49   25.80
   0   0  13  112.29   21.80
   0   0  13   77.79   26.20
   6  -1 -13    7.20   16.80
   6  -1 -13    2.60   18.20
   6  -1 -13  -34.60   16.50
   6  -1 -13    9.20   16.50
  -6   1  13   15.60   21.60
  -6   1  13  -30.00   24.70
  -6   1  13   -4.70   23.40
  -6   1  13   -8.80   18.90
   5  -1 -13  258.27   26.80
   5  -1 -13  265.47   29.10
   5  -1 -13  275.87   27.90
   5  -1 -13  285.27   30.50
  -5   1  13  235.48   30.30
  -5   1  13  283.87   37.70
  -5   1  13  285.97   32.30
  -5   1  13  260.67   33.60
  -5   1  13  284.17   36.40
   4  -1 -13  -15.80   13.30
   4  -1 -13    3.50   14.50
   4  -1 -13   -6.00   13.20
   4  -1 -13   13.00   17.30
  -4   1  13   46.40   16.40
  -4   1  13    1.10   20.70
  -4   1  13   -9.50   18.50
  -4   1  13  -33.20   16.30
   3  -1 -13   15.90   13.30
   3  -1 -13  -10.20   14.30
   3  -1 -13   -4.30   14.10
   3  -1 -13   -9.20   16.70
  -3   1  13   -0.20   14.20
  -3   1  13    2.60   16.90
  -3   1  13   -8.30   13.90
  -3   1  13   25.90   16.60
   2  -1 -13   37.30   20.00
   2  -1 -13   -0.40   11.40
   2  -1 -13    8.90   13.50
   2  -1 -13   24.70   16.50
  -2   1  13   16.80   21.10
  -2   1  13    6.70   15.20
   1  -1 -13   23.10   16.20
   1  -1 -13   65.79   17.30
  -1   1  13   31.00   26.10
  -1   1  13   46.90   17.70
  -1   1  13   51.19   20.40
  -1   1  13  -17.00   22.00
   6  -2 -13   22.30   19.10
   6  -2 -13   -3.30   15.90
   6  -2 -13   10.20   14.10
   6  -2 -13   15.10   17.20
  -6   2  13   16.30   17.30
  -6   2  13    2.70   22.80
  -6   2  13   36.30   23.40
   5  -2 -13  478.55   29.40
   5  -2 -13  429.76   32.10
   5  -2 -13  504.65   35.60
   5  -2 -13  523.35   39.60
  -5   2  13  499.95   35.30
  -5   2  13  585.84   46.00
  -5   2  13  508.05   37.50
  -5   2  13  475.55   46.10
  -5   2  13  536.25   45.30
   4  -2 -13   -0.70   15.00
   4  -2 -13   23.50   14.10
   4  -2 -13   -5.90   12.90
   4  -2 -13  -17.20   18.90
  -4   2  13  -28.80   13.60
  -4   2  13   13.90   20.90
  -4   2  13  -49.99   23.70
  -4   2  13    8.90   13.20
   3  -2 -13   17.50   16.40
   3  -2 -13   33.60   15.30
  -3   2  13   23.60   20.10
  -3   2  13    8.30   14.40
  -3   2  13   12.20   14.30
  -3   2  13  -24.90   21.90
   2  -2 -13   59.29   17.80
   2  -2 -13   65.79   19.70
   2  -2 -13   53.29   24.40
  -2   2  13   48.50   17.90
  -2   2  13   43.90   25.40
  -2   2  13   65.49   27.00
  -2   2  13   34.90   17.50
   5  -3 -13   48.80   16.60
   5  -3 -13   30.20   18.60
  -5   3  13   30.30   25.10
  -5   3  13   53.09   25.40
  -5   3  13   43.80   18.10
   4  -3 -13   92.09   25.00
   4  -3 -13  108.09   19.80
   4  -3 -13  126.99   22.10
  -4   3  13  107.29   16.20
  -4   3  13  109.69   21.90
   3  -3 -13  210.58   27.20
   3  -3 -13  162.58   31.10
   3  -3 -13  167.98   25.60
  -3   3  13  198.78   25.60
   3   2 -14   32.60   23.70
   3   2 -14   39.20   19.40
   3   2 -14  -19.90   20.60
   3   2 -14   17.50   19.60
  -3  -2  14    9.70   19.30
  -3  -2  14   20.10   20.80
  -3  -2  14   17.80    8.60
  -3  -2  14    4.80   20.30
   2   2 -14    4.70   22.10
   2   2 -14  -33.30   21.70
   2   2 -14   29.00   19.60
  -2  -2  14   24.20   25.90
  -2  -2  14    1.40   18.90
  -2  -2  14   16.80   10.40
  -2  -2  14   31.00   20.80
   1   2 -14    9.00   24.00
   1   2 -14   24.60   20.00
   1   2 -14   16.60   22.20
  -1  -2  14   26.20   12.80
  -1  -2  14   11.20   21.30
  -1  -2  14   24.50   20.50
  -1  -2  14   49.50   21.40
   4   1 -14   61.69   22.60
   4   1 -14   98.59   22.80
   4   1 -14   83.79   25.80
  -4  -1  14  111.89   29.90
  -4  -1  14   57.29   21.80
   3   1 -14   79.69   19.60
   3   1 -14   85.19   24.00
   3   1 -14  116.79   25.90
  -3  -1  14   90.99   25.00
  -3  -1  14   64.39   22.70
  -3  -1  14   48.80   20.00
   2   1 -14  353.86   38.00
   2   1 -14  427.46   35.60
   2   1 -14  448.16   37.90
  -2  -1  14  368.96   16.40
  -2  -1  14  344.27   53.69
  -2  -1  14  458.65   37.60
  -2  -1  14  350.26   36.50
   1   1 -14   70.79   24.40
   1   1 -14   27.30   18.80
   1   1 -14   94.29   24.00
  -1  -1  14   47.40   23.70
  -1  -1  14   72.19   21.10
  -1  -1  14   19.70   20.70
   4   0 -14   56.79   22.90
   4   0 -14   84.89   21.80
   4   0 -14  101.59   23.30
   4   0 -14   42.60   18.40
  -4   0  14   49.99   20.50
  -4   0  14   66.79   24.90
   3   0 -14   41.60   17.60
   3   0 -14   52.89   22.40
   3   0 -14   11.10   18.30
   3   0 -14   46.60   20.50
  -3   0  14   57.59   19.60
   2   0 -14   54.29   24.20
   2   0 -14   22.60   16.40
   2   0 -14   93.49   22.60
   2   0 -14   66.69   20.00
  -2   0  14   33.50   21.00
  -2   0  14   57.79   20.10
   4  -1 -14  183.28   27.70
   4  -1 -14  121.59   21.80
   4  -1 -14  140.39   21.80
   4  -1 -14  147.79   25.10
  -4   1  14  163.98   25.70
   3  -1 -14   23.40   18.30
   3  -1 -14    6.90   16.30
   3  -1 -14   29.00   23.20
   3  -1 -14   47.30   18.70
  -3   1  14   12.50   18.30
  -3   1  14   31.50   19.00
   0   0   0    0.00    0.00



_computing_structure_solution     'SHELXT 2014/5 (Sheldrick, 2014)'
_computing_structure_solution     'SHELXT 2014/5 (Sheldrick, 2014)'
_computing_structure_solution     'SHELXT 2014/5 (Sheldrick, 2014)'
;
_shelx_hkl_checksum              26689
loop_
_space_group_symop_operation_xyz
'x, y, z'
'-x, -y, -z'
loop_
_atom_site_label
_atom_site_type_symbol
_atom_site_fract_x
_atom_site_fract_y
_atom_site_fract_z
_atom_site_U_iso_or_equiv
_atom_site_adp_type
_atom_site_occupancy
_atom_site_site_symmetry_order
_atom_site_calc_flag
_atom_site_refinement_flags_posn
_atom_site_refinement_flags_adp
_atom_site_refinement_flags_occupancy
_atom_site_disorder_assembly
_atom_site_disorder_group
Co1 Co 0.29886(5) 0.49387(5) 0.77230(3) 0.02555(12) Uani 1 1 d . . . . .
Cl1 Cl 0.60351(10) 0.51812(10) 0.86867(7) 0.03781(18) Uani 1 1 d . . . . .
Cl2 Cl 0.02325(10) 0.24370(9) 0.77036(6) 0.03597(18) Uani 1 1 d . . . . .
S1 S 0.49454(11) 0.89864(10) 0.72397(7) 0.03761(19) Uani 1 1 d . . . . .
S2 S 0.28259(12) 0.77780(11) 0.55520(7) 0.03934(19) Uani 1 1 d . . . . .
N1 N 0.2589(3) 0.7065(3) 0.83776(19) 0.0275(5) Uani 1 1 d . . . . .
N2 N 0.2625(3) 0.4460(3) 0.59459(19) 0.0288(5) Uani 1 1 d . . . . .
C1 C 0.1564(4) 0.6877(4) 0.9118(3) 0.0338(6) Uani 1 1 d . . . . .
H1 H 0.091369 0.571047 0.926420 0.041 Uiso 1 1 calc R U . . .
C2 C 0.1443(5) 0.8355(4) 0.9670(3) 0.0384(7) Uani 1 1 d . . . . .
H2 H 0.073932 0.818733 1.018800 0.046 Uiso 1 1 calc R U . . .
C3 C 0.2375(5) 1.0070(4) 0.9443(3) 0.0395(7) Uani 1 1 d . . . . .
H3 H 0.231886 1.108336 0.980979 0.047 Uiso 1 1 calc R U . . .
C4 C 0.3398(4) 1.0279(4) 0.8663(3) 0.0356(7) Uani 1 1 d . . . . .
H4 H 0.402484 1.142817 0.848950 0.043 Uiso 1 1 calc R U . . .
C5 C 0.3472(4) 0.8759(4) 0.8150(2) 0.0273(6) Uani 1 1 d . . . . .
C6 C 0.2615(4) 0.5536(4) 0.5169(2) 0.0291(6) Uani 1 1 d . . . . .
C7 C 0.2379(4) 0.2747(4) 0.5558(3) 0.0356(7) Uani 1 1 d . . . . .
H7 H 0.241993 0.200040 0.609959 0.043 Uiso 1 1 calc R U . . .
C8 C 0.2071(4) 0.2052(4) 0.4405(3) 0.0401(7) Uani 1 1 d . . . . .
H8 H 0.187895 0.085428 0.416763 0.048 Uiso 1 1 calc R U . . .
C9 C 0.2054(5) 0.3167(5) 0.3610(3) 0.0426(8) Uani 1 1 d . . . . .
H9 H 0.184739 0.272957 0.282266 0.051 Uiso 1 1 calc R U . . .
C10 C 0.2343(4) 0.4940(5) 0.3985(3) 0.0387(7) Uani 1 1 d . . . . .
H10 H 0.235744 0.572075 0.346135 0.046 Uiso 1 1 calc R U . . .
loop_
_atom_site_aniso_label
_atom_site_aniso_U_11
_atom_site_aniso_U_22
_atom_site_aniso_U_33
_atom_site_aniso_U_23
_atom_site_aniso_U_13
_atom_site_aniso_U_12
Co1 0.0290(2) 0.0208(2) 0.0264(2) 0.00478(15) 0.01046(15) 0.01109(16)
Cl1 0.0319(4) 0.0368(4) 0.0400(4) 0.0111(3) 0.0077(3) 0.0149(3)
Cl2 0.0361(4) 0.0265(4) 0.0378(4) 0.0064(3) 0.0154(3) 0.0068(3)
S1 0.0295(4) 0.0313(4) 0.0439(4) 0.0061(3) 0.0151(3) 0.0063(3)
S2 0.0503(5) 0.0391(4) 0.0361(4) 0.0166(3) 0.0162(3) 0.0257(4)
N1 0.0273(11) 0.0237(12) 0.0297(12) 0.0060(10) 0.0086(10) 0.0114(10)
N2 0.0289(12) 0.0289(12) 0.0270(12) 0.0065(10) 0.0113(10) 0.0114(10)
C1 0.0342(15) 0.0318(16) 0.0336(15) 0.0056(13) 0.0132(13) 0.0135(13)
C2 0.0379(16) 0.0471(19) 0.0330(16) 0.0025(14) 0.0110(13) 0.0247(15)
C3 0.0439(17) 0.0380(18) 0.0359(17) -0.0036(14) 0.0048(14) 0.0269(15)
C4 0.0378(16) 0.0253(15) 0.0367(16) 0.0041(12) 0.0033(13) 0.0159(13)
C5 0.0253(13) 0.0222(14) 0.0272(14) 0.0016(11) 0.0054(11) 0.0082(11)
C6 0.0222(13) 0.0338(15) 0.0313(15) 0.0092(12) 0.0105(11) 0.0121(12)
C7 0.0393(16) 0.0341(17) 0.0331(16) 0.0051(13) 0.0137(13) 0.0170(14)
C8 0.0383(17) 0.0395(17) 0.0365(17) -0.0039(14) 0.0132(14) 0.0151(14)
C9 0.0375(17) 0.060(2) 0.0274(15) 0.0000(15) 0.0124(13) 0.0215(16)
C10 0.0367(16) 0.054(2) 0.0276(15) 0.0140(14) 0.0132(13) 0.0219(15)
loop_
_atom_type_symbol
_atom_type_description
_atom_type_scat_dispersion_real
_atom_type_scat_dispersion_imag
_atom_type_scat_source
C C 0.0033 0.0016 'International Tables Vol C Tables 4.2.6.8 and 6.1.1.4'
H H 0.0000 0.0000 'International Tables Vol C Tables 4.2.6.8 and 6.1.1.4'
O O 0.0106 0.0060 'International Tables Vol C Tables 4.2.6.8 and 6.1.1.4'
S S 0.1246 0.1234 'International Tables Vol C Tables 4.2.6.8 and 6.1.1.4'
Cl Cl 0.1484 0.1585 'International Tables Vol C Tables 4.2.6.8 and 6.1.1.4'
Co Co 0.3494 0.9721 'International Tables Vol C Tables 4.2.6.8 and 6.1.1.4'
N N 0.0061 0.0033 'International Tables Vol C Tables 4.2.6.8 and 6.1.1.4'
loop_
_geom_angle_atom_site_label_1
_geom_angle_atom_site_label_2
_geom_angle_atom_site_label_3
_geom_angle
_geom_angle_site_symmetry_1
_geom_angle_site_symmetry_3
_geom_angle_publ_flag
N1 Co1 N2 117.73(9) . . ?
N1 Co1 Cl1 113.53(7) . . ?
N2 Co1 Cl1 104.59(7) . . ?
N1 Co1 Cl2 101.95(8) . . ?
N2 Co1 Cl2 100.52(7) . . ?
Cl1 Co1 Cl2 118.46(5) . . ?
C5 S1 S2 103.62(10) . . ?
C6 S2 S1 106.34(10) . . ?
C1 N1 C5 117.8(2) . . ?
C1 N1 Co1 121.24(19) . . ?
C5 N1 Co1 120.76(18) . . ?
C6 N2 C7 117.8(2) . . ?
C6 N2 Co1 131.19(19) . . ?
C7 N2 Co1 111.02(18) . . ?
N1 C1 C2 122.4(3) . . ?
N1 C1 H1 118.8 . . ?
C2 C1 H1 118.8 . . ?
C3 C2 C1 119.0(3) . . ?
C3 C2 H2 120.5 . . ?
C1 C2 H2 120.5 . . ?
C2 C3 C4 119.4(3) . . ?
C2 C3 H3 120.3 . . ?
C4 C3 H3 120.3 . . ?
C5 C4 C3 118.7(3) . . ?
C5 C4 H4 120.6 . . ?
C3 C4 H4 120.6 . . ?
N1 C5 C4 122.7(3) . . ?
N1 C5 S1 116.40(19) . . ?
C4 C5 S1 120.7(2) . . ?
N2 C6 C10 122.3(3) . . ?
N2 C6 S2 122.2(2) . . ?
C10 C6 S2 115.5(2) . . ?
N2 C7 C8 123.3(3) . . ?
N2 C7 H7 118.3 . . ?
C8 C7 H7 118.3 . . ?
C7 C8 C9 118.4(3) . . ?
C7 C8 H8 120.8 . . ?
C9 C8 H8 120.8 . . ?
C8 C9 C10 119.6(3) . . ?
C8 C9 H9 120.2 . . ?
C10 C9 H9 120.2 . . ?
C9 C10 C6 118.5(3) . . ?
C9 C10 H10 120.8 . . ?
C6 C10 H10 120.8 . . ?
loop_
_geom_bond_atom_site_label_1
_geom_bond_atom_site_label_2
_geom_bond_distance
_geom_bond_site_symmetry_2
_geom_bond_publ_flag
Co1 N1 2.028(2) . ?
Co1 N2 2.062(2) . ?
Co1 Cl1 2.2345(13) . ?
Co1 Cl2 2.2495(12) . ?
S1 C5 1.780(3) . ?
S1 S2 2.0461(15) . ?
S2 C6 1.774(3) . ?
N1 C1 1.343(4) . ?
N1 C5 1.351(3) . ?
N2 C6 1.333(4) . ?
N2 C7 1.350(4) . ?
C1 C2 1.383(4) . ?
C1 H1 0.9300 . ?
C2 C3 1.371(5) . ?
C2 H2 0.9300 . ?
C3 C4 1.382(4) . ?
C3 H3 0.9300 . ?
C4 C5 1.372(4) . ?
C4 H4 0.9300 . ?
C6 C10 1.397(4) . ?
C7 C8 1.371(4) . ?
C7 H7 0.9300 . ?
C8 C9 1.372(5) . ?
C8 H8 0.9300 . ?
C9 C10 1.380(5) . ?
C9 H9 0.9300 . ?
C10 H10 0.9300 . ?
loop_
_geom_hbond_atom_site_label_D
_geom_hbond_atom_site_label_H
_geom_hbond_atom_site_label_A
_geom_hbond_distance_DH
_geom_hbond_distance_HA
_geom_hbond_distance_DA
_geom_hbond_angle_DHA
_geom_hbond_site_symmetry_A
C4 H4 Cl1 0.93 2.74 3.635(4) 162.4 1_565
loop_
_geom_torsion_atom_site_label_1
_geom_torsion_atom_site_label_2
_geom_torsion_atom_site_label_3
_geom_torsion_atom_site_label_4
_geom_torsion
_geom_torsion_site_symmetry_1
_geom_torsion_site_symmetry_2
_geom_torsion_site_symmetry_3
_geom_torsion_site_symmetry_4
_geom_torsion_publ_flag
C5 N1 C1 C2 -1.9(4) . . . . ?
Co1 N1 C1 C2 173.4(2) . . . . ?
N1 C1 C2 C3 1.0(4) . . . . ?
C1 C2 C3 C4 0.5(4) . . . . ?
C2 C3 C4 C5 -0.9(4) . . . . ?
C1 N1 C5 C4 1.5(4) . . . . ?
Co1 N1 C5 C4 -173.8(2) . . . . ?
C1 N1 C5 S1 176.2(2) . . . . ?
Co1 N1 C5 S1 0.9(3) . . . . ?
C3 C4 C5 N1 -0.1(4) . . . . ?
C3 C4 C5 S1 -174.6(2) . . . . ?
S2 S1 C5 N1 77.9(2) . . . . ?
S2 S1 C5 C4 -107.3(2) . . . . ?
C7 N2 C6 C10 0.6(4) . . . . ?
Co1 N2 C6 C10 179.9(2) . . . . ?
C7 N2 C6 S2 177.5(2) . . . . ?
Co1 N2 C6 S2 -3.2(3) . . . . ?
S1 S2 C6 N2 40.7(2) . . . . ?
S1 S2 C6 C10 -142.24(19) . . . . ?
C6 N2 C7 C8 -1.7(4) . . . . ?
Co1 N2 C7 C8 178.9(2) . . . . ?
N2 C7 C8 C9 1.4(4) . . . . ?
C7 C8 C9 C10 0.0(4) . . . . ?
C8 C9 C10 C6 -1.0(4) . . . . ?
N2 C6 C10 C9 0.7(4) . . . . ?
S2 C6 C10 C9 -176.4(2) . . . . ?
