#------------------------------------------------------------------------------
#$Date: 2021-09-06 14:11:10 +0300 (Mon, 06 Sep 2021) $
#$Revision: 268761 $
#$URL: file:///home/coder/svn-repositories/cod/cif/7/70/76/7707645.cif $
#------------------------------------------------------------------------------
#
# This file is available in the Crystallography Open Database (COD),
# http://www.crystallography.net/
#
# All data on this site have been placed in the public domain by the
# contributors.
#
data_7707645
loop_
_publ_author_name
'Ogunbunmi, Michael O.'
'Baranets, Sviatoslav'
'Childs, Amanda B.'
'Bobev, Svilen'
_publ_section_title
;
 The Zintl phases <i>A</i>In<sub>2</sub>As<sub>2</sub> (A = Ca, Sr, Ba):
 new topological insulators and thermoelectric material candidates.
;
_journal_issue                   26
_journal_name_full
'Dalton transactions (Cambridge, England : 2003)'
_journal_page_first              9173
_journal_page_last               9184
_journal_paper_doi               10.1039/d1dt01521d
_journal_volume                  50
_journal_year                    2021
_chemical_formula_moiety         'As2 Ba In2'
_chemical_formula_sum            'As2 Ba In2'
_chemical_formula_weight         516.82
_space_group_crystal_system      monoclinic
_space_group_IT_number           10
_space_group_name_Hall           '-P 2y'
_space_group_name_H-M_alt        'P 1 2/m 1'
_atom_sites_solution_primary     dual
_audit_creation_date             2021-04-05
_audit_creation_method
;
Olex2 1.3
(compiled 2020.11.12 svn.r5f609507 for OlexSys, GUI svn.r6272)
;
_audit_update_record
;
2021-05-07 deposited with the CCDC.	2021-06-07 downloaded from the CCDC.
;
_cell_angle_alpha                90
_cell_angle_beta                 95.569(2)
_cell_angle_gamma                90
_cell_formula_units_Z            4
_cell_length_a                   10.2746(11)
_cell_length_b                   4.3005(5)
_cell_length_c                   13.3317(14)
_cell_measurement_reflns_used    1682
_cell_measurement_temperature    199.99
_cell_measurement_theta_max      28.53
_cell_measurement_theta_min      2.63
_cell_volume                     586.29(11)
_computing_molecular_graphics    'Olex2 1.3 (Dolomanov et al., 2009)'
_computing_publication_material  'Olex2 1.3 (Dolomanov et al., 2009)'
_computing_structure_refinement  'SHELXL 2018/3 (Sheldrick, 2015)'
_computing_structure_solution    'SHELXT 2018/2 (Sheldrick, 2018)'
_diffrn_ambient_temperature      199.99
_diffrn_measured_fraction_theta_full 1.000
_diffrn_measured_fraction_theta_max 0.999
_diffrn_measurement_device_type  'Bruker APEX-II CCD'
_diffrn_measurement_method       '\f and \w scans'
_diffrn_radiation_type           MoK\a
_diffrn_radiation_wavelength     0.71073
_diffrn_reflns_av_R_equivalents  0.0463
_diffrn_reflns_av_unetI/netI     0.0400
_diffrn_reflns_Laue_measured_fraction_full 1.000
_diffrn_reflns_Laue_measured_fraction_max 0.999
_diffrn_reflns_limit_h_max       13
_diffrn_reflns_limit_h_min       -13
_diffrn_reflns_limit_k_max       5
_diffrn_reflns_limit_k_min       -5
_diffrn_reflns_limit_l_max       17
_diffrn_reflns_limit_l_min       -17
_diffrn_reflns_number            7273
_diffrn_reflns_point_group_measured_fraction_full 1.000
_diffrn_reflns_point_group_measured_fraction_max 0.999
_diffrn_reflns_theta_full        25.242
_diffrn_reflns_theta_max         28.534
_diffrn_reflns_theta_min         1.535
_diffrn_source_current           30.0
_diffrn_source_power             1.5
_diffrn_source_voltage           50.0
_diffrn_standards_number         0
_exptl_absorpt_coefficient_mu    25.482
_exptl_absorpt_correction_T_max  0.1779
_exptl_absorpt_correction_T_min  0.0784
_exptl_absorpt_correction_type   multi-scan
_exptl_absorpt_process_details
;
SADABS-2016/2 (Bruker,2016/2) was used for absorption correction.
wR2(int) was 0.1363 before and 0.0387 after correction.
The Ratio of minimum to maximum transmission is 0.4407.
The \l/2 correction factor is Not present.
;
_exptl_crystal_colour            black
_exptl_crystal_colour_primary    black
_exptl_crystal_density_diffrn    5.855
_exptl_crystal_description       block
_exptl_crystal_F_000             880
_exptl_crystal_size_max          0.105
_exptl_crystal_size_mid          0.08
_exptl_crystal_size_min          0.074
_refine_diff_density_max         1.984
_refine_diff_density_min         -1.847
_refine_diff_density_rms         0.390
_refine_ls_extinction_method     none
_refine_ls_goodness_of_fit_ref   1.023
_refine_ls_hydrogen_treatment    undef
_refine_ls_matrix_type           full
_refine_ls_number_parameters     63
_refine_ls_number_reflns         1675
_refine_ls_number_restraints     0
_refine_ls_restrained_S_all      1.023
_refine_ls_R_factor_all          0.0361
_refine_ls_R_factor_gt           0.0286
_refine_ls_shift/su_max          0.000
_refine_ls_shift/su_mean         0.000
_refine_ls_structure_factor_coef Fsqd
_refine_ls_weighting_details
'w=1/[\s^2^(Fo^2^)+(0.0238P)^2^] where P=(Fo^2^+2Fc^2^)/3'
_refine_ls_weighting_scheme      calc
_refine_ls_wR_factor_gt          0.0561
_refine_ls_wR_factor_ref         0.0594
_reflns_Friedel_coverage         0.000
_reflns_number_gt                1415
_reflns_number_total             1675
_reflns_threshold_expression     'I > 2\s(I)'
_cod_data_source_file            d1dt01521d2.cif
_cod_data_source_block           mo_svib1414_0m
_cod_depositor_comments
'Adding full bibliography for 7707644--7707646.cif.'
_cod_database_code               7707645
_shelx_shelxl_version_number     2018/3
_shelx_space_group_comment
;
The symmetry employed for this shelxl refinement is uniquely defined
by the following loop, which should always be used as a source of
symmetry information in preference to the above space-group names.
They are only intended as comments.
;
_shelx_estimated_absorpt_t_max   0.254
_shelx_estimated_absorpt_t_min   0.175
_olex2_refinement_description
;
;
_shelx_res_file
;
TITL mo_svib1414_0m_a.res in P2/m
    mo_svib1414_0m.res
    created by SHELXL-2018/3 at 15:59:30 on 05-Apr-2021
REM Old TITL mo_svib1414_0m_a.res in P2/m
REM SHELXT solution in P2/m: R1 0.049, Rweak 0.003, Alpha 0.008
REM <I/s> 0.000 for 0 systematic absences, Orientation as input
REM Formula found by SHELXT: As4 Ba In5
CELL 0.71073 10.2746 4.3005 13.3317 90 95.569 90
ZERR 4 0.0011 0.0005 0.0014 0 0.002 0
LATT 1
SYMM -X,+Y,-Z
SFAC As Ba In
UNIT 8 4 8

L.S. 4 0 0
PLAN  5
SIZE 0.074 0.08 0.105
TEMP -73.16
CONF
list 4
fmap 2 53
acta
MORE -1
REM <olex2.extras>
REM <HklSrc "%.\\mo_svib1414_0m.hkl">
REM </olex2.extras>

WGHT    0.023800
FVAR       0.18378
BA1   2    0.185687    0.500000    0.785680    10.50000    0.01467    0.01141 =
         0.01637    0.00000   -0.00367    0.00000
BA2   2    0.500000    0.000000    0.000000    10.25000    0.01270    0.01053 =
         0.00997    0.00000    0.00045    0.00000
BA3   2    0.000000    0.000000    0.500000    10.25000    0.01162    0.01040 =
         0.01089    0.00000    0.00042    0.00000
IN1   3    0.202232    0.500000    0.332632    10.50000    0.01179    0.01228 =
         0.01222    0.00000    0.00127    0.00000
IN2   3    0.412299    0.500000    0.223125    10.50000    0.01179    0.01237 =
         0.01218    0.00000    0.00092    0.00000
IN3   3    0.115485    0.000000    0.068753    10.50000    0.01130    0.01132 =
         0.01114    0.00000    0.00030    0.00000
IN4   3    0.393722    0.000000    0.558102    10.50000    0.01196    0.01198 =
         0.01101    0.00000    0.00036    0.00000
AS1   1    0.233647    0.500000    0.534325    10.50000    0.01064    0.00950 =
         0.01190    0.00000    0.00053    0.00000
AS2   1    0.269717    0.500000    0.037304    10.50000    0.01132    0.01029 =
         0.01039    0.00000    0.00087    0.00000
AS3   1    0.056090    0.000000    0.263555    10.50000    0.01196    0.01029 =
         0.01050    0.00000    0.00046    0.00000
AS4   1    0.572025    0.000000    0.239233    10.50000    0.01062    0.00991 =
         0.01089    0.00000   -0.00002    0.00000
HKLF 4




REM  mo_svib1414_0m_a.res in P2/m
REM wR2 = 0.0594, GooF = S = 1.023, Restrained GooF = 1.023 for all data
REM R1 = 0.0286 for 1415 Fo > 4sig(Fo) and 0.0361 for all 1675 data
REM 63 parameters refined using 0 restraints

END

WGHT      0.0238      0.0000

REM Highest difference peak  1.984,  deepest hole -1.847,  1-sigma level  0.390
Q1    1   0.3055  0.5000  0.2905  10.50000  0.05    1.98
Q2    1   0.3448  0.6758  0.5832  11.00000  0.05    1.21
Q3    1   0.0798  0.2434  0.8191  11.00000  0.05    1.20
Q4    1   0.0434 -0.2981  0.1644  11.00000  0.05    1.17
Q5    1   0.1959  0.2937  0.8541  11.00000  0.05    1.10
;
_shelx_res_checksum              36940
_shelx_hkl_file
;
   1   0   0    3.27    1.32
  -1   0   0    5.41    1.25
  -2   0   0    2.71    1.92
  -2   0   0    1.04    0.96
   2   0   0    2.40    2.45
  -3   0   0  651.70   22.54
  -3   0   0  626.04   19.03
   3   0   0  660.89   23.96
   4   0   0    2.24    3.29
  -4   0   0    5.87    3.17
  -4   0   0    5.82    1.89
  -5   0   0 1751.09   53.65
  -5   0   0 1658.70   46.97
   5   0   0 1668.00   55.64
   6   0   0  404.42   22.65
  -6   0   0  414.45   15.47
  -6   0   0  396.95   20.60
  -7   0   0    7.59    5.18
   7   0   0    3.52    5.19
  -7   0   0    6.62    2.88
   8   0   0    8.54    6.95
  -8   0   0    5.21    5.35
  -8   0   0    6.67    3.04
   9   0   0   22.09    9.54
  -9   0   0   18.00    7.32
 -10   0   0  787.52   38.66
  10   0   0  706.54   40.79
 -11   0   0   33.01   10.48
  11   0   0   39.47   12.81
 -12   0   0   23.04   10.03
  12   0   0   32.96   12.87
  13   0   0  313.31   36.15
 -13   0   0  348.37   34.31
   0  -1   0    3.47    1.74
   0  -1   0    4.76    1.67
   0  -1   0    3.13    2.84
   1  -1   0    1.20    4.19
  -1  -1   0    2.81    1.90
   1  -1   0    9.90    2.30
  -1  -1   0    6.67    2.99
  -1  -1   0    1.01    2.07
   1  -1   0    2.69    1.53
  -1   1   0    7.31    2.07
   1   1   0    1.66    2.51
   2  -1   0 4886.55  142.77
   2  -1   0 5069.82  127.45
  -2  -1   0 4864.55  130.91
  -2  -1   0 5187.14  132.07
  -2   1   0 5184.49  130.68
   2   1   0 4971.53  133.10
   3  -1   0  627.17   29.98
  -3  -1   0  614.77   21.91
  -3  -1   0  590.16   21.50
   3   1   0  619.91   23.38
  -3   1   0  571.24   21.31
   4  -1   0  436.04   25.68
  -4  -1   0  510.97   20.71
  -4  -1   0  506.15   19.47
   4   1   0  493.53   21.82
  -4   1   0  487.50   20.32
   5  -1   0  885.78   39.61
  -5  -1   0  862.42   30.39
  -5  -1   0  899.40   33.07
  -5   1   0  848.80   32.16
   5   1   0  911.77   34.39
  -6  -1   0    7.64    4.31
   6  -1   0    2.29    5.72
  -6  -1   0   -0.91    2.16
   6   1   0    7.14    4.76
  -6   1   0    1.53    3.51
  -7  -1   0   78.06    9.40
   7  -1   0   95.78   16.19
  -7  -1   0   97.56   13.03
   7   1   0   73.08   12.05
  -7   1   0   85.84   12.06
   8  -1   0  574.40   35.41
  -8  -1   0  585.49   24.75
  -8  -1   0  561.94   29.40
   8   1   0  546.43   30.63
  -8   1   0  554.73   28.17
  -9  -1   0    0.81    3.51
  -9  -1   0   -2.33    4.41
   9  -1   0    5.62    7.90
   9   1   0    2.71    6.06
  -9   1   0    9.63    6.29
  10  -1   0   13.46   10.68
 -10  -1   0   -0.96    5.84
 -10  -1   0   -1.61    3.43
 -10   1   0    3.90    5.96
  10   1   0   -1.54    5.79
 -11  -1   0   94.91   16.46
  11  -1   0  123.89   23.46
  11   1   0  116.77   19.77
 -11   1   0  128.91   18.79
 -12  -1   0  -10.55    6.09
  12  -1   0    2.22    9.84
  12   1   0   10.56    9.14
 -12   1   0    0.55    7.87
  13  -1   0   49.14   18.28
 -13  -1   0   49.33   14.61
  13   1   0   43.51   15.29
 -13   1   0   53.59   15.12
   0  -2   0 9714.57  245.81
   0  -2   0 9426.93  256.71
   0  -2   0 9999.00  249.92
   0   2   0 9541.78  257.09
   1  -2   0    3.56    2.37
   1  -2   0    3.48    2.04
  -1  -2   0    6.77    4.49
  -1  -2   0    2.10    2.15
  -1  -2   0    3.31    2.78
   1  -2   0   11.06    5.83
   1   2   0    3.95    3.99
  -1   2   0    1.58    1.88
  -2  -2   0    2.76    2.58
   2  -2   0   -1.65    5.17
   2  -2   0   -0.01    1.84
  -2  -2   0    1.05    2.73
  -2   2   0    1.19    2.19
   2   2   0   -1.60    3.13
   3  -2   0  420.85   29.04
  -3  -2   0  343.38   17.95
   3  -2   0  376.27   14.15
  -3  -2   0  411.69   17.43
   3   2   0  386.51   20.21
  -3   2   0  396.51   16.55
  -4  -2   0    9.46    4.09
   4  -2   0    5.51    8.26
  -4  -2   0    3.91    3.23
   4  -2   0   12.33    2.74
   4   2   0    5.11    4.24
  -4   2   0    8.01    3.50
  -5  -2   0 1159.75   41.79
  -5  -2   0 1231.69   42.10
   5  -2   0 1197.67   56.40
   5   2   0 1213.45   45.21
  -5   2   0 1128.71   40.62
   6  -2   0  314.30   33.72
  -6  -2   0  297.55   17.79
  -6  -2   0  309.96   18.89
   6   2   0  287.93   20.12
  -6   2   0  304.47   17.83
  -7  -2   0   23.58    7.70
   7  -2   0    1.26    7.57
  -7  -2   0    4.04    4.56
   7   2   0   -1.70    4.56
  -7   2   0   -0.05    3.99
  -8  -2   0    1.72    5.05
  -8  -2   0   10.28    5.58
   8  -2   0   18.11   11.03
   8   2   0    5.66    6.69
  -8   2   0    8.09    5.67
  -9  -2   0   28.32    9.19
  -9  -2   0   17.51    6.53
   9  -2   0    9.88   10.70
   9   2   0   21.64    9.57
  -9   2   0   16.89    7.21
 -10  -2   0  726.28   38.13
 -10  -2   0  655.59   31.57
  10  -2   0  662.87   45.90
  10   2   0  593.83   36.51
 -10   2   0  594.13   33.10
 -11  -2   0   34.12    9.15
  11  -2   0   41.24   16.78
 -11  -2   0   23.12   10.03
 -11   2   0   15.05    7.93
  11   2   0   34.91   12.43
  12  -2   0    4.94   13.74
 -12  -2   0   36.83   13.34
  12   2   0   18.17   11.98
 -12   2   0   28.91   11.68
   0  -3   0    1.01    2.02
   0  -3   0   -0.14    5.27
   0  -3   0    5.12    3.47
   0   3   0   -0.27    1.82
   0   3   0    9.43    6.48
  -1  -3   0    4.92    4.01
  -1  -3   0    4.05    2.42
   1  -3   0   -0.67    5.24
  -1  -3   0    2.24    5.02
   1  -3   0    1.02    3.18
   1  -3   0    1.41    2.24
   1   3   0   -1.13    4.18
  -1   3   0    1.04    6.37
  -1   3   0    3.47    2.60
  -2  -3   0 2498.79   78.08
   2  -3   0 2583.11   74.01
  -2  -3   0 2484.10   82.31
  -2  -3   0 2584.68   71.81
   2  -3   0 2509.90   91.14
  -2   3   0 2527.88   71.12
   2   3   0 2527.96   83.18
  -3  -3   0  280.95   15.12
   3  -3   0  300.58   14.77
   3  -3   0  302.65   32.45
  -3  -3   0  294.26   18.68
  -3   3   0  270.87   14.16
   3   3   0  288.70   20.44
   4  -3   0  260.75   13.16
  -4  -3   0  279.21   18.45
  -4  -3   0  253.34   15.50
   4  -3   0  281.48   32.80
   4   3   0  260.11   19.95
  -4   3   0  257.85   14.60
  -5  -3   0  431.80   22.38
   5  -3   0  460.29   36.49
  -5  -3   0  450.58   24.96
   5   3   0  450.54   27.10
  -5   3   0  463.11   21.93
  -6  -3   0    5.84    5.28
   6  -3   0   17.01   11.25
  -6  -3   0   -1.65    4.23
  -6   3   0   -0.34    3.59
   6   3   0    1.00    6.13
   7  -3   0   40.46   14.75
  -7  -3   0   45.23    9.81
  -7  -3   0   44.02    9.85
  -7   3   0   53.10   10.02
   7   3   0   44.25   11.67
  -8  -3   0  324.10   22.64
   8  -3   0  340.85   38.63
  -8  -3   0  323.03   22.98
  -8   3   0  323.30   21.43
   8   3   0  315.03   25.33
  -9  -3   0    8.89    7.52
   9  -3   0    7.21   12.21
  -9  -3   0   -0.17    5.01
   9   3   0    9.58    8.57
  -9   3   0   -4.90    5.14
 -10  -3   0    0.71    6.71
  10  -3   0   11.40   12.41
 -10  -3   0    6.99    7.07
 -10   3   0    0.98    6.27
  10   3   0   -3.01    7.79
 -11  -3   0  100.16   18.53
  11  -3   0   54.02   18.38
 -11  -3   0   55.81   12.59
 -11   3   0   65.63   13.72
  11   3   0   55.67   16.13
   0  -4   0 5062.00  156.20
   0  -4   0 5046.41  141.57
   0   4   0 4675.59  154.41
  -1  -4   0    0.93    6.70
  -1  -4   0   -4.16    3.41
   1  -4   0    0.16    7.89
   1  -4   0   -0.48    3.95
  -1   4   0   -2.92    7.13
   1   4   0    1.67    7.07
   2  -4   0    1.43    4.19
  -2  -4   0    3.98    4.85
   2  -4   0   -1.51    7.35
  -2   4   0   -6.11    7.26
   2   4   0    3.09    6.76
   3  -4   0  136.33   24.62
  -3  -4   0  175.43   19.15
   3   4   0  174.34   22.29
  -4  -4   0    6.18    5.77
   4  -4   0    5.61    9.79
   4   4   0    4.46    7.25
   5  -4   0  582.62   44.40
  -5  -4   0  507.57   30.35
   5   4   0  546.67   34.27
   6  -4   0  102.72   22.80
  -6  -4   0  139.33   18.71
   6   4   0  114.70   19.51
  -7  -4   0    2.02    6.20
   7  -4   0   10.83   12.90
   7   4   0    3.80    8.02
  -8  -4   0    0.21    6.10
   8  -4   0   -8.31    9.93
   8   4   0   13.99   10.81
  -9  -4   0   12.96    7.89
   9  -4   0    7.83   11.96
   9   4   0    9.29   11.06
   0  -5   0    1.43    5.24
   0  -5   0   14.80   11.21
   0   5   0    4.32   10.78
  -1  -5   0    2.25    5.78
  -1  -5   0    4.40    9.31
   1  -5   0    3.74    5.98
   1  -5   0   -1.51    9.69
  -1   5   0   -4.90    9.99
   1   5   0    3.95   10.05
   2  -5   0  929.23   57.51
  -2  -5   0  985.70   45.12
   2   5   0  905.95   51.95
  -2   5   0  923.05   58.28
   3  -5   0  136.31   28.03
  -3  -5   0   86.93   16.05
   3   5   0  103.24   21.25
  -3   5   0  139.34   29.46
   4  -5   0   97.40   24.57
  -4  -5   0   71.39   14.02
   4   5   0   68.13   17.04
  -4   5   0   52.50   21.61
   5  -5   0  206.30   34.78
  -5  -5   0  173.66   22.96
   5   5   0  218.00   28.25
  -6  -5   0   -2.83    5.97
   6  -5   0    3.53   12.06
   6   5   0    8.90   11.14
 -13   0   1  779.82   43.76
  13   0  -1  735.87   48.38
 -12   0   1   55.34   13.51
  12   0  -1   39.24   14.01
  11   0  -1   54.79   14.65
 -11   0   1   71.01   14.63
 -10   0   1   11.06    7.18
  10   0  -1   20.80   10.20
  -9   0   1   35.00    9.66
   9   0  -1   58.59   13.32
  -8   0   1    4.38    2.73
   8   0  -1    4.79    6.47
  -8   0   1    1.68    4.86
  -7   0   1    9.42    5.20
   7   0  -1    3.91    5.34
  -7   0   1    2.68    2.16
   6   0  -1   29.89    7.97
  -6   0   1   28.39    4.19
  -6   0   1   44.30    8.15
  -5   0   1 1184.54   40.35
   5   0  -1 1145.51   41.90
  -5   0   1 1192.72   34.30
  -4   0   1  143.23    6.83
  -4   0   1  133.12    9.59
   4   0  -1  138.71   10.64
  -3   0   1  105.62    7.46
   3   0  -1  116.11    8.59
  -3   0   1  118.26    5.60
  -2   0   1  127.57    5.43
  -2   0   1  133.07    6.97
   2   0  -1  125.67    7.45
  -1   0   1    9.75    1.56
   1   0  -1   14.18    2.14
  -1   0   1   11.19    1.93
   1   0  -1    6.54    1.47
   0   0   1    0.43    0.52
   0   0  -1   -0.52    0.93
  -1   0  -1   73.35    4.06
   1   0   1   68.80    4.03
  -1   0  -1   70.08    4.07
   1   0   1   70.23    4.11
  -2   0  -1   21.12    3.54
  -2   0  -1   24.50    3.11
   2   0   1   30.73    4.80
   3   0   1 1082.15   36.23
  -3   0  -1 1120.65   35.15
  -3   0  -1 1162.98   32.19
   4   0   1  444.08   21.06
  -4   0  -1  499.12   16.55
  -4   0  -1  488.63   20.10
  -5   0  -1 3294.28   85.62
   5   0   1 3076.68   94.10
  -5   0  -1 3223.54   92.06
   6   0   1   -1.16    4.11
  -6   0  -1    2.03    3.51
  -6   0  -1    1.28    1.91
  -7   0  -1  213.53   16.04
  -7   0  -1  226.46   11.25
   7   0   1  252.09   19.05
  -8   0  -1   13.47    6.28
   8   0   1   17.53    8.46
  -8   0  -1   15.19    3.94
  -9   0  -1   31.81    9.63
   9   0   1   47.06   12.36
 -10   0  -1   77.79   14.08
  10   0   1   74.75   16.51
 -11   0  -1   12.67    7.75
  11   0   1    0.48    8.00
  12   0   1   53.53   15.81
 -12   0  -1   55.03   13.76
  13   0   1  253.09   33.40
 -13   0  -1  246.88   28.58
 -13  -1   1   83.84   16.96
  13  -1  -1   75.09   20.92
 -13   1   1   71.48   16.01
  13   1  -1  120.50   22.40
 -12  -1   1   16.27    9.01
  12  -1  -1   -3.90   10.38
  12   1  -1   24.46   11.72
 -12   1   1   16.79   10.02
  11  -1  -1  139.96   24.49
 -11  -1   1  213.85   25.00
  11   1  -1  187.55   24.34
 -11   1   1  181.04   21.87
 -10  -1   1  248.44   16.00
  10  -1  -1  214.91   28.55
 -10  -1   1  212.82   23.26
  10   1  -1  241.24   25.85
 -10   1   1  190.26   21.47
  -9  -1   1  890.50   41.51
  -9  -1   1  928.00   35.25
   9  -1  -1  902.59   48.47
   9   1  -1 1044.57   45.33
  -9   1   1  928.08   40.77
  -8  -1   1   33.84    6.81
  -8  -1   1   52.37   10.72
   8  -1  -1   47.31   13.26
   8   1  -1   36.35    9.91
  -8   1   1   60.43   11.22
  -7  -1   1   30.36    6.30
  -7  -1   1   21.65    6.70
   7  -1  -1   52.18   12.64
   7   1  -1   21.19    7.05
  -7   1   1   38.03    8.16
  -6  -1   1   21.22    5.04
   6  -1  -1   25.48    8.75
  -6  -1   1   19.68    6.04
  -6   1   1   19.77    5.69
   6   1  -1   12.77    5.60
  -5  -1   1 1204.39   41.65
   5  -1  -1 1174.70   47.97
  -5  -1   1 1221.12   38.85
   5   1  -1 1174.54   41.87
  -5   1   1 1180.25   40.20
  -4  -1   1  785.25   29.15
  -4  -1   1  812.28   27.81
   4  -1  -1  736.66   34.86
  -4   1   1  826.55   28.53
   4   1  -1  838.66   30.25
  -3  -1   1 2452.66   68.48
  -3  -1   1 2499.75   69.59
   3  -1  -1 2459.10   78.77
   3   1  -1 2371.34   69.68
  -3   1   1 2467.81   67.94
   2  -1  -1 1491.56   39.33
  -2  -1   1 1491.93   43.45
   2  -1  -1 1474.78   52.14
  -2  -1   1 1463.63   43.01
   2   1  -1 1447.27   43.66
  -2   1   1 1478.08   41.32
   1  -1  -1    8.41    4.43
  -1  -1   1    8.96    2.88
  -1  -1   1    6.90    2.70
  -1  -1   1    4.56    2.23
   1  -1  -1    6.89    2.08
  -1   1   1    5.28    1.58
   1   1  -1    6.46    2.89
   0  -1  -1   -0.04    1.87
   0  -1   1    1.12    1.64
   0  -1  -1    1.43    2.70
   0  -1   1    1.00    1.84
   0  -1   1    0.96    2.55
   0   1   1    2.07    3.20
   1  -1   1  180.17    8.56
  -1  -1  -1  180.51    6.87
   1  -1   1  185.77    7.91
  -1  -1  -1  196.87    9.96
   1  -1   1  173.02   12.70
  -1  -1  -1  157.78    8.70
  -1   1  -1  175.06    8.55
   1   1   1  202.81   10.50
   2  -1   1 2617.65   71.49
   2  -1   1 2617.10   68.67
  -2  -1  -1 2557.52   71.70
  -2  -1  -1 2516.85   69.54
  -2   1  -1 2623.93   68.75
   2   1   1 2633.35   73.14
  -2   1  -1 2634.56   71.35
  -3  -1  -1  657.67   22.71
  -3  -1  -1  608.76   22.91
   3  -1   1  668.98   31.26
  -3   1  -1  613.31   23.18
  -3   1  -1  665.88   22.15
   3   1   1  663.77   24.75
  -4  -1  -1  477.24   19.50
   4  -1   1  481.88   26.68
  -4  -1  -1  488.69   20.27
   4   1   1  482.24   21.96
  -4   1  -1  487.19   14.06
  -4   1  -1  501.70   21.04
   5  -1   1  162.04   18.53
  -5  -1  -1  175.96   11.06
  -5  -1  -1  160.95   11.74
   5   1   1  173.39   13.34
  -5   1  -1  169.69   12.37
   6  -1   1    6.29    6.54
  -6  -1  -1    0.97    3.61
  -6  -1  -1    6.25    3.31
  -6   1  -1   -1.35    3.06
   6   1   1   15.13    6.39
  -7  -1  -1 1432.05   52.45
   7  -1   1 1496.17   60.96
  -7  -1  -1 1482.65   47.78
   7   1   1 1485.83   54.93
  -7   1  -1 1462.63   52.21
  -8  -1  -1  152.70   11.63
  -8  -1  -1  149.42   17.36
   8  -1   1  170.36   23.24
  -8   1  -1  140.60   16.79
   8   1   1  140.93   18.09
  -9  -1  -1   37.12    9.95
  -9  -1  -1   25.71    6.52
   9  -1   1   18.68   10.86
   9   1   1   28.65   10.13
  -9   1  -1   12.98    7.11
 -10  -1  -1  115.70   17.33
 -10  -1  -1  155.71   14.82
  10  -1   1  143.44   23.45
 -10   1  -1   97.17   15.77
  10   1   1  134.46   20.03
  11  -1   1  139.16   24.83
 -11  -1  -1  154.76   20.77
  11   1   1  139.85   21.80
 -11   1  -1  166.64   20.98
  12  -1   1   50.50   18.13
 -12  -1  -1   33.84   12.02
 -12   1  -1   47.33   13.45
  12   1   1   41.58   14.30
 -13  -1  -1   35.37   12.51
  13  -1   1   48.97   17.92
 -13   1  -1   54.60   14.67
  13   1   1   54.09   17.09
  12  -2  -1   29.09   15.72
 -12  -2   1   34.79   12.10
  12   2  -1   47.67   15.33
 -12   2   1   31.50   11.09
  11  -2  -1   59.69   18.10
 -11  -2   1   70.28   14.55
 -11  -2   1   49.01   10.40
  11   2  -1   44.66   14.04
 -11   2   1   45.60   12.07
 -10  -2   1    7.42    7.16
  10  -2  -1   16.17   11.77
 -10  -2   1    8.89    6.03
 -10   2   1   -1.03    5.77
  10   2  -1    8.14    8.08
  -9  -2   1   53.91   11.92
   9  -2  -1   28.41   13.98
  -9  -2   1   41.65    8.88
  -9   2   1   49.44   11.02
   9   2  -1   60.18   13.83
  -8  -2   1    1.54    4.22
  -8  -2   1    2.15    4.97
   8  -2  -1   -3.14    7.74
  -8   2   1    2.41    4.92
   8   2  -1    4.27    5.91
  -7  -2   1    3.18    5.19
   7  -2  -1    2.84    7.37
  -7  -2   1    8.41    4.95
   7   2  -1    0.24    5.00
  -7   2   1    3.07    4.18
  -6  -2   1   26.03    6.64
   6  -2  -1   25.60   11.14
  -6  -2   1   17.94    6.29
  -6   2   1   22.31    6.42
   6   2  -1   37.97    9.09
   5  -2  -1  884.47   45.46
  -5  -2   1  813.63   32.42
  -5  -2   1  840.34   33.01
  -5   2   1  829.15   30.81
   5   2  -1  766.52   33.85
  -4  -2   1   68.51    9.25
   4  -2  -1   75.06   15.41
  -4  -2   1  103.53   10.96
   4  -2  -1   88.07    5.12
  -4   2   1  100.11    9.62
   4   2  -1  100.25   12.14
   3  -2  -1   79.48    5.49
  -3  -2   1   61.69    8.53
  -3  -2   1   76.11    8.90
   3  -2  -1   79.70   14.76
  -3   2   1   80.47    7.73
   3   2  -1   73.49   10.03
   2  -2  -1   66.33   12.64
  -2  -2   1   73.26    8.81
   2  -2  -1   75.72    6.88
  -2  -2   1   56.33    7.25
   2   2  -1   72.06    9.63
  -2   2   1   68.06    5.18
  -1  -2   1    4.70    3.76
   1  -2  -1    7.43    5.29
  -1  -2   1    2.74    2.56
  -1  -2   1    8.14    3.53
   1  -2  -1    4.14    2.56
  -1   2   1    6.79    1.96
   1   2  -1   -0.19    3.51
   0  -2   1   -0.83    2.39
   0  -2  -1    1.38    1.29
   0  -2   1    8.49    3.00
   0  -2  -1    5.37    3.20
   0  -2  -1    8.15    4.78
   0  -2   1    5.40    4.36
   0   2   1    2.28    1.36
   0   2  -1    2.49    4.43
   0   2   1    1.88    4.39
   1  -2   1   30.42    4.77
   1  -2   1   36.13    8.57
  -1  -2  -1   45.48    8.18
  -1  -2  -1   39.68    4.01
  -1  -2  -1   32.54    5.81
   1  -2   1   45.27    5.86
   1   2   1   40.76    7.89
  -1   2  -1   43.91    5.61
   2  -2   1   15.57    3.88
  -2  -2  -1   12.86    3.25
   2  -2   1   12.46    3.36
  -2  -2  -1   11.22    4.20
   2  -2   1    5.87    6.19
  -2   2  -1   13.14    3.91
   2   2   1    9.85    5.16
  -3  -2  -1  705.72   24.93
  -3  -2  -1  727.61   28.56
   3  -2   1  711.04   23.56
   3  -2   1  685.23   38.70
   3   2   1  736.39   30.37
  -3   2  -1  693.00   26.13
  -4  -2  -1  339.96   18.53
   4  -2   1  357.00   14.35
   4  -2   1  364.97   29.05
  -4  -2  -1  337.48   16.76
   4   2   1  376.05   20.78
  -4   2  -1  364.12   17.62
  -4   2  -1  370.25   14.54
  -5  -2  -1 2280.82   69.24
  -5  -2  -1 2189.51   70.24
   5  -2   1 2257.89   87.42
  -5   2  -1 2272.18   61.96
   5   2   1 2314.50   74.14
  -5   2  -1 2315.53   69.98
   6  -2   1    9.53    9.13
  -6  -2  -1    3.02    3.49
  -6  -2  -1    8.93    4.79
  -6   2  -1   -0.74    3.95
   6   2   1    2.77    5.37
   7  -2   1  158.35   24.50
  -7  -2  -1  149.71   16.33
  -7  -2  -1  146.16   15.39
   7   2   1  176.17   19.78
  -7   2  -1  163.66   16.59
  -8  -2  -1    1.68    5.60
  -8  -2  -1   10.27    5.23
   8  -2   1    2.74    9.16
   8   2   1   12.44    7.48
  -8   2  -1    9.72    6.62
  -9  -2  -1   35.45    9.67
   9  -2   1   34.87   14.47
  -9  -2  -1   30.85    8.38
  -9   2  -1   15.78    7.14
   9   2   1   35.61   11.58
  10  -2   1   80.37   20.41
 -10  -2  -1   68.13   12.08
 -10  -2  -1   73.50   14.18
  10   2   1   63.36   14.44
 -10   2  -1   82.46   14.63
  11  -2   1   -1.04   10.08
 -11  -2  -1    4.16    7.40
 -11  -2  -1    2.24    5.65
 -11   2  -1    2.21    5.72
  11   2   1   -6.57    6.89
 -12  -2  -1   55.35   14.25
  12  -2   1   43.00   17.68
  12   2   1   49.22   15.06
 -12   2  -1   39.06   12.40
  11  -3  -1  127.16   26.19
 -11  -3   1  116.17   17.35
 -11  -3   1  108.91   18.19
  11   3  -1  124.93   21.62
 -11   3   1  145.77   20.46
  10  -3  -1  158.88   28.76
 -10  -3   1  160.89   21.76
 -10  -3   1  158.46   19.94
 -10   3   1  116.47   17.02
  10   3  -1  135.59   22.05
  -9  -3   1  555.41   30.87
   9  -3  -1  578.13   42.87
  -9  -3   1  571.41   32.78
  -9   3   1  528.44   29.45
   9   3  -1  589.00   35.31
  -8  -3   1   18.56    8.01
  -8  -3   1   33.91    9.28
   8  -3  -1   24.76   12.76
   8   3  -1   24.84   10.47
  -8   3   1   12.13    6.61
   7  -3  -1   15.24   11.37
  -7  -3   1   17.01    7.73
  -7  -3   1   20.40    7.38
  -7   3   1   26.79    7.64
   7   3  -1   11.42    7.77
   6  -3  -1    7.83    9.60
  -6  -3   1   15.26    6.53
  -6  -3   1   26.94    7.81
   6   3  -1   14.06    7.78
  -6   3   1   11.64    5.14
  -5  -3   1  685.66   31.51
   5  -3  -1  697.51   43.87
  -5  -3   1  627.32   28.75
  -5   3   1  578.66   25.46
   5   3  -1  662.70   33.06
   4  -3  -1  413.26   17.06
  -4  -3   1  348.94   21.60
  -4  -3   1  400.20   20.58
   4  -3  -1  507.01   35.31
   4   3  -1  427.24   25.11
  -4   3   1  395.93   17.97
  -3  -3   1 1268.15   42.35
   3  -3  -1 1247.75   58.38
   3  -3  -1 1253.06   40.12
  -3  -3   1 1222.92   45.70
   3   3  -1 1227.42   48.40
  -3   3   1 1210.97   38.42
  -2  -3   1  765.47   33.99
  -2  -3   1  666.50   26.06
  -2  -3   1  648.02   29.30
   2  -3  -1  683.97   38.68
   2  -3  -1  673.76   26.37
  -2   3   1  684.59   22.84
   2   3  -1  678.88   32.88
   1  -3  -1    4.34    3.71
  -1  -3   1    2.40    2.94
  -1  -3   1    0.45    3.24
  -1  -3   1    9.49    5.85
   1  -3  -1    2.66    6.12
   1   3  -1    1.77    5.14
  -1   3   1    0.63    1.87
  -1   3   1    1.04    5.96
   0  -3  -1    4.01    6.33
   0  -3  -1    1.74    1.72
   0  -3  -1    0.68    2.61
   0  -3   1    2.86    5.03
   0  -3   1    0.51    2.84
   0  -3   1    1.74    2.44
   0   3   1    0.31    4.69
   0   3   1    5.76    2.07
   0   3  -1   -2.80    4.23
   1  -3   1   69.88    7.84
  -1  -3  -1   67.00    9.85
   1  -3   1   55.74    8.02
  -1  -3  -1   71.38   12.85
   1  -3   1   52.55   11.86
  -1  -3  -1   58.10    4.52
  -1   3  -1   62.47    7.53
  -1   3  -1   64.09   13.91
   1   3   1   55.37   11.37
  -2  -3  -1 1143.29   46.70
   2  -3   1 1201.45   39.58
   2  -3   1 1187.48   53.85
  -2  -3  -1 1113.48   34.92
   2  -3   1 1167.24   37.84
  -2  -3  -1 1160.07   43.07
  -2   3  -1 1186.95   38.25
   2   3   1 1132.94   47.11
  -3  -3  -1  312.37   15.07
   3  -3   1  311.53   15.72
  -3  -3  -1  305.62   19.17
   3  -3   1  291.57   31.89
   3   3   1  311.00   21.58
  -3   3  -1  322.13   16.46
   4  -3   1  243.62   30.73
  -4  -3  -1  238.32   14.00
  -4  -3  -1  236.82   17.48
   4  -3   1  252.06   13.35
   4   3   1  253.68   19.88
  -4   3  -1  213.83   14.03
  -5  -3  -1   98.66   11.60
  -5  -3  -1   68.73   11.49
   5  -3   1   74.13   19.08
   5   3   1   80.22   13.75
  -5   3  -1   81.89   10.95
  -6  -3  -1    0.11    4.40
  -6  -3  -1    3.55    4.81
   6  -3   1    1.47    8.35
  -6   3  -1   -0.21    3.75
   6   3   1   10.47    7.48
  -7  -3  -1  814.61   38.50
  -7  -3  -1  824.86   36.81
   7  -3   1  833.68   52.05
  -7   3  -1  911.81   37.59
   7   3   1  948.74   44.20
  -8  -3  -1   93.50   13.98
   8  -3   1   44.84   15.67
  -8  -3  -1   87.57   13.91
  -8   3  -1   49.85   10.00
   8   3   1   73.60   15.75
   9  -3   1   17.98   12.85
  -9  -3  -1   23.52    9.23
  -9  -3  -1   23.28    8.56
  -9   3  -1   28.00    9.45
   9   3   1   14.97    9.12
 -10  -3  -1   65.72   13.69
 -10  -3  -1   67.31   13.20
  10  -3   1   89.60   22.82
 -10   3  -1   94.05   16.14
  10   3   1   64.06   15.91
  11  -3   1  133.62   26.92
 -11  -3  -1  127.74   18.48
  11   3   1  150.41   24.30
 -11   3  -1   80.73   15.76
  -9  -4   1   29.50   10.09
   9  -4  -1   39.66   15.62
   9   4  -1   28.98   12.31
   8  -4  -1    4.24   10.43
  -8  -4   1    7.16    7.32
   8   4  -1    4.39    8.73
   7  -4  -1    5.02   10.61
  -7  -4   1    6.31    6.59
   7   4  -1   -3.50    7.53
   6  -4  -1   16.63   12.89
  -6  -4   1    7.74    6.25
   6   4  -1    5.08    7.95
   5  -4  -1  425.95   44.13
  -5  -4   1  349.75   24.63
   5   4  -1  435.97   29.13
   4  -4  -1   41.71   15.38
  -4  -4   1   38.24    9.99
   4   4  -1   46.76   12.21
   3  -4  -1   24.54   12.79
  -3  -4   1   31.84    8.74
   3   4  -1   32.50   10.85
   2  -4  -1   28.44   12.43
  -2  -4   1   26.41    7.99
   2  -4  -1   28.55    7.21
   2   4  -1   19.54    9.05
  -2   4   1   11.24   11.72
  -1  -4   1   -1.62    6.41
  -1  -4   1    1.73    4.66
   1  -4  -1    4.34    4.62
   1  -4  -1   -1.76    6.51
  -1   4   1   -6.36    6.58
   1   4  -1   -1.30    5.66
   0  -4  -1    4.06    5.11
   0  -4  -1   -7.13    5.94
   0  -4   1    4.66    7.71
   0  -4   1    1.65    4.21
   0   4   1    0.14    7.11
   0   4  -1    9.55    8.26
   1  -4   1    9.73    5.55
  -1  -4  -1   21.81    7.14
  -1  -4  -1   17.10   10.46
   1  -4   1   16.96   10.76
  -1   4  -1   12.45    9.22
   1   4   1   18.41    9.38
   2  -4   1    6.24    9.24
  -2  -4  -1    7.06    5.60
   2  -4   1   10.61    5.39
  -2   4  -1   14.40   11.13
   2   4   1    7.84    7.72
   3  -4   1  231.68   30.58
  -3  -4  -1  292.68   21.04
   3   4   1  280.23   29.21
   4  -4   1  180.58   28.41
  -4  -4  -1  124.34   16.60
   4   4   1  160.16   21.69
   5  -4   1 1063.78   61.95
  -5  -4  -1 1001.85   46.27
   5   4   1 1144.61   52.10
  -6  -4  -1    4.78    6.34
   6  -4   1   -3.07   10.46
   6   4   1   -0.90    7.09
   7  -4   1   70.90   19.82
  -7  -4  -1   66.87   14.32
   7   4   1   47.21   13.74
  -8  -4  -1    3.18    7.83
   8  -4   1   17.47   12.23
   8   4   1   -2.78    8.24
   9  -4   1   34.69   16.20
  -9  -4  -1   28.50   10.78
   9   4   1   15.32   12.05
   6  -5  -1   23.37   13.76
  -6  -5   1    4.92    6.86
   6   5  -1  -13.13    8.22
  -5  -5   1  285.34   28.96
   5  -5  -1  296.55   39.06
   5   5  -1  267.64   31.48
   4  -5  -1  105.10   24.49
  -4  -5   1  165.82   21.10
   4   5  -1  132.35   21.81
  -4   5   1  147.73   31.21
   3  -5  -1  435.20   46.85
  -3  -5   1  493.19   30.31
   3   5  -1  423.03   33.59
  -3   5   1  433.37   48.72
   2  -5  -1  238.96   34.13
  -2  -5   1  264.53   25.85
   2   5  -1  256.36   30.96
  -2   5   1  255.52   36.68
  -1  -5   1   -0.10    4.68
   1  -5  -1    3.45   10.11
   1  -5  -1   -0.69    5.52
  -1  -5   1    3.11    9.24
  -1   5   1   -0.56   10.26
   1   5  -1    3.62    9.60
   0  -5  -1    0.61    9.62
   0  -5   1   -4.41    4.94
   0  -5   1    2.24    9.45
   0  -5  -1   -4.83    4.83
   0   5   1   -1.89    9.38
   0   5  -1   -5.75    8.27
  -1  -5  -1    8.15   10.03
  -1  -5  -1   10.87    7.77
   1  -5   1   26.76   14.45
   1  -5   1   10.90    7.33
  -1   5  -1   19.01   13.54
   1   5   1    0.52    8.69
   2  -5   1  363.67   41.74
  -2  -5  -1  409.08   27.99
  -2   5  -1  443.62   45.62
   2   5   1  456.14   42.57
   3  -5   1  124.99   26.42
  -3  -5  -1  100.38   16.74
   3   5   1   79.39   19.42
  -3   5  -1  111.70   25.56
  -4  -5  -1   60.61   13.29
   4  -5   1   66.09   20.36
   4   5   1   56.01   16.19
  -4   5  -1   88.70   25.19
  -5  -5  -1   29.76   10.64
   5  -5   1   48.30   20.39
   5   5   1   37.86   14.02
   6  -5   1   13.45   14.47
  -6  -5  -1    9.93    8.43
   6   5   1   -0.70   10.17
 -13   0   2  380.95   29.96
  13   0  -2  423.44   42.14
  12   0  -2   24.88   12.18
 -12   0   2   33.72   11.82
 -11   0   2   14.36    8.02
  11   0  -2   10.99    8.89
 -10   0   2  115.02   16.74
  10   0  -2   83.65   16.72
   9   0  -2  296.86   27.97
  -9   0   2  248.76   19.71
   8   0  -2 4203.87  126.63
  -8   0   2 4071.29  111.18
  -8   0   2 4126.64  122.31
  -7   0   2  813.00   27.34
   7   0  -2  837.99   37.20
  -7   0   2  820.20   34.54
   6   0  -2   98.22   12.84
  -6   0   2  115.46   12.71
  -6   0   2   96.26    6.89
   5   0  -2  887.54   34.43
  -5   0   2  891.69   27.86
  -5   0   2  896.74   32.86
  -4   0   2 1017.41   30.43
   4   0  -2 1023.28   35.57
  -3   0   2 1499.87   41.78
  -3   0   2 1439.65   44.34
   3   0  -2 1519.93   45.15
  -2   0   2  301.58   12.62
   2   0  -2  318.82   12.73
   2   0  -2  306.43   11.98
  -2   0   2  314.03   11.89
  -1   0   2   60.66    5.81
   1   0  -2   56.39    5.77
  -1   0   2   57.92    4.56
   1   0  -2   62.96    3.88
   0   0  -2    2.58    3.29
   0   0   2    3.78    1.83
   1   0   2   13.96    2.58
  -1   0  -2   11.18    2.81
   1   0   2   11.46    2.92
  -1   0  -2   10.50    4.02
   2   0   2  246.73   11.39
  -2   0  -2  259.22   11.54
  -2   0  -2  236.25   11.11
   3   0   2   47.26    6.77
  -3   0  -2   44.48    5.21
  -3   0  -2   35.08    5.29
   4   0   2   48.62    8.26
  -4   0  -2   39.31    5.13
  -4   0  -2   45.92    6.98
   5   0   2 1068.18   39.81
  -5   0  -2 1016.20   37.48
  -5   0  -2 1049.32   32.75
  -6   0  -2  426.96   22.24
   6   0   2  467.17   24.71
  -6   0  -2  441.28   17.51
  -7   0  -2  994.46   32.64
  -7   0  -2 1046.14   40.78
   7   0   2  980.23   42.61
  -8   0  -2 2062.18   60.35
   8   0   2 2100.59   74.72
  -8   0  -2 2055.65   70.71
   9   0   2   26.95   11.60
  -9   0  -2   16.93    7.35
  10   0   2   -1.64    6.53
 -10   0  -2    9.37    7.68
  11   0   2    6.29    8.99
 -11   0  -2    2.98    6.65
  12   0   2   23.80   12.72
 -12   0  -2   38.14   11.91
 -13   0  -2   23.85   12.33
  13   0   2   37.95   16.07
  13  -1  -2   68.69   20.26
 -13  -1   2   54.32   15.04
 -13   1   2   62.74   14.59
  13   1  -2   64.96   16.99
  12  -1  -2  113.24   23.23
 -12  -1   2   56.70   14.47
  12   1  -2   73.06   17.27
 -12   1   2   75.05   15.41
  11  -1  -2  381.45   40.05
 -11  -1   2  403.71   28.49
  11   1  -2  364.11   28.37
 -11   1   2  429.94   28.30
 -10  -1   2 1432.70   58.91
 -10  -1   2 1491.16   51.13
  10  -1  -2 1497.79   68.18
  10   1  -2 1490.06   60.88
 -10   1   2 1491.06   57.81
  -9  -1   2  110.75   15.97
   9  -1  -2  131.07   21.08
  -9  -1   2  133.81   13.54
   9   1  -2   92.31   15.55
  -9   1   2   75.43   12.83
  -8  -1   2    2.61    3.54
   8  -1  -2   11.18    8.61
  -8  -1   2    7.39    5.52
   8   1  -2    0.94    5.23
  -8   1   2    7.88    5.20
  -7  -1   2   -0.80    2.51
   7  -1  -2   -4.35    4.99
  -7  -1   2    2.38    4.39
   7   1  -2   -0.44    3.95
  -7   1   2    4.44    4.41
  -6  -1   2 1208.28   40.56
   6  -1  -2 1175.05   50.30
  -6  -1   2 1288.11   45.43
  -6   1   2 1257.26   43.40
   6   1  -2 1236.05   44.94
   5  -1  -2   59.51   11.63
  -5  -1   2   81.50    8.76
  -5  -1   2   78.81   10.17
   5  -1  -2   69.48    3.55
   5   1  -2   81.38   10.18
  -5   1   2   64.74    8.35
   4  -1  -2 1417.21   51.41
  -4  -1   2 1341.58   44.18
  -4  -1   2 1323.60   41.65
   4  -1  -2 1309.04   36.02
  -4   1   2 1337.52   41.87
   4   1  -2 1343.70   43.38
   3  -1  -2  151.02   16.65
  -3  -1   2  172.45    9.89
   3  -1  -2  186.78    7.77
  -3  -1   2  178.19   11.16
  -3   1   2  185.99    9.55
   3   1  -2  194.93   10.87
   2  -1  -2 1048.21   30.57
  -2  -1   2 1070.69   34.25
   2  -1  -2 1007.73   39.71
  -2  -1   2 1035.01   32.75
   2   1  -2 1071.35   32.59
  -2   1   2 1046.75   30.54
  -1  -1   2  251.85   11.98
   1  -1  -2  223.13   10.15
  -1  -1   2  225.02   10.29
   1  -1  -2  233.96   13.48
  -1   1   2  234.00    8.11
   1   1  -2  235.36   10.45
   0  -1  -2 1405.75   41.66
   0  -1   2 1427.96   41.40
   0  -1  -2 1500.22   43.42
   0  -1   2 1381.87   41.94
   0  -1   2 1414.11   42.03
   0   1   2 1416.45   43.41
   1  -1   2  673.41   27.49
  -1  -1  -2  690.79   23.49
   1  -1   2  657.37   23.06
   1  -1   2  659.04   22.36
  -1  -1  -2  675.66   19.44
  -1  -1  -2  694.76   23.92
  -1   1  -2  678.37   22.64
   1   1   2  718.00   24.08
   2  -1   2   14.88    7.40
   2  -1   2   17.32    4.20
  -2  -1  -2   32.47    4.20
  -2  -1  -2   18.33    4.15
   2  -1   2   16.34    4.02
  -2   1  -2   12.43    3.51
  -2   1  -2   25.04    4.54
   2   1   2   28.53    5.40
  -3  -1  -2  899.18   30.07
  -3  -1  -2  861.59   28.42
   3  -1   2  830.39   36.89
  -3   1  -2  830.67   29.97
  -3   1  -2  841.98   31.32
   3   1   2  892.13   30.88
  -4  -1  -2   32.64    5.64
   4  -1   2   27.94    8.60
  -4  -1  -2   32.32    5.98
   4   1   2   22.18    6.02
  -4   1  -2   24.96    4.29
  -4   1  -2   22.48    5.58
  -5  -1  -2 1852.15   57.87
   5  -1   2 1829.02   66.20
  -5  -1  -2 1906.04   56.99
  -5   1  -2 1772.56   58.72
  -5   1  -2 1854.78   50.28
   5   1   2 1870.22   60.31
  -6  -1  -2  259.05   14.66
  -6  -1  -2  247.62   16.03
   6  -1   2  251.15   24.85
  -6   1  -2  246.58   16.45
   6   1   2  227.72   16.95
  -6   1  -2  257.58    9.56
   7  -1   2   -6.55    4.86
  -7  -1  -2    4.74    3.67
  -7  -1  -2    4.57    4.78
  -7   1  -2    6.17    5.08
   7   1   2    6.52    5.82
   8  -1   2  230.32   26.67
  -8  -1  -2  216.11   14.42
  -8  -1  -2  261.11   18.85
   8   1   2  208.20   22.21
  -8   1  -2  221.17   21.43
  -9  -1  -2   36.52    9.88
  -9  -1  -2   46.58    8.43
   9  -1   2   38.81   13.96
  -9   1  -2   30.37    9.05
   9   1   2   33.34   10.96
 -10  -1  -2 1525.50   61.33
  10  -1   2 1536.60   70.41
 -10  -1  -2 1524.85   52.26
 -10   1  -2 1514.20   60.48
  10   1   2 1528.21   64.00
  11  -1   2  230.49   31.99
 -11  -1  -2  205.43   24.37
  11   1   2  243.51   28.69
 -11   1  -2  220.96   24.50
 -12  -1  -2   -0.01    6.85
  12  -1   2   -3.65    9.72
 -12   1  -2    2.86    7.40
  12   1   2    0.95    8.07
  13  -1   2   40.34   17.46
 -13  -1  -2   41.86   13.15
  13   1   2   20.27   13.25
 -13   1  -2   33.65   12.53
  12  -2  -2   26.40   15.47
 -12  -2   2   28.08   11.83
 -12   2   2   12.21    8.73
  12   2  -2   17.00   10.53
 -11  -2   2    5.81    7.72
 -11  -2   2    8.33    6.32
  11  -2  -2   13.33   12.66
 -11   2   2    7.84    7.58
  11   2  -2   -2.74    7.50
 -10  -2   2  103.44   14.10
 -10  -2   2   69.23   14.36
  10  -2  -2   89.52   21.01
  10   2  -2   99.13   17.61
 -10   2   2   98.24   14.93
  -9  -2   2  232.73   17.26
   9  -2  -2  173.61   27.07
  -9  -2   2  140.45   18.91
   9   2  -2  253.03   26.43
  -9   2   2  215.57   21.37
  -8  -2   2 3142.78   94.50
   8  -2  -2 3040.20  111.51
  -8  -2   2 3069.77   98.81
  -8   2   2 3158.74   95.30
   8   2  -2 3065.76   99.49
  -7  -2   2  637.65   30.73
  -7  -2   2  554.13   26.89
   7  -2  -2  593.88   38.40
  -7   2   2  581.95   27.25
   7   2  -2  586.38   30.02
  -6  -2   2   64.89   10.11
   6  -2  -2  144.84   21.30
  -6  -2   2   86.38   12.15
   6   2  -2   71.97   11.84
  -6   2   2   79.50   10.51
   5  -2  -2  584.83   35.95
   5  -2  -2  534.65   17.02
  -5  -2   2  597.28   26.10
  -5  -2   2  592.65   26.89
  -5   2   2  596.66   23.94
   5   2  -2  615.61   27.91
  -4  -2   2  697.11   28.25
   4  -2  -2  680.44   21.41
   4  -2  -2  744.81   39.30
  -4  -2   2  730.93   29.07
   4   2  -2  661.13   28.81
  -4   2   2  675.69   24.92
   3  -2  -2  922.87   28.30
   3  -2  -2  865.53   42.46
  -3  -2   2  931.47   33.42
  -3  -2   2  879.00   33.33
   3   2  -2  900.96   33.97
  -3   2   2  905.21   28.83
   2  -2  -2  160.64   18.49
  -2  -2   2  177.88   11.63
  -2  -2   2  155.01   11.16
   2  -2  -2  154.94    9.26
   2   2  -2  192.86   12.89
  -2   2   2  160.59    7.67
   1  -2  -2   32.07    5.19
  -1  -2   2   27.69    5.34
  -1  -2   2   34.99    6.06
   1  -2  -2   25.16    7.54
  -1  -2   2   22.99    5.69
  -1   2   2   30.67    2.61
   1   2  -2   23.24    5.83
   0  -2   2    4.75    3.10
   0  -2   2    4.07    2.88
   0  -2  -2    0.60    3.70
   0  -2  -2    2.40    3.20
   0  -2   2    4.08    3.82
   0   2   2    7.13    4.84
   0   2  -2    1.93    4.09
   1  -2   2    6.99    3.20
  -1  -2  -2    8.17    1.49
   1  -2   2   12.39    5.82
   1  -2   2    7.00    3.23
  -1  -2  -2    4.00    3.22
  -1  -2  -2    5.02    4.12
   1   2   2   10.19    4.85
   2  -2   2  176.99   10.17
   2  -2   2  131.16    9.89
  -2  -2  -2  170.50    8.03
   2  -2   2  165.80   19.53
  -2  -2  -2  142.27   11.10
   2   2   2  170.35   13.15
  -2   2  -2  142.18   10.04
  -3  -2  -2   32.77    5.03
   3  -2   2   24.26    4.85
  -3  -2  -2   13.89    4.78
   3  -2   2   27.38   10.87
   3  -2   2   25.26    5.54
  -3   2  -2   19.83    5.15
  -3   2  -2   31.07    5.52
   3   2   2   25.30    6.79
   4  -2   2   34.43    6.01
  -4  -2  -2   43.99    8.12
  -4  -2  -2   24.93    5.38
   4  -2   2   28.34   11.75
   4   2   2   34.64    8.42
  -4   2  -2   38.84    6.48
  -4   2  -2   21.98    5.95
  -5  -2  -2  709.62   30.45
  -5  -2  -2  682.70   28.03
   5  -2   2  743.39   43.26
  -5   2  -2  680.88   29.27
  -5   2  -2  738.62   27.02
   5   2   2  676.50   32.05
   6  -2   2  359.44   35.18
  -6  -2  -2  313.49   19.10
  -6  -2  -2  318.13   18.63
   6   2   2  341.34   22.28
  -6   2  -2  265.27   18.03
  -7  -2  -2  782.97   33.79
   7  -2   2  821.72   47.00
  -7  -2  -2  751.08   33.68
  -7   2  -2  756.04   34.41
   7   2   2  776.30   37.69
  -8  -2  -2 1560.16   55.72
  -8  -2  -2 1625.18   58.65
   8  -2   2 1489.82   71.05
   8   2   2 1555.39   61.77
  -8   2  -2 1592.16   58.49
  -9  -2  -2   35.73   10.61
  -9  -2  -2   18.40    6.62
   9  -2   2   15.85   11.84
   9   2   2   11.55    8.55
  -9   2  -2   17.60    8.02
  10  -2   2   10.09   11.20
 -10  -2  -2    5.01    6.55
 -10  -2  -2    8.60    6.10
  10   2   2   -2.38    7.38
 -10   2  -2   -1.51    5.29
 -11  -2  -2   -2.42    7.53
  11  -2   2    9.54   11.91
 -11  -2  -2   -0.87    5.45
 -11   2  -2   -1.41    6.24
  11   2   2   -0.23    8.48
  12  -2   2   33.96   16.33
 -12  -2  -2   37.64   13.36
  12   2   2   56.40   15.99
 -12   2  -2   22.13   10.60
  11  -3  -2  249.23   35.91
 -11  -3   2  263.56   29.60
 -11  -3   2  311.49   23.88
 -11   3   2  286.30   27.63
  11   3  -2  229.34   28.53
  10  -3  -2  920.78   57.14
 -10  -3   2  937.58   43.80
 -10  -3   2  912.68   46.39
 -10   3   2  972.80   43.22
  10   3  -2  992.30   49.26
  -9  -3   2   67.54   12.66
   9  -3  -2   72.59   18.87
  -9  -3   2   77.76   15.28
  -9   3   2   63.59   11.83
   9   3  -2   81.98   16.43
   8  -3  -2    9.27   10.70
  -8  -3   2   -1.33    4.86
  -8  -3   2    4.26    5.29
  -8   3   2    0.82    4.99
   8   3  -2    5.36    7.35
  -7  -3   2    4.21    5.16
  -7  -3   2   -5.56    4.54
   7  -3  -2   -6.76    8.29
   7   3  -2   -2.99    5.40
  -7   3   2    4.96    4.44
   6  -3  -2  739.06   45.12
  -6  -3   2  700.92   33.12
  -6  -3   2  702.52   33.53
   6   3  -2  678.86   34.69
  -6   3   2  721.70   29.34
   5  -3  -2   24.81   11.86
  -5  -3   2   32.72    8.53
  -5  -3   2   39.78    8.81
   5   3  -2   26.75    8.49
  -5   3   2   43.12    7.25
  -4  -3   2  649.28   29.30
   4  -3  -2  632.20   39.97
   4  -3  -2  641.75   23.88
  -4  -3   2  679.15   30.74
  -4   3   2  654.19   24.30
   4   3  -2  676.91   32.49
   3  -3  -2   96.79    9.58
  -3  -3   2   76.34   11.03
  -3  -3   2  101.88   11.84
   3  -3  -2   81.11   16.94
  -3   3   2   79.30    7.55
   3   3  -2   68.09   11.72
  -2  -3   2  488.90   22.09
  -2  -3   2  502.15   25.97
  -2  -3   2  438.49   23.03
   2  -3  -2  473.37   20.81
   2  -3  -2  458.97   30.46
   2   3  -2  494.27   26.29
  -2   3   2  439.99   17.66
   1  -3  -2   92.59   15.79
   1  -3  -2   91.54   10.39
  -1  -3   2   88.34   13.51
  -1  -3   2   88.43    9.88
  -1  -3   2   99.30   11.71
   1   3  -2  103.47   14.38
  -1   3   2  131.95   18.59
   0  -3  -2  555.12   25.56
   0  -3  -2  597.76   32.34
   0  -3   2  533.11   22.58
   0  -3   2  615.35   31.60
   0  -3   2  564.43   25.13
   0   3  -2  664.56   32.07
   0   3   2  567.06   31.58
   1  -3   2  302.85   22.59
  -1  -3  -2  262.13   20.40
   1  -3   2  263.87   15.52
  -1  -3  -2  302.25   17.90
   1  -3   2  269.35   14.69
  -1   3  -2  262.49   14.58
   1   3   2  299.19   21.66
  -1   3  -2  273.46   21.98
   2  -3   2    7.94    3.91
   2  -3   2   12.98    4.70
  -2  -3  -2    5.37    4.33
   2  -3   2    5.78    7.02
   2   3   2    7.87    6.19
  -2   3  -2    3.36    3.42
   3  -3   2  408.73   19.17
   3  -3   2  389.70   19.34
  -3  -3  -2  417.74   23.11
   3  -3   2  378.97   30.34
   3   3   2  391.50   24.86
  -3   3  -2  396.66   19.69
   4  -3   2   12.65    4.78
  -4  -3  -2   16.80    6.19
   4  -3   2   15.64   11.46
   4   3   2   10.56    6.76
  -4   3  -2   14.92    4.96
  -4   3  -2    8.59    4.82
  -5  -3  -2  984.93   41.17
   5  -3   2 1116.54   58.75
  -5   3  -2  926.87   37.56
   5   3   2  938.85   43.51
  -6  -3  -2  157.27   17.71
   6  -3   2  134.84   25.07
  -6   3  -2  175.57   17.20
   6   3   2  166.02   20.97
   7  -3   2    1.26    9.85
  -7  -3  -2   -0.14    4.36
  -7   3  -2   -1.15    4.68
   7   3   2    0.32    6.43
   8  -3   2  149.55   26.62
  -8  -3  -2  169.42   19.76
  -8   3  -2   96.19   14.29
   8   3   2  131.74   20.12
   9  -3   2   22.90   14.81
  -9  -3  -2   16.94    8.37
  -9   3  -2   26.65    8.94
   9   3   2   31.22   11.04
  10  -3   2 1038.08   63.27
 -10  -3  -2 1039.16   47.37
 -10   3  -2 1043.01   47.71
  10   3   2 1017.65   52.98
 -11  -3  -2  135.82   18.77
  11  -3   2   94.28   23.60
 -11   3  -2  125.27   19.53
  11   3   2  143.73   24.77
   9  -4  -2  123.13   25.21
  -9  -4   2   84.49   15.61
   9   4  -2   91.70   18.92
   8  -4  -2 1748.33   79.88
  -8  -4   2 1629.37   65.44
   8   4  -2 1591.33   68.63
   7  -4  -2  276.08   35.30
  -7  -4   2  300.48   23.84
   7   4  -2  270.11   27.84
   6  -4  -2   19.06   12.42
  -6  -4   2   29.92    9.53
   6   4  -2   31.95   10.80
   5  -4  -2  225.41   31.58
  -5  -4   2  234.83   22.91
   5   4  -2  251.31   25.85
   4  -4  -2  280.33   34.22
  -4  -4   2  281.46   21.13
   4   4  -2  342.59   25.27
   3  -4  -2  345.99   36.58
  -3  -4   2  322.43   22.03
   3   4  -2  333.03   25.02
  -2  -4   2   51.56   10.36
   2  -4  -2   68.54   10.37
   2  -4  -2   42.66   14.35
   2   4  -2   50.71   12.77
  -2   4   2   68.02   17.78
   1  -4  -2   14.35   10.02
   1  -4  -2   11.07    5.84
  -1  -4   2   12.70    5.91
  -1  -4   2   11.78    7.97
  -1   4   2   19.36   11.02
   1   4  -2    9.37    7.44
   0  -4   2    2.67    6.68
   0  -4  -2    3.79    7.75
   0  -4  -2    2.65    4.31
   0  -4   2    2.30    4.42
   0   4   2    0.72    6.73
   0   4  -2    5.68    7.44
  -1  -4  -2    4.09    7.54
   1  -4   2   -1.80    6.01
   1  -4   2    9.63    5.57
  -1  -4  -2    0.74    4.13
   1   4   2    2.11    6.77
  -1   4  -2  -11.87    4.86
   2  -4   2   54.90    9.61
   2  -4   2   70.64   17.88
  -2  -4  -2   56.74   11.31
  -2   4  -2   77.68   18.25
   2   4   2   63.73   14.55
   3  -4   2   15.01   11.09
  -3  -4  -2   12.34    7.00
   3   4   2    9.25    7.96
   4  -4   2   16.69   12.35
  -4  -4  -2   11.48    6.70
   4   4   2   19.73    9.78
  -5  -4  -2  279.29   22.16
   5  -4   2  302.61   37.91
   5   4   2  304.64   30.30
   6  -4   2  125.46   26.40
  -6  -4  -2  158.30   20.45
   6   4   2  197.42   25.16
  -7  -4  -2  416.70   28.91
   7   4   2  354.08   35.23
   8  -4   2  873.84   56.15
  -8  -4  -2  795.07   42.46
   8   4   2  715.65   44.42
  -9  -4  -2    3.83    7.60
   9  -4   2   -6.54    9.76
   9   4   2   14.10   10.90
   6  -5  -2  349.52   42.03
  -6  -5   2  265.03   27.79
   6   5  -2  236.43   28.74
   5  -5  -2   19.20   13.81
  -5  -5   2   10.29    7.90
   5   5  -2   25.99   11.99
  -4  -5   2  244.36   26.19
   4  -5  -2  227.43   33.33
   4   5  -2  223.41   28.05
  -4   5   2  273.01   38.80
  -3  -5   2   37.85   10.87
   3  -5  -2   25.47   14.20
   3   5  -2   27.13   11.49
  -3   5   2   42.20   17.81
  -2  -5   2  201.72   22.56
   2  -5  -2  209.94   31.70
  -2   5   2  206.81   32.59
   2   5  -2  190.94   26.75
  -1  -5   2   29.35   12.41
   1  -5  -2   44.35   16.70
  -1  -5   2   43.57   11.14
   1  -5  -2   30.54    9.66
  -1   5   2   40.57   17.12
   1   5  -2   43.79   14.09
   0  -5  -2  240.02   23.07
   0  -5   2  210.91   28.71
   0  -5  -2  222.92   31.41
   0   5  -2  202.06   28.68
   0   5   2  243.04   32.54
  -1  -5  -2  103.02   21.61
   1  -5   2   78.20   19.98
  -1  -5  -2  104.47   16.51
   1  -5   2  120.60   16.70
   1   5   2   97.62   21.49
  -1   5  -2  110.28   22.22
   2  -5   2   -2.06   10.45
  -2  -5  -2    1.92    5.86
  -2   5  -2    4.49   11.08
   2   5   2    2.98   10.06
  -3  -5  -2  186.51   23.00
   3  -5   2  108.47   23.52
   3   5   2  131.22   23.58
  -3   5  -2  104.26   24.46
  -4  -5  -2    8.59    7.66
   4  -5   2   10.33   12.59
   4   5   2   -0.21   10.75
  -4   5  -2   -2.51   12.04
  -5  -5  -2  444.30   31.24
   5  -5   2  354.86   45.28
   5   5   2  434.33   42.50
  -6  -5  -2   62.58   14.73
   6  -5   2  101.14   25.83
   6   5   2   81.30   19.42
 -13   0   3  270.21   29.61
  13   0  -3  259.86   33.13
  12   0  -3  174.32   25.30
 -12   0   3  171.78   22.22
 -11   0   3    9.05    7.02
  11   0  -3   12.49    9.59
  10   0  -3    0.87    6.64
 -10   0   3   -1.29    5.53
   9   0  -3   63.64   14.11
  -9   0   3   35.07   10.01
   8   0  -3  126.69   17.01
  -8   0   3  137.05    9.60
  -8   0   3   93.56   13.69
  -7   0   3   39.78    6.08
   7   0  -3   36.27    9.62
  -7   0   3   39.80    8.70
  -6   0   3  537.68   20.36
   6   0  -3  512.50   26.11
  -6   0   3  569.29   25.70
   5   0  -3 2111.47   66.06
  -5   0   3 2065.56   59.75
  -5   0   3 2149.52   64.83
   4   0  -3   30.86    5.09
   4   0  -3   26.05    5.89
  -4   0   3   26.89    5.64
  -4   0   3   27.79    4.63
   3   0  -3 1143.20   35.20
  -3   0   3 1108.61   36.55
  -3   0   3 1161.07   35.13
   3   0  -3 1143.01   36.26
   2   0  -3  563.06   21.02
  -2   0   3  576.61   21.02
  -2   0   3  576.86   20.88
   2   0  -3  564.95   19.32
  -1   0   3   58.89    6.26
   1   0  -3   67.72    4.66
   1   0  -3   74.52    8.92
   0   0   3   42.31    5.22
   0   0  -3   15.71    6.06
   1   0   3   76.85    7.03
   1   0   3   68.92    4.71
  -1   0  -3   63.75    6.68
  -1   0  -3   60.45    9.60
   2   0   3 1575.31   45.87
   2   0   3 1571.83   47.05
  -2   0  -3 1600.27   48.95
  -2   0  -3 1576.94   46.94
  -3   0  -3    1.94    2.64
  -3   0  -3    3.83    2.81
   3   0   3    1.03    2.94
  -4   0  -3  285.46   14.11
  -4   0  -3  307.28   15.99
   4   0   3  301.36   16.83
   5   0   3  333.93   19.56
  -5   0  -3  313.70   15.04
  -5   0  -3  345.01   18.48
   6   0   3 1046.49   42.03
  -6   0  -3 1050.88   34.92
  -6   0  -3 1065.83   40.65
   7   0   3  546.43   30.34
  -7   0  -3  624.48   23.52
  -7   0  -3  608.28   29.40
  -8   0  -3   64.88   11.73
  -8   0  -3   96.15    9.58
   8   0   3   77.56   14.76
  -9   0  -3   23.74    8.86
   9   0   3   21.68   10.08
  10   0   3    5.39    8.14
 -10   0  -3   -0.81    6.00
  11   0   3   15.02   10.54
 -11   0  -3    7.44    7.49
  12   0   3 1351.39   66.18
 -12   0  -3 1330.56   59.96
  13   0   3   90.96   21.70
 -13   0  -3   57.21   15.11
 -13  -1   3   19.26   10.63
  13  -1  -3   42.66   15.56
  13   1  -3   24.33   12.13
 -13   1   3   12.65    9.76
  12  -1  -3  120.31   23.97
 -12  -1   3   77.15   16.45
 -12   1   3  142.82   20.41
  12   1  -3   95.71   18.35
 -11  -1   3  283.88   28.60
  11  -1  -3  331.73   37.20
 -11   1   3  288.93   27.88
  11   1  -3  293.84   29.22
 -10  -1   3  558.94   26.89
 -10  -1   3  539.01   32.53
  10  -1  -3  619.54   40.18
  10   1  -3  585.34   33.70
 -10   1   3  608.21   32.39
  -9  -1   3   26.06    8.83
  -9  -1   3   59.49    9.37
   9  -1  -3   23.80   10.76
   9   1  -3   50.32   11.52
  -9   1   3   27.11    8.53
  -8  -1   3   84.94   10.59
  -8  -1   3   69.76   12.21
   8  -1  -3  118.74   19.32
  -8   1   3   59.58   10.72
   8   1  -3   75.45   12.85
  -7  -1   3  837.36   36.18
   7  -1  -3  845.13   41.96
  -7  -1   3  845.80   31.73
   7   1  -3  849.77   35.98
  -7   1   3  793.70   33.89
   6  -1  -3  657.65   21.03
  -6  -1   3  607.15   28.34
  -6  -1   3  651.82   25.55
   6  -1  -3  687.01   34.63
   6   1  -3  595.00   27.49
  -6   1   3  569.57   26.13
   5  -1  -3  168.60   18.38
  -5  -1   3  157.33   10.46
   5  -1  -3  128.46    8.02
  -5  -1   3  144.61   14.35
  -5   1   3  141.89   10.56
   5   1  -3  146.57   11.34
  -4  -1   3  267.00   13.69
   4  -1  -3  235.30   18.08
   4  -1  -3  263.53   11.82
  -4  -1   3  283.79   15.91
   4   1  -3  256.37   13.84
  -4   1   3  241.93   13.12
   3  -1  -3   21.53    4.17
   3  -1  -3   24.10    7.41
  -3  -1   3   17.68    5.00
  -3  -1   3   16.65    4.30
   3   1  -3   17.62    4.03
  -3   1   3   17.06    3.93
  -2  -1   3    2.10    2.59
  -2  -1   3    7.06    3.69
   2  -1  -3   -0.44    3.79
   2  -1  -3    4.80    2.95
  -2   1   3    7.74    2.41
   2   1  -3    5.59    2.58
  -1  -1   3  138.10    9.05
  -1  -1   3  154.60   10.10
   1  -1  -3  142.82   10.10
   1  -1  -3  146.28    9.22
  -1   1   3  142.52    6.66
   1   1  -3  131.28    7.32
   0  -1  -3    2.49    2.76
   0  -1   3    1.32    2.17
   0  -1   3    0.42    2.51
   0  -1  -3    3.10    2.55
   0  -1   3   14.33    3.92
   0   1   3    1.56    1.48
   0   1  -3   20.85    4.48
   0   1   3    0.90    2.57
   1  -1   3   29.63    6.38
   1  -1   3   27.58    5.13
   1  -1   3   33.25    5.57
  -1  -1  -3   26.09    5.21
  -1  -1  -3   26.24    3.31
  -1   1  -3   23.12    4.87
   1   1   3   32.98    5.45
   2  -1   3  155.43   16.63
  -2  -1  -3  148.13    8.07
  -2  -1  -3  136.01    9.84
   2  -1   3  128.81    9.59
   2   1   3  140.40    9.43
  -2   1  -3  137.03    9.77
  -2   1  -3  146.13   11.40
   3  -1   3 1459.46   46.63
  -3  -1  -3 1500.23   43.96
  -3  -1  -3 1403.58   46.04
   3  -1   3 1382.37   52.77
  -3   1  -3 1403.09   49.87
  -3   1  -3 1426.60   46.48
   3   1   3 1449.03   46.08
   4  -1   3   31.40    9.32
  -4  -1  -3   20.01    5.15
  -4  -1  -3   39.08    6.73
   4   1   3   16.03    5.83
  -4   1  -3   25.40    6.02
  -4   1  -3   26.09    6.51
  -5  -1  -3  267.11   15.98
  -5  -1  -3  290.01   16.05
   5  -1   3  334.49   22.75
   5   1   3  298.98   18.03
  -5   1  -3  303.01   17.66
  -5   1  -3  300.28   13.41
   6  -1   3  529.09   31.28
  -6  -1  -3  600.42   27.02
  -6  -1  -3  566.39   24.72
  -6   1  -3  582.11   19.91
  -6   1  -3  585.29   27.74
   6   1   3  513.27   27.23
  -7  -1  -3   24.50    6.48
   7  -1   3   70.15   14.50
  -7  -1  -3   49.90    9.61
  -7   1  -3   39.57    8.97
   7   1   3   73.74   13.37
  -8  -1  -3   60.88    9.51
  -8  -1  -3   52.45   10.85
   8  -1   3   23.65   10.50
   8   1   3   47.51   11.46
  -8   1  -3   42.83   10.36
  -9  -1  -3   26.39    9.30
   9  -1   3   22.22   10.88
  -9  -1  -3   20.38    6.43
   9   1   3   45.27   11.86
  -9   1  -3   22.19    8.10
 -10  -1  -3 1077.37   49.70
 -10  -1  -3 1143.75   42.63
  10  -1   3 1138.65   58.85
 -10   1  -3 1175.20   50.99
  10   1   3 1131.35   53.10
 -11  -1  -3  101.17   17.61
  11  -1   3   80.27   20.44
  11   1   3   48.54   14.33
 -11   1  -3  106.76   18.17
  12  -1   3    6.81   12.14
 -12  -1  -3   18.88   10.03
  12   1   3   11.48   10.21
 -12   1  -3   10.76    9.31
  13  -1   3   35.91   16.42
 -13  -1  -3   27.12   11.89
  13   1   3   23.43   13.58
 -13   1  -3   29.45   12.76
  12  -2  -3  182.17   30.63
 -12  -2   3  191.82   25.62
 -12   2   3  187.81   22.67
  12   2  -3  173.36   24.23
  11  -2  -3    1.15   10.79
 -11  -2   3    3.82    7.34
 -11  -2   3   -0.14    5.36
  11   2  -3   -4.16    6.68
 -11   2   3    8.39    7.45
 -10  -2   3   -5.21    5.49
  10  -2  -3   -2.06   10.08
 -10  -2   3    2.74    5.74
 -10   2   3    0.25    5.59
  10   2  -3    2.74    7.22
  -9  -2   3   29.87    9.40
   9  -2  -3   41.42   15.50
  -9  -2   3   34.88    8.41
  -9   2   3   21.53    7.76
   9   2  -3   26.77    9.71
  -8  -2   3   96.21   12.84
  -8  -2   3   71.63   13.03
   8  -2  -3   57.99   15.97
  -8   2   3   84.14   12.09
   8   2  -3   70.17   12.58
   7  -2  -3   13.11    9.75
  -7  -2   3   24.87    6.69
  -7  -2   3   42.58    9.60
  -7   2   3   28.34    7.23
   7   2  -3   36.14    8.87
  -6  -2   3  356.82   22.01
  -6  -2   3  396.44   21.25
   6  -2  -3  397.25   29.50
  -6   2   3  412.59   20.19
   6   2  -3  391.26   22.63
   5  -2  -3 1468.67   41.07
   5  -2  -3 1590.39   63.69
  -5  -2   3 1465.29   50.47
  -5  -2   3 1473.21   52.21
  -5   2   3 1515.56   47.77
   5   2  -3 1439.40   51.10
  -4  -2   3    8.84    5.04
   4  -2  -3   18.94    3.52
   4  -2  -3   26.69    9.93
  -4  -2   3   14.78    5.24
   4   2  -3   41.64    7.90
  -4   2   3   13.75    4.07
  -3  -2   3  663.30   28.23
  -3  -2   3  740.23   29.92
   3  -2  -3  762.55   37.59
   3  -2  -3  743.18   24.94
   3   2  -3  701.98   28.50
  -3   2   3  735.88   24.06
  -2  -2   3  347.41   17.46
   2  -2  -3  344.78   15.58
  -2  -2   3  350.19   18.18
   2  -2  -3  329.73   21.82
   2   2  -3  348.04   17.44
  -2   2   3  337.35   12.23
  -1  -2   3   41.44    6.92
   1  -2  -3   43.11    6.61
  -1  -2   3   47.06    7.40
  -1  -2   3   47.25    7.30
   1  -2  -3   52.60    9.68
   1   2  -3   29.76    6.14
   0  -2  -3   15.71    4.53
   0  -2   3   17.52    5.74
   0  -2   3   23.59    5.26
   0  -2   3   22.49    5.12
   0  -2  -3   35.04    7.86
   0   2   3   19.04    6.84
   0   2  -3   24.04    6.16
   1  -2   3   41.79    6.77
  -1  -2  -3   48.74    8.69
  -1  -2  -3   34.44    6.66
   1  -2   3   43.46    6.69
   1  -2   3   39.60    8.47
   1   2   3   39.49    8.24
   2  -2   3  957.64   34.24
  -2  -2  -3  975.82   27.90
  -2  -2  -3  947.56   35.34
   2  -2   3  916.98   32.66
   2  -2   3  911.09   41.69
  -2   2  -3  933.68   33.04
  -2   2  -3  930.63   33.86
   2   2   3  956.31   36.71
   3  -2   3    0.53    5.54
  -3  -2  -3    1.79    3.23
   3  -2   3   -0.72    3.32
   3  -2   3   -0.04    3.10
  -3  -2  -3    0.38    2.08
  -3   2  -3    1.95    3.30
   3   2   3    0.87    3.68
  -3   2  -3   -2.02    2.64
   4  -2   3  275.44   30.89
  -4  -2  -3  208.88   12.20
  -4  -2  -3  197.69   14.56
  -4   2  -3  189.79   13.73
   4   2   3  184.29   17.91
  -4   2  -3  215.62   14.98
  -5  -2  -3  224.55   16.10
   5  -2   3  243.54   30.41
  -5  -2  -3  224.32   14.48
   5   2   3  260.69   18.58
  -5   2  -3  227.32   16.27
  -5   2  -3  256.24   16.85
   6  -2   3  770.95   45.40
  -6  -2  -3  752.55   33.24
  -6  -2  -3  794.80   32.24
   6   2   3  730.78   35.65
  -6   2  -3  742.10   33.38
  -7  -2  -3  476.32   25.59
  -7  -2  -3  441.04   24.63
   7  -2   3  479.86   35.75
   7   2   3  449.46   27.83
  -7   2  -3  477.67   26.38
  -8  -2  -3   90.07   13.11
   8  -2   3   72.41   17.96
  -8  -2  -3   63.34   11.87
  -8   2  -3   62.24   12.09
   8   2   3   50.06   12.31
  -9  -2  -3   24.36    7.41
   9  -2   3    5.27   10.57
  -9  -2  -3   23.89    8.74
   9   2   3   27.04   10.01
  -9   2  -3   20.26    8.25
 -10  -2  -3   -2.90    4.87
 -10  -2  -3   -1.21    6.72
  10  -2   3    2.78    9.89
  10   2   3   -1.94    7.77
 -10   2  -3    3.31    6.51
 -11  -2  -3   22.24    8.44
 -11  -2  -3   10.30    9.28
  11  -2   3   22.25   14.24
 -11   2  -3   11.43    9.42
  11   2   3    6.28    9.86
 -12  -2  -3 1247.01   58.04
  12  -2   3 1126.53   67.19
  12   2   3 1061.16   57.63
 -12   2  -3 1189.50   55.21
 -11  -3   3  178.75   24.01
  11  -3  -3  184.91   30.17
 -11  -3   3  183.37   21.98
 -11   3   3  208.34   23.10
  11   3  -3  221.50   27.93
 -10  -3   3  343.09   25.08
  10  -3  -3  424.75   44.68
 -10  -3   3  323.46   26.61
  10   3  -3  356.13   27.89
 -10   3   3  358.79   24.36
   9  -3  -3   18.56   12.70
  -9  -3   3   30.67    9.68
  -9  -3   3   30.68   10.62
   9   3  -3   19.67   10.31
  -9   3   3   17.04    7.44
   8  -3  -3   68.53   18.10
  -8  -3   3   58.73   12.55
  -8  -3   3   38.35   10.11
   8   3  -3   64.93   13.51
  -8   3   3   41.58    9.40
  -7  -3   3  492.03   28.13
  -7  -3   3  530.67   29.95
   7  -3  -3  444.35   35.40
   7   3  -3  476.23   29.11
  -7   3   3  538.46   25.27
  -6  -3   3  337.93   22.24
   6  -3  -3  308.28   33.26
  -6  -3   3  328.14   22.38
  -6   3   3  364.14   18.73
   6   3  -3  316.06   22.21
  -5  -3   3   66.99   11.24
  -5  -3   3   76.39   12.28
   5  -3  -3   57.10   15.64
   5   3  -3   74.64   12.38
  -5   3   3   87.94    9.90
   4  -3  -3  117.29   20.17
  -4  -3   3  173.35   17.47
   4  -3  -3  161.84   10.15
  -4  -3   3  133.26   15.13
   4   3  -3  137.60   16.43
  -4   3   3  125.22   10.08
   3  -3  -3   10.62    4.15
  -3  -3   3    6.19    4.97
  -3  -3   3    8.55    5.37
   3  -3  -3    5.39    7.85
   3   3  -3   10.88    5.91
   2  -3  -3    2.20    6.05
  -2  -3   3   -0.35    3.12
  -2  -3   3    7.44    4.00
   2  -3  -3    5.57    3.81
   2   3  -3    7.41    4.95
  -1  -3   3   61.37    8.94
   1  -3  -3   58.07   12.58
  -1  -3   3   63.77    9.87
   1  -3  -3   71.78    9.92
  -1  -3   3   66.87   11.47
  -1   3   3   59.25   13.11
   1   3  -3   48.95    9.98
   0  -3   3    5.40    5.44
   0  -3  -3    3.73    5.58
   0  -3   3    0.50    3.16
   0  -3   3    1.98    3.56
   0  -3  -3    0.87    3.41
   0   3  -3   -1.65    3.87
   0   3   3   -1.39    4.83
   1  -3   3    7.47    6.34
  -1  -3  -3   16.72    7.16
   1  -3   3    8.86    4.31
   1  -3   3   14.66    5.08
  -1  -3  -3   13.86    5.57
   1   3   3    8.64    6.30
  -1   3  -3   14.77    4.92
  -1   3  -3   17.54    7.60
   2  -3   3   80.87   10.28
   2  -3   3   54.43   13.43
  -2  -3  -3   64.02   10.47
   2  -3   3   67.93    9.87
   2   3   3   74.06   13.28
  -2   3  -3   72.84    9.95
   3  -3   3  689.70   29.23
   3  -3   3  675.35   40.72
  -3  -3  -3  730.06   33.01
   3  -3   3  715.86   28.89
  -3   3  -3  696.63   29.49
   3   3   3  698.30   35.00
  -4  -3  -3   13.93    6.03
   4  -3   3    0.98    8.91
   4  -3   3   16.46    5.60
   4   3   3    9.89    6.90
  -4   3  -3   16.14    5.60
  -4   3  -3   17.26    6.09
  -5  -3  -3  184.34   19.81
   5  -3   3  159.07   26.02
   5   3   3  180.33   21.52
  -5   3  -3  172.08   16.92
  -6  -3  -3  318.25   22.55
   6  -3   3  404.39   42.96
  -6   3  -3  337.42   21.52
   6   3   3  382.12   26.40
  -7  -3  -3   30.15    9.02
   7  -3   3   29.84   14.82
  -7   3  -3   15.69    6.80
   7   3   3   10.19    7.74
   8  -3   3   33.88   15.58
  -8  -3  -3   35.14   10.08
  -8   3  -3   51.10   11.74
   8   3   3   20.35   10.03
   9  -3   3   27.66   14.71
  -9  -3  -3   15.36    8.15
  -9   3  -3   19.98    8.73
   9   3   3   21.71   10.74
 -10  -3  -3  763.71   39.38
  10  -3   3  675.73   50.26
 -10   3  -3  752.04   39.66
  10   3   3  686.86   42.84
  11  -3   3   32.80   16.64
 -11  -3  -3   71.29   14.57
 -11   3  -3   48.94   12.53
  11   3   3   78.13   19.07
  -9  -4   3   26.14    9.94
   9  -4  -3   18.12   13.50
   9   4  -3   23.06   12.17
  -8  -4   3   31.25   10.74
   8  -4  -3   35.36   14.90
   8   4  -3   44.68   12.95
   7  -4  -3    6.86   10.13
  -7  -4   3   18.85    8.88
   7   4  -3   10.53    8.35
   6  -4  -3  181.65   28.52
  -6  -4   3  143.06   19.25
   6   4  -3  175.63   21.17
  -5  -4   3  760.21   37.97
   5  -4  -3  803.12   49.00
   5   4  -3  673.96   37.20
   4  -4  -3    2.46   10.53
  -4  -4   3    5.82    5.74
   4   4  -3   17.23    8.71
  -3  -4   3  264.35   20.28
   3  -4  -3  345.27   35.80
   3  -4  -3  290.11   30.40
   3   4  -3  269.97   26.18
  -2  -4   3  152.66   17.85
   2  -4  -3   92.36   19.07
   2  -4  -3  115.52   13.41
  -2   4   3  161.68   25.89
   2   4  -3  121.13   17.79
   1  -4  -3   18.22    6.63
  -1  -4   3    7.40    7.30
  -1  -4   3    3.98    5.49
   1  -4  -3   21.88   11.68
  -1   4   3    9.21    9.35
   1   4  -3   11.85    7.85
   0  -4  -3   21.22   10.10
   0  -4   3    7.30    7.71
   0  -4  -3    8.12    5.36
   0  -4   3    4.21    5.14
   0   4   3   12.86    8.77
   0   4  -3    8.94    8.16
   1  -4   3   21.73    9.87
  -1  -4  -3   22.79    7.50
  -1  -4  -3   15.90    9.28
   1  -4   3   15.35    6.01
  -1   4  -3   42.53   12.65
   1   4   3   19.89    9.66
   2  -4   3  339.41   34.66
  -2  -4  -3  367.66   23.63
   2  -4   3  341.44   21.20
  -2   4  -3  370.95   36.09
   2   4   3  388.26   29.04
  -2   4  -3  334.02   26.66
   3  -4   3   -1.88    7.61
  -3  -4  -3    0.46    5.31
   3   4   3   -1.35    6.09
  -3   4  -3    0.89    3.98
  -4  -4  -3   98.05   15.44
   4  -4   3  111.80   24.10
   4   4   3   69.26   16.13
  -4   4  -3  106.55   13.62
  -5  -4  -3   85.72   15.29
   5  -4   3  111.33   24.34
   5   4   3  132.67   21.03
  -5   4  -3  145.75   16.07
   6  -4   3  258.34   36.61
  -6  -4  -3  313.45   25.05
   6   4   3  347.36   33.95
  -6   4  -3  338.57   22.64
   7  -4   3  219.09   33.07
  -7  -4  -3  251.18   26.38
   7   4   3  244.21   29.06
  -7   4  -3  224.30   21.99
  -8  -4  -3   43.88   13.60
   8  -4   3   41.60   17.93
   8   4   3   24.97   13.02
  -8   4  -3   38.33   11.18
  -9  -4  -3    2.43    7.56
   9  -4   3   21.07   15.09
   9   4   3    9.03   11.05
  -9   4  -3    9.18    8.83
   6  -5  -3  157.92   28.63
  -6  -5   3  169.51   22.86
   6   5  -3  120.51   20.75
   5  -5  -3   34.13   15.98
  -5  -5   3   33.94   11.12
   5   5  -3   35.02   13.19
   4  -5  -3   49.23   17.55
  -4  -5   3   56.70   12.81
   4   5  -3   50.17   14.77
  -4   5   3   45.59   19.72
  -3  -5   3   -1.48    6.06
   3  -5  -3    2.44   10.91
  -3   5   3   10.19   13.37
   3   5  -3    7.52   10.44
   2  -5  -3    5.79   11.62
  -2  -5   3    4.95    7.10
   2   5  -3    0.87    8.15
  -2   5   3   -5.31    9.87
   1  -5  -3   17.77    8.19
  -1  -5   3   16.86   11.55
  -1  -5   3   35.47   10.30
   1  -5  -3   29.65   13.91
  -1   5   3   20.14   13.14
   1   5  -3   23.39   11.95
   0  -5  -3    4.57   11.25
   0  -5   3    1.98    8.16
   0  -5   3    4.48    6.52
   0  -5  -3    1.44    6.04
   0   5  -3   12.39   11.54
   0   5   3   -3.37    9.24
  -1  -5  -3    4.59    6.02
  -1  -5  -3   -1.68    9.83
   1  -5   3    9.68   10.97
   1  -5   3    8.24    7.03
   1   5   3    5.05   10.76
  -1   5  -3    6.19   10.02
   2  -5   3   45.65   17.22
  -2  -5  -3   29.92   10.25
  -2   5  -3   29.21   15.13
   2   5   3   21.59   12.29
  -3  -5  -3  342.41   26.31
   3  -5   3  276.84   35.27
   3   5   3  259.01   32.69
  -3   5  -3  277.98   36.49
   4  -5   3    1.84   10.90
  -4  -5  -3    9.03    7.59
   4   5   3    0.61    9.04
  -4   5  -3    1.97   11.05
   5  -5   3   56.13   19.94
  -5  -5  -3   85.08   17.18
   5   5   3   86.10   19.44
  -6  -5  -3  140.32   21.97
   6  -5   3  135.51   28.94
   6   5   3  136.61   24.61
  13   0  -4   47.67   15.01
 -13   0   4   53.87   14.44
  12   0  -4  581.27   39.15
 -12   0   4  552.75   35.89
 -11   0   4   91.50   16.82
  11   0  -4   97.00   18.43
  10   0  -4    3.77    7.04
 -10   0   4   -3.23    4.87
  -9   0   4  190.56   20.32
   9   0  -4  257.12   25.86
  -8   0   4   29.15    5.87
  -8   0   4   23.53    7.84
   8   0  -4   34.83    6.65
   8   0  -4   37.36   10.66
  -7   0   4    8.76    5.66
  -7   0   4    3.01    3.16
   7   0  -4    3.31    5.18
   7   0  -4    2.16    3.02
   6   0  -4   17.46    6.25
  -6   0   4   14.62    4.38
   6   0  -4   13.92    4.31
  -6   0   4   18.61    5.80
   5   0  -4  296.63   14.90
   5   0  -4  335.43   18.22
  -5   0   4  297.77   14.70
  -5   0   4  294.69   16.85
   4   0  -4    5.19    3.38
   4   0  -4    3.51    3.53
  -4   0   4    2.29    3.10
  -4   0   4    3.53    2.92
  -3   0   4    9.83    3.87
  -3   0   4   13.66    4.17
   3   0  -4   14.58    4.09
   3   0  -4   11.93    4.28
   2   0  -4 2027.93   61.84
   2   0  -4 2083.45   56.70
  -2   0   4 2076.58   60.12
  -2   0   4 1980.83   61.09
   1   0  -4 2171.09   66.26
  -1   0   4 2157.64   61.79
   1   0  -4 2099.71   56.66
   0   0   4 3935.10  106.60
  -1   0  -4 4120.96  123.34
   1   0   4 4406.11  115.83
   1   0   4 4349.70  111.16
  -2   0  -4   11.65    5.49
   3   0   4   36.06    6.23
  -3   0  -4   35.64    7.14
   3   0   4   38.53    6.81
  -3   0  -4   42.36    6.91
   4   0   4 1044.56   37.21
  -4   0  -4 1064.19   36.45
  -4   0  -4  969.42   36.76
  -5   0  -4  234.14   13.61
  -5   0  -4  227.73   15.35
   5   0   4  219.09   15.61
  -6   0  -4  395.74   22.53
   6   0   4  422.21   24.08
  -6   0  -4  453.56   20.10
   7   0   4  261.19   19.94
  -7   0  -4  253.11   18.69
  -7   0  -4  218.24   13.77
  -8   0  -4    0.46    5.22
   8   0   4   17.80    8.57
  -8   0  -4   10.68    4.32
   9   0   4   19.44    9.40
  -9   0  -4   24.50    9.20
 -10   0  -4   65.20   13.62
  10   0   4   66.88   15.96
 -11   0  -4  382.02   28.52
  11   0   4  431.09   33.90
  12   0   4   78.35   19.58
 -12   0  -4   82.46   16.59
  13   0   4   59.55   18.08
 -13   0  -4   31.92   12.54
 -13  -1   4   38.11   13.21
  13  -1  -4   65.76   19.14
  13   1  -4   39.02   14.02
 -13   1   4   45.01   13.52
 -12  -1   4  113.50   19.54
  12  -1  -4   77.46   19.86
  12   1  -4   80.34   16.86
 -12   1   4  115.14   18.56
  11  -1  -4   -2.31    7.56
 -11  -1   4   -2.29    6.06
 -11   1   4    6.32    7.20
  11   1  -4   -5.86    6.76
 -10  -1   4  197.53   15.32
  10  -1  -4  183.98   26.32
 -10  -1   4  169.00   21.32
 -10   1   4  178.39   20.68
  10   1  -4  179.36   21.73
   9  -1  -4    5.63    8.07
  -9  -1   4   12.91    7.23
  -9  -1   4   12.34    5.53
   9   1  -4    6.20    5.88
  -9   1   4    4.60    6.33
  -8  -1   4  191.13   13.70
  -8  -1   4  144.43   17.83
   8  -1  -4  166.63   22.17
   8   1  -4  137.97   16.74
  -8   1   4  141.57   16.34
  -7  -1   4 1110.73   38.63
  -7  -1   4 1025.70   42.45
   7  -1  -4  977.93   46.53
   7   1  -4 1020.08   41.20
  -7   1   4 1060.59   40.68
  -6  -1   4    0.91    3.80
   6  -1  -4    3.73    5.88
   6  -1  -4    1.32    3.51
  -6  -1   4    1.13    2.94
   6   1  -4    7.35    4.80
  -6   1   4   -0.65    3.23
  -5  -1   4  111.78   11.17
  -5  -1   4  122.80   13.38
   5  -1  -4  110.95   15.26
   5  -1  -4  113.41   10.55
  -5   1   4  102.93   11.18
   5   1  -4  125.81   12.55
   4  -1  -4  538.04   28.60
  -4  -1   4  625.14   27.00
  -4  -1   4  624.75   24.55
   4  -1  -4  601.17   23.64
  -4   1   4  616.91   23.86
  -3  -1   4 4122.63  114.66
   3  -1  -4 4149.04  114.12
   3  -1  -4 4215.81  121.51
  -3  -1   4 4180.20  117.30
  -3   1   4 4173.08  112.27
   3   1  -4 4217.80  111.87
  -2  -1   4  177.00   12.38
   2  -1  -4  175.80   11.74
   2  -1  -4  206.55   13.96
  -2  -1   4  204.40   11.96
   2   1  -4  170.66    8.82
  -2   1   4  183.25    9.58
   1  -1  -4   74.52    8.16
   1  -1  -4   71.35    9.04
  -1  -1   4   96.71    9.86
  -1  -1   4   58.20    8.16
   1   1  -4   74.56    5.12
  -1   1   4   68.07    5.54
   1   1  -4   79.83    9.31
   0  -1   4   56.57    5.57
   0  -1   4   54.62    7.82
   0  -1   4   64.68    8.46
   0  -1  -4   50.30    7.71
   0  -1  -4   71.70    7.40
   0   1   4   68.65    7.58
   0   1   4   67.52    5.28
   0   1  -4   70.92    8.73
   1  -1   4  311.24   16.11
   1  -1   4  312.55   16.50
  -1  -1  -4  354.52   13.22
   1  -1   4  320.20   16.89
  -1  -1  -4  304.91   16.66
  -1   1  -4  313.99   16.98
   1   1   4  329.48   14.84
   1   1   4  332.29   12.98
  -2  -1  -4 3153.21   84.47
  -2  -1  -4 3080.99   89.34
   2  -1   4 3052.33   94.73
   2  -1   4 3124.47   88.80
  -2   1  -4 3055.27   92.90
  -2   1  -4 3132.70   89.08
   2   1   4 3070.30   86.40
  -3  -1  -4 2605.16   77.14
  -3  -1  -4 2598.29   73.74
   3  -1   4 2598.73   77.30
   3  -1   4 2600.08   83.82
   3   1   4 2597.24   75.74
  -3   1  -4 2530.84   76.85
  -3   1  -4 2597.94   83.49
  -4  -1  -4    7.26    3.99
   4  -1   4    2.44    3.42
   4  -1   4   16.41    7.35
  -4  -1  -4    5.95    4.10
  -4   1  -4    2.93    4.87
   4   1   4    4.51    4.09
  -4   1  -4   -1.47    3.06
  -5  -1  -4    9.46    4.94
  -5  -1  -4    8.45    4.26
   5  -1   4   16.75    7.44
  -5   1  -4   15.72    5.81
   5   1   4    9.25    5.24
  -5   1  -4   11.72    4.49
   6  -1   4  570.38   32.97
  -6  -1  -4  568.48   26.25
  -6  -1  -4  600.20   27.86
   6   1   4  648.11   30.30
  -6   1  -4  618.04   23.30
  -6   1  -4  597.57   29.10
   7  -1   4  354.30   27.08
  -7  -1  -4  338.91   19.34
  -7  -1  -4  335.29   21.56
  -7   1  -4  343.75   22.61
   7   1   4  335.64   22.66
  -8  -1  -4  156.49   18.44
  -8  -1  -4  158.63   15.64
   8  -1   4  127.13   20.61
  -8   1  -4  172.22   19.81
   8   1   4  159.80   20.27
  -9  -1  -4   -5.64    5.04
   9  -1   4   -7.13    6.94
  -9  -1  -4   -1.27    4.09
  -9   1  -4    4.58    6.23
   9   1   4    0.25    6.53
 -10  -1  -4   56.27   12.83
  10  -1   4   65.59   17.45
 -10  -1  -4   71.21   11.31
 -10   1  -4   47.95   12.46
  10   1   4   78.73   16.65
 -11  -1  -4   38.55   12.92
  11  -1   4   28.84   14.02
  11   1   4   68.14   16.94
 -11   1  -4   42.53   11.96
 -12  -1  -4  110.60   19.68
  12  -1   4  100.14   23.46
  12   1   4  134.89   22.79
 -12   1  -4   90.15   18.65
 -12  -2   4  448.41   32.72
  12  -2  -4  451.68   47.27
 -12   2   4  458.45   30.62
  12   2  -4  413.28   31.67
  11  -2  -4   67.44   19.65
 -11  -2   4   80.56   13.61
 -11  -2   4   81.17   16.26
  11   2  -4   76.18   15.64
 -11   2   4   59.60   12.80
 -10  -2   4    2.07    5.42
  10  -2  -4    8.87   10.29
 -10  -2   4    5.40    6.51
  10   2  -4   -0.57    6.97
 -10   2   4    8.68    6.83
   9  -2  -4  117.04   22.08
  -9  -2   4  165.51   20.60
  -9  -2   4  150.90   16.86
  -9   2   4  130.98   16.35
   9   2  -4  158.85   19.37
  -8  -2   4   23.60    8.73
  -8  -2   4   42.42    9.26
   8  -2  -4   21.88   11.31
   8   2  -4   22.26    7.87
  -8   2   4   33.09    8.56
  -7  -2   4    2.32    5.74
   7  -2  -4    2.28    7.76
  -7  -2   4    3.55    4.59
  -7   2   4    4.91    4.40
   7   2  -4   -3.63    4.81
  -6  -2   4   12.95    6.51
   6  -2  -4   11.38    8.20
  -6  -2   4   17.72    6.17
  -6   2   4   12.29    5.02
   6   2  -4    7.03    5.70
  -5  -2   4  215.88   16.55
   5  -2  -4  212.47   10.47
   5  -2  -4  176.04   22.16
  -5  -2   4  206.72   14.82
   5   2  -4  216.17   14.87
  -5   2   4  204.79   12.76
   4  -2  -4    3.67    5.89
   4  -2  -4    4.53    2.90
  -4  -2   4    6.08    4.42
  -4  -2   4   -1.60    3.08
   4   2  -4    3.84    3.78
  -4   2   4   -0.40    2.20
   3  -2  -4   13.69    4.14
  -3  -2   4    8.29    4.92
  -3  -2   4    9.94    4.28
   3  -2  -4   14.49    6.92
   3   2  -4    7.06    4.08
  -3   2   4   13.04    3.23
  -2  -2   4 1461.85   47.80
   2  -2  -4 1400.48   45.01
   2  -2  -4 1390.78   52.15
  -2  -2   4 1387.22   48.05
  -2   2   4 1387.02   39.21
   2   2  -4 1353.51   44.86
  -1  -2   4 1397.01   47.28
   1  -2  -4 1401.68   45.82
   1  -2  -4 1394.73   49.23
  -1  -2   4 1329.08   44.28
  -1  -2   4 1413.77   46.35
   1   2  -4 1350.36   44.63
   0  -2  -4 2645.04   78.87
   0  -2   4 2636.92   78.22
   0  -2   4 2677.06   78.87
   0  -2  -4 2612.64   80.85
   0  -2   4 2574.40   77.89
   0   2  -4 2703.82   78.67
   0   2   4 2662.49   81.29
  -1  -2  -4 2831.94   83.33
   1  -2   4 2702.31   81.18
  -1  -2  -4 2741.22   82.45
   1  -2   4 2777.83   84.29
   1  -2   4 2802.52   81.13
   1   2   4 2740.57   83.36
  -1   2  -4 2713.36   81.05
  -2  -2  -4    1.03    3.60
   2  -2   4    3.94    3.49
   2  -2   4   10.86    4.30
  -2  -2  -4    7.71    2.34
   2  -2   4   10.37    6.42
  -2   2  -4    4.22    3.92
   2   2   4    6.36    4.64
  -2   2  -4    6.59    3.87
   3  -2   4   19.50    5.64
  -3  -2  -4   31.55    5.05
  -3  -2  -4   19.40    6.35
   3  -2   4   25.80    6.52
   3  -2   4   25.20    9.88
  -3   2  -4   19.37    5.64
   3   2   4   19.08    6.48
  -3   2  -4   20.60    6.15
  -4  -2  -4  694.44   26.22
   4  -2   4  645.07   29.61
   4  -2   4  678.25   40.99
  -4  -2  -4  710.06   31.15
  -4   2  -4  695.49   30.31
   4   2   4  736.14   32.25
  -4   2  -4  720.93   32.82
  -5  -2  -4  182.15   14.86
   5  -2   4  169.43   25.14
  -5  -2  -4  191.93   13.11
  -5   2  -4  170.25   18.22
  -5   2  -4  152.74   16.49
   5   2   4  173.28   18.80
  -6  -2  -4  293.64   19.78
  -6  -2  -4  294.19   18.50
   6  -2   4  342.01   35.88
   6   2   4  302.98   21.82
  -6   2  -4  333.02   20.83
  -7  -2  -4  192.49   18.86
   7  -2   4  169.13   26.58
  -7  -2  -4  171.69   17.89
  -7   2  -4  154.82   18.09
   7   2   4  195.18   21.67
  -8  -2  -4   -0.72    5.05
  -8  -2  -4    1.36    4.89
   8  -2   4    0.11    8.84
  -8   2  -4   13.48    7.04
   8   2   4    7.33    7.01
   9  -2   4   11.22   12.04
  -9  -2  -4   20.60    7.64
  -9  -2  -4   30.78    9.45
   9   2   4   13.06    8.66
  -9   2  -4   18.13    9.43
 -10  -2  -4   44.75   12.74
 -10  -2  -4   59.34   11.79
  10  -2   4   85.06   21.57
 -10   2  -4   74.47   15.63
  10   2   4   51.38   13.69
 -11  -2  -4  310.38   30.65
  11  -2   4  239.86   34.95
 -11  -2  -4  349.90   23.91
 -11   2  -4  339.88   32.64
  11   2   4  384.98   37.61
 -12  -2  -4   74.73   17.04
  12  -2   4   58.43   21.02
 -12   2  -4   51.91   14.14
  12   2   4  109.95   22.48
 -11  -3   4   11.03    8.16
 -11  -3   4   13.65    9.70
  11  -3  -4    9.75   11.10
  11   3  -4   11.00    9.18
 -11   3   4   11.07   11.48
  10  -3  -4   92.76   20.78
 -10  -3   4  114.27   17.55
 -10  -3   4  121.02   19.96
  10   3  -4  105.30   18.60
 -10   3   4  106.92   16.26
   9  -3  -4   13.67   11.21
  -9  -3   4   16.74    9.07
  -9  -3   4    1.73    6.14
  -9   3   4    6.59    6.10
   9   3  -4   10.04    8.11
  -8  -3   4   87.38   14.26
   8  -3  -4  118.07   22.47
  -8  -3   4   77.48   14.21
  -8   3   4   99.86   13.72
   8   3  -4   71.61   14.02
   7  -3  -4  580.41   39.30
  -7  -3   4  543.21   30.17
  -7  -3   4  606.37   33.16
   7   3  -4  585.62   31.83
  -7   3   4  597.94   29.12
  -6  -3   4   -0.83    4.12
  -6  -3   4    1.77    5.28
   6  -3  -4    4.12    8.35
   6   3  -4   -0.38    5.01
  -5  -3   4   55.90   10.74
   5  -3  -4   55.04   14.92
  -5  -3   4   72.41   12.64
   5   3  -4   40.89    9.28
  -4  -3   4  304.24   19.89
  -4  -3   4  298.88   19.86
   4  -3  -4  305.47   15.66
   4  -3  -4  358.35   27.91
   4   3  -4  279.94   19.06
   3  -3  -4 2248.83   67.24
  -3  -3   4 2191.17   72.13
   3  -3  -4 2274.55   83.10
  -3  -3   4 2166.41   72.27
   3   3  -4 2248.28   72.53
   2  -3  -4   83.22   15.07
  -2  -3   4   95.02   12.50
   2  -3  -4  104.71   11.47
  -2  -3   4  108.04   13.27
   2   3  -4  110.33   13.66
   1  -3  -4   33.64    7.27
  -1  -3   4   42.35    8.30
   1  -3  -4   39.91   10.65
  -1  -3   4   37.57    8.25
  -1  -3   4   56.80   10.36
  -1   3   4   33.77   10.39
   1   3  -4   38.62    8.63
   0  -3  -4   45.80   11.01
   0  -3   4   25.36    6.87
   0  -3   4   20.51    6.07
   0  -3   4   29.13    8.74
   0  -3  -4   34.11    7.65
   0   3  -4   24.23    7.65
   0   3   4   34.95   10.20
  -1  -3  -4  154.81   18.11
   1  -3   4  160.26   12.76
   1  -3   4  125.45   16.39
  -1  -3  -4  158.67   16.44
   1  -3   4  159.48   15.41
  -1   3  -4  113.19   16.20
   1   3   4  156.84   18.62
   2  -3   4 1745.02   55.88
   2  -3   4 1672.44   55.94
  -2  -3  -4 1659.50   58.57
   2  -3   4 1508.97   62.83
   2   3   4 1606.47   61.33
  -2   3  -4 1631.92   55.27
   3  -3   4 1308.27   59.23
  -3  -3  -4 1356.32   51.11
   3  -3   4 1368.93   48.37
   3  -3   4 1270.97   46.61
   3   3   4 1289.46   52.99
  -3   3  -4 1355.92   47.89
  -3   3  -4 1365.81   47.66
   4  -3   4   -0.11    8.84
   4  -3   4    7.29    5.28
  -4  -3  -4   -2.05    3.61
   4  -3   4    4.55    4.99
  -4   3  -4   -0.18    4.06
   4   3   4   -2.16    5.67
  -4   3  -4    6.45    5.27
   5  -3   4  -11.34    8.40
  -5  -3  -4    9.52    6.09
  -5   3  -4   11.15    6.36
   5   3   4   10.05    7.53
  -6  -3  -4  360.94   24.94
   6  -3   4  365.71   40.53
   6   3   4  344.12   25.99
  -6   3  -4  431.09   24.72
  -7  -3  -4  197.38   21.98
   7  -3   4  258.30   34.25
   7   3   4  232.15   26.00
  -7   3  -4  195.45   20.72
   8  -3   4   86.20   21.83
  -8  -3  -4  118.34   18.04
  -8   3  -4   84.63   14.48
   8   3   4   66.82   15.34
   9  -3   4    4.54   11.93
  -9  -3  -4   -4.62    5.05
   9   3   4   -0.78    6.83
  -9   3  -4   -2.71    5.61
  10  -3   4   40.55   16.43
 -10  -3  -4   39.80   12.00
  10   3   4   43.58   14.31
 -10   3  -4   60.76   14.03
  11  -3   4   37.26   17.47
 -11  -3  -4   29.85   11.10
 -11   3  -4   20.84    9.81
  11   3   4   25.23   13.79
   9  -4  -4   60.13   17.68
  -9  -4   4   60.24   14.54
   9   4  -4  102.73   19.08
  -8  -4   4   11.18    7.72
   8  -4  -4   11.50   11.26
   8   4  -4   10.69    9.67
  -7  -4   4    2.12    6.63
   7  -4  -4   -2.56    9.91
   7   4  -4   -0.77    6.39
  -6  -4   4    9.93    6.95
   6  -4  -4    5.66    9.37
   6   4  -4    3.02    7.64
  -5  -4   4  102.11   16.04
   5  -4  -4   94.33   20.07
   5   4  -4   76.17   14.27
   4  -4  -4   -3.08    7.71
  -4  -4   4   -4.76    4.95
  -4  -4   4   -2.25    4.69
   4   4  -4    7.70    6.87
   3  -4  -4    4.04    9.22
  -3  -4   4   10.41    6.19
  -3  -4   4    4.81    5.65
   3  -4  -4    6.86    5.68
   3   4  -4   10.04    7.50
  -3   4   4   -5.97    8.23
   2  -4  -4  525.80   36.76
  -2  -4   4  637.72   31.96
  -2  -4   4  582.20   27.99
   2  -4  -4  587.51   28.06
   2   4  -4  513.31   31.24
  -2   4   4  534.69   38.22
  -1  -4   4  587.01   27.67
   1  -4  -4  511.02   35.60
  -1  -4   4  551.55   29.57
  -1  -4   4  590.83   33.36
   1  -4  -4  584.08   29.21
   1   4  -4  629.42   34.06
  -1   4   4  539.31   36.90
   0  -4  -4 1114.83   53.78
   0  -4   4 1154.84   46.23
   0  -4   4 1116.18   50.99
   0  -4   4 1183.40   43.14
   0  -4  -4 1140.70   46.48
   0   4  -4 1140.62   51.24
   0   4   4 1109.25   54.23
  -1  -4  -4 1189.64   55.34
   1  -4   4 1172.10   54.05
   1  -4   4 1194.91   44.92
  -1  -4  -4 1217.93   49.32
  -1   4  -4 1147.07   53.37
   1   4   4 1221.17   56.16
  -1   4  -4 1263.65   45.92
  -2  -4  -4    0.89    4.99
   2  -4   4    5.67    5.63
   2  -4   4    1.77    7.78
   2  -4   4   -1.59    4.17
  -2   4  -4    1.91    4.40
   2   4   4    0.10    7.06
  -2   4  -4   -9.06    7.86
   3  -4   4   23.12    7.31
  -3  -4  -4   25.70    9.03
   3  -4   4   -4.57    6.82
   3   4   4    7.95    8.07
  -3   4  -4   18.08   10.15
  -3   4  -4    1.56    4.85
   4  -4   4  294.08   34.75
  -4  -4  -4  350.59   25.13
   4   4   4  334.20   32.89
  -4   4  -4  318.20   21.29
  -5  -4  -4   73.96   15.00
   5  -4   4   90.20   21.38
  -5   4  -4   75.61   13.10
   5   4   4   60.71   15.04
  -6  -4  -4  132.93   19.20
   6  -4   4  113.46   25.77
   6   4   4  134.30   21.45
  -6   4  -4  143.45   17.71
   7  -4   4   83.07   21.86
  -7  -4  -4  115.57   18.89
  -7   4  -4   73.74   13.49
   7   4   4  108.36   20.23
   8  -4   4    9.64   11.82
  -8  -4  -4    7.63    8.34
   8   4   4   -4.25    8.86
  -8   4  -4    3.14    7.84
   9  -4   4   23.58   16.08
  -9  -4  -4   15.63   10.06
  -9   4  -4   14.11    9.28
   9   4   4    3.30   10.09
   6  -5  -4   -6.25   10.16
  -6  -5   4   -0.76    6.31
   6   5  -4    8.90    8.85
   5  -5  -4   25.16   14.70
  -5  -5   4   17.01    9.20
  -5   5   4   20.95   15.15
   5   5  -4   16.99   10.78
  -4  -5   4  124.32   19.18
   4  -5  -4  142.90   25.88
   4   5  -4  161.03   22.53
  -4   5   4  123.54   26.27
   3  -5  -4  902.28   55.17
  -3  -5   4  808.90   42.90
  -3   5   4  950.54   57.82
   3   5  -4  907.96   47.62
  -2  -5   4   39.86   12.00
   2  -5  -4   42.17   15.81
   2   5  -4   36.07   12.61
  -2   5   4   27.86   15.27
  -1  -5   4    8.03    7.21
  -1  -5   4   44.33   13.36
   1  -5  -4   29.77    9.44
   1  -5  -4   22.30   12.70
   1   5  -4   34.80   12.91
  -1   5   4    3.86   10.94
   0  -5   4   15.40    9.71
   0  -5   4    4.58    6.26
   0  -5  -4   32.25    9.84
   0  -5  -4   14.43   12.31
   0   5   4   14.76   12.60
   0   5  -4   12.31    9.73
   1  -5   4   42.00   10.99
   1  -5   4   51.23   15.43
  -1  -5  -4   62.99   13.50
   1   5   4   37.52   15.36
  -1   5  -4   52.75   15.07
   2  -5   4  632.47   43.70
  -2  -5  -4  647.37   37.05
   2   5   4  704.80   45.33
  -2   5  -4  686.00   44.55
   3  -5   4  516.80   40.31
  -3  -5  -4  522.96   33.13
   3   5   4  453.08   36.78
  -3   5  -4  447.18   44.61
  -4  -5  -4    5.51    7.26
   4  -5   4    5.34   11.89
  -4   5  -4    7.28   12.88
   4   5   4   -2.21    9.06
   5  -5   4    5.02   13.30
  -5  -5  -4    3.48    6.80
   5   5   4   22.45   12.40
 -13   0   5  108.92   19.22
  13   0  -5  111.33   21.84
 -12   0   5  235.78   25.98
  12   0  -5  202.48   26.82
  11   0  -5   36.95   11.70
 -11   0   5   70.64   14.55
 -10   0   5    9.70    6.68
  10   0  -5   16.25    9.46
  -9   0   5  103.86   15.23
   9   0  -5  121.70   17.54
  -8   0   5    5.60    5.24
   8   0  -5    6.61    4.72
  -8   0   5   11.27    4.70
   8   0  -5    8.19    6.70
   7   0  -5   11.61    5.01
   7   0  -5   20.34    7.19
  -7   0   5   10.81    5.93
  -7   0   5   21.07    5.50
  -6   0   5  779.53   29.63
   6   0  -5  751.57   32.70
   6   0  -5  757.80   29.72
  -6   0   5  765.90   32.84
   5   0  -5   90.72   11.16
  -5   0   5   79.60    9.55
  -5   0   5   79.61   10.58
   5   0  -5   69.79    9.19
  -4   0   5 1088.52   37.71
   4   0  -5 1023.97   35.76
   4   0  -5 1009.99   36.82
  -4   0   5  985.71   36.06
  -3   0   5    1.54    3.46
   3   0  -5    5.54    3.06
  -3   0   5    2.70    3.83
   3   0  -5    3.61    4.58
   2   0  -5  211.85   10.27
  -2   0   5  198.98   12.37
   2   0  -5  179.65   13.96
   1   0  -5 2561.41   66.69
   1   0  -5 2557.05   80.37
  -1   0   5 2616.98   74.75
   0   0   5  139.01   10.36
   0   0  -5  146.85   17.17
  -1   0  -5  508.13   28.58
   1   0   5  579.70   23.12
   1   0   5  557.37   17.93
  -2   0  -5  162.01   18.06
  -2   0  -5  156.13   11.45
   2   0   5  164.85    9.50
   2   0   5  142.24   10.95
  -3   0  -5  868.52   35.98
   3   0   5  835.41   32.61
  -3   0  -5  830.54   32.62
   3   0   5  913.99   31.14
  -4   0  -5 2014.83   62.95
   4   0   5 1938.13   60.78
  -4   0  -5 1842.20   61.65
   5   0   5   10.98    5.01
  -5   0  -5    5.67    4.60
  -5   0  -5   21.94    6.05
  -6   0  -5  595.03   26.41
   6   0   5  643.94   30.79
  -6   0  -5  639.72   30.45
   7   0   5   65.07   13.24
  -7   0  -5   57.14    8.79
  -7   0  -5   52.11   11.16
   8   0   5  297.15   23.43
  -8   0  -5  312.97   17.83
  -8   0  -5  304.88   22.90
   9   0   5 1025.15   49.51
  -9   0  -5 1060.88   47.57
  10   0   5   38.05   13.80
 -10   0  -5   62.01   14.15
 -11   0  -5    5.04    7.94
  11   0   5    5.00    9.04
 -12   0  -5   38.86   12.56
  12   0   5   47.68   15.77
 -13  -1   5   22.66   10.65
  13  -1  -5   37.71   15.50
  13   1  -5   20.28   12.12
 -13   1   5    8.60    8.04
  12  -1  -5    5.64    9.73
 -12  -1   5   15.98    9.97
 -12   1   5   -0.49    6.11
  12   1  -5    5.06    7.67
  11  -1  -5   27.16   12.19
 -11  -1   5   11.16    8.59
 -11   1   5    7.78    8.28
  11   1  -5   13.99    9.17
 -10  -1   5    7.99    5.35
 -10  -1   5   -4.93    5.70
  10  -1  -5   -3.69    7.84
 -10   1   5   -0.56    5.39
  10   1  -5    1.60    6.26
  -9  -1   5   11.29    7.11
   9  -1  -5   11.13    8.13
  -9  -1   5    8.08    5.06
  -9   1   5    4.73    6.53
   9   1  -5    4.58    6.15
  -8  -1   5  614.96   31.69
  -8  -1   5  528.30   25.80
   8  -1  -5  605.96   35.82
  -8   1   5  551.89   28.62
   8   1  -5  562.29   29.14
   7  -1  -5   -2.64    5.47
  -7  -1   5    6.41    5.49
  -7  -1   5    1.38    3.58
   7   1  -5   -0.45    4.84
  -7   1   5    7.82    5.13
   6  -1  -5   79.20   14.03
  -6  -1   5  121.76   14.97
   6  -1  -5  147.09   13.52
  -6  -1   5  144.54   11.58
  -6   1   5  140.22   14.00
   6   1  -5  137.22   13.73
  -5  -1   5  237.29   16.92
   5  -1  -5  226.00   14.97
  -5  -1   5  264.43   15.37
   5  -1  -5  249.05   19.19
  -5   1   5  232.04   14.37
   5   1  -5  253.10   14.58
   4  -1  -5  323.76   20.72
  -4  -1   5  310.01   18.95
   4  -1  -5  351.04   18.37
  -4  -1   5  313.44   17.17
   4   1  -5  332.00   15.55
  -4   1   5  320.66   16.28
  -3  -1   5  757.03   31.65
   3  -1  -5  717.84   30.42
  -3  -1   5  838.51   30.97
   3  -1  -5  814.08   33.36
   3   1  -5  804.51   31.00
  -3   1   5  789.14   28.04
   3   1  -5  763.61   25.86
   2  -1  -5 2792.56   82.59
  -2  -1   5 2724.81   84.15
   2  -1  -5 2928.81   84.87
  -2  -1   5 2886.83   83.37
  -2   1   5 2824.64   79.12
   2   1  -5 2884.51   83.90
   2   1  -5 2853.38   76.14
  -1  -1   5  169.61   12.45
  -1  -1   5  180.28   13.23
   1  -1  -5  187.64   10.90
   1  -1  -5  167.25   16.07
  -1   1   5  179.94   10.25
   1   1  -5  189.55   13.06
   1   1  -5  186.99    8.06
   0  -1   5  410.94   20.77
   0  -1   5  403.40   20.21
   0  -1   5  400.64   14.52
   0  -1  -5  420.67   21.66
   0  -1  -5  406.51   16.80
   0   1   5  418.14   16.83
   0   1   5  456.12   17.69
   0   1  -5  400.48   14.65
   0   1  -5  401.18   20.62
   1  -1   5 1126.00   37.04
   1  -1   5 1108.98   39.72
  -1  -1  -5 1114.09   35.58
   1  -1   5 1138.65   41.93
  -1  -1  -5 1063.01   40.82
  -1   1  -5 1121.01   42.46
   1   1   5 1163.07   36.13
   1   1   5 1112.72   35.41
   2  -1   5 3283.14   94.50
   2  -1   5 3316.48   98.75
  -2  -1  -5 3226.93   89.97
  -2  -1  -5 3273.98   96.37
  -2   1  -5 3136.89  100.17
   2   1   5 3189.17   90.61
  -2   1  -5 3337.84   94.79
   2   1   5 3265.12   89.86
   3  -1   5  175.34   18.62
  -3  -1  -5  132.71   14.05
   3  -1   5  155.50   12.52
  -3  -1  -5  141.87   10.45
  -3   1  -5  166.80   20.03
  -3   1  -5  106.18   12.37
   3   1   5  167.30   11.75
  -4  -1  -5   11.25    4.19
  -4  -1  -5   17.22    6.00
   4  -1   5   10.42    6.79
   4  -1   5   14.31    5.82
  -4   1  -5   17.48    6.11
   4   1   5   15.71    5.80
  -4   1  -5   18.09    7.85
   5  -1   5   29.93    9.72
  -5  -1  -5   21.22    6.58
  -5  -1  -5   27.00    7.03
  -5   1  -5   24.84    7.26
   5   1   5   24.90    7.45
  -5   1  -5   26.60    7.28
  -6  -1  -5  128.68   14.43
   6  -1   5  121.28   18.03
  -6  -1  -5  114.56   14.37
  -6   1  -5  157.37   11.96
   6   1   5  116.97   14.93
  -6   1  -5  130.61   16.03
  -7  -1  -5 1163.55   46.15
  -7  -1  -5 1104.55   43.16
   7  -1   5 1079.48   51.17
   7   1   5 1211.08   48.32
  -7   1  -5 1198.32   48.06
  -7   1  -5 1106.44   40.43
  -8  -1  -5  997.82   44.82
   8  -1   5 1023.81   51.51
  -8  -1  -5 1132.21   42.92
   8   1   5 1078.95   48.26
  -8   1  -5 1126.90   47.77
   9  -1   5   20.88   11.20
  -9  -1  -5   18.61    6.84
  -9  -1  -5   25.32   10.14
  -9   1  -5   23.38    9.32
   9   1   5   20.03    9.67
 -10  -1  -5   55.63   11.05
 -10  -1  -5   42.78   11.76
  10  -1   5   67.54   17.93
  10   1   5   54.84   13.58
 -10   1  -5   63.71   14.76
 -11  -1  -5  311.32   31.46
  11  -1   5  291.06   35.96
 -11   1  -5  360.30   34.06
  11   1   5  364.19   29.69
  12  -1   5   52.05   18.20
 -12  -1  -5   26.54   11.84
 -12   1  -5   21.15   10.65
  12   1   5   20.90   12.22
 -12  -2   5  128.62   21.55
  12  -2  -5  154.83   27.95
  12   2  -5  214.16   26.31
 -12   2   5  205.81   24.87
  11  -2  -5   60.61   17.24
 -11  -2   5   70.84   13.63
 -11  -2   5   26.96   10.45
 -11   2   5   55.51   12.94
  11   2  -5   57.76   13.70
 -10  -2   5   15.27    7.28
  10  -2  -5    8.53   11.26
 -10  -2   5   17.60    9.69
  10   2  -5   22.20    9.68
 -10   2   5   19.35    8.33
   9  -2  -5  117.81   21.12
  -9  -2   5   88.22   16.05
  -9  -2   5  118.59   15.56
   9   2  -5  105.02   16.06
  -9   2   5  104.33   14.70
  -8  -2   5    5.28    5.27
   8  -2  -5   10.03    9.89
  -8  -2   5    4.89    7.26
  -8   2   5    4.63    4.73
   8   2  -5    9.50    6.56
  -7  -2   5   20.18    8.14
   7  -2  -5   19.06   10.10
  -7  -2   5   17.52    6.74
   7   2  -5   10.11    6.05
  -7   2   5   16.71    5.98
  -6  -2   5  501.40   26.09
  -6  -2   5  495.17   28.30
   6  -2  -5  521.15   33.43
   6   2  -5  535.09   25.78
  -6   2   5  560.48   24.58
   5  -2  -5   65.05    7.71
  -5  -2   5   51.91   10.53
   5  -2  -5   68.27   13.91
  -5  -2   5   62.74   10.26
  -5   2   5   71.91    8.97
   5   2  -5   53.67    8.87
   4  -2  -5  727.81   37.05
   4  -2  -5  753.70   27.69
  -4  -2   5  741.24   33.60
  -4  -2   5  743.85   31.68
   4   2  -5  743.26   29.26
  -4   2   5  744.44   26.87
   3  -2  -5    3.15    3.46
  -3  -2   5    0.40    4.23
   3  -2  -5    9.44    6.21
  -3  -2   5    3.85    3.99
   3   2  -5    3.98    3.31
  -3   2   5    3.34    2.57
  -2  -2   5  116.53   13.80
   2  -2  -5  152.44   16.41
  -2  -2   5  149.79   12.16
   2  -2  -5  137.28   13.02
   2   2  -5  124.75    9.56
  -2   2   5  135.94    7.61
  -1  -2   5 1782.86   53.33
   1  -2  -5 1749.10   58.65
  -1  -2   5 1773.04   57.32
  -1  -2   5 1656.21   57.90
   1  -2  -5 1729.54   56.57
  -1   2   5 1782.15   47.51
  -1   2   5 1702.91   59.30
   1   2  -5 1784.56   53.54
   0  -2  -5   73.59   10.51
   0  -2   5   83.69   10.95
   0  -2  -5   94.21   12.20
   0  -2   5   66.42   10.04
   0  -2   5  103.18   10.70
   0   2  -5   92.07   10.19
   0   2   5   96.77   12.64
   0   2  -5   86.85   11.31
   1  -2   5  328.06   18.78
  -1  -2  -5  361.92   11.79
   1  -2   5  386.24   20.27
  -1  -2  -5  320.80   18.58
   1  -2   5  344.68   19.32
  -1  -2  -5  362.15   20.30
  -1   2  -5  345.87   19.43
   1   2   5  357.75   19.85
   2  -2   5   82.46   13.14
  -2  -2  -5  106.53    6.77
   2  -2   5   85.45   11.41
   2  -2   5  122.31   13.59
  -2  -2  -5  118.19   13.77
  -2   2  -5   90.69   12.09
   2   2   5  101.82   12.83
  -2   2  -5  110.31   12.60
   3  -2   5  570.28   28.04
   3  -2   5  553.96   33.28
   3  -2   5  554.54   27.17
  -3  -2  -5  644.93   29.30
  -3  -2  -5  569.24   21.42
  -3   2  -5  617.04   27.78
  -3   2  -5  517.81   27.73
   3   2   5  553.70   27.02
   4  -2   5 1426.16   50.70
  -4  -2  -5 1326.67   50.39
   4  -2   5 1306.81   60.36
  -4  -2  -5 1365.30   44.21
  -4   2  -5 1345.01   53.71
  -4   2  -5 1371.06   50.26
   4   2   5 1390.49   50.47
  -5  -2  -5   12.38    6.06
  -5  -2  -5    5.64    4.52
   5  -2   5    4.34    8.83
  -5   2  -5   10.34    8.14
  -5   2  -5    0.12    4.53
   5   2   5    6.57    5.59
  -6  -2  -5  475.78   26.64
   6  -2   5  462.32   35.88
  -6  -2  -5  498.44   24.98
  -6   2  -5  466.71   27.42
   6   2   5  495.27   28.39
   7  -2   5   79.46   19.04
  -7  -2  -5   33.71    8.90
  -7  -2  -5   52.55   10.90
   7   2   5   36.63   10.51
  -7   2  -5   36.11   10.20
   8  -2   5  251.14   33.24
  -8  -2  -5  225.54   22.06
  -8  -2  -5  248.37   20.14
  -8   2  -5  283.36   26.90
   8   2   5  235.82   25.40
  -9  -2  -5  908.94   43.01
  -9  -2  -5  873.82   40.76
   9  -2   5  847.72   52.61
   9   2   5  857.22   45.51
  -9   2  -5  926.23   44.45
  10  -2   5   26.45   14.61
 -10  -2  -5   55.94   12.11
 -10  -2  -5   29.50   10.60
  10   2   5   47.07   14.06
 -10   2  -5   37.20   12.49
 -11  -2  -5   -3.36    7.78
  11  -2   5    6.97   12.13
 -11  -2  -5   10.23    7.47
 -11   2  -5   16.02   10.50
  11   2   5   -7.75    7.43
 -11  -3   5   12.67    8.98
  11  -3  -5    7.44   12.84
 -11  -3   5   14.80    9.89
  11   3  -5    5.35    9.21
 -10  -3   5    5.13    8.44
 -10  -3   5   -2.89    6.60
  10  -3  -5   -0.42    8.61
  10   3  -5    1.69    7.36
  -9  -3   5    5.03    6.40
   9  -3  -5    7.61    9.37
  -9  -3   5   15.29    8.91
   9   3  -5    2.67    7.90
   8  -3  -5  353.44   36.11
  -8  -3   5  296.24   24.50
  -8  -3   5  339.56   24.01
   8   3  -5  363.54   24.95
   7  -3  -5    2.28    8.40
  -7  -3   5    1.75    5.42
  -7  -3   5    3.27    6.05
   7   3  -5   -1.55    5.17
  -6  -3   5   56.55   12.16
  -6  -3   5   62.55   12.17
   6  -3  -5   95.22   18.42
   6   3  -5   70.58   11.99
   5  -3  -5  150.56   21.70
  -5  -3   5  111.17   15.05
  -5  -3   5  117.46   15.94
   5   3  -5  145.14   16.10
  -4  -3   5  148.95   17.60
   4  -3  -5  172.10   22.86
  -4  -3   5  151.26   17.20
   4  -3  -5  173.15   12.42
   4   3  -5  161.95   16.71
   3  -3  -5  384.17   20.28
  -3  -3   5  378.20   23.29
   3  -3  -5  450.95   29.94
  -3  -3   5  434.88   24.67
   3   3  -5  418.87   22.78
  -2  -3   5 1412.97   52.83
  -2  -3   5 1490.59   53.82
   2  -3  -5 1523.74   59.13
   2  -3  -5 1492.69   50.83
  -2   3   5 1463.98   60.36
   2   3  -5 1453.13   51.78
  -1  -3   5  106.83   13.17
   1  -3  -5  112.17   13.37
  -1  -3   5   76.17   11.54
   1  -3  -5   72.70   13.81
  -1  -3   5   95.75   13.08
   1   3  -5   82.07   11.94
  -1   3   5   79.16   14.64
   0  -3   5  222.63   16.30
   0  -3  -5  162.81   19.19
   0  -3  -5  149.41   15.92
   0  -3   5  198.57   16.02
   0  -3   5  209.47   15.73
   0   3  -5  191.95   15.65
   0   3   5  240.95   23.75
  -1  -3  -5  515.69   27.56
  -1  -3  -5  539.94   29.82
   1  -3   5  548.30   26.78
   1  -3   5  561.89   27.35
   1  -3   5  485.33   27.93
  -1   3  -5  593.65   28.13
  -1   3  -5  616.91   31.10
   1   3   5  605.84   31.60
   2  -3   5 1658.12   57.27
   2  -3   5 1631.53   62.50
  -2  -3  -5 1670.69   59.74
   2  -3   5 1632.01   56.72
   2   3   5 1752.22   62.77
  -2   3  -5 1567.44   56.58
  -2   3  -5 1597.27   56.66
   3  -3   5   45.65   13.02
  -3  -3  -5   57.54   11.65
   3  -3   5   79.23   12.15
   3  -3   5   94.56   13.18
  -3   3  -5   55.76   10.27
  -3   3  -5   64.63   10.67
   3   3   5   60.60   13.11
  -4  -3  -5   15.72    6.85
   4  -3   5   11.08    6.51
   4  -3   5    9.23    5.33
   4  -3   5   10.38   10.83
  -4   3  -5   13.98    6.27
  -4   3  -5   10.07    6.74
   4   3   5    6.45    6.66
   5  -3   5   21.34   13.03
  -5  -3  -5   23.09    8.10
   5   3   5   38.50   10.83
  -5   3  -5   16.86    7.06
   6  -3   5   62.45   18.21
  -6  -3  -5   72.80   13.78
  -6   3  -5   58.09   11.58
   6   3   5   86.35   15.57
   7  -3   5  761.10   49.61
  -7  -3  -5  709.06   37.89
   7   3   5  724.57   40.51
  -7   3  -5  717.90   36.39
  -8  -3  -5  643.62   36.67
   8  -3   5  636.85   46.36
  -8   3  -5  643.33   35.83
   8   3   5  740.61   40.97
   9  -3   5   22.14   13.53
  -9  -3  -5   11.16    8.94
   9   3   5   24.49   11.44
  -9   3  -5   10.47    8.27
 -10  -3  -5   46.11   12.46
  10  -3   5   36.93   17.37
 -10   3  -5   30.49   11.10
  10   3   5   47.59   14.93
   9  -4  -5   57.66   17.27
  -9  -4   5   64.37   14.65
   9   4  -5   58.79   14.38
  -8  -4   5   -4.44    7.24
   8  -4  -5   -4.33    8.50
  -8  -4   5    6.43    7.93
   8   4  -5    3.28    7.91
  -7  -4   5   13.09    8.01
   7  -4  -5   13.33   10.35
  -7  -4   5   15.57    8.59
   7   4  -5   15.96    9.16
  -6  -4   5  245.21   25.45
  -6  -4   5  280.44   26.02
   6  -4  -5  245.83   30.72
   6   4  -5  239.96   24.55
   5  -4  -5   23.19   11.55
  -5  -4   5   18.73    8.19
  -5  -4   5   30.95    9.86
   5   4  -5   31.10    9.73
  -4  -4   5  339.70   24.15
  -4  -4   5  328.28   22.91
   4  -4  -5  258.66   31.32
   4   4  -5  338.02   23.91
  -3  -4   5    1.84    5.18
   3  -4  -5   -0.94    3.98
  -3  -4   5   -1.38    5.45
   3  -4  -5    5.99    9.38
  -3   4   5   10.40    9.99
   3   4  -5    1.35    5.99
  -2  -4   5   37.73    9.59
  -2  -4   5   52.93   10.58
   2  -4  -5   40.92    9.33
   2  -4  -5   36.70   12.81
  -2   4   5   31.10   12.59
   2   4  -5   44.07   11.10
   1  -4  -5  727.94   34.73
  -1  -4   5  766.15   36.50
  -1  -4   5  810.30   35.15
  -1  -4   5  760.91   37.63
   1  -4  -5  743.59   42.48
  -1   4   5  717.22   42.95
   1   4  -5  768.60   37.74
   0  -4   5   33.83    8.68
   0  -4   5   30.13    9.15
   0  -4  -5   44.51   10.08
   0  -4   5   57.44   12.59
   0  -4  -5   38.82   12.44
   0   4  -5   35.38   10.34
   0   4   5   42.04   12.80
   1  -4   5  159.97   17.92
   1  -4   5  115.52   17.77
  -1  -4  -5  151.38   18.48
  -1  -4  -5  127.35   19.71
   1  -4   5  183.71   18.26
  -1   4  -5  122.28   15.31
   1   4   5  172.97   22.95
  -1   4  -5  127.60   18.57
  -2  -4  -5   55.81   12.07
   2  -4   5   47.81   10.26
   2  -4   5   29.41   11.56
   2  -4   5   38.18    9.53
  -2   4  -5   24.78    8.26
  -2   4  -5   30.96   11.26
  -2   4  -5   45.21    9.62
   2   4   5   59.02   15.13
   3  -4   5  276.44   20.12
   3  -4   5  305.23   31.81
  -3  -4  -5  259.55   25.79
  -3   4  -5  271.93   19.88
   3   4   5  246.70   28.63
  -4  -4  -5  583.85   34.31
   4  -4   5  557.12   39.95
   4   4   5  582.47   36.95
  -4   4  -5  619.24   31.28
  -5  -4  -5   -3.38    5.50
   5  -4   5   16.43   12.41
  -5   4  -5    5.02    6.15
   5   4   5    4.06    8.01
  -6  -4  -5  260.74   28.10
   6  -4   5  243.15   34.24
  -6   4  -5  208.41   22.24
   6   4   5  209.76   27.47
  -7  -4  -5   22.32    9.79
   7  -4   5   14.45   15.05
  -7   4  -5   19.81    9.75
   7   4   5   21.31   11.39
   8  -4   5  112.40   25.10
  -8  -4  -5  164.28   23.91
   8   4   5  141.15   23.68
  -8   4  -5  124.74   18.19
   6  -5  -5   31.65   15.57
  -6  -5   5   32.15   12.41
   6   5  -5   41.12   12.72
   5  -5  -5   55.89   16.88
  -5  -5   5   62.66   14.81
  -5   5   5   62.43   20.82
   5   5  -5   44.66   12.85
   4  -5  -5   71.96   19.26
  -4  -5   5   91.30   17.72
  -4   5   5  102.82   23.97
   4   5  -5   72.01   16.71
  -3  -5   5  144.57   20.61
   3  -5  -5  131.72   26.19
  -3   5   5  139.37   26.11
   3   5  -5  131.12   20.22
  -2  -5   5  584.29   35.00
   2  -5  -5  594.77   42.88
   2   5  -5  561.60   36.19
  -2   5   5  586.89   43.96
  -1  -5   5   34.97   10.67
   1  -5  -5   31.97   10.17
   1  -5  -5   31.75   14.02
  -1   5   5   46.75   15.66
   1   5  -5   31.05   11.65
   0  -5   5   61.68   13.57
   0  -5  -5   73.65   13.99
   0  -5  -5   70.36   17.80
   0  -5   5   88.92   18.74
   0   5  -5   56.16   14.80
   0   5   5   85.88   19.64
   1  -5   5  227.50   27.85
  -1  -5  -5  247.46   26.50
   1  -5   5  237.12   24.92
   1   5   5  253.35   32.91
  -1   5  -5  158.00   23.23
  -2  -5  -5  680.56   38.65
   2  -5   5  696.35   43.90
   2   5   5  685.85   44.66
  -2   5  -5  657.28   42.73
   3  -5   5   33.33   14.76
  -3  -5  -5   16.00    9.35
   3   5   5   33.12   14.17
  -3   5  -5   20.05   12.13
   4  -5   5    7.91   11.43
  -4  -5  -5    6.22    8.26
  -4   5  -5   -5.37    9.61
   4   5   5    8.85   10.59
   5  -5   5   19.59   15.05
  -5  -5  -5    8.12    8.92
   5   5   5   12.78   11.04
  13   0  -6  127.39   23.49
 -13   0   6  139.26   22.30
 -12   0   6   53.31   13.78
  12   0  -6   31.23   12.89
  11   0  -6  164.79   23.30
 -11   0   6  195.20   23.32
 -10   0   6  285.97   27.20
  10   0  -6  269.08   27.96
   9   0  -6  188.00   22.44
  -9   0   6  141.01   18.19
   8   0  -6  288.81   18.44
  -8   0   6  331.99   18.82
  -8   0   6  324.69   22.16
   8   0  -6  310.88   22.54
   7   0  -6 2732.81   88.91
  -7   0   6 2848.61   84.78
   7   0  -6 2892.33   85.80
  -7   0   6 2790.36   88.81
   6   0  -6  571.02   27.47
  -6   0   6  533.87   27.04
  -6   0   6  574.87   25.93
   6   0  -6  603.52   27.11
  -5   0   6  133.89   14.35
   5   0  -6  176.99   13.97
  -5   0   6  177.06   13.39
   5   0  -6  165.59   12.75
   4   0  -6 1748.74   60.20
  -4   0   6 1806.13   59.37
   4   0  -6 1860.81   56.20
  -4   0   6 1869.20   59.88
  -3   0   6    2.25    3.39
   3   0  -6    7.22    3.40
   3   0  -6   -1.03    4.01
   2   0  -6 1463.23   52.21
  -2   0   6 1427.25   47.50
   2   0  -6 1392.08   41.44
   1   0  -6  583.30   29.69
  -1   0   6  548.39   24.23
   0   0   6  148.26   11.82
   0   0  -6  174.48   19.88
   1   0   6  126.96   12.75
  -1   0  -6  148.67   19.40
   1   0   6  124.18    6.83
   2   0   6   83.35    7.93
  -2   0  -6   91.59   11.22
   2   0   6   82.68   10.62
  -2   0  -6   89.48   14.84
   3   0   6  155.12   15.00
   3   0   6  176.28   11.36
  -3   0  -6  143.66   14.32
  -3   0  -6  134.28   17.08
  -4   0  -6 1341.73   49.09
   4   0   6 1359.95   49.13
   4   0   6 1388.71   46.99
  -4   0  -6 1433.01   52.39
  -5   0  -6   73.68   11.63
   5   0   6   70.86   11.02
  -5   0  -6   65.67   11.10
  -6   0  -6 1267.06   49.31
  -6   0  -6 1308.44   47.39
   6   0   6 1248.70   49.00
  -7   0  -6  447.31   23.34
   7   0   6  409.79   26.01
  -7   0  -6  435.27   26.52
  -8   0  -6    5.65    4.87
  -8   0  -6    7.94    6.69
   8   0   6   -1.05    7.04
   9   0   6   10.18    8.18
  -9   0  -6    9.82    7.78
 -10   0  -6    4.54    7.62
  10   0   6    3.95    9.37
 -11   0  -6   16.16    9.79
  11   0   6   14.31   10.40
  12   0   6  102.71   21.38
 -12   0  -6  126.92   22.27
 -13  -1   6   80.36   17.03
  13  -1  -6   63.18   18.69
  13   1  -6   89.32   18.07
 -13   1   6   69.34   16.41
 -12  -1   6  443.81   32.42
  12  -1  -6  448.54   36.82
 -12   1   6  457.30   31.23
  12   1  -6  461.63   32.38
 -11  -1   6  387.02   28.69
  11  -1  -6  354.13   36.77
  11   1  -6  349.02   26.89
 -11   1   6  398.23   27.18
 -10  -1   6   20.47    7.57
  10  -1  -6   23.01   10.94
 -10  -1   6   16.04    8.63
  10   1  -6   27.80    9.86
  10   1  -6   21.47    7.52
 -10   1   6   20.39    8.64
  -9  -1   6  114.40   14.11
  -9  -1   6  129.63   18.71
   9  -1  -6  110.37   19.50
   9   1  -6  119.22   14.18
  -9   1   6  102.97   15.26
   9   1  -6  101.20   15.06
  -8  -1   6   19.78    7.60
  -8  -1   6   53.66    9.84
   8  -1  -6   43.46   12.83
   8   1  -6   14.41    6.56
   8   1  -6   25.63    7.59
  -8   1   6   23.64    7.59
   7  -1  -6  233.21   25.17
   7  -1  -6  248.74   16.61
  -7  -1   6  234.81   16.26
  -7  -1   6  212.20   21.23
   7   1  -6  237.48   16.56
   7   1  -6  261.89   17.44
  -7   1   6  231.35   16.93
   6  -1  -6  847.33   34.45
  -6  -1   6  875.30   38.20
   6  -1  -6  891.09   40.45
  -6  -1   6  842.93   34.65
   6   1  -6  900.17   35.96
   6   1  -6  909.43   34.19
  -6   1   6  811.75   34.12
  -5  -1   6 1182.98   42.85
  -5  -1   6 1208.99   46.20
   5  -1  -6 1174.49   43.27
   5  -1  -6 1170.15   46.88
  -5   1   6 1159.04   41.51
   5   1  -6 1176.08   39.77
   5   1  -6 1129.31   42.92
   4  -1  -6  103.74   13.93
  -4  -1   6   97.67   12.16
   4  -1  -6   84.43   11.84
  -4  -1   6   64.18   10.74
   4   1  -6   90.34    8.96
  -4   1   6   74.60    9.35
   4   1  -6   79.22   11.36
  -3  -1   6  216.36   15.03
   3  -1  -6  262.19   17.68
  -3  -1   6  222.79   16.28
   3  -1  -6  242.89   15.97
  -3   1   6  249.73   13.89
   3   1  -6  233.08   11.13
   3   1  -6  248.79   16.17
   2  -1  -6  940.54   34.03
  -2  -1   6 1003.28   37.83
   2  -1  -6  996.33   39.44
  -2  -1   6  977.78   38.12
   2   1  -6  978.95   29.07
  -2   1   6  996.27   33.84
   2   1  -6 1007.36   38.36
   1  -1  -6  133.83    9.16
  -1  -1   6  110.27   12.81
  -1  -1   6  128.00   14.03
   1  -1  -6  135.68   15.99
   1   1  -6  145.42   15.51
  -1   1   6  143.27    9.90
   1   1  -6  140.33    6.32
  -1   1   6  150.92   10.18
   0  -1  -6  633.46   22.60
   0  -1   6  635.02   19.38
   0  -1   6  624.05   28.07
   0  -1   6  655.89   29.61
   0  -1  -6  621.00   30.07
   0   1   6  612.63   22.90
   0   1  -6  605.94   29.36
   0   1   6  641.35   24.51
   0   1  -6  645.05   19.50
  -1  -1  -6   68.11    8.44
  -1  -1  -6   59.83   11.43
   1  -1   6  100.16   12.32
   1  -1   6   88.66    8.79
   1   1   6   94.61    9.20
  -1   1  -6   87.34   13.87
   1   1   6   99.36    9.85
  -2  -1  -6    4.12    3.62
   2  -1   6    0.72    3.27
   2  -1   6    2.39    4.73
  -2  -1  -6    3.26    4.65
  -2   1  -6    2.33    3.98
   2   1   6    1.81    3.13
  -2   1  -6   13.66    7.32
   2   1   6    2.43    3.37
   3  -1   6    0.77    3.66
  -3  -1  -6   -0.08    2.82
  -3  -1  -6    3.63    4.87
   3  -1   6    0.09    5.41
   3   1   6    1.17    3.18
  -3   1  -6    0.96    3.47
  -3   1  -6    6.35    7.63
   4  -1   6  700.53   34.50
  -4  -1  -6  612.60   27.43
  -4  -1  -6  692.33   31.76
   4  -1   6  677.19   31.53
   4   1   6  688.82   28.60
  -4   1  -6  659.92   35.87
  -4   1  -6  671.30   31.61
  -5  -1  -6  615.16   29.92
   5  -1   6  599.59   33.01
  -5  -1  -6  615.07   28.53
   5   1   6  627.02   28.78
  -5   1  -6  643.56   31.23
  -5   1  -6  566.50   30.38
  -6  -1  -6  261.93   19.00
   6  -1   6  305.82   28.80
  -6  -1  -6  226.31   17.72
   6   1   6  269.19   19.76
  -6   1  -6  280.15   20.57
  -6   1  -6  257.86   17.84
  -7  -1  -6   11.90    6.52
   7  -1   6   10.16    9.00
  -7  -1  -6    7.71    6.84
  -7   1  -6    7.93    5.81
  -7   1  -6    3.88    4.62
   7   1   6    8.93    6.75
  -8  -1  -6  216.55   17.58
  -8  -1  -6  242.26   24.20
   8  -1   6  220.89   27.25
  -8   1  -6  242.02   24.82
   8   1   6  201.17   23.10
   9  -1   6    0.82    8.36
  -9  -1  -6    3.48    5.29
  -9  -1  -6    3.01    6.42
   9   1   6    1.85    6.92
  -9   1  -6    6.49    7.50
 -10  -1  -6  184.28   20.95
  10  -1   6  152.62   25.71
 -10  -1  -6  176.78   23.54
 -10   1  -6  149.17   21.63
  10   1   6  187.78   24.36
 -11  -1  -6  173.34   24.40
  11  -1   6  114.33   23.54
  11   1   6  103.71   19.56
 -11   1  -6  110.37   19.52
 -12  -1  -6  152.94   24.80
  12  -1   6  140.66   26.86
  12   1   6  133.74   23.28
 -12   1  -6  125.56   22.89
 -12  -2   6   45.03   13.82
  12  -2  -6   26.03   14.49
  12   2  -6   44.40   12.89
 -12   2   6   33.12   10.99
 -11  -2   6  147.81   18.76
  11  -2  -6  132.07   25.38
 -11  -2   6  139.93   21.71
 -11   2   6  118.34   16.90
  11   2  -6  162.47   20.79
  10  -2  -6  237.19   30.33
 -10  -2   6  229.12   22.63
 -10  -2   6  140.78   20.82
 -10   2   6  227.15   23.19
  10   2  -6  285.98   27.16
  -9  -2   6  141.51   17.51
   9  -2  -6  104.90   20.47
  -9  -2   6  146.70   20.40
   9   2  -6  113.18   16.24
  -9   2   6  135.10   17.11
  -8  -2   6  240.48   25.08
   8  -2  -6  189.10   25.74
  -8  -2   6  238.57   19.01
   8   2  -6  242.51   19.18
  -8   2   6  265.08   18.39
  -7  -2   6 2149.64   72.19
   7  -2  -6 2041.71   80.24
  -7  -2   6 2108.83   76.13
   7   2  -6 2169.08   70.69
  -7   2   6 2184.78   69.04
   6  -2  -6  432.51   29.04
  -6  -2   6  402.98   25.92
  -6  -2   6  382.54   23.02
  -6   2   6  432.53   21.41
   6   2  -6  407.77   21.91
   5  -2  -6  158.96   20.22
  -5  -2   6  145.59   15.97
   5  -2  -6  141.00   11.02
  -5  -2   6  140.96   17.14
  -5   2   6  131.05   12.60
   5   2  -6  135.40   13.71
   4  -2  -6 1359.73   53.23
  -4  -2   6 1299.84   48.41
  -4  -2   6 1347.89   51.34
   4  -2  -6 1287.48   44.67
   4   2  -6 1314.78   44.13
  -4   2   6 1317.00   42.47
   3  -2  -6    0.60    4.61
  -3  -2   6   -3.92    3.35
   3  -2  -6    1.99    3.69
  -3  -2   6    4.47    3.88
   3   2  -6    5.49    3.21
  -3   2   6   -0.82    2.36
   2  -2  -6  959.65   37.83
  -2  -2   6 1043.60   41.08
   2  -2  -6 1037.30   40.05
  -2  -2   6  964.82   38.95
   2   2  -6  987.96   33.61
   2   2  -6  959.85   39.58
  -2   2   6 1003.03   31.66
  -1  -2   6  372.52   16.56
   1  -2  -6  368.15   20.52
  -1  -2   6  374.20   21.45
  -1  -2   6  388.54   22.16
   1  -2  -6  402.04   21.62
   1   2  -6  378.02   21.86
   1   2  -6  376.62   17.02
  -1   2   6  367.90   21.16
  -1   2   6  392.78   15.24
   0  -2  -6  101.13   13.18
   0  -2   6   98.98   12.40
   0  -2   6  132.53   14.97
   0  -2  -6  113.47    6.51
   0  -2   6  111.61    9.09
   0  -2  -6  133.04   14.02
   0   2  -6   93.16   12.56
   0   2  -6  117.02   11.17
   0   2   6  107.63    6.11
   0   2   6  115.06   13.20
  -1  -2  -6   88.31    5.96
  -1  -2  -6   96.36   13.24
   1  -2   6   98.80   11.14
   1  -2   6   60.55   10.40
   1  -2   6   69.84   10.90
   1   2   6   79.63   11.12
  -1   2  -6   62.57   10.71
   2  -2   6   81.24   12.51
  -2  -2  -6   70.19    7.07
  -2  -2  -6   63.62   11.30
   2  -2   6   57.53   10.56
   2  -2   6   59.14   10.08
   2   2   6   61.74   10.52
  -2   2  -6   84.25   13.48
  -2   2  -6   58.48   10.28
   3  -2   6   98.07   13.50
  -3  -2  -6   91.94   13.42
  -3  -2  -6   99.25   10.01
   3  -2   6  102.42   15.95
  -3   2  -6  116.00   16.27
   3   2   6  111.08   13.79
  -3   2  -6  113.77   14.52
  -4  -2  -6  886.77   40.60
   4  -2   6  978.45   48.70
   4  -2   6  984.86   41.26
  -4  -2  -6 1004.73   35.27
  -4   2  -6  976.20   40.98
  -4   2  -6 1051.41   46.72
   4   2   6  930.73   39.35
   5  -2   6   61.54   11.49
   5  -2   6   54.93   14.97
  -5  -2  -6   69.70   10.26
  -5  -2  -6   49.62   10.76
  -5   2  -6   41.24   12.19
  -5   2  -6   58.38   11.40
   5   2   6   46.44   10.39
   6  -2   6  931.10   52.61
  -6  -2  -6 1038.64   40.32
  -6  -2  -6 1019.94   43.88
   6   2   6  916.56   42.80
  -6   2  -6 1033.35   44.52
   7  -2   6  376.10   38.41
  -7  -2  -6  332.43   23.18
  -7  -2  -6  336.76   22.36
  -7   2  -6  372.14   25.02
   7   2   6  296.78   23.22
   8  -2   6    4.78   12.15
  -8  -2  -6    5.11    5.99
  -8  -2  -6   14.84    7.92
   8   2   6   -3.70    6.02
  -8   2  -6    2.32    5.79
  -9  -2  -6    4.52    7.56
   9  -2   6   21.70   13.54
  -9  -2  -6   13.12    7.66
   9   2   6    1.32    7.82
  -9   2  -6    0.03    7.03
 -10  -2  -6    4.92    6.80
 -10  -2  -6    1.38    7.32
  10  -2   6   17.07   12.87
  10   2   6   12.13    9.67
 -10   2  -6    8.13    8.90
 -11  -2  -6    1.03    6.97
  11  -2   6   15.16   14.10
 -11  -2  -6    7.58    9.20
  11   2   6   13.86   10.82
 -11   2  -6   16.56   10.92
 -11  -3   6  295.45   28.66
 -11  -3   6  250.29   30.10
  11  -3  -6  196.79   30.96
  11   3  -6  325.24   32.17
 -10  -3   6   12.90    9.20
  10  -3  -6   17.84   11.29
 -10  -3   6   23.66    9.61
  10   3  -6   17.31   10.07
  -9  -3   6  102.01   16.10
  -9  -3   6  107.71   18.51
   9  -3  -6   78.40   18.85
   9   3  -6  113.36   17.79
  -8  -3   6    9.16    6.84
  -8  -3   6   22.04    8.89
   8  -3  -6   13.19   11.10
   8   3  -6   25.15    8.83
   7  -3  -6  121.84   20.86
  -7  -3   6  153.56   19.15
  -7  -3   6  172.17   21.50
   7   3  -6  152.15   18.05
   6  -3  -6  492.73   33.85
  -6  -3   6  462.28   29.52
  -6  -3   6  518.22   29.25
   6   3  -6  493.51   27.15
  -5  -3   6  628.51   32.79
   5  -3  -6  644.57   37.95
  -5  -3   6  680.73   34.55
   5   3  -6  669.55   30.93
   4  -3  -6   50.73    8.44
   4  -3  -6   50.74   12.47
  -4  -3   6   32.30    8.89
  -4  -3   6   58.79   12.14
   4   3  -6   42.01    8.77
  -3  -3   6  124.88   16.26
  -3  -3   6   99.69   14.25
   3  -3  -6  124.33   18.03
   3  -3  -6  149.21   14.63
   3   3  -6  107.10   13.26
   2  -3  -6  532.77   30.35
  -2  -3   6  503.42   27.49
   2  -3  -6  514.52   25.89
  -2  -3   6  496.13   27.18
  -2   3   6  499.24   30.77
   2   3  -6  489.92   24.50
  -1  -3   6   49.08   10.37
   1  -3  -6   69.82   11.40
   1  -3  -6   62.51   12.16
  -1  -3   6   69.51   10.37
  -1  -3   6   45.75    9.63
   1   3  -6   72.14   10.71
  -1   3   6   67.19   13.01
   0  -3  -6  276.02   19.78
   0  -3   6  318.34   21.01
   0  -3  -6  321.50   22.15
   0  -3   6  308.99   19.40
   0  -3   6  311.67   20.41
   0   3  -6  334.69   21.60
   0   3   6  326.08   22.87
   0   3  -6  316.23   19.61
   1  -3   6   35.17    8.71
   1  -3   6   28.25    8.03
   1  -3   6   28.07    7.99
  -1  -3  -6   41.20    9.79
  -1  -3  -6   22.04    7.83
   1   3   6   23.16    8.69
  -1   3  -6   26.83    8.70
  -1   3  -6   23.67    7.57
  -2  -3  -6    0.20    4.46
   2  -3   6    5.58    5.72
   2  -3   6    0.94    4.79
   2  -3   6    2.25    5.06
  -2   3  -6    2.56    4.76
  -2   3  -6    0.20    4.52
   2   3   6    1.93    5.42
  -3  -3  -6    2.44    5.40
   3  -3   6    6.52    7.49
   3  -3   6    3.34    5.52
   3  -3   6    1.32    4.34
  -3   3  -6   -1.27    4.81
  -3   3  -6   -1.39    4.47
   3   3   6    0.94    5.92
   4  -3   6  392.39   24.75
   4  -3   6  375.00   29.82
  -4  -3  -6  365.39   25.40
   4   3   6  354.05   25.19
  -4   3  -6  418.53   25.18
  -4   3  -6  403.63   26.43
  -5  -3  -6  348.74   25.07
   5  -3   6  293.21   34.47
   5  -3   6  373.18   24.12
  -5   3  -6  379.90   24.18
   5   3   6  381.29   26.66
   6  -3   6  128.55   24.16
  -6  -3  -6  208.05   23.82
  -6   3  -6  176.45   20.07
   6   3   6  160.16   21.43
   7  -3   6    7.88   10.05
  -7  -3  -6   -0.32    5.85
   7   3   6    9.92    9.30
  -7   3  -6   15.02    8.45
  -8  -3  -6  154.42   20.57
   8  -3   6  145.11   26.61
  -8   3  -6  167.59   21.83
   8   3   6  109.86   19.81
   9  -3   6   -2.24    9.81
  -9  -3  -6   -1.17    6.27
   9   3   6   -2.12    8.50
  -9   3  -6    4.75    7.68
  10  -3   6  116.09   25.40
 -10  -3  -6   83.22   16.30
  10   3   6  132.79   22.86
 -10   3  -6   78.14   16.80
  -9  -4   6   67.21   15.41
   9  -4  -6   63.98   16.85
  -9  -4   6   42.09   13.12
   9   4  -6   55.35   13.62
  -8  -4   6  132.81   20.73
  -8  -4   6   99.52   17.12
   8  -4  -6   97.04   20.40
   8   4  -6   95.79   16.61
  -7  -4   6 1069.31   51.06
   7  -4  -6 1149.15   58.16
   7   4  -6 1129.79   50.19
  -6  -4   6  174.26   21.61
   6  -4  -6  212.48   26.99
  -6  -4   6  210.52   23.71
   6   4  -6  199.90   21.76
  -5  -4   6   57.99   12.66
   5  -4  -6   63.63   15.97
  -5  -4   6   53.99   13.16
   5   4  -6   51.56   11.75
   4  -4  -6  684.54   40.52
  -4  -4   6  633.90   35.02
  -4  -4   6  546.21   32.19
   4   4  -6  632.43   32.87
  -3  -4   6    1.07    5.46
   3  -4  -6    0.14    4.67
   3  -4  -6   -3.08    6.95
  -3  -4   6    0.91    5.59
  -3   4   6   -2.68    7.21
   3   4  -6    2.96    6.01
  -2  -4   6  394.48   25.00
   2  -4  -6  393.08   23.92
   2  -4  -6  357.52   28.95
  -2  -4   6  433.30   27.03
   2   4  -6  421.86   25.64
  -2   4   6  400.24   30.93
  -1  -4   6  186.99   20.23
   1  -4  -6  143.92   17.23
  -1  -4   6  137.67   17.73
  -1  -4   6  169.76   18.83
   1  -4  -6  132.49   20.59
  -1   4   6  123.63   20.43
   1   4  -6  155.54   18.75
   0  -4  -6   44.67   10.88
   0  -4   6   71.04   12.15
   0  -4  -6   32.41   11.14
   0  -4   6   54.82   12.44
   0  -4   6   47.31   10.89
   0   4   6   26.86   10.91
   0   4  -6   40.65   10.76
   1  -4   6   36.37    9.18
   1  -4   6   27.44    9.90
  -1  -4  -6   31.93    9.63
  -1  -4  -6   45.79   12.40
   1  -4   6   34.11    9.85
  -1   4  -6   42.43   10.81
   1   4   6   30.47   11.15
  -1   4  -6   34.63    9.14
  -1   4  -6   29.16    9.70
   2  -4   6   28.69    9.00
   2  -4   6   34.33   10.98
   2  -4   6   28.47    9.07
  -2  -4  -6   20.74    9.15
  -2   4  -6   30.40    9.26
   2   4   6   38.93   12.18
  -2   4  -6   30.08   11.46
  -2   4  -6   28.87    9.06
  -3  -4  -6   46.55   11.95
   3  -4   6   30.82   11.78
   3  -4   6   40.14    9.60
   3   4   6   37.01   12.73
  -3   4  -6   38.00    9.90
   4  -4   6  476.31   27.86
   4  -4   6  390.94   37.98
  -4  -4  -6  422.85   29.74
   4   4   6  431.01   31.92
  -4   4  -6  402.44   26.05
   5  -4   6   38.38   14.49
  -5  -4  -6   30.59   10.15
  -5   4  -6   16.38    8.12
   5   4   6   15.19    9.94
   6  -4   6  508.57   47.96
  -6  -4  -6  433.34   32.05
   6   4   6  473.84   34.31
  -6   4  -6  527.19   31.39
   7  -4   6  175.81   28.98
  -7  -4  -6  141.29   22.22
  -7   4  -6  201.21   23.69
   7   4   6  190.54   26.47
   8  -4   6   -1.57   12.04
  -8  -4  -6   -0.55    7.52
   8   4   6   -1.53    9.11
  -8   4  -6    1.11    7.55
  -5  -5   6  271.93   29.71
   5  -5  -6  213.76   30.40
   5   5  -6  310.30   30.49
  -5   5   6  258.66   34.81
  -4  -5   6   13.95    9.71
   4  -5  -6   12.33   11.82
  -4   5   6   19.22   13.81
   4   5  -6   16.03    9.98
  -3  -5   6   68.18   15.01
   3  -5  -6   53.03   16.13
   3   5  -6   40.02   12.61
  -3   5   6   42.63   15.65
   2  -5  -6  165.50   25.67
  -2  -5   6  224.86   25.54
  -2   5   6  233.99   31.50
   2   5  -6  215.29   24.89
  -1  -5   6   41.26   11.94
   1  -5  -6   10.34   10.15
   1  -5  -6   20.00    8.70
  -1   5   6   45.63   15.05
   1   5  -6   17.46   10.53
   0  -5   6   96.66   17.95
   0  -5  -6  106.53   16.79
   0  -5   6  138.26   19.96
   0  -5  -6  164.04   26.41
   0   5   6   94.38   21.28
   0   5  -6  103.48   18.99
   1  -5   6   12.43    9.13
  -1  -5  -6   18.55    8.81
   1  -5   6   33.86   12.82
  -1   5  -6   11.90    9.46
  -1   5  -6   18.18   11.39
   1   5   6   17.25   12.59
   2  -5   6    3.89    9.90
  -2  -5  -6    4.53    6.47
   2   5   6    4.88   11.13
  -2   5  -6    3.11    9.85
   3  -5   6    2.22    8.19
  -3  -5  -6   -0.15    7.28
  -3   5  -6    4.64    9.36
   3   5   6   -4.92    9.28
   4  -5   6  169.04   26.30
  -4  -5  -6  173.28   23.47
   4   5   6  209.78   30.09
  -4   5  -6  145.37   24.64
  13   0  -7   50.74   15.64
 -13   0   7   44.55   13.56
  12   0  -7  260.02   29.64
 -12   0   7  263.47   28.80
 -11   0   7   35.59   11.00
  11   0  -7   50.87   13.27
  10   0  -7  194.07   23.58
 -10   0   7  184.39   22.24
  -9   0   7  736.50   37.49
   9   0  -7  784.49   38.68
  -8   0   7   34.44    8.72
   8   0  -7   59.38   12.28
  -8   0   7   35.12    9.91
   8   0  -7   42.86    9.69
  -7   0   7  110.75   14.71
   7   0  -7  140.55   16.23
   7   0  -7  150.57   17.27
  -7   0   7  118.79   14.37
   6   0  -7  188.06   18.62
  -6   0   7  145.06   16.39
  -6   0   7  176.36   17.36
   6   0  -7  145.55   15.75
   5   0  -7  563.80   24.90
   5   0  -7  524.68   27.65
  -5   0   7  509.74   26.29
   4   0  -7    1.90    5.02
  -4   0   7    3.03    3.95
   4   0  -7    5.39    3.85
   3   0  -7    3.17    3.13
  -3   0   7    0.80    4.21
   3   0  -7    6.25    5.50
   2   0  -7  255.66   19.60
   2   0  -7  244.25    9.85
  -2   0   7  232.96   15.44
  -1   0   7  249.03   15.94
   1   0  -7  219.20   22.57
   0   0  -7 1161.36   49.70
   0   0   7 1132.59   41.85
  -1   0  -7  670.24   36.71
   1   0   7  649.17   28.92
   1   0   7  671.79   21.10
   2   0   7   56.65    6.86
  -2   0  -7   57.56   13.60
   2   0   7   56.94    9.60
  -2   0  -7   58.43    9.78
   3   0   7  822.23   34.78
   3   0   7  825.11   29.98
  -3   0  -7  844.41   41.26
  -3   0  -7  774.04   34.14
  -4   0  -7  247.37   24.18
   4   0   7  204.68   14.36
  -4   0  -7  233.21   17.41
   4   0   7  227.89   17.26
   5   0   7  305.68   19.49
  -5   0  -7  303.81   20.93
  -5   0  -7  359.82   23.71
   6   0   7  102.18   14.60
  -6   0  -7  131.40   16.53
  -6   0  -7   97.87   14.35
  -7   0  -7  581.13   28.90
  -7   0  -7  524.51   30.91
   7   0   7  563.82   31.59
  -8   0  -7  112.87   17.24
  -8   0  -7  136.12   15.80
   8   0   7   96.04   16.38
  -9   0  -7  183.57   23.94
   9   0   7  211.60   25.80
  10   0   7  117.43   20.04
 -10   0  -7   87.96   17.21
  11   0   7  156.64   25.11
 -11   0  -7  193.07   26.02
  12   0   7  366.99   39.46
 -12   0  -7  407.38   39.65
 -12  -1   7   14.61    9.38
  12  -1  -7   13.65   11.14
 -12   1   7   16.78    9.79
  12   1  -7    6.77    9.59
 -11  -1   7  326.51   31.65
  11  -1  -7  291.58   33.83
 -11   1   7  369.21   26.55
  11   1  -7  396.92   28.31
 -10  -1   7  765.11   35.23
  10  -1  -7  689.97   42.08
 -10  -1   7  708.99   39.27
  10   1  -7  732.65   34.58
  10   1  -7  658.29   36.32
 -10   1   7  814.90   39.07
   9  -1  -7  714.81   41.50
  -9  -1   7  786.74   35.24
  -9  -1   7  726.27   38.78
  -9   1   7  710.33   35.79
   9   1  -7  779.03   36.45
   9   1  -7  792.45   35.31
  -8  -1   7  430.99   24.39
  -8  -1   7  390.96   26.61
   8  -1  -7  450.09   29.94
  -8   1   7  450.65   25.57
   8   1  -7  439.11   24.99
   8   1  -7  411.39   23.97
   7  -1  -7  568.53   33.16
  -7  -1   7  659.46   33.21
  -7  -1   7  588.11   28.93
   7  -1  -7  684.49   30.22
   7   1  -7  563.65   29.01
   7   1  -7  593.39   27.76
  -7   1   7  556.12   28.60
   6  -1  -7  172.10   20.02
  -6  -1   7  157.00   18.08
   6  -1  -7  150.57   16.67
  -6  -1   7  180.12   17.52
   6   1  -7  136.63   15.77
   6   1  -7  140.40   13.64
  -6   1   7  122.92   13.99
  -5  -1   7  687.65   33.63
  -5  -1   7  700.77   31.25
   5  -1  -7  719.31   32.61
   5  -1  -7  711.93   33.70
   5   1  -7  662.20   26.63
  -5   1   7  720.12   30.18
   5   1  -7  675.49   31.33
  -4  -1   7   72.36   11.70
  -4  -1   7  118.08   14.42
   4  -1  -7  108.81   13.69
   4  -1  -7  115.28   14.92
   4   1  -7   95.80    9.06
   4   1  -7   83.14   12.31
  -4   1   7  103.18   11.78
  -3  -1   7   51.33    9.44
   3  -1  -7   80.64   10.44
   3  -1  -7   43.94    9.63
  -3  -1   7   72.17   11.58
   3   1  -7   37.05    8.18
  -3   1   7   74.47    9.53
   3   1  -7   66.24    6.45
   2  -1  -7  259.94   19.28
  -2  -1   7  222.19   16.43
  -2  -1   7  241.97   17.44
   2  -1  -7  219.55   12.79
   2   1  -7  250.38    9.49
   2   1  -7  230.67   17.30
  -2   1   7  208.00   13.53
  -1  -1   7 1143.24   45.19
   1  -1  -7 1169.79   36.99
  -1  -1   7 1171.48   44.60
   1  -1  -7 1174.16   47.32
   1   1  -7 1159.60   31.52
   1   1  -7 1133.94   45.67
  -1   1   7 1190.88   40.50
  -1   1   7 1179.50   37.26
   0  -1   7  870.63   24.15
   0  -1   7  842.96   35.77
   0  -1  -7  822.82   38.77
   0   1   7  847.10   29.08
   0   1  -7  868.70   24.26
   0   1   7  867.08   32.50
   0   1  -7  882.76   39.26
   1  -1   7  211.13   15.99
  -1  -1  -7  192.06   13.40
  -1  -1  -7  162.91   19.24
   1  -1   7  222.87   10.55
   1   1   7  207.06   11.68
   1   1   7  200.70   13.39
  -1   1  -7  207.20   22.08
   2  -1   7   -2.24    2.97
  -2  -1  -7    9.22    6.26
   2  -1   7   -0.31    4.11
  -2  -1  -7    3.19    3.72
   2   1   7    1.27    3.25
  -2   1  -7    3.58    7.62
   2   1   7    3.10    3.30
  -2   1  -7   -1.14    3.44
  -3  -1  -7  420.37   21.75
   3  -1   7  384.57   24.26
  -3  -1  -7  430.97   26.56
   3  -1   7  437.48   24.69
   3   1   7  464.76   22.15
  -3   1  -7  419.10   24.37
   3   1   7  409.51   20.10
  -3   1  -7  458.58   31.37
  -4  -1  -7  112.11   13.54
   4  -1   7  120.63   16.49
  -4  -1  -7  106.73   15.43
   4  -1   7  103.96   14.34
  -4   1  -7   88.10   13.52
  -4   1  -7  130.90   20.43
   4   1   7  130.15   13.83
   5  -1   7  536.57   29.52
  -5  -1  -7  540.62   29.54
  -5  -1  -7  582.70   28.58
   5  -1   7  539.62   31.54
   5   1   7  558.29   27.43
  -5   1  -7  545.37   29.77
  -5   1  -7  551.07   32.26
  -6  -1  -7   87.21   14.19
  -6  -1  -7   93.65   14.46
   6  -1   7   74.19   15.01
  -6   1  -7   98.37   14.86
  -6   1  -7   96.85   15.77
   6   1   7  100.74   14.43
  -7  -1  -7  176.28   20.78
  -7  -1  -7  157.62   19.00
   7  -1   7   98.82   17.68
   7   1   7  138.79   18.05
  -7   1  -7  145.87   19.01
  -7   1  -7  146.82   16.37
  -8  -1  -7  115.11   16.37
   8  -1   7  118.49   20.23
  -8  -1  -7  137.25   18.53
  -8   1  -7  125.66   18.66
   8   1   7  149.27   19.77
  -9  -1  -7  829.31   38.67
   9  -1   7  847.76   48.28
   9   1   7  840.77   43.75
  -9   1  -7  881.69   44.82
  10  -1   7   33.32   13.62
 -10  -1  -7   23.90   11.21
  10   1   7   13.47    9.19
 -10   1  -7   21.81   10.73
  11  -1   7    8.53   11.01
 -11  -1  -7    1.23    8.03
  11   1   7    8.70   10.46
 -11   1  -7   -6.81    8.82
 -12  -2   7  218.08   28.45
  12  -2  -7  256.28   35.23
  12   2  -7  248.14   28.00
 -12   2   7  224.97   24.29
  11  -2  -7   48.81   16.34
 -11  -2   7   40.58   11.33
 -11  -2   7   52.70   14.71
  11   2  -7   44.89   11.60
  11   2  -7   42.94   12.08
 -11   2   7   35.12   11.01
 -10  -2   7  209.06   25.91
  10  -2  -7   80.41   18.37
 -10  -2   7  200.08   21.52
 -10   2   7  150.50   19.29
  10   2  -7  148.16   19.30
  10   2  -7  141.67   19.05
   9  -2  -7  680.31   42.06
  -9  -2   7  634.04   33.62
  -9  -2   7  618.03   37.41
   9   2  -7  626.89   33.46
  -9   2   7  710.61   34.02
  -8  -2   7   29.65   10.16
  -8  -2   7   44.58   10.46
   8  -2  -7   41.44   12.53
  -8   2   7   34.30    8.38
   8   2  -7   28.97    8.97
  -7  -2   7   99.90   14.36
   7  -2  -7   98.50   18.07
  -7  -2   7   84.11   15.22
  -7   2   7  102.43   13.44
   7   2  -7   93.03   13.10
  -6  -2   7  178.81   20.34
  -6  -2   7  150.12   17.48
   6  -2  -7  108.02   17.31
   6   2  -7  136.77   14.31
  -6   2   7  152.97   15.16
  -5  -2   7  377.19   23.26
   5  -2  -7  393.02   20.55
   5  -2  -7  412.96   26.82
  -5  -2   7  387.91   25.44
  -5   2   7  357.89   19.08
   5   2  -7  365.23   19.11
  -4  -2   7    5.56    5.63
  -4  -2   7    8.75    5.39
   4  -2  -7   -0.52    5.14
   4  -2  -7   11.64    5.90
  -4   2   7    1.80    3.34
   4   2  -7    4.83    3.79
   4   2  -7    5.20    5.64
  -3  -2   7   -2.11    4.13
   3  -2  -7    8.80    5.25
  -3  -2   7   -1.18    3.66
   3  -2  -7    1.06    4.73
   3   2  -7    8.80    5.56
  -3   2   7    5.16    3.49
   3   2  -7   -0.66    2.74
  -2  -2   7  218.23   17.53
   2  -2  -7  178.89   13.88
   2  -2  -7  199.13   15.85
  -2  -2   7  136.16   15.62
   2   2  -7  164.98   17.75
   2   2  -7  159.44   10.27
  -2   2   7  155.42   10.40
  -1  -2   7  196.92   19.26
   1  -2  -7  164.81   18.04
   1  -2  -7  178.23   16.48
  -1  -2   7  135.80   16.33
   1   2  -7  156.14   10.05
   1   2  -7  202.38   19.90
  -1   2   7  177.22   16.86
  -1   2   7  158.47   10.29
   0  -2  -7  725.67   30.86
   0  -2   7  722.79   34.09
   0  -2  -7  793.45   35.76
   0  -2   7  759.14   34.68
   0  -2   7  748.10   27.18
   0  -2  -7  787.15   26.58
   0   2  -7  757.33   27.45
   0   2  -7  801.99   35.49
   0   2   7  763.98   26.15
   0   2   7  720.55   31.28
  -1  -2  -7  488.44   18.83
  -1  -2  -7  427.74   25.87
   1  -2   7  448.61   25.37
   1  -2   7  467.90   26.46
   1  -2   7  467.41   20.86
  -1   2  -7  480.35   27.28
   1   2   7  446.71   23.00
  -2  -2  -7   45.18    6.67
   2  -2   7   56.94    9.87
  -2  -2  -7   54.86   11.24
   2  -2   7   25.23    7.49
   2  -2   7   38.16    9.35
  -2   2  -7   47.92    9.94
   2   2   7   61.35   10.42
  -2   2  -7   50.12   11.11
  -3  -2  -7  619.23   24.59
   3  -2   7  572.99   30.44
   3  -2   7  565.79   30.86
  -3  -2  -7  610.32   32.33
  -3   2  -7  542.31   33.04
  -3   2  -7  577.88   30.43
   3   2   7  611.66   28.58
  -4  -2  -7  159.63   19.71
  -4  -2  -7  196.66   14.03
   4  -2   7  192.36   23.34
   4  -2   7  183.25   19.93
  -4   2  -7  220.02   22.22
   4   2   7  168.23   18.13
  -4   2  -7  162.87   22.53
  -5  -2  -7  276.09   18.12
   5  -2   7  280.31   30.40
  -5  -2  -7  267.66   25.66
   5  -2   7  246.75   20.06
   5   2   7  296.42   21.18
  -5   2  -7  269.24   20.82
  -5   2  -7  259.56   27.80
  -6  -2  -7   93.29   13.52
  -6  -2  -7   78.87   14.29
   6  -2   7  108.85   21.03
  -6   2  -7   72.68   13.40
   6   2   7   87.25   14.53
  -7  -2  -7  407.44   27.40
  -7  -2  -7  434.07   26.31
   7  -2   7  417.96   40.90
   7   2   7  437.27   28.27
  -7   2  -7  430.92   28.61
  -8  -2  -7  104.38   16.13
   8  -2   7  100.44   20.60
  -8  -2  -7  112.92   17.16
  -8   2  -7   84.88   15.62
   8   2   7  105.60   17.97
   9  -2   7  136.55   25.71
  -9  -2  -7  159.55   20.38
  -9  -2  -7  185.55   23.07
   9   2   7  115.81   19.97
  -9   2  -7  117.83   19.08
  10  -2   7   70.79   19.31
 -10  -2  -7   69.90   14.18
 -10  -2  -7   58.12   14.13
  10   2   7   87.02   19.14
 -10   2  -7  105.01   20.09
 -11  -2  -7  163.98   36.56
 -11  -2  -7  134.92   19.15
  11  -2   7  128.63   26.46
 -11   2  -7  142.04   22.67
  11   2   7  179.65   25.87
 -10  -3   7  454.91   31.14
 -10  -3   7  556.53   36.75
  10  -3  -7  430.76   35.22
  10   3  -7  426.95   30.07
  -9  -3   7  492.99   33.77
  -9  -3   7  548.82   33.38
   9  -3  -7  535.16   37.40
   9   3  -7  495.23   30.89
   8  -3  -7  237.88   28.41
  -8  -3   7  299.45   24.11
  -8  -3   7  294.95   29.94
   8   3  -7  283.18   21.89
  -7  -3   7  393.33   28.64
   7  -3  -7  366.33   29.18
  -7  -3   7  380.94   26.25
   7   3  -7  399.20   24.44
  -6  -3   7   83.48   14.87
  -6  -3   7   70.60   14.12
   6  -3  -7   95.82   16.95
   6   3  -7   80.95   12.43
   5  -3  -7  400.36   28.89
  -5  -3   7  395.29   25.75
  -5  -3   7  368.79   26.08
   5   3  -7  387.47   22.31
   4  -3  -7   66.30   10.58
   4  -3  -7   67.71   14.05
  -4  -3   7   44.72   10.87
  -4  -3   7   81.59   14.60
   4   3  -7   61.29   10.01
   3  -3  -7   30.94    9.70
  -3  -3   7   30.86    9.23
  -3  -3   7   17.10    7.69
   3  -3  -7   35.21    8.77
   3   3  -7   32.57    7.52
  -2  -3   7  159.26   18.46
   2  -3  -7  155.34   17.29
  -2  -3   7  107.26   15.24
   2  -3  -7  129.37   17.25
   2   3  -7  118.83   16.23
  -2   3   7  147.42   19.48
   2   3  -7  167.10   15.39
   1  -3  -7  634.89   32.56
  -1  -3   7  619.96   32.07
   1  -3  -7  609.79   31.05
  -1  -3   7  630.65   27.27
  -1  -3   7  573.86   30.87
   1   3  -7  597.63   31.94
  -1   3   7  639.82   33.53
   1   3  -7  619.12   27.41
   0  -3  -7  430.85   26.23
   0  -3   7  479.36   27.18
   0  -3   7  474.56   23.94
   0  -3   7  468.28   27.15
   0  -3  -7  435.77   26.64
   0   3   7  514.44   28.68
   0   3  -7  430.21   26.40
   0   3  -7  498.91   24.38
   1  -3   7  127.57   14.90
   1  -3   7  104.09   14.85
  -1  -3  -7   83.14   13.86
   1  -3   7   95.65   14.83
  -1   3  -7   94.29   14.69
   1   3   7  128.66   16.96
  -1   3  -7  130.14   15.36
   2  -3   7   -0.91    5.12
   2  -3   7   -3.29    4.87
  -2  -3  -7    4.88    6.05
   2  -3   7    6.24    5.46
   2   3   7    5.03    6.25
  -2   3  -7   -2.36    4.48
  -2   3  -7   -2.06    4.17
   3  -3   7  251.87   25.01
   3  -3   7  268.03   21.20
  -3  -3  -7  238.26   24.50
   3  -3   7  219.52   23.20
  -3   3  -7  256.99   20.27
   3   3   7  263.18   21.09
  -3   3  -7  281.44   22.25
   4  -3   7   64.88   13.00
   4  -3   7   74.78   16.53
  -4  -3  -7   71.62   13.85
  -4   3  -7   78.02   15.23
  -4   3  -7   60.06   12.55
   4   3   7   37.27   10.73
  -5  -3  -7  279.50   27.44
   5  -3   7  324.69   34.43
   5  -3   7  284.85   22.09
   5   3   7  309.96   24.48
  -5   3  -7  273.48   21.47
   6  -3   7   62.89   17.82
  -6  -3  -7   39.74   11.38
   6   3   7   66.66   14.63
  -6   3  -7   70.36   14.13
   7  -3   7   93.08   21.82
  -7  -3  -7  119.57   19.32
  -7   3  -7   93.86   15.92
   7   3   7   72.51   15.52
  -8  -3  -7   81.16   16.36
   8  -3   7   96.64   22.92
  -8   3  -7  126.89   18.85
   8   3   7   82.51   16.62
   9  -3   7  608.15   45.74
  -9  -3  -7  547.38   35.30
  -9   3  -7  517.75   34.36
   9   3   7  555.74   37.68
  -8  -4   7   17.74   10.01
  -8  -4   7   26.74   10.75
   8  -4  -7   20.44   11.46
   8   4  -7   15.92    9.34
  -7  -4   7   35.68   11.10
  -7  -4   7   48.49   12.84
   7  -4  -7   56.79   15.75
   7   4  -7   49.97   11.85
  -6  -4   7   66.77   14.34
   6  -4  -7   59.01   15.28
  -6  -4   7   67.10   14.41
   6   4  -7   58.75   12.52
  -5  -4   7  166.73   21.78
  -5  -4   7  181.22   22.49
   5  -4  -7  173.08   24.03
   5   4  -7  179.58   19.85
  -4  -4   7    1.40    6.58
   4  -4  -7    1.89    7.46
  -4  -4   7    1.22    5.97
   4   4  -7    1.53    5.87
  -4   4   7   -0.76    8.17
   3  -4  -7   -4.40    7.00
  -3  -4   7   -2.42    5.97
   3  -4  -7    1.48    5.36
  -3  -4   7    3.69    6.98
   3   4  -7   -1.38    5.15
  -3   4   7   14.34   10.21
   2  -4  -7   69.67   15.36
  -2  -4   7   92.17   15.20
   2  -4  -7   54.23   11.20
  -2  -4   7   50.72   12.00
   2   4  -7   53.00   11.15
  -2   4   7   51.70   14.51
  -1  -4   7   74.80   14.01
  -1  -4   7   62.07   12.56
   1  -4  -7   74.33   15.42
   1  -4  -7   77.40   13.99
   1   4  -7   66.92   12.32
  -1   4   7   93.51   17.61
   1   4  -7   83.25   14.87
   0  -4  -7  342.81   24.75
   0  -4   7  349.39   23.70
   0  -4   7  321.33   24.14
   0  -4  -7  309.82   25.22
   0  -4   7  331.51   23.24
   0   4  -7  288.28   22.03
   0   4   7  311.94   30.64
   0   4  -7  326.53   24.42
   1  -4   7  273.43   21.67
  -1  -4  -7  245.86   24.49
   1  -4   7  207.48   21.27
   1  -4   7  215.69   22.57
  -1   4  -7  220.00   23.02
  -1   4  -7  197.40   20.97
  -1   4  -7  177.48   21.31
   1   4   7  183.90   23.84
   2  -4   7   14.81    8.37
  -2  -4  -7   23.53    9.28
   2  -4   7   23.34    9.39
   2  -4   7   22.81    9.17
  -2   4  -7   33.86   10.03
   2   4   7   35.78   11.81
  -2   4  -7   28.94   10.28
  -2   4  -7   15.59    8.33
  -3  -4  -7  269.43   27.60
   3  -4   7  273.89   27.43
   3  -4   7  269.75   21.66
  -3   4  -7  271.11   21.56
  -3   4  -7  262.25   27.51
   3   4   7  249.44   28.39
   4  -4   7  108.55   18.75
   4  -4   7   66.62   13.04
  -4  -4  -7   82.01   15.79
   4   4   7   69.52   15.53
  -4   4  -7   86.21   15.13
   5  -4   7  162.48   25.57
  -5  -4  -7  100.60   18.13
  -5   4  -7  128.19   17.93
   5   4   7  118.05   19.82
  -6  -4  -7   43.69   13.57
   6  -4   7   66.05   17.81
  -6   4  -7   41.53   11.87
   6   4   7   42.09   14.55
  -7  -4  -7  181.21   25.38
   7  -4   7  176.71   27.95
   7   4   7  259.06   31.90
  -7   4  -7  214.89   23.75
   4  -5  -7   29.46   13.45
  -4  -5   7   25.00   10.66
   4   5  -7   19.64    9.86
  -4   5   7   38.42   15.72
  -3  -5   7   29.21   11.35
   3  -5  -7   40.55   13.87
   3   5  -7   13.74    9.41
  -3   5   7   22.20   13.36
  -2  -5   7   47.22   13.23
   2  -5  -7   36.01   13.35
  -2   5   7   47.92   16.68
   2   5  -7   55.89   13.85
   1  -5  -7  254.30   31.50
   1  -5  -7  256.46   25.95
  -1  -5   7  263.74   27.91
   1   5  -7  285.94   28.08
   1   5  -7  264.65   27.54
  -1   5   7  199.59   28.95
   0  -5  -7  163.53   25.25
   0  -5  -7  171.16   22.97
   0  -5   7  194.32   24.35
   0  -5   7  219.63   25.35
   0   5   7  166.93   26.62
   0   5  -7  167.84   22.17
   0   5  -7  177.56   23.37
   1  -5   7   57.40   15.00
  -1  -5  -7   51.81   14.06
   1  -5   7   50.95   13.70
  -1   5  -7   42.43   13.97
   1   5   7   42.28   15.12
  -1   5  -7   49.09   13.41
   2  -5   7   -1.54    8.38
  -2  -5  -7   -0.60    7.44
  -2   5  -7    2.04    9.56
   2   5   7   -2.98    8.91
  -3  -5  -7   92.61   17.86
   3  -5   7  113.21   20.67
   3   5   7  101.36   20.52
  -3   5  -7  103.37   19.36
  12   0  -8  264.84   30.52
 -12   0   8  254.45   28.10
 -11   0   8  137.81   20.40
  11   0  -8  117.52   19.66
  10   0  -8  345.16   27.15
 -10   0   8  367.94   26.39
   9   0  -8   34.44   10.55
  -9   0   8   23.23    9.26
  -8   0   8    9.38    7.02
   8   0  -8   14.45    7.80
   8   0  -8    5.27    7.21
  -7   0   8   67.51   12.39
   7   0  -8   64.57   12.34
   7   0  -8   88.08   13.41
   6   0  -8  137.83   17.52
   6   0  -8  182.68   17.68
  -6   0   8  166.60   18.38
   5   0  -8   68.11   12.99
   5   0  -8   52.33    9.06
  -5   0   8   66.29   11.67
   4   0  -8  826.82   30.80
  -4   0   8  815.32   35.24
   4   0  -8  832.39   38.63
   3   0  -8   35.03    9.72
  -3   0   8   32.30    7.90
   3   0  -8   38.32    5.74
   2   0  -8 1241.97   51.75
  -2   0   8 1232.64   45.54
   2   0  -8 1242.68   33.19
  -1   0   8   78.89   11.50
   1   0  -8   76.55   14.69
   0   0  -8   49.11   12.48
   0   0   8   44.06    8.85
  -1   0  -8  309.80   25.65
   1   0   8  350.35   13.12
   1   0   8  353.88   20.89
   2   0   8  462.60   24.67
  -2   0  -8  460.34   25.03
   2   0   8  427.76   17.91
  -2   0  -8  453.07   31.45
   3   0   8  585.88   29.78
   3   0   8  608.20   24.31
  -3   0  -8  496.96   34.05
  -3   0  -8  607.30   30.35
  -4   0  -8  338.22   22.74
   4   0   8  320.40   21.94
   4   0   8  383.91   19.86
  -4   0  -8  356.58   26.99
   5   0   8  136.31   15.52
  -5   0  -8  145.88   20.53
  -5   0  -8  150.81   18.51
   6   0   8   27.62    9.20
  -6   0  -8   23.50    9.07
  -6   0  -8   23.77    9.18
  -7   0  -8    5.86    6.65
  -7   0  -8   10.50    7.74
   7   0   8    8.13    7.32
  -8   0  -8   81.67   16.13
   8   0   8   68.92   14.18
  -8   0  -8   80.82   13.15
   9   0   8   59.04   14.95
  -9   0  -8   44.40   13.14
  10   0   8   23.41   11.88
 -10   0  -8   15.66   10.42
 -11   0  -8   14.02   10.78
  11   0   8   11.40   10.57
  12  -1  -8    0.11    8.98
 -12  -1   8   -2.03    7.22
 -12   1   8    5.62    7.93
  12   1  -8   10.35    8.72
 -11  -1   8   19.38    9.92
  11  -1  -8   14.34   11.63
 -11   1   8   18.24    9.27
  11   1  -8   16.52    9.59
 -10  -1   8   43.84   10.69
 -10  -1   8   39.04   11.85
  10  -1  -8   60.17   15.16
 -10   1   8   27.49    9.25
  10   1  -8   41.53   10.04
  10   1  -8   33.97   10.50
  -9  -1   8  193.00   22.71
  -9  -1   8  171.78   18.81
   9  -1  -8  204.56   24.62
  -9   1   8  222.43   22.72
   9   1  -8  179.88   19.33
   9   1  -8  164.32   18.30
  -8  -1   8   45.47   10.23
  -8  -1   8   38.64   10.89
   8  -1  -8   26.14   10.40
  -8   1   8   17.49    7.30
   8   1  -8   34.72    9.61
   8   1  -8   41.73    9.47
  -7  -1   8   29.18    8.26
   7  -1  -8   19.41    8.26
   7  -1  -8   35.05   10.13
  -7  -1   8   33.77    9.51
   7   1  -8   29.66    7.70
  -7   1   8   45.33   10.21
   7   1  -8   27.28    8.67
   6  -1  -8  517.76   28.49
  -6  -1   8  532.81   30.53
  -6  -1   8  501.94   27.32
   6  -1  -8  535.66   29.75
   6   1  -8  569.33   24.27
   6   1  -8  483.52   27.45
  -6   1   8  511.62   26.15
  -5  -1   8  140.19   16.60
   5  -1  -8  124.76   15.55
  -5  -1   8  105.19   15.00
   5  -1  -8  119.31   16.02
   5   1  -8  115.13   11.26
  -5   1   8   98.24   12.55
   5   1  -8  129.93   16.47
  -4  -1   8  732.72   34.92
  -4  -1   8  802.14   36.74
   4  -1  -8  742.98   32.10
   4  -1  -8  762.38   36.19
  -4   1   8  814.44   32.61
   4   1  -8  830.36   36.66
   4   1  -8  807.83   27.16
  -3  -1   8  584.93   30.35
  -3  -1   8  618.93   31.07
   3  -1  -8  605.13   31.91
   3  -1  -8  644.37   25.82
  -3   1   8  658.64   27.81
   3   1  -8  630.48   31.87
   3   1  -8  646.21   21.05
  -2  -1   8  122.55   15.70
  -2  -1   8   92.74   13.35
   2  -1  -8  117.74    8.64
   2  -1  -8  103.29   15.39
  -2   1   8  121.61   12.88
   2   1  -8  123.51    5.67
   2   1  -8  144.75   17.60
   1  -1  -8   13.83    7.28
   1  -1  -8   22.85    4.50
  -1  -1   8    9.24    5.41
  -1   1   8   18.73    4.44
   1   1  -8    8.56    6.30
  -1   1   8    5.35    4.01
   0  -1   8  142.83   16.55
   0  -1  -8  163.33   20.39
   0   1   8  176.30   10.39
   0   1   8  190.00   14.03
   0   1  -8  164.44   20.29
   1  -1   8  180.47    8.47
  -1  -1  -8  151.63   20.33
  -1  -1  -8  185.04   17.28
   1  -1   8  187.89   19.32
   1   1   8  163.08   15.69
  -1   1  -8  148.84   20.52
   1   1   8  187.03   10.99
   2  -1   8  547.32   23.77
  -2  -1  -8  559.07   26.65
  -2  -1  -8  533.27   32.46
   2  -1   8  499.87   27.67
  -2   1  -8  526.21   28.88
  -2   1  -8  569.97   35.55
   2   1   8  555.11   22.55
   2   1   8  549.05   26.42
   3  -1   8  912.90   41.45
   3  -1   8 1075.24   41.50
  -3  -1  -8  968.30   38.89
  -3  -1  -8  913.24   45.18
   3   1   8  960.03   34.96
   3   1   8  946.47   38.43
  -3   1  -8  897.65   41.61
  -3   1  -8  992.64   50.14
  -4  -1  -8 1512.94   61.17
   4  -1   8 1510.83   57.48
   4  -1   8 1475.26   57.17
  -4  -1  -8 1495.23   54.48
  -4   1  -8 1544.35   58.23
  -4   1  -8 1449.34   64.57
   4   1   8 1445.59   50.60
  -5  -1  -8    4.87    6.61
   5  -1   8    2.24    6.56
  -5  -1  -8    2.47    5.40
   5  -1   8    0.70    5.15
  -5   1  -8    1.83    7.55
  -5   1  -8   -1.21    4.69
   5   1   8    1.73    5.07
  -6  -1  -8   27.77    8.92
  -6  -1  -8   24.31    8.60
   6  -1   8   44.37   12.75
   6   1   8   16.19    7.37
  -6   1  -8   22.12    9.24
  -6   1  -8   23.02    9.74
  -7  -1  -8   23.71    9.35
  -7  -1  -8   25.89    9.17
   7  -1   8   19.65   10.34
  -7   1  -8   33.69   11.07
  -7   1  -8   29.48    9.60
   7   1   8   30.10    9.53
  -8  -1  -8  307.52   23.35
  -8  -1  -8  277.64   27.13
   8  -1   8  302.77   32.09
  -8   1  -8  302.09   30.06
   8   1   8  281.30   26.97
  -9  -1  -8   92.82   17.72
   9  -1   8  130.40   22.41
  -9  -1  -8   94.22   15.73
   9   1   8  115.51   19.26
  -9   1  -8   98.21   18.04
 -10  -1  -8  166.55   23.62
  10  -1   8  141.52   24.82
  10   1   8  159.13   23.49
 -10   1  -8  114.73   20.60
 -11  -1  -8    8.42   10.77
  11  -1   8   14.16   12.75
  11   1   8   13.62    9.96
 -11   1  -8   21.27   11.93
 -11  -2   8  110.96   20.44
 -11  -2   8  119.73   17.95
  11  -2  -8  106.36   22.51
  11   2  -8  141.81   20.32
 -11   2   8  129.92   18.69
 -10  -2   8  348.75   33.98
 -10  -2   8  323.08   24.81
  10  -2  -8  320.10   34.31
 -10   2   8  285.78   22.23
  10   2  -8  303.32   29.03
  10   2  -8  307.43   23.59
   9  -2  -8   27.91   12.59
  -9  -2   8   35.27   11.74
  -9  -2   8   40.99   11.04
   9   2  -8   11.25    7.35
  -9   2   8   33.02    9.40
   9   2  -8   34.51   10.65
   8  -2  -8    4.49    8.36
  -8  -2   8   17.35    8.97
  -8  -2   8    6.35    5.92
   8   2  -8   14.79    7.55
   8   2  -8   15.12    7.78
  -8   2   8    8.22    6.22
  -7  -2   8   63.96   12.59
  -7  -2   8   44.75   11.93
   7  -2  -8   51.02   12.47
  -7   2   8   47.79    9.75
   7   2  -8   53.04   12.25
   7   2  -8   44.03    8.99
  -6  -2   8   82.84   14.55
   6  -2  -8   95.22   15.78
  -6  -2   8  117.49   16.39
   6   2  -8  118.13   13.19
  -6   2   8  128.15   13.94
   6   2  -8  117.11   16.74
   5  -2  -8   38.05    8.73
  -5  -2   8   41.18   10.06
  -5  -2   8   33.54   10.32
   5  -2  -8   36.27   10.33
  -5   2   8   35.89    7.73
   5   2  -8   36.06    7.25
   5   2  -8   33.47   10.00
   4  -2  -8  607.06   29.53
  -4  -2   8  607.29   31.37
   4  -2  -8  616.85   30.76
  -4  -2   8  595.28   32.59
  -4   2   8  614.27   25.71
   4   2  -8  601.66   32.41
   4   2  -8  617.21   24.38
  -3  -2   8   21.41    8.04
   3  -2  -8   19.59    7.49
  -3  -2   8   21.93    7.36
   3  -2  -8   24.47    7.22
  -3   2   8   18.86    5.18
   3   2  -8   13.21    6.77
   3   2  -8   22.76    4.81
  -2  -2   8  896.57   40.60
  -2  -2   8  928.37   41.39
   2  -2  -8  930.43   36.47
   2  -2  -8  858.12   39.24
  -2   2   8  911.23   33.12
  -2   2   8  925.31   37.47
   2   2  -8  905.49   40.95
   2   2  -8  946.62   30.55
  -1  -2   8   67.45   12.28
   1  -2  -8   73.67   10.35
   1  -2  -8   61.01   12.39
  -1  -2   8   56.56   11.49
   1   2  -8   84.46    8.11
  -1   2   8   84.91    9.90
  -1   2   8   85.62   11.82
   1   2  -8   53.32   11.46
   0  -2  -8   21.41    5.96
   0  -2   8   18.10    6.79
   0  -2   8   12.95    7.01
   0  -2  -8   25.17    9.14
   0  -2   8   21.03    4.46
   0  -2  -8   21.40    5.78
   0   2  -8   18.75    8.14
   0   2   8   23.38    6.73
   0   2   8   25.54    5.89
   0   2  -8   14.19    3.99
   1  -2   8  267.42   20.39
  -1  -2  -8  277.32   15.12
   1  -2   8  245.29   24.31
  -1  -2  -8  237.45   23.92
   1  -2   8  268.05   14.40
  -1   2  -8  223.37   23.84
   1   2   8  261.91   14.09
   1   2   8  267.42   17.34
  -1   2  -8  279.39   14.83
  -2  -2  -8  359.67   18.03
   2  -2   8  334.43   18.55
  -2  -2  -8  317.14   23.79
   2  -2   8  315.48   22.01
  -2   2  -8  277.15   27.97
   2   2   8  371.97   20.83
  -2   2  -8  309.29   22.33
  -3  -2  -8  422.44   20.97
   3  -2   8  403.83   24.05
  -3  -2  -8  377.95   26.79
   3  -2   8  397.50   25.93
  -3   2  -8  423.82   30.17
   3   2   8  441.18   23.79
  -3   2  -8  435.04   26.93
   4  -2   8  287.90   21.86
  -4  -2  -8  246.34   25.17
   4  -2   8  286.36   23.26
  -4  -2  -8  261.05   17.38
  -4   2  -8  273.77   21.23
   4   2   8  218.95   17.67
  -4   2  -8  269.75   29.70
  -5  -2  -8  104.98   13.63
   5  -2   8   99.72   15.94
  -5  -2  -8  144.51   20.15
   5  -2   8  108.83   18.77
  -5   2  -8   85.93   15.40
  -5   2  -8  109.28   19.37
   5   2   8   91.12   13.81
  -6  -2  -8   22.52    8.53
  -6  -2  -8   20.82    9.07
   6  -2   8   20.14   11.81
   6   2   8   17.04    8.03
  -6   2  -8   21.57    9.09
  -7  -2  -8    5.66    7.39
  -7  -2  -8   14.45    8.08
   7  -2   8   -2.48    7.80
  -7   2  -8   -0.68    6.35
   7   2   8    6.06    6.96
  -8  -2  -8   76.28   14.82
  -8  -2  -8   76.04   16.92
   8  -2   8   53.44   16.36
   8   2   8   33.89   12.01
  -8   2  -8   65.10   14.55
  -9  -2  -8   30.73   11.22
   9  -2   8   12.60   13.50
  -9   2  -8   25.75   11.35
   9   2   8   30.11   11.44
 -10  -2  -8   14.09    8.51
  10  -2   8   10.07   12.91
 -10   2  -8    6.65   10.43
  10   2   8    3.44    9.79
 -10  -3   8   31.45   11.53
 -10  -3   8   20.60    9.72
  10  -3  -8   20.91   13.03
  10   3  -8   23.20   10.43
  10   3  -8   19.93   16.48
   9  -3  -8  149.88   23.31
  -9  -3   8   89.11   16.53
  -9  -3   8  124.47   20.94
   9   3  -8   93.55   15.19
   8  -3  -8   20.84   10.72
  -8  -3   8   22.55   10.74
  -8  -3   8   20.44    9.66
   8   3  -8   22.35    8.85
  -7  -3   8   18.78    9.33
   7  -3  -8   17.79    9.90
  -7  -3   8   14.27    8.44
   7   3  -8   15.15    7.22
  -6  -3   8  319.22   25.62
   6  -3  -8  348.50   27.08
  -6  -3   8  330.61   24.63
   6   3  -8  333.51   21.07
   5  -3  -8   80.38   15.33
  -5  -3   8   54.76   13.28
  -5  -3   8   62.01   12.90
   5   3  -8   53.22   12.85
   5   3  -8   53.44    9.67
  -4  -3   8  489.60   30.38
   4  -3  -8  468.39   29.37
   4  -3  -8  432.99   24.93
  -4  -3   8  441.59   28.16
   4   3  -8  503.36   30.60
   4   3  -8  494.62   23.82
  -3  -3   8  355.33   25.38
   3  -3  -8  376.17   24.88
   3  -3  -8  341.42   22.34
  -3  -3   8  346.30   24.55
   3   3  -8  353.17   24.92
  -3   3   8  320.43   24.48
   3   3  -8  333.49   18.86
   2  -3  -8   61.54   12.20
  -2  -3   8   59.90   12.45
   2  -3  -8   58.87   11.87
  -2  -3   8   48.18   11.15
   2   3  -8   64.96   13.15
   2   3  -8   52.03    8.66
  -2   3   8   38.35   10.17
  -1  -3   8   13.20    6.61
   1  -3  -8   13.09    7.15
   1  -3  -8   13.13    7.20
  -1  -3   8   10.43    6.64
  -1   3   8   15.02    7.67
   1   3  -8    5.74    4.78
   1   3  -8   12.15    7.24
   0  -3  -8  140.14   17.41
   0  -3   8  110.62   16.10
   0  -3  -8  111.61   16.80
   0  -3   8   93.86   14.96
   0  -3   8  129.69   13.69
   0   3  -8  100.89   15.75
   0   3   8  121.88   16.81
   0   3  -8   99.62   12.09
   1  -3   8   81.64   14.46
  -1  -3  -8  121.05   17.79
   1  -3   8  125.83   14.11
   1  -3   8   91.94   14.79
  -1   3  -8   98.93   15.48
   1   3   8   96.54   15.51
  -1   3  -8   94.60   12.39
   2  -3   8  333.12   24.37
  -2  -3  -8  313.85   24.06
   2  -3   8  326.64   23.37
   2  -3   8  304.00   19.76
   2   3   8  258.78   20.93
  -2   3  -8  287.90   22.05
  -2   3  -8  308.57   24.26
   3  -3   8  598.92   31.41
  -3  -3  -8  590.68   34.55
   3  -3   8  539.12   32.21
  -3   3  -8  541.48   33.99
  -3   3  -8  555.59   32.13
   3   3   8  573.35   32.11
   4  -3   8  847.07   42.30
   4  -3   8  843.08   41.29
  -4  -3  -8  801.61   42.50
  -4   3  -8  894.34   45.84
   4   3   8  791.35   40.41
  -4   3  -8  880.88   41.39
   5  -3   8   -5.53    6.38
   5  -3   8    3.31    6.23
  -5  -3  -8    4.30    7.34
  -5   3  -8   -1.26    5.04
   5   3   8    9.48    7.40
  -6  -3  -8   18.50    9.49
   6  -3   8   18.91   12.35
   6   3   8   14.21    9.48
  -6   3  -8   13.78    8.45
  -7  -3  -8   27.71   11.74
   7  -3   8   13.09   11.79
   7   3   8   16.65    9.88
  -7   3  -8   23.48   10.51
   8  -3   8  201.34   30.20
  -8  -3  -8  193.91   24.73
   8   3   8  160.44   23.11
  -8   3  -8  203.29   24.82
  -9  -3  -8   58.25   14.74
   9  -3   8   85.02   21.06
  -9   3  -8   45.06   12.78
   9   3   8   57.04   16.82
  -8  -4   8    0.97    7.11
   8  -4  -8   11.43   10.64
  -8  -4   8    3.58    8.06
   7  -4  -8   37.13   13.35
  -7  -4   8   24.51   10.90
  -7  -4   8   11.23    9.14
  -6  -4   8   38.30   11.89
  -6  -4   8   73.33   15.16
   6  -4  -8   81.73   17.14
  -5  -4   8   26.01    9.84
  -5  -4   8   26.81   10.28
   5  -4  -8   11.38    9.21
   4  -4  -8  292.49   30.01
  -4  -4   8  288.24   27.99
  -4  -4   8  295.64   29.34
  -4   4   8  293.91   32.36
  -3  -4   8   16.53    8.60
  -3  -4   8    6.18    7.24
   3  -4  -8   17.40    9.94
   3  -4  -8   17.51    7.90
   3   4  -8   15.25    8.83
  -3   4   8   22.29   10.85
   2  -4  -8  450.07   30.92
  -2  -4   8  423.98   28.49
   2  -4  -8  439.63   27.55
  -2  -4   8  447.40   29.72
   2   4  -8  522.20   31.71
  -2   4   8  440.56   31.69
   1  -4  -8   53.35   12.22
   1  -4  -8   36.00   11.77
  -1  -4   8   20.76    9.23
  -1  -4   8   37.17   11.14
  -1   4   8   23.27   10.83
   1   4  -8   30.76   10.02
   0  -4  -8    7.92    8.46
   0  -4  -8    8.57    7.18
   0  -4   8    2.81    6.46
   0  -4   8    9.51    6.47
   0   4  -8    6.49    6.80
   0   4   8   17.26    9.59
  -1  -4  -8  136.52   19.92
   1  -4   8  130.32   18.13
   1  -4   8  109.83   17.77
   1   4   8  105.89   19.04
  -1   4  -8  119.22   18.87
  -1   4  -8  124.02   23.69
  -1   4  -8  131.12   18.52
   2  -4   8  123.81   18.21
  -2  -4  -8  142.80   20.34
   2  -4   8  140.07   19.68
  -2   4  -8  120.68   20.73
  -2   4  -8  158.70   20.44
  -2   4  -8  152.21   20.48
   2   4   8  153.41   22.59
   3  -4   8  206.67   23.14
  -3  -4  -8  245.07   27.53
   3   4   8  237.83   27.74
  -3   4  -8  170.09   21.50
   4  -4   8  168.82   21.83
  -4  -4  -8  140.64   20.97
  -4   4  -8  182.82   22.87
   4   4   8  134.28   21.92
  -5  -4  -8   75.18   16.45
   5  -4   8   41.15   11.35
  -5   4  -8   32.04   10.88
   5   4   8   47.68   13.69
  -6  -4  -8   22.85   11.24
   6   4   8   26.51   11.38
  -6   4  -8   16.27    9.70
  -7  -4  -8    0.92    8.64
  -7   4  -8   -3.52    6.93
   7   4   8    4.37   10.70
   3  -5  -8  166.18   25.02
  -3  -5   8  140.77   21.70
  -3   5   8  147.81   24.98
   3   5  -8  131.18   20.47
   2  -5  -8   28.08   13.26
  -2  -5   8   26.08   11.90
   2   5  -8   27.19   11.65
  -2   5   8   12.96   12.22
  -1  -5   8   -0.73    7.46
   1  -5  -8   15.17    9.03
   1  -5  -8    7.82    9.55
   1   5  -8    8.07    7.90
  -1   5   8   21.71   12.01
   0  -5   8   56.43   14.75
   0  -5  -8   69.36   14.82
   0   5  -8   53.63   13.76
   0   5   8   32.44   14.14
  -1  -5  -8   45.67   13.32
   1  -5   8   49.48   14.21
  -1   5  -8   53.32   14.02
   1   5   8   47.04   15.31
  -2  -5  -8  145.98   22.18
   2   5   8  151.38   24.17
 -12   0   9   22.01   12.02
  12   0  -9   40.49   12.86
  11   0  -9   92.65   17.89
 -11   0   9  117.55   19.31
 -10   0   9    1.83    6.84
  10   0  -9    9.16    8.37
   9   0  -9  219.24   23.30
  -9   0   9  174.24   21.35
   8   0  -9    8.69    6.79
   8   0  -9   15.64    8.80
  -8   0   9   10.29    6.72
   7   0  -9   12.03    6.34
  -7   0   9    2.91    5.29
   7   0  -9    1.94    6.85
  -6   0   9    4.27    5.70
   6   0  -9    7.63    7.63
   6   0  -9   13.16    6.04
  -5   0   9 1407.97   52.93
   5   0  -9 1374.21   47.42
   5   0  -9 1352.44   56.00
  -4   0   9   13.06    6.40
   4   0  -9   16.07    5.07
   4   0  -9    5.52    6.64
  -3   0   9 1043.81   40.83
   3   0  -9  942.75   44.78
   3   0  -9  928.66   29.23
  -2   0   9   98.93   13.62
   2   0  -9   67.32   14.29
   1   0  -9 1243.91   55.25
  -1   0   9 1353.44   49.62
   0   0   9  975.03   40.66
   0   0  -9  974.54   47.54
   1   0   9 1189.40   46.46
  -1   0  -9 1113.30   53.93
   2   0   9   83.49    8.51
  -2   0  -9   59.50   11.46
   2   0   9   88.14   13.67
  -2   0  -9   89.34   17.96
   3   0   9  400.25   18.79
   3   0   9  322.20   22.93
  -3   0  -9  372.58   30.02
  -3   0  -9  315.32   22.87
   4   0   9  197.39   21.58
  -4   0  -9  179.79   25.00
  -4   0  -9  216.54   23.43
   4   0   9  205.34   14.96
  -5   0  -9 1207.29   54.78
  -5   0  -9 1116.51   49.20
   5   0   9 1079.78   43.43
   6   0   9  110.63   15.46
  -6   0  -9  102.47   16.89
  -6   0  -9  106.98   18.38
  -7   0  -9  420.48   29.01
   7   0   9  393.93   27.08
  -7   0  -9  502.35   30.76
  -8   0  -9  572.86   32.65
   8   0   9  566.85   34.63
  -8   0  -9  575.44   36.58
  -9   0  -9   86.62   18.46
   9   0   9  101.68   18.84
  10   0   9 1101.23   55.85
 -10   0  -9 1069.46   55.33
  11   0   9   62.09   17.22
 -11   0  -9   44.57   14.81
 -12  -1   9  159.03   24.50
  12  -1  -9  115.88   21.40
 -12   1   9  138.82   21.78
  11  -1  -9   49.43   15.09
 -11  -1   9   28.03   11.18
  11   1  -9   45.05   12.99
 -11   1   9   37.72   11.65
 -10  -1   9   60.77   13.27
 -10  -1   9   62.87   14.50
  10  -1  -9   56.92   15.86
  10   1  -9   57.37   12.40
  10   1  -9   50.39   12.09
 -10   1   9   50.75   12.31
  -9  -1   9  148.79   20.93
   9  -1  -9  115.44   18.80
  -9  -1   9  122.53   17.31
   9   1  -9  109.31   15.63
   9   1  -9  117.10   16.90
  -9   1   9  128.74   18.08
  -8  -1   9   74.89   14.43
   8  -1  -9   74.57   15.20
  -8  -1   9   86.38   14.09
   8   1  -9   96.24   13.38
   8   1  -9   57.55   11.66
  -8   1   9   54.04   11.31
   7  -1  -9   24.40    9.55
   7  -1  -9   38.62   10.73
  -7  -1   9   14.72    7.57
  -7  -1   9   16.27    8.43
   7   1  -9    9.64    5.49
   7   1  -9   12.31    7.62
  -7   1   9   15.47    7.39
  -6  -1   9  126.12   17.48
  -6  -1   9  164.27   20.09
   6  -1  -9  129.73   17.22
   6  -1  -9  161.36   18.54
   6   1  -9  137.57   18.20
  -6   1   9  131.93   15.60
   6   1  -9  133.06   13.11
  -5  -1   9  210.55   21.28
   5  -1  -9  260.41   20.92
   5  -1  -9  234.63   17.20
  -5  -1   9  190.18   20.80
  -5   1   9  254.13   17.61
   5   1  -9  211.35   13.76
   5   1  -9  201.34   21.27
  -4  -1   9   42.24   10.51
   4  -1  -9   47.12    8.41
   4  -1  -9   59.74   12.32
  -4  -1   9   46.59   11.37
  -4   1   9   66.02   10.62
   4   1  -9   45.69   10.94
  -3  -1   9   19.48    8.13
   3  -1  -9   20.66    8.30
  -3  -1   9   30.38    8.79
   3  -1  -9   33.90    6.10
   3   1  -9   36.96   10.91
  -3   1   9   43.67    8.55
  -2  -1   9   54.04   10.89
   2  -1  -9   69.47   13.82
   2  -1  -9   96.39    9.07
  -2   1   9   82.67    8.87
  -2   1   9   88.81   11.95
   2   1  -9   86.19   15.29
   1  -1  -9 1651.47   48.58
  -1  -1   9 1714.75   61.25
   1  -1  -9 1590.53   63.93
   1   1  -9 1717.52   65.95
  -1   1   9 1704.48   57.10
  -1   1   9 1617.95   49.11
   0  -1  -9  760.25   39.68
   0  -1   9  674.93   34.07
   0   1   9  727.37   32.21
   0   1   9  721.59   25.31
   0   1  -9  711.72   39.47
   1  -1   9  591.76   31.06
  -1  -1  -9  591.03   28.83
  -1  -1  -9  508.64   33.64
   1   1   9  554.23   21.57
   1   1   9  563.33   27.67
  -1   1  -9  538.23   35.26
   2  -1   9   78.23   13.04
  -2  -1  -9  108.00   14.70
  -2  -1  -9   81.08   16.71
  -2   1  -9   82.97   17.40
   2   1   9  102.79   10.71
  -2   1  -9   89.65   14.93
   2   1   9   99.91   13.98
   3  -1   9  253.35   19.38
   3  -1   9  277.17   22.00
  -3  -1  -9  269.56   20.02
  -3  -1  -9  276.74   29.97
  -3   1  -9  279.49   26.93
   3   1   9  240.82   15.21
  -3   1  -9  273.37   32.38
   3   1   9  257.70   19.21
  -4  -1  -9   61.98   15.02
   4  -1   9   36.80   10.21
  -4  -1  -9   40.24   10.20
   4  -1   9   44.40   10.92
   4   1   9   40.06    8.58
  -4   1  -9   48.95   15.66
  -4   1  -9   42.04   11.00
   5  -1   9  698.74   36.38
   5  -1   9  681.55   36.52
  -5  -1  -9  693.98   39.31
  -5  -1  -9  633.76   34.08
   5   1   9  671.19   31.09
  -5   1  -9  651.49   36.26
  -5   1  -9  589.53   38.75
   6  -1   9  362.37   27.01
  -6  -1  -9  345.91   25.33
  -6  -1  -9  278.23   28.53
   6   1   9  372.57   23.61
  -6   1  -9  400.75   29.25
  -6   1  -9  361.74   27.08
  -7  -1  -9    0.07    7.09
   7  -1   9    1.98    7.95
  -7  -1  -9    3.47    6.60
  -7   1  -9    2.67    7.62
  -7   1  -9   -1.91    6.77
   7   1   9   -1.18    6.11
   8  -1   9  301.65   32.31
  -8  -1  -9  325.83   32.50
  -8  -1  -9  363.74   27.29
   8   1   9  379.34   27.11
  -8   1  -9  414.74   30.11
  -9  -1  -9  323.01   25.60
   9  -1   9  329.78   34.60
   9   1   9  359.35   27.72
  -9   1  -9  301.64   32.13
  10  -1   9   82.98   19.88
 -10  -1  -9   45.07   14.05
  10   1   9   62.00   15.97
 -10   1  -9   82.06   19.87
 -11  -2   9  103.93   17.36
  11  -2  -9   87.40   19.75
 -11  -2   9  104.02   19.61
  11   2  -9   77.01   14.98
 -11   2   9   86.73   15.26
  10  -2  -9    3.72    8.15
 -10  -2   9    1.22    7.30
 -10  -2   9   12.94    8.53
  10   2  -9   16.77    9.88
 -10   2   9    3.72    6.95
   9  -2  -9  128.38   20.22
  -9  -2   9  191.18   22.06
  -9  -2   9  146.16   22.04
   9   2  -9  163.63   21.35
  -9   2   9  174.08   19.92
  -8  -2   9   11.03    7.42
  -8  -2   9    7.45    7.33
   8  -2  -9   27.04   10.80
  -8   2   9   11.91    6.99
   8   2  -9   29.46   10.41
  -7  -2   9   -1.92    5.59
   7  -2  -9   12.29    8.41
  -7  -2   9    3.33    6.77
  -7   2   9    1.95    4.82
   7   2  -9   10.02    7.62
   6  -2  -9    5.49    6.68
  -6  -2   9    2.58    5.24
  -6  -2   9    1.94    7.21
   6   2  -9    3.27    6.01
  -6   2   9   12.58    5.97
   5  -2  -9 1031.38   42.05
  -5  -2   9 1002.49   46.73
  -5  -2   9 1048.34   45.75
   5  -2  -9 1040.87   43.59
  -5   2   9  974.16   38.49
   5   2  -9 1066.87   47.13
  -4  -2   9    4.93    6.07
   4  -2  -9    3.25    4.81
  -4  -2   9    3.28    5.85
   4  -2  -9    7.96    6.44
   4   2  -9    6.35    6.02
  -4   2   9    5.54    4.64
  -3  -2   9  697.20   36.10
  -3  -2   9  657.86   34.93
   3  -2  -9  719.81   30.93
   3  -2  -9  704.12   34.63
   3   2  -9  712.18   36.58
  -3   2   9  696.52   28.57
   2  -2  -9   48.52   11.20
   2  -2  -9   77.28   10.82
  -2  -2   9   63.95   12.87
  -2  -2   9   63.19   13.01
  -2   2   9  100.63   11.64
   2   2  -9   53.91   11.95
  -2   2   9   73.33   11.02
   1  -2  -9  944.11   44.38
  -1  -2   9  926.94   42.98
   1  -2  -9  990.43   36.87
  -1  -2   9 1008.74   45.02
  -1   2   9  961.00   37.18
   1   2  -9  970.39   44.87
  -1   2   9  853.36   45.15
   0  -2  -9  732.88   38.65
   0  -2   9  731.83   38.00
   0  -2   9  762.82   37.19
   0   2  -9  743.23   39.20
   0   2   9  723.94   31.12
   1  -2   9  805.34   39.48
  -1  -2  -9  834.45   43.16
   1   2   9  848.38   34.53
  -1   2  -9  890.06   44.22
   2  -2   9   60.75   12.15
  -2  -2  -9   21.84    9.63
  -2   2  -9   95.67   17.75
   2   2   9   83.41   11.68
  -2   2  -9   61.32   13.03
  -3  -2  -9  247.25   27.05
   3  -2   9  242.23   24.55
  -3   2  -9  301.17   31.40
   3   2   9  245.56   17.43
  -3   2  -9  217.51   23.59
  -4  -2  -9  123.59   19.54
   4  -2   9  115.47   17.54
  -4   2  -9   88.07   15.21
   4   2   9  162.52   17.76
  -4   2  -9  157.72   24.07
   5  -2   9  849.17   43.06
  -5  -2  -9  814.73   44.80
   5   2   9  872.36   39.15
  -5   2  -9  831.76   43.20
  -5   2  -9 1009.75   51.03
  -6  -2  -9   53.32   13.95
  -6   2  -9   97.63   17.20
   6   2   9  116.00   17.33
  -7  -2  -9  387.66   29.37
   7  -2   9  324.03   52.79
  -7   2  -9  411.96   29.96
   7   2   9  369.96   26.99
  -8  -2  -9  467.12   32.76
   8   2   9  474.96   31.47
  -8   2  -9  469.10   33.37
  -9  -2  -9   83.68   16.88
   9   2   9   80.79   16.50
  -9   2  -9   80.08   17.79
 -10  -2  -9  973.26   49.20
  10   2   9  870.36   48.99
 -10   2  -9  944.34   51.41
  10  -3  -9   43.12   14.99
 -10  -3   9   55.88   13.99
 -10  -3   9   56.24   16.05
  10   3  -9   35.37   12.08
  -9  -3   9   85.74   17.99
   9  -3  -9   64.83   15.96
  -9  -3   9   85.81   16.52
   9   3  -9   59.81   14.36
  -8  -3   9   43.13   12.57
  -8  -3   9   47.37   14.04
   8  -3  -9   29.41   10.96
   8   3  -9   49.64   14.47
  -7  -3   9   12.71    8.60
   7  -3  -9    9.98    8.35
  -7  -3   9   13.32    9.20
   7   3  -9    4.91    6.97
   6  -3  -9   93.85   16.75
  -6  -3   9   78.54   15.02
  -6  -3   9   73.42   15.30
   6   3  -9   46.16   12.59
   5  -3  -9  201.80   23.46
  -5  -3   9  153.96   21.09
  -5  -3   9  104.81   16.42
   5   3  -9  138.39   19.64
   4  -3  -9   26.37    8.90
  -4  -3   9   46.44   12.58
  -4  -3   9   22.59    8.90
   4  -3  -9   33.13    9.28
   4   3  -9   39.31   11.27
  -3  -3   9   15.22    7.46
   3  -3  -9   15.25    7.49
   3  -3  -9   28.12    9.48
  -3  -3   9   21.08    8.60
   3   3  -9   22.82    9.31
  -3   3   9   10.17    8.44
   2  -3  -9   36.28   10.15
  -2  -3   9   59.89   12.86
  -2  -3   9   33.86   10.00
   2  -3  -9   44.47   10.61
  -2   3   9   74.61   13.78
   2   3  -9   29.15   10.08
  -1  -3   9 1007.88   45.54
  -1  -3   9  876.68   43.29
   1  -3  -9  961.81   44.38
   1  -3  -9  967.38   41.43
  -1   3   9  877.81   40.97
   1   3  -9  939.59   44.93
   0  -3  -9  394.96   24.31
   0  -3  -9  471.98   29.78
   0  -3   9  454.04   29.56
   0  -3   9  388.68   27.03
   0   3   9  414.63   25.51
   0   3  -9  448.44   29.53
   1  -3   9  352.34   25.49
   1  -3   9  330.29   25.68
  -1  -3  -9  308.80   25.26
  -1   3  -9  354.19   27.03
   1   3   9  345.24   23.56
   2  -3   9   38.41   10.80
   2  -3   9   57.84   13.86
  -2  -3  -9   53.78   13.37
  -2   3  -9   58.47   12.93
   2   3   9   47.63   11.65
  -2   3  -9   53.35   14.40
   3  -3   9  134.47   19.26
  -3  -3  -9  150.40   21.89
  -3   3  -9  144.05   21.91
   3   3   9  143.92   18.78
  -3   3  -9  124.56   18.88
  -4  -3  -9   26.09   10.60
   4  -3   9   32.27   10.63
  -4   3  -9   39.44   11.20
  -4   3  -9   27.93   12.14
   4   3   9   29.44    9.68
  -5  -3  -9  387.54   30.70
   5  -3   9  406.54   28.78
   5   3   9  407.38   28.65
  -5   3  -9  356.69   27.20
  -6  -3  -9  250.87   29.10
   6   3   9  208.68   24.48
  -6   3  -9  238.18   27.03
  -7  -3  -9   14.33    9.93
   7   3   9    0.53    6.98
  -7   3  -9    3.61    7.34
  -8  -3  -9  230.04   28.54
   8   3   9  268.40   29.64
  -8   3  -9  209.18   26.18
  -7  -4   9    4.96    8.17
   7  -4  -9    6.33    9.37
  -7  -4   9  -13.00    6.17
   7   4  -9   -0.53    9.12
  -6  -4   9    8.96    8.64
   6  -4  -9   12.51    9.64
  -6  -4   9    3.24    8.03
   6   4  -9   -3.19    6.87
  -5  -4   9  567.83   35.60
  -5  -4   9  524.48   34.56
   5  -4  -9  500.05   34.32
   5   4  -9  497.11   34.72
  -5   4   9  573.32   38.20
  -4  -4   9   21.61    9.84
   4  -4  -9    1.19    7.80
  -4  -4   9    1.07    6.73
   4   4  -9    4.99    8.23
  -4   4   9    4.91    8.36
   3  -4  -9  419.52   29.60
   3  -4  -9  351.53   27.08
  -3  -4   9  370.98   27.75
  -3  -4   9  327.80   26.69
  -3   4   9  367.30   28.92
   3   4  -9  332.87   27.13
  -2  -4   9   25.76   10.62
   2  -4  -9   30.91   10.80
   2  -4  -9   27.02   10.28
  -2  -4   9   33.56   10.25
   2   4  -9   33.04   11.55
  -2   4   9   39.72   11.87
   1  -4  -9  460.24   30.65
  -1  -4   9  472.27   31.84
  -1  -4   9  448.69   30.39
   1  -4  -9  520.57   31.53
  -1   4   9  486.44   32.36
   1   4  -9  482.24   32.04
   0  -4   9  394.25   28.62
   0  -4  -9  325.34   25.71
   0  -4   9  306.33   24.83
   0   4  -9  367.32   27.67
   0   4   9  342.32   27.34
  -1  -4  -9  437.78   30.51
   1  -4   9  429.48   30.75
  -1   4  -9  412.27   30.32
   1   4   9  453.13   31.15
  -1   4  -9  439.24   29.73
   2  -4   9   31.59   10.79
  -2  -4  -9   30.77   11.09
   2  -4   9   23.81   10.18
   2   4   9   39.08   12.85
  -2   4  -9   51.33   12.96
  -2   4  -9   30.96   11.05
  -3  -4  -9  116.54   20.67
   3  -4   9  161.18   21.45
   3   4   9  132.90   20.15
  -3   4  -9  129.88   19.28
   4  -4   9   87.76   16.80
  -4  -4  -9   59.57   15.55
   4   4   9   73.62   16.52
  -4   4  -9   49.74   13.04
   5  -4   9  417.63   30.36
  -5  -4  -9  367.43   36.50
   5   4   9  406.77   31.10
  -5   4  -9  434.96   30.37
  -6  -4  -9   50.56   15.27
  -6   4  -9   37.54   12.35
   6   4   9   50.55   15.74
 -12   0  10   51.26   13.88
 -11   0  10   23.67   10.41
 -10   0  10   83.24   15.82
  -9   0  10   -2.81    5.59
   8   0 -10   12.48    8.81
  -8   0  10   10.56    7.23
  -7   0  10   37.59   10.91
   7   0 -10   47.28   12.68
  -6   0  10 1160.05   48.23
   6   0 -10 1099.01   50.95
   5   0 -10   42.16   12.55
  -5   0  10   57.95   11.54
   4   0 -10    2.72    7.24
  -4   0  10   13.23    6.86
   3   0 -10  734.20   39.55
  -3   0  10  698.45   33.71
  -2   0  10   10.04    5.77
   2   0 -10    7.42    8.22
  -1   0  10   60.43   11.22
   1   0 -10   46.07   12.98
   0   0  10  236.40   18.92
   0   0 -10  282.21   29.67
   1   0  10    0.62    4.83
  -1   0 -10    0.19    8.26
   2   0  10  505.41   29.24
  -2   0 -10  532.72   37.37
  -2   0 -10  490.88   29.31
  -3   0 -10  312.22   35.10
   3   0  10  301.02   28.28
  -3   0 -10  270.69   27.07
   4   0  10  343.58   25.51
  -4   0 -10  325.49   35.17
  -4   0 -10  327.28   25.39
   5   0  10  235.19   25.45
  -5   0 -10  231.85   29.48
  -5   0 -10  181.06   23.27
  -6   0 -10  533.73   36.59
  -6   0 -10  522.12   33.54
  -7   0 -10   22.45   10.83
  -7   0 -10   15.58    9.47
  -8   0 -10    5.61    8.24
  -8   0 -10   12.23    9.44
  -9   0 -10   11.59   10.09
 -10   0 -10    1.08    9.59
 -11  -1  10    4.51    8.55
 -11   1  10   -3.35    6.45
 -10  -1  10   98.80   16.32
  10  -1 -10  134.03   23.98
 -10  -1  10   74.80   16.34
 -10   1  10  123.03   18.68
  -9  -1  10  113.63   17.42
  -9  -1  10   80.52   15.99
   9  -1 -10   98.96   17.97
  -9   1  10  106.19   16.47
   9   1 -10  129.52   19.11
  -8  -1  10  100.73   17.14
   8  -1 -10   89.11   15.84
  -8  -1  10  107.70   16.49
   8   1 -10   67.57   13.93
  -8   1  10   95.24   14.78
  -7  -1  10  279.55   26.66
   7  -1 -10  263.05   21.05
  -7  -1  10  291.97   28.22
   7  -1 -10  291.15   23.21
  -7   1  10  232.81   23.06
   7   1 -10  307.65   29.00
  -6  -1  10   91.63   15.78
   6  -1 -10  141.31   18.91
   6  -1 -10   92.92   13.77
  -6  -1  10  123.05   18.47
  -6   1  10  124.94   15.90
   6   1 -10  125.23   18.60
  -5  -1  10  700.14   36.44
   5  -1 -10  688.06   30.21
  -5  -1  10  689.78   36.48
   5  -1 -10  645.78   35.33
   5   1 -10  704.28   37.70
  -5   1  10  675.22   32.45
  -4  -1  10 1255.26   53.53
   4  -1 -10 1288.75   45.67
  -4  -1  10 1238.35   51.95
   4  -1 -10 1277.37   53.49
   4   1 -10 1313.38   55.79
  -4   1  10 1225.64   47.06
   3  -1 -10  277.88   27.28
  -3  -1  10  265.72   25.05
  -3   1  10  248.94   17.60
   3   1 -10  249.10   26.68
   2  -1 -10    5.79    7.36
  -2  -1  10    4.40    5.28
  -2   1  10    2.47    4.79
   2   1 -10    5.71    7.42
   1  -1 -10  585.19   34.30
  -1  -1  10  482.82   29.05
   1   1 -10  531.67   34.07
  -1   1  10  551.81   27.69
   0  -1  10   25.68    8.75
   0  -1 -10   21.71   10.38
   0   1 -10   25.01   10.88
   0   1  10   16.09    7.31
   1  -1  10  932.00   43.11
  -1  -1 -10  907.91   40.55
  -1  -1 -10  963.45   49.14
  -1   1 -10  921.27   48.84
   1   1  10  946.51   40.50
   2  -1  10  105.23   16.04
  -2  -1 -10   79.23   13.91
  -2  -1 -10   93.69   18.86
  -2   1 -10   87.28   15.48
   2   1  10   95.07   14.53
  -2   1 -10   80.18   18.63
   2   1  10   90.35    9.91
   3  -1  10  296.74   23.53
  -3  -1 -10  255.76   30.39
  -3  -1 -10  310.17   22.85
  -3   1 -10  323.47   35.01
   3   1  10  279.03   16.48
  -3   1 -10  259.79   26.96
   3   1  10  234.13   23.44
  -4  -1 -10  536.11   37.79
   4  -1  10  551.49   33.44
  -4  -1 -10  562.60   32.20
  -4   1 -10  585.83   34.34
  -4   1 -10  591.05   40.26
   4   1  10  566.50   26.74
  -5  -1 -10   56.22   15.94
  -5  -1 -10   70.23   14.66
   5  -1  10   42.05   11.98
  -5   1 -10   38.49   13.90
   5   1  10   36.01    8.65
  -5   1 -10   40.99   12.58
  -6  -1 -10  139.72   21.57
  -6  -1 -10  204.13   24.08
  -6   1 -10  184.40   25.66
   6   1  10  163.94   18.54
  -6   1 -10  192.05   24.98
  -7  -1 -10  511.53   35.30
  -7  -1 -10  515.22   33.94
   7   1  10  504.85   30.37
  -7   1 -10  532.31   35.63
  -7   1 -10  601.82   36.50
  -8  -1 -10  258.39   30.04
  -8  -1 -10  340.58   33.40
   8   1  10  314.13   24.91
  -8   1 -10  326.27   33.14
  -9  -1 -10    5.69   10.15
  -9  -1 -10   15.25   10.11
   9   1  10   10.20    8.84
  -9   1 -10   18.94   11.88
 -10  -1 -10  176.12   26.67
 -10   1 -10  198.57   27.28
  10   1  10  178.89   25.30
 -11  -2  10   13.20    9.40
  11  -2 -10    8.40   10.15
 -11  -2  10   -3.02    8.18
  11   2 -10    8.87    9.02
 -11   2  10   10.63    8.63
 -10  -2  10   76.60   16.00
  10  -2 -10   56.60   15.61
 -10  -2  10   83.45   17.69
  10   2 -10   99.34   18.27
 -10   2  10   69.85   13.47
  -9  -2  10    5.23    7.25
   9  -2 -10    6.81    7.63
  -9  -2  10   -1.03    5.89
  -9   2  10    1.48    6.52
   9   2 -10   -4.77    7.02
  -8  -2  10    0.34    7.32
  -8  -2  10    5.62    7.75
   8  -2 -10    4.69    7.82
   8   2 -10   10.09    8.69
  -8   2  10    7.43    6.75
  -7  -2  10   39.92   11.19
  -7  -2  10   34.67   12.19
   7  -2 -10   25.10    9.72
  -7   2  10   35.12    9.30
   7   2 -10   27.37   10.37
  -6  -2  10  963.82   46.96
  -6  -2  10  941.37   45.15
   6  -2 -10  953.07   42.29
   6   2 -10  893.40   45.49
  -6   2  10  979.58   39.25
  -5  -2  10   53.24   12.65
   5  -2 -10   41.44   10.42
   5  -2 -10   50.75   10.64
  -5  -2  10   51.60   11.98
  -5   2  10   45.58    9.21
   5   2 -10   52.85   12.71
  -4  -2  10    7.86    6.62
  -4  -2  10   14.40    8.37
   4  -2 -10   15.27    7.76
   4  -2 -10   21.20    7.07
   4   2 -10   10.63    7.38
   3  -2 -10  590.51   27.02
  -3  -2  10  556.85   32.93
  -3  -2  10  560.79   33.41
   3  -2 -10  560.24   32.19
  -3   2  10  584.88   28.05
   3   2 -10  558.80   33.69
   2  -2 -10    9.36    5.27
  -2  -2  10   10.67    7.90
  -2  -2  10    5.22    6.17
   2  -2 -10    9.36    8.30
  -2   2  10   18.24    6.46
   2   2 -10   19.30    9.35
  -1  -2  10   29.92    9.56
   1  -2 -10   32.29   10.76
   1  -2 -10   51.65    8.56
  -1  -2  10   41.15   12.04
  -1   2  10   51.03    8.98
   1   2 -10   34.83   12.17
   0  -2 -10  158.01   21.16
   0  -2  10  149.68   19.53
   0   2 -10  152.01   21.62
   0   2  10  167.03   13.49
   1  -2  10    5.20    6.14
  -1  -2 -10   10.62    8.59
   1   2  10   -0.81    4.26
  -1   2 -10    0.79    8.58
   2  -2  10  427.78   27.79
  -2  -2 -10  367.22   29.25
  -2   2 -10  342.40   34.62
   2   2  10  400.03   22.26
  -2   2 -10  330.58   25.56
   3  -2  10  144.57   20.19
  -3  -2 -10  189.58   25.26
  -3   2 -10  182.62   26.47
  -3   2 -10  164.78   22.20
   3   2  10  186.98   18.04
   4  -2  10  260.84   27.61
  -4  -2 -10  268.83   30.57
   4   2  10  237.75   18.68
  -4   2 -10  261.92   31.88
  -4   2 -10  241.20   27.02
  -5  -2 -10  170.65   24.99
   5  -2  10  156.94   21.98
  -5   2 -10  158.37   25.31
  -5   2 -10  173.29   23.30
   5   2  10  147.91   17.82
   6  -2  10  364.55   28.50
  -6  -2 -10  379.31   36.66
   6   2  10  417.59   26.99
  -6   2 -10  377.51   29.50
  -7  -2 -10   23.15   12.07
  -7   2 -10    6.69    8.78
   7   2  10   22.72   10.23
  -8  -2 -10    2.36    8.24
  -8   2 -10    4.96    8.72
   8   2  10    4.78    9.14
  -9  -2 -10    2.49    8.18
  -9   2 -10   -1.81    8.02
   9   2  10   -4.44    9.04
  -9  -3  10   65.53   15.46
   9  -3 -10   79.25   16.94
  -9  -3  10   88.98   18.97
   9   3 -10   97.05   18.99
  -8  -3  10   82.91   17.35
   8  -3 -10   85.46   17.32
  -8  -3  10   79.40   17.03
   8   3 -10  104.60   20.24
  -7  -3  10  181.33   23.33
   7  -3 -10  186.67   23.56
  -7  -3  10  161.15   23.62
   7   3 -10  145.63   22.66
  -6  -3  10   59.48   14.07
  -6  -3  10   82.33   16.50
   6  -3 -10  104.25   16.97
   6   3 -10   64.83   14.89
   5  -3 -10  388.49   26.39
  -5  -3  10  341.88   27.46
  -5  -3  10  406.31   29.23
   5   3 -10  437.19   30.67
   4  -3 -10  806.79   38.13
  -4  -3  10  761.62   40.88
  -4  -3  10  804.72   42.47
   4  -3 -10  780.95   37.69
   4   3 -10  726.02   41.15
  -4   3  10  780.29   39.23
  -3  -3  10  162.23   21.12
   3  -3 -10  145.46   17.68
  -3  -3  10  129.04   19.05
   3  -3 -10  136.60   17.82
   3   3 -10   92.57   16.81
  -3   3  10  109.45   16.63
  -2  -3  10   -2.16    5.41
   2  -3 -10   -2.75    4.84
   2  -3 -10   25.34    9.86
  -2  -3  10    3.65    6.77
  -2   3  10    3.22    5.51
   2   3 -10    9.58    8.12
  -1  -3  10  323.37   30.89
  -1  -3  10  332.36   25.22
   1  -3 -10  280.10   27.49
   1  -3 -10  274.46   20.29
  -1   3  10  323.36   22.10
   1   3 -10  288.23   29.19
   0  -3  10    6.21    7.74
   0  -3  10   15.22    8.72
   0  -3 -10    9.14    8.75
   0   3 -10   15.99   10.32
   0   3  10   18.44    7.70
  -1  -3 -10  464.00   33.07
   1  -3  10  489.73   33.22
   1  -3  10  510.25   32.07
  -1   3 -10  544.40   35.91
   1   3  10  512.34   29.10
  -2  -3 -10   47.84   13.58
   2  -3  10   27.77   10.83
   2   3  10   58.84   12.37
  -2   3 -10   31.67   10.96
  -2   3 -10   46.19   13.71
  -3  -3 -10  144.26   22.22
   3  -3  10  147.26   21.05
   3   3  10  162.30   19.88
  -3   3 -10  191.90   24.44
  -3   3 -10  170.03   25.47
  -4  -3 -10  275.48   31.51
   4  -3  10  369.77   28.35
  -4   3 -10  379.05   37.35
   4   3  10  354.31   25.49
  -4   3 -10  325.10   26.67
   5  -3  10   24.66   10.47
  -5  -3 -10   18.98   11.55
  -5   3 -10   10.05    8.62
   5   3  10   24.72   10.11
  -6  -3 -10  113.89   21.36
   6   3  10  100.23   18.36
  -6   3 -10  108.50   19.93
  -7  -3 -10  294.73   33.46
   7   3  10  296.81   30.54
  -7   3 -10  357.93   35.45
  -8  -3 -10  193.10   27.17
  -8   3 -10  202.63   27.22
   8   3  10  140.78   22.72
  -7  -4  10   14.61   10.04
   7  -4 -10   10.58   10.13
  -6  -4  10  479.49   33.86
  -6  -4  10  518.59   36.03
   6  -4 -10  492.62   33.55
   6   4 -10  507.01   37.22
   5  -4 -10   21.79   10.64
  -5  -4  10   27.51   11.55
  -5  -4  10   21.98   10.83
  -5   4  10    7.04   10.71
   5   4 -10   21.61   11.55
   4  -4 -10    8.71    8.31
  -4  -4  10   18.09   10.19
  -4  -4  10   16.74    9.66
  -4   4  10   10.64    8.75
   4   4 -10    6.45    8.11
  -3  -4  10  190.49   24.64
   3  -4 -10  235.53   25.72
   3  -4 -10  232.78   33.75
   3   4 -10  268.58   28.56
  -3   4  10  280.76   29.33
   2  -4 -10   11.54    7.83
  -2  -4  10    8.33    8.72
  -2  -4  10   12.78    8.62
   2  -4 -10    5.02    7.37
  -2   4  10    4.59    8.04
   2   4 -10    4.25    8.31
   1  -4 -10   28.83   10.55
   1  -4 -10   21.86    9.58
  -1  -4  10   22.70   10.59
  -1  -4  10   17.73    9.84
   1   4 -10   19.67   10.72
  -1   4  10   13.56    9.33
   0  -4 -10   70.89   15.44
   0  -4  10   77.29   16.44
   0  -4  10   76.89   15.48
   0   4  10   48.52   13.50
   0   4 -10   53.42   14.12
   1  -4  10    6.07    8.06
   1  -4  10   -1.73    7.45
  -1  -4 -10    7.49    9.05
  -1   4 -10    8.49    8.19
  -1   4 -10    7.91    9.31
   1   4  10   -6.62    7.09
   2  -4  10  218.57   25.97
  -2  -4 -10  223.09   27.76
   2  -4  10  274.54   30.52
   2   4  10  202.42   24.21
  -2   4 -10  244.95   29.68
  -2   4 -10  183.37   23.93
  -3  -4 -10   91.35   19.09
   3  -4  10   47.83   13.72
   3   4  10   57.37   13.74
  -3   4 -10   81.81   17.14
  -4  -4 -10  139.62   24.31
   4  -4  10  128.48   20.95
  -4   4 -10  147.05   22.39
   4   4  10  139.60   22.36
   5  -4  10   67.18   15.37
  -5  -4 -10  113.11   21.96
   5   4  10  123.19   21.40
  -5   4 -10   65.61   15.59
 -11   0  11  446.99   32.98
 -10   0  11  103.78   17.99
  -9   0  11   74.53   15.54
   8   0 -11  749.27   41.15
  -8   0  11  714.99   38.50
  -7   0  11  892.25   42.81
   7   0 -11  893.14   45.93
  -6   0  11   37.21   10.89
   6   0 -11   25.07   11.22
   5   0 -11  168.78   23.02
  -5   0  11  246.43   19.84
  -4   0  11   -0.65    4.38
   4   0 -11    7.69    8.23
  -3   0  11   87.93   13.79
   3   0 -11  105.01   18.30
  -2   0  11  730.29   35.41
   2   0 -11  703.25   40.50
  -1   0  11  235.83   23.05
   1   0 -11  244.85   28.58
   0   0 -11  166.98   23.71
   0   0  11  161.20   19.41
  -1   0 -11  151.96   23.85
   1   0  11  138.68   17.99
  -2   0 -11 1831.70   68.42
   2   0  11 1663.95   66.12
  -2   0 -11 1760.00   75.77
  -3   0 -11  105.54   17.96
  -3   0 -11   85.89   19.03
   3   0  11   96.92   17.21
  -4   0 -11   -1.84    9.72
   4   0  11   12.79    8.68
  -4   0 -11    8.68    8.16
  -5   0 -11  640.17   37.48
   5   0  11  485.91   33.59
  -5   0 -11  505.13   39.35
  -6   0 -11   60.44   17.37
  -6   0 -11   54.64   14.96
  -7   0 -11   83.72   17.51
  -7   0 -11   77.95   18.39
  -8   0 -11   19.69   11.69
  -8   0 -11   33.43   12.93
  -9   0 -11   62.25   17.47
 -10   0 -11   20.28   12.91
 -11  -1  11   18.25   10.66
 -11   1  11   14.61    9.11
 -10  -1  11   43.56   13.40
 -10  -1  11   60.16   15.03
 -10   1  11   48.73   12.42
  10   1 -11   82.08   16.91
  -9  -1  11 1125.86   52.00
  -9  -1  11 1173.61   54.86
  -9   1  11 1218.10   51.75
   9   1 -11 1080.13   52.51
  -8  -1  11   54.52   13.19
  -8  -1  11   74.56   16.38
   8   1 -11   44.49   12.34
  -8   1  11   45.38   11.46
  -7  -1  11    7.01    7.83
  -7  -1  11   -2.73    6.99
   7  -1 -11    4.89    7.69
   7   1 -11    9.63    8.48
  -7   1  11    5.36    5.54
  -6  -1  11  269.71   27.84
   6  -1 -11  205.84   23.47
  -6   1  11  196.32   20.54
   6   1 -11  247.01   26.99
  -5  -1  11   10.04    7.62
   5  -1 -11   10.37    8.93
   5   1 -11   23.84   10.45
  -5   1  11   11.76    6.84
  -4  -1  11 1077.59   47.76
   4  -1 -11 1012.48   48.12
   4   1 -11 1029.95   50.48
  -4   1  11 1027.81   42.28
   3  -1 -11  387.44   27.73
  -3  -1  11  373.65   26.05
   3   1 -11  359.28   28.37
  -3   1  11  360.61   22.46
  -2  -1  11   81.42   14.50
   2  -1 -11  107.70   18.32
   2   1 -11   93.90   17.84
  -2   1  11  101.63   14.18
   1  -1 -11    6.01    7.89
  -1  -1  11   -3.71    4.47
  -1   1  11   10.97    6.74
   1   1 -11   -1.84    6.41
   0  -1 -11  705.84   41.48
   0  -1  11  671.78   36.23
   0   1 -11  668.28   41.56
   0   1  11  725.65   35.11
   1  -1  11  484.54   30.44
  -1  -1 -11  543.61   37.29
  -1  -1 -11  544.25   30.59
  -1   1 -11  471.88   35.31
   1   1  11  483.05   28.87
  -2  -1 -11   18.10    8.56
  -2  -1 -11   16.53   12.05
   2  -1  11   27.56    9.53
  -2   1 -11   22.87   10.02
   2   1  11   20.70    8.69
  -2   1 -11   23.08   13.04
  -3  -1 -11   -2.99    6.27
  -3  -1 -11    4.72   10.81
   3  -1  11   -7.19    6.01
   3   1  11    3.48    7.11
  -3   1 -11   -1.88    6.32
  -3   1 -11   -4.95    9.43
  -4  -1 -11  515.94   46.18
   4  -1  11  334.80   27.27
  -4  -1 -11  340.93   26.77
  -4   1 -11  434.18   41.83
  -4   1 -11  417.55   29.76
  -5  -1 -11    6.28    8.76
  -5  -1 -11    4.13   11.42
   5  -1  11    9.30    8.48
  -5   1 -11   11.89   11.88
  -5   1 -11   11.78    9.29
  -6  -1 -11  517.24   37.90
  -6  -1 -11  501.52   33.02
  -6   1 -11  472.09   36.54
  -6   1 -11  464.77   33.95
  -7  -1 -11  217.88   27.21
  -7  -1 -11  300.00   32.67
  -7   1 -11  266.55   30.96
  -7   1 -11  236.49   28.95
  -8  -1 -11   38.72   13.83
  -8  -1 -11   19.26   11.34
  -8   1 -11   29.53   12.62
  -9  -1 -11  143.54   25.67
  -9  -1 -11   91.47   18.38
  -9   1 -11   78.88   18.37
 -10  -2  11  117.32   20.55
 -10  -2  11   92.80   19.25
  10   2 -11  101.23   18.22
  -9  -2  11   51.66   14.89
  -9  -2  11   45.20   13.45
   9   2 -11   32.65   12.28
  -8  -2  11  543.86   37.24
  -8  -2  11  676.08   38.90
   8   2 -11  697.24   40.31
  -7  -2  11  793.13   43.34
  -7  -2  11  681.34   39.47
   7   2 -11  749.67   41.80
  -6  -2  11   37.70   12.36
  -6  -2  11   20.85   10.24
   6   2 -11   39.25   12.22
   5  -2 -11  170.91   20.24
  -5  -2  11  189.19   23.78
  -5  -2  11  162.57   21.66
   5   2 -11  143.79   21.22
  -4  -2  11    0.11    6.46
   4  -2 -11    6.29    7.39
  -4  -2  11   11.21    7.72
   4   2 -11    3.07    7.35
  -3  -2  11   75.40   15.07
   3  -2 -11   79.44   14.74
  -3  -2  11   67.24   14.72
   3   2 -11   74.72   15.84
  -2  -2  11  568.58   33.77
   2  -2 -11  553.74   34.31
  -2  -2  11  551.58   35.41
   2   2 -11  599.75   37.76
  -1  -2  11  159.94   20.50
   1  -2 -11  188.25   24.15
   1   2 -11  191.22   25.14
   0  -2 -11  132.00   21.16
   0  -2  11  124.80   18.95
   0   2 -11  129.29   23.33
   1  -2  11   75.34   14.96
  -1  -2 -11  137.04   22.68
  -1   2 -11  124.04   21.94
   2  -2  11 1344.19   56.94
  -2  -2 -11 1227.55   61.19
  -2   2 -11 1290.36   56.90
  -2   2 -11 1209.89   60.94
   3  -2  11   62.65   13.89
  -3  -2 -11   84.08   19.08
  -3   2 -11   79.80   16.27
  -3   2 -11   82.87   19.53
  -4  -2 -11   -2.85    7.93
   4  -2  11   10.83    8.37
  -4   2 -11    3.71   11.04
  -4   2 -11   25.00   10.71
  -5  -2 -11  425.95   41.75
   5  -2  11  433.39   31.76
  -5   2 -11  402.29   31.32
  -5   2 -11  438.06   41.68
  -6  -2 -11   53.87   17.06
   6  -2  11   23.92   10.79
  -6   2 -11   50.30   14.04
  -7  -2 -11   75.78   17.97
  -7   2 -11   56.88   15.39
  -8  -2 -11   27.49   14.21
  -8   2 -11   17.38   11.15
  -9  -3  11  780.36   46.36
  -8  -3  11   36.48   13.17
  -8  -3  11   52.93   15.03
   8   3 -11   46.40   13.78
  -7  -3  11    1.29    7.19
  -7  -3  11    1.64    8.70
   7   3 -11    0.41    8.87
  -6  -3  11  103.33   18.45
  -6  -3  11  126.03   19.95
   6  -3 -11  171.22   21.00
  -5  -3  11   13.11    9.17
  -5  -3  11    3.51    8.70
   5  -3 -11    7.88    6.76
   5   3 -11   -3.57    6.83
  -4  -3  11  571.77   36.77
   4  -3 -11  761.12   36.89
  -4  -3  11  601.93   37.61
   4  -3 -11  657.91   33.38
   4   3 -11  616.25   38.81
  -4   3  11  616.55   34.19
   3  -3 -11  210.78   20.58
   3  -3 -11  217.67   23.44
  -3  -3  11  217.42   26.02
  -3  -3  11  258.94   28.02
   3   3 -11  256.32   28.28
  -3   3  11  229.09   21.97
  -2  -3  11   50.82   13.29
   2  -3 -11   56.01   13.09
  -2  -3  11   51.03   13.48
   2  -3 -11   60.95   11.63
  -2   3  11   48.22   11.32
   2   3 -11   51.61   13.85
   1  -3 -11    0.46    5.23
  -1  -3  11    6.00    7.87
   1  -3 -11   15.90    9.11
  -1  -3  11    4.45    6.70
   1   3 -11    8.76    8.27
  -1   3  11    1.79    6.09
   0  -3  11  370.07   35.40
   0  -3 -11  411.48   31.20
   0  -3  11  367.87   28.19
   0   3  11  378.13   24.65
   0   3 -11  418.65   32.24
  -1  -3 -11  309.33   32.75
   1  -3  11  327.89   31.65
  -1   3 -11  276.43   31.10
   1   3  11  326.79   22.93
  -2  -3 -11   13.06   10.70
   2  -3  11   10.49    8.54
  -2   3 -11   14.23    9.00
  -2   3 -11    0.09    9.98
   2   3  11   16.73    8.32
   3  -3  11    6.46    8.67
  -3  -3 -11   10.16   10.80
  -3   3 -11    2.07   10.76
   3   3  11   -0.78    7.09
  -3   3 -11    5.58    8.95
   4  -3  11  236.99   27.29
  -4  -3 -11  304.20   34.51
  -4   3 -11  183.83   27.70
   4   3  11  234.53   24.82
  -4   3 -11  218.56   26.23
   5  -3  11    5.59    9.06
  -5  -3 -11    5.53   11.67
  -5   3 -11    6.17    9.11
   5   3  11    8.55    8.89
  -6  -3 -11  356.36   38.44
   6  -3  11  380.53   37.08
  -6   3 -11  342.26   34.26
   6   3  11  341.11   32.42
  -7  -3 -11  180.03   28.90
  -7   3 -11  156.23   24.06
   6  -4 -11   32.36   11.70
  -6  -4  11   23.26   12.46
  -6   4  11   21.86   11.98
  -5  -4  11  117.72   20.88
  -5  -4  11   99.55   19.20
   5  -4 -11   95.26   16.64
  -5   4  11   74.64   15.92
   5   4 -11  102.63   19.71
  -4  -4  11   -0.98    6.82
  -4  -4  11    5.25    9.23
   4  -4 -11   -2.08    7.49
  -4   4  11   10.41    9.58
   4   4 -11   -4.16    8.33
   3  -4 -11   30.91   11.23
  -3  -4  11   34.41   12.00
  -3  -4  11   21.74   11.33
   3   4 -11   34.27   13.43
  -3   4  11   47.11   13.19
  -2  -4  11  303.14   31.54
  -2  -4  11  344.98   33.05
   2  -4 -11  248.19   27.05
   2  -4 -11  295.69   23.99
   2   4 -11  252.31   29.23
  -2   4  11  283.96   28.50
  -1  -4  11  130.75   21.38
  -1  -4  11   97.43   18.03
   1  -4 -11  126.79   19.91
   1   4 -11   95.56   18.65
  -1   4  11  104.11   17.51
   0  -4  11   71.17   15.82
   0  -4  11   64.72   15.56
   0  -4 -11   59.74   15.29
   0   4  11   64.70   14.53
   0   4 -11   46.01   14.42
   1  -4  11   53.25   15.14
   1  -4  11   48.75   13.90
  -1  -4 -11   62.26   16.35
  -1   4 -11   59.81   16.17
  -1   4 -11   49.06   13.36
   1   4  11   53.04   14.07
  -2  -4 -11  744.98   44.88
   2  -4  11  785.85   44.10
  -2   4 -11  737.33   46.44
   2   4  11  677.33   39.60
  -2   4 -11  702.59   42.39
   3  -4  11   46.17   13.50
  -3  -4 -11   28.65   13.52
  -3   4 -11   38.02   12.66
   3   4  11   38.05   12.42
  -4  -4 -11   -0.11    8.55
   4  -4  11   11.38    9.87
  -4   4 -11    0.51    8.84
   4   4  11    4.31    9.38
 -11   0  12  198.56   25.97
 -10   0  12    9.89    8.22
  -9   0  12  155.87   21.58
   8   0 -12   22.87   11.45
  -8   0  12    9.89    7.53
   7   0 -12  161.42   22.65
  -7   0  12  117.83   17.97
  -6   0  12  241.42   25.24
   6   0 -12  239.13   28.27
  -5   0  12   28.59    9.18
   5   0 -12   51.28   14.43
  -4   0  12   83.55   14.66
   4   0 -12   33.82   12.80
   3   0 -12  280.49   30.82
  -3   0  12  361.81   24.62
   2   0 -12  875.42   47.33
  -2   0  12  931.95   42.37
  -1   0  12   25.14    8.86
   1   0 -12   25.63   10.85
   0   0  12    8.43    7.09
   0   0 -12   19.49   10.68
   1   0  12   73.42   14.89
  -1   0 -12   70.48   17.15
  -2   0 -12  191.41   27.82
   2   0  12  143.67   20.87
  -2   0 -12  151.90   21.22
  -3   0 -12  256.83   28.39
   3   0  12  225.51   27.13
  -3   0 -12  247.53   32.51
  -4   0 -12    3.89    9.05
   4   0  12   -4.27    7.29
  -4   0 -12    4.96   13.22
   5   0  12  286.44   30.25
  -5   0 -12  267.49   35.06
  -5   0 -12  222.44   27.19
  -6   0 -12   50.13   17.59
  -6   0 -12   25.20   11.36
  -7   0 -12  295.44   34.85
  -7   0 -12  489.86   36.74
  -8   0 -12   50.06   16.58
  -8   0 -12   48.57   16.07
  -9   0 -12   72.11   19.54
 -10  -1  12   20.52   10.99
  10   1 -12   15.63   12.12
 -10   1  12    8.30    7.98
  -9  -1  12  106.94   19.14
  -9   1  12   94.97   16.84
   9   1 -12   69.13   16.54
  -8  -1  12  147.04   21.52
   8   1 -12  150.79   22.73
  -8   1  12  179.33   21.73
   7  -1 -12  365.73   27.62
  -7  -1  12  382.13   28.68
  -7   1  12  338.55   24.47
   7   1 -12  329.65   33.51
   6  -1 -12    4.44    7.51
  -6  -1  12   -0.56    6.47
   6   1 -12   -1.73    6.92
  -6   1  12   -0.16    5.02
  -5  -1  12   71.88   14.38
   5  -1 -12   60.85   14.33
   5   1 -12   60.79   15.25
  -5   1  12   65.25   12.35
   4  -1 -12  129.15   19.92
  -4  -1  12  127.74   18.62
   4   1 -12  132.82   21.28
  -4   1  12   92.40   14.15
   3  -1 -12   19.31    9.68
  -3  -1  12   34.13   10.62
   3   1 -12   39.03   12.92
  -3   1  12   25.88    8.68
   2  -1 -12    0.96    7.80
  -2  -1  12    2.46    5.99
   2   1 -12   -1.39    7.37
  -2   1  12    7.00    6.15
  -1  -1  12   86.42   15.71
   1  -1 -12   79.41   17.04
  -1   1  12   61.47   12.66
   1   1 -12   76.04   17.52
   0  -1  12  898.92   44.47
   0  -1 -12  963.79   49.81
   0   1 -12  771.19   47.37
   0   1  12  953.05   42.77
  -1  -1 -12   90.94   19.21
  -1  -1 -12  138.47   19.14
   1  -1  12  113.33   18.07
   1   1  12  124.53   18.04
  -1   1 -12  113.62   21.81
   2  -1  12  211.05   24.27
  -2  -1 -12  219.77   29.57
  -2   1 -12  166.38   25.92
   2   1  12  182.86   22.69
  -2   1 -12  208.76   24.50
  -3  -1 -12   95.43   16.70
  -3  -1 -12  128.47   24.28
   3  -1  12   93.92   17.69
  -3   1 -12  103.98   19.32
  -3   1 -12   91.41   21.86
   3   1  12  103.88   18.29
  -4  -1 -12   80.46   20.77
  -4  -1 -12   82.99   16.57
   4  -1  12   82.01   17.07
   4   1  12   94.27   18.01
  -4   1 -12   83.29   19.83
  -4   1 -12   85.62   17.98
   5  -1  12  203.74   27.19
  -5  -1 -12   86.93   21.95
  -5  -1 -12  157.84   23.37
  -5   1 -12  188.74   26.32
  -5   1 -12  164.90   26.42
   6  -1  12    9.50    9.51
  -6  -1 -12   -4.21    9.84
  -6  -1 -12    1.28    9.68
  -6   1 -12    2.25    8.23
  -6   1 -12   -9.52   10.78
  -7  -1 -12  -11.10    7.46
  -7  -1 -12   10.60    9.96
  -7   1 -12    1.10   12.03
  -7   1 -12  -15.25    7.02
  -8  -1 -12    3.34    8.97
  -8  -1 -12   -2.40    9.60
  -8   1 -12   14.76   10.52
  -9  -1 -12    5.29   10.35
  -9  -1 -12   22.78   14.50
  -9   1 -12   11.85   12.81
  -9  -2  12   89.83   17.14
  -9  -2  12  105.52   20.04
  -8  -2  12    7.91    8.17
  -8  -2  12   23.98   10.94
   8   2 -12   22.59   11.10
  -7  -2  12  125.58   20.25
  -7  -2  12  119.07   20.33
   7   2 -12  155.44   23.71
  -6  -2  12  160.10   22.78
  -6  -2  12  176.07   24.40
   6   2 -12  173.58   24.26
  -5  -2  12   35.24   11.50
  -5  -2  12   50.20   13.67
   5  -2 -12   18.44    9.07
   5   2 -12   49.27   14.16
  -4  -2  12   43.16   14.07
  -4  -2  12   65.27   14.47
   4  -2 -12   54.91   12.79
   4   2 -12   53.78   15.49
  -3  -2  12  286.78   29.94
   3  -2 -12  322.32   30.19
  -3  -2  12  339.11   26.38
   3   2 -12  248.29   29.86
   2  -2 -12  636.33   38.74
  -2  -2  12  749.86   40.93
   2   2 -12  767.64   44.80
  -1  -2  12   16.58    8.69
   1  -2 -12   12.99   10.90
   1   2 -12   18.45   12.00
   0  -2 -12   12.81    9.45
   0  -2  12    9.12    8.18
   0   2 -12    8.74   11.19
   1  -2  12   43.37   12.49
  -1  -2 -12   32.72   13.25
  -1   2 -12   53.50   17.17
   2  -2  12  154.10   22.31
  -2  -2 -12  110.30   21.78
  -2   2 -12   95.59   21.23
  -2   2 -12  114.51   19.61
   3  -2  12  154.22   23.08
  -3  -2 -12  124.54   24.04
  -3   2 -12  137.50   24.72
  -3   2 -12  134.28   21.65
   4  -2  12   -4.17    6.91
  -4  -2 -12   -4.71    8.93
  -4   2 -12    5.80   11.50
  -4   2 -12   -1.37    7.44
   5  -2  12  187.14   25.48
  -5  -2 -12  176.20   28.67
  -5   2 -12  211.88   27.58
  -5   2 -12  184.68   27.92
   6  -2  12   19.34   11.62
  -6  -2 -12   26.35   15.07
  -6   2 -12   28.40   12.90
  -7  -2 -12  312.94   38.24
  -7   2 -12  344.81   36.50
  -8  -2 -12   34.26   14.42
  -8   2 -12   70.07   18.62
  -8  -3  12  119.15   21.24
  -8  -3  12   95.33   19.46
   8   3 -12  125.25   22.41
  -7  -3  12  171.87   24.42
  -7  -3  12  192.15   26.93
  -6  -3  12    1.58    8.04
  -6  -3  12    0.87    7.65
   6   3 -12    3.23    7.72
  -5  -3  12   51.79   14.09
  -5  -3  12   56.99   15.27
   5   3 -12   50.32   14.48
  -4  -3  12   69.66   17.06
  -4  -3  12   79.65   16.76
   4  -3 -12  102.99   16.51
   4   3 -12   61.22   16.41
  -3  -3  12   13.37    9.47
   3  -3 -12   16.97    9.61
  -3  -3  12   16.50    9.66
   3   3 -12   10.18    9.99
   2  -3 -12    5.12    8.31
  -2  -3  12   10.52    8.40
  -2  -3  12    3.12    8.05
   2   3 -12   -6.27    8.35
  -1  -3  12   22.86   11.47
   1  -3 -12   46.83   13.73
  -1  -3  12   37.92   12.36
   1   3 -12   42.75   14.43
   0  -3  12  649.09   39.37
   0  -3 -12  671.99   41.46
   0   3 -12  580.25   40.81
  -1  -3 -12   59.64   16.20
   1  -3  12   73.08   15.98
  -1   3 -12   71.38   17.89
   2  -3  12  116.34   19.92
  -2  -3 -12  177.33   27.26
  -2   3 -12  126.98   24.06
  -2   3 -12  121.37   20.65
  -3  -3 -12   68.26   17.71
   3  -3  12   52.86   15.09
  -3   3 -12   91.06   18.98
  -3   3 -12   49.90   15.98
  -4  -3 -12   48.23   16.27
   4  -3  12   70.59   16.22
  -4   3 -12   46.61   17.79
  -4   3 -12   35.89   12.71
  -5  -3 -12  111.97   23.16
   5  -3  12   92.66   19.34
  -5   3 -12  105.84   20.77
   6  -3  12    9.47    9.68
  -6  -3 -12   -3.72   11.78
  -6   3 -12   -8.16    8.30
  -4  -4  12   29.00   12.77
  -4  -4  12   33.68   12.65
   4   4 -12   30.66   13.38
  -3  -4  12  156.95   24.51
  -3  -4  12  133.31   21.41
   3   4 -12  191.43   26.17
   2  -4 -12  391.18   29.93
  -2  -4  12  362.69   29.65
  -2  -4  12  390.20   38.57
   2   4 -12  362.06   36.81
   1  -4 -12   13.83    9.57
  -1  -4  12   13.97   10.19
  -1  -4  12   16.88   10.30
   1   4 -12    6.07    9.59
   0  -4  12    1.77   10.29
   0  -4  12    4.14    8.37
   0  -4 -12    0.09    9.41
   0   4 -12    3.60   11.88
   1  -4  12   19.12   11.39
  -1  -4 -12   36.34   14.01
  -1   4 -12   32.67   15.50
  -1   4 -12   43.87   14.09
   2  -4  12   56.86   15.41
  -2  -4 -12   52.41   15.97
  -2   4 -12   72.31   17.16
  -2   4 -12   80.61   20.06
 -10   0  13   45.08   13.21
  -9   0  13    2.78    7.06
   8   0 -13   36.03   14.28
  -8   0  13   15.59    9.27
  -7   0  13   94.78   16.29
   7   0 -13   97.64   18.43
  -6   0  13  156.68   20.87
   6   0 -13  110.51   20.13
   5   0 -13   31.68   13.22
  -5   0  13   44.68   11.43
  -4   0  13  358.04   25.26
   4   0 -13  299.18   32.12
   3   0 -13  639.49   40.29
  -3   0  13  655.69   35.69
  -2   0  13   81.59   14.75
   2   0 -13   75.32   17.93
   1   0 -13   23.02   11.09
  -1   0  13   30.05    9.97
   0   0  13   66.80   14.09
   0   0 -13   87.70   18.77
   1   0  13  774.11   41.72
  -1   0 -13  798.95   47.58
  -2   0 -13   12.17    8.70
   2   0  13   11.15    8.79
  -2   0 -13   10.77   11.34
  -3   0 -13   85.03   19.91
   3   0  13   77.62   17.16
  -3   0 -13   62.91   15.28
   4   0  13    5.64    8.89
  -4   0 -13   -0.08   10.22
  -4   0 -13    5.22    9.05
  -5   0 -13    1.41   12.96
   5   0  13   24.10   11.64
  -5   0 -13    2.73    8.40
  -6   0 -13  612.85   47.49
  -6   0 -13  709.19   45.83
  -7   0 -13  101.00   24.00
  -7   0 -13   96.28   20.43
  -8   0 -13   11.91   13.14
  -8   0 -13    5.37   10.48
 -10  -1  13   18.03   11.32
 -10   1  13   12.33    9.23
  -9  -1  13   23.98   12.36
  -9   1  13   19.97    9.69
   9   1 -13   22.62   12.43
  -8  -1  13  312.28   32.56
   8   1 -13  228.24   29.34
  -8   1  13  294.12   28.43
   7  -1 -13  160.54   21.81
  -7  -1  13  121.16   19.96
  -7   1  13  135.50   19.32
   7   1 -13   93.73   18.75
   6  -1 -13   24.55   10.93
  -6  -1  13   14.91    8.81
  -6   1  13   32.83   10.00
   6   1 -13   28.25   12.19
  -5  -1  13  149.07   20.71
   5  -1 -13  156.31   22.01
   5   1 -13  151.74   23.89
  -5   1  13  148.00   18.27
   4  -1 -13   27.68   12.08
  -4  -1  13   78.36   15.93
   4   1 -13   27.49   11.98
  -4   1  13   69.71   13.16
   3  -1 -13   10.73    9.90
  -3  -1  13   -4.22    5.17
   3   1 -13   -1.34    8.27
  -3   1  13    1.03    5.71
   2  -1 -13  621.93   37.92
  -2  -1  13  598.34   35.53
   2   1 -13  586.37   40.24
  -2   1  13  626.04   33.08
   1  -1 -13  306.91   32.32
  -1  -1  13  247.27   26.09
  -1   1  13  273.10   21.90
   1   1 -13  365.01   38.21
   0  -1  13   -4.02    6.12
   0  -1 -13    1.84    8.39
   0   1 -13   -7.03    8.90
   0   1  13    5.49    6.86
  -1  -1 -13   -3.08    5.52
  -1  -1 -13    8.68   10.85
   1  -1  13    0.85    6.37
  -1   1 -13   10.69   12.13
   1   1  13   -6.46    6.03
   2  -1  13  143.05   21.29
  -2  -1 -13  301.62   35.54
  -2  -1 -13  212.26   25.91
  -2   1 -13  221.84   30.86
  -2   1 -13  227.32   26.86
   2   1  13  227.31   27.30
   3  -1  13  532.47   37.35
  -3  -1 -13  517.55   49.13
  -3   1 -13  571.15   41.70
   3   1  13  538.30   36.35
  -3   1 -13  575.34   38.16
  -4  -1 -13  138.86   21.50
  -4  -1 -13  135.55   26.27
   4  -1  13  128.94   21.83
  -4   1 -13  149.39   27.07
  -4   1 -13  111.49   20.23
   4   1  13   92.86   18.03
  -5  -1 -13  526.75   52.30
   5  -1  13  540.95   38.56
  -5  -1 -13  506.51   37.46
  -5   1 -13  525.89   41.57
  -5   1 -13  524.86   39.04
  -6  -1 -13   -3.38   12.21
  -6  -1 -13    3.92    9.06
   6  -1  13    2.37    8.56
  -6   1 -13    0.85   11.04
  -6   1 -13    3.05    9.63
  -7  -1 -13  133.28   26.49
  -7  -1 -13  133.72   24.41
  -7   1 -13  149.18   25.45
  -8  -1 -13   20.68   12.99
  -8  -1 -13   15.38   13.12
  -8   1 -13   20.05   12.94
  -9  -2  13   -3.37    7.10
  -9  -2  13    9.55   10.30
   9   2 -13    0.09   10.34
  -8  -2  13   25.02   12.82
  -8  -2  13    9.38    9.26
   8   2 -13   14.27   11.62
  -7  -2  13   55.27   14.69
  -7  -2  13   70.10   16.52
   7   2 -13   57.88   15.75
  -6  -2  13  102.31   19.51
  -6  -2  13  120.44   20.50
   6   2 -13   85.48   19.00
  -5  -2  13   27.20   11.49
  -5  -2  13   40.78   13.50
   5  -2 -13   43.15   12.31
   5   2 -13   34.15   13.10
  -4  -2  13  363.97   35.11
   4  -2 -13  245.18   26.54
   4   2 -13  281.89   32.37
   3  -2 -13  492.86   33.07
  -3  -2  13  474.32   32.55
   3   2 -13  421.38   40.93
  -2  -2  13   48.26   12.47
   2  -2 -13   89.29   17.29
   2   2 -13   46.31   15.83
   1  -2 -13   25.56   12.09
  -1  -2  13   32.10   11.46
   1   2 -13   22.85   13.37
   0  -2 -13   71.50   17.92
   0  -2  13   41.60   12.58
   0   2 -13   78.03   19.07
  -1  -2 -13  656.25   44.09
   1  -2  13  600.79   37.99
  -1   2 -13  603.98   42.94
  -2  -2 -13    1.35    8.98
   2  -2  13   -4.39    6.75
  -2   2 -13  -14.00    8.12
  -2   2 -13   -0.58    7.51
   3  -2  13   34.89   12.97
  -3  -2 -13   66.56   19.37
  -3   2 -13   56.72   15.56
  -3   2 -13   61.61   17.94
   4  -2  13    6.90    8.80
  -4  -2 -13   13.20   13.07
  -4   2 -13    3.37   13.04
  -4   2 -13    9.25    9.62
  -5  -2 -13    8.02   14.29
   5  -2  13    4.76    9.44
  -5   2 -13   30.58   14.93
  -5   2 -13    0.71    8.45
  -6  -2 -13  549.50   54.47
   6  -2  13  618.18   42.28
  -6   2 -13  578.19   41.65
  -7  -2 -13   78.41   22.57
  -7   2 -13   72.39   19.54
  -7  -3  13  115.35   21.74
  -7  -3  13  113.94   21.47
   7   3 -13   87.45   21.15
  -6  -3  13   11.32   11.21
  -6  -3  13   29.62   12.93
   6   3 -13    8.44   11.12
  -5  -3  13   94.22   19.63
  -5  -3  13   98.44   19.64
   5   3 -13  100.96   21.87
   4  -3 -13   26.22   10.48
  -4  -3  13   19.66   11.62
  -4  -3  13   25.33   11.52
   4   3 -13   39.96   14.39
  -3  -3  13   -4.90    9.12
  -3  -3  13    7.60    8.69
   3  -3 -13   16.06   10.07
   3   3 -13    9.01   12.02
  -2  -3  13  331.31   35.09
   2  -3 -13  435.55   31.81
  -2  -3  13  327.96   33.16
   2   3 -13  374.96   38.99
  -1  -3  13  156.89   23.43
   1  -3 -13  169.48   24.52
   1   3 -13  190.02   28.17
   0  -3  13   -5.18    6.33
   0  -3 -13    9.11    9.60
   0   3 -13   -3.29    9.19
  -1  -3 -13    3.01    9.54
   1  -3  13    7.82    8.30
  -1   3 -13   -6.23    6.99
  -1   3 -13   11.59   13.26
  -2  -3 -13  122.56   24.05
   2  -3  13  104.31   18.72
  -2   3 -13  124.53   20.78
  -2   3 -13  184.70   28.54
  -3  -3 -13  358.53   40.35
   3  -3  13  412.85   33.39
  -3   3 -13  420.92   39.66
  -3   3 -13  342.88   39.39
  -4  -3 -13   76.59   20.57
   4  -3  13   88.15   19.27
  -4   3 -13   77.01   18.34
  -4   3 -13   94.20   26.08
  -5  -3 -13  330.47   40.61
   5  -3  13  367.08   38.46
  -5   3 -13  377.52   38.67
  -9   0  14    8.26    9.32
  -8   0  14   36.70   11.62
   8   0 -14   36.71   14.53
   7   0 -14   25.50   12.35
  -7   0  14   12.73    9.20
   6   0 -14    2.99    9.16
  -6   0  14    9.98    7.33
  -5   0  14    3.56    7.38
   5   0 -14    7.75    9.86
   4   0 -14   89.44   18.31
  -4   0  14   60.58   13.17
  -3   0  14  172.80   21.80
   3   0 -14  170.13   25.58
  -2   0  14  170.97   21.47
   2   0 -14  177.21   25.07
   1   0 -14   89.64   18.90
  -1   0  14  112.83   18.05
   0   0  14  154.05   21.24
   0   0 -14  169.73   26.36
  -1   0 -14  164.99   26.79
  -1   0 -14  152.14   21.91
   1   0  14  148.28   21.14
  -2   0 -14  325.17   37.10
   2   0  14  333.04   34.08
  -2   0 -14  331.43   34.07
   3   0  14    2.78    8.31
  -3   0 -14   12.44   14.18
  -3   0 -14   -4.44    6.39
  -4   0 -14  223.24   28.43
   4   0  14  204.77   27.31
  -4   0 -14  167.56   28.64
   5   0  14   35.82   14.15
  -5   0 -14   29.93   17.82
  -5   0 -14   42.39   15.13
  -6   0 -14  482.13   46.57
  -6   0 -14  391.45   44.45
  -7   0 -14   16.95   13.58
  -7   0 -14   32.03   18.48
  -9  -1  14   92.96   18.71
   9   1 -14   95.61   20.13
  -9   1  14   59.81   14.21
  -8  -1  14  108.46   19.78
  -8   1  14  171.15   22.19
   8   1 -14  126.13   23.80
  -7  -1  14   61.31   14.85
   7  -1 -14   28.32   12.24
   7   1 -14   28.65   13.01
  -7   1  14   41.11   11.90
  -6  -1  14   -2.87    7.34
   6  -1 -14   10.23   10.13
   6   1 -14    0.00    7.92
  -6   1  14   -0.30    6.52
   5  -1 -14  326.72   32.29
  -5  -1  14  296.64   30.58
  -5   1  14  291.30   22.81
   5   1 -14  224.84   29.72
   4  -1 -14  171.38   23.34
  -4  -1  14  129.94   20.03
  -4   1  14  129.20   17.95
   4   1 -14  169.60   25.89
   3  -1 -14  400.81   30.87
  -3  -1  14  482.21   31.83
   3   1 -14  440.95   42.39
  -3   1  14  449.69   28.30
  -2  -1  14   77.25   15.66
   2  -1 -14   78.79   16.69
   2   1 -14   63.28   16.77
  -2   1  14   64.08   13.01
   1  -1 -14   -0.31    7.80
  -1  -1  14   -4.06    6.10
  -1   1  14    3.93    7.22
   1   1 -14    2.82   11.24
   0  -1 -14  157.56   24.92
   0  -1  14  156.73   22.36
   0   1  14  185.87   22.58
   0   1 -14  159.70   25.74
  -1  -1 -14   99.22   20.68
   1  -1  14  101.73   18.94
  -1  -1 -14  132.65   20.72
  -1   1 -14  137.21   25.11
   1   1  14   96.20   18.49
  -2  -1 -14  170.69   27.92
  -2  -1 -14  188.87   25.61
   2  -1  14  175.07   25.01
  -2   1 -14  178.50   28.31
  -2   1 -14  162.27   23.74
   2   1  14  173.83   24.73
  -3  -1 -14  471.73   35.71
   3  -1  14  504.07   37.42
  -3  -1 -14  516.85   42.37
   3   1  14  508.50   37.15
  -3   1 -14  577.70   39.51
  -3   1 -14  523.42   40.69
   4  -1  14   88.46   19.05
  -4  -1 -14   88.70   23.56
   4   1  14   87.46   18.62
  -4   1 -14   96.86   22.14
  -4   1 -14  112.15   21.11
  -5  -1 -14   12.90   16.41
   5  -1  14   36.79   14.81
  -5  -1 -14   30.63   14.32
  -5   1 -14   24.75   14.75
  -5   1 -14   27.41   13.58
  -6  -1 -14   -8.00   10.68
   6  -1  14   -2.09    8.01
  -6  -1 -14   13.17   12.81
  -6   1 -14   -4.74    9.10
  -6   1 -14    4.91   11.70
  -7  -1 -14  139.75   27.61
  -7   1 -14  111.84   23.43
  -8  -2  14   41.04   14.36
   8   2 -14   51.61   16.87
  -7  -2  14   17.94   10.70
   7   2 -14   -4.57    9.48
  -6  -2  14   21.31   11.42
   6   2 -14    2.46    9.92
  -5  -2  14    8.56    8.70
   5  -2 -14   -0.47    7.85
   5   2 -14    3.99   10.44
   4  -2 -14   77.16   17.09
  -4  -2  14   45.32   13.63
   4   2 -14   61.86   17.42
   3  -2 -14   93.88   17.99
  -3  -2  14   87.65   17.55
   3   2 -14  147.59   26.67
  -2  -2  14  131.75   21.42
   2  -2 -14  185.61   25.25
   2   2 -14  137.50   24.77
  -1  -2  14   48.75   13.60
   1  -2 -14   69.27   17.72
   1   2 -14   73.19   20.12
   0  -2 -14  120.55   22.10
   0  -2  14   81.08   17.02
   0   2 -14  132.22   25.41
  -1  -2 -14  155.04   26.72
   1  -2  14   84.06   17.69
  -1   2 -14  111.89   24.05
  -2  -2 -14  234.44   33.53
   2  -2  14  179.66   25.58
  -2   2 -14  199.82   29.41
  -2   2 -14  196.73   26.36
  -3  -2 -14  -14.47    8.26
   3  -2  14    6.09    9.78
  -3   2 -14    7.50    9.58
  -3   2 -14    0.92   10.54
   4  -2  14  126.63   22.71
  -4  -2 -14  170.17   30.35
  -4   2 -14  175.09   28.29
  -4   2 -14  217.25   29.32
  -5  -2 -14   53.99   19.29
   5  -2  14   51.01   17.13
  -5   2 -14   24.61   13.89
  -5   2 -14   39.48   16.13
  -6  -2 -14  333.84   44.02
   6  -2  14  315.41   36.49
  -6   2 -14  380.07   40.03
  -5  -3  14  184.38   26.63
  -5  -3  14  155.36   25.33
   5   3 -14  188.44   29.11
   4  -3 -14   99.11   19.01
  -4  -3  14  126.61   23.69
  -4  -3  14   85.94   18.08
   4   3 -14  133.87   25.41
   3  -3 -14  324.76   32.37
  -3  -3  14  286.45   31.97
   3   3 -14  326.49   37.35
  -2  -3  14   31.73   11.87
   2  -3 -14   74.03   17.22
   2   3 -14   59.16   19.09
  -1  -3  14   -4.58    6.71
   1  -3 -14   -2.26    7.88
   1   3 -14    9.88   12.59
   0  -3 -14  108.78   21.87
   0  -3  14  126.74   22.15
   0   3 -14  135.95   25.35
   1  -3  14   57.31   15.32
  -1  -3 -14   50.86   17.06
  -1   3 -14   52.79   15.29
  -1   3 -14   63.82   18.42
   2  -3  14   64.73   16.69
  -2  -3 -14  140.61   26.01
  -2   3 -14  100.02   23.09
  -2   3 -14   87.42   18.74
  -3  -3 -14  351.73   42.35
   3  -3  14  320.84   35.81
  -3   3 -14  254.05   33.62
  -3   3 -14  300.50   33.93
   8   0 -15   10.91   10.30
  -8   0  15   15.89   10.94
  -7   0  15 1328.93   58.82
   7   0 -15 1248.70   62.11
   6   0 -15   25.70   12.60
  -6   0  15   19.30   10.21
   5   0 -15   74.13   17.72
  -5   0  15   67.24   15.26
  -4   0  15    0.25    6.44
   4   0 -15   -0.58    8.96
  -3   0  15   21.91    9.61
   3   0 -15    9.40   10.29
  -2   0  15  478.05   31.80
   2   0 -15  476.03   36.85
  -1   0  15  205.60   25.05
   1   0 -15  214.97   30.03
   0   0 -15   37.27   13.94
   0   0  15   38.18   12.31
  -1   0 -15  182.64   24.90
   1   0  15  215.19   26.47
  -1   0 -15  256.63   32.09
   2   0  15   40.02   13.76
  -2   0 -15   41.51   13.42
  -2   0 -15   70.28   20.04
  -3   0 -15 1090.57   58.09
  -3   0 -15 1207.69   65.60
   3   0  15 1260.60   61.51
  -4   0 -15   40.52   15.26
  -4   0 -15   40.38   17.33
   4   0  15   34.20   14.02
  -5   0 -15  201.18   29.97
  -5   0 -15  152.12   27.88
   5   0  15  152.73   26.83
  -6   0 -15   70.22   20.51
  -6   0 -15  122.24   27.71
  -8  -1  15   35.05   13.00
  -8   1  15   25.32   10.98
   8   1 -15   18.68   13.02
   7  -1 -15    2.71    9.84
  -7  -1  15   11.06    9.88
   7   1 -15   12.66   12.16
  -7   1  15    7.90    8.00
   6  -1 -15    1.90    9.13
  -6  -1  15    3.92    8.91
   6   1 -15    3.63   11.10
  -6   1  15   -1.81    6.38
  -5  -1  15  970.03   49.80
   5  -1 -15 1018.09   51.31
  -5   1  15  932.10   44.91
   5   1 -15  888.26   53.62
   4  -1 -15  136.86   22.41
  -4  -1  15  118.59   19.96
  -4   1  15  122.03   17.84
   4   1 -15  136.49   25.63
   3  -1 -15   10.11   10.29
  -3  -1  15    1.48    7.55
   3   1 -15    9.14   10.65
  -3   1  15   15.27    8.48
  -2  -1  15  100.17   17.83
   2  -1 -15  103.12   19.96
  -2   1  15  110.57   17.62
   2   1 -15  131.39   24.57
   1  -1 -15   81.39   17.71
  -1  -1  15   60.90   15.31
   1   1 -15   82.95   21.10
  -1   1  15   95.08   17.30
   0  -1  15   -1.81    6.41
   0  -1 -15    3.54    9.01
   0  -1 -15    0.66    7.92
   0   1 -15   -1.84    9.98
   0   1  15    8.10    8.40
  -1  -1 -15   51.14   14.33
  -1  -1 -15   39.86   14.76
   1  -1  15   62.16   15.68
   1   1  15   33.91   12.98
  -1   1 -15   77.71   19.73
   2  -1  15   20.32   11.28
  -2  -1 -15   14.79   13.51
  -2  -1 -15   24.17   12.03
  -2   1 -15   43.37   16.31
  -2   1 -15   25.35   11.48
   2   1  15   29.94   12.88
   3  -1  15    9.31   11.45
  -3  -1 -15   -1.47   13.86
  -3  -1 -15   -5.14   11.85
   3   1  15    1.50   11.27
  -3   1 -15    7.09    9.74
  -3   1 -15    0.76   10.33
  -4  -1 -15   24.14   16.83
   4  -1  15    0.45    9.47
  -4   1 -15   22.69   13.89
  -4   1 -15   25.29   12.44
   5  -1  15  423.65   42.80
  -5  -1 -15  421.39   48.34
  -5   1 -15  452.56   44.60
  -5   1 -15  410.69   44.12
  -6  -2  15   11.47    9.92
   6   2 -15    2.40   11.14
   5  -2 -15   50.45   14.89
  -5  -2  15   42.78   13.57
   5   2 -15   88.09   21.92
  -4  -2  15    3.26    7.64
   4  -2 -15   -3.26    6.96
   4   2 -15   -0.38    9.75
   3  -2 -15   12.34   10.33
  -3  -2  15   17.94   10.39
   3   2 -15   27.22   14.30
   2  -2 -15  340.13   35.31
  -2  -2  15  444.39   32.62
   2   2 -15  300.75   36.25
  -1  -2  15  121.87   21.59
   1  -2 -15  141.17   23.70
   1   2 -15  156.85   27.64
   0  -2 -15   31.82   13.63
   0  -2  15   56.29   15.56
   0   2 -15   51.94   17.88
   1  -2  15  146.47   23.25
  -1  -2 -15  152.96   25.88
  -1   2 -15  134.23   26.58
  -1   2 -15  126.92   21.40
   2  -2  15   34.06   13.40
  -2  -2 -15   67.71   20.11
  -2   2 -15   46.71   14.51
  -2   2 -15   58.05   17.69
  -3  -2 -15  950.37   59.71
   3  -2  15  890.50   52.71
  -3   2 -15  913.75   55.29
  -3   2 -15  862.56   51.46
   4  -2  15   23.14   12.95
  -4  -2 -15   29.76   16.85
  -4   2 -15   31.92   16.11
  -4   2 -15   25.37   12.41
   3  -3 -15    9.49   10.98
  -3  -3  15   16.41   11.46
   3   3 -15   12.76   12.56
  -2  -3  15   73.87   18.29
   2  -3 -15  116.93   21.53
   2   3 -15   81.09   21.46
  -1  -3  15   65.35   17.89
   1  -3 -15   63.97   16.55
   1   3 -15   59.11   20.75
   0  -3  15   -3.54    7.34
   0  -3 -15   -3.20    8.96
   0   3 -15   -4.46   10.51
  -1  -3 -15   55.15   18.13
   1  -3  15   54.21   17.03
  -1   3 -15   36.29   13.29
  -1   3 -15   49.17   18.68
   7   0 -16   55.01   17.10
  -7   0  16   35.34   11.85
   6   0 -16   55.77   16.31
  -6   0  16   38.55   12.77
   5   0 -16   51.86   15.73
  -5   0  16   41.96   12.71
  -4   0  16   20.85    9.55
   4   0 -16   26.81   13.72
   3   0 -16  123.14   23.57
  -3   0  16  131.91   20.09
  -2   0  16  850.97   45.16
   2   0 -16  958.15   53.00
  -1   0  16   -4.63    7.73
   1   0 -16   13.47   11.94
   0   0  16    4.58    7.88
   0   0 -16   -7.23    8.10
  -1   0 -16    7.06    9.81
   1   0  16    0.31    8.44
  -1   0 -16    7.09    8.16
  -2   0 -16  143.27   25.72
  -2   0 -16   97.37   20.79
   2   0  16  132.86   24.06
   3   0  16   -3.89   10.44
  -3   0 -16    4.27   10.15
  -3   0 -16   13.89   12.62
   4   0  16   43.72   17.36
  -4   0 -16   65.41   21.11
  -4   0 -16   57.88   17.56
  -6  -1  16  120.50   20.63
   6  -1 -16  117.01   20.93
  -6   1  16  157.97   31.19
   5  -1 -16  429.10   33.16
  -5  -1  16  411.25   32.05
  -5   1  16  306.10   40.99
   5   1 -16  355.88   40.64
   4  -1 -16   22.10   12.03
  -4  -1  16   19.76   11.06
   4   1 -16    7.72   11.29
  -3  -1  16   -0.27    8.86
   3  -1 -16   -3.12    7.34
   3   1 -16    5.70   11.05
   2  -1 -16    8.74    9.19
  -2  -1  16    6.90    8.13
   2   1 -16    6.78   10.66
  -1  -1  16   12.10    9.65
   1  -1 -16    3.98    9.95
   1   1 -16   14.72   13.82
   0  -1  16 1491.23   67.15
   0  -1 -16 1540.19   71.42
   0   1 -16 1524.05   73.93
  -1  -1 -16   85.92   20.46
   1  -1  16   86.65   18.16
  -1   1 -16   48.69   18.20
  -1   1 -16   73.25   17.49
   2  -1  16   -3.68    9.66
  -2  -1 -16   11.88   12.73
  -2   1 -16   -1.21    8.07
  -2   1 -16    3.36   11.70
   3  -1  16  215.75   30.08
  -3  -1 -16  286.58   37.77
  -3   1 -16  192.73   29.74
  -3   1 -16  195.52   28.63
  -4  -1 -16    2.28   13.24
   4  -1  16   11.94   11.38
  -4   1 -16    4.95   11.97
  -4   1 -16    7.55   10.37
   5  -2 -16   37.64   13.41
  -5  -2  16   24.89   12.68
   5   2 -16   25.31   15.81
  -4  -2  16   16.44   10.71
   4  -2 -16   28.26   11.80
   4   2 -16   10.08   13.25
  -3  -2  16  104.04   20.17
   3  -2 -16  108.52   19.91
   3   2 -16  110.41   24.47
  -2  -2  16  729.11   44.71
   2  -2 -16  749.47   46.20
   2   2 -16  734.82   51.13
   1  -2 -16   -3.60    9.84
  -1  -2  16    3.01    9.93
   1   2 -16    2.91   13.54
   0  -2  16   -8.58    7.26
   0  -2 -16    1.59    9.46
   0   2 -16   13.59   13.89
   1  -2  16   -5.81    8.66
  -1  -2 -16    9.15   10.87
  -1   2 -16    6.43   11.71
  -1   2 -16   -1.03    8.18
   2  -2  16  135.23   24.21
  -2  -2 -16   84.32   22.02
  -2   2 -16  103.69   21.93
  -2   2 -16  144.51   26.90
   5   0 -17  398.05   40.18
  -5   0  17  390.84   30.17
  -4   0  17   14.12    9.64
   4   0 -17   23.38   14.44
   3   0 -17   71.63   18.59
  -3   0  17   59.64   14.66
  -2   0  17  186.83   23.64
   2   0 -17  197.26   28.81
  -1   0  17  101.59   18.42
   1   0 -17   87.22   20.01
   0   0  17   46.71   15.10
   0   0 -17   45.21   15.89
   1   0  17   63.69   16.45
  -1   0 -17   53.98   14.86
  -1   0 -17   83.22   19.93
  -2   0 -17   76.60   18.00
  -2   0 -17   51.20   18.24
   2   0  17   58.78   17.20
  -3   0 -17   69.79   18.37
   3   0  17   66.23   18.90
  -3   0 -17   70.48   21.28
   4  -1 -17    8.40   10.20
  -4  -1  17    5.33    7.97
   4   1 -17   -1.65   11.29
  -3  -1  17   88.29   18.76
   3  -1 -17   99.34   19.44
   3   1 -17   64.42   19.23
  -2  -1  17   27.55   11.57
   2  -1 -17   35.93   13.86
   2   1 -17   41.72   16.06
   1  -1 -17    5.43   10.29
  -1  -1  17    8.01   10.08
   1   1 -17   21.14   15.31
   0  -1  17    7.84   10.03
   0  -1 -17   -4.35    7.81
   0   1 -17   -1.75   12.12
   1  -1  17  101.39   20.34
  -1  -1 -17   51.58   17.51
  -1   1 -17   98.26   21.97
  -1   1 -17   95.19   19.84
  -2  -1 -17   23.96   14.08
   2  -1  17   36.47   15.25
  -2   1 -17   13.47   11.92
  -2   1 -17   24.26   14.51
   0   0   0    0.00    0.00



 _exptl_absorpt_process_details
)
 SADABS 2016/2: Krause, L., Herbst-Irmer, R., Sheldrick G.M. & Stalke D.,
 J. Appl. Cryst. 48 (2015) 3-10
)
 _exptl_absorpt_correction_type   multi-scan
 _exptl_absorpt_correction_T_max  0.1779
 _exptl_absorpt_correction_T_min  0.0784
 _exptl_special_details
)
 The following wavelength and cell were deduced by SADABS from the
 direction cosines etc. They are given here for emergency use only:
 CELL 0.71079   10.366    4.333   13.426   89.970   95.597   90.028
)

_computing_structure_solution     'SHELXT 2018/2 (Sheldrick, 2018)'
_computing_structure_solution     'SHELXT 2018/2 (Sheldrick, 2018)'
;
_shelx_hkl_checksum              41759
_olex2_submission_special_instructions 'No special instructions were received'
loop_
_space_group_symop_operation_xyz
'x, y, z'
'-x, y, -z'
'-x, -y, -z'
'x, -y, z'
loop_
_atom_site_label
_atom_site_type_symbol
_atom_site_fract_x
_atom_site_fract_y
_atom_site_fract_z
_atom_site_U_iso_or_equiv
_atom_site_adp_type
_atom_site_occupancy
_atom_site_site_symmetry_order
_atom_site_calc_flag
_atom_site_refinement_flags_posn
_atom_site_refinement_flags_adp
_atom_site_refinement_flags_occupancy
_atom_site_disorder_assembly
_atom_site_disorder_group
Ba1 Ba 0.18569(6) 0.500000 0.78568(5) 0.01449(14) Uani 1 2 d S T P . .
Ba2 Ba 0.500000 0.000000 0.000000 0.01111(17) Uani 1 4 d S T P . .
Ba3 Ba 0.000000 0.000000 0.500000 0.01101(17) Uani 1 4 d S T P . .
In1 In 0.20223(7) 0.500000 0.33263(5) 0.01209(15) Uani 1 2 d S T P . .
In2 In 0.41230(7) 0.500000 0.22312(5) 0.01213(15) Uani 1 2 d S T P . .
In3 In 0.11549(7) 0.000000 0.06875(5) 0.01130(15) Uani 1 2 d S T P . .
In4 In 0.39372(7) 0.000000 0.55810(5) 0.01170(15) Uani 1 2 d S T P . .
As1 As 0.23365(10) 0.500000 0.53432(7) 0.0107(2) Uani 1 2 d S T P . .
As2 As 0.26972(10) 0.500000 0.03730(7) 0.0107(2) Uani 1 2 d S T P . .
As3 As 0.05609(9) 0.000000 0.26356(7) 0.0110(2) Uani 1 2 d S T P . .
As4 As 0.57202(9) 0.000000 0.23923(7) 0.0105(2) Uani 1 2 d S T P . .
loop_
_atom_site_aniso_label
_atom_site_aniso_U_11
_atom_site_aniso_U_22
_atom_site_aniso_U_33
_atom_site_aniso_U_23
_atom_site_aniso_U_13
_atom_site_aniso_U_12
Ba1 0.0147(3) 0.0114(3) 0.0164(3) 0.000 -0.0037(2) 0.000
Ba2 0.0127(4) 0.0105(4) 0.0100(4) 0.000 0.0004(3) 0.000
Ba3 0.0116(4) 0.0104(4) 0.0109(4) 0.000 0.0004(3) 0.000
In1 0.0118(3) 0.0123(3) 0.0122(4) 0.000 0.0013(3) 0.000
In2 0.0118(3) 0.0124(3) 0.0122(4) 0.000 0.0009(3) 0.000
In3 0.0113(3) 0.0113(3) 0.0111(4) 0.000 0.0003(3) 0.000
In4 0.0120(3) 0.0120(3) 0.0110(4) 0.000 0.0004(3) 0.000
As1 0.0106(5) 0.0095(5) 0.0119(5) 0.000 0.0005(4) 0.000
As2 0.0113(5) 0.0103(5) 0.0104(5) 0.000 0.0009(4) 0.000
As3 0.0120(5) 0.0103(5) 0.0105(5) 0.000 0.0005(4) 0.000
As4 0.0106(5) 0.0099(5) 0.0109(5) 0.000 0.0000(4) 0.000
loop_
_atom_type_symbol
_atom_type_description
_atom_type_scat_dispersion_real
_atom_type_scat_dispersion_imag
_atom_type_scat_source
As As 0.0499 2.0058 'International Tables Vol C Tables 4.2.6.8 and 6.1.1.4'
Ba Ba -0.3244 2.2819 'International Tables Vol C Tables 4.2.6.8 and 6.1.1.4'
In In -0.7276 1.3100 'International Tables Vol C Tables 4.2.6.8 and 6.1.1.4'
loop_
_exptl_crystal_face_index_h
_exptl_crystal_face_index_k
_exptl_crystal_face_index_l
_exptl_crystal_face_perp_dist
6.00 -2.00 -1.00 0.0400
6.00 2.00 5.00 0.0280
-3.00 2.00 2.00 0.0420
-5.00 -1.00 -3.00 0.0450
-6.00 -2.00 -5.00 0.0360
-4.00 -3.00 -6.00 0.0340
1.00 -3.00 -4.00 0.0340
-4.00 3.00 3.00 0.0400
-4.00 -6.00 -3.00 0.0300
2.00 1.00 -4.00 0.0140
1.00 -1.00 -6.00 0.0350
-3.00 -1.00 6.00 0.0370
loop_
_geom_angle_atom_site_label_1
_geom_angle_atom_site_label_2
_geom_angle_atom_site_label_3
_geom_angle
_geom_angle_site_symmetry_1
_geom_angle_site_symmetry_3
_geom_angle_publ_flag
Ba1 Ba1 Ba1 180.0 1_545 1_565 ?
Ba1 Ba1 Ba2 62.319(4) 1_545 1_556 ?
Ba1 Ba1 Ba2 117.680(5) 1_565 1_556 ?
Ba1 Ba1 Ba2 62.319(5) 1_565 1_566 ?
Ba1 Ba1 Ba2 117.680(5) 1_545 1_566 ?
Ba1 Ba1 Ba3 62.273(5) 1_565 1_565 ?
Ba1 Ba1 Ba3 117.728(5) 1_565 . ?
Ba1 Ba1 Ba3 62.273(5) 1_545 . ?
Ba1 Ba1 Ba3 117.728(5) 1_545 1_565 ?
Ba2 Ba1 Ba2 55.361(10) 1_566 1_556 ?
Ba3 Ba1 Ba2 120.004(8) . 1_556 ?
Ba3 Ba1 Ba2 158.800(15) 1_565 1_556 ?
Ba3 Ba1 Ba2 158.800(15) . 1_566 ?
Ba3 Ba1 Ba2 120.004(8) 1_565 1_566 ?
Ba3 Ba1 Ba3 55.455(10) . 1_565 ?
As1 Ba1 Ba1 90.0 . 1_565 ?
As1 Ba1 Ba1 90.0 . 1_545 ?
As1 Ba1 Ba2 116.41(2) . 1_556 ?
As1 Ba1 Ba2 116.41(2) . 1_566 ?
As1 Ba1 Ba3 44.167(14) . . ?
As1 Ba1 Ba3 44.167(14) . 1_565 ?
As2 Ba1 Ba1 90.0 1_556 1_565 ?
As2 Ba1 Ba1 90.0 1_556 1_545 ?
As2 Ba1 Ba2 44.929(14) 1_556 1_566 ?
As2 Ba1 Ba2 44.929(14) 1_556 1_556 ?
As2 Ba1 Ba3 149.622(11) 1_556 . ?
As2 Ba1 Ba3 149.622(10) 1_556 1_565 ?
As2 Ba1 As1 157.07(3) 1_556 . ?
As3 Ba1 Ba1 130.619(14) 3_566 1_545 ?
As3 Ba1 Ba1 49.382(14) 3_566 1_565 ?
As3 Ba1 Ba1 130.619(14) 3_556 1_565 ?
As3 Ba1 Ba1 49.382(14) 3_556 1_545 ?
As3 Ba1 Ba2 153.04(2) 3_566 1_556 ?
As3 Ba1 Ba2 106.648(15) 3_566 1_566 ?
As3 Ba1 Ba2 106.648(15) 3_556 1_556 ?
As3 Ba1 Ba2 153.04(2) 3_556 1_566 ?
As3 Ba1 Ba3 44.842(18) 3_566 1_565 ?
As3 Ba1 Ba3 84.07(2) 3_556 1_565 ?
As3 Ba1 Ba3 84.073(19) 3_566 . ?
As3 Ba1 Ba3 44.842(18) 3_556 . ?
As3 Ba1 As1 88.99(2) 3_556 . ?
As3 Ba1 As1 88.99(2) 3_566 . ?
As3 Ba1 As2 108.17(3) 3_566 1_556 ?
As3 Ba1 As2 108.17(3) 3_556 1_556 ?
As3 Ba1 As3 81.24(3) 3_556 3_566 ?
As3 Ba1 As4 162.86(3) 3_556 3_666 ?
As3 Ba1 As4 96.599(19) 3_556 3_656 ?
As3 Ba1 As4 162.86(3) 3_566 3_656 ?
As3 Ba1 As4 96.599(19) 3_566 3_666 ?
As4 Ba1 Ba1 130.214(13) 3_656 1_565 ?
As4 Ba1 Ba1 49.786(14) 3_666 1_565 ?
As4 Ba1 Ba1 130.214(14) 3_666 1_545 ?
As4 Ba1 Ba1 49.786(13) 3_656 1_545 ?
As4 Ba1 Ba2 43.792(18) 3_666 1_566 ?
As4 Ba1 Ba2 43.792(18) 3_656 1_556 ?
As4 Ba1 Ba2 82.992(19) 3_666 1_556 ?
As4 Ba1 Ba2 82.992(19) 3_656 1_566 ?
As4 Ba1 Ba3 82.543(18) 3_666 1_565 ?
As4 Ba1 Ba3 118.10(2) 3_666 . ?
As4 Ba1 Ba3 118.10(2) 3_656 1_565 ?
As4 Ba1 Ba3 82.543(18) 3_656 . ?
As4 Ba1 As1 73.93(2) 3_666 . ?
As4 Ba1 As1 73.93(2) 3_656 . ?
As4 Ba1 As2 88.71(2) 3_666 1_556 ?
As4 Ba1 As2 88.71(2) 3_656 1_556 ?
As4 Ba1 As4 80.43(3) 3_666 3_656 ?
Ba2 Ba2 Ba2 180.0 1_565 1_545 ?
In2 Ba2 Ba2 123.976(7) 3_665 1_545 ?
In2 Ba2 Ba2 123.976(7) 1_545 1_565 ?
In2 Ba2 Ba2 56.024(7) 3_655 1_545 ?
In2 Ba2 Ba2 56.024(7) 1_545 1_545 ?
In2 Ba2 Ba2 123.976(7) . 1_545 ?
In2 Ba2 Ba2 123.976(7) 3_655 1_565 ?
In2 Ba2 Ba2 56.024(7) 3_665 1_565 ?
In2 Ba2 Ba2 56.024(7) . 1_565 ?
In2 Ba2 In2 180.0 3_665 1_545 ?
In2 Ba2 In2 67.953(14) . 1_545 ?
In2 Ba2 In2 112.048(14) 3_655 1_545 ?
In2 Ba2 In2 180.000(19) . 3_655 ?
In2 Ba2 In2 67.952(14) 3_655 3_665 ?
In2 Ba2 In2 112.047(14) . 3_665 ?
As2 Ba2 Ba2 48.896(12) 1_545 1_545 ?
As2 Ba2 Ba2 131.104(12) 3_655 1_565 ?
As2 Ba2 Ba2 131.104(12) 3_665 1_545 ?
As2 Ba2 Ba2 48.896(12) 3_655 1_545 ?
As2 Ba2 Ba2 48.896(12) . 1_565 ?
As2 Ba2 Ba2 48.896(12) 3_665 1_565 ?
As2 Ba2 Ba2 131.104(12) 1_545 1_565 ?
As2 Ba2 Ba2 131.104(12) . 1_545 ?
As2 Ba2 In2 44.59(2) 1_545 1_545 ?
As2 Ba2 In2 135.41(2) 1_545 3_665 ?
As2 Ba2 In2 88.699(17) . 3_665 ?
As2 Ba2 In2 88.699(17) 3_655 1_545 ?
As2 Ba2 In2 88.699(17) 3_665 . ?
As2 Ba2 In2 88.699(17) 1_545 3_655 ?
As2 Ba2 In2 44.59(2) 3_665 3_665 ?
As2 Ba2 In2 44.59(2) 3_655 3_655 ?
As2 Ba2 In2 91.301(17) 3_655 3_665 ?
As2 Ba2 In2 44.59(2) . . ?
As2 Ba2 In2 91.301(17) 1_545 . ?
As2 Ba2 In2 91.301(17) 3_665 3_655 ?
As2 Ba2 In2 135.41(2) 3_665 1_545 ?
As2 Ba2 In2 135.41(2) . 3_655 ?
As2 Ba2 In2 135.41(2) 3_655 . ?
As2 Ba2 In2 91.301(17) . 1_545 ?
As2 Ba2 As2 97.79(2) 1_545 3_655 ?
As2 Ba2 As2 82.21(2) 3_665 3_655 ?
As2 Ba2 As2 82.21(2) 1_545 . ?
As2 Ba2 As2 180.00(3) 3_665 1_545 ?
As2 Ba2 As2 97.79(2) 3_665 . ?
As2 Ba2 As2 180.0 3_655 . ?
As4 Ba2 Ba2 90.0 . 1_565 ?
As4 Ba2 Ba2 90.0 . 1_545 ?
As4 Ba2 Ba2 90.0 3_655 1_545 ?
As4 Ba2 Ba2 90.0 3_655 1_565 ?
As4 Ba2 In2 43.869(14) . 1_545 ?
As4 Ba2 In2 43.869(14) 3_655 3_655 ?
As4 Ba2 In2 136.131(14) 3_655 1_545 ?
As4 Ba2 In2 43.869(14) 3_655 3_665 ?
As4 Ba2 In2 136.131(14) . 3_655 ?
As4 Ba2 In2 136.131(14) 3_655 . ?
As4 Ba2 In2 43.869(14) . . ?
As4 Ba2 In2 136.131(14) . 3_665 ?
As4 Ba2 As2 92.91(2) . 3_665 ?
As4 Ba2 As2 87.09(2) . 1_545 ?
As4 Ba2 As2 87.09(2) 3_655 3_665 ?
As4 Ba2 As2 92.91(2) 3_655 . ?
As4 Ba2 As2 92.91(2) . 3_655 ?
As4 Ba2 As2 87.09(2) . . ?
As4 Ba2 As2 92.91(2) 3_655 1_545 ?
As4 Ba2 As2 87.09(2) 3_655 3_655 ?
As4 Ba2 As4 180.00(3) 3_655 . ?
In1 Ba3 In1 112.088(13) 1_545 3_556 ?
In1 Ba3 In1 180.0 . 3_556 ?
In1 Ba3 In1 67.912(13) 3_566 3_556 ?
In1 Ba3 In1 67.912(13) . 1_545 ?
In1 Ba3 In1 180.0 3_566 1_545 ?
In1 Ba3 In1 112.088(13) . 3_566 ?
In1 Ba3 In4 118.367(13) 1_545 3_556 ?
In1 Ba3 In4 118.366(13) 3_556 . ?
In1 Ba3 In4 61.633(13) 3_566 3_556 ?
In1 Ba3 In4 61.634(13) . . ?
In1 Ba3 In4 118.367(13) . 3_556 ?
In1 Ba3 In4 118.366(13) 3_566 . ?
In1 Ba3 In4 61.634(13) 1_545 . ?
In1 Ba3 In4 61.633(13) 3_556 3_556 ?
In4 Ba3 In4 180.0 . 3_556 ?
As1 Ba3 In1 136.64(2) 3_556 . ?
As1 Ba3 In1 91.057(18) . 1_545 ?
As1 Ba3 In1 88.942(18) 3_556 1_545 ?
As1 Ba3 In1 91.058(18) 1_545 . ?
As1 Ba3 In1 43.36(2) 3_566 3_566 ?
As1 Ba3 In1 136.64(2) 3_566 1_545 ?
As1 Ba3 In1 43.36(2) . . ?
As1 Ba3 In1 88.942(18) 3_566 . ?
As1 Ba3 In1 136.64(2) . 3_556 ?
As1 Ba3 In1 91.058(18) 3_556 3_566 ?
As1 Ba3 In1 43.36(2) 3_556 3_556 ?
As1 Ba3 In1 136.64(2) 1_545 3_566 ?
As1 Ba3 In1 91.058(18) 3_566 3_556 ?
As1 Ba3 In1 88.942(18) 1_545 3_556 ?
As1 Ba3 In1 43.36(2) 1_545 1_545 ?
As1 Ba3 In1 88.943(18) . 3_566 ?
As1 Ba3 In4 41.860(12) . . ?
As1 Ba3 In4 41.860(12) 3_556 3_556 ?
As1 Ba3 In4 138.140(13) 1_545 3_556 ?
As1 Ba3 In4 138.140(12) 3_556 . ?
As1 Ba3 In4 41.860(13) 3_566 3_556 ?
As1 Ba3 In4 41.860(13) 1_545 . ?
As1 Ba3 In4 138.140(12) . 3_556 ?
As1 Ba3 In4 138.140(13) 3_566 . ?
As1 Ba3 As1 83.72(2) 3_556 3_566 ?
As1 Ba3 As1 96.28(2) . 3_566 ?
As1 Ba3 As1 180.0 . 3_556 ?
As1 Ba3 As1 83.72(2) . 1_545 ?
As1 Ba3 As1 96.28(2) 3_556 1_545 ?
As1 Ba3 As1 180.0 3_566 1_545 ?
As1 Ba3 As3 86.45(2) 3_566 3_556 ?
As1 Ba3 As3 93.55(2) . 3_556 ?
As1 Ba3 As3 86.45(2) . . ?
As1 Ba3 As3 93.55(2) 3_556 . ?
As1 Ba3 As3 86.45(2) 3_556 3_556 ?
As1 Ba3 As3 93.55(2) 3_566 . ?
As1 Ba3 As3 86.45(2) 1_545 . ?
As1 Ba3 As3 93.55(2) 1_545 3_556 ?
As3 Ba3 In1 135.781(14) . 3_556 ?
As3 Ba3 In1 44.219(13) . 1_545 ?
As3 Ba3 In1 135.781(14) . 3_566 ?
As3 Ba3 In1 135.782(13) 3_556 1_545 ?
As3 Ba3 In1 44.218(14) 3_556 3_556 ?
As3 Ba3 In1 135.781(14) 3_556 . ?
As3 Ba3 In1 44.218(14) 3_556 3_566 ?
As3 Ba3 In1 44.219(13) . . ?
As3 Ba3 In4 85.28(2) . . ?
As3 Ba3 In4 85.28(2) 3_556 3_556 ?
As3 Ba3 In4 94.72(2) 3_556 . ?
As3 Ba3 In4 94.72(2) . 3_556 ?
As3 Ba3 As3 180.0 . 3_556 ?
Ba3 In1 Ba3 67.913(14) 1_565 . ?
In2 In1 Ba3 144.290(10) . . ?
In2 In1 Ba3 144.290(10) . 1_565 ?
In2 In1 As3 104.95(3) . 1_565 ?
In2 In1 As3 104.95(3) . . ?
As1 In1 Ba3 55.739(19) . . ?
As1 In1 Ba3 55.739(19) . 1_565 ?
As1 In1 In2 120.96(4) . . ?
As1 In1 As3 110.33(3) . . ?
As1 In1 As3 110.33(3) . 1_565 ?
As3 In1 Ba3 108.98(3) . 1_565 ?
As3 In1 Ba3 56.33(2) 1_565 1_565 ?
As3 In1 Ba3 56.33(2) . . ?
As3 In1 Ba3 108.98(3) 1_565 . ?
As3 In1 As3 103.88(4) 1_565 . ?
Ba2 In2 Ba2 67.953(14) . 1_565 ?
In1 In2 Ba2 132.251(18) . . ?
In1 In2 Ba2 132.251(18) . 1_565 ?
In1 In2 As2 95.87(3) . . ?
As2 In2 Ba2 56.523(19) . 1_565 ?
As2 In2 Ba2 56.523(19) . . ?
As4 In2 Ba2 55.28(2) 1_565 1_565 ?
As4 In2 Ba2 108.68(3) 1_565 . ?
As4 In2 Ba2 55.28(2) . . ?
As4 In2 Ba2 108.68(3) . 1_565 ?
As4 In2 In1 117.71(3) 1_565 . ?
As4 In2 In1 117.70(3) . . ?
As4 In2 As2 109.74(3) . . ?
As4 In2 As2 109.74(3) 1_565 . ?
As4 In2 As4 105.53(4) 1_565 . ?
As2 In3 In3 111.13(3) 1_545 3 ?
As2 In3 In3 111.13(3) . 3 ?
As2 In3 As2 104.06(4) . 1_545 ?
As3 In3 In3 111.28(4) . 3 ?
As3 In3 As2 109.49(3) . 1_545 ?
As3 In3 As2 109.49(3) . . ?
In4 In4 Ba3 135.56(4) 3_656 . ?
As1 In4 Ba3 52.59(2) . . ?
As1 In4 Ba3 52.59(2) 1_545 . ?
As1 In4 In4 115.67(3) 1_545 3_656 ?
As1 In4 In4 115.67(3) . 3_656 ?
As1 In4 As1 105.18(4) 1_545 . ?
As4 In4 Ba3 102.90(3) 3_656 . ?
As4 In4 In4 121.53(4) 3_656 3_656 ?
As4 In4 As1 97.84(3) 3_656 . ?
As4 In4 As1 97.84(3) 3_656 1_545 ?
Ba3 As1 Ba1 87.89(2) . . ?
Ba3 As1 Ba1 87.89(2) 1_565 . ?
Ba3 As1 Ba3 83.72(2) . 1_565 ?
In1 As1 Ba1 164.90(4) . . ?
In1 As1 Ba3 80.90(2) . . ?
In1 As1 Ba3 80.90(2) . 1_565 ?
In1 As1 In4 97.49(3) . 1_565 ?
In1 As1 In4 97.49(3) . . ?
In4 As1 Ba1 91.65(3) 1_565 . ?
In4 As1 Ba1 91.65(3) . . ?
In4 As1 Ba3 85.548(15) 1_565 1_565 ?
In4 As1 Ba3 169.27(3) . 1_565 ?
In4 As1 Ba3 169.27(3) 1_565 . ?
In4 As1 Ba3 85.548(15) . . ?
In4 As1 In4 105.18(4) . 1_565 ?
Ba2 As2 Ba1 88.17(2) 1_565 1_554 ?
Ba2 As2 Ba1 88.17(2) . 1_554 ?
Ba2 As2 Ba2 82.21(2) 1_565 . ?
In2 As2 Ba1 162.74(4) . 1_554 ?
In2 As2 Ba2 78.88(2) . 1_565 ?
In2 As2 Ba2 78.88(2) . . ?
In3 As2 Ba1 93.23(3) . 1_554 ?
In3 As2 Ba1 93.23(3) 1_565 1_554 ?
In3 As2 Ba2 86.832(15) 1_565 1_565 ?
In3 As2 Ba2 86.833(15) . . ?
In3 As2 Ba2 168.91(3) . 1_565 ?
In3 As2 Ba2 168.90(3) 1_565 . ?
In3 As2 In2 97.36(3) 1_565 . ?
In3 As2 In2 97.36(3) . . ?
In3 As2 In3 104.06(4) 1_565 . ?
Ba1 As3 Ba1 81.24(3) 3_556 3_566 ?
Ba3 As3 Ba1 89.54(2) . 3_566 ?
Ba3 As3 Ba1 89.54(2) . 3_556 ?
In1 As3 Ba1 86.144(17) . 3_566 ?
In1 As3 Ba1 163.32(4) . 3_556 ?
In1 As3 Ba1 163.32(4) 1_545 3_566 ?
In1 As3 Ba1 86.144(17) 1_545 3_556 ?
In1 As3 Ba3 79.45(3) 1_545 . ?
In1 As3 Ba3 79.45(3) . . ?
In1 As3 In1 103.88(4) . 1_545 ?
In3 As3 Ba1 92.54(3) . 3_566 ?
In3 As3 Ba1 92.54(3) . 3_556 ?
In3 As3 Ba3 177.26(4) . . ?
In3 As3 In1 98.90(3) . 1_545 ?
In3 As3 In1 98.90(3) . . ?
Ba1 As4 Ba1 80.43(3) 3_666 3_656 ?
Ba2 As4 Ba1 90.19(2) . 3_666 ?
Ba2 As4 Ba1 90.19(2) . 3_656 ?
In2 As4 Ba1 163.82(4) . 3_656 ?
In2 As4 Ba1 86.121(17) . 3_666 ?
In2 As4 Ba1 86.121(17) 1_545 3_656 ?
In2 As4 Ba1 163.82(4) 1_545 3_666 ?
In2 As4 Ba2 80.85(3) 1_545 . ?
In2 As4 Ba2 80.85(3) . . ?
In2 As4 In2 105.53(4) 1_545 . ?
In4 As4 Ba1 94.24(3) 3_656 3_656 ?
In4 As4 Ba1 94.24(3) 3_656 3_666 ?
In4 As4 Ba2 174.19(4) 3_656 . ?
In4 As4 In2 95.69(3) 3_656 1_545 ?
In4 As4 In2 95.69(3) 3_656 . ?
loop_
_geom_bond_atom_site_label_1
_geom_bond_atom_site_label_2
_geom_bond_distance
_geom_bond_site_symmetry_2
_geom_bond_publ_flag
Ba1 Ba1 4.3005(5) 1_545 ?
Ba1 Ba1 4.3005(5) 1_565 ?
Ba1 Ba2 4.6288(6) 1_556 ?
Ba1 Ba2 4.6288(6) 1_566 ?
Ba1 Ba3 4.6215(6) . ?
Ba1 Ba3 4.6215(6) 1_565 ?
Ba1 As1 3.4340(12) . ?
Ba1 As2 3.3818(12) 1_556 ?
Ba1 As3 3.3029(9) 3_556 ?
Ba1 As3 3.3029(9) 3_566 ?
Ba1 As4 3.3304(9) 3_656 ?
Ba1 As4 3.3304(9) 3_666 ?
Ba2 Ba2 4.3005(5) 1_545 ?
Ba2 Ba2 4.3005(5) 1_565 ?
Ba2 In2 3.8476(6) 1_545 ?
Ba2 In2 3.8476(6) 3_665 ?
Ba2 In2 3.8476(6) 3_655 ?
Ba2 In2 3.8476(6) . ?
Ba2 As2 3.2707(8) . ?
Ba2 As2 3.2707(8) 1_545 ?
Ba2 As2 3.2707(8) 3_665 ?
Ba2 As2 3.2707(8) 3_655 ?
Ba2 As4 3.2034(10) 3_655 ?
Ba2 As4 3.2034(10) . ?
Ba3 In1 3.8497(6) 3_556 ?
Ba3 In1 3.8497(6) 1_545 ?
Ba3 In1 3.8497(6) 3_566 ?
Ba3 In1 3.8496(6) . ?
Ba3 In4 4.0443(8) 3_556 ?
Ba3 In4 4.0443(8) . ?
Ba3 As1 3.2222(8) . ?
Ba3 As1 3.2222(8) 3_566 ?
Ba3 As1 3.2222(8) 1_545 ?
Ba3 As1 3.2222(8) 3_556 ?
Ba3 As3 3.2590(10) . ?
Ba3 As3 3.2590(10) 3_556 ?
In1 In2 2.7206(10) . ?
In1 As1 2.6769(12) . ?
In1 As3 2.7309(8) 1_565 ?
In1 As3 2.7309(8) . ?
In2 As2 2.7530(12) . ?
In2 As4 2.7008(7) . ?
In2 As4 2.7008(7) 1_565 ?
In3 In3 2.8545(14) 3 ?
In3 As2 2.7275(8) . ?
In3 As2 2.7276(8) 1_545 ?
In3 As3 2.7248(12) . ?
In4 In4 2.7975(14) 3_656 ?
In4 As1 2.7070(8) . ?
In4 As1 2.7070(8) 1_545 ?
In4 As4 2.6906(12) 3_656 ?
