#------------------------------------------------------------------------------
#$Date: 2021-07-05 20:38:39 +0300 (Mon, 05 Jul 2021) $
#$Revision: 267177 $
#$URL: file:///home/coder/svn-repositories/cod/cif/7/70/74/7707400.cif $
#------------------------------------------------------------------------------
#
# This file is available in the Crystallography Open Database (COD),
# http://www.crystallography.net/
#
# All data on this site have been placed in the public domain by the
# contributors.
#
data_7707400
loop_
_publ_author_name
'Marchuk, Margarita V.'
'Vorotnikova, Natalya A.'
'Vorotnikov, Yuri A.'
'Kuratieva, Natalia V.'
'Stass, Dmitri V.'
'Shestopalov, Michael A.'
_publ_section_title
;
 Optical property trends in a family of {Mo<sub>6</sub>I<sub>8</sub>}
 aquahydroxo complexes.
;
_journal_issue                   25
_journal_name_full
'Dalton transactions (Cambridge, England : 2003)'
_journal_page_first              8794
_journal_page_last               8802
_journal_paper_doi               10.1039/d1dt01293b
_journal_volume                  50
_journal_year                    2021
_chemical_formula_moiety         'I8 Mo6 O6 H8, 2(C7 H7 O3 S), 2(H2 O)'
_chemical_formula_sum            'C14 H28 I8 Mo6 O14 S2'
_chemical_formula_weight         2075.32
_space_group_crystal_system      triclinic
_space_group_IT_number           2
_space_group_name_Hall           '-P 1'
_space_group_name_H-M_alt        'P -1'
_atom_sites_solution_hydrogens   geom
_atom_sites_solution_primary     direct
_atom_sites_solution_secondary   difmap
_audit_creation_method           SHELXL-2014/7
_audit_update_record
;
2020-10-09 deposited with the CCDC.	2021-05-17 downloaded from the CCDC.
;
_cell_angle_alpha                77.300(3)
_cell_angle_beta                 79.348(3)
_cell_angle_gamma                73.852(3)
_cell_formula_units_Z            1
_cell_length_a                   9.4471(10)
_cell_length_b                   9.4592(10)
_cell_length_c                   11.5036(13)
_cell_measurement_reflns_used    4305
_cell_measurement_temperature    150(2)
_cell_measurement_theta_max      27.16
_cell_measurement_theta_min      2.26
_cell_volume                     954.84(18)
_computing_cell_refinement       'Bruker SAINT'
_computing_data_collection       'Bruker APEX2'
_computing_data_reduction        'Bruker SAINT'
_computing_molecular_graphics    'Bruker SHELXTL'
_computing_publication_material  'Bruker SHELXTL'
_computing_structure_refinement  'Bruker SHELXTL'
_computing_structure_solution    'Bruker SHELXTL'
_diffrn_ambient_temperature      150(2)
_diffrn_detector_area_resol_mean 25
_diffrn_measured_fraction_theta_full 0.990
_diffrn_measured_fraction_theta_max 0.980
_diffrn_measurement_device_type  'Bruker Nonius X8Apex CCD area-detector'
_diffrn_measurement_method       '\f scans'
_diffrn_radiation_monochromator  graphite
_diffrn_radiation_probe          x-ray
_diffrn_radiation_type           MoK\a
_diffrn_radiation_wavelength     0.71073
_diffrn_reflns_av_R_equivalents  0.0337
_diffrn_reflns_av_unetI/netI     0.0554
_diffrn_reflns_Laue_measured_fraction_full 0.990
_diffrn_reflns_Laue_measured_fraction_max 0.980
_diffrn_reflns_limit_h_max       12
_diffrn_reflns_limit_h_min       -12
_diffrn_reflns_limit_k_max       12
_diffrn_reflns_limit_k_min       -12
_diffrn_reflns_limit_l_max       14
_diffrn_reflns_limit_l_min       -14
_diffrn_reflns_number            7699
_diffrn_reflns_point_group_measured_fraction_full 0.990
_diffrn_reflns_point_group_measured_fraction_max 0.980
_diffrn_reflns_theta_full        25.250
_diffrn_reflns_theta_max         27.157
_diffrn_reflns_theta_min         1.831
_diffrn_standards_decay_%        0
_diffrn_standards_number         0
_exptl_absorpt_coefficient_mu    8.539
_exptl_absorpt_correction_type   multi-scan
_exptl_absorpt_process_details   'Bruker SADABS'
_exptl_crystal_colour            orange
_exptl_crystal_density_diffrn    3.609
_exptl_crystal_description       plate
_exptl_crystal_F_000             932
_exptl_crystal_size_max          0.160
_exptl_crystal_size_mid          0.130
_exptl_crystal_size_min          0.040
_exptl_transmission_factor_max   0.746
_exptl_transmission_factor_min   0.561
_refine_diff_density_max         2.813
_refine_diff_density_min         -7.017
_refine_diff_density_rms         0.595
_refine_ls_extinction_method     none
_refine_ls_goodness_of_fit_ref   1.063
_refine_ls_hydrogen_treatment    constr
_refine_ls_matrix_type           full
_refine_ls_number_parameters     210
_refine_ls_number_reflns         4143
_refine_ls_number_restraints     6
_refine_ls_restrained_S_all      1.063
_refine_ls_R_factor_all          0.0680
_refine_ls_R_factor_gt           0.0634
_refine_ls_shift/su_max          0.000
_refine_ls_shift/su_mean         0.000
_refine_ls_structure_factor_coef Fsqd
_refine_ls_weighting_details
'w=1/[\s^2^(Fo^2^)+(0.1332P)^2^+19.2287P] where P=(Fo^2^+2Fc^2^)/3'
_refine_ls_weighting_scheme      calc
_refine_ls_wR_factor_gt          0.1967
_refine_ls_wR_factor_ref         0.2010
_reflns_Friedel_coverage         0.000
_reflns_number_gt                3684
_reflns_number_total             4143
_reflns_threshold_expression     >2\s(I)
_cod_data_source_file            d1dt01293b2.cif
_cod_data_source_block           yv475aa
_cod_depositor_comments
'Adding full bibliography for 7707398--7707400.cif.'
_cod_database_code               7707400
_shelx_shelxl_version_number     2014/7
_shelx_space_group_comment
;
The symmetry employed for this shelxl refinement is uniquely defined
by the following loop, which should always be used as a source of
symmetry information in preference to the above space-group names.
They are only intended as comments.
;
_shelx_estimated_absorpt_t_min   0.342
_shelx_estimated_absorpt_t_max   0.726
_shelx_res_file
;

    D:\Job\SHESTO~1\yv475a\aa\yv475aa.res created by SHELXL-2014/7

TITL yv475aa in P-1
CELL 0.71073 9.4471 9.4592 11.5036 77.300 79.348 73.852
ZERR 1.0000 0.0010 0.0010 0.0013 0.003 0.003 0.003
LATT 1
SFAC O H MO I S C
UNIT 14 28 6 8 2 14
MERG 2
OMIT 0 180
FMAP 2
GRID
PLAN 5
TEMP -123
SIZE 0.16 0.13 0.04
EADP O11A O11B
EADP O12A O12B
EADP O13A O13B
BOND $H

ISOR 0.005 0.008 O2
OMIT -1 0 8
OMIT 5 6 9
L.S. 10
ACTA 50.5
WGHT    0.133200   19.228701
FVAR       0.06989   0.79549
I1    4    0.526986    0.201944    0.369115    11.00000    0.01461    0.01312 =
         0.02134   -0.00753   -0.00073   -0.00497
I2    4    0.446959    0.820723    0.289289    11.00000    0.01369    0.01212 =
         0.01904    0.00285   -0.00553   -0.00418
I3    4    0.206248    0.529737    0.723689    11.00000    0.01097    0.01738 =
         0.01752   -0.00460    0.00244   -0.00484
I4    4    0.180115    0.549102    0.381304    11.00000    0.00965    0.01563 =
         0.01950   -0.00035   -0.00640   -0.00409
MO1   3    0.372338    0.370864    0.544801    11.00000    0.00753    0.00874 =
         0.01149   -0.00196   -0.00193   -0.00305
MO2   3    0.487374    0.510478    0.337075    11.00000    0.00945    0.01183 =
         0.01037   -0.00171   -0.00185   -0.00451
MO3   3    0.335729    0.665246    0.505552    11.00000    0.00599    0.00810 =
         0.01603   -0.00193   -0.00164   -0.00132
S1    5    0.716107    0.725790   -0.095951    11.00000    0.02661    0.02205 =
         0.02108   -0.00156   -0.00901   -0.01130
O1    1    0.231698    0.230658    0.589042    11.00000    0.01420    0.01814 =
         0.01191   -0.00082   -0.00269   -0.01375
O1W   1    0.131860    0.139549    0.431983    11.00000    0.01591    0.01530 =
         0.02605   -0.00235   -0.00448   -0.00206
O2    1    0.469997    0.530625    0.147929    11.00000    0.02792    0.03277 =
         0.01142   -0.00276   -0.00530   -0.02399
O3    1    0.147573    0.855879    0.513072    11.00000    0.00972    0.00647 =
         0.06071   -0.00392    0.00172    0.00436
PART 1
O11A  1    0.687941    0.580163   -0.031399    21.00000    0.02145    0.03002 =
         0.01367   -0.00354    0.00458   -0.02284
PART 2
O11B  1    0.744429    0.569031   -0.067725   -21.00000    0.02145    0.03002 =
         0.01367   -0.00354    0.00458   -0.02284
PART 1
O12A  1    0.823493    0.706475   -0.204114    21.00000    0.03278    0.03242 =
         0.02631   -0.00456    0.00133   -0.02252
PART 2
O12B  1    0.719407    0.813195   -0.204097   -21.00000    0.03278    0.03242 =
         0.02631   -0.00456    0.00133   -0.02252
PART 1
O13A  1    0.580023    0.836233   -0.120136    21.00000    0.03762    0.03670 =
         0.02438   -0.00773   -0.02344   -0.00034
PART 2
O13B  1    0.554075    0.733054   -0.032227   -21.00000    0.03762    0.03670 =
         0.02438   -0.00773   -0.02344   -0.00034
PART 0
C1    6    0.802418    0.789036   -0.001677    11.00000    0.02253    0.02527 =
         0.01804   -0.00119   -0.00301   -0.01034
C2    6    0.945120    0.718894    0.021850    11.00000    0.02871    0.01706 =
         0.02741    0.00029   -0.00833   -0.00737
AFIX  43
H2    2    0.996849    0.631268   -0.010035    11.00000   -1.20000
AFIX   0
C3    6    1.013956    0.774280    0.091171    11.00000    0.02394    0.02312 =
         0.02770    0.00563   -0.01551   -0.00801
AFIX  43
H3    2    1.113239    0.725357    0.105365    11.00000   -1.20000
AFIX   0
C4    6    0.938345    0.903606    0.141678    11.00000    0.02728    0.02743 =
         0.01233    0.00389   -0.00711   -0.01506
C5    6    0.795056    0.972414    0.116040    11.00000    0.02928    0.02591 =
         0.01597   -0.00826   -0.00149   -0.00731
AFIX  43
H5    2    0.742151    1.059974    0.147601    11.00000   -1.20000
AFIX   0
C6    6    0.727058    0.916980    0.045728    11.00000    0.01125    0.02663 =
         0.02854   -0.00684   -0.00146   -0.00496
AFIX  43
H6    2    0.628525    0.966359    0.029680    11.00000   -1.20000
AFIX   0
C7    6    1.009911    0.965985    0.216712    11.00000    0.04478    0.02680 =
         0.02795   -0.00160   -0.01836   -0.02118
AFIX 137
H7A   2    0.969685    1.074610    0.206702    11.00000   -1.50000
H7B   2    1.117504    0.943467    0.191501    11.00000   -1.50000
H7C   2    0.989701    0.920981    0.301376    11.00000   -1.50000
AFIX   0
HKLF 4

REM  yv475aa in P-1
REM R1 =  0.0634 for    3684 Fo > 4sig(Fo)  and  0.0680 for all    4143 data
REM    210 parameters refined using      6 restraints

END

WGHT      0.1334     19.1458

REM Highest difference peak  2.813,  deepest hole -7.017,  1-sigma level  0.595
Q1    1   0.1515  0.5919  0.6761  11.00000  0.05    2.81
Q2    1   0.5777  0.1440  0.4155  11.00000  0.05    2.73
Q3    1   0.2419  0.5102  0.3252  11.00000  0.05    2.69
Q4    1   0.5014  0.7788  0.2352  11.00000  0.05    2.38
Q5    1   0.6116  0.1880  0.3127  11.00000  0.05    1.95
;
_shelx_res_checksum              42271
_shelx_hkl_file
;
  -1   0   0  334.42   18.78
  -1   0   0  326.40   21.20
  -1   0   0  336.40   21.19
   1   0   0  318.90   21.20
   1   0   0  340.94   21.19
   1   0   0  323.10   18.78
  -2   0   0    3.32    0.21
  -2   0   0    3.41    0.24
  -2   0   0    3.16    0.24
   2   0   0    3.19    0.24
   2   0   0    3.29    0.24
   2   0   0    3.00    0.21
  -3   0   0  273.04   17.71
   3   0   0  257.47   17.76
   3   0   0  291.40   17.76
   3   0   0  281.36   15.76
  -4   0   0   42.32    2.74
   4   0   0   43.13    2.42
   4   0   0   40.52    2.73
  -5   0   0   11.72    0.83
   5   0   0   12.36    0.73
   5   0   0   11.81    0.83
  -6   0   0  136.75    8.92
   6   0   0  140.85    7.90
   6   0   0  137.03    8.92
  -7   0   0   62.37    4.04
   7   0   0   61.21    4.04
  -8   0   0   17.05    1.20
   8   0   0   16.93    1.20
  -9   0   0    1.28    0.25
   9   0   0    1.33    0.27
 -10   0   0    0.05    0.19
  10   0   0    0.45    0.22
  11   0   0   20.95    1.67
  11  -1   0    0.07    0.55
  10  -1   0   35.05    2.55
   9  -1   0    1.76    0.29
  -9   1   0    1.93    0.30
   8  -1   0   61.21    4.08
  -8   1   0   62.81    4.08
   7  -1   0    0.87    0.18
  -7   1   0    1.06    0.20
   6  -1   0    3.27    0.31
  -6   1   0    3.37    0.31
   5  -1   0  110.20    6.15
   5  -1   0  106.94    6.94
  -5   1   0  104.75    6.94
   4  -1   0   60.92    3.51
   4  -1   0   62.85    3.96
   4  -1   0   58.64    3.96
  -4   1   0   62.00    3.96
  -4   1   0   61.19    3.51
   3  -1   0    0.22    0.06
   3  -1   0    0.13    0.07
   3  -1   0    0.16    0.07
  -3   1   0    0.10    0.06
   2  -1   0  172.50   11.35
   2  -1   0  174.97   10.05
   2  -1   0  185.20   11.33
  -2   1   0  174.61   11.33
  -2   1   0  174.82   10.04
   1  -1   0    4.52    0.29
   1  -1   0    4.32    0.29
  -1   1   0    4.14    0.29
  -1   1   0    4.38    0.30
  -1   1   0    4.34    0.27
  -1  -1   0   16.29    1.04
  -1  -1   0   15.11    1.04
   1   1   0   15.85    1.05
   1   1   0   14.25    1.04
  -2  -1   0   37.22    2.25
  -2  -1   0   33.18    2.25
   2   1   0   33.75    2.25
   2   1   0   34.71    2.25
  -3  -1   0  180.41   11.33
  -3  -1   0  175.97   11.33
   3   1   0  171.73   11.31
  -4  -1   0   73.66    4.72
   4   1   0   71.71    4.70
  -5  -1   0    0.65    0.13
   5   1   0    0.71    0.13
  -6  -1   0  302.99   19.08
   6   1   0  290.55   19.08
  -7  -1   0  481.20   30.54
   7   1   0  469.57   30.54
  -8  -1   0   41.68    2.73
   8   1   0   40.22    2.73
  -9  -1   0   22.29    1.62
   9   1   0   24.48    1.64
 -10  -1   0   20.81    1.51
  10   1   0   20.88    1.51
 -11  -1   0    4.33    0.52
  11   1   0    3.76    0.70
  10  -2   0   82.29    5.61
   9  -2   0   75.30    5.07
   8  -2   0    0.29    0.16
  -8   2   0    0.06    0.15
   7  -2   0   11.86    0.87
  -7   2   0   11.90    0.87
   6  -2   0   70.23    4.56
  -6   2   0   70.72    4.04
  -6   2   0   68.89    4.56
   5  -2   0    0.58    0.13
  -5   2   0    0.80    0.14
  -5   2   0    0.74    0.12
   4  -2   0   21.15    1.32
   4  -2   0   19.46    1.17
   4  -2   0   19.55    1.32
  -4   2   0   19.52    1.17
  -4   2   0   19.46    1.32
   3  -2   0  316.36   19.69
   3  -2   0  293.78   19.69
   3  -2   0  304.61   17.47
  -3   2   0  310.26   19.67
  -3   2   0  307.35   17.47
   2  -2   0    0.91    0.10
   2  -2   0    1.02    0.11
  -2   2   0    0.71    0.10
  -2   2   0    1.26    0.13
   1  -2   0  152.36    9.50
   1  -2   0  151.70    9.50
  -1   2   0  150.17    9.48
  -1   2   0  131.72    9.48
  -1   2   0  152.98    8.41
  -1  -2   0   19.22    1.31
  -1  -2   0   21.24    1.31
   1   2   0   19.39    1.31
   1   2   0   22.34    1.31
   1   2   0   17.20    1.31
  -2  -2   0  228.46   14.51
  -2  -2   0  219.18   14.49
   2   2   0  222.19   14.57
   2   2   0  216.35   14.48
  -3  -2   0    0.43    0.13
  -3  -2   0    0.54    0.13
   3   2   0    0.34    0.12
  -4  -2   0    0.87    0.23
   4   2   0    1.20    0.22
  -5  -2   0  190.91   11.93
   5   2   0  178.32   11.93
  -6  -2   0    0.54    0.25
   6   2   0    0.28    0.22
  -7  -2   0   87.00    5.58
   7   2   0   84.49    5.58
  -8  -2   0    1.27    0.22
   8   2   0    1.21    0.37
  -9  -2   0    2.52    0.34
   9   2   0    2.11    0.32
 -10  -2   0   15.76    1.17
  10   2   0   15.19    1.17
 -11  -2   0    2.24    0.37
  11   2   0    1.17    0.34
  10  -3   0    8.19    0.88
   9  -3   0   24.18    1.79
   8  -3   0    3.85    0.62
   7  -3   0    4.99    0.44
  -7   3   0    4.81    0.44
   6  -3   0   28.92    1.92
  -6   3   0   30.45    1.71
  -6   3   0   26.54    1.91
   5  -3   0    1.68    0.20
   5  -3   0    1.42    0.18
  -5   3   0    1.47    0.18
  -5   3   0    1.60    0.20
   4  -3   0   63.54    4.20
   4  -3   0   67.47    4.21
  -4   3   0   63.47    4.21
  -4   3   0   65.05    3.74
   3  -3   0  898.47   60.45
   3  -3   0 1000.00   60.44
  -3   3   0  922.75   60.39
  -3   3   0  941.48   53.60
   2  -3   0  332.90   21.50
   2  -3   0  348.10   21.51
  -2   3   0  357.28   19.11
  -2   3   0  300.40   21.50
   1  -3   0    2.88    0.21
   1  -3   0    2.80    0.21
  -1   3   0    2.73    0.22
  -1  -3   0  180.04   13.17
  -1  -3   0  204.88   13.19
   1   3   0  224.21   13.07
  -2  -3   0    0.59    0.11
  -2  -3   0    0.44    0.10
   2   3   0    0.51    0.13
  -3  -3   0  231.09   14.91
  -3  -3   0  219.48   14.91
   3   3   0  233.83   15.00
   3   3   0  233.34   14.97
  -4  -3   0  320.19   20.71
  -4  -3   0  317.63   20.66
   4   3   0  325.68   20.66
  -5  -3   0    8.98    0.66
   5   3   0    8.89    0.66
  -6  -3   0    7.57    0.57
   6   3   0    6.85    0.56
  -7  -3   0   11.19    0.88
   7   3   0   11.85    0.88
  -8  -3   0   51.28    3.43
   8   3   0   51.00    3.44
  -9  -3   0   46.81    3.18
   9   3   0   47.17    3.14
 -10  -3   0    4.93    0.65
  10   3   0    4.39    0.50
 -11  -3   0    4.88    0.74
  11   3   0    5.31    0.61
   9  -4   0    1.69    0.50
   8  -4   0   11.86    1.08
   7  -4   0   18.61    1.35
   6  -4   0    0.10    0.11
  -6   4   0    0.05    0.11
   5  -4   0   44.26    2.79
   5  -4   0   42.01    2.79
  -5   4   0   41.56    2.49
  -5   4   0   42.20    2.79
   4  -4   0   13.15    0.91
   4  -4   0   13.44    0.91
  -4   4   0   13.94    0.83
  -4   4   0   13.24    0.92
   3  -4   0   77.82    4.92
   3  -4   0   79.21    4.92
  -3   4   0   79.46    4.38
  -3   4   0   68.35    4.91
   2  -4   0   17.39    1.15
   2  -4   0   17.35    1.15
  -2   4   0   17.98    1.05
   1  -4   0   78.38    5.20
   1  -4   0   82.03    5.20
  -1   4   0   82.54    4.64
  -1  -4   0   69.33    4.31
  -1  -4   0   67.51    4.31
   1   4   0   64.33    4.35
  -2  -4   0    9.77    0.69
  -2  -4   0   10.70    0.69
   2   4   0   10.78    0.68
   2   4   0   10.09    0.72
  -3  -4   0  272.77   17.83
   3   4   0  280.47   17.80
  -4  -4   0  685.18   44.74
  -4  -4   0  711.29   44.76
   4   4   0  694.45   44.83
   4   4   0  672.88   44.76
  -5  -4   0   86.12    5.88
   5   4   0   94.70    5.89
  -6  -4   0   38.78    2.67
   6   4   0   41.66    2.68
  -7  -4   0  162.01   10.56
   7   4   0  163.99   10.56
  -8  -4   0    0.89    0.32
   8   4   0    1.05    0.33
  -9  -4   0    2.84    0.46
   9   4   0    2.02    0.44
 -10  -4   0  173.32   11.12
  10   4   0  166.91   11.13
 -11  -4   0   42.89    2.90
  11   4   0   39.37    2.89
   9  -5   0    8.01    0.96
   8  -5   0    0.75    0.45
   7  -5   0    6.54    0.75
   6  -5   0   80.35    5.23
   5  -5   0   12.78    0.88
  -5   5   0   12.19    0.80
   4  -5   0   37.58    2.44
   4  -5   0   38.42    2.44
  -4   5   0   35.50    2.19
   3  -5   0    1.58    0.15
   3  -5   0    1.19    0.14
  -3   5   0    1.32    0.17
   2  -5   0    0.12    0.06
   2  -5   0    0.25    0.06
  -2   5   0    0.19    0.09
   1  -5   0  121.59    7.94
   1  -5   0  121.45    7.94
  -1   5   0  127.94    7.07
  -1  -5   0    5.00    0.34
  -1  -5   0    5.26    0.34
   1   5   0    4.80    0.38
  -2  -5   0  230.81   14.17
  -2  -5   0  205.42   14.21
   2   5   0  225.22   14.18
  -3  -5   0    6.84    0.53
  -3  -5   0    7.79    0.54
   3   5   0    7.81    0.52
  -4  -5   0   96.48    6.05
  -4  -5   0   87.70    6.04
   4   5   0   95.61    6.04
  -5  -5   0    3.97    0.37
  -5  -5   0    4.39    0.38
   5   5   0    4.12    0.40
   5   5   0    3.89    0.38
  -6  -5   0   37.61    2.20
   6   5   0   27.27    2.21
  -7  -5   0   21.53    1.40
   7   5   0   18.15    1.42
  -8  -5   0    0.20    0.28
   8   5   0    0.48    0.29
  -9  -5   0    0.60    0.36
   9   5   0   -0.13    0.34
 -10  -5   0  111.86    7.39
 -11  -5   0  118.28    7.82
   8  -6   0    0.17    0.40
   7  -6   0   11.07    0.93
   6  -6   0  137.42    8.96
   5  -6   0   64.18    4.19
   4  -6   0    4.58    0.35
   4  -6   0    4.29    0.36
  -4   6   0    4.55    0.38
   3  -6   0   51.20    3.35
   3  -6   0   51.72    3.35
  -3   6   0   51.96    3.01
   2  -6   0   82.16    5.32
   2  -6   0   81.32    5.31
  -2   6   0   84.29    4.75
   1  -6   0    4.11    0.28
   1  -6   0    3.87    0.27
  -1   6   0    3.94    0.30
   0   6   0  145.67    8.34
   1   6   0  336.35   21.55
  -2  -6   0    2.14    0.18
  -2  -6   0    2.00    0.16
   2   6   0    1.77    0.26
  -3  -6   0    1.28    0.19
  -4  -6   0   45.03    2.87
   4   6   0   42.64    2.85
  -5  -6   0   31.87    2.00
   5   6   0   27.55    2.00
  -6  -6   0   55.53    3.60
  -6  -6   0   52.75    3.59
   6   6   0   53.59    3.60
  -7  -6   0    7.40    0.57
   7   6   0    5.74    0.57
  -8  -6   0    2.11    0.37
  -9  -6   0   93.75    6.18
 -10  -6   0    0.48    0.41
 -11  -6   0    8.97    0.91
   7  -7   0    1.35    0.54
   6  -7   0    9.33    0.80
   5  -7   0    1.73    0.35
   4  -7   0   17.60    1.20
   3  -7   0    3.14    0.27
   3  -7   0    2.95    0.24
  -3   7   0    2.63    0.28
   2  -7   0    7.20    0.49
   2  -7   0    7.14    0.51
  -2   7   0    7.39    0.50
   1  -7   0    6.71    0.45
   1  -7   0    6.68    0.46
  -1   7   0    6.69    0.47
   0   7   0   58.05    3.83
   0   7   0   59.79    3.43
   1   7   0  480.41   30.80
  -2  -7   0   94.97    6.08
  -2  -7   0   95.30    6.07
   2   7   0   93.19    6.11
  -3  -7   0    9.79    0.68
  -4  -7   0  155.38   10.02
  -5  -7   0   27.50    1.84
  -6  -7   0    6.96    0.58
   6   7   0    7.03    0.62
  -7  -7   0  192.16   12.49
  -8  -7   0  135.75    8.85
  -9  -7   0    0.56    0.32
 -10  -7   0    8.96    0.84
   6  -8   0    0.30    0.44
   5  -8   0    1.24    0.39
   4  -8   0   12.69    1.00
   3  -8   0    2.76    0.28
  -3   8   0    2.74    0.38
   2  -8   0    0.06    0.10
   2  -8   0    0.07    0.05
  -2   8   0   -0.01    0.10
  -1   8   0   69.75    4.04
   0   8   0   17.73    1.19
   0   8   0   16.91    1.10
   1   8   0   37.94    2.58
   1   8   0   40.57    2.32
  -2  -8   0    3.68    0.29
   2   8   0    3.85    0.34
  -3  -8   0   66.51    4.28
  -3  -8   0   66.17    4.29
  -4  -8   0    0.96    0.22
  -5  -8   0    0.15    0.20
  -6  -8   0    7.15    0.57
  -7  -8   0   95.38    6.28
  -8  -8   0  120.85    7.96
  -9  -8   0    5.94    0.61
 -10  -8   0   23.09    1.72
   5  -9   0    5.80    0.70
   4  -9   0    1.86    0.41
   3  -9   0   26.59    1.87
   2  -9   0   79.54    5.28
   2  -9   0   81.20    5.26
  -2   9   0   84.43    4.85
  -1   9   0    4.98    0.46
  -1   9   0    3.90    0.49
   0   9   0    0.47    0.14
   0   9   0   -0.02    0.24
   1   9   0   31.99    2.16
   1   9   0   32.73    1.94
   2   9   0    0.86    0.18
   2   9   0    1.32    0.26
  -3  -9   0   35.02    2.48
   3   9   0   40.50    2.51
  -4  -9   0    3.74    0.37
  -5  -9   0    0.10    0.25
  -6  -9   0   90.77    5.92
  -7  -9   0    1.84    0.32
  -8  -9   0    4.26    0.51
  -9  -9   0   12.04    1.03
   3 -10   0    5.64    0.49
  -3  10   0    5.54    0.60
  -2  10   0   80.95    5.34
  -1  10   0   21.42    1.54
  -1  10   0   22.17    1.39
   1  10   0   26.66    1.83
   1  10   0   27.33    1.62
   2  10   0   16.67    1.06
   2  10   0   15.91    1.15
  -3 -10   0    4.31    0.33
  -3 -10   0    4.07    0.36
   3  10   0    2.92    0.40
   3  10   0    4.73    0.42
  -4 -10   0  176.41   11.80
   4  10   0  189.28   11.80
  -5 -10   0  150.68    9.76
  -6 -10   0    1.34    0.33
  -7 -10   0   12.38    0.96
  -8 -10   0   27.04    1.94
  -1  11   0    0.24    0.36
  -1  11   0   -0.09    0.36
   0  11   0   30.16    1.67
   0  11   0   22.76    1.86
   1  11   0    4.90    0.43
   1  11   0    4.03    0.44
   2  11   0    0.69    0.18
   2  11   0    0.65    0.15
   3  11   0   10.51    0.77
   3  11   0    8.95    0.70
  -4 -11   0   25.71    1.85
   4  11   0   30.08    1.71
  -5 -11   0  101.62    6.63
  -6 -11   0   11.26    0.91
  -6 -11   1    0.29    0.36
  -5 -11   1   24.62    1.75
  -4 -11   1   12.95    0.96
   3  11  -1    0.62    0.15
   2  11  -1   10.30    0.69
   1  11  -1    8.92    0.68
   1  11  -1    8.12    0.67
   0  11  -1    0.89    0.37
  -1  11  -1    6.63    0.55
  -1  11  -1    6.62    0.52
  -8 -10   1    1.00    0.44
  -7 -10   1    0.55    0.41
  -6 -10   1    0.54    0.39
  -5 -10   1   35.79    2.50
  -4 -10   1   27.58    1.97
  -3 -10   1    0.56    0.23
   2  10  -1    9.08    0.69
   1  10  -1   19.89    1.23
   1  10  -1   20.17    1.38
   0  10  -1   10.21    0.76
   0  10  -1   10.49    0.77
  -1  10  -1    0.15    0.33
  -1  10  -1   -0.12    0.30
  -2  10  -1    1.86    0.54
  -2  10  -1    2.57    0.57
   3 -10   1    3.44    0.39
  -9  -9   1   10.37    0.96
  -8  -9   1    0.84    0.34
  -7  -9   1    1.46    0.34
  -6  -9   1    7.88    0.74
  -5  -9   1    0.10    0.32
  -4  -9   1    2.29    0.40
   3   9  -1    0.37    0.15
  -3  -9   1   -0.01    0.28
  -3  -9   1    0.12    0.06
   2   9  -1    0.02    0.11
  -2  -9   1    0.08    0.05
  -2  -9   1    0.00    0.12
   1   9  -1    5.08    0.43
   0   9  -1    7.20    0.52
   0   9  -1    7.48    0.57
  -1   9  -1    0.17    0.13
  -1   9  -1    0.09    0.12
  -2   9  -1    0.92    0.59
  -2   9  -1    0.64    0.54
   2  -9   1    0.23    0.39
  -3   9  -1    0.55    0.54
  -3   9  -1    0.24    0.47
   3  -9   1    0.46    0.41
   4  -9   1    1.17    0.32
   5  -9   1   35.01    2.36
 -10  -8   1    6.38    0.68
  -9  -8   1    0.32    0.32
  -8  -8   1   45.30    3.14
  -7  -8   1   36.50    2.55
  -6  -8   1    3.07    0.40
  -5  -8   1   19.54    1.37
  -4  -8   1    6.02    0.46
  -4  -8   1    5.64    0.50
  -3  -8   1    4.21    0.49
  -3  -8   1    4.26    0.42
   2   8  -1    0.23    0.11
  -2  -8   1    0.22    0.24
   1   8  -1    3.02    0.29
   0   8  -1    1.45    0.19
   0   8  -1    1.23    0.18
  -1   8  -1    5.57    0.39
  -1   8  -1    5.22    0.40
   1  -8   1    4.66    0.33
   1  -8   1    4.53    0.33
  -2   8  -1   -0.10    0.10
  -2   8  -1   -0.36    0.23
   2  -8   1    0.03    0.07
   2  -8   1    0.05    0.13
  -3   8  -1    0.22    0.31
   3  -8   1    0.03    0.22
  -4   8  -1    4.55    0.44
   4  -8   1    3.77    0.41
   5  -8   1    0.96    0.32
   6  -8   1   10.58    0.85
 -10  -7   1    6.77    0.70
  -9  -7   1    1.37    0.37
  -8  -7   1   55.79    3.76
  -7  -7   1   96.50    6.38
  -6  -7   1    0.49    0.24
  -5  -7   1    0.78    0.24
  -4  -7   1    4.48    0.59
  -4  -7   1    4.35    0.59
  -3  -7   1    3.82    0.38
  -3  -7   1    4.27    0.35
   2   7  -1    1.87    0.24
  -2  -7   1    2.01    0.31
  -2  -7   1    2.62    0.20
   1   7  -1   57.70    3.37
  -1  -7   1   50.74    3.32
  -1  -7   1   47.41    3.33
   0   7  -1   24.13    1.61
  -1   7  -1    2.55    0.24
  -1   7  -1    2.03    0.24
   1  -7   1    2.28    0.18
   1  -7   1    2.43    0.18
  -2   7  -1   17.41    1.07
   2  -7   1   17.30    1.13
   2  -7   1   17.07    1.14
  -3   7  -1   31.35    1.87
   3  -7   1   31.42    2.04
   3  -7   1   31.15    2.05
  -4   7  -1    0.49    0.36
   4  -7   1    0.37    0.12
   5  -7   1    8.43    0.67
   6  -7   1    3.07    0.43
   7  -7   1   16.96    1.25
 -11  -6   1    0.37    0.55
 -10  -6   1    5.20    0.62
  -9  -6   1   27.02    1.90
  -8  -6   1    8.20    0.69
  -7  -6   1    3.02    0.37
   6   6  -1    2.77    0.31
  -6  -6   1    2.57    0.32
   5   6  -1    2.32    0.27
  -5  -6   1    3.05    0.29
  -5  -6   1    2.54    0.30
   4   6  -1    2.20    0.22
  -4  -6   1    1.99    0.28
  -4  -6   1    1.73    0.28
  -3  -6   1    2.17    0.24
  -3  -6   1    2.23    0.23
  -2  -6   1    0.47    0.18
  -2  -6   1    0.54    0.16
   1   6  -1   60.95    3.59
  -1  -6   1   51.56    3.55
  -1  -6   1   52.99    3.69
   0   6  -1   83.28    5.54
   0  -6   1   88.21    5.52
   0  -6   1   86.20    5.52
   1  -6   1    1.94    0.15
  -2   6  -1   36.17    2.07
   2  -6   1   34.46    2.28
   2  -6   1   35.04    2.28
  -3   6  -1   68.90    4.03
   3  -6   1   70.06    4.50
   3  -6   1   70.15    4.51
  -4   6  -1    7.54    0.56
   4  -6   1    8.55    0.58
   4  -6   1    7.83    0.57
   5  -6   1    0.30    0.13
   6  -6   1    0.57    0.66
   7  -6   1    1.64    0.43
   8  -6   1    0.39    0.37
 -11  -5   1   83.85    5.61
 -10  -5   1  147.17    9.61
   9   5  -1    4.09    0.51
  -9  -5   1    3.72    0.50
   8   5  -1   20.39    1.42
  -8  -5   1   18.39    1.40
   7   5  -1    2.59    0.34
  -7  -5   1    2.78    0.34
   6   5  -1    3.70    0.38
  -6  -5   1    3.90    0.38
   5   5  -1   10.83    0.84
  -5  -5   1   11.98    0.85
  -5  -5   1   10.88    0.83
   4   5  -1    9.48    0.72
  -4  -5   1   11.87    0.75
  -4  -5   1    9.52    0.74
   3   5  -1    2.53    0.20
  -3  -5   1    2.15    0.24
  -3  -5   1    2.13    0.26
  -3  -5   1    2.35    0.24
  -2  -5   1   35.06    2.19
  -2  -5   1   30.63    2.19
   1   5  -1    2.78    0.24
  -1  -5   1    2.52    0.22
  -1  -5   1    3.16    0.21
   0   5  -1    0.51    0.10
   0  -5   1    0.27    0.09
   0  -5   1    0.51    0.08
  -2   5  -1    0.88    0.13
   2  -5   1    1.12    0.12
   2  -5   1    1.01    0.11
  -3   5  -1    2.73    0.26
   3  -5   1    2.86    0.24
  -4   5  -1    1.78    0.22
   4  -5   1    2.11    0.22
   4  -5   1    2.22    0.20
  -5   5  -1    0.84    0.16
   5  -5   1    0.37    0.12
   7  -5   1    1.55    0.48
   8  -5   1   -0.12    0.34
   9  -5   1   48.89    3.31
 -11  -4   1   56.37    3.85
  10   4  -1  182.86   12.24
 -10  -4   1  193.97   12.25
   9   4  -1    8.27    0.78
  -9  -4   1    9.21    0.79
   8   4  -1    0.16    0.37
  -8  -4   1    0.00    0.35
   7   4  -1   75.68    5.08
  -7  -4   1   79.37    5.07
   6   4  -1    9.45    0.72
  -6  -4   1    9.51    0.71
   5   4  -1   10.31    0.75
  -5  -4   1   10.25    0.73
  -5  -4   1    9.07    0.74
   4   4  -1  175.08   11.73
  -4  -4   1  179.77   11.71
  -4  -4   1  188.76   11.80
  -4  -4   1  182.04   11.73
   3   4  -1  109.19    7.40
  -3  -4   1  120.91    7.41
  -3  -4   1  113.85    7.41
   2   4  -1    0.62    0.10
  -2  -4   1    0.23    0.16
  -2  -4   1    0.38    0.17
  -2  -4   1    0.13    0.17
   1   4  -1    8.57    0.58
  -1  -4   1    9.19    0.56
  -1  -4   1    6.96    0.56
   0   4  -1   32.63    2.16
   0  -4   1   33.91    2.16
   1  -4   1    7.96    0.52
   1  -4   1    7.59    0.51
  -2   4  -1    5.22    0.38
   2  -4   1    5.82    0.39
   2  -4   1    5.56    0.39
  -3   4  -1    8.36    0.61
  -3   4  -1    9.52    0.57
   3  -4   1    8.61    0.60
   3  -4   1    8.52    0.61
  -4   4  -1    7.63    0.51
  -4   4  -1    8.14    0.56
   4  -4   1    7.86    0.55
   4  -4   1    7.35    0.55
  -5   4  -1    4.04    0.33
   5  -4   1    3.44    0.32
   5  -4   1    3.79    0.32
  -6   4  -1    4.12    0.35
   6  -4   1    4.40    0.38
   7  -4   1    1.61    0.36
   8  -4   1   12.23    0.97
   9  -4   1    0.89    0.43
  11   3  -1   11.23    0.98
 -11  -3   1   12.57    1.09
  10   3  -1    6.49    0.63
 -10  -3   1    6.67    0.74
  -9  -3   1    6.44    0.73
   8   3  -1   31.44    2.21
  -8  -3   1   32.99    2.20
   7   3  -1    4.94    0.49
  -7  -3   1    4.42    0.48
   6   3  -1    0.15    0.25
  -6  -3   1    0.05    0.24
   5   3  -1    2.07    0.28
  -5  -3   1    2.26    0.27
   4   3  -1  140.78    8.95
  -4  -3   1  135.99    8.94
  -4  -3   1  137.93    8.93
   3   3  -1  150.77   11.02
  -3  -3   1  174.35   11.01
  -3  -3   1  182.89   11.06
  -3  -3   1  174.85   11.07
   2   3  -1    0.18    0.10
  -2  -3   1   -0.15    0.09
  -2  -3   1    0.31    0.12
  -2  -3   1    0.15    0.14
   1   3  -1    3.64    0.26
  -1  -3   1    3.48    0.31
  -1  -3   1    3.88    0.28
  -1  -3   1    3.68    0.30
   0  -3   1    0.18    0.68
   0  -3   1    1.85    0.67
   1  -3   1   21.60    1.42
   1  -3   1   21.76    1.41
  -2   3  -1   16.70    1.02
  -2   3  -1   17.33    1.12
  -3   3  -1  108.77    6.78
  -3   3  -1  109.33    6.03
   3  -3   1  102.41    6.78
   3  -3   1  100.56    6.78
  -4   3  -1   13.80    0.90
  -4   3  -1   13.47    0.82
   4  -3   1   12.85    0.90
   4  -3   1   13.14    0.90
  -5   3  -1    0.09    0.09
  -5   3  -1    0.18    0.10
   5  -3   1    0.06    0.09
   5  -3   1    0.00    0.07
  -6   3  -1   31.41    2.07
  -6   3  -1   31.86    1.84
   6  -3   1   30.06    2.07
  -7   3  -1   28.26    1.70
  -7   3  -1   27.14    1.90
   7  -3   1   29.46    1.91
   8  -3   1    0.49    0.39
   9  -3   1    0.45    0.43
  10  -3   1    2.33    0.56
  11   2  -1    8.88    0.83
 -11  -2   1    8.99    0.82
  10   2  -1   14.11    1.12
 -10  -2   1   14.58    1.12
   9   2  -1    0.37    0.19
  -9  -2   1    0.00    0.16
   8   2  -1   20.46    1.44
  -8  -2   1   20.48    1.43
   7   2  -1   20.30    1.39
  -7  -2   1   19.96    1.41
   6   2  -1    1.20    0.18
  -6  -2   1    1.12    0.27
   5   2  -1  121.85    7.96
  -5  -2   1  124.18    7.95
   4   2  -1    4.97    0.41
  -4  -2   1    5.01    0.40
   3   2  -1   -0.09    0.15
  -3  -2   1    0.07    0.14
  -3  -2   1   -0.07    0.13
   2   2  -1   33.34    2.49
  -2  -2   1   41.41    2.49
  -2  -2   1   42.24    2.49
  -2  -2   1   34.44    2.49
   1   2  -1   68.05    4.43
   1   2  -1   70.06    4.42
  -1  -2   1   77.01    4.42
  -1  -2   1   62.57    4.43
  -1  -2   1   64.53    4.41
   0   2  -1    2.69    0.20
   0   2  -1    2.61    0.18
   0   2  -1    2.67    0.18
   0  -2   1    2.12    0.21
   0  -2   1    1.75    0.21
  -1   2  -1   21.79    1.41
   1  -2   1   21.51    1.41
   1  -2   1   21.93    1.41
  -2   2  -1    0.64    0.09
  -2   2  -1    0.59    0.09
   2  -2   1    0.64    0.09
   2  -2   1    0.69    0.10
  -3   2  -1   46.51    2.62
  -3   2  -1   46.45    2.94
   3  -2   1   42.53    2.94
   3  -2   1   46.48    2.95
  -4   2  -1   45.91    3.09
  -4   2  -1   48.44    2.75
   4  -2   1   48.05    3.09
   4  -2   1   47.61    3.09
  -5   2  -1    0.76    0.13
  -5   2  -1    0.56    0.11
   5  -2   1    0.50    0.10
   5  -2   1    0.44    0.11
  -6   2  -1   33.21    2.18
  -6   2  -1   32.98    1.94
   6  -2   1   32.67    2.19
  -7   2  -1   61.30    3.62
  -7   2  -1   61.55    4.08
   7  -2   1   64.20    4.09
  -8   2  -1   14.60    1.07
   8  -2   1   15.22    1.08
   9  -2   1    1.71    0.59
  10  -2   1    0.17    0.82
  11   1  -1    2.05    0.68
 -11  -1   1    2.07    0.68
  10   1  -1   70.19    4.62
 -10  -1   1   68.70    4.62
   9   1  -1   39.19    2.62
  -9  -1   1   37.96    2.61
   8   1  -1   10.44    0.82
  -8  -1   1   10.94    0.82
   7   1  -1  327.90   21.01
  -7  -1   1  325.13   21.01
   6   1  -1  284.04   18.07
  -6  -1   1  277.50   18.06
   5   1  -1    0.06    0.08
  -5  -1   1    0.01    0.09
   4   1  -1    0.20    0.09
  -4  -1   1    0.15    0.09
   3   1  -1   10.83    0.75
  -3  -1   1   10.91    0.74
  -3  -1   1   10.22    0.74
   2   1  -1   39.96    2.60
   2   1  -1   37.35    2.61
  -2  -1   1   39.24    2.61
  -2  -1   1   42.78    2.61
   1   1  -1   24.20    1.59
  -1  -1   1   24.55    1.59
  -1  -1   1   23.04    1.59
   0   1  -1  101.87    6.64
   0   1  -1  102.39    6.63
   0  -1   1  107.36    6.63
   0  -1   1  109.01    6.63
   0  -1   1   84.24    6.60
  -1   1  -1   15.11    0.97
  -1   1  -1   14.46    0.99
   1  -1   1   15.17    0.97
   1  -1   1   14.69    0.97
  -2   1  -1   56.09    3.68
  -2   1  -1   58.82    3.27
   2  -1   1   56.35    3.68
  -3   1  -1   -0.12    0.06
  -3   1  -1   -0.08    0.07
   3  -1   1   -0.27    0.06
   3  -1   1   -0.31    0.06
  -4   1  -1    0.27    0.08
  -4   1  -1    0.04    0.07
   4  -1   1    0.03    0.06
   4  -1   1    0.01    0.07
  -6   1  -1    3.11    0.25
  -6   1  -1    2.92    0.28
   6  -1   1    2.82    0.28
  -7   1  -1    9.30    0.69
   7  -1   1    9.41    0.70
  -9   1  -1    4.83    0.45
   9  -1   1    4.16    0.45
  10  -1   1    0.69    0.64
  11  -1   1    2.88    0.64
  11   0  -1   34.12    2.51
  10   0  -1    0.05    0.21
 -10   0   1    0.30    0.55
   9   0  -1    0.13    0.19
  -9   0   1    0.24    0.18
   8   0  -1   12.11    0.87
  -8   0   1   10.54    0.85
   7   0  -1  101.78    6.49
  -7   0   1   97.63    6.48
   6   0  -1  278.32   17.59
  -6   0   1  268.44   17.59
   5   0  -1   -0.01    0.08
  -5   0   1    0.17    0.10
  -4   0   1    1.15    0.15
   3   0  -1  171.57   10.95
  -3   0   1  169.11   10.95
   2   0  -1   13.24    0.90
   2   0  -1   13.49    0.89
  -2   0   1   13.30    0.89
  -2   0   1   13.10    0.89
   1   0  -1  106.55    7.34
   1   0  -1  117.02    7.34
  -1   0   1  107.72    7.34
  -1   0   1  122.69    7.34
   0   0  -1  280.49   18.67
   0   0   1  249.91   18.42
   0   0   1  289.34   18.74
  -1   0  -1  161.60   10.17
  -1   0  -1  156.92   10.12
  -1   0  -1  148.92   10.62
   1   0   1  158.01   10.18
   1   0   1  158.79   10.18
  -2   0  -1    0.26    0.07
  -2   0  -1    0.29    0.09
  -2   0  -1    0.30    0.08
   2   0   1    0.35    0.08
   2   0   1    0.26    0.08
  -4   0  -1   57.00    3.26
  -4   0  -1   56.15    3.69
   4   0   1   56.67    3.26
   4   0   1   57.78    3.69
  -5   0  -1    6.47    0.41
  -5   0  -1    6.52    0.47
   5   0   1    6.19    0.47
   5   0   1    6.33    0.41
  -6   0  -1    6.77    0.49
   6   0   1    6.41    0.42
   6   0   1    5.82    0.49
  -7   0  -1   12.52    0.88
   7   0   1   12.01    0.88
  -8   0  -1   23.65    1.62
   8   0   1   23.69    1.62
  -9   0  -1    0.27    0.16
   9   0   1    0.05    0.15
 -10   0  -1    8.68    0.75
  10   0   1    9.98    0.84
  11   0   1    3.00    0.60
  11  -1  -1    7.87    0.90
  10  -1  -1   13.25    1.22
   9  -1  -1    7.95    0.66
  -9   1   1    6.31    0.63
   8  -1  -1   54.99    3.56
  -8   1   1   52.22    3.55
   7  -1  -1    5.66    0.48
  -7   1   1    5.25    0.48
   6  -1  -1    1.81    0.22
  -6   1   1    1.56    0.22
   5  -1  -1  122.55    6.75
   5  -1  -1  116.89    7.62
  -5   1   1  114.03    7.62
   4  -1  -1   47.35    2.69
   4  -1  -1   45.93    3.03
  -4   1   1   46.44    3.04
   3  -1  -1    0.25    0.08
   3  -1  -1    0.15    0.07
   2  -1  -1   30.16    2.02
   2  -1  -1   32.56    2.02
  -2   1   1   30.19    2.02
   1  -1  -1   42.46    2.82
   1  -1  -1   45.37    2.83
   1  -1  -1   42.50    2.50
  -1   1   1   44.43    2.82
   0  -1  -1  164.06   10.93
   0  -1  -1  165.47   10.94
   0   1   1  174.98   10.95
  -1  -1  -1  116.00    7.20
  -1  -1  -1  107.06    7.18
   1   1   1  112.55    7.20
   1   1   1  103.21    7.14
  -2  -1  -1    2.80    0.23
  -2  -1  -1    2.69    0.22
   2   1   1    2.77    0.18
   2   1   1    3.01    0.23
  -3  -1  -1    3.90    0.33
   3   1   1    3.58    0.26
  -4  -1  -1    6.25    0.54
   4   1   1    6.89    0.41
   4   1   1    6.66    0.48
  -5  -1  -1   15.22    1.01
  -5  -1  -1   14.43    1.02
   5   1   1   14.68    0.89
   5   1   1   14.89    1.02
  -6  -1  -1   31.39    1.89
  -6  -1  -1   27.60    1.90
   6   1   1   29.31    1.67
   6   1   1   26.05    1.90
  -7  -1  -1   84.25    5.59
   7   1   1   85.07    5.59
   7   1   1   88.76    4.94
  -8  -1  -1    6.11    0.53
   8   1   1    6.49    0.53
  -9  -1  -1    5.00    0.48
   9   1   1    5.11    0.48
 -10  -1  -1   38.00    2.59
  10   1   1   38.43    2.63
 -11  -1  -1   21.98    1.74
  11   1   1   24.47    1.76
  10  -2  -1  133.43    8.80
   9  -2  -1  215.01   13.96
   8  -2  -1    1.84    0.29
  -8   2   1    1.97    0.30
   7  -2  -1    0.27    0.15
  -7   2   1    0.44    0.18
   6  -2  -1   56.41    3.59
  -6   2   1   53.07    3.59
   5  -2  -1    0.24    0.10
  -5   2   1    0.13    0.11
   4  -2  -1    1.35    0.16
   4  -2  -1    1.07    0.15
   4  -2  -1    1.31    0.14
  -4   2   1    1.03    0.14
  -4   2   1    0.83    0.15
   3  -2  -1  152.83   10.02
   3  -2  -1  160.31   10.03
   3  -2  -1  160.90    8.89
  -3   2   1  146.84   10.03
  -3   2   1  158.29    8.89
   2  -2  -1    2.91    0.25
   2  -2  -1    3.26    0.24
  -2   2   1    3.14    0.22
  -2   2   1    2.89    0.25
   1  -2  -1  157.58    9.88
   1  -2  -1  151.92    9.87
   1  -2  -1  148.45    8.77
  -1   2   1  160.41    9.88
  -1   2   1  149.00    8.75
   0  -2  -1    0.25    0.05
   0  -2  -1    0.40    0.09
   0  -2  -1    0.42    0.07
   0   2   1    0.22    0.05
   0   2   1    0.35    0.07
   0   2   1    0.32    0.05
  -1  -2  -1    1.32    0.13
  -1  -2  -1    1.33    0.13
   1   2   1    1.49    0.11
   1   2   1    1.37    0.12
  -2  -2  -1   47.80    3.09
  -2  -2  -1   46.35    3.09
  -2  -2  -1   50.86    3.09
   2   2   1   44.91    3.09
   2   2   1   47.12    3.09
  -3  -2  -1   23.98    1.52
  -3  -2  -1   20.87    1.51
   3   2   1   24.18    1.52
  -4  -2  -1   13.31    0.92
   4   2   1   13.15    0.92
  -5  -2  -1   19.45    1.38
   5   2   1   20.22    1.38
  -6  -2  -1    2.79    0.33
   6   2   1    2.44    0.31
  -7  -2  -1   11.27    1.21
   7   2   1   14.93    1.04
   7   2   1   16.26    0.89
  -8  -2  -1    4.70    0.52
   8   2   1    5.40    0.52
   8   2   1    6.00    0.40
  -9  -2  -1    0.29    0.17
   9   2   1   -0.26    0.36
 -10  -2  -1   23.10    1.60
  10   2   1   21.78    1.59
 -11  -2  -1   23.15    1.65
  11   2   1   22.65    1.65
  10  -3  -1   15.56    1.31
   9  -3  -1  100.07    6.60
   8  -3  -1    0.74    0.43
   7  -3  -1    3.62    0.39
  -7   3   1    4.16    0.41
   6  -3  -1   80.81    5.21
  -6   3   1   79.02    5.21
   5  -3  -1   31.15    2.12
   5  -3  -1   32.41    2.12
  -5   3   1   31.75    1.88
  -5   3   1   32.53    2.12
   4  -3  -1   61.40    4.08
   4  -3  -1   64.00    4.08
  -4   3   1   64.94    4.09
  -4   3   1   61.11    3.62
   3  -3  -1  657.96   42.33
   3  -3  -1  663.11   42.32
   3  -3  -1  665.69   37.48
  -3   3   1  654.56   37.50
  -3   3   1  650.06   42.25
   2  -3  -1  270.06   18.70
   2  -3  -1  299.20   16.61
   2  -3  -1  293.75   18.78
  -2   3   1  296.26   16.58
  -2   3   1  298.07   18.70
   1  -3  -1    0.69    0.09
   1  -3  -1    0.46    0.08
  -1   3   1    0.47    0.08
  -1   3   1    0.32    0.07
   0  -3  -1   89.80    5.66
   0  -3  -1   87.00    5.63
   0   3   1   86.27    5.00
  -1  -3  -1   11.73    0.79
  -1  -3  -1   12.00    0.79
   1   3   1   12.47    0.79
   1   3   1   11.90    0.78
  -2  -3  -1   22.39    1.49
   2   3   1   20.76    1.50
   2   3   1   24.69    1.48
  -3  -3  -1   21.63    1.47
  -3  -3  -1   22.28    1.47
  -3  -3  -1   22.08    1.49
   3   3   1   22.40    1.47
   3   3   1   21.51    1.48
  -4  -3  -1   63.14    4.19
  -4  -3  -1   63.57    4.19
   4   3   1   66.06    4.19
  -5  -3  -1    1.54    0.23
  -5  -3  -1    1.91    0.22
   5   3   1    1.66    0.23
  -6  -3  -1    6.84    0.61
   6   3   1    6.87    0.60
  -7  -3  -1    4.88    0.46
   7   3   1    4.86    0.44
  -8  -3  -1    1.84    0.45
   8   3   1    1.45    0.28
   8   3   1    1.44    0.42
  -9  -3  -1    3.33    0.61
   9   3   1    2.99    0.60
 -10  -3  -1    0.75    0.48
  10   3   1    0.56    0.45
 -11  -3  -1    1.98    0.34
  11   3   1    2.18    0.37
  12   3   1    2.07    0.41
   9  -4  -1    6.28    0.72
   8  -4  -1   35.22    2.44
   7  -4  -1   50.52    3.35
   6  -4  -1    0.13    0.12
  -6   4   1    0.55    0.15
  -6   4   1    0.12    0.12
   5  -4  -1   14.06    0.95
   5  -4  -1   13.41    0.95
  -5   4   1   14.26    0.95
  -5   4   1   12.66    0.85
   4  -4  -1   52.30    3.30
   4  -4  -1   49.32    3.30
  -4   4   1   49.99    3.29
  -4   4   1   50.82    2.94
   3  -4  -1   74.30    4.84
   3  -4  -1   77.76    4.85
  -3   4   1   77.48    4.31
  -3   4   1   70.46    4.83
   2  -4  -1   80.16    5.11
   2  -4  -1   74.84    5.11
  -2   4   1   81.14    5.09
  -2   4   1   80.80    4.54
   1  -4  -1    3.18    0.27
   1  -4  -1    3.86    0.26
  -1   4   1    3.39    0.25
   0  -4  -1    3.85    0.36
   0   4   1    4.22    0.28
  -1  -4  -1   29.66    1.94
  -1  -4  -1   30.32    1.93
   1   4   1   29.57    1.73
  -2  -4  -1    1.25    0.18
   2   4   1    1.35    0.24
   2   4   1    1.04    0.18
  -3  -4  -1  103.74    6.80
   3   4   1  108.79    6.80
   3   4   1  103.83    6.80
  -4  -4  -1  286.86   18.49
  -4  -4  -1  288.12   18.57
  -4  -4  -1  292.45   18.51
   4   4   1  282.10   18.51
   4   4   1  279.22   18.58
  -5  -4  -1   32.49    2.25
   5   4   1   35.30    2.25
  -6  -4  -1    0.03    0.17
   6   4   1   -0.09    0.15
  -7  -4  -1    2.26    0.57
   7   4   1    3.63    0.55
  -8  -4  -1    8.48    0.67
   8   4   1    7.82    0.66
  -9  -4  -1    2.00    0.40
   9   4   1    1.57    0.38
 -10  -4  -1    1.27    0.79
  10   4   1    1.11    0.78
 -11  -4  -1    3.58    0.82
  11   4   1    4.19    0.81
   9  -5  -1   30.42    2.20
   8  -5  -1    4.82    0.62
   7  -5  -1    1.02    0.42
   6  -5  -1   88.92    5.79
   5  -5  -1    3.56    0.34
  -5   5   1    3.59    0.32
   4  -5  -1   49.28    3.05
   4  -5  -1   46.73    3.05
  -4   5   1   43.52    3.02
  -4   5   1   46.98    2.72
   3  -5  -1    1.18    0.16
   3  -5  -1    1.43    0.16
  -3   5   1    0.98    0.15
   2  -5  -1    3.54    0.27
   2  -5  -1    3.25    0.27
  -2   5   1    3.47    0.27
   1  -5  -1  113.85    7.74
   1  -5  -1  122.69    7.75
  -1   5   1  124.80    6.89
   0  -5  -1   28.36    1.77
   0  -5  -1   26.66    1.78
   0   5   1   27.28    1.60
  -1  -5  -1    0.74    0.13
  -1  -5  -1    1.07    0.14
   1   5   1    0.81    0.21
  -2  -5  -1   52.49    3.31
   2   5   1   49.78    3.33
  -3  -5  -1    3.76    0.28
   3   5   1    3.20    0.31
   3   5   1    3.20    0.27
  -4  -5  -1   24.21    1.66
   4   5   1   25.43    1.67
  -5  -5  -1    1.51    0.21
  -5  -5  -1    1.58    0.21
   5   5   1    1.78    0.24
   5   5   1    1.69    0.21
  -6  -5  -1    0.08    0.15
   6   5   1   -0.09    0.13
  -7  -5  -1    1.92    0.33
   7   5   1    2.49    0.32
  -8  -5  -1   11.98    0.91
   8   5   1   12.43    0.91
  -9  -5  -1    9.69    0.81
   9   5   1    9.42    0.81
 -10  -5  -1   12.71    1.37
 -11  -5  -1   17.81    1.77
   8  -6  -1   12.42    1.04
   7  -6  -1    9.60    0.87
   6  -6  -1  212.08   13.73
   5  -6  -1  193.49   12.48
   4  -6  -1    5.81    0.44
   4  -6  -1    5.69    0.47
  -4   6   1    5.78    0.44
   3  -6  -1   40.37    2.56
   3  -6  -1   38.61    2.56
  -3   6   1   38.38    2.30
   2  -6  -1   87.88    5.55
   2  -6  -1   84.06    5.55
  -2   6   1   86.13    4.95
   1  -6  -1    0.10    0.06
   1  -6  -1    0.10    0.07
  -1   6   1   -0.02    0.07
   0  -6  -1   53.08    3.42
   0  -6  -1   53.87    3.42
   0   6   1   52.68    3.07
  -1  -6  -1  214.82   13.94
  -1  -6  -1  217.90   13.93
   1   6   1  216.37   12.33
  -2  -6  -1    2.96    0.23
  -2  -6  -1    2.75    0.23
   2   6   1    2.42    0.31
  -3  -6  -1   29.28    1.93
   3   6   1   29.78    1.96
  -4  -6  -1   -0.07    0.12
   4   6   1    0.09    0.12
  -5  -6  -1    0.06    0.13
   5   6   1    0.30    0.14
  -6  -6  -1   10.17    0.76
  -6  -6  -1    9.82    0.76
   6   6   1    9.98    0.78
   6   6   1    9.25    0.79
  -7  -6  -1    0.51    0.21
   7   6   1    0.39    0.19
  -8  -6  -1    8.20    0.70
   8   6   1    8.59    0.70
  -9  -6  -1    3.51    0.56
 -10  -6  -1    0.73    0.42
 -11  -6  -1    3.99    0.70
   7  -7  -1   19.94    1.48
   6  -7  -1   14.85    1.16
   5  -7  -1   35.14    2.38
   4  -7  -1   16.89    1.17
   3  -7  -1    5.27    0.39
   3  -7  -1    4.85    0.43
  -3   7   1    5.80    0.41
   2  -7  -1   21.04    1.48
   2  -7  -1   22.26    1.46
  -2   7   1   23.86    1.35
   1  -7  -1    0.12    0.07
   1  -7  -1    0.14    0.05
  -1   7   1    0.19    0.10
   0   7   1   65.33    3.77
  -1  -7  -1  519.10   31.90
   1   7   1  497.32   28.15
   1   7   1  468.84   31.69
  -2  -7  -1   95.54    6.24
  -2  -7  -1   99.29    6.25
   2   7   1   97.41    5.56
   2   7   1   96.39    6.28
  -3  -7  -1    0.73    0.17
  -3  -7  -1    0.58    0.16
   3   7   1    0.87    0.27
  -4  -7  -1   52.07    3.38
  -5  -7  -1    5.73    0.45
  -6  -7  -1    0.16    0.17
  -7  -7  -1   23.25    1.65
  -8  -7  -1   28.69    1.98
  -9  -7  -1    1.27    0.32
 -10  -7  -1   -0.12    0.33
 -11  -7  -1    2.10    0.52
   6  -8  -1   -0.24    0.38
   5  -8  -1    8.56    0.74
   4  -8  -1   42.17    2.82
   3  -8  -1   24.51    1.64
   2  -8  -1    0.05    0.05
   2  -8  -1    0.20    0.09
  -2   8   1    0.23    0.11
   1  -8  -1   38.33    2.49
   1  -8  -1   39.32    2.50
  -1   8   1   38.16    2.27
   0   8   1   16.10    0.99
   1   8   1   26.60    1.56
   1   8   1   25.77    1.77
  -2  -8  -1    0.34    0.06
  -2  -8  -1    0.27    0.06
   2   8   1    0.34    0.30
   2   8   1    0.24    0.22
  -3  -8  -1   17.01    1.14
  -3  -8  -1   18.25    1.15
   3   8   1   16.85    1.04
   3   8   1   17.03    1.21
  -4  -8  -1    0.10    0.21
  -4  -8  -1    0.15    0.20
  -5  -8  -1    0.84    0.27
  -6  -8  -1    7.42    0.59
  -7  -8  -1   23.47    1.81
   7   8   1   29.40    1.87
  -8  -8  -1   66.06    4.42
  -9  -8  -1   13.28    1.05
 -10  -8  -1    0.00    0.32
   5  -9  -1   40.67    2.73
   4  -9  -1    3.56    0.43
   3  -9  -1   24.02    1.64
   2  -9  -1  137.43    8.81
   2  -9  -1  136.55    8.80
  -1   9   1   14.69    0.95
   0   9   1    9.93    0.66
   0   9   1    9.40    0.72
   1   9   1    4.63    0.43
   1   9   1    5.56    0.44
  -2  -9  -1    0.33    0.07
   2   9   1    0.08    0.22
   2   9   1   -0.20    0.29
  -3  -9  -1   25.25    1.68
  -3  -9  -1   26.00    1.68
   3   9   1   25.41    1.74
   3   9   1   26.02    1.53
  -4  -9  -1    0.52    0.19
   4   9   1   -0.03    0.18
  -5  -9  -1    7.02    0.56
  -6  -9  -1   24.65    1.67
  -7  -9  -1    0.11    0.24
  -8  -9  -1    9.51    0.81
  -9  -9  -1    0.08    0.17
   3 -10  -1    9.42    0.70
   2 -10  -1  149.23    9.61
  -1  10   1   69.00    4.55
   0  10   1   -0.26    0.25
   0  10   1   -0.32    0.28
   1  10   1   51.94    3.45
   2  10   1   39.86    2.37
   2  10   1   40.30    2.67
  -3 -10  -1    3.50    0.28
  -3 -10  -1    3.62    0.25
   3  10   1    2.81    0.35
   3  10   1    2.25    0.34
  -4 -10  -1   54.09    3.51
   4  10   1   53.82    3.13
  -5 -10  -1  119.33    7.74
   5  10   1  120.21    6.86
  -6 -10  -1    3.78    0.40
  -7 -10  -1    0.01    0.25
  -8 -10  -1    0.49    0.30
  -1  11   1    0.59    0.31
   0  11   1   19.72    1.45
   1  11   1    3.04    0.45
   1  11   1    2.66    0.38
   2  11   1    0.17    0.13
   3  11   1    8.44    0.68
  -4 -11  -1   26.92    1.93
   4  11   1   32.23    2.01
  -5 -11  -1  129.04    8.35
  -6 -11  -1   15.40    1.11
  -7 -11  -1    1.04    0.35
   3  12   1   26.47    1.83
  -5 -11   2    1.54    0.37
   4  11  -2    0.04    0.16
  -4 -11   2    1.07    0.27
  -3 -11   2   25.36    1.65
   2  11  -2    3.11    0.32
   1  11  -2   11.04    0.81
   0  11  -2   13.32    0.86
   0  11  -2   12.37    0.93
  -7 -10   2   35.84    2.45
  -6 -10   2    4.23    0.48
  -5 -10   2    4.74    0.50
  -4 -10   2   25.71    1.74
  -3 -10   2    3.72    0.34
  -2 -10   2   31.64    2.04
  -2 -10   2   31.33    2.04
   0  10  -2   41.78    2.48
   0  10  -2   41.76    2.76
  -1  10  -2    1.24    0.40
  -2  10  -2    2.79    0.39
  -3  10  -2    1.72    0.26
   3 -10   2    2.09    0.23
  -8  -9   2    3.18    0.50
  -7  -9   2    0.03    0.32
  -6  -9   2   16.03    1.17
  -5  -9   2    6.81    0.60
  -4  -9   2    8.25    0.65
  -3  -9   2    2.80    0.32
  -2  -9   2    0.67    0.10
  -2  -9   2    0.41    0.09
   1   9  -2  130.49    8.77
  -1  -9   2  137.40    8.72
  -1  -9   2  139.41    8.73
   0   9  -2   51.87    3.40
  -1   9  -2    1.88    0.24
  -1   9  -2    2.07    0.26
  -2   9  -2   38.83    2.39
  -2   9  -2   39.55    2.60
   2  -9   2   40.03    2.58
  -3   9  -2   28.13    1.79
   3  -9   2   29.62    1.92
  -4   9  -2    0.75    0.35
   4  -9   2    1.30    0.28
  -9  -8   2    2.92    0.49
  -8  -8   2    2.55    0.44
  -7  -8   2    0.09    0.29
  -6  -8   2    8.86    0.75
  -5  -8   2    1.64    0.34
  -4  -8   2   32.44    2.18
  -3  -8   2    7.54    0.54
  -3  -8   2    6.47    0.55
  -2  -8   2   79.83    4.95
  -2  -8   2   73.32    4.95
   1   8  -2    1.65    0.21
  -1  -8   2    1.66    0.14
  -1  -8   2    1.28    0.15
   0   8  -2   17.69    1.25
   0  -8   2   18.20    1.20
   0  -8   2   19.20    1.20
  -1   8  -2   73.14    4.23
  -1   8  -2   71.60    4.73
   1  -8   2   74.32    4.70
  -2   8  -2    0.01    0.11
  -2   8  -2    0.37    0.12
   2  -8   2    0.27    0.07
   2  -8   2    0.42    0.09
  -3   8  -2    9.65    0.71
  -3   8  -2   10.67    0.73
   3  -8   2    9.94    0.72
  -4   8  -2   23.24    1.48
   4  -8   2   23.88    1.59
   5  -8   2    3.27    0.43
   6  -8   2   63.50    4.19
 -10  -7   2    6.90    0.90
  -9  -7   2    1.55    0.41
  -8  -7   2    0.00    0.29
  -7  -7   2    1.35    0.30
  -6  -7   2    0.09    0.24
  -5  -7   2   34.98    2.37
  -4  -7   2  222.03   14.71
  -4  -7   2  234.66   14.72
  -3  -7   2   93.47    5.95
  -3  -7   2   90.09    5.94
  -2  -7   2    1.01    0.24
  -2  -7   2    1.38    0.21
   1   7  -2    1.30    0.18
  -1  -7   2    1.36    0.13
  -1  -7   2    1.45    0.15
   0   7  -2    1.20    0.16
   0  -7   2    1.30    0.12
   0  -7   2    1.23    0.11
  -1   7  -2   27.55    1.86
   1  -7   2   28.75    1.83
   1  -7   2   28.34    1.83
  -2   7  -2   20.85    1.27
  -2   7  -2   20.31    1.40
   2  -7   2   20.69    1.37
   2  -7   2   21.91    1.38
  -3   7  -2   31.25    1.89
   3  -7   2   31.34    2.07
   3  -7   2   32.42    2.08
  -4   7  -2   41.82    2.51
   4  -7   2   42.30    2.75
  -5   7  -2   20.23    1.35
   5  -7   2   21.32    1.45
   6  -7   2    0.32    0.31
   7  -7   2   27.98    1.94
 -10  -6   2    0.19    0.50
  -9  -6   2    1.38    0.54
  -8  -6   2    8.71    0.77
  -7  -6   2    0.36    0.26
   6   6  -2    1.38    0.23
  -6  -6   2    1.61    0.29
   5   6  -2    0.12    0.13
  -5  -6   2    0.05    0.21
  -5  -6   2    0.13    0.16
   4   6  -2  106.14    6.39
  -4  -6   2   96.95    6.43
  -4  -6   2   93.38    6.42
  -3  -6   2   58.50    3.95
  -3  -6   2   62.77    3.96
  -2  -6   2    1.34    0.22
  -2  -6   2    1.28    0.23
   1   6  -2   24.64    1.66
  -1  -6   2   26.51    1.64
  -1  -6   2   24.18    1.64
   0   6  -2   79.34    5.31
   0  -6   2   87.92    5.31
   0  -6   2   79.69    5.29
  -1   6  -2    7.73    0.57
   1  -6   2    8.15    0.55
   1  -6   2    8.45    0.55
  -2   6  -2  110.05    7.16
  -2   6  -2  111.92    6.39
   2  -6   2  111.86    7.16
  -3   6  -2  310.56   18.14
   3  -6   2  321.85   20.43
   3  -6   2  322.19   20.43
  -4   6  -2   69.33    4.09
   4  -6   2   71.62    4.57
  -5   6  -2    2.82    0.38
   5  -6   2    2.48    0.36
   6  -6   2   27.64    1.89
   7  -6   2    2.89    0.45
   8  -6   2    7.59    0.72
 -11  -5   2    5.82    0.82
 -10  -5   2    3.36    0.65
  -9  -5   2    0.61    0.47
   8   5  -2    0.96    0.31
  -8  -5   2    0.60    0.36
   7   5  -2   24.61    1.79
  -7  -5   2   26.02    1.80
   6   5  -2    1.36    0.23
  -6  -5   2    1.67    0.27
   5   5  -2   24.09    1.73
  -5  -5   2   24.61    1.75
  -5  -5   2   26.37    1.76
   4   5  -2    4.27    0.33
  -4  -5   2    3.72    0.37
  -4  -5   2    3.83    0.35
   3   5  -2    9.51    0.63
  -3  -5   2    9.52    0.67
  -3  -5   2    8.58    0.68
  -2  -5   2  127.02    8.94
  -2  -5   2  150.45    8.94
  -1  -5   2    2.22    0.21
  -1  -5   2    2.30    0.20
   0   5  -2    7.04    0.51
   0  -5   2    7.25    0.50
   0  -5   2    7.60    0.50
  -1   5  -2   87.60    5.74
   1  -5   2   88.66    5.74
   1  -5   2   91.43    5.74
   2  -5   2    6.38    0.45
   2  -5   2    6.70    0.45
  -3   5  -2  178.86   10.43
   3  -5   2  184.31   11.74
   3  -5   2  184.36   11.73
  -4   5  -2   12.78    0.83
   4  -5   2   13.57    0.89
   4  -5   2   12.97    0.90
  -5   5  -2    0.39    0.13
   5  -5   2    0.16    0.11
   6  -5   2   56.76    3.72
   7  -5   2    9.92    0.81
   8  -5   2    0.09    0.37
   9  -5   2  101.28    6.66
 -11  -4   2    5.96    0.83
  10   4  -2   16.11    1.27
 -10  -4   2   13.01    1.30
   9   4  -2    1.02    0.47
  -9  -4   2    0.66    0.52
   8   4  -2   19.28    1.37
  -8  -4   2   16.68    1.38
   7   4  -2  108.52    6.68
  -7  -4   2   94.20    6.69
   6   4  -2   81.20    4.65
  -6  -4   2   59.64    4.64
   5   4  -2    1.80    0.25
  -5  -4   2    2.02    0.28
   4   4  -2    0.78    0.16
  -4  -4   2    0.62    0.17
  -4  -4   2    0.61    0.17
   3   4  -2    1.59    0.16
  -3  -4   2    0.89    0.16
  -3  -4   2    1.47    0.21
  -3  -4   2    1.38    0.20
   2   4  -2   17.64    1.22
  -2  -4   2   19.49    1.25
  -2  -4   2   17.16    1.25
  -2  -4   2   20.30    1.25
  -1  -4   2   49.44    3.23
  -1  -4   2   50.22    3.22
   0   4  -2  158.54   10.05
   0  -4   2  162.47   10.08
   0  -4   2  148.93   10.09
  -1   4  -2   49.75    3.27
   1  -4   2   52.49    3.28
   1  -4   2   49.94    3.27
   2  -4   2   77.26    4.81
   2  -4   2   72.00    4.81
  -3   4  -2    2.34    0.21
  -3   4  -2    2.32    0.19
   3  -4   2    2.12    0.19
  -4   4  -2   68.05    4.46
  -4   4  -2   68.66    3.98
   4  -4   2   69.28    4.47
   4  -4   2   70.06    4.47
  -5   4  -2  110.46    6.49
  -5   4  -2  111.86    7.29
   5  -4   2  114.03    7.30
   5  -4   2  115.65    7.30
  -6   4  -2    1.90    0.22
   6  -4   2    1.36    0.21
   7  -4   2    0.54    0.33
   8  -4   2   48.73    3.26
   9  -4   2    3.31    0.56
  11   3  -2   -0.19    0.71
 -11  -3   2    0.22    0.81
  10   3  -2    4.03    0.64
 -10  -3   2    3.79    0.67
   9   3  -2    1.40    0.48
  -9  -3   2    1.95    0.53
   8   3  -2    0.71    0.42
  -8  -3   2    1.05    0.46
   7   3  -2   35.62    2.38
  -7  -3   2   31.61    2.37
   6   3  -2   18.69    1.45
  -6  -3   2   20.35    1.45
   5   3  -2    2.87    0.35
  -5  -3   2    2.91    0.36
   4   3  -2    0.07    0.15
  -4  -3   2    0.05    0.16
  -4  -3   2    0.14    0.18
   3   3  -2    2.26    0.25
  -3  -3   2    2.52    0.26
  -3  -3   2    2.60    0.28
  -3  -3   2    2.51    0.28
   2   3  -2   20.92    1.27
  -2  -3   2   19.26    1.29
  -2  -3   2   17.24    1.30
   1   3  -2  195.36   13.52
  -1  -3   2  209.12   13.45
  -1  -3   2  219.22   13.51
  -1  -3   2  215.04   13.51
   0   3  -2  525.04   33.17
   0   3  -2  520.36   33.37
   0  -3   2  488.34   33.31
   0  -3   2  535.85   33.30
  -1   3  -2  183.93   11.86
  -1   3  -2  184.67   11.86
   1  -3   2  181.03   11.87
   1  -3   2  190.03   11.91
  -2   3  -2    7.29    0.50
   2  -3   2    7.17    0.50
   2  -3   2    7.72    0.50
  -3   3  -2   54.20    3.56
  -3   3  -2   55.21    3.17
   3  -3   2   55.52    3.56
   3  -3   2   55.13    3.56
  -4   3  -2    1.08    0.14
  -4   3  -2    1.41    0.15
   4  -3   2    1.09    0.14
   4  -3   2    1.12    0.15
  -5   3  -2   11.31    0.73
  -5   3  -2   11.90    0.81
   5  -3   2   11.53    0.80
   5  -3   2   11.89    0.82
  -6   3  -2  102.29    5.87
  -6   3  -2  103.12    6.61
   6  -3   2  100.87    6.61
  -7   3  -2   75.51    4.82
  -7   3  -2   70.68    4.27
   7  -3   2   75.18    4.82
   8  -3   2   23.65    1.70
   9  -3   2    3.20    0.52
  10  -3   2    0.03    0.42
  11   2  -2    5.22    0.64
  10   2  -2    3.69    0.49
 -10  -2   2    3.06    0.84
   9   2  -2    1.59    0.31
  -9  -2   2    1.86    0.53
  -8  -2   2    0.89    0.79
   7   2  -2    2.44    0.30
  -7  -2   2    2.44    0.42
   6   2  -2    0.43    0.29
  -6  -2   2    0.33    0.29
   5   2  -2   26.12    2.01
  -5  -2   2   29.59    2.00
   4   2  -2    6.83    0.59
  -4  -2   2    7.18    0.60
   3   2  -2    5.50    0.46
  -3  -2   2    4.83    0.48
  -3  -2   2    5.26    0.48
   2   2  -2   33.81    2.14
  -2  -2   2   32.87    2.15
  -2  -2   2   30.05    2.15
  -1  -2   2   90.46    6.17
  -1  -2   2  100.99    6.17
   0   2  -2  273.47   18.03
   0  -2   2  293.34   18.03
   0  -2   2  285.05   17.98
   0  -2   2  266.48   18.04
  -1   2  -2   16.77    1.12
  -1   2  -2   16.60    1.10
   1  -2   2   17.33    1.11
   1  -2   2   17.24    1.12
  -2   2  -2   20.65    1.34
   2  -2   2   21.16    1.34
   2  -2   2   19.77    1.34
  -3   2  -2   26.94    1.79
  -3   2  -2   27.39    1.60
   3  -2   2   27.21    1.80
   3  -2   2   28.62    1.80
  -4   2  -2   37.30    2.14
  -4   2  -2   36.69    2.40
   4  -2   2   36.55    2.41
   4  -2   2   37.08    2.41
  -5   2  -2    1.11    0.14
  -5   2  -2    1.28    0.16
   5  -2   2    1.04    0.15
   5  -2   2    1.27    0.16
  -6   2  -2  241.73   15.42
  -6   2  -2  239.99   13.67
   6  -2   2  237.35   15.43
  -7   2  -2  315.05   18.35
  -7   2  -2  328.26   20.70
   7  -2   2  322.48   20.71
  -8   2  -2   26.91    1.88
  -8   2  -2   28.06    1.67
   8  -2   2   28.44    1.89
   9  -2   2   21.50    1.56
  10  -2   2   43.83    2.99
  11   1  -2    5.25    0.84
 -11  -1   2    4.26    0.86
  10   1  -2    9.87    0.88
   9   1  -2    5.63    0.57
  -9  -1   2    4.94    0.56
   8   1  -2    2.80    0.37
  -8  -1   2    2.57    0.36
   7   1  -2   23.52    1.63
  -7  -1   2   23.52    1.62
   6   1  -2    9.91    0.75
  -6  -1   2   10.21    0.75
   5   1  -2    0.63    0.15
  -5  -1   2    0.49    0.14
   4   1  -2   18.86    1.39
  -4  -1   2   19.87    1.37
   3   1  -2  123.49    9.06
  -3  -1   2  156.57    9.06
   2   1  -2   19.16    1.46
  -2  -1   2   23.86    1.49
   1   1  -2    4.93    0.34
   1   1  -2    4.48    0.36
  -1  -1   2    4.27    0.35
  -1  -1   2    4.50    0.35
   0   1  -2    2.91    0.27
   0  -1   2    3.15    0.27
   0  -1   2    4.14    0.27
  -1   1  -2   58.27    3.93
   1  -1   2   61.15    3.93
   1  -1   2   62.95    3.93
  -2   1  -2  346.26   22.41
   2  -1   2  335.05   22.37
   2  -1   2  362.29   22.36
  -3   1  -2    6.63    0.42
  -3   1  -2    6.76    0.47
   3  -1   2    6.80    0.47
   3  -1   2    6.60    0.47
  -4   1  -2    0.02    0.06
  -4   1  -2    0.02    0.07
   4  -1   2    0.12    0.07
   4  -1   2   -0.02    0.07
  -5   1  -2  181.76   11.63
  -5   1  -2  183.61   10.31
   5  -1   2  176.74   11.64
  -6   1  -2    3.10    0.26
  -6   1  -2    3.16    0.30
   6  -1   2    3.45    0.30
  -7   1  -2   46.81    3.01
  -7   1  -2   45.10    2.66
   7  -1   2   45.09    3.01
  -8   1  -2    7.55    0.53
  -8   1  -2    8.01    0.61
   8  -1   2    7.52    0.62
  -9   1  -2    0.00    0.39
   9  -1   2    0.20    0.17
  10  -1   2   30.92    2.21
  11  -1   2    0.89    0.50
  11   0  -2    9.77    1.01
  10   0  -2    5.37    0.80
 -10   0   2    5.08    0.82
   9   0  -2    0.46    0.23
  -9   0   2    1.36    0.29
   8   0  -2    1.36    0.26
  -8   0   2    1.41    0.27
   7   0  -2   12.65    0.90
  -7   0   2   11.24    0.89
   6   0  -2   10.12    0.76
  -6   0   2    9.95    0.99
   5   0  -2    0.20    0.12
  -5   0   2    0.42    0.14
   4   0  -2   55.33    3.60
  -4   0   2   54.92    3.67
   3   0  -2  243.58   15.54
  -3   0   2  239.52   15.54
   2   0  -2  207.91   14.12
   2   0  -2  219.21   14.13
  -2   0   2  230.74   14.13
   1   0  -2    6.19    0.44
   1   0  -2    6.03    0.44
  -1   0   2    4.96    0.44
  -1   0   2    5.43    0.44
   0   0  -2    0.30    0.06
   0   0  -2    0.19    0.07
   0   0   2    0.36    0.07
   0   0   2    0.22    0.07
  -1   0  -2    1.31    0.15
  -1   0  -2    1.55    0.16
   1   0   2    1.56    0.15
   1   0   2    1.83    0.15
  -2   0  -2    2.69    0.20
  -2   0  -2    2.71    0.24
   2   0   2    2.84    0.24
   2   0   2    2.64    0.24
  -3   0  -2  265.58   14.88
  -3   0  -2  251.00   16.82
   3   0   2  261.25   16.81
   3   0   2  267.65   16.80
  -4   0  -2  248.85   14.11
  -4   0  -2  246.79   15.83
  -4   0  -2  248.41   15.89
   4   0   2  245.38   15.93
  -5   0  -2   34.38    1.97
  -5   0  -2   34.22    2.21
  -5   0  -2   33.88    2.24
   5   0   2   33.80    2.24
  -6   0  -2   16.06    1.11
  -6   0  -2   16.48    0.98
  -6   0  -2   16.37    1.09
   6   0   2   16.13    1.11
  -7   0  -2    7.29    0.53
  -7   0  -2    7.08    0.55
  -7   0  -2    7.20    0.47
   7   0   2    7.02    0.55
  -8   0  -2   54.01    3.70
   8   0   2   58.89    3.72
  -9   0  -2   43.91    2.93
   9   0   2   43.89    2.93
 -10   0  -2    9.21    0.85
  10   0   2    8.89    0.84
  11   0   2   11.83    1.05
  10  -1  -2    1.82    0.61
   9  -1  -2    0.79    0.26
  -9   1   2    1.83    0.55
   8  -1  -2    2.57    0.34
  -8   1   2    2.06    0.33
   7  -1  -2    0.48    0.17
  -7   1   2    0.42    0.18
   6  -1  -2    0.16    0.13
  -6   1   2    0.24    0.14
   5  -1  -2    8.77    0.65
  -5   1   2    8.35    0.65
   4  -1  -2    3.44    0.24
   4  -1  -2    2.96    0.29
  -4   1   2    2.58    0.30
   3  -1  -2   80.09    5.24
   3  -1  -2   82.14    5.23
  -3   1   2   80.11    5.23
   2  -1  -2   17.27    1.16
   2  -1  -2   19.63    1.19
  -2   1   2   14.96    1.17
   1  -1  -2   57.13    3.75
   1  -1  -2   54.78    3.75
  -1   1   2   59.02    3.75
  -1   1   2   60.37    3.75
   0  -1  -2    2.25    0.17
   0  -1  -2    1.81    0.16
   0   1   2    1.55    0.16
   0   1   2    1.85    0.17
  -1  -1  -2    0.92    0.11
  -1  -1  -2    0.69    0.10
   1   1   2    0.88    0.11
   1   1   2    0.94    0.11
  -2  -1  -2    3.77    0.30
  -2  -1  -2    4.26    0.30
   2   1   2    2.76    0.30
   2   1   2    3.32    0.30
   2   1   2    3.24    0.28
  -3  -1  -2  363.95   23.46
  -3  -1  -2  331.55   20.88
  -3  -1  -2  400.41   23.52
  -4  -1  -2  536.67   34.53
  -5  -1  -2   82.97    5.30
   5   1   2   80.84    5.30
  -6  -1  -2   29.35    1.99
  -6  -1  -2   30.77    1.97
   6   1   2   30.15    2.00
  -7  -1  -2  107.79    6.94
  -7  -1  -2  107.58    6.90
   7   1   2  105.77    6.94
  -8  -1  -2    2.45    0.28
   8   1   2    2.30    0.29
  -9  -1  -2    0.66    0.18
   9   1   2    0.65    0.19
 -10  -1  -2  140.82    9.06
  10   1   2  137.79    9.06
 -11  -1  -2   54.49    3.73
  11   1   2   57.18    3.77
  10  -2  -2   35.70    2.55
   9  -2  -2   41.17    2.85
   8  -2  -2   -0.02    0.18
  -8   2   2    0.12    0.46
   7  -2  -2    7.74    0.65
  -7   2   2    7.81    0.64
   6  -2  -2    7.77    0.64
  -6   2   2    8.21    0.63
   5  -2  -2    0.15    0.12
  -5   2   2    0.12    0.11
   4  -2  -2    3.04    0.30
   4  -2  -2    3.09    0.24
   3  -2  -2    0.21    0.09
   3  -2  -2    0.10    0.10
  -3   2   2    0.13    0.09
   2  -2  -2    0.58    0.11
  -2   2   2    0.70    0.27
   1  -2  -2  103.47    6.16
   1  -2  -2   88.49    6.10
   1  -2  -2   99.34    5.41
  -1   2   2   88.15    6.15
   0  -2  -2    0.41    0.11
   0  -2  -2    0.21    0.11
   0   2   2    0.33    0.10
  -1  -2  -2   16.22    1.06
  -1  -2  -2   15.10    1.07
   1   2   2   16.62    1.06
  -2  -2  -2   64.12    4.07
  -2  -2  -2   60.47    4.06
   2   2   2   63.21    4.07
  -3  -2  -2   23.06    1.66
  -3  -2  -2   27.49    1.66
  -3  -2  -2   25.45    1.66
  -4  -2  -2   75.60    4.79
  -4  -2  -2   72.83    4.82
  -5  -2  -2   14.49    0.99
  -5  -2  -2   14.85    1.01
   5   2   2   14.34    0.86
   5   2   2   15.30    1.01
  -6  -2  -2   28.81    1.88
   6   2   2   28.15    1.87
   6   2   2   27.73    1.63
  -7  -2  -2   27.42    1.88
   7   2   2   28.45    1.64
   7   2   2   28.22    1.88
  -8  -2  -2    4.81    0.56
   8   2   2    4.65    0.55
   8   2   2    4.96    0.39
  -9  -2  -2    6.38    0.57
   9   2   2    7.24    0.63
 -10  -2  -2  165.20   10.80
  10   2   2  167.92   10.81
 -11  -2  -2  139.22    9.36
  11   2   2  146.31    9.36
  12   2   2   10.20    1.04
  10  -3  -2    8.44    0.92
   9  -3  -2   35.01    2.47
   8  -3  -2    1.72    0.51
   7  -3  -2    9.70    0.78
  -7   3   2   10.00    0.76
   5  -3  -2   20.51    1.43
  -5   3   2   21.37    1.42
   4  -3  -2    0.12    0.10
   4  -3  -2    0.51    0.12
  -4   3   2    0.39    0.12
   3  -3  -2   23.19    1.54
   3  -3  -2   24.53    1.54
   3  -3  -2   24.31    1.36
  -3   3   2   20.08    1.57
   2  -3  -2   11.49    0.72
   2  -3  -2   12.21    0.82
   2  -3  -2   11.78    0.82
  -2   3   2   12.71    0.83
  -2   3   2   11.52    0.72
   1  -3  -2    1.79    0.19
   1  -3  -2    1.76    0.23
  -1   3   2    1.88    0.19
  -1   3   2    1.87    0.17
   0  -3  -2  147.51    8.23
   0  -3  -2  150.14    9.34
   0  -3  -2  136.10    9.32
   0   3   2  143.01    8.23
   0   3   2  146.09    9.34
  -1  -3  -2  322.01   19.65
  -1  -3  -2  282.33   19.68
  -1  -3  -2  304.28   17.42
   1   3   2  312.26   19.66
  -2  -3  -2    5.52    0.41
  -2  -3  -2    4.90    0.40
  -3  -3  -2   16.02    1.15
  -3  -3  -2   18.14    1.16
   3   3   2   16.82    1.16
   3   3   2   16.98    1.15
  -4  -3  -2    9.75    0.67
  -4  -3  -2    8.89    0.67
  -4  -3  -2    9.13    0.67
   4   3   2    9.75    0.55
  -5  -3  -2   39.07    2.59
  -5  -3  -2   40.76    2.58
   5   3   2   39.21    2.59
   5   3   2   38.72    2.26
  -6  -3  -2   74.93    4.78
  -6  -3  -2   74.81    4.79
   6   3   2   72.46    4.21
   6   3   2   72.63    4.79
  -7  -3  -2   12.31    0.90
   7   3   2   12.39    0.90
   7   3   2   12.62    0.75
  -8  -3  -2   16.45    1.14
   8   3   2   15.35    1.13
   8   3   2   14.84    0.93
  -9  -3  -2   78.28    5.11
   9   3   2   77.49    5.11
 -10  -3  -2    1.17    0.46
  10   3   2    0.76    0.42
 -11  -3  -2    4.72    0.54
  11   3   2    5.42    0.57
 -12  -3  -2   31.15    2.20
  12   3   2   31.40    2.20
   9  -4  -2    0.91    0.55
   8  -4  -2    0.29    0.53
   7  -4  -2    4.44    0.58
   6  -4  -2   16.88    1.23
  -6   4   2   17.75    1.22
   5  -4  -2   11.55    0.85
   5  -4  -2   10.59    0.83
  -5   4   2   12.71    0.83
   4  -4  -2   10.38    0.75
   4  -4  -2    9.76    0.73
  -4   4   2   10.17    0.72
  -4   4   2   10.76    0.66
   3  -4  -2   15.78    1.13
   3  -4  -2   16.02    1.12
  -3   4   2   17.28    1.11
  -3   4   2   16.96    1.00
   2  -4  -2   15.76    1.08
   2  -4  -2   15.64    0.96
   2  -4  -2   17.03    1.09
  -2   4   2   15.72    1.05
  -2   4   2   16.15    0.96
   1  -4  -2    0.56    0.10
   1  -4  -2    0.72    0.17
   1  -4  -2    0.69    0.09
  -1   4   2    0.66    0.11
  -1   4   2    0.65    0.09
   0  -4  -2   81.05    5.27
   0  -4  -2   77.53    5.25
   0   4   2   86.19    5.19
   0   4   2   78.58    4.62
  -1  -4  -2  252.85   16.02
  -1  -4  -2  248.07   15.99
   1   4   2  243.92   14.13
  -2  -4  -2   65.27    4.04
  -2  -4  -2   59.89    4.04
   2   4   2   61.83    3.57
  -3  -4  -2    5.41    0.39
  -3  -4  -2    4.89    0.39
   3   4   2    5.20    0.38
   3   4   2    4.55    0.41
  -4  -4  -2   44.16    2.73
  -4  -4  -2   39.48    2.72
   4   4   2   41.57    2.72
   4   4   2   39.60    2.73
  -5  -4  -2    1.48    0.19
  -5  -4  -2    0.93    0.18
   5   4   2    0.96    0.17
  -6  -4  -2    4.93    0.43
   6   4   2    5.12    0.43
   6   4   2    5.52    0.33
  -7  -4  -2  212.83   13.99
   7   4   2  216.64   13.99
   7   4   2  221.22   12.35
  -8  -4  -2  196.62   12.77
   8   4   2  202.06   11.27
   8   4   2  194.12   12.77
  -9  -4  -2    2.73    0.42
   9   4   2    2.12    0.36
 -10  -4  -2    2.93    0.55
  10   4   2    3.13    0.53
 -11  -4  -2    3.23    0.64
  11   4   2    3.66    0.59
 -12  -4  -2   29.05    2.05
  12   4   2   28.89    2.06
   9  -5  -2    5.73    0.93
   8  -5  -2    0.81    0.51
   7  -5  -2    0.15    0.51
   6  -5  -2    5.02    0.49
   5  -5  -2    8.67    0.68
   3  -5  -2    0.35    0.12
   3  -5  -2    0.32    0.10
  -3   5   2    0.25    0.06
  -3   5   2    0.20    0.10
   2  -5  -2    1.54    0.18
   2  -5  -2    1.57    0.19
  -2   5   2    1.56    0.17
   1  -5  -2   11.84    1.16
  -1   5   2   16.47    0.90
   0  -5  -2    2.43    0.17
   0  -5  -2    1.38    0.26
  -1  -5  -2   51.72    3.27
  -1  -5  -2   49.96    3.27
   1   5   2   49.07    2.89
  -2  -5  -2    0.66    0.18
  -2  -5  -2    0.64    0.18
   2   5   2    0.76    0.16
  -3  -5  -2   28.68    1.91
  -3  -5  -2   28.04    1.91
   3   5   2   32.42    1.93
   3   5   2   27.88    1.68
   3   5   2   28.58    1.90
  -4  -5  -2    0.65    0.15
  -4  -5  -2    0.88    0.15
   4   5   2    0.88    0.18
   4   5   2    0.75    0.13
  -5  -5  -2    8.67    0.64
  -5  -5  -2    8.15    0.64
   5   5   2    8.38    0.63
   5   5   2    8.44    0.66
  -6  -5  -2    6.71    0.55
   6   5   2    6.65    0.56
   6   5   2    7.34    0.54
  -7  -5  -2  155.19    9.81
   7   5   2  147.54    9.81
  -8  -5  -2  171.24   11.28
   8   5   2  175.62   11.27
   8   5   2  175.62    9.93
  -9  -5  -2    6.02    0.59
   9   5   2    5.80    0.56
 -10  -5  -2   21.68    1.61
  10   5   2   23.03    1.61
 -11  -5  -2   36.92    2.57
   8  -6  -2    1.41    0.61
   7  -6  -2    4.47    0.61
   6  -6  -2   62.37    4.13
   5  -6  -2   40.20    2.70
   4  -6  -2    0.04    0.14
  -4   6   2   -0.07    0.10
   3  -6  -2   12.74    0.92
   3  -6  -2   11.79    0.90
  -3   6   2   15.15    0.84
   2  -6  -2   22.93    1.62
   2  -6  -2   24.27    1.62
  -2   6   2   26.43    1.46
   1  -6  -2    0.63    0.10
   1  -6  -2    0.69    0.12
  -1   6   2    0.60    0.11
   0  -6  -2    6.54    0.42
   0  -6  -2    6.03    0.42
   0   6   2    5.65    0.40
  -1  -6  -2    1.23    0.24
  -2  -6  -2    3.55    0.32
  -2  -6  -2    3.32    0.32
   2   6   2    3.18    0.31
  -3  -6  -2   30.98    1.85
  -3  -6  -2   28.13    1.85
   3   6   2   24.92    1.90
   3   6   2   26.64    1.63
  -4  -6  -2    2.33    0.25
  -4  -6  -2    2.43    0.25
   4   6   2    2.65    0.24
   4   6   2    2.12    0.30
  -5  -6  -2    1.63    0.24
  -5  -6  -2    1.63    0.23
   5   6   2    1.62    0.22
  -6  -6  -2   38.50    2.76
  -6  -6  -2   42.96    2.77
   6   6   2   42.25    2.76
   6   6   2   41.07    2.79
  -7  -6  -2    0.43    0.20
   7   6   2    0.51    0.21
   7   6   2    0.36    0.18
  -8  -6  -2    7.48    0.60
   8   6   2    6.52    0.59
  -9  -6  -2   33.94    2.31
 -10  -6  -2   13.81    1.07
 -11  -6  -2    6.35    0.71
   7  -7  -2    1.10    0.55
   6  -7  -2   10.51    0.88
   5  -7  -2   18.68    1.35
   4  -7  -2   -0.04    0.13
   3  -7  -2   12.43    0.89
   3  -7  -2   11.57    0.86
  -3   7   2   13.84    0.81
   2  -7  -2   19.27    1.46
  -2   7   2   25.87    1.35
   1  -7  -2    6.28    0.44
   1  -7  -2    5.77    0.43
  -1   7   2    6.08    0.42
   0  -7  -2    2.89    0.20
   0  -7  -2    2.84    0.26
   0   7   2    2.14    0.23
  -1  -7  -2   10.40    0.69
  -1  -7  -2   10.63    0.69
  -2  -7  -2    2.93    0.30
  -2  -7  -2    2.84    0.31
   2   7   2    2.87    0.32
  -3  -7  -2    0.62    0.20
  -3  -7  -2    0.48    0.21
   3   7   2    0.44    0.18
   3   7   2    0.82    0.31
  -4  -7  -2  109.65    6.78
  -4  -7  -2  107.16    6.79
   4   7   2   98.82    6.82
   4   7   2  102.55    6.00
  -5  -7  -2  154.94   10.35
  -5  -7  -2  170.52   10.35
   5   7   2  155.76   10.35
  -6  -7  -2    1.51    0.23
  -7  -7  -2    0.47    0.17
   7   7   2    0.59    0.21
  -8  -7  -2    6.05    0.54
  -9  -7  -2   17.90    1.31
 -10  -7  -2    0.86    0.36
 -11  -7  -2   24.78    1.78
   6  -8  -2   -0.08    0.37
   5  -8  -2   -0.13    0.35
   4  -8  -2    1.09    0.42
   3  -8  -2    2.01    0.24
   2  -8  -2    7.63    0.59
   2  -8  -2    8.07    0.58
  -2   8   2    9.31    0.58
   1  -8  -2    6.74    0.45
   1  -8  -2    6.21    0.46
  -1   8   2    6.29    0.46
   0   8   2    4.04    0.32
  -1  -8  -2    5.22    0.35
  -1  -8  -2    5.32    0.36
   1   8   2    4.99    0.37
  -2  -8  -2   14.86    0.96
  -2  -8  -2   14.99    0.97
   2   8   2   13.67    0.90
   2   8   2   14.97    1.06
  -3  -8  -2   11.24    0.75
  -3  -8  -2   10.23    0.76
   3   8   2   10.51    0.85
   3   8   2   11.48    0.69
  -4  -8  -2   75.15    4.80
  -4  -8  -2   76.56    4.80
   4   8   2   68.28    4.24
   4   8   2   74.18    4.86
  -5  -8  -2   99.48    6.62
   5   8   2  104.33    5.84
  -6  -8  -2    2.67    0.32
  -7  -8  -2    0.94    0.26
   7   8   2    1.35    0.30
  -8  -8  -2    9.86    0.83
  -9  -8  -2    0.21    0.24
 -10  -8  -2   10.49    0.90
   5  -9  -2    4.77    0.71
   4  -9  -2    2.13    0.37
   3  -9  -2    2.85    0.37
   2  -9  -2   10.19    0.71
   1  -9  -2    0.92    0.11
   1  -9  -2    0.87    0.10
   1   9   2    0.11    0.10
   1   9   2   -0.09    0.12
  -2  -9  -2    0.11    0.05
  -2  -9  -2    0.32    0.06
   2   9   2    0.19    0.24
   2   9   2    0.10    0.35
  -3  -9  -2    2.82    0.45
   3   9   2    3.11    0.47
  -4  -9  -2    0.27    0.09
   4   9   2    0.16    0.31
   4   9   2    0.37    0.18
  -5  -9  -2    3.46    0.35
   5   9   2    3.44    0.28
  -6  -9  -2    7.54    0.66
  -7  -9  -2   15.52    1.12
  -8  -9  -2    0.43    0.25
   8   9   2    0.51    0.25
  -9  -9  -2   11.41    0.96
 -10  -9  -2    6.92    0.67
   3 -10  -2    4.56    0.42
   2 -10  -2   39.34    2.56
   1  10   2   14.19    1.03
   2  10   2   26.45    1.80
  -3 -10  -2    2.23    0.18
  -3 -10  -2    2.27    0.19
   3  10   2    2.35    0.28
   3  10   2    1.38    0.26
  -4 -10  -2    4.12    0.35
   4  10   2    4.74    0.52
   4  10   2    4.44    0.36
  -5 -10  -2    1.56    0.37
  -6 -10  -2    2.44    0.38
  -7 -10  -2    0.06    0.25
  -8 -10  -2   11.89    0.93
  -9 -10  -2    1.13    0.34
  -1  11   2    5.94    0.60
   0  11   2    0.71    0.36
   1  11   2   11.24    0.98
   2  11   2   25.49    1.76
  -3 -11  -2    0.43    0.09
   3  11   2    0.57    0.19
  -4 -11  -2    2.07    0.22
   4  11   2    2.56    0.33
  -5 -11  -2    2.13    0.45
  -6 -11  -2    1.47    0.34
  -7 -11  -2    1.94    0.46
   2  12   2    1.88    0.29
   2  12   2    2.46    0.26
   3  12   2    1.08    0.23
  -4 -12  -2    2.71    0.29
   4  12   2    4.10    0.41
   2  11  -3    4.83    0.45
  -6 -10   3   17.04    1.25
  -5 -10   3    3.76    0.48
  -4 -10   3   35.91    2.39
  -3 -10   3    4.84    0.42
   2  10  -3   13.45    0.96
  -2 -10   3   13.09    0.89
   1  10  -3  117.95    7.68
  -1 -10   3  119.18    7.62
   0  10  -3   28.39    1.91
  -1  10  -3    5.46    0.62
  -2  10  -3    0.29    0.34
   2 -10   3    0.22    0.19
  -8  -9   3    3.80    0.52
  -7  -9   3   13.85    1.10
  -6  -9   3   19.19    1.40
  -5  -9   3   10.91    0.85
  -4  -9   3   30.73    2.08
  -3  -9   3    1.87    0.28
   2   9  -3    1.89    0.24
  -2  -9   3    1.02    0.23
   1   9  -3  123.44    7.70
  -1  -9   3  125.18    7.65
  -1  -9   3  108.53    7.67
   0   9  -3   74.44    5.06
   0  -9   3   80.05    5.02
   0  -9   3   79.33    5.03
  -1   9  -3    5.46    0.45
  -1   9  -3    5.61    0.45
  -2   9  -3   12.63    1.01
  -2   9  -3   14.40    0.97
  -3   9  -3    3.28    0.56
   3  -9   3    3.23    0.42
  -4   9  -3   -0.72    0.33
   4  -9   3    0.45    0.26
  -9  -8   3    2.72    0.48
  -8  -8   3    4.18    0.54
  -7  -8   3    0.50    0.31
  -6  -8   3   33.84    2.34
  -5  -8   3   22.38    1.56
  -4  -8   3   24.65    1.70
  -3  -8   3    3.14    0.39
   2   8  -3   94.97    5.74
  -2  -8   3   88.00    5.72
  -2  -8   3   82.13    5.75
  -1  -8   3    1.00    0.14
  -1  -8   3    1.01    0.12
   0   8  -3    2.28    0.25
   0  -8   3    2.05    0.19
   0  -8   3    2.20    0.19
  -1   8  -3   21.57    1.46
   1  -8   3   21.03    1.42
   1  -8   3   22.62    1.43
  -2   8  -3    0.37    0.15
  -2   8  -3    0.39    0.12
  -3   8  -3    4.14    0.33
  -3   8  -3    2.69    0.57
  -4   8  -3    0.29    0.31
   4  -8   3    0.18    0.27
  -5   8  -3    3.24    0.54
   5  -8   3    4.38    0.50
  -9  -7   3   10.16    0.95
  -8  -7   3    0.74    0.35
  -7  -7   3   43.85    3.05
  -6  -7   3   29.70    2.10
  -5  -7   3   25.89    1.81
  -4  -7   3  287.81   18.55
  -3  -7   3  127.39    8.97
  -3  -7   3  150.60    8.99
   2   7  -3   11.15    0.77
  -2  -7   3   10.03    0.82
  -2  -7   3   10.99    0.79
  -1  -7   3    6.47    0.44
  -1  -7   3    5.92    0.45
   0   7  -3    2.31    0.25
   0  -7   3    2.64    0.21
   0  -7   3    2.24    0.19
  -1   7  -3   57.54    3.76
   1  -7   3   55.76    3.74
   1  -7   3   60.60    3.75
  -2   7  -3    1.38    0.18
   2  -7   3    1.62    0.17
   2  -7   3    1.50    0.16
  -3   7  -3   45.11    2.69
  -3   7  -3   44.48    2.97
   3  -7   3   47.50    2.98
  -4   7  -3    4.62    0.37
  -4   7  -3    5.98    0.65
  -5   7  -3    8.44    0.83
   5  -7   3   11.67    0.85
  -6   7  -3    0.00    0.34
   6  -7   3    0.04    0.33
   7  -7   3    2.69    0.44
 -10  -6   3    6.01    0.81
  -9  -6   3   20.10    1.53
  -8  -6   3   43.62    2.98
  -7  -6   3   23.82    1.75
  -6  -6   3    1.28    0.29
  -5  -6   3    5.56    0.51
   4   6  -3  177.58   11.25
  -4  -6   3  166.10   11.31
  -4  -6   3  179.97   11.31
  -3  -6   3  190.87   13.09
  -3  -6   3  215.26   13.11
  -2  -6   3   13.18    0.92
  -2  -6   3   13.50    0.93
  -1  -6   3   47.45    2.99
  -1  -6   3   43.91    2.98
   0  -6   3   68.15    4.28
   0  -6   3   64.64    4.30
  -1   6  -3    0.88    0.13
   1  -6   3    0.90    0.19
   1  -6   3    1.14    0.12
  -2   6  -3   84.37    5.55
   2  -6   3   86.86    5.55
   2  -6   3   87.15    5.55
  -3   6  -3  293.27   16.47
  -3   6  -3  284.93   18.49
   3  -6   3  288.17   18.54
  -4   6  -3   44.72    2.64
  -4   6  -3   44.39    2.91
   4  -6   3   45.62    2.94
  -5   6  -3   -0.06    0.31
   5  -6   3   -0.01    0.11
  -6   6  -3    0.48    0.36
   6  -6   3    0.54    0.36
   7  -6   3    3.77    0.53
   8  -6   3    6.03    0.75
 -10  -5   3    4.82    0.72
  -9  -5   3    5.03    0.70
  -8  -5   3   16.96    1.31
   7   5  -3   28.93    2.06
  -7  -5   3   30.84    2.08
   6   5  -3    1.66    0.27
  -6  -5   3    1.93    0.33
   5   5  -3  117.79    9.00
  -5  -5   3  161.81    9.05
  -5  -5   3  137.01    9.06
   4   5  -3    6.78    0.57
  -4  -5   3    8.70    0.62
   3   5  -3    4.01    0.31
  -3  -5   3    4.56    0.39
  -3  -5   3    3.52    0.37
  -2  -5   3  143.34    8.40
  -2  -5   3  118.99    8.39
  -2  -5   3  127.45    8.40
  -1  -5   3   27.71    1.82
  -1  -5   3   27.57    1.82
   0   5  -3   26.11    1.66
   0  -5   3   23.50    1.66
   0  -5   3   26.15    1.66
  -1   5  -3   18.96    1.24
   1  -5   3   19.56    1.23
   1  -5   3   17.70    1.26
  -2   5  -3    2.71    0.22
   2  -5   3    2.90    0.22
   2  -5   3    2.45    0.31
  -3   5  -3  172.17   11.35
   3  -5   3  182.70   11.39
   3  -5   3  176.66   11.39
  -4   5  -3   42.48    2.50
   4  -5   3   42.68    2.78
   4  -5   3   42.65    2.79
  -5   5  -3    1.12    0.19
   5  -5   3    1.67    0.21
  -6   5  -3   17.29    1.23
   7  -5   3    1.43    0.44
   8  -5   3    0.07    0.36
 -11  -4   3    1.01    0.35
 -10  -4   3   22.13    1.79
   9   4  -3   38.05    2.44
  -9  -4   3   31.63    2.47
   8   4  -3   26.16    1.80
  -8  -4   3   24.26    1.84
   7   4  -3  310.95   17.78
  -7  -4   3  239.15   17.78
   6   4  -3  211.24   13.84
  -6  -4   3  216.63   13.84
   5   4  -3    3.62    0.36
  -5  -4   3    3.13    0.40
   4   4  -3    5.70    0.54
  -4  -4   3    8.46    0.60
  -4  -4   3    6.54    0.58
   3   4  -3   37.27    2.85
  -3  -4   3   47.01    2.89
  -3  -4   3   47.53    2.90
   2   4  -3   48.36    3.00
  -2  -4   3   52.64    3.04
  -2  -4   3   38.71    3.03
  -2  -4   3   43.94    3.04
   1   4  -3    4.43    0.32
  -1  -4   3    4.68    0.36
  -1  -4   3    4.69    0.34
  -1  -4   3    4.49    0.36
   0   4  -3  133.90    8.23
   0  -4   3  117.26    8.26
   0  -4   3  133.54    8.26
  -1   4  -3   19.12    1.23
   1  -4   3   19.71    1.23
   1  -4   3   17.03    1.29
  -2   4  -3  105.08    6.64
  -2   4  -3  103.47    6.63
   2  -4   3  105.47    6.66
   2  -4   3   99.45    6.66
  -3   4  -3    0.45    0.08
   3  -4   3    0.37    0.08
   3  -4   3    0.35    0.09
  -4   4  -3   16.53    1.11
  -4   4  -3   16.56    1.02
   4  -4   3   16.86    1.12
  -5   4  -3   53.42    3.14
  -5   4  -3   53.87    3.50
   5  -4   3   54.32    3.52
   5  -4   3   53.96    3.52
  -6   4  -3    2.87    0.28
   6  -4   3    2.59    0.29
   7  -4   3    1.89    0.40
   8  -4   3   10.44    0.88
   9  -4   3    3.01    0.62
  11   3  -3   44.72    3.03
 -11  -3   3   43.88    3.05
  10   3  -3    3.77    0.47
 -10  -3   3    3.16    0.69
   9   3  -3    0.45    0.41
  -9  -3   3    0.52    0.50
   8   3  -3   18.00    1.24
  -8  -3   3   14.89    1.26
   7   3  -3   75.21    5.10
  -7  -3   3   78.33    5.12
   6   3  -3  168.40   11.51
  -6  -3   3  186.51   11.51
   5   3  -3    3.11    0.33
  -5  -3   3    2.86    0.37
   4   3  -3   22.52    1.52
  -4  -3   3   21.73    1.55
   3   3  -3  136.81    9.21
  -3  -3   3  158.10    9.16
  -3  -3   3  135.65    9.15
  -3  -3   3  131.98    9.12
   2   3  -3    6.86    0.53
  -2  -3   3    7.90    0.56
  -2  -3   3    8.03    0.55
  -2  -3   3    6.09    0.55
   1   3  -3  145.04    9.43
  -1  -3   3  154.53    9.42
  -1  -3   3  138.15    9.43
   0   3  -3  899.94   57.24
   0  -3   3  860.68   57.25
   0  -3   3  824.20   57.28
   0  -3   3  972.98   57.09
  -1   3  -3  337.69   22.48
  -1   3  -3  338.02   22.57
   1  -3   3  365.43   22.61
   1  -3   3  363.24   22.58
  -2   3  -3    0.65    0.07
  -2   3  -3    0.57    0.08
   2  -3   3    0.73    0.09
   2  -3   3    0.46    0.17
  -3   3  -3   48.79    3.16
   3  -3   3   50.58    3.17
   3  -3   3   47.14    3.17
  -4   3  -3   10.26    0.66
  -4   3  -3   10.94    0.72
   4  -3   3   10.71    0.72
   4  -3   3    9.98    0.73
  -5   3  -3   24.03    1.44
  -5   3  -3   23.75    1.60
   5  -3   3   24.82    1.61
   5  -3   3   24.06    1.61
  -6   3  -3   30.11    1.78
  -6   3  -3   29.69    1.99
   6  -3   3   30.40    2.01
  -7   3  -3   43.02    2.48
   7  -3   3   41.31    2.79
   8  -3   3    8.67    0.90
   9  -3   3    0.92    0.50
  10  -3   3    0.14    0.42
  11   2  -3    2.00    0.39
  10   2  -3   19.29    1.41
 -10  -2   3   18.74    1.53
   9   2  -3    5.28    0.53
  -9  -2   3    4.51    0.67
   8   2  -3  104.69    6.66
  -8  -2   3   97.78    6.67
   7   2  -3   26.79    1.74
  -7  -2   3   22.49    1.73
   6   2  -3    9.69    0.71
  -6  -2   3    8.98    0.80
   5   2  -3  143.13    9.30
  -5  -2   3  143.52    9.30
   4   2  -3  131.68    8.44
  -4  -2   3  129.22    8.45
   3   2  -3   13.31    0.88
  -3  -2   3   13.07    0.91
  -3  -2   3   10.77    0.92
   2   2  -3   39.38    2.52
  -2  -2   3   35.40    2.52
  -2  -2   3   38.99    2.54
  -1  -2   3   21.11    1.44
  -1  -2   3   23.59    1.44
  -1  -2   3   20.79    1.44
   0   2  -3  313.57   20.09
   0  -2   3  295.39   20.10
   0  -2   3  325.44   20.05
  -1   2  -3  117.75    8.02
   1  -2   3  122.80    8.02
   1  -2   3  132.89    8.03
  -2   2  -3    2.28    0.20
   2  -2   3    2.10    0.22
   2  -2   3    2.03    0.18
  -3   2  -3  133.53    8.43
   3  -2   3  133.72    8.43
   3  -2   3  125.72    8.43
  -4   2  -3   43.61    2.90
  -4   2  -3   45.41    2.58
   4  -2   3   46.83    2.91
   4  -2   3   42.69    2.91
  -5   2  -3    0.33    0.10
  -5   2  -3    0.57    0.11
   5  -2   3    0.34    0.11
   5  -2   3    0.51    0.10
  -6   2  -3  127.73    8.19
  -6   2  -3  127.01    7.26
   6  -2   3  125.69    8.20
  -7   2  -3  243.64   13.89
  -7   2  -3  246.63   15.67
   7  -2   3  239.74   15.68
  -8   2  -3   50.44    3.28
  -8   2  -3   48.99    2.91
   8  -2   3   49.89    3.29
   9  -2   3    3.47    0.53
  10  -2   3    0.88    0.58
  11   1  -3    8.92    0.98
 -11  -1   3    8.70    1.00
  10   1  -3  108.32    6.89
 -10  -1   3  100.59    7.02
   9   1  -3  134.69    8.75
  -9  -1   3  133.58    8.75
   8   1  -3    0.13    0.41
  -8  -1   3   -0.15    0.46
   7   1  -3    2.21    0.46
  -7  -1   3    2.73    0.35
   6   1  -3   74.18    4.72
  -6  -1   3   70.16    4.72
   5   1  -3   20.06    1.32
  -5  -1   3   18.44    1.33
   4   1  -3    0.53    0.26
  -4  -1   3    0.85    0.30
   3   1  -3  226.29   15.17
  -3  -1   3  245.03   15.18
   2   1  -3    2.65    0.30
  -2  -1   3    1.40    0.28
  -2  -1   3    1.49    0.30
   1   1  -3  305.06   19.49
  -1  -1   3  283.88   19.49
  -1  -1   3  308.61   19.54
   0   1  -3    0.93    0.14
   0  -1   3    1.09    0.14
   0  -1   3    1.22    0.14
  -1   1  -3   23.84    1.73
   1  -1   3   29.55    1.74
   1  -1   3   25.42    1.74
  -2   1  -3  292.19   20.11
   2  -1   3  323.14   20.06
   2  -1   3  317.50   20.11
  -3   1  -3   17.07    1.12
   3  -1   3   17.07    1.12
   3  -1   3   16.29    1.13
  -4   1  -3    1.77    0.17
  -4   1  -3    1.74    0.13
  -4   1  -3    1.85    0.18
   4  -1   3    1.73    0.18
   4  -1   3    1.71    0.18
  -5   1  -3  117.77    7.61
  -5   1  -3  120.09    6.80
  -5   1  -3  116.52    7.65
   5  -1   3  120.22    7.66
  -6   1  -3    0.16    0.08
  -6   1  -3    0.23    0.07
  -6   1  -3    0.12    0.08
   6  -1   3    0.18    0.10
  -7   1  -3  122.68    7.86
  -7   1  -3  120.96    7.01
  -7   1  -3  125.15    7.91
   7  -1   3  120.35    7.92
  -8   1  -3    4.86    0.42
  -8   1  -3    4.12    0.35
  -8   1  -3    4.36    0.35
   8  -1   3    4.24    0.41
  -9   1  -3    0.05    0.12
  -9   1  -3   -0.02    0.14
   9  -1   3   -0.09    0.14
  10  -1   3    7.76    0.99
  11  -1   3   -0.51    0.45
  10   0  -3   19.54    1.56
 -10   0   3   16.65    1.54
   9   0  -3   66.20    4.50
  -9   0   3   69.46    4.56
   8   0  -3    0.22    0.19
  -8   0   3    0.33    0.20
   7   0  -3   -0.08    0.15
  -7   0   3    0.21    0.16
   6   0  -3   52.71    3.52
  -6   0   3   53.88    3.52
   5   0  -3   25.57    1.72
  -5   0   3   25.30    1.72
   4   0  -3  114.99    7.49
  -4   0   3  116.68    7.52
   3   0  -3  817.82   54.81
  -3   0   3  883.44   54.74
   2   0  -3  373.55   23.15
  -2   0   3  344.57   23.09
   1   0  -3    2.89    0.24
  -1   0   3    2.89    0.25
  -1   0   3    1.80    0.24
   0   0  -3   61.02    4.52
   0   0  -3   76.97    4.46
   0   0   3   71.67    4.46
   0   0   3   64.30    4.47
  -1   0  -3  149.48   10.09
   1   0   3  163.49   10.08
  -2   0  -3   16.17    1.21
   2   0   3   20.01    1.22
   2   0   3   17.21    1.22
  -3   0  -3   79.33    5.49
   3   0   3   87.61    5.49
   3   0   3   87.01    5.49
  -4   0  -3  244.53   16.28
  -4   0  -3  263.25   14.45
  -4   0  -3  246.73   16.21
   4   0   3  258.57   16.31
  -5   0  -3   19.69    1.46
  -5   0  -3   18.92    1.26
   5   0   3   20.72    1.34
  -6   0  -3   14.95    1.03
   6   0   3   15.18    1.04
  -7   0  -3    5.24    0.40
  -7   0  -3    5.35    0.38
  -7   0  -3    5.70    0.44
   7   0   3    5.35    0.45
  -8   0  -3   47.08    2.70
  -8   0  -3   47.28    3.07
  -8   0  -3   45.52    3.02
   8   0   3   45.95    3.07
  -9   0  -3   34.24    2.29
   9   0   3   33.65    2.29
 -10   0  -3    3.93    0.43
  10   0   3    3.97    0.47
  11   0   3    0.03    0.51
  10  -1  -3    4.84    0.71
   9  -1  -3    5.13    0.69
  -9   1   3    5.56    0.54
   8  -1  -3   33.48    2.38
  -8   1   3   36.01    2.36
   7  -1  -3   72.35    4.94
  -7   1   3   77.98    4.93
   6  -1  -3    1.07    0.22
  -6   1   3    1.70    0.24
   5  -1  -3   24.15    1.68
  -5   1   3   25.42    1.68
   4  -1  -3   84.21    5.62
  -4   1   3   88.79    5.61
   3  -1  -3  156.81    9.74
  -3   1   3  145.17    9.73
   2  -1  -3   76.01    5.34
  -2   1   3   89.52    5.37
   1  -1  -3   67.92    4.31
   1  -1  -3   64.36    4.30
  -1   1   3   67.32    4.30
   0  -1  -3   88.44    5.47
   0  -1  -3   80.76    5.47
  -1  -1  -3  152.16    9.13
   1   1   3  131.76    9.14
   1   1   3  138.06    9.11
  -2  -1  -3    1.30    0.16
  -2  -1  -3    1.22    0.17
   2   1   3    1.07    0.16
  -3  -1  -3  235.97   15.83
   3   1   3  234.03   15.83
   3   1   3  267.64   15.83
  -4  -1  -3  940.97   53.33
  -4  -1  -3  941.55   60.16
  -4  -1  -3  922.64   59.99
  -5  -1  -3  223.80   14.51
  -5  -1  -3  229.03   14.45
   5   1   3  223.34   14.50
  -6  -1  -3   21.46    1.43
  -6  -1  -3   21.30    1.40
   6   1   3   21.06    1.43
  -7  -1  -3   57.85    3.69
  -7  -1  -3   56.11    3.72
  -7  -1  -3   56.88    3.28
   7   1   3   56.68    3.73
  -8  -1  -3    0.24    0.13
  -8  -1  -3    0.15    0.10
   8   1   3    0.27    0.13
  -9  -1  -3    0.48    0.18
   9   1   3    0.73    0.19
 -10  -1  -3   74.63    4.87
  10   1   3   73.22    4.87
 -11  -1  -3   34.73    2.49
  11   1   3   38.70    2.55
  10  -2  -3   -0.01    0.59
   9  -2  -3   15.54    1.38
   8  -2  -3    0.14    0.44
  -8   2   3    0.14    0.15
   7  -2  -3    0.42    0.20
  -7   2   3    0.51    0.17
   6  -2  -3  109.64    7.56
  -6   2   3  123.04    7.55
   5  -2  -3   17.77    1.31
  -5   2   3   20.08    1.30
   4  -2  -3  129.18    8.58
  -4   2   3  136.28    8.57
   3  -2  -3    2.20    0.25
   3  -2  -3    2.29    0.25
  -3   2   3    1.96    0.30
   2  -2  -3    1.35    0.25
   2  -2  -3    0.74    0.13
  -2   2   3    1.26    0.22
   1  -2  -3  313.50   19.81
   1  -2  -3  305.07   19.84
  -1   2   3  303.24   19.80
   0  -2  -3   71.79    4.58
   0  -2  -3   69.65    4.58
   0   2   3   71.56    4.58
  -1  -2  -3    5.05    0.34
  -1  -2  -3    3.46    0.34
   1   2   3    4.75    0.34
  -2  -2  -3  339.57   21.98
  -2  -2  -3  356.63   22.01
   2   2   3  322.61   22.06
  -3  -2  -3   97.84    6.32
  -3  -2  -3   99.70    6.32
   3   2   3   96.54    6.33
  -4  -2  -3  273.65   17.61
  -5  -2  -3    1.88    0.24
  -5  -2  -3    1.57    0.20
  -6  -2  -3   28.10    1.88
  -6  -2  -3   28.06    1.85
  -7  -2  -3   33.15    2.13
  -7  -2  -3   30.57    2.15
   7   2   3   32.14    2.13
  -8  -2  -3    5.51    0.45
   8   2   3    4.70    0.44
  -9  -2  -3    0.18    0.41
   9   2   3    0.14    0.41
 -10  -2  -3  112.04    7.28
  10   2   3  111.33    7.29
 -11  -2  -3  104.03    6.79
  11   2   3  103.20    6.79
  12   2   3   19.64    1.54
   9  -3  -3    1.19    0.71
   8  -3  -3    3.49    0.65
   7  -3  -3   18.18    1.55
  -7   3   3   22.13    1.44
   6  -3  -3  313.58   21.20
  -6   3   3  344.74   21.18
   5  -3  -3  165.63   11.28
  -5   3   3  183.66   11.27
   4  -3  -3   -0.09    0.11
   4  -3  -3   -0.06    0.09
  -4   3   3    0.10    0.27
   3  -3  -3   36.83    2.22
   3  -3  -3   38.67    2.51
   3  -3  -3   42.04    2.52
  -3   3   3   35.48    2.49
   2  -3  -3  153.99   10.91
   2  -3  -3  178.70   10.94
   2  -3  -3  168.79    9.67
  -2   3   3  176.77   10.90
   1  -3  -3    3.22    0.24
   1  -3  -3    3.82    0.33
   1  -3  -3    3.74    0.28
  -1   3   3    3.11    0.30
   0  -3  -3   98.78    7.02
   0  -3  -3  113.14    7.02
   0   3   3  114.31    7.01
  -1  -3  -3  396.14   27.14
  -1  -3  -3  429.39   27.09
   1   3   3  438.62   27.11
  -2  -3  -3   24.57    1.54
  -2  -3  -3   21.05    1.54
  -3  -3  -3   21.39    1.43
  -3  -3  -3   20.87    1.43
   3   3   3   21.63    1.43
   3   3   3   21.23    1.43
  -4  -3  -3   29.11    2.11
   4   3   3   34.13    2.10
  -5  -3  -3   75.61    4.94
  -6  -3  -3  175.19   10.92
  -6  -3  -3  164.04   10.96
  -7  -3  -3    5.35    0.49
   7   3   3    4.85    0.49
  -8  -3  -3    0.38    0.36
   8   3   3    0.33    0.35
  -9  -3  -3  108.39    7.00
   9   3   3  105.24    7.00
 -10  -3  -3    0.15    0.46
  10   3   3    0.00    0.45
 -11  -3  -3   19.78    1.39
  11   3   3   18.11    1.47
 -12  -3  -3    0.38    0.24
  12   3   3    0.24    0.55
   9  -4  -3    0.00    0.49
   8  -4  -3    2.12    0.66
   7  -4  -3   14.20    1.23
   6  -4  -3   17.33    1.25
   5  -4  -3   23.33    1.65
  -5   4   3   24.74    1.62
   4  -4  -3   37.27    2.44
   4  -4  -3   41.07    2.44
  -4   4   3   32.15    2.40
   3  -4  -3    0.21    0.10
   3  -4  -3    0.36    0.12
  -3   4   3    0.22    0.08
   2  -4  -3   39.93    2.79
   2  -4  -3   43.36    2.48
   2  -4  -3   44.35    2.80
  -2   4   3   43.51    2.77
   1  -4  -3    0.00    0.21
   1  -4  -3    0.11    0.06
   1  -4  -3    0.04    0.17
  -1   4   3    0.03    0.12
   0  -4  -3  158.62   10.39
   0  -4  -3  159.80   10.38
   0   4   3  165.26   10.38
  -1  -4  -3  931.92   59.66
  -1  -4  -3  931.18   59.72
  -1  -4  -3  913.70   52.87
   1   4   3  935.00   59.67
  -2  -4  -3  347.28   22.65
  -2  -4  -3  349.79   22.61
   2   4   3  359.27   22.63
  -3  -4  -3   32.52    2.23
  -3  -4  -3   36.08    2.23
   3   4   3   32.69    2.24
  -4  -4  -3   79.73    5.07
  -4  -4  -3   75.99    5.07
   4   4   3   77.10    5.07
   4   4   3   77.28    5.06
  -6  -4  -3    0.65    0.20
   6   4   3    0.69    0.18
  -7  -4  -3  199.54   13.27
   7   4   3  211.31   13.27
  -8  -4  -3  127.13    7.69
   8   4   3  109.43    7.68
  -9  -4  -3    1.10    0.53
   9   4   3    0.85    0.52
 -10  -4  -3    0.17    0.41
  10   4   3   -0.09    0.35
 -11  -4  -3    6.71    0.75
  11   4   3    7.15    0.72
 -12  -4  -3   23.41    1.69
   8  -5  -3    6.50    0.73
   7  -5  -3   14.73    1.20
   6  -5  -3    0.65    0.42
   5  -5  -3    5.30    0.48
   4  -5  -3   60.22    3.80
   4  -5  -3   59.77    3.79
  -4   5   3   54.10    3.76
   3  -5  -3   36.92    2.50
   3  -5  -3   40.27    2.50
  -3   5   3   36.58    2.46
   2  -5  -3    2.33    0.25
   2  -5  -3    2.61    0.25
  -2   5   3    2.52    0.20
  -2   5   3    2.55    0.23
   1  -5  -3  122.64    7.72
   1  -5  -3  118.92    6.83
   1  -5  -3  121.49    7.70
  -1   5   3  115.26    6.83
  -1   5   3  119.24    7.67
   0  -5  -3  124.85    7.88
   0  -5  -3  123.83    6.99
   0  -5  -3  123.22    7.89
   0   5   3  118.04    6.99
  -1  -5  -3  105.85    7.15
  -1  -5  -3  116.23    7.15
   1   5   3  109.47    6.31
  -2  -5  -3    0.09    0.13
  -2  -5  -3    0.00    0.12
  -3  -5  -3  173.77   11.12
  -3  -5  -3  171.96   11.13
  -4  -5  -3   29.54    1.89
  -4  -5  -3   28.83    1.89
   4   5   3   26.29    1.88
  -5  -5  -3    7.09    0.55
  -5  -5  -3    7.03    0.55
   5   5   3    7.45    0.58
   5   5   3    6.82    0.55
  -6  -5  -3    7.72    0.57
   6   5   3    7.42    0.57
   6   5   3    6.53    0.56
  -7  -5  -3  155.98    9.28
   7   5   3  129.74    9.28
  -8  -5  -3  327.22   22.45
   8   5   3  369.92   22.45
  -9  -5  -3   42.17    2.84
   9   5   3   41.79    2.83
 -10  -5  -3   28.63    2.00
  10   5   3   26.88    1.97
 -11  -5  -3   33.12    2.38
   8  -6  -3   31.37    2.32
   7  -6  -3   -0.05    0.41
   6  -6  -3    1.24    0.58
   5  -6  -3   31.66    2.22
   4  -6  -3    2.10    0.27
   3  -6  -3   32.06    2.18
   3  -6  -3   33.71    2.17
  -3   6   3   32.60    1.94
   2  -6  -3  223.67   13.25
   2  -6  -3  178.08   13.23
  -2   6   3  215.89   11.75
   1  -6  -3    8.68    0.59
   1  -6  -3    7.82    0.56
  -1   6   3    7.51    0.51
   0  -6  -3   26.29    1.72
   0  -6  -3   27.11    1.72
   0   6   3   25.93    1.55
  -1  -6  -3   25.06    1.66
  -1  -6  -3   25.95    1.67
   1   6   3   25.09    1.48
  -2  -6  -3    9.51    0.68
  -2  -6  -3    9.47    0.68
  -3  -6  -3  163.10   10.31
  -3  -6  -3  163.39   10.31
   3   6   3  155.06   10.32
   3   6   3  158.37   10.30
  -4  -6  -3    1.23    0.18
  -4  -6  -3    1.48    0.17
   4   6   3    1.31    0.16
   4   6   3    0.88    0.22
  -5  -6  -3    1.44    0.23
  -5  -6  -3    1.66    0.24
   5   6   3    1.32    0.21
   5   6   3    1.88    0.27
  -6  -6  -3  140.35    9.20
  -6  -6  -3  140.00    9.20
   6   6   3  143.47    9.20
   6   6   3  142.48    9.19
  -7  -6  -3   10.55    0.73
   7   6   3    9.82    0.75
   7   6   3    8.09    0.72
  -8  -6  -3   32.80    2.32
   8   6   3   35.29    2.32
  -9  -6  -3   14.68    1.11
 -10  -6  -3   10.72    0.89
 -11  -6  -3    3.86    0.64
   7  -7  -3   10.17    0.97
   6  -7  -3    4.83    0.57
   5  -7  -3    0.94    0.43
   4  -7  -3    2.01    0.27
   3  -7  -3   19.78    1.40
  -3   7   3   21.65    1.27
   2  -7  -3  254.21   18.11
   2  -7  -3  299.44   18.12
  -2   7   3  292.13   16.08
   1  -7  -3  132.83    8.50
   1  -7  -3  131.77    8.49
  -1   7   3  131.19    7.55
   0  -7  -3    3.50    0.27
   0  -7  -3    3.66    0.27
   0   7   3    3.41    0.28
  -1  -7  -3   71.23    4.43
  -1  -7  -3   71.29    4.43
   1   7   3   63.63    3.95
  -2  -7  -3   76.37    5.02
  -2  -7  -3   79.03    5.02
  -3  -7  -3   10.85    0.76
  -3  -7  -3   11.29    0.75
   3   7   3   10.57    0.81
  -4  -7  -3  241.73   15.78
  -4  -7  -3  254.23   15.78
   4   7   3  239.66   15.77
  -5  -7  -3  244.73   16.07
  -5  -7  -3  252.36   16.07
   5   7   3  262.75   16.06
   5   7   3  238.83   16.06
  -6  -7  -3    2.13    0.30
  -7  -7  -3    0.46    0.16
   7   7   3    0.52    0.19
  -8  -7  -3   29.23    1.94
   8   7   3   25.65    1.97
  -9  -7  -3   24.23    1.75
 -10  -7  -3   22.41    1.63
 -11  -7  -3    7.19    0.75
   6  -8  -3    6.87    0.69
   5  -8  -3    0.03    0.35
   4  -8  -3   12.67    1.05
   3  -8  -3   19.32    1.32
   2  -8  -3   25.41    1.77
  -2   8   3   28.27    1.61
   1  -8  -3    1.02    0.13
   1  -8  -3    1.21    0.17
  -1   8   3    0.97    0.16
   0  -8  -3  111.27    6.72
   0  -8  -3   99.18    6.69
   0   8   3  101.85    5.97
  -1  -8  -3    1.27    0.13
  -1  -8  -3    1.28    0.13
   1   8   3    0.96    0.15
  -2  -8  -3    3.16    0.24
  -2  -8  -3    2.89    0.24
  -3  -8  -3    9.51    0.66
  -3  -8  -3    9.80    0.66
   3   8   3    8.95    0.74
  -4  -8  -3   46.84    3.16
  -4  -8  -3   48.38    3.16
   4   8   3   48.59    3.23
  -5  -8  -3  288.81   18.76
   5   8   3  294.00   18.75
  -6  -8  -3   43.91    2.90
  -7  -8  -3   24.08    1.85
   7   8   3   29.74    1.88
  -8  -8  -3   48.89    3.27
   8   8   3   47.49    3.31
  -9  -8  -3    4.55    0.49
 -10  -8  -3    4.73    0.57
   5  -9  -3   35.67    2.54
   4  -9  -3    7.70    0.67
   3  -9  -3    1.70    0.35
   2  -9  -3    5.12    0.50
   1  -9  -3   -0.03    0.07
   1  -9  -3   -0.01    0.08
  -1   9   3    0.12    0.11
   0  -9  -3   33.80    2.21
   0  -9  -3   33.21    2.22
   0   9   3   35.32    2.01
  -1  -9  -3    0.24    0.07
  -1  -9  -3    0.13    0.06
  -2  -9  -3    5.65    0.39
  -2  -9  -3    5.31    0.38
   2   9   3    5.09    0.38
   2   9   3    5.24    0.47
  -3  -9  -3  122.23    7.66
  -3  -9  -3  117.54    7.67
   3   9   3  116.34    7.72
  -4  -9  -3   28.13    1.84
   4   9   3   27.44    1.90
  -5  -9  -3   30.06    2.08
   5   9   3   32.27    2.14
  -6  -9  -3   14.11    1.01
  -7  -9  -3   49.96    3.31
  -8  -9  -3    1.46    0.32
   8   9   3    2.18    0.35
  -9  -9  -3    7.26    0.69
 -10  -9  -3    8.82    0.78
   3 -10  -3    0.16    0.25
   2 -10  -3    2.14    0.38
   1 -10  -3   17.32    1.17
   0 -10  -3    5.45    0.36
   0 -10  -3    4.81    0.37
  -1 -10  -3   81.59    5.39
  -1 -10  -3   85.92    5.39
  -2 -10  -3  172.06   11.25
  -2 -10  -3  177.89   11.26
   2  10   3  175.91   11.31
  -3 -10  -3    6.13    0.42
   3  10   3    5.28    0.51
  -4 -10  -3    1.10    0.22
   4  10   3    1.22    0.22
  -5 -10  -3   36.91    2.46
   5  10   3   37.48    2.54
  -6 -10  -3    1.21    0.31
  -7 -10  -3   19.84    1.40
  -8 -10  -3   10.13    0.81
  -9 -10  -3    2.48    0.41
   1  11   3    9.57    1.03
   2  11   3  112.93    7.40
  -3 -11  -3   19.89    1.26
   3  11   3   17.88    1.35
  -4 -11  -3    1.27    0.16
   4  11   3    1.18    0.24
  -5 -11  -3   39.53    2.59
  -6 -11  -3   11.36    0.84
  -7 -11  -3    7.16    0.62
   2  12   3   10.43    0.94
   3  12   3    1.64    0.29
  -4 -12  -3   44.84    2.92
   4  12   3   45.12    3.02
   5  12   3    1.75    0.30
  -5 -10   4   -0.05    0.36
  -4 -10   4    6.59    0.63
  -3 -10   4    5.34    0.46
  -2 -10   4    0.12    0.10
  -1 -10   4    5.66    0.41
   0 -10   4    5.18    0.43
  -7  -9   4    6.12    0.68
  -6  -9   4    1.20    0.35
  -5  -9   4   -0.28    0.31
  -4  -9   4    0.28    0.40
  -3  -9   4    0.93    0.27
  -2  -9   4    0.48    0.11
  -1  -9   4    9.36    0.65
   0   9  -4    4.51    0.40
   0  -9   4    4.43    0.34
  -1   9  -4    1.80    0.23
   1  -9   4    1.91    0.27
  -2   9  -4   29.78    1.83
  -3   9  -4   66.01    3.89
  -8  -8   4   12.15    1.04
  -7  -8   4    0.28    0.24
  -6  -8   4    2.36    0.43
  -5  -8   4    1.47    0.43
  -4  -8   4    7.12    0.61
  -3  -8   4    3.20    0.37
  -2  -8   4    0.26    0.36
  -1  -8   4    2.99    0.26
   0   8  -4    1.10    0.18
   0  -8   4    1.33    0.15
  -1   8  -4    0.45    0.12
   1  -8   4    0.50    0.10
  -2   8  -4    0.03    0.09
   2  -8   4    0.07    0.22
  -3   8  -4    3.93    0.36
  -4   8  -4    2.75    0.42
  -5   8  -4    0.59    0.36
   5  -8   4    0.06    0.33
  -9  -7   4   17.29    1.32
  -8  -7   4   -0.32    0.28
  -7  -7   4    3.53    0.47
  -6  -7   4    1.27    0.32
  -5  -7   4    1.83    0.34
  -4  -7   4   53.56    3.57
  -3  -7   4   46.75    3.09
  -2  -7   4    0.20    0.25
  -2  -7   4    0.29    0.27
  -1  -7   4   12.58    0.86
  -1  -7   4   12.01    0.85
   0   7  -4   17.74    1.22
   0  -7   4   18.55    1.20
   0  -7   4   17.80    1.20
  -1   7  -4    2.71    0.25
   1  -7   4    2.47    0.23
   1  -7   4    2.60    0.22
  -2   7  -4   21.18    1.43
   2  -7   4   21.84    1.43
  -3   7  -4    4.30    0.33
   3  -7   4    4.03    0.42
  -4   7  -4    8.28    0.64
  -5   7  -4   11.23    0.80
  -6   7  -4    0.01    0.33
   6  -7   4    0.15    0.34
  -9  -6   4    0.01    0.37
  -8  -6   4    9.14    0.79
  -7  -6   4    2.42    0.38
  -6  -6   4    0.61    0.21
  -5  -6   4    1.45    0.29
  -4  -6   4   75.82    5.00
  -3  -6   4   76.44    4.98
  -3  -6   4   73.68    4.93
  -2  -6   4    4.38    0.41
  -2  -6   4    4.25    0.41
  -1  -6   4    3.23    0.35
  -1  -6   4    3.46    0.35
   0  -6   4   24.46    1.74
   0  -6   4   27.38    1.71
  -1   6  -4    1.72    0.18
   1  -6   4    1.39    0.16
   1  -6   4    1.68    0.17
  -2   6  -4    2.13    0.21
   2  -6   4    1.93    0.21
   2  -6   4    2.18    0.21
   3  -6   4    3.63    0.31
  -4   6  -4    4.10    0.30
  -4   6  -4    3.57    0.34
  -5   6  -4    0.32    0.32
  -6   6  -4   20.82    1.33
  -7   6  -4   23.25    1.49
   7  -6   4   23.63    1.64
 -10  -5   4    1.46    0.54
  -9  -5   4   -0.54    0.39
  -8  -5   4   17.66    1.30
  -7  -5   4    3.53    0.44
   6   5  -4    3.14    0.38
  -6  -5   4    5.02    0.44
   5   5  -4    8.78    0.73
  -5  -5   4   10.24    0.79
   4   5  -4    0.31    0.12
  -4  -5   4    0.25    0.18
  -4  -5   4    0.39    0.21
   3   5  -4   12.27    0.80
  -3  -5   4   10.44    0.84
  -3  -5   4   12.05    0.86
   2   5  -4    2.81    0.29
  -2  -5   4    2.43    0.38
  -2  -5   4    2.95    0.38
  -1  -5   4    0.85    0.18
  -1  -5   4    0.70    0.19
  -1  -5   4    0.96    0.16
   0  -5   4    1.86    0.32
   0  -5   4    1.50    0.32
  -1   5  -4    0.44    0.09
   1  -5   4    0.30    0.18
   1  -5   4    0.37    0.18
  -2   5  -4    0.49    0.09
   2  -5   4    0.61    0.10
   2  -5   4    0.37    0.10
   3  -5   4    5.01    0.41
   3  -5   4    6.04    0.42
  -4   5  -4    5.97    0.42
  -4   5  -4    5.45    0.38
   4  -5   4    5.14    0.42
  -5   5  -4    4.20    0.36
  -5   5  -4    4.32    0.30
   5  -5   4    4.31    0.37
  -6   5  -4   37.42    2.24
  -7   5  -4   89.01    5.18
   8  -5   4    9.70    0.81
 -10  -4   4   19.58    1.54
  -9  -4   4   27.08    1.93
   8   4  -4    8.15    0.70
  -8  -4   4    6.68    0.72
   7   4  -4  126.44    7.78
  -7  -4   4  112.24    7.78
   6   4  -4  170.64   11.10
  -6  -4   4  172.15   11.10
   5   4  -4    0.83    0.20
  -5  -4   4    0.62    0.23
   4   4  -4    4.02    0.41
  -4  -4   4    5.29    0.49
  -4  -4   4    4.80    0.45
   3   4  -4    0.97    0.15
  -3  -4   4    1.38    0.20
  -3  -4   4    0.84    0.20
   2   4  -4   18.03    1.28
  -2  -4   4   19.29    1.31
  -2  -4   4   19.86    1.32
   1   4  -4    7.14    0.49
  -1  -4   4    7.15    0.51
  -1  -4   4    6.73    0.51
  -1  -4   4    7.39    0.52
   0   4  -4   40.26    2.63
   0  -4   4   36.78    2.64
   0  -4   4   44.14    2.65
  -1   4  -4    2.15    0.29
   1  -4   4    2.41    0.35
   1  -4   4    2.17    0.36
  -2   4  -4    1.47    0.14
   2  -4   4    0.82    0.45
   2  -4   4    1.39    0.15
  -3   4  -4    3.50    0.27
  -3   4  -4    3.63    0.25
   3  -4   4    3.62    0.28
   3  -4   4    3.36    0.29
  -4   4  -4    2.93    0.24
  -4   4  -4    2.72    0.20
   4  -4   4    2.65    0.26
   4  -4   4    2.75    0.24
  -5   4  -4   11.37    0.71
   5  -4   4   10.53    0.77
  -6   4  -4    0.31    0.12
   6  -4   4    0.27    0.13
  -7   4  -4    5.38    0.51
   8  -4   4    1.47    0.40
   9  -4   4    0.63    0.43
  10   3  -4    0.35    0.47
 -10  -3   4    0.08    0.56
   9   3  -4    4.87    0.55
  -9  -3   4    3.63    0.61
   8   3  -4    2.96    0.45
  -8  -3   4    3.24    0.51
   7   3  -4   68.67    4.38
  -7  -3   4   63.38    4.38
   6   3  -4  202.81   13.50
  -6  -3   4  215.32   13.52
   5   3  -4    7.53    0.69
  -5  -3   4    9.59    0.70
   4   3  -4    0.25    0.16
  -4  -3   4    0.29    0.20
   3   3  -4    1.65    0.20
  -3  -3   4    1.49    0.24
  -3  -3   4    1.51    0.22
  -3  -3   4    1.47    0.23
  -2  -3   4   23.65    1.79
  -2  -3   4   26.72    1.79
  -2  -3   4   29.92    1.80
   1   3  -4   24.93    1.90
  -1  -3   4   32.98    1.92
  -1  -3   4   28.24    1.91
   0   3  -4  151.94    9.46
   0  -3   4  139.26    9.47
   0  -3   4  158.62    9.47
   0  -3   4  136.70    9.45
  -1   3  -4   52.56    3.68
   1  -3   4   62.13    3.69
   1  -3   4   55.09    3.70
  -2   3  -4    6.46    0.46
   2  -3   4    6.64    0.49
   2  -3   4    6.52    0.48
  -3   3  -4   13.37    0.91
   3  -3   4   14.08    0.96
   3  -3   4   13.72    0.92
  -4   3  -4   34.87    2.24
   4  -3   4   32.67    2.24
   4  -3   4   35.01    2.24
  -5   3  -4    5.15    0.38
  -5   3  -4    4.81    0.37
   5  -3   4    4.53    0.38
  -6   3  -4    6.91    0.48
  -6   3  -4    6.77    0.45
  -6   3  -4    6.73    0.51
   6  -3   4    6.44    0.53
  -7   3  -4    5.08    0.40
   7  -3   4    5.39    0.46
   9  -3   4    7.92    0.73
  10  -3   4    3.98    0.57
  10   2  -4    2.03    0.34
 -10  -2   4    1.86    0.57
   9   2  -4    9.34    0.81
  -9  -2   4    8.50    0.85
   8   2  -4   49.02    3.24
  -8  -2   4   47.65    3.25
   7   2  -4   10.84    0.82
  -7  -2   4    9.74    0.84
   6   2  -4   11.15    0.84
  -6  -2   4   10.37    0.85
   5   2  -4   27.92    1.88
  -5  -2   4   27.67    1.89
   4   2  -4   31.20    2.37
  -4  -2   4   40.12    2.38
   3   2  -4   28.66    1.75
  -3  -2   4   23.06    1.77
   2   2  -4    4.20    0.36
  -2  -2   4    4.33    0.38
  -2  -2   4    4.14    0.38
   1   2  -4    0.13    0.11
  -1  -2   4    0.49    0.13
  -1  -2   4    0.33    0.14
   0  -2   4  133.05    8.54
   0  -2   4  131.01    8.54
  -1   2  -4   79.01    4.75
   1  -2   4   65.58    4.77
   1  -2   4   82.93    4.75
   1  -2   4   63.65    4.77
  -2   2  -4   10.26    0.72
   2  -2   4   10.87    0.73
   2  -2   4    9.51    0.73
  -3   2  -4    9.88    0.74
   3  -2   4    8.74    0.76
   3  -2   4   10.96    0.69
  -4   2  -4   61.31    3.92
   4  -2   4   57.71    3.92
   4  -2   4   62.15    3.92
  -5   2  -4    3.92    0.29
  -5   2  -4    3.99    0.31
   5  -2   4    2.98    0.33
  -6   2  -4    7.87    0.62
  -6   2  -4    8.85    0.56
  -6   2  -4    8.71    0.56
   8  -2   4    4.01    0.40
   9  -2   4   -0.68    0.37
  10  -2   4   47.67    3.22
  10   1  -4   92.72    6.09
 -10  -1   4   92.07    6.08
   9   1  -4  188.03   12.11
  -9  -1   4  185.29   12.10
   8   1  -4    4.13    0.45
  -8  -1   4    4.52    0.46
   7   1  -4    2.49    0.32
  -7  -1   4    3.03    0.35
   6   1  -4   17.75    1.27
  -6  -1   4   17.52    1.27
   5   1  -4    0.62    0.29
  -5  -1   4    0.61    0.29
   4   1  -4    1.41    0.32
  -4  -1   4    1.86    0.33
   3   1  -4   42.80    2.94
  -3  -1   4   46.56    2.95
   2   1  -4    1.84    0.20
  -2  -1   4    1.37    0.21
   1   1  -4   15.43    1.06
  -1  -1   4   15.33    1.08
  -1  -1   4   15.58    1.07
   0   1  -4    1.16    0.18
   0  -1   4    0.94    0.19
  -1   1  -4    7.25    0.53
   1  -1   4    7.33    0.53
   1  -1   4    7.57    0.54
  -2   1  -4    3.50    0.53
   2  -1   4    3.67    0.56
   2  -1   4    5.09    0.55
  -3   1  -4    0.10    0.15
   3  -1   4    0.20    0.07
   3  -1   4   -0.01    0.16
  -4   1  -4    0.72    0.13
   4  -1   4    0.65    0.13
  -5   1  -4    0.86    0.14
   5  -1   4    0.66    0.13
  -6   1  -4    7.08    0.52
  -6   1  -4    6.80    0.47
  -6   1  -4    7.24    0.46
   6  -1   4    6.62    0.53
  -8   1  -4    6.62    0.55
  -8   1  -4    6.99    0.48
   8  -1   4    6.69    0.56
  -9   1  -4    3.07    0.36
  -9   1  -4    3.17    0.30
   9  -1   4    2.89    0.36
  10  -1   4   32.41    2.26
  11  -1   4   57.62    3.88
  10   0  -4   16.82    1.37
 -10   0   4   13.76    1.33
   9   0  -4  129.49    8.39
  -9   0   4  127.51    8.37
   8   0  -4    7.11    0.64
  -8   0   4    7.17    0.62
   7   0  -4    1.21    0.25
  -7   0   4    1.32    0.25
   6   0  -4   45.42    3.00
  -6   0   4   44.83    2.99
   5   0  -4   41.81    2.79
  -5   0   4   42.59    2.80
   4   0  -4   38.08    2.57
  -4   0   4   39.97    2.61
   3   0  -4  300.27   20.28
  -3   0   4  330.23   20.28
   2   0  -4  308.80   19.82
  -2   0   4  307.80   19.83
   1   0  -4   10.28    0.64
  -1   0   4    7.66    0.64
   0   0  -4    1.16    0.16
   0   0   4    1.29    0.17
   0   0   4    1.20    0.16
  -1   0  -4    0.45    0.12
   1   0   4    0.55    0.13
   1   0   4    0.40    0.12
  -2   0  -4   19.20    1.15
   2   0   4   14.67    1.16
   2   0   4   16.11    1.16
  -3   0  -4   20.99    1.57
   3   0   4   25.68    1.57
  -4   0  -4   63.43    4.24
   4   0   4   66.33    4.24
  -5   0  -4    5.56    0.43
  -5   0  -4    4.85    0.49
   5   0   4    6.10    0.44
  -6   0  -4    0.07    0.37
  -6   0  -4    0.15    0.30
   6   0   4    0.18    0.10
  -7   0  -4    1.55    0.21
  -7   0  -4    1.66    0.17
   7   0   4    1.65    0.22
  -8   0  -4    0.33    0.10
  -8   0  -4    0.19    0.08
  -8   0  -4    0.36    0.15
   8   0   4    0.11    0.13
  -9   0  -4   15.72    0.96
  -9   0  -4   15.05    1.10
   9   0   4   15.16    1.11
 -10   0  -4    0.81    0.22
  10   0   4    0.56    0.21
  11   0   4    1.50    0.52
  10  -1  -4   21.30    1.62
   9  -1  -4    8.77    0.87
  -9   1   4    8.65    0.73
   8  -1  -4   17.48    1.26
  -8   1   4   17.00    1.24
   7  -1  -4   94.62    6.24
  -7   1   4   96.32    6.23
   6  -1  -4    6.92    0.57
  -6   1   4    6.68    0.56
   5  -1  -4    3.11    0.31
  -5   1   4    2.36    0.29
   4  -1  -4   42.51    2.70
  -4   1   4   38.95    2.68
   3  -1  -4   95.45    6.15
  -3   1   4   94.58    6.16
   2  -1  -4  222.10   14.59
  -2   1   4  231.36   14.59
   1  -1  -4    1.26    0.23
  -1   1   4    1.89    0.22
   0  -1  -4    0.32    0.12
   0   1   4    0.26    0.11
  -1  -1  -4    2.90    0.24
   1   1   4    2.52    0.25
  -2  -1  -4    0.77    0.15
   2   1   4    0.45    0.16
  -3  -1  -4  119.02    7.31
   3   1   4  118.17    7.31
   3   1   4  101.78    7.28
  -4  -1  -4  178.01   11.39
   4   1   4  174.57   11.40
  -5  -1  -4   45.39    2.59
  -5  -1  -4   43.67    2.95
  -6  -1  -4    0.43    0.25
  -6  -1  -4    0.60    0.10
   6   1   4    0.45    0.12
  -7  -1  -4   23.74    1.57
  -7  -1  -4   22.62    1.52
   7   1   4   23.24    1.57
  -8  -1  -4   16.51    1.00
  -8  -1  -4   16.28    1.10
  -8  -1  -4   16.83    1.15
   8   1   4   15.97    1.15
  -9  -1  -4    0.18    0.14
   9   1   4   -0.05    0.12
 -10  -1  -4    0.56    0.21
  10   1   4    0.59    0.21
 -11  -1  -4    0.38    0.53
  11   1   4    0.62    0.57
  10  -2  -4   -0.15    0.55
   9  -2  -4   25.45    1.88
   8  -2  -4    3.17    0.42
  -8   2   4    3.12    0.52
   7  -2  -4    0.31    0.18
  -7   2   4    0.28    0.16
   6  -2  -4   49.83    3.38
  -6   2   4   52.12    3.37
   5  -2  -4    3.93    0.38
  -5   2   4    3.84    0.36
   4  -2  -4   85.64    5.57
  -4   2   4   85.78    5.57
   3  -2  -4    0.73    0.30
  -3   2   4    0.69    0.30
   2  -2  -4   10.62    0.82
  -2   2   4   13.23    0.84
   1  -2  -4  116.80    7.42
   1  -2  -4  116.76    7.42
  -1   2   4  111.73    7.41
   0  -2  -4   57.88    3.63
   0  -2  -4   53.76    3.63
   0   2   4   56.49    3.63
  -1  -2  -4    4.62    0.35
  -1  -2  -4    4.37    0.35
   1   2   4    3.96    0.35
  -2  -2  -4    5.07    0.40
  -2  -2  -4    5.35    0.40
   2   2   4    4.92    0.40
  -3  -2  -4   12.78    0.76
   3   2   4    8.32    0.76
  -4  -2  -4   48.33    3.26
   4   2   4   47.93    3.26
   4   2   4   50.73    3.22
  -5  -2  -4   25.02    1.69
  -5  -2  -4   24.60    1.45
  -6  -2  -4    3.98    0.38
  -7  -2  -4    0.73    0.39
  -7  -2  -4    0.99    0.51
  -8  -2  -4   48.14    3.18
   8   2   4   48.37    3.19
  -9  -2  -4    2.08    0.29
   9   2   4    1.89    0.27
   9  -3  -4   22.67    1.70
   8  -3  -4   32.38    2.26
   7  -3  -4   17.69    1.25
  -7   3   4   16.65    1.21
   6  -3  -4  180.87   11.95
  -6   3   4  188.84   11.94
   5  -3  -4  281.54   18.59
  -5   3   4  295.71   18.58
   4  -3  -4   13.46    0.92
  -4   3   4   12.42    0.91
   3  -3  -4   17.23    1.16
   3  -3  -4   16.71    1.15
  -3   3   4   16.30    1.17
   2  -3  -4   30.76    2.31
   2  -3  -4   39.51    2.33
  -2   3   4   35.79    2.30
   1  -3  -4    0.59    0.16
   1  -3  -4    0.22    0.20
  -1   3   4   -0.05    0.14
   0  -3  -4   22.21    1.64
   0  -3  -4   26.09    1.64
   0   3   4   25.89    1.63
  -1  -3  -4  204.88   13.68
  -1  -3  -4  226.96   13.68
   1   3   4  206.47   13.68
  -2  -3  -4   26.59    1.77
  -2  -3  -4   25.66    1.77
   2   3   4   28.06    1.76
  -3  -3  -4   21.44    1.58
  -3  -3  -4   25.36    1.59
   3   3   4   23.70    1.58
  -4  -3  -4    0.20    0.17
   4   3   4    0.54    0.15
   4   3   4    0.58    0.19
  -5  -3  -4    0.54    0.20
  -6  -3  -4    0.76    0.36
  -7  -3  -4    0.53    0.26
  -8  -3  -4    0.78    0.36
   8   3   4    0.70    0.35
  -9  -3  -4    0.81    0.19
   9   3   4    0.45    0.53
 -10  -3  -4    5.61    0.67
  10   3   4    5.28    0.68
 -11  -3  -4    3.62    0.88
  11   3   4    4.99    0.53
 -12  -3  -4    7.92    0.73
  12   3   4    7.71    0.73
   9  -4  -4    0.54    0.49
   8  -4  -4    0.39    0.47
   7  -4  -4   45.60    3.08
   6  -4  -4   26.27    1.81
   5  -4  -4  102.60    6.44
  -5   4   4   95.40    6.42
   4  -4  -4    1.98    0.24
   4  -4  -4    2.11    0.24
  -4   4   4    1.49    0.21
   3  -4  -4    4.05    0.33
   3  -4  -4    2.88    0.31
  -3   4   4    2.80    0.27
   2  -4  -4   31.38    2.02
   2  -4  -4   29.59    1.74
   2  -4  -4   26.77    1.96
  -2   4   4   31.10    1.94
   1  -4  -4    5.52    0.42
   1  -4  -4    5.64    0.45
   1  -4  -4    5.46    0.36
  -1   4   4    5.29    0.40
   0  -4  -4   81.54    5.12
   0  -4  -4   75.96    5.12
   0   4   4   80.01    5.11
  -1  -4  -4  459.89   28.79
  -1  -4  -4  439.63   28.81
   1   4   4  445.55   28.78
  -2  -4  -4  179.59   11.43
  -2  -4  -4  174.64   10.12
  -2  -4  -4  170.70   11.43
   2   4   4  185.72   11.43
  -3  -4  -4    3.97    0.36
  -3  -4  -4    4.39    0.36
   3   4   4    5.06    0.36
  -4  -4  -4    2.67    0.27
  -4  -4  -4    2.65    0.26
   4   4   4    2.37    0.26
   4   4   4    2.50    0.26
  -5  -4  -4    0.26    0.14
   5   4   4    0.04    0.14
  -6  -4  -4    1.36    0.26
  -7  -4  -4   20.37    1.44
   7   4   4   20.20    1.43
  -8  -4  -4   33.49    2.15
   8   4   4   28.44    2.15
  -9  -4  -4    4.47    0.59
   9   4   4    5.61    0.59
 -10  -4  -4    1.20    0.44
  10   4   4    1.73    0.42
 -11  -4  -4    4.76    0.64
  11   4   4    4.27    0.62
 -12  -4  -4    0.27    0.23
   8  -5  -4   16.92    1.31
   7  -5  -4   26.30    1.87
   6  -5  -4    3.72    0.51
   5  -5  -4   11.12    0.83
   4  -5  -4   54.39    3.33
  -4   5   4   47.02    3.29
   3  -5  -4   89.94    5.52
   3  -5  -4   79.72    5.50
  -3   5   4   84.69    5.47
   2  -5  -4    0.85    0.16
   2  -5  -4    1.27    0.17
  -2   5   4    1.14    0.13
   1  -5  -4   38.65    2.46
   1  -5  -4   39.16    2.45
   1  -5  -4   35.07    2.17
  -1   5   4   36.88    2.43
   0  -5  -4   47.29    3.18
   0  -5  -4   47.44    2.82
   0  -5  -4   50.48    3.18
   0   5   4   50.47    3.16
  -1  -5  -4   79.20    5.24
  -1  -5  -4   80.97    5.24
   1   5   4   82.99    5.23
  -2  -5  -4   36.45    2.38
  -2  -5  -4   36.59    2.38
   2   5   4   36.29    2.38
  -3  -5  -4    3.15    0.26
  -3  -5  -4    2.85    0.26
  -4  -5  -4    0.69    0.13
  -4  -5  -4    0.34    0.15
   4   5   4    0.50    0.17
  -5  -5  -4    2.48    0.26
  -5  -5  -4    1.91    0.25
   5   5   4    2.10    0.26
   5   5   4    2.25    0.24
  -6  -5  -4    0.86    0.21
   6   5   4    1.17    0.21
  -7  -5  -4   42.82    2.85
   7   5   4   41.01    2.84
  -8  -5  -4   44.69    3.42
   8   5   4   55.21    3.42
  -9  -5  -4   29.60    2.03
   9   5   4   28.79    2.03
 -10  -5  -4    0.22    0.44
  10   5   4    0.15    0.42
 -11  -5  -4   32.71    2.30
   7  -6  -4    2.03    0.51
   6  -6  -4    4.45    0.57
   5  -6  -4   56.95    3.78
   4  -6  -4    3.46    0.37
   3  -6  -4   14.06    1.10
   3  -6  -4   17.89    1.13
   2  -6  -4  144.37    9.91
   2  -6  -4  163.27    9.93
   1  -6  -4   16.36    1.12
   1  -6  -4   17.10    1.12
   0  -6  -4   25.31    1.71
   0  -6  -4   26.46    1.71
   0  -6  -4   26.70    1.53
  -1  -6  -4    2.97    0.27
  -1  -6  -4    3.05    0.27
  -2  -6  -4    0.67    0.19
  -2  -6  -4    0.65    0.18
   2   6   4    0.78    0.09
  -3  -6  -4   27.02    1.81
  -3  -6  -4   28.18    1.81
  -4  -6  -4    7.33    0.55
  -4  -6  -4    7.45    0.54
   4   6   4    7.60    0.57
  -5  -6  -4    0.86    0.17
  -5  -6  -4    0.95    0.19
   5   6   4    1.26    0.23
   5   6   4    1.20    0.17
  -6  -6  -4   10.06    0.80
   6   6   4   11.02    0.78
   6   6   4    9.78    0.82
  -7  -6  -4    2.60    0.37
   7   6   4    2.80    0.36
   7   6   4    3.17    0.37
  -8  -6  -4   18.96    1.50
   8   6   4   22.11    1.50
  -9  -6  -4    3.69    0.43
 -10  -6  -4   -0.10    0.36
 -11  -6  -4    3.81    0.61
   7  -7  -4    3.23    0.53
   6  -7  -4   11.95    0.98
   5  -7  -4   14.16    1.08
   4  -7  -4    4.99    0.54
   3  -7  -4   20.18    1.39
   2  -7  -4  229.66   15.22
   2  -7  -4  243.47   15.23
   1  -7  -4  153.67   10.18
   1  -7  -4  162.80   10.19
   0  -7  -4    6.38    0.49
   0  -7  -4    7.40    0.49
  -1  -7  -4   28.24    2.00
  -1  -7  -4   32.74    2.01
  -2  -7  -4   46.55    3.12
  -2  -7  -4   49.62    3.12
  -3  -7  -4    0.00    0.14
  -3  -7  -4    0.03    0.17
  -4  -7  -4   33.65    2.29
  -4  -7  -4   35.04    2.29
   4   7   4   35.06    2.27
   4   7   4   34.88    2.31
  -5  -7  -4  111.21    7.41
  -5  -7  -4  115.12    7.41
   5   7   4  118.69    7.40
   5   7   4  112.94    7.42
  -6  -7  -4   11.65    0.81
   6   7   4   10.33    0.83
  -7  -7  -4    0.15    0.12
   7   7   4    0.11    0.14
  -8  -7  -4    0.35    0.20
   8   7   4    0.32    0.23
  -9  -7  -4    1.82    0.39
 -10  -7  -4    0.73    0.37
 -11  -7  -4    1.65    0.49
   6  -8  -4   31.94    2.21
   5  -8  -4    0.41    0.36
   4  -8  -4   10.08    0.85
   3  -8  -4   41.88    2.79
   2  -8  -4   10.16    0.73
   1  -8  -4   14.55    0.99
   1  -8  -4   14.33    0.98
   0  -8  -4   24.16    1.51
   0  -8  -4   22.51    1.50
   0   8   4   21.82    1.37
  -1  -8  -4    1.68    0.16
  -1  -8  -4    1.66    0.17
   1   8   4    1.06    0.16
  -2  -8  -4    0.72    0.37
  -3  -8  -4   10.44    0.74
  -3  -8  -4   10.78    0.75
  -4  -8  -4   62.70    4.04
   4   8   4   61.41    4.07
  -5  -8  -4  176.62   11.40
   5   8   4  176.95   11.40
  -6  -8  -4   54.29    3.57
  -7  -8  -4    0.38    0.21
   7   8   4    1.03    0.24
  -8  -8  -4   -0.01    0.13
   8   8   4    0.00    0.15
  -9  -8  -4    1.38    0.28
   9   8   4    0.50    0.31
 -10  -8  -4    1.21    0.35
   4  -9  -4   16.84    1.22
   3  -9  -4    8.64    0.69
   2  -9  -4    1.70    0.31
   1  -9  -4   12.09    0.82
   0  -9  -4   29.10    1.89
   0   9   4   28.58    1.72
  -1  -9  -4   11.97    0.81
  -1  -9  -4   12.37    0.81
   1   9   4   11.57    0.75
  -2  -9  -4    0.25    0.08
  -2  -9  -4    0.42    0.10
  -3  -9  -4   29.33    1.89
   3   9   4   27.69    1.67
   3   9   4   28.87    1.95
  -4  -9  -4   14.71    1.00
   4   9   4   14.14    1.07
  -5  -9  -4   25.48    1.66
   5   9   4   23.05    1.73
  -6  -9  -4    0.12    0.24
  -7  -9  -4    7.97    0.63
  -8  -9  -4    0.60    0.23
   8   9   4    0.71    0.27
  -9  -9  -4    2.72    0.40
   9   9   4    3.12    0.45
 -10  -9  -4    0.38    0.28
   3 -10  -4    0.92    0.30
   2 -10  -4   15.09    1.04
   1 -10  -4   43.17    2.82
   0 -10  -4    4.32    0.33
  -1 -10  -4   37.70    2.41
   1  10   4   36.28    2.18
  -2 -10  -4  135.76    8.50
   2  10   4  128.35    7.56
  -3 -10  -4   14.72    0.96
   3  10   4   14.50    0.87
   3  10   4   13.17    1.03
  -4 -10  -4    0.00    0.23
   4  10   4    0.11    0.34
  -5 -10  -4    7.98    0.61
   5  10   4    7.74    0.69
  -6 -10  -4    0.10    0.24
  -7 -10  -4    2.83    0.35
  -8 -10  -4    1.57    0.31
  -9 -10  -4   -0.01    0.24
   9  10   4    0.04    0.26
   1 -11  -4    1.21    0.23
   0 -11  -4    4.36    0.35
  -1 -11  -4    9.79    0.67
  -2 -11  -4  134.72    8.61
   2  11   4  133.12    8.69
  -3 -11  -4   49.81    3.25
   3  11   4   50.56    3.34
  -4 -11  -4    2.10    0.31
   4  11   4    2.33    0.32
  -5 -11  -4    9.41    0.76
   5  11   4    9.31    0.92
  -6 -11  -4    6.64    0.56
  -7 -11  -4    4.37    0.45
   8  11   4   37.40    2.55
   2  12   4    7.16    0.81
  -3 -12  -4    0.11    0.22
   3  12   4    0.45    0.20
  -4 -12  -4   13.46    0.97
   5  12   4    2.02    0.31
  -3 -10   5   56.06    3.66
  -2 -10   5    1.62    0.20
  -1 -10   5    0.14    0.10
  -6  -9   5    0.47    0.34
  -5  -9   5   -0.52    0.34
  -4  -9   5   61.80    4.06
  -3  -9   5   77.55    5.04
  -2  -9   5   -0.11    0.10
  -1  -9   5   20.86    1.39
   0  -9   5   57.28    3.72
   1  -9   5    4.03    0.34
   2  -9   5   32.67    2.18
  -3   9  -5  157.65    9.53
   3  -9   5  173.40   10.68
  -7  -8   5    5.56    0.64
  -6  -8   5    0.01    0.30
  -5  -8   5   30.00    2.06
  -4  -8   5    5.67    0.53
  -3  -8   5    3.50    0.40
  -2  -8   5   37.31    2.46
  -1  -8   5    2.94    0.27
   0  -8   5   11.17    0.77
   1  -8   5   14.49    0.98
   2  -8   5    0.06    0.31
   3  -8   5   89.98    5.86
  -4   8  -5   20.79    1.41
  -5   8  -5    0.30    0.16
   5  -8   5    0.02    0.16
  -8  -7   5    6.20    0.65
  -7  -7   5   67.40    4.57
  -6  -7   5   34.15    2.45
  -5  -7   5    1.40    0.35
  -4  -7   5    0.76    0.33
  -3  -7   5    4.60    0.47
  -2  -7   5   10.85    0.78
  -1  -7   5    0.14    0.21
   0  -7   5   41.01    2.68
   1  -7   5    9.11    0.64
   2  -7   5   46.06    3.00
   3  -7   5    0.22    0.25
  -4   7  -5   13.78    0.95
  -5   7  -5   51.38    3.06
  -6   7  -5    0.99    0.35
  -9  -6   5    0.84    0.38
  -8  -6   5    0.61    0.34
  -7  -6   5   26.93    1.95
  -6  -6   5   26.39    1.91
  -5  -6   5    1.40    0.32
  -4  -6   5    2.15    0.31
  -3  -6   5   52.66    3.46
  -2  -6   5    0.84    0.25
  -1  -6   5   49.01    3.31
  -1  -6   5   52.33    3.31
   0  -6   5  388.21   24.79
   0  -6   5  383.80   24.79
   1  -6   5  114.35    7.42
   1  -6   5  115.68    7.42
   2  -6   5    1.97    0.22
   3  -6   5   27.93    1.85
   4  -6   5    0.24    0.12
  -5   6  -5   11.73    0.90
  -6   6  -5   23.92    1.50
  -7   6  -5   31.22    1.92
  -9  -5   5    0.02    0.39
  -8  -5   5   12.53    1.09
  -7  -5   5    6.53    0.61
  -6  -5   5    3.99    0.45
   5   5  -5   13.48    1.10
  -5  -5   5   17.03    1.18
   4   5  -5    6.24    0.49
  -4  -5   5    6.45    0.54
   3   5  -5    2.59    0.24
  -3  -5   5    2.61    0.29
  -3  -5   5    1.98    0.29
   2   5  -5   28.80    1.95
  -2  -5   5   31.72    1.98
  -2  -5   5   28.60    1.98
   1   5  -5    8.48    0.57
  -1  -5   5    7.67    0.60
  -1  -5   5    8.52    0.60
  -1  -5   5    8.10    0.59
   0  -5   5  108.24    7.00
   0  -5   5  108.48    7.00
   1  -5   5   77.93    4.98
   1  -5   5   76.06    4.99
   2  -5   5    3.69    0.39
   2  -5   5    4.18    0.33
   3  -5   5   33.66    2.17
   3  -5   5   32.00    2.16
   4  -5   5   43.62    2.86
  -5   5  -5    0.19    0.13
  -6   5  -5  103.67    6.04
  -7   5  -5  211.30   12.14
 -10  -4   5   27.94    1.98
  -9  -4   5   16.31    1.43
  -8  -4   5    1.52    0.44
   7   4  -5   11.69    0.90
  -7  -4   5   11.59    0.91
   6   4  -5    0.15    0.25
  -6  -4   5    0.23    0.29
   5   4  -5    0.96    0.23
  -5  -4   5    1.22    0.31
   4   4  -5    1.68    0.24
  -4  -4   5    1.80    0.28
   3   4  -5   23.05    1.45
  -3  -4   5   19.11    1.48
   2   4  -5    1.40    0.22
  -2  -4   5    1.93    0.27
  -2  -4   5    1.45    0.27
   1   4  -5   66.12    4.28
  -1  -4   5   69.11    4.29
  -1  -4   5   67.38    4.28
  -1  -4   5   61.64    4.29
   0   4  -5    0.38    0.14
   0  -4   5    0.38    0.17
   0  -4   5    0.26    0.17
   0  -4   5    0.36    0.17
  -1   4  -5   22.41    1.47
   1  -4   5   22.47    1.51
   1  -4   5   22.51    1.50
  -2   4  -5  168.38   10.80
   2  -4   5  170.15   10.81
   2  -4   5  165.21   10.80
  -3   4  -5    1.31    0.15
   3  -4   5    1.37    0.17
   3  -4   5    1.28    0.17
  -4   4  -5    4.02    0.32
   4  -4   5    4.01    0.34
   4  -4   5    4.26    0.35
  -5   4  -5   45.39    2.64
   5  -4   5   44.58    2.95
  -6   4  -5    0.64    0.15
   6  -4   5    0.36    0.14
  -7   4  -5   37.81    2.38
   9  -4   5    0.11    0.41
 -10  -3   5    4.12    0.96
   9   3  -5    4.33    0.93
  -9  -3   5    4.52    0.95
   8   3  -5    4.91    0.56
  -8  -3   5    4.08    0.56
   7   3  -5   10.20    0.81
  -7  -3   5    9.25    0.81
   6   3  -5    4.86    0.70
  -6  -3   5    4.03    0.71
   5   3  -5    0.85    0.25
  -5  -3   5    0.96    0.27
   4   3  -5   10.99    0.95
  -4  -3   5   15.03    0.98
   3   3  -5  166.09   10.50
  -3  -3   5  157.28   10.51
  -2  -3   5  125.61    8.16
   1   3  -5    0.97    0.18
  -1  -3   5    0.87    0.21
  -1  -3   5    0.86    0.19
   0   3  -5   40.64    2.71
   0  -3   5   39.50    2.72
   0  -3   5   45.24    2.73
  -1   3  -5   10.31    0.82
   1  -3   5   10.63    0.84
   1  -3   5   13.37    0.84
   1  -3   5   12.51    0.80
  -2   3  -5    6.14    0.46
   2  -3   5    6.19    0.48
   2  -3   5    6.72    0.48
  -3   3  -5   63.53    4.00
   3  -3   5   58.74    4.01
   3  -3   5   62.69    4.00
  -4   3  -5  160.24   10.35
   4  -3   5  158.40   10.36
   4  -3   5  163.55   10.36
  -5   3  -5   12.88    0.86
   5  -3   5   11.91    0.87
  -6   3  -5   35.13    2.10
   6  -3   5   35.87    2.36
  -7   3  -5    1.62    0.21
   7  -3   5    1.56    0.24
  -8   3  -5   27.78    1.75
   9  -3   5   39.13    2.67
  10   2  -5    2.12    0.35
 -10  -2   5    1.90    0.36
   9   2  -5    4.36    0.46
  -9  -2   5    4.33    0.49
   8   2  -5    3.38    0.70
  -8  -2   5    3.94    0.73
   7   2  -5    0.77    0.44
  -7  -2   5    0.59    0.44
   6   2  -5    4.20    0.47
  -6  -2   5    4.03    0.48
   5   2  -5   18.24    1.29
  -5  -2   5   17.17    1.31
   4   2  -5    8.26    0.66
  -4  -2   5    9.51    0.69
   2   2  -5   15.72    1.09
  -2  -2   5   15.33    1.12
   1   2  -5    9.66    0.79
  -1  -2   5   10.84    0.80
  -1  -2   5   12.98    0.80
   0   2  -5    5.92    0.43
   0  -2   5    5.13    0.43
   0  -2   5    6.43    0.44
  -1   2  -5   63.88    4.17
   1  -2   5   60.98    4.17
   1  -2   5   68.45    4.18
  -2   2  -5    2.44    0.23
   2  -2   5    2.31    0.25
   2  -2   5    2.16    0.25
  -3   2  -5  175.14   10.93
   3  -2   5  179.21   10.94
   3  -2   5  155.38   10.95
  -4   2  -5  578.08   38.15
   4  -2   5  589.55   38.20
   4  -2   5  610.97   38.09
  -5   2  -5   61.94    3.95
   5  -2   5   59.57    3.96
  -6   2  -5   17.86    1.14
  -6   2  -5   19.42    1.27
  -7   2  -5   93.71    5.34
  -7   2  -5   92.93    6.02
   7  -2   5   91.55    6.03
  -8   2  -5    0.25    0.12
   8  -2   5    0.33    0.15
  10  -2   5   73.37    4.88
  10   1  -5   17.77    1.34
 -10  -1   5   18.24    1.35
   9   1  -5   15.10    1.16
  -9  -1   5   16.01    1.17
   8   1  -5    1.12    0.24
  -8  -1   5    1.48    0.27
   7   1  -5    3.11    0.35
  -7  -1   5    2.87    0.48
   6   1  -5   24.63    1.67
  -6  -1   5   20.77    1.66
   5   1  -5    1.02    0.37
  -5  -1   5    0.64    0.35
   4   1  -5   18.78    1.56
  -4  -1   5   24.66    1.57
   3   1  -5    5.52    0.44
  -3  -1   5    4.94    0.45
   2   1  -5   10.45    0.73
  -2  -1   5    9.07    0.75
   1   1  -5   58.87    3.83
  -1  -1   5   57.73    3.84
   0   1  -5    6.97    0.51
   0  -1   5    6.27    0.50
  -1   1  -5    0.45    0.15
   1  -1   5    0.53    0.16
   1  -1   5    0.32    0.18
  -2   1  -5   80.14    5.74
   2  -1   5   96.32    5.75
   2  -1   5   89.91    5.75
  -3   1  -5   18.14    1.23
   3  -1   5   18.74    1.24
  -4   1  -5   70.56    4.43
   4  -1   5   65.74    4.44
  -5   1  -5    3.75    0.35
   5  -1   5    3.27    0.31
  -6   1  -5    5.82    0.47
  -6   1  -5    6.06    0.41
  -7   1  -5   34.56    2.25
  -7   1  -5   33.32    1.99
   7  -1   5   33.54    2.26
  -8   1  -5    5.84    0.46
  -8   1  -5    5.18    0.40
   8  -1   5    4.81    0.46
   9  -1   5    1.69    0.29
  10  -1   5  125.14    8.21
  10   0  -5    8.67    0.88
 -10   0   5    9.42    0.93
   9   0  -5   20.10    1.51
  -9   0   5   21.95    1.52
   8   0  -5    4.00    0.45
  -8   0   5    3.92    0.45
   7   0  -5    3.68    0.42
  -7   0   5    3.24    0.39
   6   0  -5   57.48    3.76
  -6   0   5   56.33    3.75
   5   0  -5   36.90    2.43
  -5   0   5   35.70    2.53
   4   0  -5    4.09    0.45
  -4   0   5    4.58    0.44
   3   0  -5    1.89    0.44
  -3   0   5    1.51    0.43
   2   0  -5    0.97    0.23
  -2   0   5    0.73    0.24
   1   0  -5    1.45    0.24
  -1   0   5    2.34    0.24
   0   0  -5   44.54    2.83
   0   0   5   41.34    2.83
  -1   0  -5  164.48   11.30
   1   0   5  182.29   11.24
  -2   0  -5    1.56    0.26
   2   0   5    0.60    0.27
  -3   0  -5   50.67    3.58
   3   0   5   59.34    3.59
  -4   0  -5    8.78    0.64
   4   0   5    8.73    0.65
  -5   0  -5   23.26    1.58
   5   0   5   23.43    1.56
  -6   0  -5  122.94    8.06
  -6   0  -5  126.63    7.14
  -7   0  -5    0.78    0.24
  -7   0  -5    0.25    0.12
   7   0   5   -0.03    0.10
  -8   0  -5    1.27    0.22
  -8   0  -5    1.62    0.18
   8   0   5    1.32    0.22
  -9   0  -5   67.57    4.33
  -9   0  -5   64.96    3.82
   9   0   5   65.29    4.34
 -10   0  -5    0.26    0.14
  10   0   5    0.42    0.21
  11   0   5   10.77    1.08
  10  -1  -5    1.88    0.54
   9  -1  -5    4.16    0.59
  -9   1   5    3.36    0.60
   8  -1  -5    3.28    0.41
  -8   1   5    2.87    0.37
   7  -1  -5    0.04    0.16
  -7   1   5    0.07    0.15
   6  -1  -5   13.97    0.98
  -6   1   5   12.47    0.95
   5  -1  -5    7.22    0.88
  -5   1   5    7.95    0.85
   4  -1  -5   12.82    0.95
  -4   1   5   14.09    1.01
   3  -1  -5   21.92    1.52
  -3   1   5   22.19    1.51
   2  -1  -5    8.25    0.76
  -2   1   5    8.59    0.74
   1  -1  -5    5.35    0.42
  -1   1   5    5.67    0.42
   0  -1  -5   74.76    5.40
   0   1   5   91.28    5.40
  -1  -1  -5  416.20   25.58
   1   1   5  372.48   25.52
  -3  -1  -5    4.43    0.35
   3   1   5    4.28    0.36
  -4  -1  -5  164.42   10.53
   4   1   5  168.75   10.49
   4   1   5  157.21   10.53
  -5  -1  -5   12.46    0.83
   5   1   5   10.13    0.84
  -6  -1  -5    6.94    0.45
  -6  -1  -5    6.64    0.54
  -7  -1  -5  194.58   12.43
   7   1   5  190.83   12.43
  -8  -1  -5  180.97   11.77
   8   1   5  183.78   11.78
  -9  -1  -5    1.35    0.23
  -9  -1  -5    1.50    0.18
   9   1   5    0.97    0.21
 -10  -1  -5    0.29    0.19
  10   1   5    0.17    0.18
 -11  -1  -5    2.38    0.36
  11   1   5    2.26    0.53
   9  -2  -5    0.59    0.66
   8  -2  -5    0.13    0.42
  -8   2   5    0.66    0.21
   7  -2  -5    0.16    0.17
  -7   2   5    0.34    0.17
   6  -2  -5    4.86    0.47
  -6   2   5    4.83    0.45
   5  -2  -5    9.55    0.72
  -5   2   5    9.26    0.78
   4  -2  -5   21.48    1.42
  -4   2   5   19.85    1.41
   3  -2  -5    0.32    0.13
  -3   2   5    0.09    0.29
   2  -2  -5    1.52    0.30
  -2   2   5    1.67    0.26
   1  -2  -5   53.45    3.57
  -1   2   5   55.34    3.56
   0  -2  -5   25.02    1.62
   0   2   5   24.03    1.62
  -1  -2  -5   19.06    1.28
   1   2   5   18.02    1.27
  -2  -2  -5    1.60    0.19
   2   2   5    1.55    0.19
  -3  -2  -5    7.83    0.55
   3   2   5    7.10    0.55
  -4  -2  -5    1.92    0.23
   4   2   5    2.11    0.24
   4   2   5    2.02    0.20
  -5  -2  -5    0.18    0.22
  -5  -2  -5    0.36    0.14
   5   2   5    0.24    0.23
  -6  -2  -5   11.20    0.65
  -6  -2  -5   10.22    0.78
  -7  -2  -5  214.94   13.87
  -8  -2  -5  308.88   19.88
  -9  -2  -5   18.22    1.27
   9   2   5   17.62    1.27
 -10  -2  -5   17.53    1.28
  10   2   5   18.01    1.29
 -11  -2  -5   71.35    4.71
  11   2   5   70.97    4.71
   9  -3  -5    2.08    0.88
   8  -3  -5    0.34    0.48
   7  -3  -5    7.76    0.74
   6  -3  -5   39.51    2.71
  -6   3   5   41.29    2.70
   5  -3  -5   24.42    1.67
  -5   3   5   24.37    1.66
   4  -3  -5    1.78    0.24
  -4   3   5    1.46    0.21
   3  -3  -5   16.26    1.16
  -3   3   5   17.26    1.15
   2  -3  -5   62.12    4.04
  -2   3   5   61.99    4.08
   1  -3  -5    0.49    0.31
   1  -3  -5    0.92    0.28
  -1   3   5    1.37    0.26
   0  -3  -5   33.29    2.40
   0  -3  -5   40.53    2.40
   0   3   5   35.44    2.39
  -1  -3  -5    1.23    0.20
  -1  -3  -5    1.33    0.19
   1   3   5    1.02    0.18
  -2  -3  -5    1.92    0.22
  -2  -3  -5    1.99    0.23
  -3  -3  -5   71.73    4.94
   3   3   5   79.38    4.94
  -4  -3  -5    0.46    0.17
   4   3   5    0.44    0.18
   4   3   5    0.80    0.15
  -5  -3  -5    3.41    0.37
  -5  -3  -5    2.79    0.23
   5   3   5    2.41    0.39
   5   3   5    3.07    0.34
  -6  -3  -5   83.87    5.45
  -7  -3  -5   13.23    0.95
  -8  -3  -5   16.38    1.18
  -9  -3  -5   24.13    1.72
   9   3   5   25.55    1.73
 -10  -3  -5    7.55    0.73
  10   3   5    8.09    0.74
 -11  -3  -5   10.72    0.85
  11   3   5   10.00    0.84
   8  -4  -5    0.24    0.47
   7  -4  -5    0.15    0.48
   6  -4  -5   14.44    1.11
   5  -4  -5   19.20    1.26
  -5   4   5   16.45    1.22
   4  -4  -5    1.06    0.20
  -4   4   5    1.00    0.17
   3  -4  -5   12.07    0.85
   3  -4  -5   11.34    0.83
  -3   4   5   10.70    0.79
   2  -4  -5   97.29    6.18
   2  -4  -5   90.09    6.34
  -2   4   5   98.16    6.28
   1  -4  -5   19.25    1.42
   1  -4  -5   19.35    1.42
  -1   4   5   21.40    1.38
   0  -4  -5    6.33    0.51
   0  -4  -5    6.47    0.51
   0   4   5    6.86    0.50
  -1  -4  -5   12.22    0.97
  -1  -4  -5   10.67    0.96
   1   4   5   10.52    0.92
  -2  -4  -5    0.78    0.16
  -2  -4  -5    0.77    0.17
   2   4   5    0.50    0.15
  -3  -4  -5    3.03    0.29
  -3  -4  -5    3.07    0.28
   3   4   5    3.66    0.29
  -4  -4  -5  101.50    6.41
   4   4   5   95.61    6.42
  -5  -4  -5  189.90   12.82
   5   4   5  207.41   12.79
  -6  -4  -5    0.89    0.27
  -7  -4  -5    1.13    0.32
  -8  -4  -5   17.00    1.22
  -9  -4  -5   21.16    1.60
   9   4   5   24.01    1.61
 -10  -4  -5   19.29    1.40
  10   4   5   18.68    1.39
 -11  -4  -5   16.54    1.28
  11   4   5   16.85    1.28
   8  -5  -5    5.63    0.64
   7  -5  -5    0.16    0.50
   6  -5  -5    1.02    0.42
   5  -5  -5    1.30    0.23
   4  -5  -5    1.68    0.25
  -4   5   5    1.75    0.21
   3  -5  -5    0.43    0.14
   3  -5  -5    0.19    0.14
  -3   5   5    0.40    0.11
   2  -5  -5    2.88    0.28
   2  -5  -5    2.72    0.26
  -2   5   5    2.43    0.23
   1  -5  -5    0.95    0.25
   1  -5  -5    0.88    0.27
  -1   5   5    0.87    0.11
   0  -5  -5   15.47    1.03
   0  -5  -5   14.10    1.03
   0   5   5   14.83    1.01
  -1  -5  -5   15.39    1.05
  -1  -5  -5   15.34    1.05
   1   5   5   15.61    1.04
  -2  -5  -5    5.57    0.41
  -2  -5  -5    5.54    0.35
  -2  -5  -5    5.04    0.42
   2   5   5    5.68    0.41
  -3  -5  -5   21.55    1.29
  -3  -5  -5   22.46    1.48
  -3  -5  -5   21.80    1.49
   3   5   5   23.53    1.48
  -4  -5  -5  110.66    6.95
  -4  -5  -5  103.19    6.95
  -5  -5  -5  220.33   14.03
   5   5   5  216.87   14.00
   5   5   5  213.65   14.02
  -6  -5  -5    8.17    0.74
   6   5   5   10.73    0.73
  -7  -5  -5    3.84    0.40
  -8  -5  -5   88.69    5.85
   8   5   5   90.72    5.85
  -9  -5  -5    2.46    0.39
   9   5   5    2.06    0.37
 -10  -5  -5    2.29    0.47
  10   5   5    2.61    0.46
 -11  -5  -5  163.99   10.67
   7  -6  -5    3.32    0.52
   6  -6  -5    0.59    0.56
   5  -6  -5    1.02    0.60
   4  -6  -5    1.11    0.22
   3  -6  -5    9.68    0.73
   2  -6  -5    3.68    0.35
   2  -6  -5    4.14    0.35
  -2   6   5    3.78    0.30
   1  -6  -5    2.54    0.23
   1  -6  -5    2.27    0.24
  -1   6   5    2.19    0.20
   0  -6  -5   19.49    1.20
   0  -6  -5   20.62    1.34
   0  -6  -5   21.14    1.35
   0   6   5   19.62    1.33
  -1  -6  -5    0.21    0.19
  -1  -6  -5    0.15    0.21
  -1  -6  -5    0.21    0.20
   1   6   5    0.15    0.18
  -2  -6  -5    0.18    0.23
  -2  -6  -5    0.24    0.22
   2   6   5    0.31    0.19
  -3  -6  -5   22.53    1.64
  -3  -6  -5   25.06    1.64
  -4  -6  -5    9.64    0.71
  -4  -6  -5   10.26    0.71
  -5  -6  -5    5.61    0.47
  -5  -6  -5    5.71    0.47
   5   6   5    4.96    0.49
  -6  -6  -5   15.27    1.12
   6   6   5   14.22    1.12
   6   6   5   15.98    1.11
  -7  -6  -5   12.11    0.88
   7   6   5   11.50    0.89
   7   6   5   11.66    0.88
  -8  -6  -5    0.45    0.25
   8   6   5    0.72    0.23
   8   6   5    0.50    0.23
  -9  -6  -5   12.81    0.98
 -10  -6  -5   16.96    1.25
 -11  -6  -5   65.93    4.43
   6  -7  -5    3.45    0.64
   5  -7  -5    4.97    0.92
   4  -7  -5    0.41    0.42
   3  -7  -5    3.92    0.39
   2  -7  -5   16.55    1.15
   1  -7  -5   21.74    1.48
   1  -7  -5   22.66    1.49
   0  -7  -5    3.49    0.28
   0  -7  -5    2.81    0.28
  -1  -7  -5   34.09    2.27
  -1  -7  -5   32.10    2.15
  -2  -7  -5  117.94    7.80
  -2  -7  -5  123.11    7.81
  -3  -7  -5    0.23    0.25
  -3  -7  -5    0.11    0.26
  -4  -7  -5   10.83    0.76
  -4  -7  -5   10.67    0.77
   4   7   5   10.96    0.81
  -5  -7  -5    3.11    0.33
   5   7   5    3.35    0.37
  -6  -7  -5    3.26    0.40
   6   7   5    3.76    0.41
  -7  -7  -5   13.06    1.01
   7   7   5   13.41    1.03
  -8  -7  -5    4.04    0.47
   8   7   5    5.03    0.49
  -9  -7  -5    2.18    0.46
   9   7   5    2.58    0.45
 -10  -7  -5   44.10    2.99
 -11  -7  -5    0.23    0.41
   5  -8  -5    1.70    0.48
   4  -8  -5    1.09    0.41
   3  -8  -5    0.48    0.42
   2  -8  -5   19.34    1.32
   1  -8  -5   15.57    1.06
   0  -8  -5    1.06    0.16
   0  -8  -5    1.10    0.15
  -1  -8  -5   22.36    1.48
  -1  -8  -5   22.29    1.48
  -2  -8  -5   68.37    4.37
  -2  -8  -5   66.55    4.37
  -3  -8  -5    2.82    0.36
  -4  -8  -5    1.75    0.34
   4   8   5    1.55    0.43
  -5  -8  -5   13.29    1.08
   5   8   5   13.35    1.16
  -6  -8  -5    0.55    0.22
   6   8   5    0.43    0.25
  -7  -8  -5    1.03    0.28
   7   8   5    1.26    0.30
  -8  -8  -5   85.79    5.96
   8   8   5   95.02    5.98
  -9  -8  -5   78.61    4.76
   9   8   5   64.45    4.78
 -10  -8  -5    1.86    0.38
   4  -9  -5    4.26    0.51
   3  -9  -5    0.82    0.37
   2  -9  -5    0.08    0.28
   1  -9  -5    0.02    0.10
  -1  -9  -5    0.04    0.08
  -2  -9  -5    0.99    0.14
  -3  -9  -5    0.40    0.34
  -4  -9  -5   16.04    1.09
   4   9   5   14.25    1.17
  -5  -9  -5    2.37    0.32
   5   9   5    2.28    0.38
  -6  -9  -5   12.72    0.95
   6   9   5   13.51    1.01
  -7  -9  -5   18.08    1.27
  -8  -9  -5   33.50    2.59
   8   9   5   42.49    2.62
  -9  -9  -5   53.20    3.73
   9   9   5   56.71    3.78
 -10  -9  -5    1.08    0.32
   3 -10  -5    2.16    0.39
   2 -10  -5    1.11    0.46
   1 -10  -5    3.71    0.46
   0 -10  -5    0.33    0.11
  -1 -10  -5   10.45    0.72
  -2 -10  -5    4.95    0.38
  -3 -10  -5    3.08    0.28
   3  10   5    2.77    0.35
  -4 -10  -5    3.90    0.44
   4  10   5    3.37    0.56
  -5 -10  -5    2.72    0.34
   5  10   5    2.23    0.43
  -6 -10  -5    0.57    0.37
   6  10   5    0.28    0.46
  -7 -10  -5   21.57    1.55
  -8 -10  -5    0.17    0.26
  -9 -10  -5    2.15    0.36
   9  10   5    2.63    0.40
   1 -11  -5    5.83    0.58
   0 -11  -5    0.61    0.23
  -1 -11  -5    7.13    0.55
  -2 -11  -5    9.12    0.64
  -3 -11  -5    5.64    0.44
   3  11   5    6.11    0.54
  -4 -11  -5    0.50    0.35
   4  11   5    0.25    0.17
  -5 -11  -5   28.46    2.03
   5  11   5   27.96    2.21
  -6 -11  -5   45.57    3.05
   6  11   5   45.66    3.14
  -7 -11  -5    1.24    0.32
   3  12   5    7.83    0.67
   4  12   5    1.69    0.29
  -5  -9   6    0.23    0.36
  -4  -9   6   60.70    4.06
  -3  -9   6  119.30    7.75
  -2  -9   6    8.49    0.63
  -1  -9   6    9.44    0.68
   0  -9   6   20.18    1.36
   1  -9   6    1.28    0.19
   2  -9   6   11.90    0.84
  -6  -8   6    1.04    0.35
  -5  -8   6   47.16    3.19
  -4  -8   6    5.91    0.55
  -3  -8   6    6.57    0.58
  -2  -8   6   18.53    1.30
  -1  -8   6    2.73    0.27
   0  -8   6    9.90    0.70
   1  -8   6    0.09    0.11
   2  -8   6    0.55    0.16
   3  -8   6   54.12    3.65
  -4   8  -6   23.07    1.61
  -8  -7   6   10.02    0.82
  -7  -7   6   90.92    6.09
  -6  -7   6   69.29    4.71
  -5  -7   6    1.24    0.42
  -4  -7   6    0.67    0.30
  -3  -7   6    5.26    0.48
  -2  -7   6   23.46    1.64
  -1  -7   6    7.18    0.59
   0  -7   6   32.88    2.17
   1  -7   6    0.45    0.13
   2  -7   6   28.07    1.86
   3  -7   6    0.08    0.33
   4  -7   6    0.87    0.31
  -5   7  -6    3.32    0.48
  -8  -6   6    1.89    0.40
  -7  -6   6   59.17    4.02
  -6  -6   6  134.02    8.83
  -5  -6   6    7.10    0.66
  -4  -6   6   10.12    0.85
  -3  -6   6  101.18    6.60
  -2  -6   6    8.96    0.69
  -1  -6   6   30.45    2.07
   0  -6   6  282.34   18.18
   1  -6   6   87.41    5.66
   2  -6   6    2.37    0.25
   3  -6   6    0.79    0.15
   4  -6   6    0.24    0.34
  -5   6  -6    9.56    0.85
  -6   6  -6    1.85    0.38
  -7   6  -6    7.27    0.68
   7  -6   6    8.67    0.68
  -9  -5   6    5.15    0.60
  -8  -5   6   48.99    3.36
  -7  -5   6   17.81    1.31
  -6  -5   6    6.49    0.63
  -5  -5   6   20.83    1.55
  -4  -5   6   20.34    1.49
  -3  -5   6    4.44    0.51
  -2  -5   6    0.71    0.23
  -1  -5   6    3.27    0.38
  -1  -5   6    3.55    0.39
  -1  -5   6    2.96    0.38
   0  -5   6  113.22    8.15
   0  -5   6  137.14    8.14
   1  -5   6   85.91    5.59
   2  -5   6    1.07    0.17
   3  -5   6   32.52    2.15
   4  -5   6   32.53    2.16
   5  -5   6    0.30    0.31
  -6   5  -6   20.02    1.42
  -7   5  -6   77.04    4.58
  -8   5  -6   15.19    1.01
   8  -5   6   14.14    1.08
  -9  -4   6  146.42    9.58
  -8  -4   6    0.42    0.43
  -7  -4   6    0.09    0.32
   6   4  -6   25.29    1.89
  -6  -4   6   30.04    1.92
   5   4  -6   11.26    0.83
  -5  -4   6    9.71    0.90
   4   4  -6   20.59    1.38
  -4  -4   6   17.80    1.41
   3   4  -6   92.22    6.00
   2   4  -6    1.33    0.28
  -2  -4   6    1.84    0.34
  -2  -4   6    1.03    0.32
   1   4  -6  141.32    8.95
  -1  -4   6  133.80    8.97
  -1  -4   6  141.11    8.97
   0   4  -6    8.44    0.60
   0  -4   6    8.68    0.62
   0  -4   6    8.17    0.62
   0  -4   6    8.89    0.61
  -1   4  -6    0.35    0.09
   1  -4   6    0.42    0.24
   1  -4   6    0.76    0.24
  -2   4  -6   62.88    3.95
   2  -4   6   61.06    4.00
   2  -4   6   58.58    3.99
  -3   4  -6    0.31    0.09
   3  -4   6    0.18    0.10
   3  -4   6    0.24    0.10
   4  -4   6    2.63    0.28
   5  -4   6   18.56    1.27
  -6   4  -6    0.94    0.18
  -7   4  -6   58.69    3.55
  -8   4  -6    8.52    0.77
  -9  -3   6  110.74    7.33
   8   3  -6    6.98    0.68
  -8  -3   6    5.95    0.70
   7   3  -6    0.08    0.38
  -7  -3   6   -0.02    0.39
   6   3  -6   91.03    6.03
  -6  -3   6   92.27    6.04
   5   3  -6   22.17    1.60
  -5  -3   6   24.57    1.63
   4   3  -6   47.75    3.04
  -4  -3   6   42.47    3.09
   3   3  -6  361.78   22.49
  -3  -3   6  326.47   22.15
   2   3  -6  242.83   14.88
  -2  -3   6  219.18   14.90
   1   3  -6    0.32    0.22
  -1  -3   6    0.45    0.25
  -1  -3   6    0.62    0.25
   0   3  -6   24.30    1.58
   0  -3   6   26.84    1.60
   0  -3   6   19.67    1.59
  -1   3  -6   34.45    2.34
   1  -3   6   30.93    2.35
   1  -3   6   38.51    2.32
   1  -3   6   39.05    2.36
  -2   3  -6   18.10    1.42
   2  -3   6   22.06    1.47
   2  -3   6   21.76    1.45
  -3   3  -6    4.05    0.32
   3  -3   6    3.95    0.33
   3  -3   6    3.55    0.40
  -4   3  -6   53.60    3.44
   4  -3   6   52.20    3.46
  -5   3  -6    2.68    0.27
   5  -3   6    2.84    0.29
  -6   3  -6   10.30    0.66
   6  -3   6    9.51    0.73
  -7   3  -6    0.08    0.12
   7  -3   6    0.06    0.13
  -8   3  -6    6.99    0.60
   9   2  -6    4.20    0.63
  -9  -2   6    3.42    0.63
   8   2  -6   22.80    1.61
  -8  -2   6   20.52    1.61
   7   2  -6   66.60    4.26
  -7  -2   6   61.37    4.25
   6   2  -6    1.80    0.43
  -6  -2   6    1.78    0.44
   5   2  -6    0.50    0.27
  -5  -2   6    0.69    0.30
   4   2  -6   16.97    1.23
  -4  -2   6   18.62    1.26
   3   2  -6  127.36    8.25
   2   2  -6  132.23    8.42
  -2  -2   6  126.93    8.45
   1   2  -6    2.26    0.22
  -1  -2   6    1.57    0.24
  -1   2  -6  151.47   10.06
   1  -2   6  148.55   10.07
   1  -2   6  168.03   10.08
  -2   2  -6    1.10    0.19
   2  -2   6    1.70    0.14
   2  -2   6    1.48    0.22
   2  -2   6    1.04    0.22
  -3   2  -6   68.64    5.23
   3  -2   6   90.76    5.24
  -4   2  -6  506.11   32.73
   4  -2   6  514.06   32.88
  -5   2  -6  111.79    6.94
   5  -2   6  102.77    6.96
  -6   2  -6    2.81    0.28
  -6   2  -6    2.52    0.28
   6  -2   6    2.38    0.28
  -7   2  -6   14.24    0.88
   7  -2   6   13.34    0.99
  -8   2  -6    1.18    0.19
   8  -2   6    1.36    0.23
  10  -2   6   12.16    1.05
   9   1  -6   20.37    1.44
  -9  -1   6   19.24    1.43
   8   1  -6    0.62    0.46
  -8  -1   6    0.36    0.47
   7   1  -6    8.79    0.82
  -7  -1   6    8.92    0.80
   6   1  -6   74.41    4.90
  -6  -1   6   73.82    4.89
   5   1  -6   15.27    1.10
  -5  -1   6   14.55    1.10
   4   1  -6  102.59    7.17
  -4  -1   6  117.55    7.19
   3   1  -6   13.39    0.89
  -3  -1   6   11.38    0.90
   2   1  -6    0.45    0.17
  -2  -1   6    0.73    0.20
   1   1  -6   93.91    6.23
  -1  -1   6   96.84    6.24
   0   1  -6   21.49    1.65
   0  -1   6   27.41    1.64
  -1   1  -6    5.72    0.46
   1  -1   6    6.41    0.46
  -2   1  -6   49.84    3.24
   2  -1   6   48.82    3.25
  -3   1  -6   10.81    0.80
   3  -1   6   10.55    0.82
  -4   1  -6  145.98    8.49
   4  -1   6  115.09    8.50
  -5   1  -6   27.33    1.83
   5  -1   6   26.87    1.84
  -6   1  -6    3.38    0.30
  -6   1  -6    2.21    0.34
   6  -1   6    3.15    0.31
  -7   1  -6   23.01    1.35
  -7   1  -6   22.81    1.52
   7  -1   6   21.03    1.53
  -8   1  -6    5.54    0.43
  -8   1  -6    5.95    0.49
   8  -1   6    5.73    0.50
   9  -1   6    0.84    0.22
   9   0  -6   22.10    1.53
  -9   0   6   20.09    1.50
   8   0  -6   11.10    0.89
  -8   0   6   11.39    0.88
   7   0  -6   16.41    1.16
  -7   0   6   15.35    1.15
   6   0  -6  362.98   22.94
  -6   0   6  348.04   22.92
   5   0  -6  344.30   22.07
  -5   0   6  340.87   22.07
   4   0  -6    0.14    0.34
  -4   0   6    0.17    0.35
   3   0  -6   33.29    2.25
  -3   0   6   33.47    2.24
   2   0  -6  160.53   10.23
  -2   0   6  156.62   10.24
   1   0  -6    5.49    0.50
  -1   0   6    5.20    0.51
   0   0  -6    5.87    0.45
   0   0   6    5.00    0.45
  -1   0  -6  184.29   12.30
   1   0   6  194.85   12.24
  -2   0  -6    1.71    0.36
   2   0   6    1.16    0.37
  -3   0  -6   69.30    4.47
   3   0   6   67.68    4.47
  -4   0  -6    0.16    0.19
   4   0   6    0.27    0.22
  -5   0  -6   23.93    1.60
   5   0   6   21.56    1.60
  -6   0  -6   86.38    5.57
  -6   0  -6   84.55    4.95
   6   0   6   86.25    5.57
  -7   0  -6    3.31    0.37
  -7   0  -6    3.89    0.45
   7   0   6    3.67    0.35
  -8   0  -6    0.19    0.14
  -8   0  -6    0.09    0.09
   8   0   6    0.01    0.12
  -9   0  -6   23.35    1.37
  -9   0  -6   22.12    1.57
   9   0   6   22.42    1.58
 -10   0  -6    0.33    0.14
  10   0   6    0.51    0.20
  11   0   6   16.80    1.49
   9  -1  -6    0.98    0.27
   8  -1  -6    0.70    0.23
  -8   1   6    0.62    0.23
   7  -1  -6   20.47    1.46
  -7   1   6   20.57    1.45
   6  -1  -6   20.40    1.41
  -6   1   6   19.30    1.59
   5  -1  -6  100.70    6.57
  -5   1   6  100.94    6.56
   4  -1  -6    6.36    0.57
  -4   1   6    5.67    0.55
   3  -1  -6    2.45    0.50
  -3   1   6    3.11    0.48
   2  -1  -6  122.15    7.41
  -2   1   6  105.82    7.41
   1  -1  -6    2.41    0.27
  -1   1   6    1.66    0.27
   0  -1  -6  103.82    6.77
   0   1   6  104.44    6.76
  -1  -1  -6  770.20   46.43
   1   1   6  663.40   46.50
  -2  -1  -6  243.37   17.74
   2   1   6  302.24   17.62
  -3  -1  -6    4.86    0.36
   3   1   6    3.31    0.36
  -4  -1  -6   98.84    6.07
   4   1   6   87.20    6.07
  -5  -1  -6   25.81    1.72
   5   1   6   25.43    1.72
  -6  -1  -6    0.60    0.22
  -6  -1  -6    0.83    0.29
   6   1   6    0.44    0.31
  -7  -1  -6   60.02    3.64
  -7  -1  -6   64.71    4.10
   7   1   6   63.18    4.11
  -8  -1  -6   81.69    5.15
   8   1   6   75.75    5.14
  -9  -1  -6    1.76    0.20
  -9  -1  -6    1.64    0.25
   9   1   6    1.70    0.27
 -10  -1  -6    0.21    0.12
 -10  -1  -6    0.69    0.21
  10   1   6    0.43    0.19
  11   1   6   -0.07    0.45
   9  -2  -6   26.96    2.02
   8  -2  -6   13.47    1.03
   7  -2  -6   55.90    3.75
  -7   2   6   57.05    3.74
   6  -2  -6    4.45    0.47
  -6   2   6    5.29    0.48
   5  -2  -6    2.98    0.37
  -5   2   6    3.32    0.35
   4  -2  -6   62.48    3.90
  -4   2   6   56.29    3.88
   3  -2  -6   58.56    4.06
  -3   2   6   65.91    4.08
   2  -2  -6    0.30    0.27
  -2   2   6    0.16    0.22
   1  -2  -6   68.25    4.29
  -1   2   6   63.35    4.28
   0  -2  -6   45.79    2.91
   0   2   6   43.08    2.91
  -1  -2  -6  172.35   10.35
   1   2   6  147.78   10.35
  -2  -2  -6   29.36    1.85
   2   2   6   25.50    1.85
  -3  -2  -6   28.92    1.92
   3   2   6   28.01    1.92
  -4  -2  -6   29.11    1.71
   4   2   6   19.05    1.71
  -5  -2  -6   73.56    4.75
   5   2   6   69.08    4.75
   5   2   6   75.33    4.70
  -6  -2  -6    3.89    0.38
  -6  -2  -6    3.97    0.29
   6   2   6    3.40    0.40
  -7  -2  -6   86.54    5.39
  -7  -2  -6  100.68    6.15
  -8  -2  -6  326.60   21.06
  -9  -2  -6   36.73    2.10
  -9  -2  -6   34.52    2.41
   9   2   6   36.29    2.42
 -10  -2  -6   13.78    1.02
  10   2   6   13.31    1.02
 -11  -2  -6   15.46    1.16
  11   2   6   15.41    1.16
   8  -3  -6   85.86    5.72
   7  -3  -6    0.02    0.43
   6  -3  -6    2.96    0.36
  -6   3   6    2.89    0.35
   5  -3  -6   83.63    5.25
  -5   3   6   76.71    5.23
   4  -3  -6    2.67    0.32
  -4   3   6    3.01    0.31
   3  -3  -6    4.29    0.42
  -3   3   6    5.14    0.40
   2  -3  -6  259.74   16.90
  -2   3   6  265.19   16.89
   1  -3  -6   30.20    1.96
  -1   3   6   28.32    1.94
   0  -3  -6   64.19    4.17
   0   3   6   63.55    4.17
  -1  -3  -6    3.32    0.31
   1   3   6    3.33    0.30
  -2  -3  -6   12.38    0.89
   2   3   6   12.02    0.88
  -3  -3  -6  119.61    7.87
   3   3   6  122.20    7.86
  -4  -3  -6    1.68    0.23
   4   3   6    1.87    0.24
  -5  -3  -6    2.05    0.26
   5   3   6    1.85    0.24
   5   3   6    1.67    0.27
  -6  -3  -6   99.04    7.06
  -6  -3  -6  116.97    6.20
  -7  -3  -6    4.11    0.55
  -8  -3  -6   33.46    2.34
  -9  -3  -6    0.49    0.38
 -10  -3  -6    0.39    0.45
  10   3   6    0.75    0.21
 -11  -3  -6    5.40    0.55
  11   3   6    5.86    0.56
   8  -4  -6   18.75    1.49
   7  -4  -6    4.63    0.67
   6  -4  -6    7.40    0.64
   5  -4  -6   28.81    1.80
  -5   4   6   23.66    1.76
   4  -4  -6    0.47    0.17
  -4   4   6    0.29    0.13
   3  -4  -6   11.91    0.92
  -3   4   6   13.66    0.90
   2  -4  -6  513.41   33.99
  -2   4   6  543.81   33.96
   1  -4  -6  326.17   20.76
  -1   4   6  319.32   20.74
   0  -4  -6    1.53    0.24
   0   4   6    1.73    0.21
  -1  -4  -6  119.56    7.70
   1   4   6  118.59    7.69
  -2  -4  -6  128.17    8.38
   2   4   6  131.53    8.37
  -3  -4  -6    1.33    0.20
   3   4   6    0.99    0.19
  -4  -4  -6  131.66    8.24
   4   4   6  121.87    8.23
  -5  -4  -6  270.51   15.72
   5   4   6  244.81   15.67
   5   4   6  215.59   15.72
  -6  -4  -6    2.05    0.45
   6   4   6    1.30    0.37
  -7  -4  -6    3.99    0.43
  -8  -4  -6   18.68    1.33
  -9  -4  -6   12.04    1.08
 -10  -4  -6   30.92    2.18
  10   4   6   31.08    2.18
 -11  -4  -6    1.70    0.51
  11   4   6    2.10    0.50
   7  -5  -6    8.35    0.99
   6  -5  -6   20.00    1.51
   5  -5  -6    0.38    0.40
   4  -5  -6   29.13    1.98
   3  -5  -6   35.23    2.63
  -3   5   6   44.05    2.62
   2  -5  -6   35.25    2.38
   2  -5  -6   37.19    2.38
  -2   5   6   35.39    2.36
   1  -5  -6   21.05    1.40
   1  -5  -6   21.44    1.45
  -1   5   6   19.96    1.38
   0  -5  -6   63.61    3.92
   0  -5  -6   58.02    3.91
   0   5   6   58.62    3.90
  -1  -5  -6    0.15    0.31
  -1  -5  -6    0.39    0.31
   1   5   6    0.12    0.26
  -2  -5  -6   63.83    4.14
  -2  -5  -6   64.90    4.13
   2   5   6   61.18    4.12
  -3  -5  -6    3.53    0.31
  -3  -5  -6    3.03    0.31
   3   5   6    3.35    0.30
  -4  -5  -6  109.76    6.28
   4   5   6  107.27    7.07
  -5  -5  -6  331.87   23.37
   5   5   6  390.55   23.29
  -6  -5  -6   56.89    3.99
   6   5   6   63.28    3.97
  -7  -5  -6   19.53    1.47
   7   5   6   20.39    1.43
  -8  -5  -6   93.26    6.12
  -9  -5  -6    3.37    0.45
   9   5   6    3.06    0.42
 -10  -5  -6    0.36    0.39
  10   5   6    0.59    0.38
 -11  -5  -6  104.38    6.89
   7  -6  -6    0.90    0.45
   6  -6  -6    1.81    0.63
   5  -6  -6   67.46    4.55
   4  -6  -6   20.74    1.48
   3  -6  -6   14.47    1.04
   2  -6  -6    2.22    0.26
   1  -6  -6    0.97    0.16
   1  -6  -6    0.86    0.16
  -1   6   6    0.94    0.12
   0  -6  -6   89.19    5.92
   0  -6  -6   95.80    5.92
   0   6   6   89.67    5.90
  -1  -6  -6    6.34    0.43
  -1  -6  -6    6.29    0.49
  -1  -6  -6    6.68    0.49
   1   6   6    6.11    0.45
  -2  -6  -6    0.63    0.23
  -2  -6  -6    1.10    0.16
  -2  -6  -6    1.03    0.22
   2   6   6    0.98    0.20
  -3  -6  -6  136.65    9.23
  -3  -6  -6  150.51    9.24
  -3  -6  -6  142.86    8.15
   3   6   6  141.67    9.22
  -4  -6  -6   41.63    2.68
  -4  -6  -6   37.46    2.68
   4   6   6   43.37    2.68
  -5  -6  -6   36.85    2.57
   5   6   6   39.29    2.58
  -6  -6  -6    0.15    0.17
   6   6   6    0.09    0.09
   6   6   6    0.25    0.18
   7   6   6   25.61    1.83
   7   6   6   27.72    1.83
  -8  -6  -6    3.25    0.53
   8   6   6    3.87    0.51
  -9  -6  -6    0.09    0.31
 -10  -6  -6    3.91    0.52
 -11  -6  -6   64.10    4.43
   6  -7  -6    2.24    0.66
   5  -7  -6  102.58    6.80
   4  -7  -6   73.54    4.87
   3  -7  -6    0.11    0.15
   2  -7  -6   11.39    0.83
   1  -7  -6   82.32    5.34
   0  -7  -6    5.92    0.44
   0  -7  -6    5.15    0.43
  -1  -7  -6   85.42    4.59
  -1  -7  -6   74.36    5.17
  -2  -7  -6  277.05   18.06
  -2  -7  -6  274.38   18.07
   2   7   6  291.36   18.04
  -3  -7  -6   29.52    1.96
  -4  -7  -6    3.02    0.33
  -5  -7  -6   52.13    3.61
   5   7   6   58.05    3.62
  -6  -7  -6    6.90    0.60
   6   7   6    5.75    0.62
  -7  -7  -6   40.08    2.79
   7   7   6   42.04    2.80
  -8  -7  -6    3.28    0.37
   8   7   6    2.77    0.38
  -9  -7  -6    1.04    0.39
   9   7   6    0.67    0.36
 -10  -7  -6   39.57    2.73
 -11  -7  -6    1.75    0.50
   5  -8  -6    3.04    0.58
   4  -8  -6    3.40    0.50
   3  -8  -6   22.64    1.64
   2  -8  -6    5.94    0.49
   1  -8  -6    6.53    0.50
   0  -8  -6    5.39    0.42
  -1  -8  -6   11.11    0.78
  -2  -8  -6  337.95   21.74
  -3  -8  -6   85.07    5.52
  -4  -8  -6    4.42    0.48
  -5  -8  -6  103.92    6.68
   5   8   6  101.37    6.69
  -6  -8  -6   25.62    1.80
   6   8   6   27.74    1.83
  -7  -8  -6    1.34    0.29
   7   8   6    1.91    0.31
  -8  -8  -6  124.14    8.45
   8   8   6  133.39    8.45
  -9  -8  -6  132.91    7.76
   9   8   6  103.24    7.78
 -10  -8  -6    2.71    0.45
   4  -9  -6    1.55    0.41
   3  -9  -6    9.32    0.86
   2  -9  -6    2.69    0.39
   1  -9  -6    0.72    0.16
   0  -9  -6   42.18    2.76
  -1  -9  -6   33.25    2.19
  -2  -9  -6   12.87    0.89
  -3  -9  -6    0.45    0.26
  -4  -9  -6   55.64    3.64
  -5  -9  -6    3.39    0.39
   5   9   6    3.54    0.45
  -6  -9  -6    0.49    0.26
   6   9   6    0.71    0.30
  -7  -9  -6   10.00    0.77
  -8  -9  -6   59.88    3.93
   8   9   6   56.10    3.97
  -9  -9  -6   90.78    6.26
   9   9   6   97.73    6.29
  10   9   6    5.07    0.62
   2 -10  -6   13.75    1.13
   1 -10  -6   76.96    5.04
   0 -10  -6   12.73    0.88
  -1 -10  -6    1.26    0.18
  -2 -10  -6   27.67    1.83
  -3 -10  -6    2.78    0.27
  -4 -10  -6   33.03    2.20
   4  10   6   32.32    2.21
  -5 -10  -6    1.93    0.32
   5  10   6    1.97    0.41
  -6 -10  -6    4.84    0.49
   6  10   6    5.51    0.57
  -7 -10  -6   39.41    2.67
  -8 -10  -6    5.76    0.55
  -9 -10  -6    6.75    0.54
   9  10   6    4.90    0.59
   0 -11  -6   30.41    2.03
  -1 -11  -6   -0.10    0.26
  -2 -11  -6   16.65    1.13
  -3 -11  -6   22.97    1.53
   3  11   6   22.53    1.60
  -4 -11  -6    1.65    0.22
   4  11   6    1.36    0.27
  -5 -11  -6  109.19    7.28
   5  11   6  114.84    7.33
  -6 -11  -6  187.86   12.03
   6  11   6  184.46   12.06
  -7 -11  -6    8.06    0.68
  -2  -9   7    0.00    0.13
  -1  -9   7    6.89    0.54
  -5  -8   7    0.03    0.38
  -4  -8   7    0.88    0.36
  -3  -8   7    0.26    0.38
  -2  -8   7    1.72    0.33
  -1  -8   7    1.59    0.22
   0  -8   7    0.93    0.17
   1  -8   7    1.73    0.23
   2  -8   7    0.99    0.20
   3  -8   7    0.58    0.16
  -7  -7   7   14.88    1.25
  -6  -7   7   26.43    1.96
  -5  -7   7    1.01    0.36
  -4  -7   7    6.10    0.64
  -3  -7   7    9.07    0.73
  -2  -7   7    1.33    0.41
  -1  -7   7    3.63    0.41
   0  -7   7    6.03    0.55
   1  -7   7    3.51    0.33
   2  -7   7   10.79    0.78
   3  -7   7    0.96    0.18
   4  -7   7    0.04    0.32
  -5   7  -7   12.02    0.83
  -7  -6   7   24.98    1.85
  -6  -6   7   57.79    3.97
  -5  -6   7    4.68    0.53
  -4  -6   7    3.33    0.43
  -3  -6   7    0.37    0.37
  -2  -6   7    2.39    0.33
  -1  -6   7    0.61    0.33
   0  -6   7    8.26    0.91
   1  -6   7    7.13    0.63
   2  -6   7    3.62    0.33
   3  -6   7    7.39    0.57
   4  -6   7   29.80    2.02
   5  -6   7    0.11    0.31
  -6   6  -7    6.93    0.62
  -8  -5   7    6.86    0.67
  -7  -5   7    3.12    0.44
  -6  -5   7    3.63    0.45
  -5  -5   7    0.77    0.25
  -4  -5   7    0.83    0.28
  -3  -5   7    2.83    0.42
  -2  -5   7    0.47    0.24
  -1  -5   7    0.25    0.26
   0  -5   7   22.50    1.69
   0  -5   7   21.65    1.66
   1  -5   7   27.95    1.99
   2  -5   7    1.54    0.20
   3  -5   7    9.48    0.69
   4  -5   7   65.54    4.28
   5  -5   7   20.86    1.47
  -6   5  -7    0.91    0.21
  -7   5  -7    2.57    0.54
  -8  -4   7    3.06    0.51
  -7  -4   7   15.57    1.20
  -6  -4   7    0.41    0.34
  -5  -4   7    0.49    0.27
   4   4  -7    0.15    0.15
  -4  -4   7    0.04    0.15
   3   4  -7    1.77    0.27
  -3  -4   7    2.49    0.33
   2   4  -7    2.36    0.28
  -2  -4   7    1.84    0.31
   1   4  -7    0.70    0.33
  -1  -4   7    0.74    0.38
   0   4  -7    2.07    0.28
   0  -4   7    2.22    0.34
   0  -4   7    2.05    0.31
  -1   4  -7    0.14    0.16
   1  -4   7   -0.01    0.22
  -2   4  -7    4.77    0.35
   2  -4   7    3.09    0.47
   3  -4   7    0.76    0.15
   4  -4   7    4.81    0.41
   5  -4   7    2.28    0.28
  -6   4  -7    6.76    0.50
   6  -4   7    5.88    0.53
  -7   4  -7    1.03    0.54
  -8   4  -7    0.27    0.42
  -9  -3   7  111.78    7.32
  -8  -3   7   13.74    1.10
   7   3  -7    0.99    0.45
  -7  -3   7    0.58    0.47
   6   3  -7   17.01    1.25
  -6  -3   7   17.61    1.27
   5   3  -7   11.55    0.98
  -5  -3   7   16.04    1.04
   4   3  -7    1.73    0.28
  -4  -3   7    2.26    0.34
   3   3  -7   59.76    3.65
  -3  -3   7   49.11    3.67
   2   3  -7   33.01    2.28
   1   3  -7    2.43    0.23
  -1  -3   7    1.95    0.27
   0   3  -7    7.80    0.55
   0  -3   7    7.16    0.57
  -1   3  -7   17.57    1.14
   1  -3   7   17.92    1.16
   1  -3   7   14.81    1.15
  -2   3  -7    4.61    0.48
   2  -3   7    3.18    0.51
   2  -3   7    4.92    0.54
  -3   3  -7    4.71    0.36
   3  -3   7    4.12    0.42
  -4   3  -7   15.13    0.97
   4  -3   7   12.92    0.98
   5  -3   7   15.74    1.10
   6  -3   7    8.59    0.66
  -7   3  -7    0.38    0.14
   7  -3   7    0.19    0.15
  -8   3  -7    0.11    0.34
  -9   3  -7   24.90    1.56
   9   2  -7    3.34    0.55
  -9  -2   7    3.27    0.58
   8   2  -7    1.46    0.46
  -8  -2   7    0.97    0.48
   7   2  -7   27.34    1.90
  -7  -2   7   26.87    1.90
   6   2  -7    0.05    0.36
  -6  -2   7    0.26    0.38
   5   2  -7    1.10    0.31
  -5  -2   7    0.84    0.33
   4   2  -7    4.41    0.43
  -4  -2   7    4.92    0.48
   3   2  -7   28.86    2.17
  -3  -2   7   34.37    2.18
   2   2  -7   92.85    5.52
  -2  -2   7   75.11    5.53
   1   2  -7    4.77    0.43
  -1  -2   7    5.60    0.45
   0   2  -7    2.38    0.24
   0  -2   7    1.87    0.26
  -1   2  -7    3.99    0.43
   1  -2   7    5.15    0.45
  -2   2  -7   10.81    0.77
   2  -2   7   11.20    0.79
  -3   2  -7    9.71    0.84
   3  -2   7    7.82    0.89
  -4   2  -7   29.32    1.83
   4  -2   7   23.50    2.09
  -5   2  -7    3.24    0.30
   5  -2   7    2.79    0.42
  -6   2  -7    0.11    0.11
   6  -2   7    0.13    0.13
  -7   2  -7   26.53    1.60
  -8   2  -7   36.33    2.16
   8  -2   7   36.47    2.45
  -9   2  -7   -0.42    0.35
   9   1  -7    7.44    0.79
  -9  -1   7    6.65    0.65
   8   1  -7    2.53    0.53
  -8  -1   7    2.33    0.52
   7   1  -7    4.04    0.55
  -7  -1   7    3.54    0.57
   6   1  -7   16.52    1.24
  -6  -1   7   16.97    1.24
   5   1  -7    6.66    0.63
  -5  -1   7    7.72    0.66
   4   1  -7   29.24    1.97
  -4  -1   7   28.87    1.98
   3   1  -7    0.51    0.23
  -3  -1   7    0.41    0.26
   2   1  -7    2.77    0.29
  -2  -1   7    2.59    0.32
   1   1  -7    4.11    0.42
  -1  -1   7    4.88    0.44
   0   1  -7    1.86    0.28
   0  -1   7    2.97    0.29
  -1   1  -7    1.37    0.23
   1  -1   7    2.22    0.24
  -2   1  -7    0.32    0.18
   2  -1   7    0.72    0.20
  -3   1  -7    3.65    0.40
   3  -1   7    4.31    0.43
  -4   1  -7    9.22    1.11
   4  -1   7   13.47    1.13
  -5   1  -7    7.23    0.68
   5  -1   7    5.96    0.71
  -6   1  -7    8.70    0.65
   6  -1   7    8.87    0.67
  -7   1  -7    9.38    0.71
  -7   1  -7   10.18    0.63
   7  -1   7    8.82    0.72
  -8   1  -7   53.14    3.11
   8  -1   7   53.53    3.53
  -9   1  -7   10.36    0.73
   9  -1   7   11.46    0.86
   9   0  -7   18.12    1.34
  -9   0   7   17.76    1.33
   8   0  -7   48.30    3.38
  -8   0   7   52.68    3.40
   7   0  -7    6.71    0.72
  -7   0   7    7.20    0.74
   6   0  -7  152.07    9.88
  -6   0   7  152.40    9.88
   5   0  -7  196.26   12.83
  -5   0   7  200.62   12.83
   4   0  -7   10.72    0.84
  -4   0   7   10.46    0.84
   3   0  -7    1.47    0.32
  -3   0   7    1.21    0.34
   2   0  -7    2.35    0.29
  -2   0   7    2.33    0.30
   1   0  -7    2.73    0.32
  -1   0   7    3.69    0.33
   0   0  -7    0.73    0.16
   0   0   7    0.68    0.17
  -1   0  -7   26.90    1.99
   1   0   7   31.50    1.98
  -2   0  -7    6.20    0.48
   2   0   7    5.59    0.49
  -3   0  -7    0.60    0.37
   3   0   7    1.41    0.39
  -4   0  -7    0.67    0.24
   4   0   7    0.55    0.11
   4   0   7    0.39    0.25
  -5   0  -7    0.16    0.23
   5   0   7    0.23    0.25
  -6   0  -7   17.33    1.17
   6   0   7   14.83    1.18
  -7   0  -7    0.03    0.27
  -7   0  -7    0.24    0.13
   7   0   7    0.15    0.14
  -8   0  -7    4.78    0.43
  -8   0  -7    4.21    0.35
   8   0   7    4.49    0.43
  -9   0  -7    5.71    0.51
  -9   0  -7    5.36    0.43
   9   0   7    5.88    0.53
   9  -1  -7    0.39    0.24
   8  -1  -7    0.00    0.18
  -8   1   7    0.31    0.20
   7  -1  -7   11.53    0.92
  -7   1   7   12.20    0.92
   6  -1  -7   21.41    1.50
  -6   1   7   19.58    1.43
   5  -1  -7  138.26    8.98
  -5   1   7  138.04    8.97
   4  -1  -7    1.20    0.37
  -4   1   7    0.48    0.36
   3  -1  -7    4.83    0.52
  -3   1   7    4.15    0.51
   2  -1  -7   20.76    1.45
  -2   1   7   21.62    1.45
   1  -1  -7    3.53    0.34
  -1   1   7    3.36    0.34
   0  -1  -7   29.88    2.04
   0   1   7   31.14    2.05
  -1  -1  -7  136.06    8.70
   1   1   7  131.92    8.71
  -2  -1  -7   34.65    2.34
   2   1   7   35.31    2.34
  -3  -1  -7    3.48    0.32
   3   1   7    3.25    0.32
  -4  -1  -7    3.18    0.35
   4   1   7    2.60    0.35
  -5  -1  -7   14.90    1.02
   5   1   7   14.20    1.03
  -6  -1  -7   10.93    0.89
   6   1   7   11.32    0.90
  -7  -1  -7    3.76    0.52
  -7  -1  -7    3.57    0.42
  -8  -1  -7    2.66    0.50
  -8  -1  -7    2.41    0.38
   8   1   7    2.49    0.30
  -9  -1  -7   19.09    1.34
  -9  -1  -7   19.37    1.15
   9   1   7   18.25    1.34
 -10  -1  -7    3.80    0.33
 -10  -1  -7    3.74    0.42
  10   1   7    4.08    0.45
  11   1   7    4.16    0.50
   8  -2  -7   17.73    1.31
   7  -2  -7   15.49    1.21
  -7   2   7   17.39    1.20
   6  -2  -7   11.66    0.89
  -6   2   7   11.60    0.88
   5  -2  -7    5.30    0.47
  -5   2   7    4.37    0.45
   4  -2  -7   17.40    1.25
  -4   2   7   18.00    1.24
   3  -2  -7   32.54    2.27
  -3   2   7   34.74    2.26
   2  -2  -7    0.22    0.33
  -2   2   7    0.16    0.30
   1  -2  -7    2.75    0.30
  -1   2   7    2.53    0.29
   0  -2  -7    9.80    0.69
   0   2   7    8.87    0.69
  -1  -2  -7   18.30    1.23
   1   2   7   16.76    1.23
  -2  -2  -7   45.37    2.96
   2   2   7   43.13    2.95
  -3  -2  -7    0.44    0.16
   3   2   7    0.46    0.17
  -4  -2  -7    0.65    0.28
   4   2   7    0.91    0.29
  -5  -2  -7   24.18    1.69
   5   2   7   24.97    1.70
   5   2   7   26.23    1.65
  -6  -2  -7    8.49    0.64
   6   2   7    7.53    0.64
  -7  -2  -7    6.68    1.02
  -7  -2  -7    7.43    0.73
  -8  -2  -7   13.83    1.41
  -9  -2  -7    5.13    0.37
  -9  -2  -7    5.47    0.62
   9   2   7    5.56    0.50
 -10  -2  -7    0.17    0.17
  10   2   7   -0.26    0.15
 -11  -2  -7   39.24    2.68
  11   2   7   39.80    2.70
   8  -3  -7  178.06   11.60
   7  -3  -7   12.32    0.96
   6  -3  -7    0.07    0.17
  -6   3   7   -0.07    0.15
   5  -3  -7   41.16    2.70
  -5   3   7   39.30    2.68
   4  -3  -7    2.52    0.32
  -4   3   7    3.00    0.32
   3  -3  -7    0.32    0.38
  -3   3   7    0.23    0.33
   2  -3  -7  101.39    6.83
  -2   3   7  109.24    6.83
   1  -3  -7   14.01    1.06
  -1   3   7   16.08    1.05
   0  -3  -7   38.84    2.55
   0   3   7   38.69    2.54
  -1  -3  -7    0.45    0.19
   1   3   7    0.23    0.17
  -2  -3  -7    0.33    0.16
   2   3   7    0.13    0.14
  -3  -3  -7    1.48    0.23
   3   3   7    1.55    0.22
  -4  -3  -7    0.28    0.15
   4   3   7    0.25    0.17
  -5  -3  -7    4.31    0.49
   5   3   7    6.31    0.48
   5   3   7    5.95    0.44
  -6  -3  -7    0.80    0.31
   6   3   7    0.97    0.32
  -7  -3  -7   10.69    0.64
  -7  -3  -7    9.07    0.83
  -8  -3  -7    7.39    0.89
  -9  -3  -7    4.95    0.57
 -10  -3  -7    3.56    0.56
  10   3   7    4.02    0.45
 -11  -3  -7   12.41    0.99
  11   3   7   13.17    1.00
   8  -4  -7   61.32    4.15
   7  -4  -7    0.18    0.49
   6  -4  -7   11.21    0.88
   5  -4  -7   19.28    1.37
   4  -4  -7   14.00    1.01
  -4   4   7   13.43    0.98
   3  -4  -7   18.78    1.53
  -3   4   7   23.57    1.47
   2  -4  -7  262.73   17.38
  -2   4   7  277.20   17.37
   1  -4  -7  189.67   12.49
  -1   4   7  197.93   12.48
   0  -4  -7    5.26    0.45
   0   4   7    5.53    0.43
  -1  -4  -7   10.01    0.69
   1   4   7    9.07    0.68
  -2  -4  -7   15.31    1.04
   2   4   7   14.66    1.02
  -3  -4  -7    0.44    0.17
   3   4   7    0.38    0.15
  -4  -4  -7    4.84    0.44
   4   4   7    4.76    0.44
  -5  -4  -7   19.25    1.48
   5   4   7   20.20    1.47
   5   4   7   22.71    1.45
  -6  -4  -7   13.88    0.78
  -6  -4  -7   10.81    0.97
   6   4   7   14.03    0.93
   6   4   7   14.41    0.97
  -7  -4  -7    0.16    0.27
   7   4   7    0.39    0.19
  -8  -4  -7    3.70    0.43
  -9  -4  -7    1.07    0.45
 -10  -4  -7    8.32    0.79
 -11  -4  -7    1.68    0.53
  11   4   7    1.60    0.52
   7  -5  -7    9.73    0.90
   6  -5  -7   39.42    2.71
   5  -5  -7    0.33    0.44
   4  -5  -7    1.81    0.28
   3  -5  -7   19.00    1.44
  -3   5   7   22.62    1.42
   2  -5  -7    6.45    0.54
  -2   5   7    7.05    0.52
   1  -5  -7   46.87    3.06
  -1   5   7   46.34    3.04
   0  -5  -7    1.97    0.29
   0   5   7    1.77    0.23
  -1  -5  -7    0.63    0.29
   1   5   7    0.49    0.25
  -2  -5  -7    0.49    0.33
   2   5   7    0.25    0.29
  -3  -5  -7    3.50    0.34
   3   5   7    2.95    0.33
  -4  -5  -7   11.80    0.99
   4   5   7   14.88    0.99
  -5  -5  -7  113.67    7.35
   5   5   7  110.32    7.33
   5   5   7  113.18    7.34
  -6  -5  -7   20.50    1.58
   6   5   7   24.08    1.57
  -7  -5  -7    0.61    0.26
   7   5   7    1.20    0.22
  -8  -5  -7    5.36    0.55
   8   5   7    5.72    0.50
  -9  -5  -7   13.58    1.03
 -10  -5  -7    0.19    0.40
  10   5   7    0.07    0.34
 -11  -5  -7    0.71    0.73
   6  -6  -7    0.89    0.48
   5  -6  -7   65.02    4.33
   4  -6  -7   32.79    2.23
   3  -6  -7   22.51    1.56
   2  -6  -7    0.67    0.17
   1  -6  -7    7.87    0.60
  -1   6   7    8.00    0.57
   0  -6  -7   16.37    1.20
   0   6   7   17.50    1.14
  -1  -6  -7   25.30    1.74
   1   6   7   26.39    1.73
  -2  -6  -7    0.17    0.26
  -2  -6  -7    0.19    0.25
   2   6   7    0.07    0.22
  -3  -6  -7    9.80    0.76
   3   6   7   11.29    0.75
  -4  -6  -7    1.17    0.15
  -4  -6  -7    1.84    0.30
   4   6   7    0.93    0.29
  -5  -6  -7   16.79    1.14
   5   6   7   14.20    1.14
   5   6   7   16.82    1.16
  -6  -6  -7    5.13    0.48
   6   6   7    4.57    0.46
   6   6   7    4.96    0.48
  -7  -6  -7    0.06    0.19
   7   6   7   -0.05    0.18
  -8  -6  -7    1.72    0.34
   8   6   7    2.46    0.32
  -9  -6  -7   11.05    0.87
   9   6   7   10.83    0.83
 -10  -6  -7    2.74    0.48
 -11  -6  -7    1.13    0.86
   5  -7  -7  105.03    6.92
   4  -7  -7  118.10    7.72
   3  -7  -7    4.88    0.47
   2  -7  -7   14.59    1.04
   1  -7  -7   59.54    3.89
   0  -7  -7    2.50    0.27
  -1  -7  -7   19.53    1.32
  -2  -7  -7  170.63    9.39
  -2  -7  -7  158.28   10.60
  -3  -7  -7   16.35    1.14
  -4  -7  -7    2.19    0.29
  -5  -7  -7    0.23    0.22
   5   7   7    0.15    0.26
  -6  -7  -7    0.09    0.18
   6   7   7    0.32    0.21
  -7  -7  -7    0.43    0.22
   7   7   7    0.49    0.22
  -8  -7  -7    0.60    0.25
   8   7   7    0.52    0.26
  -9  -7  -7    1.63    0.39
   9   7   7    2.37    0.37
 -10  -7  -7    0.66    0.48
   5  -8  -7    0.86    0.53
   4  -8  -7   18.71    1.40
   3  -8  -7    4.08    0.42
   2  -8  -7   10.98    0.82
   1  -8  -7    3.81    0.36
   0  -8  -7    0.46    0.13
  -1  -8  -7   15.25    1.05
  -2  -8  -7  166.51   10.73
  -3  -8  -7   80.51    5.23
  -4  -8  -7    1.26    0.29
  -5  -8  -7    5.98    0.52
   5   8   7    5.74    0.57
  -6  -8  -7    2.46    0.33
   6   8   7    2.39    0.37
  -7  -8  -7    0.86    0.26
   7   8   7    0.97    0.27
  -8  -8  -7   10.68    0.93
   8   8   7   11.99    0.95
  -9  -8  -7   10.95    0.86
   9   8   7    9.30    0.88
 -10  -8  -7    7.73    0.74
  10   8   7    8.46    0.72
   3  -9  -7    7.33    0.69
   2  -9  -7   17.82    1.28
   1  -9  -7    0.16    0.13
   0  -9  -7   10.92    0.78
  -1  -9  -7   12.68    0.89
  -2  -9  -7    5.92    0.46
  -3  -9  -7    2.62    0.38
  -4  -9  -7   11.29    0.83
  -5  -9  -7    1.24    0.37
   5   9   7    1.31    0.45
  -6  -9  -7    1.03    0.35
   6   9   7    0.60    0.41
  -7  -9  -7    4.58    0.47
   7   9   7    4.28    0.50
  -8  -9  -7    5.64    0.56
   8   9   7    4.89    0.60
  -9  -9  -7   29.58    2.10
   9   9   7   28.39    2.13
   2 -10  -7    7.44    0.71
   1 -10  -7  105.74    6.87
   0 -10  -7   38.70    2.55
  -1 -10  -7    1.60    0.21
  -2 -10  -7    3.88    0.35
  -3 -10  -7    4.00    0.36
  -4 -10  -7    5.01    0.52
  -5 -10  -7    0.15    0.28
   5  10   7   -0.08    0.35
  -6 -10  -7    0.10    0.30
   6  10   7    0.20    0.37
  -7 -10  -7   12.79    0.98
   7  10   7   13.81    1.03
  -8 -10  -7    0.96    0.36
   0 -11  -7   56.05    3.68
  -1 -11  -7   -0.08    0.29
  -2 -11  -7   14.15    0.98
  -3 -11  -7   20.91    1.42
  -4 -11  -7    3.33    0.37
   4  11   7    4.76    0.45
  -5 -11  -7   34.98    2.38
   5  11   7   36.09    2.44
  -6 -11  -7   68.21    4.41
   6  11   7   66.15    4.45
   7  11   7   15.08    1.12
  -3  -8   8    4.58    0.50
  -2  -8   8    3.94    0.49
  -1  -8   8    3.95    0.39
   0  -8   8   54.37    3.57
   1  -8   8   43.69    2.88
  -5  -7   8    2.74    0.50
  -4  -7   8    0.49    0.33
  -3  -7   8   16.10    1.18
  -2  -7   8    0.14    0.31
  -1  -7   8   55.20    3.64
   0  -7   8    2.76    0.30
   1  -7   8    3.98    0.37
   2  -7   8   60.80    3.98
   3  -7   8    2.34    0.29
   4  -7   8    7.22    0.59
  -6  -6   8    3.17    0.48
  -5  -6   8    2.67    0.45
  -4  -6   8    2.61    0.47
  -3  -6   8  152.58    9.90
  -2  -6   8  102.40    6.66
  -1  -6   8    0.09    0.29
   0  -6   8    1.11    0.33
   1  -6   8    6.14    0.49
   2  -6   8   15.76    1.10
   3  -6   8    5.21    0.45
   4  -6   8   47.81    3.16
   5  -6   8    7.14    0.75
  -7  -5   8   13.84    1.10
  -6  -5   8    1.76    0.37
  -5  -5   8    6.91    0.70
  -4  -5   8    5.64    0.58
  -3  -5   8   33.59    2.35
  -2  -5   8   33.22    2.26
  -1  -5   8    4.64    0.45
   0  -5   8    5.17    0.48
   1  -5   8   48.37    3.19
   2  -5   8    3.09    0.32
   3  -5   8   49.60    3.26
   4  -5   8  213.74   13.78
   5  -5   8   54.02    3.58
   6  -5   8    5.16    0.56
  -7   5  -8   21.30    1.35
  -8  -4   8    3.37    0.44
  -7  -4   8   -0.05    0.36
  -6  -4   8   14.96    1.15
  -5  -4   8    2.07    0.41
  -4  -4   8   15.57    1.23
  -3  -4   8    4.54    0.51
  -2  -4   8    2.57    0.40
  -1  -4   8   95.68    6.23
   0  -4   8   16.78    1.21
   0  -4   8   18.06    1.19
   1  -4   8    6.74    0.56
   2  -4   8   44.07    2.92
   3  -4   8   24.72    1.67
   4  -4   8   45.49    3.00
   5  -4   8   12.78    0.93
   6  -4   8    0.49    0.38
  -7   4  -8   25.04    1.61
  -8  -3   8    1.28    0.51
  -7  -3   8    3.92    0.65
  -6  -3   8   60.68    4.18
   5   3  -8   55.38    3.98
  -5  -3   8   65.05    4.02
   4   3  -8    1.05    0.27
  -4  -3   8    1.53    0.33
   3   3  -8    0.04    0.16
  -3  -3   8    0.02    0.13
   2   3  -8    1.16    0.26
  -2  -3   8    1.65    0.32
   1   3  -8    5.89    0.52
  -1  -3   8    6.43    0.56
   0   3  -8   11.07    0.74
   0  -3   8    8.81    0.76
  -1   3  -8  102.11    6.60
   1  -3   8  101.78    6.61
  -2   3  -8    4.73    0.46
   2  -3   8    4.88    0.49
  -3   3  -8   70.31    4.48
   3  -3   8   67.36    4.49
   4  -3   8    0.31    0.13
   5  -3   8   11.42    0.84
   6  -3   8   81.53    5.33
  -7   3  -8    0.12    0.14
   7  -3   8    0.16    0.40
  -8   3  -8    0.73    0.37
  -8  -2   8    5.91    0.71
   7   2  -8    4.73    0.53
  -7  -2   8    1.29    0.53
   6   2  -8   13.52    1.24
  -6  -2   8   11.51    1.28
   5   2  -8   15.08    1.24
  -5  -2   8   16.98    1.29
   4   2  -8    9.37    0.70
  -4  -2   8    8.02    0.72
   3   2  -8    4.52    0.44
  -3  -2   8    5.00    0.47
   2   2  -8    7.78    0.61
  -2  -2   8    6.57    0.63
   1   2  -8    2.86    0.28
  -1  -2   8    1.37    0.31
   0   2  -8   33.06    2.47
   0  -2   8   40.30    2.48
  -1   2  -8  310.07   17.49
   1  -2   8  233.13   17.50
  -2   2  -8  126.59    8.12
   2  -2   8  124.64    8.13
  -3   2  -8    3.44    0.35
   3  -2   8    3.55    0.38
  -4   2  -8   58.32    3.75
   4  -2   8   56.52    3.77
  -5   2  -8   13.09    0.92
   5  -2   8   12.96    0.94
   6  -2   8   12.96    0.94
  -7   2  -8   48.53    2.83
   7  -2   8   47.82    3.20
  -8   2  -8   82.36    4.87
   8  -2   8   85.66    5.51
  -9   2  -8    2.45    0.58
   8   1  -8    0.27    0.50
  -8  -1   8   -0.16    0.19
   7   1  -8    3.67    0.84
  -7  -1   8    4.45    0.83
   6   1  -8    3.91    0.52
  -6  -1   8    4.07    0.53
   5   1  -8    1.13    0.39
  -5  -1   8    1.56    0.42
   4   1  -8   44.08    2.92
  -4  -1   8   41.96    2.94
   3   1  -8   14.39    1.00
  -3  -1   8   12.55    0.99
   2   1  -8    3.95    0.42
  -2  -1   8    4.89    0.44
   1   1  -8   26.79    1.82
  -1  -1   8   25.44    1.83
   0   1  -8   38.20    2.23
   0  -1   8   27.64    2.25
  -1   1  -8   42.96    2.86
  -2   1  -8   10.64    0.75
   2  -1   8    9.67    0.77
  -3   1  -8   29.89    1.98
   3  -1   8   29.46    1.99
  -4   1  -8    9.27    0.71
   4  -1   8    9.58    0.73
  -5   1  -8    5.34    0.52
   5  -1   8    5.29    0.54
  -6   1  -8    0.44    0.14
   6  -1   8    0.26    0.33
  -7   1  -8   84.37    5.46
  -7   1  -8   85.19    4.83
   7  -1   8   81.36    5.47
  -8   1  -8  231.90   13.16
   8  -1   8  228.54   14.87
  -9   1  -8   25.02    1.51
   9  -1   8   24.28    1.73
 -10   1  -8   11.31    0.77
   8   0  -8   12.21    1.22
  -8   0   8   12.11    0.96
   7   0  -8    3.85    0.55
  -7   0   8    2.56    0.36
   6   0  -8    7.11    0.70
  -6   0   8    6.90    0.70
   5   0  -8    2.44    0.48
  -5   0   8    2.61    0.49
   4   0  -8    0.55    0.41
  -4   0   8    0.89    0.43
   3   0  -8    8.11    0.71
  -3   0   8    8.64    0.71
   2   0  -8   73.41    4.64
  -2   0   8   67.97    4.65
   1   0  -8   10.27    0.79
  -1   0   8    9.50    0.80
   0   0  -8   45.08    2.79
   0   0   8   37.97    2.80
  -1   0  -8    0.30    0.18
   1   0   8    0.64    0.18
  -2   0  -8   13.09    0.98
   2   0   8   13.30    0.98
  -3   0  -8  158.47    9.30
   3   0   8  128.94    9.31
  -4   0  -8    8.81    0.73
   4   0   8   10.54    0.74
  -5   0  -8    6.10    0.52
   5   0   8    5.82    0.54
  -6   0  -8   94.58    6.02
   6   0   8   90.69    6.04
  -7   0  -8   16.01    1.12
   7   0   8   15.85    1.17
  -8   0  -8   23.87    1.63
  -8   0  -8   23.00    1.42
   8   0   8   24.04    1.64
  -9   0  -8    3.34    0.31
   9   0   8    3.06    0.39
 -10   0  -8    3.49    0.34
  10   0   8    3.89    0.47
   8  -1  -8    0.46    0.23
  -8   1   8    0.89    0.23
   7  -1  -8    1.98    0.33
  -7   1   8    2.14    0.33
   6  -1  -8    7.51    0.77
  -6   1   8    8.46    0.68
   5  -1  -8    3.32    0.73
  -5   1   8    3.21    0.70
   4  -1  -8    1.08    0.42
  -4   1   8    1.37    0.42
   3  -1  -8    9.32    1.04
  -3   1   8   12.10    1.03
   2  -1  -8  158.56    9.83
  -2   1   8  143.91    9.83
   1  -1  -8   74.73    5.33
  -1   1   8   88.79    5.33
   0  -1  -8    1.95    0.24
   0   1   8    1.26    0.24
  -1  -1  -8    9.16    0.67
   1   1   8    8.14    0.68
  -2  -1  -8    5.92    0.49
   2   1   8    5.26    0.49
  -3  -1  -8    2.08    0.32
   3   1   8    2.29    0.34
  -4  -1  -8   78.34    5.86
   4   1   8  101.59    5.86
  -5  -1  -8  209.76   13.12
   5   1   8  209.93   13.13
   5   1   8  191.14   13.04
  -6  -1  -8    4.80    0.55
   6   1   8    2.94    0.56
  -7  -1  -8    9.80    0.80
  -7  -1  -8    9.95    0.68
   7   1   8    9.87    0.82
  -8  -1  -8    3.39    0.28
  -8  -1  -8    3.39    0.36
   8   1   8    3.29    0.38
  -9  -1  -8   20.29    1.20
  -9  -1  -8   19.01    1.40
   9   1   8   19.94    1.41
 -10  -1  -8   32.33    2.00
  10   1   8   34.97    2.31
   8  -2  -8    3.09    0.59
   7  -2  -8    1.48    0.28
  -7   2   8    1.44    0.28
   6  -2  -8    2.43    0.34
  -6   2   8    1.69    0.29
   5  -2  -8    0.01    0.44
  -5   2   8    0.08    0.16
   4  -2  -8    5.52    0.77
  -4   2   8    5.94    0.72
   3  -2  -8   14.95    1.08
  -3   2   8   15.49    1.12
   2  -2  -8   15.33    1.26
  -2   2   8   12.95    1.24
   1  -2  -8   12.11    0.88
  -1   2   8   11.40    0.86
   0  -2  -8   37.16    2.25
   0   2   8   30.24    2.25
  -1  -2  -8    7.14    0.53
   1   2   8    5.74    0.54
  -2  -2  -8    1.50    0.22
   2   2   8    1.21    0.21
  -3  -2  -8    4.57    0.44
   3   2   8    4.69    0.43
   4   2   8   36.36    2.57
  -5  -2  -8  306.36   19.42
   5   2   8  291.05   19.42
   5   2   8  307.23   19.33
  -6  -2  -8   57.51    3.55
   6   2   8   51.39    3.48
   6   2   8   52.57    3.55
  -7  -2  -8    0.74    0.35
  -7  -2  -8    0.04    0.23
   7   2   8    2.14    0.37
  -8  -2  -8   77.05    4.42
  -8  -2  -8   76.54    5.03
  -9  -2  -8    9.38    0.86
  -9  -2  -8   10.14    0.63
   9   2   8   10.08    0.79
 -10  -2  -8   -0.30    0.16
  10   2   8   -0.14    0.15
  11   2   8   81.77    5.40
   7  -3  -8    2.88    0.40
   6  -3  -8    4.48    0.49
   5  -3  -8   11.28    0.84
  -5   3   8   10.13    0.82
   4  -3  -8    0.08    0.54
  -4   3   8    0.07    0.14
   3  -3  -8    8.36    0.94
  -3   3   8   10.54    0.95
   2  -3  -8    0.56    0.35
  -2   3   8    0.35    0.30
   1  -3  -8    1.32    0.45
  -1   3   8    1.28    0.40
   0  -3  -8   65.81    4.72
   0   3   8   77.42    4.71
  -1  -3  -8   12.19    0.88
   1   3   8   12.54    0.88
  -2  -3  -8    4.73    0.40
   2   3   8    3.67    0.38
  -3  -3  -8   59.90    3.56
   3   3   8   47.34    3.56
  -4  -3  -8   20.41    1.55
   4   3   8   24.10    1.55
  -5  -3  -8   25.26    1.63
   5   3   8   21.79    1.58
  -6  -3  -8   13.41    0.96
   6   3   8   12.79    0.90
   6   3   8   13.65    0.97
  -7  -3  -8   37.80    2.48
  -7  -3  -8   38.27    2.14
   7   3   8   38.18    2.49
   7   3   8   33.80    2.41
  -8  -3  -8   14.12    1.05
  -9  -3  -8    1.27    0.45
 -10  -3  -8   16.22    1.24
 -11  -3  -8   54.27    3.68
  11   3   8   55.86    3.69
   7  -4  -8    1.70    0.55
   6  -4  -8    2.86    0.40
   5  -4  -8   17.37    1.27
   4  -4  -8    8.01    0.66
  -4   4   8    7.66    0.63
   3  -4  -8    0.14    0.39
  -3   4   8    0.67    0.17
   2  -4  -8    1.81    0.25
  -2   4   8    1.66    0.55
   1  -4  -8    1.32    0.38
  -1   4   8    1.60    0.34
   0  -4  -8    4.35    0.48
   0   4   8    5.38    0.46
  -1  -4  -8   42.63    3.41
   1   4   8   59.37    3.39
  -2  -4  -8  173.65   11.06
   2   4   8  169.05   11.05
  -3  -4  -8    5.66    0.56
   3   4   8    6.17    0.54
  -4  -4  -8    9.11    0.81
   4   4   8   11.14    0.80
  -5  -4  -8    2.00    0.28
   5   4   8    1.79    0.27
  -6  -4  -8   14.09    0.99
   6   4   8   10.91    0.92
   6   4   8   12.05    0.98
  -7  -4  -8   48.13    3.23
  -7  -4  -8   47.77    2.78
   7   4   8   49.15    3.17
  -8  -4  -8    1.42    0.35
   8   4   8    1.44    0.23
  -9  -4  -8    2.43    0.52
 -10  -4  -8   77.04    5.09
 -11  -4  -8    0.49    0.49
  11   4   8    0.53    0.48
   6  -5  -8   -0.12    0.47
   5  -5  -8    6.10    0.57
   4  -5  -8    3.70    0.42
   3  -5  -8    1.75    0.27
   2  -5  -8   11.05    0.84
  -2   5   8   11.49    0.81
   1  -5  -8    7.01    0.64
  -1   5   8    7.46    0.55
   0  -5  -8    2.82    0.40
   0   5   8    3.25    0.35
  -1  -5  -8   28.96    2.02
   1   5   8   26.16    1.97
  -2  -5  -8  115.72    7.19
   2   5   8  104.21    7.17
  -3  -5  -8   33.43    2.37
   3   5   8   37.33    2.35
  -4  -5  -8    0.50    0.21
   4   5   8    0.73    0.21
  -5  -5  -8   20.30    1.42
   5   5   8   19.10    1.41
  -6  -5  -8    4.97    0.55
   6   5   8    7.14    0.56
   6   5   8    6.38    0.54
  -7  -5  -8    0.08    0.24
   7   5   8    0.26    0.19
  -8  -5  -8   94.64    6.57
   8   5   8  105.65    6.51
  -9  -5  -8  145.86    8.92
   9   5   8  128.62    8.85
 -10  -5  -8    1.97    0.52
 -11  -5  -8    1.35    0.53
   6  -6  -8    1.99    0.56
   5  -6  -8    5.03    0.63
   4  -6  -8    2.35    0.54
   3  -6  -8    6.49    0.57
   2  -6  -8    1.82    0.26
   1  -6  -8    0.23    0.15
   0  -6  -8    8.81    0.65
   0   6   8    8.67    0.63
  -1  -6  -8   28.43    1.92
   1   6   8   28.67    1.90
  -2  -6  -8   15.73    1.10
   2   6   8   12.74    1.06
  -3  -6  -8    2.24    0.34
   3   6   8    1.31    0.32
  -4  -6  -8   37.00    2.70
   4   6   8   44.37    2.69
  -5  -6  -8    2.22    0.29
   5   6   8    1.24    0.27
  -6  -6  -8    0.85    0.25
   6   6   8    1.15    0.25
  -7  -6  -8   12.50    1.21
   7   6   8   18.68    1.18
  -8  -6  -8   28.20    2.49
   8   6   8   40.57    2.43
  -9  -6  -8  126.87    8.76
   9   6   8  141.18    8.71
 -10  -6  -8    4.60    0.63
   5  -7  -8   17.21    1.33
   4  -7  -8   21.96    1.60
   3  -7  -8    2.40    0.34
   2  -7  -8    6.83    0.58
   1  -7  -8   25.55    1.73
   0  -7  -8    0.38    0.13
  -1  -7  -8    4.40    0.38
  -2  -7  -8    0.03    0.18
  -2  -7  -8    0.04    0.27
  -3  -7  -8    2.50    0.46
  -4  -7  -8   22.94    1.61
  -5  -7  -8    0.56    0.23
  -6  -7  -8    4.09    0.52
   6   7   8    5.41    0.51
  -7  -7  -8   34.36    2.67
   7   7   8   42.47    2.66
  -8  -7  -8    3.90    0.46
   8   7   8    3.49    0.45
  -9  -7  -8    4.08    0.56
   9   7   8    5.17    0.52
 -10  -7  -8   32.77    2.38
  10   7   8   35.44    2.34
   4  -8  -8    6.78    0.69
   3  -8  -8    0.87    0.23
   2  -8  -8    7.13    0.60
   1  -8  -8   26.17    1.77
   0  -8  -8    5.52    0.46
  -1  -8  -8    2.10    0.25
  -2  -8  -8    0.55    0.57
  -3  -8  -8    0.12    0.33
  -4  -8  -8    0.61    0.27
  -5  -8  -8   45.53    3.09
  -6  -8  -8  108.17    7.03
   6   8   8  107.54    7.03
  -7  -8  -8    3.79    0.46
  -8  -8  -8    0.29    0.26
   8   8   8    0.34    0.26
  -9  -8  -8    4.28    0.48
   9   8   8    3.48    0.48
 -10  -8  -8    6.47    0.77
  10   8   8    6.09    0.72
   3  -9  -8    0.15    0.51
   2  -9  -8   -0.24    0.37
   1  -9  -8    1.56    0.24
   0  -9  -8    0.16    0.14
  -1  -9  -8    4.01    0.37
  -2  -9  -8    3.90    0.36
  -3  -9  -8    6.78    0.53
  -4  -9  -8   15.60    1.11
  -5  -9  -8   15.42    1.39
   5   9   8   17.21    1.49
  -6  -9  -8   84.00    5.96
   6   9   8   97.47    5.98
  -7  -9  -8    4.98    0.54
   7   9   8    6.02    0.58
  -8  -9  -8    1.29    0.34
   8   9   8    1.65    0.35
  -9  -9  -8    6.18    0.65
   9   9   8    6.37    0.68
   1 -10  -8    8.04    0.69
   0 -10  -8    1.46    0.22
  -1 -10  -8    3.11    0.33
  -2 -10  -8    0.34    0.14
  -3 -10  -8    0.18    0.13
  -4 -10  -8    8.79    0.88
  -5 -10  -8    2.36    0.40
   5  10   8    2.30    0.47
  -6 -10  -8    5.47    0.54
   6  10   8    4.80    0.60
  -7 -10  -8   15.84    1.26
   7  10   8   16.93    1.29
  -8 -10  -8   25.07    1.76
  -1 -11  -8    0.84    0.36
  -2 -11  -8    6.86    0.55
  -3 -11  -8   21.01    1.43
  -4 -11  -8    0.89    0.38
   4  11   8    1.47    0.29
  -5 -11  -8    0.32    0.36
   5  11   8    0.37    0.43
  -6 -11  -8    0.31    0.16
   6  11   8   -0.22    0.15
  -4  -7   9   13.72    1.10
  -3  -7   9   17.01    1.27
  -2  -7   9    2.41    0.51
  -1  -7   9   35.29    2.42
   0  -7   9    2.49    0.30
   1  -7   9    2.38    0.29
   2  -7   9    8.20    0.64
  -5  -6   9    8.20    0.81
  -4  -6   9   10.69    0.93
  -3  -6   9  137.32    8.96
  -2  -6   9  113.67    7.40
  -1  -6   9    0.40    0.47
   0  -6   9    1.22    0.34
   1  -6   9    1.76    0.25
   2  -6   9   11.26    0.83
   3  -6   9    0.02    0.13
   4  -6   9   17.68    1.25
  -6  -5   9    5.74    0.65
  -5  -5   9    3.15    0.47
  -4  -5   9    3.92    0.53
  -3  -5   9   51.94    3.59
  -2  -5   9   97.58    6.41
  -1  -5   9    9.35    0.76
   0  -5   9    9.68    0.86
   1  -5   9   34.04    2.32
   2  -5   9    1.79    0.25
   3  -5   9   16.36    1.16
   4  -5   9  120.79    7.84
   5  -5   9   41.44    2.77
   6  -5   9    0.22    0.17
  -7  -4   9   12.94    1.09
  -6  -4   9   16.14    1.26
  -5  -4   9    4.77    0.58
  -4  -4   9   36.42    2.59
  -3  -4   9    7.40    0.73
  -2  -4   9    2.58    0.38
  -1  -4   9   36.85    2.52
   0  -4   9   19.60    1.36
   1  -4   9   10.08    0.82
   2  -4   9    4.77    0.52
   3  -4   9   -0.04    0.12
   4  -4   9   75.58    4.94
   5  -4   9   27.92    1.90
   6  -4   9    1.59    0.48
  -7   4  -9    7.29    0.75
   7  -4   9    7.11    0.63
  -7  -3   9    7.37    0.83
  -6  -3   9  129.08    8.49
  -5  -3   9  164.84   10.72
  -4  -3   9    2.54    0.43
   3   3  -9    0.90    0.22
  -3  -3   9    0.75    0.25
   2   3  -9   17.75    1.34
   1   3  -9    4.06    0.63
   0   3  -9    1.54    0.25
   0  -3   9    1.01    0.29
  -1   3  -9   66.55    4.36
   1  -3   9   67.10    4.38
   2  -3   9    2.60    0.63
   3  -3   9   21.91    1.59
   4  -3   9   -0.12    0.11
   5  -3   9    3.33    0.37
   6  -3   9   23.05    1.60
   7  -3   9    2.11    0.32
  -8   3  -9    3.89    0.39
   8  -3   9    4.37    0.49
  -7  -2   9   20.07    1.50
   6   2  -9   14.74    1.38
  -6  -2   9   13.79    1.44
   5   2  -9   78.40    5.02
  -5  -2   9   72.37    5.06
   4   2  -9    2.34    0.34
  -4  -2   9    1.56    0.37
   3   2  -9    7.23    0.68
  -3  -2   9    7.09    0.69
   2   2  -9   60.36    3.86
  -2  -2   9   54.29    3.89
   1   2  -9    8.46    0.62
  -1  -2   9    6.22    0.65
   0   2  -9   31.75    2.17
  -1   2  -9  331.53   23.42
   1  -2   9  396.67   23.44
  -2   2  -9  207.24   12.99
   2  -2   9  195.82   13.00
  -3   2  -9    2.58    0.35
   3  -2   9    2.22    0.38
  -4   2  -9    8.99    0.68
   4  -2   9    9.54    0.76
   5  -2   9    2.18    0.28
   6  -2   9    3.07    0.36
   7  -2   9   17.74    1.27
  -8   2  -9   24.77    1.52
   8   1  -9   11.57    0.94
   7   1  -9   52.55    3.42
  -7  -1   9   49.03    3.47
   6   1  -9   27.75    1.94
  -6  -1   9   27.74    1.95
   5   1  -9    5.65    0.64
  -5  -1   9    7.07    0.69
   4   1  -9   37.75    2.62
  -4  -1   9   38.31    2.61
   3   1  -9   62.37    3.98
  -3  -1   9   58.07    3.99
   2   1  -9    3.69    0.43
  -2  -1   9    4.21    0.46
   1   1  -9   13.04    1.07
  -1  -1   9   14.46    1.08
   0   1  -9   20.21    1.53
   0  -1   9   24.02    1.57
  -1   1  -9  118.33    7.45
   1  -1   9  109.78    7.47
  -2   1  -9   54.57    3.71
   2  -1   9   58.24    3.72
  -3   1  -9    1.73    0.27
   3  -1   9    1.46    0.29
  -4   1  -9   21.02    1.40
   4  -1   9   15.74    1.40
  -5   1  -9   42.98    2.71
   5  -1   9   38.44    2.76
  -6   1  -9    0.09    0.12
   6  -1   9    0.03    0.35
   7  -1   9   41.86    2.81
  -8   1  -9  104.82    6.12
   8  -1   9  107.52    6.94
  -9   1  -9   34.82    2.12
   9  -1   9   36.04    2.43
   8   0  -9  108.76    7.13
   7   0  -9    2.57    0.57
  -7   0   9    2.33    0.36
   6   0  -9   -0.06    0.16
  -6   0   9    0.34    0.45
   5   0  -9   37.28    2.69
  -5   0   9   41.99    2.71
   4   0  -9    0.00    0.43
  -4   0   9    0.33    0.46
   3   0  -9    0.62    0.29
  -3   0   9    0.40    0.33
   2   0  -9   77.79    5.12
  -2   0   9   78.32    5.13
   1   0  -9   15.39    1.10
  -1   0   9   14.18    1.11
   0   0  -9   42.87    2.70
   0   0   9   36.82    2.73
  -1   0  -9    2.31    0.34
   1   0   9    3.65    0.35
  -2   0  -9    1.16    0.38
   2   0   9    2.19    0.40
  -3   0  -9   93.99    5.98
   3   0   9   88.99    5.99
  -4   0  -9    1.81    0.34
   4   0   9    1.29    0.37
  -5   0  -9    2.06    0.34
   5   0   9    2.26    0.36
  -6   0  -9   25.61    1.74
   6   0   9   22.12    1.74
  -7   0  -9    3.09    0.35
   7   0   9    3.17    0.37
  -8   0  -9   45.22    2.68
  -8   0  -9   47.39    3.08
   8   0   9   44.39    3.06
  -9   0  -9    4.60    0.38
   9   0   9    4.35    0.48
   7  -1  -9    0.06    0.51
  -7   1   9    0.60    0.24
   6  -1  -9    5.19    0.66
  -6   1   9    5.65    0.54
   5  -1  -9   29.28    1.95
  -5   1   9   26.82    2.03
   4  -1  -9   12.92    1.03
  -4   1   9   13.34    1.04
   3  -1  -9   11.82    1.02
  -3   1   9    9.61    1.01
   2  -1  -9  323.20   20.82
  -2   1   9  322.09   20.83
   1  -1  -9  265.93   19.34
  -1   1   9  334.35   19.34
   0  -1  -9    1.85    0.28
   0   1   9    1.94    0.30
  -1  -1  -9   20.81    1.57
   1   1   9   23.10    1.58
  -2  -1  -9   39.34    2.77
   2   1   9   42.78    2.77
  -3  -1  -9    1.21    0.35
   3   1   9    1.32    0.36
  -4  -1  -9   24.45    1.56
   4   1   9   20.45    1.57
  -5  -1  -9  138.51    8.69
   5   1   9  132.41    8.61
   5   1   9  131.73    8.70
  -6  -1  -9    1.10    0.67
   6   1   9    0.32    0.68
  -7  -1  -9    4.55    0.57
   7   1   9    5.89    0.60
  -8  -1  -9    4.63    0.47
  -8  -1  -9    5.54    0.39
  -9  -1  -9    6.80    0.59
  -9  -1  -9    6.25    0.47
   9   1   9    7.44    0.61
  10   1   9   12.06    0.95
   7  -2  -9   16.93    1.26
   6  -2  -9   62.26    4.07
  -6   2   9   59.26    4.02
   5  -2  -9    0.22    0.19
  -5   2   9    0.50    0.19
   4  -2  -9    9.38    0.74
  -4   2   9    8.95    0.81
   3  -2  -9   67.11    4.52
  -3   2   9   70.11    4.52
   2  -2  -9   21.00    1.99
  -2   2   9   29.44    1.98
   1  -2  -9   42.25    2.79
  -1   2   9   40.32    2.79
   0  -2  -9   30.11    2.01
   0   2   9   29.67    2.01
  -1  -2  -9   13.61    0.91
   1   2   9    9.20    0.92
  -2  -2  -9   37.31    2.68
   2   2   9   41.03    2.67
  -3  -2  -9    0.44    0.23
   3   2   9    0.55    0.23
  -4  -2  -9   49.56    3.13
   4   2   9   41.41    3.13
  -5  -2  -9  417.65   25.56
   5   2   9  399.28   25.46
   5   2   9  374.42   25.56
  -6  -2  -9  128.65    8.06
   6   2   9  128.15    8.05
   6   2   9  115.81    7.97
  -7  -2  -9   22.19    1.53
   7   2   9   20.86    1.53
  -8  -2  -9   27.67    1.99
  -8  -2  -9   28.68    1.70
  -9  -2  -9    0.16    0.17
   9   2   9    0.34    0.18
 -10  -2  -9    0.20    0.19
  10   2   9    0.20    0.20
   7  -3  -9    0.61    0.26
   6  -3  -9    0.31    0.21
   5  -3  -9   59.81    3.86
  -5   3   9   56.04    3.83
   4  -3  -9   18.35    1.31
  -4   3   9   18.35    1.31
   3  -3  -9   37.34    2.57
  -3   3   9   39.32    2.61
   2  -3  -9    4.99    0.53
  -2   3   9    4.92    0.51
   1  -3  -9    0.93    0.32
  -1   3   9    0.93    0.30
   0  -3  -9  112.25    7.42
   0   3   9  116.32    7.42
  -1  -3  -9   19.08    1.36
   1   3   9   20.70    1.36
  -2  -3  -9    3.75    0.36
   2   3   9    3.24    0.35
  -3  -3  -9   50.84    3.61
   3   3   9   56.19    3.60
  -4  -3  -9   30.18    2.23
   4   3   9   34.59    2.23
  -5  -3  -9   74.68    5.08
   5   3   9   78.81    5.07
  -6  -3  -9    5.29    0.53
   6   3   9    5.79    0.53
   6   3   9    5.56    0.44
  -7  -3  -9   13.32    0.95
   7   3   9   11.64    0.85
   7   3   9   12.94    0.95
  -8  -3  -9    3.43    0.67
  -8  -3  -9    3.20    0.40
  -9  -3  -9    1.01    0.42
 -10  -3  -9    1.02    0.49
   6  -4  -9    3.36    0.44
   5  -4  -9  135.11    8.80
   4  -4  -9  141.16    9.17
   3  -4  -9    0.72    0.21
  -3   4   9    0.86    0.19
   2  -4  -9   10.96    0.92
  -2   4   9   11.68    0.90
   1  -4  -9   83.72    5.49
  -1   4   9   84.51    5.49
   0  -4  -9   10.36    0.78
   0   4   9    9.79    0.76
  -1  -4  -9   17.45    1.40
   1   4   9   22.25    1.39
  -2  -4  -9  184.23   11.69
   2   4   9  177.68   11.67
  -3  -4  -9   15.16    1.08
   3   4   9   13.44    1.07
  -4  -4  -9    6.63    0.61
   4   4   9    6.84    0.59
  -5  -4  -9    6.60    0.62
   5   4   9    6.98    0.62
  -6  -4  -9    3.92    0.65
   6   4   9    2.67    0.53
   6   4   9    3.31    0.62
  -7  -4  -9   59.62    3.73
   7   4   9   64.14    4.23
   7   4   9   71.95    4.31
  -8  -4  -9    0.32    0.38
   8   4   9    0.41    0.21
  -9  -4  -9    3.72    0.57
 -10  -4  -9   23.60    1.75
   6  -5  -9   26.13    1.91
   5  -5  -9    5.83    0.58
   4  -5  -9   14.63    1.09
   3  -5  -9   23.27    1.62
   2  -5  -9    8.58    0.70
  -2   5   9    9.33    0.69
   1  -5  -9   30.60    2.12
  -1   5   9   30.63    2.09
   0  -5  -9    0.28    0.32
   0   5   9    0.44    0.27
  -1  -5  -9   12.14    1.01
   1   5   9    7.79    0.96
  -2  -5  -9  315.54   21.73
   2   5   9  358.76   21.71
  -3  -5  -9  166.40   10.65
   3   5   9  163.03   10.64
  -4  -5  -9    7.22    0.67
   4   5   9    8.53    0.66
  -5  -5  -9   51.01    3.36
   5   5   9   48.39    3.35
  -6  -5  -9   17.92    1.48
   6   5   9   21.05    1.47
   6   5   9   21.36    1.44
  -7  -5  -9    0.14    0.28
   7   5   9    0.13    0.27
   7   5   9    0.23    0.20
  -8  -5  -9   87.32    5.83
   8   5   9   88.58    5.74
  -9  -5  -9  124.83    7.74
   9   5   9  112.55    7.66
 -10  -5  -9    0.45    0.69
   5  -6  -9    2.53    0.59
   4  -6  -9    2.19    0.34
   3  -6  -9   22.75    1.60
   2  -6  -9   28.01    1.91
   1  -6  -9    3.26    0.36
   0  -6  -9   47.12    3.15
  -1  -6  -9   70.46    4.60
  -2  -6  -9   22.87    1.56
   2   6   9   18.00    1.52
  -3  -6  -9    2.40    0.36
   3   6   9    2.79    0.34
  -4  -6  -9   56.40    3.90
   4   6   9   62.15    3.89
  -5  -6  -9    6.99    0.62
   5   6   9    6.39    0.59
  -6  -6  -9    0.72    0.26
   6   6   9    0.81    0.24
   6   6   9    1.05    0.25
  -7  -6  -9    5.73    0.56
   7   6   9    5.31    0.53
  -8  -6  -9   56.71    3.40
   8   6   9   40.92    3.31
  -9  -6  -9  141.44    8.86
   9   6   9  129.68    8.79
 -10  -6  -9   33.16    2.32
   4  -7  -9   16.35    1.32
   3  -7  -9    2.63    0.36
   2  -7  -9   16.83    1.21
   1  -7  -9  124.60    8.08
   0  -7  -9   20.80    1.43
  -1  -7  -9    9.26    0.73
  -2  -7  -9   10.03    0.82
  -3  -7  -9    0.48    0.35
  -4  -7  -9   56.50    3.76
  -5  -7  -9    1.07    0.27
  -6  -7  -9    4.17    0.48
   6   7   9    5.41    0.49
  -7  -7  -9   38.66    2.62
   7   7   9   36.62    2.61
  -8  -7  -9   11.67    0.95
   8   7   9   11.23    0.93
  -9  -7  -9   15.11    1.17
   9   7   9   13.77    1.13
 -10  -7  -9    2.12    0.48
  10   7   9    1.87    0.36
   3  -8  -9    0.25    0.45
   2  -8  -9    0.86    0.24
   1  -8  -9  115.03    7.48
   0  -8  -9   92.43    6.02
  -1  -8  -9    0.82    0.18
  -2  -8  -9   23.69    1.66
  -3  -8  -9   42.79    2.84
  -4  -8  -9    3.55    0.42
  -5  -8  -9  101.55    6.63
  -6  -8  -9  186.11   12.66
   6   8   9  205.47   12.64
  -7  -8  -9    6.56    0.69
   7   8   9    8.38    0.69
  -8  -8  -9    0.61    0.29
   8   8   9    0.44    0.26
  -9  -8  -9   12.95    1.07
   9   8   9   12.94    1.08
   2  -9  -9   28.97    2.02
   1  -9  -9    6.60    0.57
   0  -9  -9    2.10    0.28
  -1  -9  -9   55.62    3.65
  -2  -9  -9    7.32    0.58
  -3  -9  -9    0.31    0.32
  -4  -9  -9   10.13    0.80
  -5  -9  -9   11.26    1.14
  -6  -9  -9  122.15    8.26
   6   9   9  130.89    8.26
  -7  -9  -9   26.09    1.92
   7   9   9   29.36    1.95
  -8  -9  -9    6.89    0.72
   8   9   9    8.32    0.72
   0 -10  -9    1.52    0.24
  -1 -10  -9   16.22    1.14
  -2 -10  -9    1.66    0.24
  -3 -10  -9    5.80    0.49
  -4 -10  -9   33.46    2.27
  -5 -10  -9   39.89    2.68
   5  10   9   40.11    2.71
  -6 -10  -9    7.06    0.78
   6  10   9    8.01    0.84
  -7 -10  -9    3.03    0.43
   7  10   9    2.58    0.46
  -3  -6  10   14.79    1.25
  -2  -6  10   14.26    1.13
  -1  -6  10    2.80    0.47
   0  -6  10    1.57    0.38
   1  -6  10   16.72    1.22
   2  -6  10    1.98    0.27
   3  -6  10    8.78    0.69
  -5  -5  10    0.82    0.30
  -4  -5  10    1.95    0.45
  -3  -5  10   10.44    1.13
  -2  -5  10   29.26    2.12
  -1  -5  10    6.89    0.66
   0  -5  10    1.87    0.39
   1  -5  10   27.28    1.88
   2  -5  10    7.38    0.60
   3  -5  10    1.31    0.24
   4  -5  10   -0.02    0.13
   5  -5  10    0.15    0.16
  -6  -4  10    2.59    0.38
  -5  -4  10    7.31    0.71
  -4  -4  10    0.58    0.26
  -3  -4  10    1.08    0.36
  -2  -4  10    5.89    0.63
  -1  -4  10    0.49    0.29
   0  -4  10    0.31    0.29
   1  -4  10    0.89    0.41
   2  -4  10   -0.35    0.29
   3  -4  10    4.63    0.44
   4  -4  10    1.56    0.24
   5  -4  10    0.63    0.20
   6  -4  10    4.81    0.49
  -6  -3  10   42.02    2.89
  -5  -3  10   67.84    4.53
  -4  -3  10    4.20    0.53
  -3  -3  10    0.34    0.23
  -2  -3  10    1.65    0.34
  -1  -3  10    3.57    0.47
   0  -3  10    4.34    0.44
   1  -3  10   20.76    1.48
   2  -3  10    4.98    0.52
   3  -3  10    2.34    0.43
   4  -3  10    0.09    0.14
   5  -3  10    1.44    0.25
   6  -3  10   14.38    1.06
   7  -3  10    5.41    0.53
  -6  -2  10   14.92    1.22
  -5  -2  10   74.30    4.95
   4   2 -10   13.27    0.96
  -4  -2  10   10.98    0.98
   3   2 -10    0.60    0.25
  -3  -2  10    0.68    0.31
   2   2 -10    0.42    0.21
  -2  -2  10    0.46    0.21
   1   2 -10    0.27    0.18
  -1  -2  10    0.44    0.24
   0   2 -10   21.09    1.41
   0  -2  10   18.10    1.43
  -1   2 -10   20.93    1.47
   1  -2  10   15.16    1.51
  -2   2 -10   14.83    1.06
   2  -2  10   14.33    1.09
   3  -2  10    1.52    0.34
   4  -2  10    1.18    0.36
   5  -2  10   31.61    2.14
   6  -2  10    0.82    0.22
   7  -2  10    3.32    0.41
  -8   2 -10    1.20    0.22
   8  -2  10    0.61    0.23
   7   1 -10    5.78    0.55
  -7  -1  10    5.09    0.56
   6   1 -10    6.28    0.67
  -6  -1  10    6.34    0.70
   5   1 -10    3.72    0.55
  -5  -1  10    3.70    0.58
   4   1 -10    0.45    0.31
  -4  -1  10    0.77    0.37
   3   1 -10   13.45    0.97
  -3  -1  10   12.12    0.99
   2   1 -10    1.40    0.26
  -2  -1  10    1.33    0.31
   1   1 -10    3.13    0.35
  -1  -1  10    2.09    0.35
   0   1 -10    2.01    0.34
   0  -1  10    2.75    0.38
  -1   1 -10   26.71    1.88
  -2   1 -10   28.45    1.89
   2  -1  10   25.84    1.90
  -3   1 -10   17.51    1.24
   3  -1  10   17.19    1.26
  -4   1 -10    1.65    0.43
   4  -1  10    2.36    0.46
  -5   1 -10   46.00    2.95
   5  -1  10   42.86    2.97
   6  -1  10    5.39    0.51
   7  -1  10   -0.23    0.17
  -8   1 -10    0.39    0.17
   8  -1  10    0.35    0.20
   7   0 -10   14.09    1.09
  -7   0  10   14.00    1.09
   6   0 -10    0.31    0.19
  -6   0  10    0.35    0.48
   5   0 -10    4.71    0.59
  -5   0  10    5.47    0.62
   4   0 -10    0.47    0.35
  -4   0  10    0.51    0.39
   3   0 -10    0.14    0.32
  -3   0  10    0.02    0.35
   2   0 -10   32.47    2.24
  -2   0  10   32.72    2.25
   1   0 -10   13.45    0.98
  -1   0  10   12.64    0.98
   0   0 -10    3.56    0.38
   0   0  10    3.14    0.40
  -1   0 -10    1.14    0.27
   1   0  10    1.00    0.31
  -2   0 -10    2.38    0.37
   2   0  10    2.15    0.38
  -3   0 -10    0.64    0.26
   3   0  10    0.35    0.26
  -4   0 -10    0.26    0.26
   4   0  10    0.01    0.26
  -5   0 -10    0.45    0.31
   5   0  10    0.78    0.34
  -6   0 -10    0.03    0.33
   6   0  10   -0.04    0.34
  -7   0 -10   15.33    1.03
   7   0  10   11.56    1.20
  -8   0 -10    2.69    0.29
   8   0  10    2.69    0.37
  -9   0 -10    2.43    0.28
   9   0  10    2.44    0.37
   7  -1 -10   13.02    1.00
  -7   1  10   12.21    0.99
   6  -1 -10    2.33    0.34
  -6   1  10    2.31    0.65
   5  -1 -10    6.54    0.59
  -5   1  10    6.05    0.81
   4  -1 -10   13.05    1.04
  -4   1  10   12.86    1.03
   3  -1 -10   15.41    1.18
  -3   1  10   15.50    1.19
   2  -1 -10  107.43    7.04
  -2   1  10  108.48    7.04
   1  -1 -10   88.43    6.21
  -1   1  10  101.93    6.22
   0  -1 -10    7.52    0.60
   0   1  10    6.66    0.62
  -1  -1 -10    0.21    0.18
   1   1  10    0.12    0.14
  -2  -1 -10    0.86    0.24
   2   1  10    1.13    0.26
  -3  -1 -10    3.18    0.42
   3   1  10    2.70    0.43
  -4  -1 -10   13.95    1.03
   4   1  10   13.76    1.04
  -5  -1 -10   10.48    0.95
   5   1  10   11.73    0.81
   5   1  10   13.84    0.95
  -6  -1 -10   13.52    0.99
   6   1  10   11.85    0.99
  -7  -1 -10    9.94    0.80
   7   1  10    9.43    0.81
  -8  -1 -10    0.99    0.34
  -8  -1 -10    1.39    0.25
   8   1  10    0.66    0.47
  -9  -1 -10    0.71    0.16
   9   1  10    0.24    0.18
   6  -2 -10   35.40    2.43
  -6   2  10   35.47    2.42
   5  -2 -10   -0.08    0.15
  -5   2  10   -0.06    0.17
   4  -2 -10    0.27    0.18
  -4   2  10    0.09    0.42
   3  -2 -10    6.92    0.71
  -3   2  10    8.14    0.73
   2  -2 -10   12.04    1.08
  -2   2  10   15.29    1.07
   1  -2 -10   61.65    4.13
  -1   2  10   63.45    4.13
   0  -2 -10   10.54    0.80
   0   2  10   10.03    0.80
  -1  -2 -10    0.27    0.20
   1   2  10    0.38    0.22
  -2  -2 -10    2.00    0.30
   2   2  10    1.95    0.30
  -3  -2 -10    0.00    0.21
   3   2  10    0.16    0.21
  -4  -2 -10   16.79    1.33
   4   2  10   17.50    1.33
   5   2  10   24.18    1.88
  -6  -2 -10   13.13    1.16
   6   2  10   18.16    1.15
   6   2  10   14.47    1.02
  -7  -2 -10    0.10    0.34
   7   2  10   -0.04    0.34
  -8  -2 -10   18.02    1.13
  -8  -2 -10   18.30    1.35
   8   2  10   18.26    1.36
  -9  -2 -10   27.22    1.89
  10   2  10   -0.19    0.18
   6  -3 -10    0.37    0.21
   5  -3 -10   26.15    1.83
   4  -3 -10   21.40    1.53
  -4   3  10   21.53    1.52
   3  -3 -10    7.90    0.76
  -3   3  10    8.78    0.76
   2  -3 -10    2.36    0.45
  -2   3  10    2.30    0.42
   1  -3 -10   15.72    1.16
  -1   3  10   15.05    1.16
   0  -3 -10    3.67    0.42
   0   3  10    3.89    0.40
  -1  -3 -10   16.74    1.21
   1   3  10   17.69    1.21
  -2  -3 -10    0.57    0.22
   2   3  10    0.67    0.21
  -3  -3 -10   -0.12    0.18
   3   3  10   -0.01    0.17
  -4  -3 -10    4.81    0.52
   4   3  10    3.93    0.50
  -5  -3 -10   15.63    1.34
   5   3  10   18.75    1.35
  -6  -3 -10    7.19    0.74
   6   3  10    8.93    0.65
   6   3  10    9.13    0.73
  -7  -3 -10    5.39    0.59
   7   3  10    5.83    0.59
   7   3  10    5.83    0.45
  -8  -3 -10    0.34    0.49
   8   3  10    0.15    0.49
  -9  -3 -10   19.39    1.42
 -10  -3 -10    1.28    0.51
   6  -4 -10    7.29    0.68
   5  -4 -10   72.30    4.78
   4  -4 -10  114.12    7.46
   3  -4 -10   15.14    1.15
  -3   4  10   15.95    1.13
   2  -4 -10    3.65    0.54
  -2   4  10    4.49    0.52
   1  -4 -10   20.56    1.40
  -1   4  10   18.77    1.38
   0  -4 -10    0.06    0.30
   0   4  10    0.12    0.26
  -1  -4 -10   11.99    1.02
   1   4  10   15.57    1.02
  -2  -4 -10   59.86    3.94
   2   4  10   59.80    3.93
  -3  -4 -10   21.84    1.55
   3   4  10   22.60    1.54
  -4  -4 -10   -0.07    0.19
   4   4  10   -0.04    0.17
  -5  -4 -10    0.88    0.27
   5   4  10    0.91    0.28
  -6  -4 -10   -0.11    0.26
   6   4  10   -0.09    0.17
   6   4  10    0.00    0.25
  -7  -4 -10    3.87    0.47
   7   4  10    4.06    0.46
   7   4  10    3.76    0.35
  -8  -4 -10    5.53    0.57
   8   4  10    4.81    0.43
   8   4  10    5.60    0.58
  -9  -4 -10    0.22    0.42
 -10  -4 -10    0.47    0.52
   5  -5 -10    0.22    0.19
   4  -5 -10   41.62    2.82
   3  -5 -10    0.11    0.20
   2  -5 -10    5.19    0.51
   1  -5 -10    1.29    0.61
   0  -5 -10    3.84    0.46
   0   5  10    3.40    0.40
  -1  -5 -10   16.56    1.15
   1   5  10   15.25    1.14
  -2  -5 -10  132.16    8.40
   2   5  10  126.82    8.38
  -3  -5 -10   75.35    4.93
   3   5  10   75.39    4.92
  -4  -5 -10    5.20    0.49
   4   5  10    5.14    0.47
  -5  -5 -10   -0.03    0.20
   5   5  10    0.13    0.19
  -6  -5 -10    1.66    0.33
   6   5  10    1.60    0.29
   6   5  10    1.74    0.32
  -7  -5 -10   -0.28    0.29
   7   5  10    0.00    0.28
   7   5  10   -0.18    0.20
  -8  -5 -10    7.03    0.77
   8   5  10    7.73    0.65
  -9  -5 -10    2.20    0.51
 -10  -5 -10   11.05    0.96
   4  -6 -10    8.43    0.73
   3  -6 -10    3.70    0.43
   2  -6 -10   26.42    1.83
   1  -6 -10    0.03    0.16
   0  -6 -10    1.59    0.41
  -1  -6 -10    8.96    0.76
  -2  -6 -10   15.12    1.13
  -3  -6 -10   11.06    0.85
  -4  -6 -10   -0.01    0.23
   4   6  10    0.03    0.22
  -5  -6 -10    0.56    0.26
   5   6  10    0.58    0.22
  -6  -6 -10    1.73    0.33
   6   6  10    1.44    0.30
  -7  -6 -10    0.11    0.27
   7   6  10   -0.23    0.23
  -8  -6 -10    7.14    0.85
   8   6  10    7.82    0.75
  -9  -6 -10   18.87    1.49
   9   6  10   16.85    1.36
   3  -7 -10    6.87    0.63
   2  -7 -10    6.57    0.60
   1  -7 -10   68.79    4.53
   0  -7 -10   40.47    2.70
  -1  -7 -10    0.27    0.39
  -2  -7 -10   -0.06    0.30
  -3  -7 -10    3.24    0.42
  -4  -7 -10    0.39    0.30
  -5  -7 -10    0.02    0.26
  -6  -7 -10    0.30    0.27
   6   7  10    0.28    0.27
  -7  -7 -10    0.82    0.30
   7   7  10    1.18    0.29
  -8  -7 -10    3.25    0.50
   8   7  10    2.82    0.45
  -9  -7 -10   12.70    1.03
   9   7  10    9.74    0.94
   2  -8 -10    3.20    0.41
   1  -8 -10   97.29    6.35
   0  -8 -10   89.26    5.83
  -1  -8 -10    4.55    0.43
  -2  -8 -10    5.51    0.61
  -3  -8 -10   14.55    1.06
  -4  -8 -10    1.72    0.39
  -5  -8 -10   16.80    1.23
  -6  -8 -10   38.10    2.68
   6   8  10   41.40    2.68
  -7  -8 -10   12.04    1.01
   7   8  10   13.38    0.99
  -8  -8 -10    4.12    0.51
   8   8  10    4.13    0.50
   9   8  10    0.36    0.30
   1  -9 -10    1.26    0.26
   0  -9 -10    8.16    0.66
  -1  -9 -10    6.52    0.56
  -2  -9 -10    3.97    0.40
  -3  -9 -10   -0.04    0.43
  -4  -9 -10    3.11    0.43
  -5  -9 -10    3.78    0.48
  -6  -9 -10   70.68    4.76
   6   9  10   73.99    4.77
  -7  -9 -10   32.06    2.33
   7   9  10   35.89    2.34
   8   9  10    3.18    0.42
  -1 -10 -10    1.65    0.26
  -2 -10 -10    1.84    0.26
  -3 -10 -10    0.74    0.19
  -4 -10 -10    6.43    0.60
  -5 -10 -10    0.66    0.42
  -6 -10 -10   11.45    0.84
   6  10  10   10.02    0.94
  -3  -5  11    0.26    0.35
  -2  -5  11   19.48    1.44
  -1  -5  11    1.62    0.42
   0  -5  11   12.62    1.05
   1  -5  11  148.67    9.66
   2  -5  11   75.51    4.96
   3  -5  11    1.13    0.23
  -4  -4  11   10.09    0.99
  -3  -4  11    4.91    0.69
  -2  -4  11    0.22    0.31
  -1  -4  11    7.70    0.72
   0  -4  11   23.12    1.63
   1  -4  11   23.05    1.67
   2  -4  11   31.91    2.18
   3  -4  11    2.37    0.31
   4  -4  11    5.71    0.52
   5  -4  11   20.75    1.47
  -5  -3  11    1.92    0.44
  -4  -3  11    2.27    0.48
  -3  -3  11   -0.16    0.17
  -2  -3  11   23.66    1.77
  -1  -3  11    1.21    0.49
   0  -3  11   37.83    2.58
   1  -3  11   -0.14    0.30
   2  -3  11    1.31    0.44
   3  -3  11   68.87    4.55
   4  -3  11    9.25    0.73
   5  -3  11    3.57    0.40
   6  -3  11   19.14    1.37
  -5  -2  11    2.10    0.62
  -4  -2  11   -0.26    0.35
  -3  -2  11    9.74    0.90
  -2  -2  11   67.72    4.63
  -1  -2  11   51.10    3.49
   0  -2  11    2.26    0.36
   1  -2  11    9.73    0.79
   2  -2  11   15.12    1.13
   3  -2  11    5.99    0.63
   4  -2  11   26.33    1.84
   5  -2  11   88.86    5.81
   6  -2  11    0.41    0.20
   7  -2  11   17.89    1.30
   6   1 -11    5.00    0.53
  -6  -1  11    5.01    0.55
   5   1 -11    0.41    0.39
  -5  -1  11    0.41    0.46
   4   1 -11    5.68    0.60
  -4  -1  11    5.00    0.65
   3   1 -11   21.60    1.44
  -3  -1  11   18.07    1.45
   2   1 -11   20.83    1.57
  -2  -1  11   21.79    1.58
   1   1 -11   20.70    1.39
  -1  -1  11   16.39    1.43
   0   1 -11    4.32    0.53
  -1   1 -11    0.32    0.27
   1  -1  11    0.34    0.31
  -2   1 -11   15.07    1.07
   2  -1  11   14.65    1.09
  -3   1 -11   -0.02    0.25
   3  -1  11   -0.03    0.29
   4  -1  11   24.72    1.81
   5  -1  11  249.83   16.13
   6  -1  11   50.25    3.36
   7  -1  11    2.61    0.36
   6   0 -11   -0.18    0.18
  -6   0  11    0.40    0.24
   5   0 -11   15.55    1.29
  -5   0  11   17.78    1.34
   4   0 -11    1.97    0.56
  -4   0  11    1.40    0.60
   3   0 -11   20.55    1.48
  -3   0  11   17.88    1.48
   2   0 -11    0.81    0.31
  -2   0  11    0.99    0.35
   1   0 -11    2.42    0.38
  -1   0  11    2.42    0.41
   0   0 -11   37.01    2.46
   0   0  11   33.40    2.48
  -1   0 -11    7.51    0.77
   1   0  11   10.24    0.80
  -2   0 -11    0.75    0.27
   2   0  11    1.04    0.28
  -3   0 -11   33.93    2.23
   3   0  11   31.72    2.24
  -4   0 -11   34.11    2.29
   4   0  11   33.83    2.30
  -5   0 -11   11.36    1.07
   5   0  11   15.60    1.09
   6   0  11   -0.21    0.39
   7   0  11   11.71    0.97
   8   0  11   10.78    0.87
   6  -1 -11    0.36    0.24
  -6   1  11    0.29    0.23
   5  -1 -11   32.72    2.41
  -5   1  11   29.00    2.43
   4  -1 -11   23.93    1.71
  -4   1  11   22.42    1.73
   3  -1 -11    0.33    0.36
  -3   1  11    0.49    0.40
   2  -1 -11    0.32    0.39
  -2   1  11    0.40    0.40
   1  -1 -11    5.39    0.52
  -1   1  11    5.34    0.54
   0  -1 -11    6.27    0.55
   0   1  11    4.87    0.57
  -1  -1 -11    8.96    0.75
   1   1  11    8.35    0.77
  -2  -1 -11   95.01    6.14
   2   1  11   91.62    6.14
  -3  -1 -11    5.06    0.61
   3   1  11    5.33    0.62
  -4  -1 -11   25.73    1.80
   4   1  11   25.71    1.80
  -5  -1 -11    2.74    0.42
   5   1  11    3.24    0.42
  -6  -1 -11    4.81    0.52
   6   1  11    2.47    0.54
  -7  -1 -11   49.56    3.25
   7   1  11   46.81    3.25
   8   1  11    0.65    0.45
   6  -2 -11    2.40    0.38
   5  -2 -11    1.85    0.32
  -5   2  11    1.68    0.32
   4  -2 -11    4.49    0.73
  -4   2  11    3.03    0.72
   3  -2 -11    7.77    0.78
  -3   2  11    9.18    0.79
   2  -2 -11    9.77    0.85
  -2   2  11    8.86    0.84
   1  -2 -11    0.31    0.41
  -1   2  11    0.14    0.42
   0  -2 -11    0.31    0.28
   0   2  11    0.71    0.29
  -1  -2 -11   35.45    2.45
   1   2  11   35.18    2.46
  -2  -2 -11  102.67    7.27
   2   2  11  116.84    7.25
  -3  -2 -11   23.58    1.81
   3   2  11   26.25    1.80
  -4  -2 -11    1.78    0.32
   4   2  11    1.90    0.31
  -5  -2 -11   45.27    3.17
   5   2  11   49.59    3.16
  -6  -2 -11   20.90    1.48
   6   2  11   20.75    1.49
  -7  -2 -11    1.91    0.43
   7   2  11    2.58    0.45
  -8  -2 -11   55.77    3.79
   8   2  11   57.51    3.80
  -9  -2 -11  112.67    7.36
   5  -3 -11    1.50    0.30
   4  -3 -11    3.41    0.44
  -4   3  11    3.26    0.42
   3  -3 -11   12.99    1.29
  -3   3  11   13.51    1.27
   2  -3 -11    7.52    0.75
  -2   3  11    7.51    0.74
   1  -3 -11    0.40    0.36
  -1   3  11    0.22    0.33
   0  -3 -11   13.24    1.09
   0   3  11   12.66    1.08
  -1  -3 -11   30.21    2.09
   1   3  11   31.21    2.09
  -2  -3 -11    9.14    0.79
   2   3  11    8.82    0.78
  -3  -3 -11    0.82    0.25
   3   3  11    0.80    0.24
  -4  -3 -11   13.61    1.09
   4   3  11   14.08    1.08
  -5  -3 -11    0.62    0.34
   5   3  11    0.27    0.32
  -6  -3 -11    0.75    0.34
   6   3  11    0.76    0.22
   6   3  11    0.56    0.32
  -7  -3 -11   17.66    1.27
   7   3  11   16.72    1.26
  -8  -3 -11   39.29    2.79
   8   3  11   39.95    2.78
  -9  -3 -11  185.02   12.02
   5  -4 -11   11.39    0.94
   4  -4 -11    6.28    0.62
   3  -4 -11    2.35    0.36
   2  -4 -11    3.80    0.71
   1  -4 -11   50.61    3.52
  -1   4  11   54.00    3.50
   0  -4 -11    0.91    0.55
   0   4  11    0.83    0.51
  -1  -4 -11   18.54    1.30
   1   4  11   16.63    1.29
  -2  -4 -11    0.23    0.27
   2   4  11    0.24    0.23
  -3  -4 -11    3.95    0.48
   3   4  11    3.65    0.46
  -4  -4 -11   24.44    1.94
   4   4  11   28.54    1.91
  -5  -4 -11    0.69    0.29
   5   4  11    0.84    0.28
  -6  -4 -11    1.36    0.46
   6   4  11    1.38    0.43
   6   4  11    0.63    0.33
  -7  -4 -11   38.19    2.59
   7   4  11   36.80    2.58
   7   4  11   37.53    2.48
  -8  -4 -11    7.48    0.72
   8   4  11    5.80    0.68
  -9  -4 -11    4.65    0.64
   4  -5 -11    4.26    0.51
   3  -5 -11    3.50    0.46
   2  -5 -11    2.49    0.94
   1  -5 -11   45.32    3.30
   0  -5 -11   24.99    1.77
  -1  -5 -11    2.40    0.40
   1   5  11    2.05    0.35
  -2  -5 -11    7.01    0.77
   2   5  11    6.94    0.73
  -3  -5 -11    8.04    0.68
   3   5  11    8.47    0.66
  -4  -5 -11    1.52    0.30
   4   5  11    1.21    0.26
  -5  -5 -11   22.10    1.79
   5   5  11   26.42    1.78
  -6  -5 -11   75.10    5.61
   6   5  11   89.20    5.58
   6   5  11   87.05    5.54
  -7  -5 -11    5.11    0.71
   7   5  11    7.38    0.69
   7   5  11    7.11    0.59
  -8  -5 -11    0.83    0.46
   8   5  11    1.75    0.42
  -9  -5 -11    9.69    0.89
   3  -6 -11    2.88    0.40
   2  -6 -11    2.94    0.40
   1  -6 -11    0.48    0.19
   0  -6 -11   -0.07    0.40
  -1  -6 -11   12.29    0.95
  -2  -6 -11    5.50    0.61
  -3  -6 -11    2.65    0.37
  -4  -6 -11   18.20    1.30
  -5  -6 -11   37.14    2.58
  -6  -6 -11   97.46    6.73
   6   6  11  105.43    6.69
  -7  -6 -11    7.35    0.77
   7   6  11    7.65    0.70
  -8  -6 -11    0.36    0.39
   8   6  11    0.16    0.26
  -9  -6 -11   29.90    2.13
   3  -7 -11    0.29    0.24
   2  -7 -11   11.93    0.94
   1  -7 -11    3.74    0.43
   0  -7 -11    1.39    0.26
  -1  -7 -11   11.29    1.03
  -2  -7 -11    2.30    0.43
  -3  -7 -11    0.06    0.41
  -4  -7 -11   15.56    1.22
  -5  -7 -11    9.48    0.80
  -6  -7 -11    3.54    0.52
   6   7  11    4.65    0.50
  -7  -7 -11    4.70    0.56
   7   7  11    4.53    0.51
  -8  -7 -11   14.38    1.25
   8   7  11   15.01    1.18
   1  -8 -11    3.96    0.45
   0  -8 -11    3.23    0.38
  -1  -8 -11    1.66    0.29
  -2  -8 -11    6.61    0.82
  -3  -8 -11   63.79    4.22
  -4  -8 -11    4.92    0.57
  -5  -8 -11    5.27    0.53
  -6  -8 -11    2.97    0.42
   6   8  11    3.63    0.44
  -7  -8 -11    6.23    0.68
   7   8  11    6.48    0.65
  -8  -8 -11    7.21    0.74
   8   8  11    7.52    0.72
   0  -9 -11    4.21    0.44
  -1  -9 -11    5.96    0.55
  -2  -9 -11    2.60    0.33
  -3  -9 -11   46.13    3.07
  -4  -9 -11    2.43    0.44
  -5  -9 -11    3.18    0.49
  -6  -9 -11    6.10    0.76
   6   9  11    7.15    0.78
  -2  -4  12    1.56    0.53
  -1  -4  12   -0.29    0.33
   0  -4  12    2.24    0.61
   1  -4  12   29.33    2.29
   2  -4  12   43.17    2.95
   3  -4  12   -0.02    0.16
  -3  -3  12    3.82    0.56
  -2  -3  12   10.86    1.05
  -1  -3  12    9.04    0.86
   0  -3  12   23.95    1.77
   1  -3  12    5.38    0.60
   2  -3  12    0.73    0.39
   3  -3  12    8.68    0.82
   4  -3  12    0.26    0.17
  -4  -2  12   12.19    1.02
  -3  -2  12    6.29    0.74
  -2  -2  12  104.47    7.02
  -1  -2  12  102.44    6.83
   0  -2  12    1.20    0.41
   1  -2  12    1.31    0.39
   2  -2  12   21.44    1.53
   3  -2  12    0.44    0.55
   4  -2  12   -0.07    0.37
   5  -2  12   35.60    2.42
   6  -2  12    0.82    0.22
  -4  -1  12    0.12    0.41
  -3  -1  12   11.18    0.99
   2   1 -12   54.10    3.69
  -2  -1  12   54.36    3.70
   1   1 -12   42.64    2.85
  -1  -1  12   39.66    2.93
   0   1 -12    0.03    0.21
   0  -1  12    0.26    0.30
   1  -1  12    2.02    0.67
   2  -1  12   43.26    2.96
   4  -1  12   10.90    1.25
   5  -1  12  121.78    8.00
   6  -1  12   51.81    3.46
   5   0 -12   23.66    1.70
   4   0 -12   20.89    1.64
  -4   0  12   24.49    1.67
   3   0 -12   24.18    1.76
  -3   0  12   23.55    1.77
   2   0 -12    9.63    0.77
  -2   0  12    8.03    0.78
   1   0 -12   -0.02    0.24
  -1   0  12    0.28    0.31
   0   0 -12   22.10    1.76
   0   0  12   25.23    1.80
  -1   0 -12    7.60    0.75
   1   0  12    8.46    0.78
  -2   0 -12    1.53    0.34
   2   0  12    2.11    0.36
  -3   0 -12   12.78    0.97
   3   0  12   12.45    0.99
  -4   0 -12   10.87    0.90
   4   0  12    8.01    0.91
   5   0  12   26.07    2.06
   6   0  12   23.10    1.68
   7   0  12   -0.04    0.17
   5  -1 -12   95.76    6.31
   4  -1 -12  138.90    9.39
  -4   1  12  148.57    9.40
   3  -1 -12    4.96    0.57
  -3   1  12    2.85    0.56
   2  -1 -12    1.78    0.40
  -2   1  12    1.27    0.43
   1  -1 -12   58.15    3.70
  -1   1  12   52.57    3.71
   0  -1 -12    4.23    0.50
   0   1  12    4.72    0.55
  -1  -1 -12    1.07    0.30
   1   1  12    1.34    0.34
  -2  -1 -12   57.47    3.32
   2   1  12   39.43    3.33
  -3  -1 -12   11.63    0.88
   3   1  12    7.17    0.90
  -4  -1 -12    8.82    0.81
   4   1  12    9.33    0.81
  -5  -1 -12    0.44    0.38
   5   1  12    0.37    0.36
  -6  -1 -12    1.84    0.60
   6   1  12    2.82    0.61
   7   1  12   19.43    1.52
   8   1  12    0.04    0.46
   4  -2 -12   32.47    2.32
  -4   2  12   31.42    2.32
   3  -2 -12    2.45    0.54
  -3   2  12    2.74    0.52
   2  -2 -12    1.63    0.57
  -2   2  12    1.82    0.59
   1  -2 -12   51.66    3.57
  -1   2  12   54.39    3.57
   0  -2 -12    0.69    0.32
   0   2  12    0.47    0.35
  -1  -2 -12   22.70    1.61
   1   2  12   20.16    1.61
  -2  -2 -12  160.11    9.79
   2   2  12  138.57    9.79
  -3  -2 -12   76.28    5.58
   3   2  12   90.55    5.57
  -4  -2 -12    2.37    0.40
   4   2  12    3.04    0.41
  -5  -2 -12   20.59    1.39
   5   2  12   17.11    1.39
  -6  -2 -12   10.30    0.83
   6   2  12    8.61    0.84
  -7  -2 -12    0.29    0.43
   7   2  12    0.63    0.44
  -8  -2 -12   29.78    1.95
   8   2  12   23.32    1.96
   4  -3 -12    2.39    0.37
   3  -3 -12   17.53    1.38
   2  -3 -12   32.13    2.27
  -2   3  12   33.14    2.27
   1  -3 -12   -0.27    0.37
  -1   3  12   -0.09    0.36
   0  -3 -12   12.24    0.92
   0   3  12   10.14    0.92
  -1  -3 -12   45.44    2.91
   1   3  12   40.91    2.90
  -2  -3 -12   36.85    2.49
   2   3  12   33.35    2.47
  -3  -3 -12   12.16    0.97
   3   3  12   11.10    0.96
  -4  -3 -12    7.29    0.69
   4   3  12    6.72    0.68
  -5  -3 -12    2.23    0.58
   5   3  12    1.74    0.55
  -6  -3 -12   12.18    1.04
   6   3  12   13.62    1.03
  -7  -3 -12    0.16    0.41
   7   3  12    0.14    0.40
  -8  -3 -12   29.37    2.13
   8   3  12   22.40    2.14
   4  -4 -12   32.23    2.25
   3  -4 -12    4.28    0.66
   2  -4 -12    0.06    0.51
   1  -4 -12  124.39    8.12
   0  -4 -12   34.16    2.41
   0   4  12   35.87    2.40
  -1  -4 -12   13.12    1.12
   1   4  12   15.61    1.09
  -2  -4 -12    2.32    0.39
   2   4  12    2.50    0.36
  -3  -4 -12    3.18    0.42
   3   4  12    2.48    0.40
  -4  -4 -12   27.36    2.11
   4   4  12   30.42    2.09
  -5  -4 -12    1.43    0.37
   5   4  12    1.60    0.34
  -6  -4 -12    2.99    0.47
   6   4  12    3.47    0.42
   6   4  12    3.30    0.35
  -7  -4 -12   23.75    1.75
   7   4  12   24.15    1.72
  -8  -4 -12   13.56    1.13
   8   4  12   13.47    1.12
   3  -5 -12    0.13    0.23
   2  -5 -12    1.36    0.75
   1  -5 -12  163.75   10.68
   0  -5 -12  149.64    9.74
  -1  -5 -12    6.06    0.62
  -2  -5 -12   19.83    1.32
   2   5  12   15.81    1.30
  -3  -5 -12   39.72    2.68
   3   5  12   39.71    2.66
  -4  -5 -12    0.97    0.33
   4   5  12    0.82    0.28
  -5  -5 -12   31.68    2.17
   5   5  12   28.64    2.15
  -6  -5 -12   70.22    4.56
   6   5  12   62.91    4.52
  -7  -5 -12    7.49    0.84
   7   5  12    6.69    0.80
  -8  -5 -12    0.24    0.39
   2  -6 -12   36.32    2.50
   1  -6 -12    3.91    0.89
   0  -6 -12   14.57    1.18
  -1  -6 -12   29.50    2.05
  -2  -6 -12   10.82    0.90
  -3  -6 -12   10.30    0.87
  -4  -6 -12    0.88    0.35
  -5  -6 -12   37.27    2.60
  -6  -6 -12   84.40    5.72
  -7  -6 -12   25.23    1.88
   7   6  12   24.28    1.80
  -8  -6 -12    6.60    0.77
   1  -7 -12    0.20    0.22
   0  -7 -12    5.06    0.51
  -1  -7 -12   26.30    1.90
  -2  -7 -12    5.91    0.62
  -3  -7 -12    2.56    0.47
  -4  -7 -12   20.19    1.48
  -5  -7 -12   29.80    2.07
  -6  -7 -12   12.02    1.04
  -7  -7 -12    0.18    0.30
   7   7  12    0.18    0.25
   0  -8 -12   34.30    2.34
  -1  -8 -12   -0.17    0.49
  -2  -8 -12   21.63    1.62
  -3  -8 -12  148.15    9.62
  -4  -8 -12   19.22    1.41
  -5  -8 -12   -0.13    0.32
  -6  -8 -12   18.76    1.39
  -3  -9 -12   84.08    5.51
  -4  -9 -12   50.30    3.35
   0  -3  13    2.51    0.48
   1  -3  13    1.85    0.51
  -2  -2  13   10.69    1.06
  -1  -2  13   14.57    1.29
   0  -2  13    2.11    0.47
   1  -2  13    0.08    0.35
   2  -2  13   12.33    0.99
   3  -2  13    2.59    0.53
   4  -2  13    3.24    0.51
  -3  -1  13    0.96    0.27
  -2  -1  13   11.03    1.02
  -1  -1  13   17.85    1.47
   0  -1  13    2.78    0.52
   1  -1  13   -0.27    0.30
   2  -1  13    8.17    0.73
   3  -1  13    7.21    0.69
   4  -1  13    3.86    0.66
   5  -1  13    7.03    0.92
  -3   0  13    0.90    0.47
   2   0 -13    1.14    0.38
  -2   0  13    0.93    0.44
   1   0 -13    2.38    0.39
  -1   0  13    2.42    0.46
   0   0 -13    0.37    0.25
   0   0  13    0.55    0.27
  -1   0 -13    0.21    0.26
   1   0  13   -0.15    0.27
   2   0  13    0.46    0.31
   3   0  13    0.56    0.34
   4   0  13   11.54    0.99
   5   0  13    4.17    0.88
   6   0  13    2.08    0.56
   3  -1 -13    8.95    0.84
  -3   1  13    8.29    0.85
   2  -1 -13   -0.10    0.37
  -2   1  13   -0.57    0.39
   1  -1 -13   -0.02    0.29
  -1   1  13   -0.16    0.33
   0  -1 -13    0.09    0.25
   0   1  13   -0.05    0.29
  -1  -1 -13    0.34    0.23
   1   1  13    0.10    0.27
  -2  -1 -13    7.05    0.78
   2   1  13    7.91    0.79
  -3  -1 -13    5.69    0.58
   3   1  13    5.79    0.60
  -4  -1 -13    2.90    0.41
   4   1  13    2.40    0.40
  -5  -1 -13   -0.02    0.37
   5   1  13   -0.09    0.35
   6   1  13   -0.07    0.36
   3  -2 -13    5.81    0.72
  -3   2  13    6.25    0.63
   2  -2 -13    2.07    0.57
  -2   2  13    2.37    0.61
   1  -2 -13    0.17    0.42
  -1   2  13    0.45    0.45
   0  -2 -13    0.31    0.30
   0   2  13    0.08    0.33
  -1  -2 -13    6.98    0.65
   1   2  13    6.17    0.68
  -2  -2 -13   27.90    1.98
   2   2  13   25.81    1.98
  -3  -2 -13   12.17    1.10
   3   2  13   14.09    1.10
  -4  -2 -13    2.46    0.40
   4   2  13    2.56    0.39
  -5  -2 -13    2.34    0.41
   5   2  13    2.16    0.38
  -6  -2 -13   10.80    0.87
   6   2  13   10.18    0.87
  -7  -2 -13   -0.19    0.44
   7   2  13    0.07    0.41
   3  -3 -13    0.17    0.22
   2  -3 -13    9.83    0.92
   1  -3 -13    0.10    0.46
  -1   3  13    0.38    0.46
   0  -3 -13    0.12    0.32
   0   3  13    0.54    0.35
  -1  -3 -13    0.90    0.37
   1   3  13    0.85    0.37
  -2  -3 -13   10.07    0.82
   2   3  13    8.61    0.81
  -3  -3 -13    9.28    0.76
   3   3  13    7.28    0.76
  -4  -3 -13    2.06    0.37
   4   3  13    1.46    0.34
  -5  -3 -13    0.37    0.33
   5   3  13    0.15    0.29
  -6  -3 -13    9.13    0.84
   6   3  13   10.57    0.83
  -7  -3 -13    7.29    0.74
   7   3  13    7.42    0.72
   2  -4 -13    0.78    0.55
   1  -4 -13   29.87    2.12
   0  -4 -13   22.94    1.66
  -1  -4 -13    0.46    0.37
   1   4  13    0.45    0.32
  -2  -4 -13    0.64    0.34
   2   4  13    0.84    0.30
  -3  -4 -13    0.53    0.30
   3   4  13    0.59    0.28
  -4  -4 -13    1.00    0.31
   4   4  13    0.85    0.29
  -5  -4 -13    0.38    0.31
   5   4  13    0.52    0.29
  -6  -4 -13    1.70    0.43
   6   4  13    1.52    0.38
  -7  -4 -13    0.20    0.39
   7   4  13    0.32    0.36
   2  -5 -13    5.41    0.59
   1  -5 -13   68.52    4.58
   0  -5 -13   76.31    5.04
  -1  -5 -13    3.87    0.53
  -2  -5 -13    0.29    0.35
  -3  -5 -13    1.74    0.37
  -4  -5 -13   -0.14    0.28
  -5  -5 -13    1.14    0.35
  -6  -5 -13    7.13    0.78
  -7  -5 -13    7.66    0.77
   1  -6 -13    0.25    0.24
   0  -6 -13   14.93    1.19
  -1  -6 -13   -0.22    0.42
  -2  -6 -13    0.63    0.46
  -3  -6 -13    0.25    0.42
  -4  -6 -13    3.16    0.45
  -5  -6 -13    5.58    0.61
  -6  -6 -13   18.05    1.49
  -1  -7 -13    0.29    0.21
  -2  -7 -13    1.31    0.44
  -3  -7 -13    0.46    0.43
  -4  -7 -13    1.16    0.36
  -5  -7 -13    1.95    0.43
  -6  -7 -13   12.77    0.98
   0   0  14    7.29    0.81
   1   0  14   17.22    1.42
   2   0  14    2.45    0.64
   3   0  14    3.84    0.50
   1  -1 -14   29.41    2.19
  -1   1  14   33.75    2.22
   0  -1 -14   10.38    0.96
   0   1  14   11.61    1.01
  -1  -1 -14   13.33    1.15
   1   1  14   13.39    1.18
  -2  -1 -14    0.00    0.30
   2   1  14    0.02    0.30
   3   1  14    1.43    0.46
   4   1  14   41.57    2.86
   1  -2 -14   43.42    3.10
   0  -2 -14   38.70    2.65
   0   2  14   38.17    2.66
  -1  -2 -14   -0.06    0.28
   1   2  14   -0.11    0.31
  -2  -2 -14    2.05    0.39
   2   2  14    1.86    0.40
  -3  -2 -14    5.26    0.65
   3   2  14    5.21    0.64
  -4  -2 -14    0.97    0.45
   4   2  14    1.30    0.44
  -5  -2 -14   14.65    1.11
   5   2  14   12.71    1.08
   0  -3 -14    1.44    0.45
   0   3  14    0.57    0.44
  -1  -3 -14   14.99    1.14
   1   3  14   14.49    1.13
  -2  -3 -14    4.99    0.58
   2   3  14    4.90    0.56
  -3  -3 -14    0.16    0.27
   3   3  14    0.12    0.26
  -4  -3 -14    4.01    0.53
   4   3  14    2.77    0.50
  -5  -3 -14    4.73    0.92
   5   3  14    7.12    0.90
   0  -4 -14    0.04    0.52
  -1  -4 -14   22.80    1.74
  -2  -4 -14    9.54    0.83
  -3  -4 -14    1.63    0.40
   3   4  14    1.91    0.38
  -4  -4 -14   11.77    1.09
   4   4  14   13.00    1.07
  -5  -4 -14   14.73    1.15
   5   4  14   11.55    1.13
  -1  -5 -14    2.57    0.57
  -2  -5 -14    5.19    0.69
  -3  -5 -14   64.79    4.31
  -4  -5 -14   11.54    0.99
  -5  -5 -14    5.16    0.60
  -3  -6 -14   91.26    5.99
  -4  -6 -14   15.93    1.18
   0   0   0    0.00    0.00
;
_shelx_hkl_checksum              41209
loop_
_space_group_symop_operation_xyz
'x, y, z'
'-x, -y, -z'
loop_
_atom_site_label
_atom_site_type_symbol
_atom_site_fract_x
_atom_site_fract_y
_atom_site_fract_z
_atom_site_U_iso_or_equiv
_atom_site_adp_type
_atom_site_occupancy
_atom_site_site_symmetry_order
_atom_site_calc_flag
_atom_site_refinement_flags_posn
_atom_site_refinement_flags_adp
_atom_site_refinement_flags_occupancy
_atom_site_disorder_assembly
_atom_site_disorder_group
I1 I 0.52699(8) 0.20194(8) 0.36912(7) 0.0155(2) Uani 1 1 d . . . . .
I2 I 0.44696(8) 0.82072(7) 0.28929(6) 0.0152(2) Uani 1 1 d . . . . .
I3 I 0.20625(8) 0.52974(8) 0.72369(6) 0.0154(2) Uani 1 1 d . . . . .
I4 I 0.18011(8) 0.54910(8) 0.38130(7) 0.0146(2) Uani 1 1 d . . . . .
Mo1 Mo 0.37234(9) 0.37086(9) 0.54480(7) 0.0089(2) Uani 1 1 d . . . . .
Mo2 Mo 0.48737(9) 0.51048(9) 0.33708(7) 0.0101(2) Uani 1 1 d . . . . .
Mo3 Mo 0.33573(9) 0.66525(9) 0.50555(8) 0.0101(2) Uani 1 1 d . . . . .
S1 S 0.7161(4) 0.7258(3) -0.0960(3) 0.0217(6) Uani 1 1 d . . . . .
O1 O 0.2317(8) 0.2307(8) 0.5890(7) 0.0129(14) Uani 1 1 d . . . . .
O1W O 0.1319(9) 0.1395(8) 0.4320(8) 0.0194(17) Uani 1 1 d . . . . .
O2 O 0.4700(10) 0.5306(10) 0.1479(7) 0.0205(17) Uani 1 1 d . U . . .
O3 O 0.1476(9) 0.8559(9) 0.5131(10) 0.028(2) Uani 1 1 d . . . . .
O11A O 0.6879(14) 0.5802(13) -0.0314(10) 0.019(2) Uani 0.795(13) 1 d . . P A 1
O11B O 0.744(6) 0.569(6) -0.068(4) 0.019(2) Uani 0.205(13) 1 d . . P A 2
O12A O 0.8235(14) 0.7065(13) -0.2041(11) 0.028(3) Uani 0.795(13) 1 d . . P A 1
O12B O 0.719(5) 0.813(5) -0.204(4) 0.028(3) Uani 0.205(13) 1 d . . P A 2
O13A O 0.5800(14) 0.8362(14) -0.1201(11) 0.032(3) Uani 0.795(13) 1 d . . P A 1
O13B O 0.554(6) 0.733(5) -0.032(4) 0.032(3) Uani 0.205(13) 1 d . . P A 2
C1 C 0.8024(14) 0.7890(14) -0.0017(11) 0.021(2) Uani 1 1 d . . . . .
C2 C 0.9451(15) 0.7189(13) 0.0219(12) 0.024(3) Uani 1 1 d . . . . .
H2 H 0.9968 0.6313 -0.0100 0.029 Uiso 1 1 calc R U . . .
C3 C 1.0140(15) 0.7743(14) 0.0912(12) 0.024(3) Uani 1 1 d . . . . .
H3 H 1.1132 0.7254 0.1054 0.029 Uiso 1 1 calc R U . . .
C4 C 0.9383(14) 0.9036(14) 0.1417(10) 0.021(2) Uani 1 1 d . . . . .
C5 C 0.7951(15) 0.9724(14) 0.1160(11) 0.023(2) Uani 1 1 d . . . . .
H5 H 0.7422 1.0600 0.1476 0.028 Uiso 1 1 calc R U . . .
C6 C 0.7271(13) 0.9170(14) 0.0457(11) 0.022(2) Uani 1 1 d . . . . .
H6 H 0.6285 0.9664 0.0297 0.026 Uiso 1 1 calc R U . . .
C7 C 1.0099(17) 0.9660(15) 0.2167(12) 0.029(3) Uani 1 1 d . . . . .
H7A H 0.9697 1.0746 0.2067 0.044 Uiso 1 1 calc R U . . .
H7B H 1.1175 0.9435 0.1915 0.044 Uiso 1 1 calc R U . . .
H7C H 0.9897 0.9210 0.3014 0.044 Uiso 1 1 calc R U . . .
loop_
_atom_site_aniso_label
_atom_site_aniso_U_11
_atom_site_aniso_U_22
_atom_site_aniso_U_33
_atom_site_aniso_U_23
_atom_site_aniso_U_13
_atom_site_aniso_U_12
I1 0.0146(4) 0.0131(4) 0.0213(4) -0.0075(3) -0.0007(3) -0.0050(3)
I2 0.0137(4) 0.0121(4) 0.0190(4) 0.0028(3) -0.0055(3) -0.0042(3)
I3 0.0110(4) 0.0174(4) 0.0175(4) -0.0046(3) 0.0024(3) -0.0048(3)
I4 0.0097(4) 0.0156(4) 0.0195(4) -0.0003(3) -0.0064(3) -0.0041(3)
Mo1 0.0075(5) 0.0087(4) 0.0115(5) -0.0020(3) -0.0019(3) -0.0030(3)
Mo2 0.0094(5) 0.0118(4) 0.0104(5) -0.0017(3) -0.0019(3) -0.0045(3)
Mo3 0.0060(4) 0.0081(4) 0.0160(5) -0.0019(3) -0.0016(3) -0.0013(3)
S1 0.0266(16) 0.0220(14) 0.0211(14) -0.0016(11) -0.0090(12) -0.0113(12)
O1 0.014(4) 0.018(4) 0.012(3) -0.001(3) -0.003(3) -0.014(3)
O1W 0.016(4) 0.015(4) 0.026(4) -0.002(3) -0.004(3) -0.002(3)
O2 0.028(4) 0.033(4) 0.011(3) -0.003(3) -0.005(3) -0.024(3)
O3 0.010(4) 0.006(3) 0.061(6) -0.004(4) 0.002(4) 0.004(3)
O11A 0.021(7) 0.030(5) 0.014(6) -0.004(4) 0.005(4) -0.023(6)
O11B 0.021(7) 0.030(5) 0.014(6) -0.004(4) 0.005(4) -0.023(6)
O12A 0.033(6) 0.032(6) 0.026(6) -0.005(5) 0.001(5) -0.023(5)
O12B 0.033(6) 0.032(6) 0.026(6) -0.005(5) 0.001(5) -0.023(5)
O13A 0.038(7) 0.037(6) 0.024(6) -0.008(5) -0.023(5) 0.000(5)
O13B 0.038(7) 0.037(6) 0.024(6) -0.008(5) -0.023(5) 0.000(5)
C1 0.023(6) 0.025(6) 0.018(6) -0.001(5) -0.003(5) -0.010(5)
C2 0.029(7) 0.017(5) 0.027(6) 0.000(5) -0.008(5) -0.007(5)
C3 0.024(6) 0.023(6) 0.028(7) 0.006(5) -0.016(5) -0.008(5)
C4 0.027(6) 0.027(6) 0.012(5) 0.004(4) -0.007(4) -0.015(5)
C5 0.029(7) 0.026(6) 0.016(6) -0.008(5) -0.001(5) -0.007(5)
C6 0.011(5) 0.027(6) 0.029(6) -0.007(5) -0.001(5) -0.005(5)
C7 0.045(8) 0.027(6) 0.028(7) -0.002(5) -0.018(6) -0.021(6)
loop_
_atom_type_symbol
_atom_type_description
_atom_type_scat_dispersion_real
_atom_type_scat_dispersion_imag
_atom_type_scat_source
O O 0.0106 0.0060 'International Tables Vol C Tables 4.2.6.8 and 6.1.1.4'
H H 0.0000 0.0000 'International Tables Vol C Tables 4.2.6.8 and 6.1.1.4'
Mo Mo -1.6832 0.6857 'International Tables Vol C Tables 4.2.6.8 and 6.1.1.4'
I I -0.4742 1.8119 'International Tables Vol C Tables 4.2.6.8 and 6.1.1.4'
S S 0.1246 0.1234 'International Tables Vol C Tables 4.2.6.8 and 6.1.1.4'
C C 0.0033 0.0016 'International Tables Vol C Tables 4.2.6.8 and 6.1.1.4'
loop_
_geom_angle_atom_site_label_1
_geom_angle_atom_site_label_2
_geom_angle_atom_site_label_3
_geom_angle
_geom_angle_site_symmetry_1
_geom_angle_site_symmetry_3
_geom_angle_publ_flag
Mo3 I1 Mo2 57.12(3) 2_666 . ?
Mo3 I1 Mo1 56.81(3) 2_666 . ?
Mo2 I1 Mo1 56.99(3) . . ?
Mo3 I2 Mo1 56.79(3) . 2_666 ?
Mo3 I2 Mo2 56.68(3) . . ?
Mo1 I2 Mo2 56.64(3) 2_666 . ?
Mo3 I3 Mo2 57.06(3) . 2_666 ?
Mo3 I3 Mo1 56.81(3) . . ?
Mo2 I3 Mo1 56.71(3) 2_666 . ?
Mo2 I4 Mo3 56.69(3) . . ?
Mo2 I4 Mo1 56.91(3) . . ?
Mo3 I4 Mo1 56.71(3) . . ?
O1 Mo1 Mo2 136.4(2) . 2_666 ?
O1 Mo1 Mo3 135.2(2) . 2_666 ?
Mo2 Mo1 Mo3 59.90(3) 2_666 2_666 ?
O1 Mo1 Mo3 134.8(2) . . ?
Mo2 Mo1 Mo3 60.22(3) 2_666 . ?
Mo3 Mo1 Mo3 89.91(3) 2_666 . ?
O1 Mo1 Mo2 133.6(2) . . ?
Mo2 Mo1 Mo2 90.05(4) 2_666 . ?
Mo3 Mo1 Mo2 60.12(3) 2_666 . ?
Mo3 Mo1 Mo2 59.72(3) . . ?
O1 Mo1 I1 87.5(2) . . ?
Mo2 Mo1 I1 121.25(4) 2_666 . ?
Mo3 Mo1 I1 61.36(3) 2_666 . ?
Mo3 Mo1 I1 121.09(4) . . ?
Mo2 Mo1 I1 61.38(3) . . ?
O1 Mo1 I2 89.2(2) . 2_666 ?
Mo2 Mo1 I2 61.68(3) 2_666 2_666 ?
Mo3 Mo1 I2 61.39(3) 2_666 2_666 ?
Mo3 Mo1 I2 121.90(4) . 2_666 ?
Mo2 Mo1 I2 121.49(4) . 2_666 ?
I1 Mo1 I2 89.63(3) . 2_666 ?
O1 Mo1 I3 89.2(2) . . ?
Mo2 Mo1 I3 61.50(3) 2_666 . ?
Mo3 Mo1 I3 121.39(4) 2_666 . ?
Mo3 Mo1 I3 61.42(3) . . ?
Mo2 Mo1 I3 121.13(4) . . ?
I1 Mo1 I3 176.77(4) . . ?
I2 Mo1 I3 90.47(3) 2_666 . ?
O1 Mo1 I4 87.1(2) . . ?
Mo2 Mo1 I4 121.63(4) 2_666 . ?
Mo3 Mo1 I4 121.38(4) 2_666 . ?
Mo3 Mo1 I4 61.42(3) . . ?
Mo2 Mo1 I4 61.28(3) . . ?
I1 Mo1 I4 89.79(3) . . ?
I2 Mo1 I4 176.25(4) 2_666 . ?
I3 Mo1 I4 89.90(3) . . ?
O2 Mo2 Mo3 133.3(3) . . ?
O2 Mo2 Mo1 133.9(2) . 2_666 ?
Mo3 Mo2 Mo1 60.07(3) . 2_666 ?
O2 Mo2 Mo3 136.8(3) . 2_666 ?
Mo3 Mo2 Mo3 89.86(4) . 2_666 ?
Mo1 Mo2 Mo3 59.96(3) 2_666 2_666 ?
O2 Mo2 Mo1 136.1(2) . . ?
Mo3 Mo2 Mo1 60.00(3) . . ?
Mo1 Mo2 Mo1 89.95(4) 2_666 . ?
Mo3 Mo2 Mo1 59.75(3) 2_666 . ?
O2 Mo2 I4 87.5(2) . . ?
Mo3 Mo2 I4 61.70(3) . . ?
Mo1 Mo2 I4 121.75(4) 2_666 . ?
Mo3 Mo2 I4 121.55(4) 2_666 . ?
Mo1 Mo2 I4 61.81(3) . . ?
O2 Mo2 I1 90.2(2) . . ?
Mo3 Mo2 I1 121.63(4) . . ?
Mo1 Mo2 I1 121.27(4) 2_666 . ?
Mo3 Mo2 I1 61.34(3) 2_666 . ?
Mo1 Mo2 I1 61.63(3) . . ?
I4 Mo2 I1 90.22(3) . . ?
O2 Mo2 I3 88.5(2) . 2_666 ?
Mo3 Mo2 I3 121.85(4) . 2_666 ?
Mo1 Mo2 I3 61.79(3) 2_666 2_666 ?
Mo3 Mo2 I3 61.45(3) 2_666 2_666 ?
Mo1 Mo2 I3 121.17(4) . 2_666 ?
I4 Mo2 I3 175.97(4) . 2_666 ?
I1 Mo2 I3 89.16(3) . 2_666 ?
O2 Mo2 I2 86.2(2) . . ?
Mo3 Mo2 I2 61.44(3) . . ?
Mo1 Mo2 I2 61.67(3) 2_666 . ?
Mo3 Mo2 I2 121.63(4) 2_666 . ?
Mo1 Mo2 I2 121.43(4) . . ?
I4 Mo2 I2 89.74(3) . . ?
I1 Mo2 I2 176.31(4) . . ?
I3 Mo2 I2 90.62(3) 2_666 . ?
O3 Mo3 Mo2 135.2(3) . . ?
O3 Mo3 Mo1 134.7(2) . 2_666 ?
Mo2 Mo3 Mo1 60.04(3) . 2_666 ?
O3 Mo3 Mo1 135.2(2) . . ?
Mo2 Mo3 Mo1 60.28(3) . . ?
Mo1 Mo3 Mo1 90.09(3) 2_666 . ?
O3 Mo3 Mo2 134.7(3) . 2_666 ?
Mo2 Mo3 Mo2 90.14(4) . 2_666 ?
Mo1 Mo3 Mo2 60.14(3) 2_666 2_666 ?
Mo1 Mo3 Mo2 59.82(3) . 2_666 ?
O3 Mo3 I1 87.5(3) . 2_666 ?
Mo2 Mo3 I1 121.86(4) . 2_666 ?
Mo1 Mo3 I1 61.83(3) 2_666 2_666 ?
Mo1 Mo3 I1 121.34(4) . 2_666 ?
Mo2 Mo3 I1 61.55(3) 2_666 2_666 ?
O3 Mo3 I2 87.7(3) . . ?
Mo2 Mo3 I2 61.88(3) . . ?
Mo1 Mo3 I2 61.82(3) 2_666 . ?
Mo1 Mo3 I2 122.15(4) . . ?
Mo2 Mo3 I2 121.94(4) 2_666 . ?
I1 Mo3 I2 90.12(3) 2_666 . ?
O3 Mo3 I3 87.8(3) . . ?
Mo2 Mo3 I3 122.03(4) . . ?
Mo1 Mo3 I3 121.61(4) 2_666 . ?
Mo1 Mo3 I3 61.77(3) . . ?
Mo2 Mo3 I3 61.50(3) 2_666 . ?
I1 Mo3 I3 89.31(3) 2_666 . ?
I2 Mo3 I3 175.48(4) . . ?
O3 Mo3 I4 88.4(3) . . ?
Mo2 Mo3 I4 61.61(3) . . ?
Mo1 Mo3 I4 121.63(4) 2_666 . ?
Mo1 Mo3 I4 61.87(3) . . ?
Mo2 Mo3 I4 121.68(4) 2_666 . ?
I1 Mo3 I4 175.89(4) 2_666 . ?
I2 Mo3 I4 89.93(3) . . ?
I3 Mo3 I4 90.33(3) . . ?
O12B S1 O11B 129(3) . . ?
O13A S1 O12A 112.9(7) . . ?
O13A S1 O11A 111.9(8) . . ?
O12A S1 O11A 110.8(7) . . ?
O12B S1 O13B 112(3) . . ?
O11B S1 O13B 88(3) . . ?
O12B S1 C1 109.6(19) . . ?
O11B S1 C1 109(2) . . ?
O13A S1 C1 108.2(6) . . ?
O12A S1 C1 105.7(6) . . ?
O11A S1 C1 107.1(6) . . ?
O13B S1 C1 105.6(17) . . ?
C2 C1 C6 119.3(11) . . ?
C2 C1 S1 121.4(10) . . ?
C6 C1 S1 119.2(9) . . ?
C1 C2 C3 120.7(12) . . ?
C1 C2 H2 119.6 . . ?
C3 C2 H2 119.6 . . ?
C2 C3 C4 120.8(12) . . ?
C2 C3 H3 119.6 . . ?
C4 C3 H3 119.6 . . ?
C5 C4 C3 117.2(11) . . ?
C5 C4 C7 120.8(12) . . ?
C3 C4 C7 122.0(12) . . ?
C6 C5 C4 121.7(11) . . ?
C6 C5 H5 119.2 . . ?
C4 C5 H5 119.2 . . ?
C5 C6 C1 120.2(11) . . ?
C5 C6 H6 119.9 . . ?
C1 C6 H6 119.9 . . ?
C4 C7 H7A 109.5 . . ?
C4 C7 H7B 109.5 . . ?
H7A C7 H7B 109.5 . . ?
C4 C7 H7C 109.5 . . ?
H7A C7 H7C 109.5 . . ?
H7B C7 H7C 109.5 . . ?
loop_
_geom_bond_atom_site_label_1
_geom_bond_atom_site_label_2
_geom_bond_distance
_geom_bond_site_symmetry_2
_geom_bond_publ_flag
I1 Mo3 2.7808(11) 2_666 ?
I1 Mo2 2.7864(11) . ?
I1 Mo1 2.7932(11) . ?
I2 Mo3 2.7822(11) . ?
I2 Mo1 2.7936(10) 2_666 ?
I2 Mo2 2.7938(11) . ?
I3 Mo3 2.7855(11) . ?
I3 Mo2 2.7870(11) 2_666 ?
I3 Mo1 2.7946(11) . ?
I4 Mo2 2.7864(11) . ?
I4 Mo3 2.7887(11) . ?
I4 Mo1 2.8005(10) . ?
Mo1 O1 2.053(7) . ?
Mo1 Mo2 2.6507(12) 2_666 ?
Mo1 Mo3 2.6515(12) 2_666 ?
Mo1 Mo3 2.6546(12) . ?
Mo1 Mo2 2.6620(12) . ?
Mo1 I2 2.7935(10) 2_666 ?
Mo2 O2 2.175(8) . ?
Mo2 Mo3 2.6469(12) . ?
Mo2 Mo1 2.6508(12) 2_666 ?
Mo2 Mo3 2.6615(12) 2_666 ?
Mo2 I3 2.7870(11) 2_666 ?
Mo3 O3 2.156(8) . ?
Mo3 Mo1 2.6516(12) 2_666 ?
Mo3 Mo2 2.6615(12) 2_666 ?
Mo3 I1 2.7808(11) 2_666 ?
S1 O12B 1.33(5) . ?
S1 O11B 1.41(5) . ?
S1 O13A 1.442(12) . ?
S1 O12A 1.463(12) . ?
S1 O11A 1.484(11) . ?
S1 O13B 1.56(5) . ?
S1 C1 1.756(13) . ?
C1 C2 1.375(18) . ?
C1 C6 1.392(18) . ?
C2 C3 1.378(18) . ?
C2 H2 0.9500 . ?
C3 C4 1.420(19) . ?
C3 H3 0.9500 . ?
C4 C5 1.384(18) . ?
C4 C7 1.487(16) . ?
C5 C6 1.381(17) . ?
C5 H5 0.9500 . ?
C6 H6 0.9500 . ?
C7 H7A 0.9800 . ?
C7 H7B 0.9800 . ?
C7 H7C 0.9800 . ?
