#------------------------------------------------------------------------------
#$Date: 2021-06-05 21:35:52 +0300 (Sat, 05 Jun 2021) $
#$Revision: 266021 $
#$URL: file:///home/coder/svn-repositories/cod/cif/7/70/70/7707085.cif $
#------------------------------------------------------------------------------
#
# This file is available in the Crystallography Open Database (COD),
# http://www.crystallography.net/
#
# All data on this site have been placed in the public domain by the
# contributors.
#
data_7707085
loop_
_publ_author_name
'Akopov, Georgiy'
'Mark, Justin'
'Viswanathan, Gayatri'
'Lee, Shannon J.'
'McBride, Brennan C.'
'Won, Juyeon'
'Perras, Fr\'ed\'eric A'
'Paterson, Alexander L.'
'Yuan, Bing'
'Sen, Sabyasachi'
'Adeyemi, Adedoyin N.'
'Zhang, Feng'
'Wang, Cai-Zhuang'
'Ho, Kai-Ming'
'Miller, Gordon J.'
'Kovnir, Kirill'
_publ_section_title
;
 Third time's the charm: intricate non-centrosymmetric polymorphism in
 <i>Ln</i>SiP<sub>3</sub> (<i>Ln</i> = La and Ce) induced by distortions
 of phosphorus square layers.
;
_journal_issue                   19
_journal_name_full
'Dalton transactions (Cambridge, England : 2003)'
_journal_page_first              6463
_journal_page_last               6476
_journal_paper_doi               10.1039/d1dt00845e
_journal_volume                  50
_journal_year                    2021
_chemical_formula_sum            'Ce P3 Si'
_chemical_formula_weight         261.12
_space_group_crystal_system      orthorhombic
_space_group_IT_number           41
_space_group_name_Hall           'A 2 -2ab'
_space_group_name_H-M_alt        'A e a 2'
_audit_creation_method           SHELXL-2018/3
_audit_update_record
;
2021-03-28 deposited with the CCDC.	2021-04-09 downloaded from the CCDC.
;
_cell_angle_alpha                90
_cell_angle_beta                 90
_cell_angle_gamma                90
_cell_formula_units_Z            8
_cell_length_a                   5.8961(3)
_cell_length_b                   25.0987(11)
_cell_length_c                   5.7747(2)
_cell_measurement_reflns_used    13061
_cell_measurement_temperature    200(2)
_cell_measurement_theta_max      27.50
_cell_measurement_theta_min      3.82
_cell_volume                     854.57(6)
_computing_structure_refinement  'SHELXL-2018/3 (Sheldrick, 2018)'
_diffrn_ambient_temperature      200(2)
_diffrn_measured_fraction_theta_full 0.993
_diffrn_measured_fraction_theta_max 0.994
_diffrn_measurement_device_type  'Bruker Venture area-detector'
_diffrn_measurement_method       'profile data from \w scans'
_diffrn_radiation_wavelength     0.71073
_diffrn_reflns_av_R_equivalents  0.0382
_diffrn_reflns_av_unetI/netI     0.0171
_diffrn_reflns_Laue_measured_fraction_full 0.993
_diffrn_reflns_Laue_measured_fraction_max 0.994
_diffrn_reflns_limit_h_max       7
_diffrn_reflns_limit_h_min       -7
_diffrn_reflns_limit_k_max       32
_diffrn_reflns_limit_k_min       -32
_diffrn_reflns_limit_l_max       7
_diffrn_reflns_limit_l_min       -7
_diffrn_reflns_number            13061
_diffrn_reflns_point_group_measured_fraction_full 0.995
_diffrn_reflns_point_group_measured_fraction_max 0.995
_diffrn_reflns_theta_full        25.242
_diffrn_reflns_theta_max         27.499
_diffrn_reflns_theta_min         3.818
_diffrn_source                   'fine-focus sealed tube'
_exptl_absorpt_coefficient_mu    11.833
_exptl_absorpt_correction_T_max  0.75
_exptl_absorpt_correction_T_min  0.55
_exptl_absorpt_correction_type   multi-scan
_exptl_absorpt_process_details   SADABS
_exptl_crystal_colour            black
_exptl_crystal_density_diffrn    4.059
_exptl_crystal_description       plate
_exptl_crystal_F_000             936
_exptl_crystal_size_max          0.164
_exptl_crystal_size_mid          0.156
_exptl_crystal_size_min          0.037
_refine_diff_density_max         1.226
_refine_diff_density_min         -1.521
_refine_diff_density_rms         0.203
_refine_ls_abs_structure_details
;
 Refined as an inversion twin.
;
_refine_ls_abs_structure_Flack   0.07(5)
_refine_ls_extinction_coef       0.0022(2)
_refine_ls_extinction_expression Fc^*^=kFc[1+0.001xFc^2^\l^3^/sin(2\q)]^-1/4^
_refine_ls_extinction_method     'SHELXL-2018/3 (Sheldrick 2018)'
_refine_ls_goodness_of_fit_ref   1.150
_refine_ls_hydrogen_treatment    undef
_refine_ls_matrix_type           full
_refine_ls_number_parameters     59
_refine_ls_number_reflns         979
_refine_ls_number_restraints     2
_refine_ls_restrained_S_all      1.149
_refine_ls_R_factor_all          0.0266
_refine_ls_R_factor_gt           0.0238
_refine_ls_shift/su_max          0.000
_refine_ls_shift/su_mean         0.000
_refine_ls_structure_factor_coef Fsqd
_refine_ls_weighting_details
'w=1/[\s^2^(Fo^2^)+(0.0275P)^2^+12.9120P] where P=(Fo^2^+2Fc^2^)/3'
_refine_ls_weighting_scheme      calc
_refine_ls_wR_factor_gt          0.0623
_refine_ls_wR_factor_ref         0.0637
_reflns_Friedel_coverage         0.806
_reflns_Friedel_fraction_full    0.997
_reflns_Friedel_fraction_max     0.995
_reflns_number_gt                894
_reflns_number_total             979
_reflns_threshold_expression     'I > 2\s(I)'
_cod_data_source_file            d1dt00845e2.cif
_cod_data_source_block           CeSiP3_Aea2
_cod_depositor_comments
'Adding full bibliography for 7707082--7707086.cif.'
_cod_original_sg_symbol_Hall     'A 2 -2ac'
_cod_original_sg_symbol_H-M      'A b a 2'
_cod_database_code               7707085
_shelx_shelxl_version_number     2018/3
_shelx_space_group_comment
;
The symmetry employed for this shelxl refinement is uniquely defined
by the following loop, which should always be used as a source of
symmetry information in preference to the above space-group names.
They are only intended as comments.
;
_shelx_estimated_absorpt_t_min   0.247
_shelx_estimated_absorpt_t_max   0.669
_shelx_res_file
;

TITL Aba2 in Aba2
    shelx.res
    created by SHELXL-2018/3 at 00:30:36 on 27-Mar-2021
CELL 0.71073   5.89610  25.09870   5.77470  90.0000  90.0000  90.0000
ZERR    8.00   0.00030   0.00110   0.00020   0.0000   0.0000   0.0000
LATT -5
SYMM -X, -Y, Z
SYMM 0.5+X, 0.5-Y, Z
SYMM 0.5-X, 0.5+Y, Z
SFAC SI P CE
UNIT 8 24 8
TEMP -73.150

L.S. 40
LIST 4
FMAP 2
PLAN -20
TWIN
size .037 .156 .164
acta
eadp p31 p32 p33
eadp si11 si12
eadp p11 p12
sump 1 .01 1 2 1 3 1 4

WGHT    0.027500   12.912000
EXTI    0.002190
BASF   0.07090
FVAR       0.06616   0.32708   0.40520   0.26314   0.88742
CE1   3    0.499760    0.408218    0.663104    11.00000    0.00896    0.01959 =
         0.00652    0.00044    0.00007    0.00063
P11   2    0.447267    0.213210    0.131946    51.00000    0.00767    0.00433 =
         0.00429   -0.00123    0.00393   -0.00198
P12   2    0.433798    0.286330    0.643763   -51.00000    0.00767    0.00433 =
         0.00429   -0.00123    0.00393   -0.00198
SI11  1    0.584503    0.292763    0.242037    51.00000    0.00656    0.00346 =
         0.00377    0.00056   -0.00090   -0.00032
SI12  1    0.585033    0.208321   -0.238387   -51.00000    0.00656    0.00346 =
         0.00377    0.00056   -0.00090   -0.00032
P2    2    0.004077    0.375708    0.658046    11.00000    0.00789    0.00550 =
         0.00470   -0.00034    0.00029   -0.00070
P31   2    0.326866    0.499701    0.986975    21.00000    0.01416
P32   2    0.230238    0.499740    0.367156    31.00000    0.01416
P33   2    0.190873    0.500094    0.938538    41.00000    0.01416
HKLF 4




REM  Aba2 in Aba2
REM wR2 = 0.0637, GooF = S = 1.150, Restrained GooF = 1.149 for all data
REM R1 = 0.0238 for 894 Fo > 4sig(Fo) and 0.0266 for all 979 data
REM 59 parameters refined using 2 restraints

END

WGHT      0.0278     12.7088

REM Highest difference peak  1.226,  deepest hole -1.521,  1-sigma level  0.203
Q1    1   0.0713  0.4985  0.7612  11.00000  0.05    1.23
Q2    1   0.0695  0.5016  0.5739  11.00000  0.05    0.89
Q3    1   0.6485  0.5005  0.8051  11.00000  0.05    0.85
Q4    1   0.6699  0.5011  0.5415  11.00000  0.05    0.83
Q5    1   0.4981  0.3838  0.6578  11.00000  0.05    0.74
Q6    1   0.2182  0.4974  0.7647  11.00000  0.05    0.71
Q7    1   0.4145  0.3097  1.0774  11.00000  0.05    0.62
Q8    1   0.1495  0.4050  0.3029  11.00000  0.05    0.59
Q9    1   0.3495  0.3116  0.4466  11.00000  0.05    0.57
Q10   1   0.5798  0.4188  0.6092  11.00000  0.05    0.55
Q11   1   0.8693  0.2306  0.2208  11.00000  0.05    0.53
Q12   1   0.0902  0.3121  0.7542  11.00000  0.05    0.53
Q13   1   0.6522  0.3023  0.4407  11.00000  0.05    0.52
Q14   1   0.8510  0.4026  0.2977  11.00000  0.05    0.51
Q15   1   0.4103  0.4189  0.5994  11.00000  0.05    0.50
Q16   1   0.9294  0.3168  0.5627  11.00000  0.05    0.49
Q17   1   0.8582  0.4032  1.0344  11.00000  0.05    0.47
Q18   1   0.3202  0.3653  0.6478  11.00000  0.05    0.46
Q19   1   0.4331  0.4178  0.7331  11.00000  0.05    0.45
Q20   1   0.8103  0.4591  0.8216  11.00000  0.05    0.44
;
_shelx_res_checksum              53145
_shelx_hkl_file
;
   0   0   2  901.11   34.20
   0   0   2  932.88   34.41
   0   0   2  927.66   34.33
   0   0  -2  869.70   34.32
   0   0   2  967.46   34.86
   0   0   2  949.33   34.58
   0   0  -2  887.41   34.81
   0   0  -2  877.23   34.55
   0   0  -2  867.17   34.39
   0   0   4  579.33   22.44
   0   0   4  570.68   21.99
   0   0  -4  557.53   21.69
   0   0  -4  549.22   21.62
   0   0   4  563.12   21.86
   0   0   4  576.14   22.78
   0   0   4  576.58   22.95
   0   0   4  584.40   22.29
   0   0   4  597.14   21.98
   0   0   4  556.61   21.60
   0   0  -4  557.15   21.61
   0   0   4  592.80   22.14
   0   0  -6  260.82    9.86
   0   0   6  255.86   12.16
   0   0  -6  260.23    9.88
   0   0   6  249.81   10.63
   0   0   6  253.26   10.38
   0   0   6  248.64    9.85
   0   0   6  241.42   11.13
   0  -1   1   -0.02    0.07
   0  -1   1   -0.14    0.06
   0  -1   1    0.01    0.06
   0  -1   1   -0.04    0.07
   0   1   1    0.13    0.11
   0   1   1   -0.10    0.09
   0   1   1    0.03    0.07
   0   1  -1   -0.07    0.06
   0  -1   1    0.00    0.05
   0   1   1    0.30    0.19
   0   1   1    0.24    0.15
   0  -1   1    0.13    0.22
   0   1  -1    0.07    0.07
   0  -1   1    0.02    0.13
   0  -1   1    0.03    0.14
   0  -1   1    0.15    0.09
   0  -1   1    0.12    0.11
   0   1  -1    0.04    0.05
   0  -1   1    0.11    0.10
   0   1   1   -0.16    0.26
   0   1   1    0.00    0.06
   0  -1   1    0.19    0.18
   0  -1  -1    0.02    0.06
   0  -1  -1    0.01    0.06
   0  -1  -1    0.01    0.08
   0   1   3    0.95    0.39
   0   1   3   -0.49    0.37
   0   1  -3    0.15    0.17
   0   1  -3   -0.16    0.16
   0  -1  -3   -0.25    0.96
   0  -1  -3    0.03    0.20
   0  -1  -3    0.15    0.35
   0  -1   3   -0.13    0.16
   0  -1  -3   -0.03    0.19
   0   1   3    1.03    0.86
   0   1   3   -1.27    0.53
   0   1  -3    0.04    0.18
   0  -1  -3   -0.01    0.15
   0  -1   3   -0.48    0.23
   0  -1   3   -0.09    0.33
   0  -1  -3    0.10    0.62
   0  -1  -3    0.61    0.48
   0   1   3    0.01    0.16
   0  -1   3   -0.73    0.65
   0  -1   3   -0.75    0.77
   0  -1   3   -0.35    0.43
   0  -1  -3   -0.01    0.16
   0  -1   3   -0.22    0.55
   0  -1   3    0.01    0.33
   0  -1   3    0.08    0.40
   0   1   5   -0.32    0.29
   0   1   5   -0.33    0.71
   0   1   5    0.66    0.90
   0   1  -5   -0.24    0.37
   0   1  -5    0.11    0.30
   0   1  -5   -0.46    0.33
   0  -1  -5    0.07    0.36
   0   1   5    0.80    0.61
   0   1   5   -0.62    0.69
   0  -1   5    1.52    1.24
   0   1   5   -0.71    1.45
   0   1   5   -0.98    1.24
   0  -1  -5   -0.40    0.32
   0  -1  -5   -0.01    0.34
   0  -1   5    0.15    0.31
   0  -1   5   -0.27    0.67
   0  -1   5   -0.47    1.48
   0  -1   5   -1.72    1.67
   0  -1   5   -0.63    0.69
   0   1   5    1.56    1.84
   0   1   5   -0.80    1.01
   0  -1   5    1.26    0.90
   0  -1   5    0.53    0.56
   0  -1   5    0.56    0.99
   0   1  -7    0.33    0.72
   0   1   7   -0.08    0.57
   0  -1   7    1.16    0.59
   0  -1  -7   -0.88    0.69
   0   1  -7    0.38    0.64
   0  -1  -7   -0.75    0.62
   0  -2  -2    7.52    0.83
   0   2   2    5.73    0.34
   0  -2  -2    8.85    1.16
   0  -2   2    5.47    0.33
   0  -2   2    5.86    0.68
   0  -2   2    4.21    0.84
   0  -2   2    5.58    0.57
   0  -2   2    5.26    0.47
   0  -2   2    5.51    0.39
   0  -2   2    5.02    0.73
   0   2   2    4.38    0.93
   0  -2   2    5.12    0.35
   0  -2   2    5.57    0.33
   0  -2   2    5.02    0.46
   0   2   2    4.52    0.72
   0   2   2    4.31    0.57
   0   2   2    5.45    0.52
   0  -2   2    5.68    0.42
   0  -2   2    5.48    0.54
   0  -2   4   47.56    2.76
   0  -2   4   45.50    2.64
   0  -2   4   44.87    2.31
   0  -2   4   47.04    2.00
   0  -2  -4   46.04    2.58
   0   2  -4   49.95    2.06
   0   2   4   47.30    3.45
   0   2  -4   48.64    2.04
   0  -2   4   45.67    2.46
   0   2   4   45.20    2.56
   0   2   4   47.81    2.41
   0  -2   4   44.95    3.07
   0  -2  -4   49.53    1.99
   0  -2  -4   48.83    2.44
   0  -2  -4   48.57    2.12
   0  -2  -4   42.73    3.43
   0  -2   4   44.66    3.19
   0  -2   4   49.33    2.27
   0  -2  -4   49.26    2.05
   0  -2  -4   48.75    2.01
   0  -2  -4   48.51    2.95
   0  -2   4   50.79    2.42
   0   2   4   45.33    2.88
   0   2   4   48.00    2.02
   0   2   6   54.82    2.66
   0   2   6   61.80    3.72
   0   2  -6   51.51    2.99
   0  -2   6   63.22    3.26
   0   2  -6   58.17    2.62
   0   2   6   58.59    5.57
   0  -2   6   63.33    2.64
   0   2   6   61.84    4.42
   0  -2  -6   60.50    2.64
   0  -2   6   61.80    4.15
   0  -2   6   61.98    3.57
   0  -2  -6   58.25    2.73
   0   2   6   63.36    3.40
   0  -2  -6   59.25    2.68
   0  -2   6   58.03    5.14
   0  -3   1   -0.75    0.11
   0  -3  -1   -0.65    0.34
   0  -3  -1   -0.80    0.08
   0  -3   1   -0.92    0.08
   0  -3   1   -0.99    0.10
   0   3  -1   -0.97    0.08
   0   3   1   -0.86    0.17
   0   3  -1   -0.30    0.26
   0   3  -1   -0.67    0.16
   0  -3  -1   -1.00    0.14
   0  -3  -1   -1.00    0.21
   0   3   1   -0.82    0.13
   0   3   1   -0.97    0.21
   0   3   1   -1.06    0.41
   0   3   1   -0.83    0.31
   0   3  -1   -0.81    0.11
   0  -3  -1   -0.86    0.07
   0   3   1   -0.98    0.07
   0   3  -1   -0.90    0.08
   0  -3   1   -0.80    0.14
   0  -3  -1   -0.91    0.09
   0  -3  -1   -0.80    0.08
   0   3   1   -0.83    0.10
   0  -3  -1   -0.66    0.18
   0  -3   1   -0.99    0.21
   0  -3  -3   -0.42    0.49
   0  -3  -3    1.10    1.00
   0  -3   3   -1.93    0.69
   0  -3  -3    0.07    0.25
   0  -3   3    0.64    0.48
   0  -3  -3   -0.34    0.23
   0  -3   3   -0.37    0.33
   0  -3  -3   -0.13    0.17
   0   3   3   -0.28    0.38
   0   3  -3    0.02    0.16
   0   3   3    0.48    0.88
   0  -3   3    0.05    0.68
   0  -3   3    0.25    0.32
   0  -3   3   -0.03    0.18
   0  -3  -3   -0.57    0.68
   0   3  -3   -0.13    0.19
   0   3   3   -0.07    0.16
   0   3   3    0.08    0.49
   0  -3  -3   -0.22    0.37
   0  -3   3    0.42    0.28
   0  -3   3   -0.08    0.55
   0  -3   3   -0.05    0.40
   0   3   3    0.37    0.66
   0   3   5   -1.11    1.34
   0  -3   5    1.82    0.99
   0   3   5    0.44    0.33
   0   3   5   -0.05    1.01
   0  -3  -5    0.00    0.33
   0  -3   5   -0.37    0.64
   0  -3   5    0.13    0.56
   0  -3   5   -0.58    1.47
   0   3  -5   -0.49    0.30
   0  -3  -5    0.50    0.37
   0   3   5    0.20    0.79
   0   3  -5    0.06    0.36
   0  -3  -5    0.51    0.42
   0  -3   5   -0.20    0.82
   0  -3   5   -0.51    1.62
   0  -3   5    0.60    0.34
   0   3   5   -1.53    1.96
   0  -3   5    0.77    0.74
   0  -3   5   -1.07    1.15
   0   3   7    0.13    0.56
   0   3  -7    0.40    0.66
   0   3  -7    0.58    0.71
   0  -3   7    0.89    0.62
   0  -3  -7    0.33    0.66
   0  -3  -7    0.75    0.68
   0   4   2  416.33   15.24
   0   4  -2  407.30   15.19
   0  -4  -2  410.83   15.23
   0   4  -2  412.58   15.78
   0  -4   2  412.27   15.23
   0  -4  -2  378.36   15.24
   0  -4   2  391.34   15.50
   0  -4   2  373.61   15.36
   0  -4   2  427.21   15.21
   0  -4   2  396.40   15.71
   0   4  -2  425.59   15.27
   0   4  -2  417.34   15.55
   0  -4   2  367.22   15.30
   0   4  -2  399.59   15.33
   0  -4   2  417.04   15.25
   0   4  -2  401.70   15.39
   0   4   4  201.08    8.30
   0  -4   4  203.76    8.62
   0  -4  -4  205.56    7.86
   0   4   4  203.14    7.88
   0   4   4  206.22    8.88
   0  -4   4  209.29    8.22
   0  -4   4  210.89    8.10
   0  -4  -4  195.60    8.90
   0   4   4  196.13    8.47
   0   4   4  198.30    9.42
   0  -4   4  204.96    9.13
   0  -4   4  204.17    8.46
   0  -4  -4  204.44    8.55
   0   4  -4  204.63    7.85
   0   4  -4  201.87    7.91
   0  -4  -4  204.89    9.58
   0  -4   4  202.99    8.17
   0  -4   4  209.76    7.87
   0  -4   4  205.41    8.33
   0  -4  -4  200.90    8.01
   0  -4   4  206.99    8.91
   0  -4  -4  209.07    8.37
   0  -4  -4  206.79    7.93
   0  -4  -6  156.33    6.31
   0   4   6  158.24    8.95
   0   4  -6  154.97    6.23
   0   4   6  157.78    7.28
   0  -4   6  161.43    6.25
   0  -4   6  154.71    6.72
   0  -4   6  158.17    6.99
   0  -4   6  144.54    8.30
   0   4  -6  154.12    6.30
   0   4   6  159.20    6.97
   0   4   6  164.08    6.27
   0   4   6  155.43    7.88
   0  -4  -6  154.40    6.24
   0  -4   6  154.23    7.50
   0  -4  -6  158.79    6.41
   0  -5  -1   -0.75    0.10
   0   5   1   -0.81    0.16
   0   5   1   -0.57    0.11
   0  -5   1   -0.64    0.14
   0   5  -1   -0.55    0.13
   0  -5  -1   -0.56    0.10
   0   5   1    0.15    0.40
   0  -5   1   -0.62    0.29
   0  -5  -1   -0.66    0.41
   0   5   1   -0.13    0.27
   0   5   1   -0.25    0.23
   0  -5  -1   -0.53    0.10
   0   5  -1   -0.22    0.23
   0  -5  -1   -0.31    0.30
   0  -5  -1   -0.44    0.24
   0  -5  -1   -0.77    0.13
   0  -5   1   -0.75    0.13
   0  -5   1   -0.30    0.18
   0  -5  -1   -0.05    0.55
   0   5   1   -0.52    0.08
   0   5   1   -0.36    0.09
   0   5  -1   -0.75    0.15
   0   5  -1   -0.45    0.13
   0   5   1    0.01    0.53
   0  -5   1   -0.40    0.24
   0   5  -1   -0.10    0.34
   0  -5   3    0.43    0.34
   0  -5   3   -0.50    0.43
   0  -5   3   -0.60    0.63
   0  -5  -3    0.04    0.25
   0   5   3    0.15    0.77
   0   5  -3   -0.05    0.20
   0   5   3    0.04    0.44
   0  -5   3   -0.99    0.73
   0  -5   3   -0.22    0.17
   0  -5   3    0.49    0.33
   0  -5   3    0.45    0.41
   0  -5   3    0.10    0.26
   0   5  -3   -0.19    0.16
   0   5   3   -0.74    0.49
   0   5   3   -0.25    0.16
   0   5   3   -2.40    1.04
   0  -5   3   -0.13    0.57
   0  -5  -3   -0.10    0.19
   0  -5  -5    0.01    1.56
   0  -5   5    0.69    0.87
   0  -5  -5    0.43    0.33
   0   5  -5    0.34    0.39
   0  -5   5   -0.45    0.68
   0  -5   5    0.31    1.74
   0  -5   5    0.38    0.71
   0  -5   5    0.88    0.34
   0  -5  -5    0.98    0.87
   0  -5  -5    2.26    2.17
   0   5   5    0.29    1.52
   0  -5   5    0.88    1.22
   0  -5   5    0.27    1.35
   0   5  -5    0.39    0.34
   0   5   5    0.21    1.07
   0  -5  -5    0.13    0.39
   0  -5   5    0.41    0.57
   0  -5  -5   -0.24    0.32
   0   5   5   -0.08    0.31
   0   5   5   -1.14    0.84
   0  -5   5   -1.16    0.94
   0   5   5   -1.66    2.02
   0  -5  -5    0.39    1.06
   0  -5  -7    0.30    0.66
   0   5   7    0.04    0.55
   0   5  -7   -0.54    0.77
   0  -5  -7    0.65    0.66
   0  -5  -7   -0.31    0.66
   0   5  -7   -0.36    0.61
   0  -5   7    0.01    0.63
   0  -6   0  325.61   12.32
   0   6   0  367.80   12.35
   0   6   0  336.22   12.34
   0  -6   0  303.16   13.22
   0   6   0  337.69   12.39
   0  -6   0  311.25   12.69
   0   6   0  336.17   12.92
   0   6   0  332.47   12.69
   0   6   0  332.96   13.25
   0  -6   0  322.22   12.34
   0  -6   0  303.95   12.58
   0   6   0  339.52   12.32
   0  -6   0  306.53   12.89
   0   6   0  327.77   12.58
   0  -6   0  306.30   12.39
   0  -6   0  328.17   12.34
   0   6  -2  611.79   22.93
   0   6  -2  589.87   22.51
   0  -6   2  595.80   23.13
   0   6  -2  608.00   22.70
   0  -6  -2  580.72   22.60
   0   6   2  599.41   23.29
   0   6   2  594.99   23.70
   0  -6  -2  608.30   23.04
   0   6   2  619.69   22.59
   0  -6  -2  611.63   23.75
   0   6  -2  618.99   23.21
   0  -6   2  591.66   22.90
   0  -6   2  585.42   22.75
   0  -6   2  574.74   22.67
   0   6  -2  598.29   22.77
   0   6   2  597.97   23.03
   0   6   2  594.44   22.89
   0  -6  -2  621.92   23.34
   0  -6  -2  604.53   22.90
   0  -6  -2  584.33   22.55
   0  -6  -2  585.91   22.66
   0   6  -2  603.73   22.62
   0   6   4  261.14   10.76
   0   6  -4  269.60   10.22
   0  -6  -4  266.99   10.81
   0  -6   4  272.52   10.60
   0  -6   4  264.84   10.72
   0  -6  -4  241.05   10.55
   0   6   4  269.26   10.30
   0  -6   4  279.59   11.28
   0   6  -4  270.12   10.33
   0  -6  -4  262.22   10.33
   0   6   4  262.39   11.99
   0  -6   4  273.19   10.47
   0  -6   4  263.97   11.50
   0  -6   4  275.64   10.85
   0   6   4  258.98   10.94
   0   6   4  259.34   11.34
   0  -6  -4  275.51   11.50
   0  -6   4  275.67   11.07
   0  -6   4  275.48   10.59
   0  -6  -4  277.56   12.25
   0  -6  -4  265.75   11.02
   0  -6   4  277.68   10.27
   0   6   6  144.12    8.94
   0   6  -6  162.95    6.39
   0   6   6  145.87    8.05
   0  -6   6  157.89    6.75
   0  -6  -6  157.50    6.38
   0  -6   6  158.50    8.43
   0  -6   6  160.30    7.02
   0   6   6  140.63   10.57
   0  -6   6  164.63    6.31
   0   6   6  169.01    7.81
   0  -6  -6  155.81    6.48
   0   6   6  162.90    6.32
   0  -6   6  152.77    7.50
   0   6  -6  158.79    6.26
   0  -7  -1   -0.18    0.16
   0  -7   1    0.31    0.28
   0   7  -1    0.38    0.21
   0  -7  -1   -0.02    0.33
   0   7  -1    0.89    0.36
   0   7   1   -0.65    0.53
   0  -7   1    0.18    0.11
   0  -7  -1   -0.09    0.52
   0   7  -1   -0.08    0.23
   0   7   1    0.85    0.80
   0  -7   1   -0.13    0.46
   0  -7  -1    0.13    0.70
   0  -7  -1    0.31    0.40
   0  -7  -1    0.09    0.18
   0  -7  -1    0.16    0.12
   0   7  -1    0.22    0.17
   0   7   1    0.52    0.22
   0   7   1    0.08    0.37
   0   7   1    0.09    0.12
   0  -7   1    0.21    0.36
   0   7   1    0.37    0.14
   0  -7   1    0.36    0.22
   0   7  -1    0.68    0.50
   0   7   1    0.96    0.36
   0   7   1    0.16    0.21
   0   7  -1   -0.02    0.10
   0  -7   1    0.34    0.26
   0   7  -3   -0.04    0.15
   0   7  -3    0.12    0.24
   0   7   3    0.30    0.86
   0  -7  -3    0.34    0.23
   0  -7   3    0.42    0.38
   0   7   3    1.23    1.23
   0  -7  -3   -0.08    0.29
   0   7  -3   -0.40    0.37
   0  -7   3    0.59    0.74
   0  -7   3   -0.22    0.28
   0   7  -3    0.91    0.90
   0  -7  -3    0.37    0.61
   0   7   3    0.64    0.63
   0  -7   3   -0.16    0.53
   0  -7  -3    0.08    0.51
   0   7   3   -0.21    0.17
   0   7  -3   -0.26    0.31
   0  -7  -3   -0.24    1.09
   0  -7   3   -0.08    0.19
   0  -7  -3   -0.12    0.79
   0   7  -3   -0.91    0.51
   0   7   3    0.45    0.51
   0  -7  -5    1.36    1.13
   0   7   5   -1.00    1.59
   0  -7   5   -0.73    1.83
   0  -7  -5    0.74    0.87
   0   7   5   -0.34    1.18
   0  -7   5    1.41    1.34
   0   7   5    0.35    0.32
   0   7   5    2.76    2.27
   0  -7   5   -0.11    0.33
   0   7   5   -0.54    0.91
   0  -7   5   -0.55    0.69
   0  -7  -5    1.09    0.47
   0  -7  -5    0.54    0.36
   0  -7  -5   -0.12    2.26
   0  -7  -5    0.14    1.55
   0  -7   5   -0.51    0.89
   0   7  -5    0.35    0.33
   0  -7   5   -1.59    1.40
   0  -7   5    1.29    0.59
   0  -7   5    1.94    1.03
   0  -7   5    0.87    0.73
   0  -7  -5    0.42    0.38
   0  -7  -7   -0.57    0.77
   0   7  -7   -1.24    0.82
   0  -7  -7   -0.67    0.64
   0   7  -7    0.54    0.64
   0  -7  -7   -2.46    1.11
   0  -7   7   -0.56    0.68
   0   7   7    0.19    0.64
   0   8   0   32.77    2.03
   0   8   0   31.26    1.67
   0  -8   0   33.67    1.36
   0   8   0   32.04    1.44
   0   8   0   34.71    1.36
   0  -8   0   32.41    1.39
   0   8   0   30.69    1.37
   0  -8   0   29.98    2.40
   0  -8   0   33.95    2.11
   0   8   0   30.79    1.77
   0  -8   0   31.21    1.82
   0  -8   0   31.69    1.70
   0   8   0   32.79    1.38
   0   8   0   31.70    2.35
   0   8  -2   14.84    0.96
   0   8   2   16.71    0.77
   0  -8  -2   13.27    1.74
   0  -8  -2   11.08    1.35
   0   8  -2   14.06    1.12
   0  -8  -2   13.69    1.27
   0   8   2   19.07    2.09
   0   8   2   14.17    1.50
   0   8   2   14.80    1.09
   0  -8  -2   15.87    0.79
   0  -8   2   15.78    0.98
   0  -8   2   16.45    1.41
   0   8  -2   16.06    0.83
   0  -8   2   15.34    1.13
   0  -8  -2   13.22    2.11
   0   8  -2   14.79    0.88
   0  -8  -2   15.31    0.85
   0  -8   2   15.51    0.90
   0   8  -2   15.81    1.44
   0   8   2   14.61    1.25
   0  -8   4   11.91    0.93
   0   8  -4   11.30    0.63
   0   8  -4   11.58    0.79
   0  -8   4   11.74    1.06
   0  -8   4   10.61    1.33
   0  -8   4   11.84    1.08
   0  -8   4   10.77    1.20
   0  -8  -4   10.70    0.76
   0  -8   4   12.85    1.83
   0   8   4   11.22    0.72
   0  -8  -4    9.91    0.83
   0  -8   4   14.71    1.57
   0  -8   4   11.31    2.06
   0  -8   4   12.22    0.70
   0  -8   6   13.24    3.20
   0  -8  -6   10.50    0.93
   0  -8  -6   11.33    0.95
   0   8  -6    9.92    1.08
   0   8  -6   12.31    0.92
   0  -8   6    9.74    1.71
   0  -8   6   10.75    2.25
   0   8   6   10.94    0.91
   0  -8   6    9.02    1.69
   0  -8  -6   10.57    1.04
   0  -8   6    9.78    0.90
   0   9   1   -0.59    0.92
   0  -9  -1    0.09    0.20
   0   9   1    0.30    0.67
   0   9  -1    0.47    0.31
   0  -9  -1    0.20    0.51
   0  -9  -1    0.09    0.45
   0   9  -1   -0.15    0.19
   0  -9  -1    0.74    0.88
   0   9   1   -0.15    0.35
   0   9   1    0.46    0.49
   0  -9   1    0.04    0.72
   0   9  -1    0.18    0.36
   0   9  -1   -0.05    0.14
   0  -9  -1    0.05    0.17
   0  -9   1   -0.38    0.35
   0  -9  -1    0.11    0.69
   0  -9   1    0.12    0.29
   0   9   1   -0.20    0.16
   0   9   1   -0.17    0.13
   0   9  -1   -0.69    0.70
   0  -9   1    0.76    0.53
   0   9  -1    0.23    0.49
   0  -9   1   -0.01    0.12
   0   9   3    0.20    0.56
   0  -9  -3    0.87    0.65
   0  -9  -3    0.82    1.54
   0   9  -3   -0.21    0.57
   0   9  -3   -0.19    0.33
   0  -9  -3    0.24    0.33
   0  -9  -3    0.40    0.25
   0   9   3   -0.15    0.95
   0   9  -3   -0.47    0.40
   0  -9  -3   -0.30    0.99
   0  -9  -3    0.34    0.77
   0   9   3   -1.97    1.32
   0   9   3    0.18    0.21
   0   9   3   -0.72    0.71
   0   9  -3    0.19    0.86
   0   9  -3    0.14    0.16
   0   9  -3    0.01    0.26
   0  -9   5    0.49    0.78
   0  -9   5   -1.63    1.81
   0  -9   5   -1.71    0.90
   0   9   5    0.98    2.57
   0   9  -5   -0.13    0.59
   0   9   5    0.33    0.36
   0   9   5    1.15    1.37
   0  -9  -5    0.97    1.38
   0  -9   5   -1.45    1.25
   0  -9   5    1.41    0.42
   0   9   5    0.12    1.73
   0  -9  -5    0.01    0.36
   0   9   5    0.07    1.05
   0  -9  -5    0.50    0.46
   0  -9  -5    0.82    2.70
   0  -9   5    0.21    0.59
   0  -9   5    2.77    1.53
   0   9  -5    0.42    0.33
   0  -9   5    0.31    0.97
   0  -9  -5    1.20    1.11
   0  -9   5    0.56    0.74
   0  -9  -5   -1.06    1.87
   0   9   7   -0.43    0.61
   0  -9   7    0.41    0.71
   0  -9  -7    0.46    0.70
   0  -9  -7   -0.38    0.66
   0   9  -7   -1.59    0.86
   0   9  -7   -0.43    0.59
   0  10   0  896.58   33.45
   0 -10   0  789.20   33.58
   0  10   0  926.02   33.15
   0 -10   0  817.08   34.46
   0 -10   0  790.54   33.42
   0  10   0  837.66   33.01
   0  10   0  947.77   34.61
   0  10   0 1000.00   33.06
   0  10   0  905.75   33.63
   0 -10   0  883.34   33.07
   0  10   0  938.21   34.02
   0 -10   0  875.75   33.03
   0 -10   0  801.46   33.92
   0  10   2  379.02   14.65
   0  10  -2  386.68   14.07
   0 -10  -2  358.90   14.28
   0 -10   2  377.43   15.13
   0 -10   2  367.73   14.07
   0 -10  -2  372.00   15.91
   0  10   2  366.75   14.14
   0 -10  -2  359.35   14.18
   0  10  -2  365.73   14.34
   0  10   2  379.48   15.24
   0  10  -2  366.79   14.68
   0  10   2  372.01   15.82
   0 -10  -2  375.04   15.27
   0  10   2  372.76   14.17
   0 -10   2  385.24   14.51
   0 -10   2  373.93   14.73
   0 -10  -2  374.57   14.86
   0  10   2  381.18   14.85
   0  10  -2  368.93   15.05
   0  10  -2  368.71   14.45
   0 -10   2  382.54   14.38
   0 -10  -2  377.95   14.67
   0  10  -2  363.27   14.24
   0 -10  -4  215.39    9.06
   0  10  -4  238.95    9.72
   0  10   4  233.78    9.65
   0 -10  -4  225.02    9.91
   0  10  -4  241.39    9.41
   0 -10  -4  231.15   11.23
   0 -10   4  245.57    9.23
   0  10   4  219.51   10.34
   0 -10  -4  225.08    9.66
   0  10  -4  239.34    9.11
   0 -10   4  231.80   10.07
   0 -10   4  235.02    9.63
   0  10  -4  235.16   10.27
   0 -10   4  242.36    9.37
   0  10   4  231.91    9.03
   0  10   4  228.15    9.90
   0  10  -4  231.58    9.24
   0 -10  -4  225.38    9.20
   0 -10   4  244.77    9.00
   0  10  -4  238.06    8.91
   0 -10  -4  233.33   10.47
   0  10   4  229.92   11.24
   0 -10  -6  103.75    4.30
   0 -10  -6  101.69    4.13
   0  10   6   98.39    4.19
   0  10  -6  102.32    4.30
   0 -10   6   98.38    4.16
   0 -10  -6   93.77    4.37
   0 -11  -1   -2.01    0.75
   0  11   1   -0.30    0.46
   0  11  -1    0.28    0.67
   0 -11   1    0.05    0.50
   0  11   1   -0.22    0.17
   0  11  -1    0.62    0.48
   0  11  -1   -0.07    0.18
   0 -11  -1   -0.24    0.50
   0 -11   1    1.06    0.93
   0 -11  -1   -0.33    0.21
   0  11  -1    0.07    0.95
   0  11  -1    0.09    0.19
   0  11  -1    0.10    0.37
   0 -11  -1    0.08    0.18
   0 -11   1   -0.08    0.16
   0 -11  -1    1.28    1.16
   0  11   1    0.08    0.18
   0  11  -1   -0.18    0.23
   0 -11   1   -0.40    0.38
   0 -11  -1    0.57    0.66
   0  11   1   -1.52    1.11
   0  11   1   -0.11    0.54
   0  11   1   -0.87    0.72
   0 -11   1   -0.71    0.63
   0 -11   1   -0.02    0.13
   0  11  -3   -0.25    0.72
   0 -11   3    0.56    0.51
   0  11   3   -0.14    0.82
   0  11  -3    1.03    0.55
   0  11  -3    0.95    1.08
   0 -11   3    0.14    0.73
   0 -11  -3    0.78    1.24
   0  11   3    0.19    0.24
   0  11   3   -0.07    0.64
   0  11  -3   -0.03    0.41
   0 -11  -3   -1.17    0.63
   0 -11  -3    0.40    0.26
   0 -11  -3    0.19    0.40
   0  11   3    0.08    1.18
   0 -11   3    0.24    0.41
   0  11  -3    0.55    0.35
   0 -11   3   -0.54    0.96
   0 -11  -3    0.07    0.86
   0  11  -3    0.21    0.18
   0  11   3   -1.57    1.64
   0 -11  -3   -0.15    1.73
   0  11  -5    0.89    0.54
   0  11   5   -0.05    0.35
   0  11   5    0.11    1.23
   0 -11  -5   -0.33    0.52
   0 -11  -5   -0.42    2.34
   0 -11  -5    6.62    3.88
   0 -11   5    1.48    1.94
   0 -11  -5    1.20    1.73
   0 -11  -5   -0.05    0.41
   0  11  -5   -0.03    0.34
   0  11   5   -0.11    2.17
   0 -11   5    0.42    1.58
   0 -11   5   -1.12    0.93
   0 -11   5   -1.63    1.32
   0 -11   5    0.36    1.11
   0 -11   5    0.98    0.78
   0 -11  -5   -0.85    1.36
   0 -11   5    0.44    0.79
   0  11   5    0.27    3.02
   0 -11   5   -0.16    0.42
   0 -11   5    0.73    0.64
   0  11   5   -1.27    1.50
   0 -11  -7   -0.07    0.70
   0  11  -7   -1.78    0.87
   0 -11  -7    1.40    0.73
   0  11   7    0.00    0.63
   0 -12   0   66.48    3.21
   0  12   0   67.25    2.82
   0 -12   0   65.69    3.76
   0  12   0   65.67    3.16
   0 -12   0   64.71    2.74
   0  12   0   67.22    3.36
   0 -12   0   66.53    3.39
   0 -12   0   66.51    4.32
   0 -12   0   68.67    2.70
   0  12   0   65.86    2.72
   0  12   0   62.50    4.19
   0  12   0   66.72    3.70
   0 -12  -2    8.95    2.12
   0 -12  -2   14.51    1.30
   0 -12  -2    9.58    0.79
   0  12  -2   10.59    0.76
   0  12  -2    8.75    1.25
   0  12  -2   11.64    0.61
   0  12  -2   10.56    1.69
   0 -12  -2   12.78    0.73
   0 -12  -2   13.37    1.82
   0  12  -2   12.11    0.94
   0  12  -2   10.80    1.03
   0 -12  -2   11.75    1.44
   0  12  -4   69.66    3.32
   0 -12   4   69.68    2.88
   0  12   4   64.62    2.97
   0 -12  -4   69.32    3.11
   0  12  -4   68.83    3.68
   0 -12  -4   68.40    4.57
   0  12   4   65.17    5.56
   0 -12   4   71.43    4.21
   0  12  -4   69.30    3.16
   0  12  -4   74.07    3.15
   0 -12  -4   71.51    5.55
   0 -12   4   65.37    3.28
   0 -12   4   66.37    3.60
   0 -12  -4   72.89    3.73
   0  12   4   68.61    3.98
   0  12   4   68.51    4.58
   0 -12   4   65.01    3.13
   0  12  -4   69.66    4.29
   0  12   4   70.05    3.68
   0 -12  -4   65.09    3.92
   0  12  -4   71.26    2.76
   0  12  -6   78.47    3.53
   0 -12   6   80.23    3.57
   0  12   6   81.38    3.45
   0 -12  -6   76.55    3.66
   0  12  -6   75.11    3.27
   0 -12  -6   79.10    3.55
   0  13  -1   -0.32    0.30
   0  13   1   -0.27    0.24
   0  13   1    1.75    1.16
   0  13  -1    1.08    1.33
   0 -13   1   -1.20    0.58
   0  13  -1   -0.86    0.78
   0 -13  -1    0.39    1.06
   0 -13   1   -0.46    0.21
   0 -13   1    0.15    0.18
   0 -13  -1    0.11    0.76
   0  13   1   -1.05    0.69
   0  13   1   -0.33    0.21
   0 -13  -1   -0.42    0.61
   0  13   1   -0.90    1.53
   0 -13   1   -0.02    0.53
   0 -13  -1   -1.97    1.33
   0 -13   1   -0.46    0.85
   0 -13  -1    0.05    0.32
   0 -13  -1   -0.06    0.23
   0 -13   1   -0.59    1.19
   0  13  -1    0.39    0.52
   0  13   1    0.15    0.60
   0  13  -1   -0.81    0.58
   0 -13   3    0.51    0.22
   0  13  -3    0.69    0.39
   0 -13   3    0.71    0.51
   0  13   3   -0.09    1.43
   0  13   3    1.42    0.84
   0 -13  -3    0.67    1.95
   0  13   3    2.46    1.05
   0 -13   3    1.85    0.70
   0 -13  -3    0.15    0.41
   0  13   3   -0.04    1.96
   0  13   3    0.32    0.25
   0 -13   3   -1.52    0.84
   0  13  -3   -0.53    1.25
   0  13  -3    0.46    0.88
   0 -13   3    0.77    1.23
   0  13  -3   -0.17    0.59
   0 -13  -3    1.44    0.89
   0 -13  -3    0.46    1.03
   0  13  -3    0.71    0.50
   0 -13  -3   -1.29    1.36
   0  13  -3    0.23    0.21
   0 -13  -5    1.28    2.40
   0 -13   5    1.27    1.93
   0 -13   5    1.76    1.13
   0 -13   5   -0.89    2.10
   0 -13   5   -1.30    0.74
   0 -13   5    0.64    1.53
   0  13   5    3.31    2.42
   0 -13  -5    0.33    1.69
   0 -13  -5   -2.06    1.33
   0  13   5   -0.42    0.36
   0  13   5    1.20    1.32
   0 -13  -5   -4.82    3.27
   0 -13   5   -0.91    0.83
   0 -13   5    1.67    0.96
   0  13  -5   -0.03    0.37
   0 -13  -5   -0.11    0.39
   0 -13   5    0.17    0.44
   0  13   5   -1.51    1.63
   0  13  -5   -0.69    0.60
   0 -13  -5   -0.14    0.48
   0  13   5    1.96    3.45
   0 -14   0   75.42    3.92
   0  14   0   72.67    3.23
   0 -14   0   80.37    3.74
   0 -14   0   76.99    3.17
   0 -14   0   77.53    3.11
   0 -14   0   75.46    4.35
   0  14   0   79.00    3.89
   0  14   0   75.27    3.13
   0 -14   0   80.47    5.08
   0  14   0   78.41    3.67
   0  14   0   78.49    4.31
   0  14   0   73.11    4.88
   0 -14  -2    4.85    1.18
   0 -14   2    6.16    1.78
   0 -14  -2    6.40    1.68
   0 -14  -2    4.30    1.07
   0  14   2    3.76    1.10
   0  14   2    3.30    1.41
   0 -14   2    3.75    1.22
   0 -14  -2    4.05    2.17
   0  14   2    2.39    0.40
   0 -14   2    2.22    0.32
   0  14   2    3.55    0.94
   0 -14   2    2.94    0.91
   0  14   2    3.34    0.44
   0 -14  -2    3.79    0.55
   0  14   2    4.52    2.12
   0 -14  -2    3.21    0.46
   0 -14   2    3.41    0.77
   0  14  -2    3.27    0.50
   0 -14  -4    3.03    2.65
   0  14   4    2.36    0.47
   0 -14  -4    1.36    1.88
   0 -14   4    0.51    1.49
   0  14  -4    2.11    0.89
   0  14  -4    1.06    1.83
   0  14  -4    1.74    0.56
   0  14   4    3.06    1.17
   0  14  -4    3.26    1.27
   0  14  -4    2.15    0.38
   0  14   4    1.25    2.76
   0  14   4    4.07    2.02
   0 -14  -4    2.81    0.66
   0 -14   4    3.07    0.88
   0 -14  -4    6.24    1.60
   0  14  -4    1.16    0.70
   0 -14  -4    1.09    1.12
   0 -14  -4    2.17    0.50
   0 -14   4    2.27    0.75
   0 -14   4    2.67    1.17
   0  14   4    2.39    1.42
   0  14   6   17.54    1.17
   0  14  -6   14.85    1.40
   0 -14   6   15.34    1.26
   0 -14  -6   16.70    1.29
   0 -14  -6   13.98    1.32
   0 -15  -1    0.22    0.29
   0  15   1   -0.03    1.75
   0  15   1    0.34    1.18
   0 -15   1   -0.40    1.15
   0  15  -1    0.46    1.06
   0  15   1   -0.89    0.84
   0  15   1    0.27    0.31
   0 -15   1   -0.09    0.20
   0 -15  -1   -0.17    0.76
   0 -15  -1    1.08    1.84
   0 -15   1    0.05    0.64
   0 -15   1   -0.03    0.77
   0  15   1   -0.31    0.66
   0 -15  -1   -0.66    1.27
   0 -15   1    1.03    1.60
   0  15  -1    0.78    0.76
   0  15  -1   -0.02    0.36
   0 -15  -1   -0.40    0.90
   0  15   1   -0.14    0.21
   0  15  -1    0.09    0.57
   0 -15   1   -0.10    0.29
   0  15  -1   -1.37    1.41
   0 -15  -1    0.03    0.34
   0 -15   3    0.14    0.23
   0 -15   3   -0.23    1.58
   0 -15   3    1.46    0.64
   0  15  -3    0.46    0.56
   0 -15  -3   -0.36    0.42
   0  15   3    0.27    1.57
   0 -15  -3    3.24    1.94
   0  15  -3    0.47    1.02
   0  15   3    1.19    1.19
   0  15   3    1.74    0.99
   0 -15  -3    0.75    0.37
   0  15  -3    1.29    1.51
   0  15   3   -3.58    2.06
   0 -15   3    0.98    1.13
   0 -15   3    1.15    0.80
   0  15  -3   -0.62    0.44
   0 -15  -3    0.54    0.98
   0 -15  -3    3.70    2.76
   0 -15  -3    2.21    1.29
   0  15  -3   -0.55    0.64
   0  15   3    0.48    0.34
   0  15   5    0.40    0.42
   0  15  -5    0.04    0.38
   0 -15  -5    0.31    0.52
   0  15   5   -4.01    1.86
   0  15  -5   -0.02    0.64
   0  15   5   -0.33    1.49
   0 -15   5   -0.26    0.50
   0 -15  -5    1.42    0.70
   0  15   5   -5.55    2.70
   0  15   5    3.44    4.09
   0  16   0  203.87    8.45
   0  16   0  194.41    7.84
   0 -16   0  206.34    8.52
   0 -16   0  204.38    8.80
   0  16   0  208.96    8.73
   0  16   0  192.76    7.96
   0  16   0  212.44    9.29
   0 -16   0  201.82    7.90
   0 -16   0  204.17   10.12
   0  16   0  192.76    9.93
   0 -16   0  198.62    7.81
   0 -16   0  203.87    9.29
   0  16  -2  344.18   13.30
   0 -16  -2  328.63   13.05
   0 -16  -2  331.16   15.69
   0  16  -2  341.92   14.59
   0 -16  -2  335.49   12.92
   0 -16  -2  343.31   14.05
   0  16   2  330.02   13.61
   0 -16   2  320.32   14.65
   0  16   2  329.92   15.48
   0 -16  -2  334.84   14.67
   0 -16   2  333.96   13.58
   0  16   2  341.32   12.90
   0  16   2  330.08   13.90
   0  16  -2  334.68   13.05
   0 -16   2  333.36   14.02
   0  16  -2  344.09   13.93
   0 -16   2  331.82   13.34
   0  16  -2  349.84   13.53
   0  16   2  341.04   12.92
   0 -16   2  332.11   12.77
   0  16   2  320.41   14.46
   0 -16  -2  341.01   13.72
   0  16  -4  118.56    5.73
   0 -16  -4  114.28    4.98
   0  16   4  111.96    8.22
   0 -16   4  113.36    5.32
   0 -16   4  105.97    6.45
   0  16   4  114.49    6.95
   0 -16  -4  117.44    6.16
   0 -16  -4  117.87    4.81
   0  16  -4  116.51    4.51
   0  16   4  110.83    4.73
   0 -16   4  118.25    5.12
   0  16  -4  122.64    5.09
   0 -16  -4  117.43    5.75
   0  16  -4  108.43    6.38
   0 -16   4  114.93    5.78
   0  16   4  118.47    6.16
   0  16  -4  119.71    5.29
   0  16  -4  114.35    4.87
   0 -16  -4  118.15    8.16
   0 -16  -4  110.51    6.88
   0 -16   4  116.20    4.55
   0  16   4  112.37    5.69
   0  16   6   58.93    2.85
   0  16  -6   61.97    3.04
   0 -16  -6   64.99    3.24
   0 -16  -6   61.55    2.98
   0 -16   6   59.13    2.81
   0  17  -1    0.09    0.90
   0  17  -1   -0.01    2.09
   0  17   1    1.38    1.34
   0  17   1    2.34    1.89
   0  17  -1    0.05    1.41
   0 -17   1   -0.19    0.31
   0 -17  -1    0.52    0.42
   0  17   1    0.05    0.24
   0  17   1    0.52    0.85
   0 -17   1    0.99    1.05
   0  17   1    0.56    1.00
   0 -17  -1    0.93    1.40
   0 -17   1    0.28    0.26
   0 -17   1   -0.47    1.37
   0 -17   1   -2.89    1.94
   0 -17  -1    1.34    0.92
   0  17  -1    0.18    0.37
   0 -17  -1   -0.53    1.00
   0 -17   1    0.02    0.83
   0  17   1    0.32    0.36
   0 -17  -1    0.75    2.21
   0  17  -1    1.53    1.22
   0 -17  -1    0.66    0.35
   0  17  -3   -3.11    1.61
   0 -17  -3    0.23    3.08
   0  17   3    0.39    3.03
   0 -17   3    0.50    0.76
   0 -17   3   -0.14    1.31
   0  17   3    2.82    2.13
   0  17  -3    1.41    1.22
   0  17   3    0.26    0.34
   0  17   3   -0.55    1.09
   0  17   3    3.05    1.49
   0 -17   3   -0.04    0.30
   0 -17   3   -0.67    1.94
   0 -17  -3    0.15    0.40
   0 -17  -3    0.47    1.46
   0  17  -3   -0.52    0.51
   0 -17   3    0.53    0.95
   0  17  -3    1.53    0.89
   0  17  -3    1.23    0.70
   0 -17  -3    0.01    1.20
   0 -17  -3    2.44    2.23
   0 -17  -3    0.77    0.53
   0  17   5    0.43    0.49
   0  17  -5    0.30    0.39
   0 -17  -5    0.02    0.56
   0 -17   5    0.14    0.44
   0 -17  -5    1.54    0.74
   0  17  -5    0.02    0.66
   0  18   0   13.28    2.90
   0 -18   0   12.33    2.26
   0  18   0   13.76    1.74
   0  18   0   10.95    0.74
   0 -18   0   13.62    1.58
   0  18   0   14.35    1.50
   0 -18   0   11.28    0.73
   0 -18   0   14.44    3.06
   0 -18   0   11.03    1.81
   0  18   0   16.07    2.32
   0 -18   0   10.77    0.82
   0 -18  -2   87.43    3.84
   0  18   2   87.65    3.85
   0  18   2   93.95    5.63
   0  18   2   94.76    3.86
   0  18   2   89.36    4.94
   0  18  -2   97.26    5.99
   0 -18  -2   94.28    5.15
   0  18  -2   93.59    4.34
   0 -18  -2   85.06    5.70
   0  18  -2   90.83    5.06
   0 -18   2   96.01    5.24
   0 -18   2   99.81    4.74
   0 -18  -2   87.61    3.96
   0  18  -2   87.95    4.55
   0 -18   2   98.42    4.45
   0  18   2   92.09    4.64
   0 -18  -2   93.23    4.77
   0  18   2   86.77    6.61
   0 -18  -2   86.18    6.95
   0 -18   2   94.57    3.73
   0 -18   2   93.47    6.01
   0 -18  -4   24.75    3.26
   0  18   4   30.16    3.42
   0  18  -4   27.32    1.92
   0 -18  -4   23.78    4.12
   0  18  -4   27.92    1.24
   0  18  -4   28.61    3.68
   0 -18   4   26.94    2.98
   0 -18   4   25.82    2.39
   0  18   4   28.44    1.50
   0 -18   4   24.76    3.92
   0  18  -4   22.13    2.65
   0  18  -4   26.50    2.17
   0 -18  -4   25.85    2.78
   0  18   4   25.92    2.82
   0  18   4   27.44    5.04
   0 -18  -4   24.20    1.50
   0 -18  -4   25.85    1.75
   0 -18  -4   24.04    5.12
   0 -18   4   25.45    2.06
   0  18   4   26.80    4.42
   0 -18   4   28.18    1.29
   0  18   6   20.39    1.43
   0  18  -6   18.20    1.66
   0 -18   6   21.27    1.52
   0 -18  -6   17.43    1.51
   0 -18  -6   18.90    1.83
   0 -19  -1    0.42    1.29
   0  19  -1    1.27    2.07
   0 -19   1    0.53    1.59
   0  19  -1    1.29    0.89
   0 -19  -1   -0.14    2.67
   0  19  -1    0.68    1.07
   0  19   1    0.04    0.30
   0 -19   1    5.42    2.43
   0  19  -1    0.37    1.48
   0 -19  -1    1.35    1.05
   0 -19   1    0.68    1.17
   0  19  -1    0.30    0.45
   0  19   1    2.49    1.87
   0 -19  -1    1.29    0.50
   0  19   1    5.64    2.73
   0  19   1    0.31    0.39
   0 -19   1   -0.05    0.28
   0 -19  -1    0.23    0.34
   0 -19   1    0.37    0.39
   0  19   1    2.02    1.05
   0  19   1    1.44    1.32
   0 -19   1   -0.03    0.88
   0 -19  -1   -0.98    1.70
   0 -19  -3    3.49    3.50
   0 -19  -3   -1.58    2.49
   0 -19   3    0.68    2.29
   0 -19  -3   -0.70    0.57
   0 -19   3    0.02    0.36
   0 -19  -3    0.51    0.42
   0  19   3    0.37    0.38
   0 -19   3   -3.07    1.51
   0 -19   3   -1.28    1.15
   0 -19   3    0.75    0.96
   0  19   3    5.45    3.52
   0  19  -3    0.25    0.83
   0  19  -3   -2.36    2.07
   0  19  -3    0.86    0.61
   0  19  -3   -0.25    1.50
   0  19   3    0.70    1.34
   0 -19  -3   -1.07    1.87
   0  19  -3    0.68    1.11
   0  19   3    2.66    2.43
   0  19   3    1.49    1.66
   0 -19  -3    0.99    1.57
   0 -19   5    0.69    0.63
   0 -19   5    0.04    0.57
   0  19  -5    1.43    0.81
   0 -19  -5    0.99    0.85
   0 -19  -5   -0.04    0.61
   0  19   5   -0.28    0.50
   0 -20   0  100.89    5.83
   0  20   0  104.56    6.69
   0 -20   0   95.34    3.97
   0 -20   0   96.93    5.12
   0 -20   0   92.86    4.72
   0 -20   0   94.91    3.87
   0  20   0   95.26    4.65
   0  20   0   84.80    3.99
   0  20   0   95.87    5.56
   0  20   0   97.86    4.97
   0 -20   0   91.75    6.70
   0 -20   2    9.47    2.87
   0  20  -2    6.44    1.25
   0 -20  -2    6.17    2.06
   0  20   2    7.65    0.72
   0 -20   2    6.33    2.13
   0  20  -2    1.56    1.74
   0 -20   2    6.53    1.34
   0  20  -2    5.48    0.79
   0  20   2    9.58    1.82
   0 -20   2    8.29    0.71
   0  20   2    8.22    2.37
   0  20   2    8.26    0.81
   0  20   2    8.95    1.81
   0 -20  -2    8.37    1.86
   0 -20  -2    4.57    0.88
   0 -20  -2    9.48    2.87
   0  20   2    7.43    3.20
   0 -20   2    9.85    1.90
   0 -20  -2    1.90    3.72
   0  20  -2    5.38    2.59
   0 -20  -4   11.23    1.30
   0  20   4   15.54    2.52
   0  20   4   12.00    0.97
   0 -20  -4    7.57    2.34
   0  20  -4    9.07    1.21
   0  20   4   16.62    5.07
   0  20   4   16.65    3.77
   0 -20  -4   13.23    5.34
   0 -20   4   13.26    0.82
   0 -20  -4   10.27    1.00
   0 -20  -4   10.19    3.86
   0 -20  -4   12.89    2.95
   0  20   4   13.70    2.80
   0  20  -4    9.18    0.72
   0 -21   1    0.26    1.27
   0  21  -1    0.73    0.46
   0 -21  -1   -0.56    0.46
   0  21  -1    0.48    1.23
   0 -21  -1   -1.56    2.28
   0 -21  -1   -0.84    3.22
   0 -21  -1    1.05    1.67
   0  21   1    0.33    0.35
   0 -21   1   -0.18    0.41
   0  21  -1    1.22    1.06
   0  21   1    0.27    0.45
   0 -21   1    0.70    1.07
   0  21   1    1.31    1.69
   0 -21   1    0.79    0.34
   0  21  -1    1.09    1.85
   0 -21   1   -0.09    1.75
   0 -21  -1    0.80    1.30
   0  21  -1    3.21    2.67
   0 -21  -1   -0.10    0.36
   0 -21   1    6.22    2.76
   0  21   3   -0.01    0.46
   0 -21  -3    0.01    0.45
   0 -21   3    1.19    1.17
   0 -21   3    1.25    1.44
   0  21  -3   -0.44    0.50
   0 -21  -3   -5.07    2.69
   0 -21  -3   -0.68    0.63
   0 -21   3    0.36    0.45
   0 -21   3    2.01    2.05
   0  21   3   -2.89    3.68
   0  21   3   -2.95    2.43
   0 -21  -3    2.33    4.21
   0 -21   3   -0.04    2.72
   0 -21  -3   -0.96    2.09
   0 -21  -3    0.09    1.72
   0  21   3   -0.51    1.73
   0  21   3   -0.27    0.40
   0  21  -3   -0.17    0.93
   0  21   3   -0.50    1.46
   0  21  -3    1.22    1.33
   0  21  -3    3.26    2.76
   0  21  -3    0.50    1.76
   0  21   5    0.38    0.55
   0 -21   5    1.18    0.80
   0 -21  -5    0.86    0.72
   0 -21  -5   -0.07    0.78
   0  21  -5    0.98    0.90
   0 -22   0  146.84    6.84
   0 -22   0  169.05    9.37
   0 -22   0  155.10    8.03
   0  22   0  146.75    5.91
   0  22   0  145.17    7.76
   0 -22   0  148.74    7.24
   0 -22   0  144.67    5.88
   0 -22   0  144.45    6.00
   0  22   0  142.35    6.06
   0  22   0  147.34    7.10
   0  22   0  148.83    6.76
   0  22   0  150.58    8.91
   0 -22  -2   52.58    2.35
   0  22   2   46.38    2.37
   0  22   2   45.98    2.33
   0  22  -2   49.75    3.06
   0 -22   2   46.95    4.15
   0  22  -2   52.16    4.10
   0 -22   2   47.50    3.46
   0  22  -2   60.01    5.33
   0 -22   2   47.64    2.24
   0  22  -2   52.02    3.39
   0  22  -2   53.74    2.52
   0 -22  -2   55.09    2.56
   0  22   2   48.68    3.39
   0  22   2   38.07    5.70
   0 -22   2   46.48    3.11
   0  22   2   52.59    4.69
   0 -22   2   49.81    5.43
   0  22   2   47.35    3.78
   0 -22  -4  118.21    5.31
   0  22   4  120.73    5.26
   0 -22   4  122.82    5.03
   0 -22  -4  124.62    5.59
   0  22  -4  146.54    6.29
   0  23   1   -0.89    1.19
   0  23   1   -1.55    1.51
   0 -23   1    0.70    0.53
   0 -23   1    0.52    0.39
   0 -23  -1   -0.11    0.56
   0 -23  -1    0.56    1.48
   0  23  -1    0.10    0.51
   0 -23  -1    0.29    0.39
   0  23  -1    3.77    2.14
   0  23   1    0.78    2.25
   0  23   1   -0.75    3.30
   0 -23  -1    2.17    3.61
   0  23  -1    1.33    1.45
   0  23  -1    1.99    1.19
   0 -23  -1   -0.74    1.74
   0  23   1    0.75    0.48
   0  23  -1    1.98    2.95
   0  23   1   -0.25    0.33
   0 -23  -1    4.64    2.56
   0  23   3    0.02    0.44
   0 -23   3    1.13    0.57
   0  23  -3    1.28    0.64
   0  23   3   -1.40    4.19
   0  23   3    0.51    0.55
   0 -23  -3    4.17    2.63
   0  23   3    0.76    3.12
   0  23   3    4.12    2.32
   0  23  -3    3.31    3.88
   0  23  -3   -0.09    2.59
   0 -23  -3    1.60    2.98
   0  23  -3    2.12    1.82
   0 -23  -3   -0.74    5.20
   0 -23  -3    0.31    0.49
   0  23   3    0.59    1.80
   0 -23  -3    4.99    5.45
   0 -23  -3    0.28    0.68
   0  23  -3   -0.45    1.36
   0  23  -5    0.21    0.92
   0 -23   5    0.43    0.88
   0 -23  -5    1.02    1.10
   0 -23  -5   -0.63    0.73
   0  23   5   -0.15    0.65
   0  24   0  259.67   13.62
   0 -24   0  259.05   10.20
   0 -24   0  259.92   10.33
   0 -24   0  267.27   11.71
   0 -24   0  265.83   12.52
   0 -24   0  258.51   13.76
   0  24   0  269.68   12.37
   0  24   0  265.17   11.16
   0  24   0  258.46   10.42
   0  24   0  274.25   11.58
   0  24   0  249.48   10.22
   0 -24   0  269.45   11.30
   0  24   2   59.08    4.47
   0 -24   2   72.87    6.52
   0 -24  -2   64.96    8.19
   0 -24   2   59.08    4.21
   0 -24   2   65.39    2.88
   0  24   2   56.78    7.06
   0 -24   2   69.73    3.93
   0  24   2   67.18    3.05
   0  24  -2   60.98    4.17
   0 -24   2   54.43    4.96
   0  24   2   69.85    4.13
   0  24  -2   63.44    3.79
   0  24   2   66.62    2.99
   0 -24  -2   69.26    3.17
   0  24   2   68.69    5.58
   0  24  -2   62.43    5.00
   0 -24  -2   69.42    6.22
   0  24  -2   64.77    6.49
   0 -24  -2   63.76    2.93
   0 -24  -2   72.50    4.60
   0 -24  -2   68.81    5.07
   0  24  -4   52.84    3.57
   0 -24   4   45.65    2.18
   0 -24  -4   39.88    2.58
   0 -24  -4   41.96    2.34
   0  24   4   40.32    2.26
   0  25   1    0.64    1.48
   0  25   1    0.04    0.38
   0 -25  -1    1.83    2.13
   0  25   1    3.61    2.69
   0  25  -1   -0.18    1.34
   0 -25   1    0.83    0.57
   0 -25  -1   -0.51    0.40
   0 -25  -1    4.76    1.87
   0  25   1    0.35    0.46
   0  25  -1    4.60    2.46
   0  25   1    7.27    3.89
   0  25   1    2.49    1.91
   0 -25  -1   -0.16    0.60
   0  25  -1    2.30    3.52
   0 -25  -1   -0.54    2.84
   0 -25   1    0.71    2.43
   0 -25   1   -2.83    3.30
   0 -25   1    2.53    1.84
   0 -25   1   -0.84    1.37
   0 -25   1    0.28    0.44
   0  25  -1    0.11    1.70
   0 -25  -1    1.36    3.85
   0  25  -1    0.74    0.59
   0 -25  -3    0.17    0.73
   0  25   3    2.24    5.50
   0  25   3    0.83    0.61
   0 -25  -3    2.01    4.45
   0  25   3    4.08    3.95
   0 -25  -3    1.31    2.43
   0  25   3    5.25    2.88
   0 -25  -3   -0.64    3.07
   0 -25   3    0.74    0.71
   0 -25  -3    3.78    6.30
   0  25   3    0.13    2.15
   0 -25  -3    1.28    0.62
   0  25  -3    1.51    0.75
   0  25   3    1.13    0.60
   0 -26   0   98.43    8.24
   0 -26   0   93.88    5.60
   0  26   0   98.08    8.09
   0 -26   0   89.02    3.93
   0  26   0   87.45    3.83
   0  26   0   90.22    6.26
   0 -26   0   90.01    3.80
   0  26   0   84.75    5.27
   0  26   0   91.02    4.92
   0 -26   0   96.41    6.60
   0  26   0   90.08    4.04
   0 -26   0   93.02    5.13
   0  26   2  171.16    7.03
   0  26   2  172.56    8.68
   0  26   2  172.56    6.99
   0 -26  -2  169.56   10.26
   0  26   2  174.32    8.18
   0 -26  -2  164.65    6.91
   0  26   2  182.63   11.54
   0 -26  -2  181.23    9.15
   0 -26  -2  176.98    8.52
   0 -26  -2  166.22    7.11
   0  26   2  175.30    9.82
   0  26  -2  165.92    7.11
   0 -26   2  167.13    6.86
   0 -26  -2  164.24   12.25
   0  26  -4   55.51    3.65
   0 -26  -4   47.70    2.86
   0  26   4   44.52    2.51
   0 -26  -4   47.35    2.56
   0 -27   1   -0.53    1.80
   0 -27  -1    4.07    3.73
   0 -27  -1   10.48    5.57
   0  27   1   -2.04    1.71
   0 -27  -1    1.67    2.08
   0 -27   1    8.54    4.43
   0  27   1    3.95    2.40
   0 -27   1    0.31    0.53
   0  27   1   -1.01    4.58
   0  27  -1   -0.47    2.07
   0  27   1    5.24    3.44
   0 -27   1    6.57    3.38
   0  27  -1   -0.47    1.69
   0  27   1    0.31    0.57
   0  27  -1    0.51    0.61
   0  27  -1   -2.29    4.18
   0 -27  -1    1.67    2.64
   0  27  -1    2.66    3.00
   0 -27   1   -0.61    2.27
   0  27   3    0.58    0.68
   0  27   3    0.85    0.62
   0 -27  -3    1.06    0.67
   0 -27  -3    2.12    0.93
   0 -27   3    0.01    0.71
   0  27  -3    0.06    0.76
   0  28   0   23.91    2.86
   0  28   0   22.75    4.51
   0 -28   0   27.59    3.28
   0  28   0   19.24    2.99
   0 -28   0   24.03    3.58
   0 -28   0   33.25    5.26
   0 -28   0   18.91    5.81
   0 -28   0   22.80    1.37
   0 -28   0   24.71    1.52
   0  28   0   22.79    1.59
   0  28   0   30.44    5.83
   0 -28  -2  111.87   11.41
   0 -28  -2  100.19    4.42
   0 -28  -2   96.64    7.07
   0 -28   2  100.69    4.38
   0 -28  -2  103.77    4.66
   0  28   2  104.46    4.50
   0 -28  -2  109.95    8.67
   0  28   2  102.56    7.71
   0  28   2  103.64    5.99
   0  28   2   98.74    6.49
   0  28   2  104.31    4.55
   0 -28  -2  108.18    6.47
   0  28   2  113.05   10.32
   0  29   1    0.39    3.60
   0 -29  -1    3.83    4.02
   0  29  -1    0.09    0.65
   0 -29  -1   -0.73    5.72
   0  29   1   -0.96    5.02
   0  29   1    2.76    2.08
   0 -29  -1    1.51    2.95
   0  29   1    0.82    0.52
   0 -29  -1    0.27    0.58
   0 -29   1    1.26    0.77
   0  29   1    1.57    2.62
   0 -29  -1    2.38    2.47
   0 -29  -1    0.56    0.80
   0  29   1    0.02    0.55
   0 -29  -3   -0.92    0.98
   0 -29  -3    0.68    0.73
   0  29   3    0.66    0.74
   0  29  -3    1.59    0.97
   0  29   3   -0.94    0.63
   0  30   0    0.45    0.67
   0 -30   0    0.23    0.53
   0 -30   0    0.75    0.77
   0 -30   2   16.84    1.40
   0  30   2   15.87    1.26
   0 -30  -2   16.98    1.31
   0  30  -2   17.98    1.54
   0  30   2   13.15    1.36
   0 -30  -2   15.64    1.53
   0  31  -1   -0.02    0.66
   0  31   1   -0.08    0.63
   0 -31   1   -0.11    0.78
   0 -31  -1    0.50    0.89
   0 -31  -1    0.63    0.63
   0  31   1    1.33    0.59
   0 -32   0  118.12    5.11
   0 -32   0  118.40    4.93
   0  32   0  116.06    5.19
  -1   0   0   -0.16    0.17
   1   0   0    0.02    0.07
  -1   0   0   -0.18    0.26
  -1   0   0    0.02    0.06
  -1   0   0    0.23    0.15
  -1   0   0    0.07    0.11
   1   0  -2   -0.73    0.14
  -1   0   2   -0.32    0.48
  -1   0   2   -1.01    0.31
   1   0   2   -0.64    0.40
   1   0  -2   -0.65    0.14
   1   0   2   -0.71    0.23
  -1   0   2   -0.46    0.22
  -1   0  -2   -0.71    0.11
   1   0   2   -0.61    0.50
  -1   0  -2   -0.60    0.13
  -1   0   2   -0.66    0.15
   1   0   2   -0.90    0.28
  -1   0   2   -0.58    0.19
   1   0  -2   -0.13    0.38
   1   0   2   -0.72    0.36
   1   0  -2   -0.50    0.14
   1   0   2   -1.10    0.26
  -1   0   2   -0.54    0.23
   1   0  -2   -0.73    0.25
   1   0  -2   -0.60    0.18
   1   0   2   -0.65    0.62
   1   0   2   -0.68    0.13
   1   0   2   -0.16    0.75
  -1   0   2   -0.57    0.08
  -1   0   4   -0.01    0.53
   1   0   4    0.35    0.66
  -1   0   4    0.58    1.03
   1   0   4    1.19    0.79
   1   0   4   -0.07    0.64
   1   0  -4    0.16    0.25
   1   0   4   -1.08    1.28
  -1   0   4   -0.18    0.39
  -1   0  -4    0.26    0.27
   1   0   4    0.07    0.26
   1   0   4   -1.09    1.02
  -1   0  -4   -0.35    0.27
   1   0   4    0.36    0.96
   1   0  -4   -0.15    0.22
   1   0   4   -0.50    0.49
   1   0   4   -1.95    1.45
   1   0  -4   -0.38    0.27
  -1   0   4   -0.34    0.70
  -1   0   4    0.17    0.20
   1   0  -6   -0.43    0.51
   1   0   6    2.73    1.59
   1   0  -6    0.56    0.51
   1   0   6   -0.02    3.04
  -1   0   6    3.19    3.10
  -1   0   6    2.77    2.49
   1   0   6    0.01    0.44
  -1   0  -6   -0.15    0.49
  -1   0   6   -0.38    0.40
  -1   0  -6    0.39    0.48
   1   0   6   -0.80    1.21
  -1   0   6   -2.72    1.24
  -1   0   6   -1.74    1.65
   1   0   6    2.63    2.17
   1   0  -6    0.47    0.49
   1  -1  -1  223.97    9.60
  -1   1  -1  263.45    9.77
  -1  -1   1  248.83    9.57
   1   1   1  271.53   10.39
   1  -1  -1  223.07    9.82
  -1  -1   1  251.34    9.60
   1  -1  -1  217.09    9.67
   1   1   1  265.49    9.92
  -1   1  -1  274.29   10.01
   1   1   1  266.41    9.83
  -1   1  -1  278.28    9.64
   1   1   1  274.94    9.64
   1   1   1  271.56   10.11
  -1  -1   1  258.03    9.65
  -1   1  -1  270.48   10.28
   1  -1  -1  223.79    9.97
   1  -1  -1  218.02    9.72
   1  -1  -1  245.91    9.63
   1   1   1  262.09    9.61
  -1   1  -1  271.89    9.85
  -1   1   1  249.85    9.77
   1   1  -1  252.21    9.58
  -1   1   1  253.70    9.90
   1   1  -1  261.46    9.69
   1  -1   1  251.33    9.76
   1  -1   1  271.51   10.01
   1  -1   1  269.40   10.26
  -1   1   1  242.31    9.68
  -1   1   1  213.06    9.63
   1  -1   1  257.77    9.84
  -1   1   1  260.00    9.56
  -1   1   1  215.09    9.61
  -1  -1  -1  259.34    9.61
   1   1  -1  245.73    9.59
   1   1  -1  278.78    9.58
  -1   1   1  239.54    9.65
   1   1  -1  259.10    9.60
  -1  -1  -1  282.87    9.64
   1  -1   1  270.08    9.64
   1   1  -1  260.20    9.63
   1  -1  -3  232.22    8.76
   1   1   3  224.06    9.11
  -1   1  -3  229.36    8.71
   1   1   3  217.62   10.08
   1   1   3  223.27    9.26
   1  -1  -3  230.71    9.45
   1   1   3  233.65    8.75
  -1  -1   3  220.18    9.22
  -1  -1   3  226.37    9.00
  -1  -1   3  229.62    8.78
   1   1   3  227.10    9.43
   1  -1  -3  227.67    8.72
   1   1   3  216.25    8.99
   1   1   3  218.14    9.56
  -1  -1   3  225.22    8.85
   1   1   3  215.74    9.11
   1   1   3  224.63    9.92
  -1   1  -3  242.14    8.77
   1  -1  -3  232.73    8.61
   1  -1  -3  221.72    8.93
   1  -1  -3  226.93    9.13
  -1  -1   3  235.08    8.62
   1  -1  -3  223.67    8.84
  -1  -1  -3  231.37    8.77
  -1   1   3  237.78    8.64
   1  -1   3  222.21    9.84
  -1   1   3  231.71    8.99
  -1  -1  -3  234.88    8.75
   1   1  -3  230.00    8.69
  -1   1   3  223.83    8.87
  -1   1   3  224.03    9.18
   1  -1   3  218.76    9.11
   1  -1   3  227.14    9.00
  -1  -1  -3  229.43    8.72
   1  -1   3  224.60    8.74
   1   1  -3  234.56    8.64
  -1   1   3  225.03    9.51
   1  -1   3  225.53    9.41
   1   1  -3  240.76    8.74
   1  -1  -5  148.48    5.54
   1   1   5  132.73    6.73
  -1   1  -5  143.94    5.65
   1   1   5  145.55    7.93
   1   1   5  133.26    6.21
   1  -1  -5  142.22    5.65
  -1  -1   5  145.97    5.90
  -1  -1   5  140.11    6.90
  -1  -1   5  146.46    6.05
   1   1   5  138.76    7.55
  -1  -1   5  141.45    6.63
   1   1   5  138.69    7.02
   1   1   5  144.81    5.67
  -1  -1   5  142.27    6.36
   1   1   5  138.59    6.50
   1  -1  -5  148.66    5.73
  -1  -1   5  141.12    5.87
   1   1   5  138.21    6.31
  -1  -1   5  148.59    5.55
  -1  -1   5  138.52    5.75
   1   1   5  141.38    6.10
  -1  -1   5  139.82    6.15
   1  -1   5  139.21    7.85
  -1   1   5  138.60    5.95
   1   1  -5  140.26    5.63
   1  -1   5  144.77    6.32
   1  -1   5  140.09    5.66
  -1   1   5  145.24    5.83
   1  -1   5  142.97    6.74
  -1   1   5  134.26    6.49
  -1   1   5  143.68    7.19
   1   1  -5  149.81    5.56
  -1   1   5  138.09    6.15
   1  -1   5  142.47    6.26
   1  -1   5  139.37    6.07
  -1  -1  -5  137.15    5.83
  -1   1   5  140.84    6.24
   1   1  -5  147.82    5.71
  -1   1   5  141.80    6.81
  -1   1   5  146.67    5.55
   1  -1   5  140.86    6.51
   1  -1   5  140.80    7.04
  -1   1   5  139.08    5.94
   1  -1   5  137.40    7.46
  -1  -1  -5  142.01    5.65
  -1   1  -7   75.08    3.35
  -1  -1   7   75.99    3.24
   1  -1  -7   76.03    3.42
   1   1   7   72.84    3.33
  -1   1  -7   74.09    3.40
   1  -1  -7   76.47    3.37
  -1  -1  -7   75.51    3.37
  -1  -1  -7   72.14    3.39
   1  -1   7   71.19    3.33
   1   1  -7   74.69    3.37
  -1   1   7   73.81    3.22
   1  -2   0    1.72    0.45
  -1  -2   0    2.57    0.28
   1  -2   0    2.39    0.20
  -1  -2   0    2.07    0.30
  -1   2   0    2.67    0.20
   1   2   0    2.09    0.27
  -1   2   0    2.48    0.53
  -1   2   0    2.21    0.19
   1  -2   0    2.50    0.27
  -1   2   0    1.97    0.39
  -1   2   0    2.28    0.21
   1   2   0    1.75    0.46
  -1  -2   0    1.76    0.49
   1  -2   0    2.45    0.20
   1   2   0    1.71    0.29
   1   2   0    2.39    0.17
   1  -2   0    2.19    0.30
  -1  -2   0    2.06    0.39
   1  -2   0    2.06    0.36
  -1   2   0    2.37    0.33
   1   2   0    2.28    0.38
  -1   2   0    2.82    0.19
  -1  -2   0    2.32    0.18
  -1   2   0    2.47    0.29
   1  -2   0    2.68    0.19
   1   2   2    0.95    0.38
  -1  -2   2    0.85    0.21
   1   2   2    0.29    0.77
  -1  -2   2    0.80    0.25
  -1  -2   2    0.64    0.15
  -1  -2   2    1.03    0.17
   1   2   2    1.51    0.50
  -1  -2   2    1.16    0.19
  -1  -2   2    1.37    0.25
  -1   2  -2    1.03    0.21
   1  -2  -2    0.79    0.26
   1  -2  -2    0.89    0.25
  -1  -2   2    0.96    0.14
   1   2   2    1.58    0.66
   1  -2  -2    0.92    0.44
  -1  -2   2    0.81    0.20
   1  -2  -2    1.37    0.64
  -1  -2   2    1.05    0.28
  -1  -2   2    0.92    0.31
   1  -2  -2    1.07    0.23
  -1  -2   2    1.16    0.17
   1   2   2    1.06    0.23
  -1   2  -2    0.94    0.23
   1  -2  -2    0.27    0.30
   1  -2  -2    1.13    0.13
  -1  -2  -2    1.39    0.42
  -1   2   2    0.91    0.40
  -1  -2  -2    0.95    0.23
  -1   2   2    1.01    0.16
   1   2  -2    0.83    0.17
   1   2  -2    1.16    0.20
   1  -2   2    0.65    0.48
  -1   2   2    1.36    0.55
  -1  -2  -2    0.91    0.83
  -1   2   2    2.57    0.44
  -1   2   2    1.05    0.33
   1  -2   2    0.83    0.38
  -1   2   2    1.93    0.79
  -1  -2  -2    0.42    0.58
  -1   2   2    1.49    0.30
   1  -2   2    0.93    0.24
  -1  -2  -2    0.38    0.45
  -1  -2  -2    1.18    0.22
   1  -2   2    1.21    0.33
   1  -2   2    0.64    0.71
   1   2  -2    0.99    0.20
   1  -2  -4    0.27    0.22
   1   2   4    1.92    1.56
  -1  -2   4    1.16    0.83
   1  -2  -4   -1.51    1.18
   1  -2  -4   -0.44    0.59
   1  -2  -4    0.05    0.26
  -1   2  -4    0.21    0.24
  -1  -2   4    0.02    0.46
  -1  -2   4   -0.11    0.64
  -1   2  -4    0.26    0.29
   1   2   4    0.41    1.00
   1   2   4    0.00    0.24
   1   2   4    0.47    0.58
  -1  -2   4    0.02    0.20
   1  -2  -4    0.55    0.31
  -1  -2   4    0.63    0.41
   1   2   4    0.54    0.74
   1  -2  -4    0.67    0.90
  -1  -2   4    0.28    0.31
   1  -2  -4   -0.53    0.46
  -1  -2   4    0.70    0.55
  -1  -2   4   -0.09    0.39
  -1  -2   4   -1.00    0.88
   1  -2   4   -1.60    0.75
   1  -2   4    0.62    0.63
  -1   2   4    0.83    0.61
  -1  -2  -4    0.18    0.27
  -1   2   4    1.28    1.21
  -1  -2  -4    0.26    0.25
  -1   2   4    0.84    0.49
  -1  -2  -4    0.32    0.31
  -1   2   4   -0.07    0.81
   1   2  -4    0.17    0.25
   1  -2   4    0.18    1.48
   1   2  -4    0.25    0.26
   1  -2   4    0.60    1.09
   1  -2   4    0.34    0.52
   1  -2   4   -2.09    1.20
   1  -2   4    0.96    0.90
   1   2  -4    0.08    0.25
  -1   2   4    0.27    0.20
   1  -2   4    0.79    0.28
   1  -2   4   -0.60    0.63
   1   2   6    1.56    2.41
   1   2   6   -1.05    1.57
   1   2   6    0.67    0.45
  -1  -2   6    2.76    1.24
  -1  -2   6    0.04    0.40
   1   2   6   -0.63    3.17
  -1   2  -6    0.02    0.44
   1  -2  -6    0.83    0.47
   1  -2  -6    1.20    0.58
   1  -2  -6    0.31    0.51
  -1  -2   6   -0.15    0.89
  -1  -2   6    0.46    1.68
  -1   2  -6    1.19    0.56
  -1  -2   6   -1.88    2.22
  -1  -2   6    0.99    1.20
   1   2   6    1.87    1.30
  -1  -2   6    2.03    0.98
  -1  -2   6    0.81    1.63
  -1  -2   6    0.20    0.71
  -1   2   6   -0.58    0.41
   1   2  -6    0.02    0.47
  -1  -2  -6    0.69    0.52
  -1  -2  -6    0.82    0.45
  -1   2   6    1.26    1.44
   1  -2   6    0.28    2.96
   1  -2   6    0.66    0.45
   1   2  -6    0.42    0.51
  -1   2   6    1.27    1.14
   1  -2   6   -0.65    1.13
   1  -2   6    0.51    1.48
  -1   2   6   -2.65    1.95
   1  -2   6    2.25    2.07
  -1   2   6    0.12    2.81
   1   3   1    5.55    0.39
   1  -3  -1    7.82    0.45
  -1   3  -1    7.44    0.71
   1   3   1    5.38    0.60
   1  -3  -1    8.41    0.69
   1   3   1    5.03    0.72
   1  -3  -1    7.68    1.07
  -1   3  -1    6.54    0.51
  -1  -3   1    6.66    0.40
   1  -3  -1    7.72    0.34
  -1   3  -1    6.55    0.57
   1  -3  -1    7.47    0.59
   1   3   1    5.96    0.37
   1   3   1    5.55    0.37
  -1   3  -1    7.62    0.42
   1   3   1    4.86    0.97
   1   3   1    5.21    0.53
   1  -3  -1    7.87    0.43
  -1   3  -1    7.70    0.42
  -1   3  -1    7.27    0.90
  -1  -3   1    6.40    0.30
  -1  -3   1    6.31    0.32
  -1  -3   1    5.32    0.41
   1  -3  -1    8.73    0.84
  -1  -3  -1    7.34    0.41
  -1  -3  -1    7.38    0.38
   1  -3   1    5.27    0.53
  -1  -3  -1    7.09    0.66
  -1  -3  -1    7.81    0.83
   1  -3   1    5.14    0.63
  -1   3   1    6.27    0.36
  -1   3   1    5.31    0.49
  -1  -3  -1    6.45    1.02
   1   3  -1    7.93    0.31
   1   3  -1    7.87    0.37
  -1   3   1    6.64    0.44
  -1   3   1    5.49    0.44
   1   3  -1    7.15    0.41
  -1   3   1    5.62    0.55
  -1   3   1    6.42    0.88
   1  -3   1    5.25    0.48
  -1  -3  -1    6.35    0.57
  -1   3   1    6.53    0.69
   1   3  -1    7.75    0.48
   1   3  -1    7.60    0.35
  -1  -3  -1    8.05    0.41
   1  -3   1    5.46    0.82
   1  -3   1    5.81    0.40
  -1  -3   3   18.43    1.00
   1   3   3   17.90    1.30
   1  -3  -3   21.19    1.85
  -1  -3   3   18.50    0.88
   1   3   3   18.58    0.97
  -1  -3   3   16.70    1.18
   1  -3  -3   20.58    1.28
   1  -3  -3   23.11    0.85
   1  -3  -3   21.44    0.86
   1  -3  -3   22.09    0.85
  -1  -3   3   17.33    0.94
  -1  -3   3   21.02    0.94
   1   3   3   17.12    2.19
  -1   3  -3   21.35    1.02
  -1   3  -3   22.57    0.95
   1  -3  -3   21.29    1.00
   1   3   3   18.56    1.45
   1  -3  -3   21.67    1.18
   1  -3  -3   22.58    1.53
   1   3   3   17.94    1.73
  -1  -3   3   17.62    0.90
  -1  -3   3   17.49    1.03
  -1  -3   3   18.69    1.31
  -1  -3   3   17.40    0.94
   1  -3  -3   20.98    1.03
  -1  -3   3   18.39    1.11
   1  -3   3   18.34    1.19
   1   3  -3   21.77    0.94
   1  -3   3   15.91    1.66
  -1  -3  -3   21.82    1.57
   1  -3   3   18.15    1.29
   1  -3   3   17.61    1.50
   1  -3   3   19.75    1.45
  -1  -3  -3   21.27    0.97
   1  -3   3   17.19    1.27
   1  -3   3   15.95    1.87
  -1  -3  -3   17.64    2.22
   1  -3   3   18.69    0.97
   1   3  -3   23.11    0.92
  -1   3   3   20.08    1.61
  -1  -3  -3   21.61    1.40
  -1  -3  -3   22.62    1.88
   1  -3   3   20.16    2.26
  -1   3   3   17.60    1.96
  -1   3   3   17.58    1.20
  -1  -3  -3   19.31    1.00
  -1   3   3   19.28    0.89
   1   3  -3   21.38    0.92
  -1   3   3   20.01    1.36
   1   3   5   13.69    1.48
  -1   3  -5   16.21    0.94
  -1  -3   5   11.39    1.71
   1  -3  -5   16.86    1.48
   1  -3  -5   22.38    3.11
  -1  -3   5   15.38    1.04
  -1  -3   5   17.34    2.40
  -1  -3   5   14.33    1.22
   1   3   5   15.94    2.16
  -1  -3   5   15.77    0.87
   1   3   5   15.52    1.68
   1   3   5   13.47    2.50
   1  -3  -5   19.40    1.75
   1   3   5   16.94    2.02
  -1  -3   5   15.39    1.44
   1   3   5   17.80    1.76
  -1  -3   5   14.53    1.93
  -1  -3   5   15.17    1.17
   1  -3  -5   18.52    1.09
   1  -3  -5   16.79    1.05
  -1   3  -5   16.33    1.04
  -1  -3   5   15.26    1.41
   1  -3  -5   18.47    2.21
   1   3   5   14.02    1.00
   1   3   5   16.61    3.12
   1  -3  -5   16.63    0.87
   1   3   5   23.44    3.24
   1   3  -5   16.11    0.93
  -1   3   5   13.84    0.86
  -1   3   5   17.84    1.76
   1  -3   5   15.48    2.08
  -1   3   5   13.25    2.18
  -1  -3  -5   16.07    1.03
  -1  -3  -5   15.03    0.96
  -1   3   5   13.12    1.47
   1  -3   5   14.49    0.96
   1  -3   5   14.34    1.94
   1  -3   5   18.06    1.71
   1   3  -5   16.34    0.95
   1   3  -5   17.80    0.96
   1  -3   5   14.04    1.61
   1  -3   5   15.60    2.53
   1  -3   5   14.27    1.41
  -1   3   5   17.33    2.85
   1  -3   5   15.62    3.02
   1  -3   5   15.36    2.93
  -1   3  -7    5.95    0.93
   1  -3  -7    6.70    1.03
  -1   3  -7    5.76    0.95
   1  -3  -7    5.07    0.92
   1   3   7    4.13    0.85
  -1  -3  -7    2.74    0.82
   1   3  -7    6.49    0.97
  -1   3   7    6.18    0.90
  -1  -3  -7    6.59    0.99
   1  -3   7    5.28    0.94
  -1   4   0   10.34    0.68
  -1  -4   0   10.75    0.46
   1   4   0   10.99    0.46
   1  -4   0   11.67    0.53
  -1  -4   0   10.62    0.62
   1  -4   0   11.86    0.52
   1  -4   0   11.84    0.52
  -1  -4   0   10.48    0.47
  -1   4   0   11.32    0.81
  -1   4   0   11.72    0.52
   1  -4   0    8.93    0.91
   1  -4   0   10.87    0.80
   1  -4   0   10.60    0.69
  -1   4   0   10.27    0.96
   1  -4   0   11.49    0.51
  -1   4   0   11.41    0.52
  -1  -4   0   10.40    0.76
   1   4   0   11.32    0.48
  -1   4   0   11.53    0.64
   1   4   0    9.52    0.64
  -1  -4   0    9.71    0.88
  -1   4   0   10.86    0.52
   1   4   0   10.29    0.90
  -1  -4   0   10.61    0.67
   1  -4   0   10.66    0.64
   1   4   0   10.32    0.47
  -1  -4   0   10.78    0.48
  -1  -4   0   11.41    0.51
   1   4   0   11.16    0.50
   1   4   0   10.35    0.61
   1   4   0    9.64    0.74
  -1  -4   2    4.07    0.27
   1   4   2    4.11    0.33
  -1  -4   2    4.74    0.41
   1  -4  -2    4.36    0.51
   1   4   2    4.25    0.62
  -1  -4   2    4.65    0.28
   1   4   2    3.48    1.09
   1  -4  -2    5.23    0.41
  -1  -4   2    4.20    0.25
  -1  -4   2    4.97    0.32
  -1  -4   2    4.40    0.25
   1  -4  -2    4.46    1.01
  -1  -4   2    4.24    0.24
  -1  -4   2    4.57    0.33
  -1   4  -2    3.94    0.58
   1  -4  -2    4.30    0.28
  -1   4  -2    4.60    0.31
  -1   4  -2    4.46    0.97
   1  -4  -2    4.89    0.30
  -1  -4   2    4.59    0.40
  -1  -4   2    4.00    0.31
  -1   4  -2    3.85    0.37
   1  -4  -2    5.14    0.62
   1  -4  -2    5.43    0.81
  -1   4  -2    4.34    0.77
  -1  -4   2    3.70    0.31
   1   4   2    4.28    0.70
   1  -4  -2    5.04    0.39
  -1   4  -2    4.21    0.51
   1   4   2    4.04    0.88
   1  -4   2    3.39    0.69
  -1  -4  -2    3.98    0.72
  -1  -4  -2    4.01    0.35
  -1  -4  -2    5.13    1.18
   1  -4   2    4.19    0.56
  -1   4   2    3.72    1.10
   1   4  -2    5.10    0.27
  -1   4   2    5.37    0.77
   1   4  -2    4.37    0.26
  -1   4   2    5.18    0.66
   1  -4   2    4.98    0.36
  -1  -4  -2    4.23    0.63
  -1   4   2    4.50    0.29
   1   4  -2    5.29    0.35
   1  -4   2    3.86    0.92
  -1  -4  -2    3.38    0.85
  -1  -4  -2    4.39    0.33
   1  -4   2    2.75    0.46
  -1   4   2    6.44    1.00
   1  -4  -4    0.96    0.22
  -1  -4   4    0.53    0.31
  -1  -4   4    1.17    0.52
  -1  -4   4    0.45    0.36
  -1  -4   4   -0.64    0.77
   1  -4  -4    0.55    0.36
   1  -4  -4    0.56    0.67
   1   4   4    2.37    1.85
   1   4   4    0.38    0.86
   1   4   4    0.73    1.26
  -1  -4   4   -0.01    0.42
  -1  -4   4    0.58    0.23
   1   4   4    0.07    0.26
   1  -4  -4    0.59    0.26
  -1  -4   4    1.23    0.72
   1  -4  -4    0.62    0.32
  -1   4  -4    0.46    0.27
   1  -4  -4    0.32    0.52
   1  -4  -4    1.17    1.40
   1  -4  -4    0.53    0.22
   1  -4  -4    1.54    0.95
  -1  -4   4    0.65    0.34
   1   4   4   -0.02    0.71
  -1   4  -4    0.59    0.32
  -1  -4   4   -0.02    0.58
  -1   4   4    0.37    0.71
  -1   4   4    0.00    0.58
   1   4  -4    0.46    0.24
  -1   4   4    0.32    0.22
   1  -4   4    0.15    0.53
   1  -4   4    0.08    1.02
   1  -4   4    0.85    0.92
  -1   4   4    1.47    1.07
  -1  -4  -4    0.44    0.32
   1  -4   4    0.20    0.27
  -1  -4  -4    1.92    1.30
   1   4  -4    0.51    0.26
   1  -4   4    0.49    0.63
  -1  -4  -4   -0.84    0.83
  -1  -4  -4    0.95    0.30
   1  -4   4   -0.42    0.61
  -1   4   4    1.58    1.55
   1  -4   4    2.10    1.52
   1  -4   4   -0.33    1.33
  -1  -4  -4    0.12    0.70
   1   4  -4    0.44    0.30
   1  -4   4    1.89    0.83
  -1  -4  -4    3.03    1.94
  -1  -4   6    5.16    2.23
  -1  -4   6   -0.26    1.49
  -1  -4   6    2.00    1.49
  -1   4  -6    1.03    0.47
   1   4   6    0.60    0.46
  -1  -4   6    0.44    0.63
  -1  -4   6   -0.76    1.09
  -1  -4   6    0.99    0.80
  -1   4  -6    0.84    0.55
   1  -4  -6    1.25    0.58
  -1  -4   6    1.84    1.09
   1  -4  -6    1.08    0.56
  -1  -4   6    1.95    0.50
  -1  -4   6    0.77    0.85
   1  -4  -6    0.43    0.45
   1  -4   6    1.01    0.51
   1  -4   6    2.51    1.58
   1  -4   6   -0.32    2.07
  -1   4   6    1.55    0.47
  -1  -4  -6   -0.17    0.47
   1   4  -6    1.82    0.58
  -1  -4  -6   -0.02    0.54
  -1   4   6    0.94    3.03
   1  -4   6    1.80    1.24
   1  -4   6   -5.81    2.89
  -1   4   6    2.54    1.59
  -1   4   6    3.81    1.32
  -1   4   6    0.91    2.17
   1   4  -6    0.59    0.50
  -1  -4  -6    1.38    0.50
   1   5   1  342.58   13.02
  -1   5  -1  350.18   13.13
   1   5   1  344.03   13.24
  -1  -5   1  340.88   12.70
  -1  -5   1  319.57   12.70
  -1  -5   1  318.25   12.66
  -1   5  -1  336.31   12.70
   1   5   1  350.89   12.68
   1  -5  -1  324.72   12.64
   1   5   1  354.15   13.61
   1  -5  -1  292.99   12.68
  -1   5  -1  348.73   12.94
   1   5   1  358.28   12.66
  -1   5  -1  350.96   13.44
   1  -5  -1  330.68   12.64
  -1  -5   1  319.52   12.78
  -1   5  -1  339.42   12.84
   1   5   1  343.09   12.91
  -1  -5   1  335.77   12.93
   1   5   1  327.75   12.63
   1  -5  -1  293.08   12.71
  -1  -5  -1  330.57   12.91
  -1   5   1  322.61   13.03
  -1  -5  -1  301.03   12.66
  -1   5   1  341.05   12.65
   1  -5   1  349.98   12.93
   1  -5   1  359.19   12.69
  -1  -5  -1  345.04   13.03
   1   5  -1  322.15   12.86
  -1   5   1  319.15   13.24
   1   5  -1  311.61   12.70
   1   5  -1  318.33   12.75
   1   5  -1  296.91   12.65
  -1   5   1  351.36   12.67
  -1   5   1  349.80   12.71
   1  -5   1  342.88   12.84
   1  -5   1  349.24   12.68
  -1  -5  -1  334.66   12.64
  -1   5   1  306.95   12.90
  -1  -5  -1  339.09   13.24
   1   5  -1  318.26   13.02
   1  -5   1  360.22   13.13
  -1   5   1  325.77   13.64
   1  -5   1  360.01   13.45
  -1  -5  -1  343.21   12.65
  -1  -5  -1  351.16   13.63
   1  -5  -3  191.29    7.47
  -1   5  -3  176.30    7.94
   1   5   3  206.43    9.23
   1  -5  -3  190.91    7.62
   1   5   3  206.01    8.62
  -1  -5   3  208.78    7.53
   1   5   3  205.14    7.60
  -1   5  -3  183.64    7.84
   1  -5  -3  183.87    8.23
  -1   5  -3  179.19    8.23
  -1   5  -3  190.00    7.63
  -1  -5   3  203.57    7.78
  -1   5  -3  183.77    8.74
   1  -5  -3  175.67    7.64
  -1  -5   3  205.54    7.71
   1  -5  -3  197.77    7.49
   1   5   3  212.62    8.27
  -1  -5   3  201.17    7.51
  -1  -5   3  204.56    7.60
  -1  -5   3  203.82    7.87
  -1  -5   3  210.31    7.46
   1  -5  -3  176.90    7.94
   1  -5  -3  181.14    7.82
  -1  -5   3  205.78    7.64
  -1  -5   3  214.51    7.56
  -1  -5   3  202.10    7.55
  -1   5  -3  183.92    7.54
  -1  -5   3  209.18    7.56
   1  -5  -3  175.27    8.60
   1   5   3  208.50    8.06
   1  -5   3  211.73    7.87
  -1   5   3  202.77    8.51
  -1  -5  -3  180.15    7.64
   1  -5   3  211.55    8.01
  -1  -5  -3  170.89    7.56
  -1   5   3  209.84    7.54
   1  -5   3  214.25    8.32
  -1   5   3  203.24    7.98
  -1  -5  -3  181.48    8.55
  -1  -5  -3  181.22    8.01
   1   5  -3  187.96    7.47
   1   5  -3  187.90    7.54
   1  -5   3  208.73    8.76
  -1  -5  -3  184.92    8.21
  -1   5   3  208.25    8.17
  -1   5   3  209.44    9.08
   1  -5   3  216.26    7.62
  -1  -5  -3  180.08    9.09
   1  -5  -5   73.38    4.22
  -1  -5   5   93.80    3.85
  -1  -5   5   94.92    4.63
   1  -5  -5   81.02    5.54
   1  -5  -5   76.86    4.69
   1   5   5   87.30    3.61
  -1  -5   5   86.88    4.24
   1  -5  -5   79.08    3.44
   1  -5  -5   73.44    3.60
  -1   5  -5   72.44    3.62
   1  -5  -5   72.87    3.65
  -1  -5   5   88.62    3.88
  -1  -5   5   90.87    3.59
   1  -5  -5   79.56    4.04
  -1  -5   5   96.91    3.49
  -1  -5   5   95.29    3.71
  -1  -5   5   89.49    4.09
  -1  -5   5   90.39    3.68
  -1   5  -5   77.23    3.54
   1  -5   5   93.61    3.63
   1  -5   5   93.15    5.52
   1  -5   5   94.14    4.76
   1  -5   5   83.47    5.85
   1  -5   5   90.65    4.47
  -1   5   5   92.07    5.04
  -1   5   5   95.14    4.23
  -1   5   5   97.21    3.56
  -1   5   5   98.00    4.54
   1  -5   5   92.72    4.22
  -1  -5  -5   73.54    3.57
   1  -5   5  102.35    4.11
   1  -5   5   84.14    4.96
   1   5  -5   74.69    3.48
   1  -5   5   99.00    4.32
   1   5  -5   76.89    3.52
  -1   5   5   94.86    5.95
   1  -5  -7   53.56    2.68
   1  -5  -7   50.72    2.67
   1   5   7   57.34    2.61
  -1   5  -7   52.91    2.57
  -1   5  -7   53.70    2.71
   1  -5   7   57.16    2.62
  -1   5   7   57.73    2.51
  -1  -5  -7   50.48    2.60
   1   5  -7   49.82    2.54
  -1  -5  -7   50.48    2.60
  -1   6   0   15.13    1.35
  -1   6   0   15.89    0.89
  -1  -6   0   14.32    1.03
  -1   6   0   14.71    0.71
  -1  -6   0   15.96    1.26
   1  -6   0   15.55    0.88
  -1   6   0   14.12    0.69
  -1  -6   0   14.22    0.70
   1   6   0   14.12    0.88
   1   6   0   14.30    0.64
   1   6   0   14.23    1.01
   1   6   0   15.68    0.63
  -1  -6   0   14.82    0.67
  -1   6   0   15.56    0.69
   1  -6   0   15.03    0.70
   1  -6   0   14.40    0.70
  -1   6   0   16.29    0.98
  -1   6   0   14.67    0.69
   1  -6   0   15.00    0.71
   1  -6   0   14.03    1.08
   1   6   0   15.67    0.69
   1   6   0   14.11    0.81
   1  -6   0   15.04    0.95
  -1  -6   0   15.10    0.63
  -1  -6   0   14.28    0.89
  -1  -6   0   14.50    0.64
   1  -6   0   16.48    1.32
   1  -6   0   13.53    0.68
   1   6   0   14.52    1.22
   1   6   0   15.10    0.65
  -1   6   0   16.39    1.14
  -1  -6   0   15.24    0.84
   1   6   2    5.62    1.09
   1  -6  -2    6.12    0.40
  -1  -6   2    7.52    0.47
  -1  -6   2    6.47    0.37
  -1  -6   2    6.93    0.83
  -1   6  -2    7.14    0.76
   1   6   2    4.78    0.82
  -1   6  -2    6.69    1.24
   1  -6  -2    6.71    0.52
   1  -6  -2    7.35    0.47
   1  -6  -2    7.38    0.49
  -1  -6   2    6.49    0.47
   1   6   2    5.33    1.34
  -1   6  -2    5.35    0.47
   1   6   2    6.97    0.76
   1   6   2    5.61    0.40
  -1   6  -2    5.58    0.61
  -1  -6   2    7.93    0.65
  -1   6  -2    5.93    0.89
  -1  -6   2    7.89    0.53
  -1   6   2    6.11    0.35
  -1  -6  -2    6.96    0.43
  -1   6   2    6.73    0.40
   1   6  -2    7.91    0.49
  -1  -6  -2    6.06    0.47
  -1  -6  -2    6.20    0.76
   1   6  -2    5.09    0.60
   1   6  -2    5.35    0.47
   1  -6   2    5.94    0.85
  -1  -6  -2    6.79    1.12
  -1   6   2    5.52    1.48
   1  -6   2    6.27    0.69
   1   6  -2    6.73    0.34
  -1   6   2    7.55    0.81
  -1  -6  -2    6.68    1.42
  -1   6   2    8.75    1.23
   1  -6   2    6.02    0.60
   1  -6   2    6.44    0.46
  -1   6   2    7.04    0.92
   1   6  -2    5.79    0.37
   1  -6   2    3.75    1.00
  -1  -6  -2    6.68    0.88
   1   6  -2    6.21    0.41
  -1  -6   4    0.31    0.28
  -1  -6   4    0.55    0.36
  -1  -6   4    1.09    0.47
   1  -6  -4    0.51    0.56
   1  -6  -4   -0.11    0.68
   1  -6  -4    1.31    0.39
  -1  -6   4    0.50    0.43
   1  -6  -4    0.01    0.96
  -1  -6   4    0.14    0.33
   1  -6  -4    0.48    1.39
  -1  -6   4    1.22    0.62
  -1   6  -4    0.30    0.26
   1   6   4    0.13    0.86
   1  -6  -4   -0.03    0.34
   1   6   4    1.85    1.78
   1   6   4    1.45    0.72
  -1   6  -4    1.10    0.35
  -1  -6   4    1.11    0.83
  -1  -6   4    1.38    0.68
   1   6   4    0.60    0.29
   1   6   4   -0.58    1.14
  -1  -6   4    0.32    0.23
   1  -6  -4    0.55    0.33
   1  -6   4    0.62    0.32
   1  -6   4   -1.93    1.46
   1  -6   4   -0.33    0.75
  -1  -6  -4    1.59    1.37
  -1   6   4    0.82    0.84
  -1  -6  -4    0.47    0.30
   1  -6   4    0.19    0.55
   1  -6   4    1.56    0.99
  -1   6   4   -1.25    1.61
   1   6  -4    0.43    0.25
  -1   6   4   -0.20    1.15
  -1  -6  -4    1.05    0.82
  -1  -6  -4    1.05    1.83
  -1   6   4    2.50    0.75
  -1  -6  -4   -1.08    0.94
   1  -6   4    0.94    0.66
   1  -6   4    0.30    1.34
   1  -6   4    1.27    1.15
  -1   6   4    0.41    0.25
   1   6  -4    0.43    0.34
   1  -6   4    0.80    0.70
  -1  -6  -4    0.36    0.33
  -1  -6   6    1.49    0.86
  -1  -6   6    1.21    0.61
   1  -6  -6    0.58    0.47
  -1  -6   6    0.98    1.00
  -1  -6   6    4.11    1.45
   1  -6  -6    1.51    0.65
  -1  -6   6    1.86    1.02
  -1  -6   6    0.14    1.35
  -1   6  -6    0.13    0.47
  -1  -6   6    1.24    0.48
   1   6   6    1.22    0.50
   1  -6  -6    1.46    0.60
  -1   6  -6    1.12    0.59
  -1  -6   6    0.09    1.94
  -1  -6   6    0.79    0.75
  -1  -6  -6    1.22    0.60
  -1  -6  -6    1.28    0.55
  -1   6   6    1.03    0.49
  -1   6   6    0.97    1.32
   1   6  -6   -0.02    0.59
  -1   6   6    4.40    1.76
   1  -6   6    1.10    0.52
   1   6  -6    0.42    0.51
  -1   6   6   -1.81    2.31
  -1   6   6    2.00    3.38
  -1  -6  -6    0.26    0.53
  -1  -7   1  364.71   14.78
   1  -7  -1  358.75   15.94
  -1  -7   1  355.99   14.55
   1   7   1  398.90   14.96
  -1   7  -1  426.80   14.74
   1   7   1  395.33   14.69
  -1  -7   1  374.14   15.01
   1   7   1  408.85   15.11
  -1   7  -1  397.87   15.58
  -1  -7   1  368.74   14.85
  -1  -7   1  377.49   15.26
  -1   7  -1  399.53   14.90
  -1  -7   1  395.19   14.75
   1  -7  -1  358.48   15.18
   1  -7  -1  387.10   14.70
   1   7   1  411.11   15.38
  -1  -7   1  404.94   14.61
   1  -7  -1  373.28   14.72
   1  -7  -1  351.53   15.46
   1   7   1  402.25   14.67
   1  -7  -1  382.06   14.76
  -1   7  -1  422.29   14.69
   1   7   1  411.16   15.81
   1  -7  -1  361.25   15.04
  -1   7  -1  412.68   15.25
  -1   7  -1  402.55   15.01
  -1  -7  -1  389.61   15.09
  -1   7   1  392.66   14.70
   1  -7   1  400.05   15.21
  -1   7   1  358.68   15.42
  -1   7   1  348.50   15.13
  -1   7   1  346.99   14.99
  -1  -7  -1  379.26   14.68
  -1  -7  -1  407.93   15.80
  -1   7   1  395.20   14.70
  -1   7   1  358.17   15.89
   1  -7   1  392.97   14.99
  -1  -7  -1  379.92   14.96
   1   7  -1  422.85   15.42
  -1  -7  -1  392.40   15.35
  -1  -7  -1  399.18   14.65
   1   7  -1  355.99   14.70
   1   7  -1  404.11   14.91
   1   7  -1  410.58   15.10
   1  -7   1  394.03   15.54
   1  -7   1  400.46   14.89
   1   7  -1  393.75   14.82
   1  -7   1  385.01   14.65
  -1  -7   3  334.73   13.12
   1   7   3  336.53   13.18
  -1  -7   3  336.37   13.32
  -1  -7   3  340.34   13.18
  -1  -7   3  341.20   13.29
  -1  -7   3  345.28   13.48
   1  -7  -3  350.93   13.29
  -1   7  -3  345.61   13.11
   1  -7  -3  355.11   13.09
   1  -7  -3  350.91   14.07
  -1  -7   3  338.84   13.20
   1   7   3  330.30   13.81
   1  -7  -3  358.21   13.55
   1   7   3  337.44   14.85
  -1   7  -3  353.33   13.95
  -1  -7   3  340.26   13.52
  -1  -7   3  342.36   13.09
   1  -7  -3  355.88   13.23
  -1   7  -3  351.08   13.62
  -1   7  -3  368.05   13.26
  -1  -7   3  341.48   13.14
   1  -7  -3  349.37   14.61
   1   7   3  332.46   13.61
  -1   7  -3  347.94   13.47
  -1   7  -3  352.00   14.48
   1  -7  -3  362.98   13.74
   1   7   3  322.86   14.17
  -1   7   3  343.05   13.86
  -1  -7  -3  349.43   14.32
   1   7  -3  346.11   13.02
  -1  -7  -3  349.37   15.00
   1  -7   3  351.93   13.19
   1  -7   3  344.37   13.43
  -1   7   3  331.20   13.12
   1  -7   3  351.14   13.59
  -1  -7  -3  336.92   13.25
  -1   7   3  344.96   14.29
  -1   7   3  345.22   14.92
  -1  -7  -3  345.61   13.89
   1  -7   3  353.34   14.36
   1   7  -3  345.03   13.16
  -1  -7  -3  346.80   13.68
  -1  -7  -3  349.74   13.18
  -1   7   3  333.39   13.63
   1  -7   3  354.44   13.88
   1   7   5  246.32    9.93
  -1   7  -5  260.09   10.02
   1  -7  -5  272.58    9.79
   1  -7  -5  256.25   10.70
  -1  -7   5  265.01    9.80
   1   7   5  253.31   10.65
  -1  -7   5  244.95   10.38
   1  -7  -5  265.40   10.47
  -1  -7   5  243.84    9.93
   1  -7  -5  256.86   10.10
   1  -7  -5  252.26   11.18
   1   7   5  255.24   10.95
   1  -7  -5  261.05   10.02
   1   7   5  255.41   11.61
  -1  -7   5  240.57   10.09
   1  -7  -5  253.95   12.04
  -1  -7   5  244.25    9.85
   1   7   5  254.59   12.68
   1  -7   5  249.90   11.25
  -1   7   5  256.06    9.87
   1  -7   5  248.87   10.52
  -1  -7  -5  267.01   10.79
   1  -7   5  245.57   10.45
   1  -7   5  252.82   10.32
   1  -7   5  247.95   12.08
  -1  -7  -5  259.77    9.98
  -1   7   5  265.24   12.47
   1  -7   5  245.96   10.91
  -1  -7  -5  268.64   11.12
   1  -7   5  252.36   11.67
   1   7  -5  254.01    9.80
   1  -7   5  252.74   10.73
  -1   7   5  259.37   11.48
  -1   7   5  259.13   10.58
  -1   7   5  263.59   10.90
   1   7  -5  266.71    9.91
  -1  -7  -5  262.39   12.79
   1  -7   5  255.57    9.94
  -1  -7  -5  258.01   11.71
  -1  -7  -5  249.92   10.06
  -1   7  -7  128.91    5.58
   1  -7  -7  129.68    5.60
   1   7   7  132.74    5.50
   1  -7  -7  131.59    5.64
  -1   7  -7  132.04    5.44
  -1  -7  -7  124.55    5.57
  -1  -7  -7  135.32    5.56
  -1  -7  -7  140.10    5.55
   1  -7   7  130.91    5.50
  -1   7   7  132.17    5.42
   1   8   0    9.15    1.23
  -1   8   0   10.20    1.11
  -1   8   0    9.55    0.88
  -1  -8   0    9.46    0.50
   1  -8   0    9.91    0.89
   1   8   0    9.19    0.55
  -1  -8   0    9.64    1.00
  -1  -8   0    9.03    0.46
   1  -8   0    9.37    0.77
   1   8   0    9.24    0.72
  -1   8   0    9.88    1.44
  -1   8   0   10.97    0.82
   1  -8   0    9.56    0.54
   1  -8   0    8.75    1.03
   1   8   0    8.59    0.80
  -1   8   0    9.01    0.58
   1  -8   0    9.68    0.55
   1   8   0    9.02    0.99
  -1  -8   0    8.67    1.24
   1   8   0    9.61    0.47
  -1   8   0   10.25    0.55
  -1  -8   0   10.76    0.76
   1   8   0    9.46    0.51
   1   8   0    8.85    0.50
   1  -8   0    9.09    1.29
  -1  -8   0    9.10    0.81
   1   8   2    5.68    1.40
  -1   8  -2    3.91    0.43
  -1   8  -2    3.30    0.57
   1   8   2    6.03    1.16
  -1   8  -2    3.59    0.79
  -1  -8   2    3.59    0.27
   1  -8  -2    4.46    1.46
   1  -8  -2    4.06    0.44
   1   8   2    4.06    0.79
  -1   8  -2    3.35    1.05
  -1  -8   2    5.34    0.63
   1  -8  -2    4.56    0.77
  -1   8  -2    3.76    0.69
   1  -8  -2    3.48    0.49
  -1  -8   2    4.43    0.95
   1   8   2    3.51    0.36
  -1  -8   2    6.21    0.82
  -1  -8   2    4.21    0.51
   1  -8  -2    4.95    0.91
   1   8   2    3.18    0.65
   1  -8  -2    3.10    1.01
   1  -8  -2    4.58    0.50
   1  -8   2    3.33    1.02
   1   8  -2    4.27    0.48
  -1   8   2    3.66    0.31
  -1   8   2    3.13    1.11
   1   8  -2    3.45    0.37
   1  -8   2    4.27    0.69
  -1  -8  -2    3.55    0.99
   1  -8   2    3.32    0.57
  -1  -8  -2    4.78    0.76
   1   8  -2    3.76    0.77
  -1   8   2    2.88    1.46
  -1   8   2    3.53    0.33
   1   8  -2    3.42    0.53
   1  -8   2    4.86    0.89
  -1   8   2    5.14    1.01
   1   8  -2    3.33    0.43
  -1  -8  -2    3.67    0.35
  -1  -8  -2    3.29    1.28
  -1   8   2    4.58    0.83
  -1  -8  -2    4.27    0.87
  -1  -8  -2    3.91    0.42
   1   8   4    0.00    0.24
  -1   8  -4    0.15    0.26
   1  -8  -4    0.32    0.43
   1  -8  -4   -0.45    1.56
   1   8   4    0.96    1.29
   1  -8  -4    0.22    0.81
  -1  -8   4    0.33    0.45
  -1   8  -4    0.01    0.36
   1  -8  -4    0.59    0.65
  -1  -8   4    0.89    0.91
   1  -8  -4    0.24    0.38
  -1  -8   4    0.11    0.75
   1   8   4    2.75    1.01
  -1  -8   4    0.45    0.60
   1   8   4   -0.92    0.70
   1   8   4    2.67    1.95
  -1  -8   4   -0.12    0.37
  -1  -8   4    0.29    0.31
   1  -8  -4    2.66    1.23
  -1  -8   4    0.53    0.36
  -1  -8   4    0.41    0.25
  -1  -8   4    0.09    0.51
   1   8  -4    0.34    0.23
   1  -8   4   -0.03    0.54
   1  -8   4    0.72    0.73
  -1   8   4   -1.33    1.34
  -1  -8  -4    0.76    1.06
  -1   8   4    0.18    0.84
  -1  -8  -4    0.12    0.27
  -1   8   4   -1.13    1.87
  -1   8   4    0.43    0.26
   1  -8   4   -0.42    1.38
   1   8  -4    0.49    0.38
  -1  -8  -4    2.24    2.21
  -1  -8  -4    0.87    0.86
  -1  -8  -4    0.74    0.40
  -1   8   4    0.42    1.04
   1  -8   4    0.30    0.94
  -1  -8  -4   -0.64    1.45
   1  -8   4    0.50    0.32
   1  -8  -6    1.33    0.60
  -1  -8   6    0.17    0.80
   1   8   6    0.50    0.48
   1  -8  -6    1.42    0.49
  -1  -8   6    0.99    0.48
  -1   8  -6    1.20    0.48
  -1  -8   6   -0.98    1.82
  -1  -8   6   -0.32    0.95
   1  -8  -6    0.37    0.55
  -1  -8   6   -1.87    1.28
  -1   8  -6    1.51    0.62
   1   8  -6    0.53    0.72
  -1   8   6    0.94    0.45
  -1  -8  -6    0.57    0.56
   1   8  -6    1.04    0.53
  -1  -8  -6    0.38    0.52
   1  -8   6    0.45    0.51
  -1  -8  -6    0.74    0.51
  -1  -9   1   63.77    2.54
  -1  -9   1   62.39    2.85
   1   9   1   61.27    2.95
  -1   9  -1   64.16    2.89
   1   9   1   64.41    2.63
   1  -9  -1   67.35    2.75
   1   9   1   65.54    3.81
   1   9   1   63.63    3.37
   1  -9  -1   70.32    2.71
   1  -9  -1   68.35    4.21
  -1  -9   1   64.49    3.18
   1  -9  -1   68.47    3.33
  -1   9  -1   63.41    3.22
  -1   9  -1   63.88    3.00
  -1   9  -1   67.06    3.65
   1   9   1   64.38    3.11
   1  -9  -1   67.46    3.68
   1   9   1   61.19    2.63
  -1   9  -1   67.64    2.71
  -1  -9   1   63.55    2.96
   1  -9  -1   70.54    3.16
  -1  -9   1   62.19    3.50
   1   9  -1   66.55    3.20
   1   9  -1   70.52    2.73
  -1   9   1   63.04    4.10
   1   9  -1   67.86    2.87
   1  -9   1   59.52    2.97
  -1   9   1   60.88    3.05
   1  -9   1   65.30    2.62
  -1  -9  -1   67.52    3.86
   1   9  -1   63.92    3.52
  -1   9   1   56.53    3.17
  -1   9   1   67.14    2.70
  -1  -9  -1   64.48    3.13
  -1  -9  -1   68.23    2.61
  -1   9   1   61.68    3.54
  -1   9   1   67.73    2.69
  -1  -9  -1   67.56    3.43
   1   9  -1   64.86    2.97
  -1  -9  -1   67.15    3.01
   1  -9   1   63.47    3.22
   1   9  -1   71.33    2.51
   1   9  -1   72.45    2.51
  -1  -9  -1   67.65    2.67
   1  -9   1   62.14    2.88
   1  -9   1   68.83    3.65
   1  -9  -3   93.21    3.61
  -1   9  -3   85.63    4.69
   1   9   3   77.62    5.21
  -1   9  -3   87.84    4.28
  -1  -9   3   86.44    3.41
   1   9   3   86.08    3.52
   1  -9  -3   90.62    3.67
   1   9   3   80.96    4.60
  -1   9  -3   95.23    3.63
   1   9   3   81.23    4.19
  -1   9  -3   80.78    4.10
   1   9   3   84.72    4.01
  -1   9  -3   90.93    5.52
   1   9  -3   94.22    3.33
  -1  -9  -3   94.55    3.55
  -1   9   3   82.11    5.42
  -1   9   3   86.82    3.48
   1  -9   3   88.06    3.53
   1   9  -3   92.02    3.58
   1  -9   3   73.58    5.03
  -1  -9  -3   88.84    3.64
  -1  -9  -3   96.31    4.81
  -1  -9  -3   86.94    4.29
  -1  -9  -3   87.84    4.07
   1   9  -3   91.40    3.74
   1  -9   3   77.98    3.96
   1  -9   3   72.27    4.11
   1  -9   3   72.39    4.47
  -1  -9  -3   90.96    5.49
  -1   9   3   80.84    4.69
  -1   9   3   79.99    4.24
   1   9  -3   94.08    4.02
  -1   9   3   86.76    4.07
   1   9  -3   91.22    3.51
  -1  -9   5   65.07    2.99
  -1   9  -5   66.89    2.95
   1   9   5   65.08    2.85
  -1  -9   5   63.15    2.86
   1  -9  -5   73.00    3.91
   1  -9  -5   75.37    4.58
   1  -9  -5   66.58    3.03
   1  -9  -5   51.74    5.30
   1  -9  -5   67.21    2.93
   1   9   5   63.40    5.85
  -1  -9   5   65.91    2.70
   1  -9  -5   66.95    3.54
  -1  -9   5   62.25    3.49
  -1  -9   5   67.97    3.73
   1   9   5   65.22    3.66
  -1  -9   5   66.77    3.27
  -1  -9   5   62.01    2.78
   1   9   5   62.84    4.60
  -1  -9   5   65.87    2.89
  -1  -9   5   63.57    3.09
   1   9   5   62.59    3.94
   1  -9   5   63.50    3.24
   1  -9   5   62.11    3.46
  -1   9   5   72.54    5.93
  -1  -9  -5   70.93    3.81
   1  -9   5   65.19    2.85
   1   9  -5   68.70    2.68
  -1   9   5   58.50    4.62
  -1  -9  -5   61.82    4.06
  -1  -9  -5   71.83    4.94
  -1   9   5   62.22    2.86
  -1  -9  -5   69.30    2.89
  -1   9   5   62.96    3.66
   1  -9   5   65.51    3.94
  -1  -9  -5   72.64    6.10
   1  -9   5   62.02    4.73
   1   9  -5   70.14    2.86
  -1  -9  -5   63.98    2.97
   1  -9   5   59.99    5.10
  -1   9   5   61.61    3.96
   1  -9   5   62.56    3.41
   1  -9   5   60.96    3.67
   1  -9   5   64.81    4.28
  -1   9  -7   27.17    1.61
   1  -9  -7   24.61    1.81
   1  -9  -7   29.05    1.80
   1   9   7   26.29    1.68
  -1   9  -7   28.83    1.90
  -1  -9  -7   26.12    1.71
  -1  -9  -7   28.03    1.71
  -1   9   7   24.68    1.59
  -1  -9  -7   26.89    1.80
   1  -9   7   25.96    1.71
   1 -10   0    3.46    0.33
  -1  10   0    2.54    0.39
  -1 -10   0    3.56    0.61
   1 -10   0    2.65    0.69
   1  10   0    3.57    0.70
  -1  10   0    2.88    0.31
   1 -10   0    3.15    0.62
   1  10   0    2.82    0.31
   1  10   0    1.14    0.95
   1  10   0    2.96    0.29
  -1  10   0    4.23    1.00
  -1 -10   0    3.05    0.25
   1  10   0    3.36    0.44
   1  10   0    3.05    0.33
   1  10   0    2.34    0.53
  -1  10   0    2.61    1.18
  -1  10   0    3.23    0.62
  -1 -10   0    3.02    0.31
  -1 -10   0    2.73    0.87
   1 -10   0    1.29    1.05
   1 -10   0    2.91    0.33
  -1  10   0    3.09    0.69
   1 -10   0    3.83    0.96
  -1 -10   0    1.59    0.99
   1  10   0    2.49    0.80
  -1 -10   0    3.29    0.69
   1 -10  -2    1.62    0.41
  -1 -10   2    0.91    0.95
  -1 -10   2    1.20    0.18
   1  10   2    1.78    0.69
   1 -10  -2    2.75    1.22
   1  10   2    1.53    0.29
  -1 -10   2    1.18    0.20
  -1 -10   2    0.93    0.71
  -1  10  -2    0.93    1.07
   1 -10  -2    1.20    1.52
   1  10   2    1.48    0.90
  -1  10  -2    1.84    0.60
   1 -10  -2    1.64    0.69
  -1  10  -2    1.05    0.73
  -1  10  -2    1.13    0.46
   1 -10  -2    0.73    0.84
   1 -10  -2    1.37    0.36
   1  10   2    1.41    1.36
  -1  10  -2    1.46    0.33
  -1 -10   2    1.38    0.55
  -1 -10   2    1.20    0.43
   1  10   2    1.84    0.60
  -1 -10  -2   -1.36    1.27
  -1 -10  -2    1.96    0.63
  -1  10   2    1.18    0.25
   1 -10   2    1.56    0.73
  -1 -10  -2    1.42    0.34
  -1  10   2    3.38    1.53
  -1  10   2    1.76    0.85
   1 -10   2    1.97    0.58
  -1  10   2    1.63    0.68
  -1 -10  -2    1.14    0.27
   1  10  -2    1.30    0.33
   1  10  -2    1.54    0.13
   1  10  -2    1.40    0.34
  -1  10   2    1.15    1.06
   1  10  -2    2.15    0.56
  -1  10   2    1.40    0.28
  -1 -10  -2   -0.92    0.88
   1  10  -2    0.37    0.65
   1 -10   2    1.35    0.46
   1 -10   2    1.30    1.04
   1 -10   2    1.33    0.24
   1  10  -2    1.47    0.40
  -1 -10  -2    2.48    0.83
  -1 -10   4   -0.37    0.69
  -1  10  -4   -0.40    0.76
  -1  10  -4   -0.32    0.59
  -1 -10   4   -0.51    0.37
   1 -10  -4    0.24    0.78
   1 -10  -4    0.77    0.38
  -1  10  -4    0.33    1.61
   1 -10  -4   -1.19    0.93
  -1 -10   4    0.52    0.66
   1 -10  -4    0.29    0.40
  -1 -10   4    0.49    0.43
   1  10   4   -2.43    2.10
   1 -10  -4   -0.46    1.99
   1  10   4   -1.28    0.83
  -1 -10   4   -0.32    0.93
  -1 -10   4   -0.12    0.48
  -1  10  -4    0.07    0.40
  -1  10  -4    0.30    0.28
  -1  10  -4   -0.59    1.05
   1 -10  -4    1.18    1.45
  -1 -10   4   -0.42    0.50
   1  10   4   -3.32    1.40
  -1 -10   4   -0.65    0.98
   1  10   4    1.44    1.12
   1  10   4    0.17    0.28
  -1 -10  -4    0.79    2.23
   1  10  -4    0.69    0.43
   1 -10   4   -0.14    0.58
  -1  10   4    0.86    0.98
  -1 -10  -4   -0.06    1.58
  -1  10   4    0.79    1.59
   1  10  -4    0.41    0.23
  -1  10   4    3.11    1.29
   1 -10   4    0.38    1.02
  -1 -10  -4    0.66    0.85
   1 -10   4   -0.18    0.74
   1 -10   4    0.01    0.31
  -1 -10  -4   -1.34    1.09
  -1 -10  -4    0.06    0.33
  -1 -10  -4   -0.31    0.30
   1 -10   4    0.83    1.48
  -1  10   4   -0.21    0.27
  -1  10   4    0.19    2.13
   1  10   6    0.47    0.50
   1 -10  -6   -0.06    0.47
  -1 -10   6    1.64    1.76
  -1 -10   6    0.24    0.49
  -1 -10   6    2.03    0.95
  -1 -10   6    0.67    0.74
   1 -10  -6    0.60    0.68
  -1 -10   6    0.69    1.26
  -1  10  -6   -0.49    0.50
  -1  10  -6    0.09    0.64
   1 -10  -6    0.05    0.60
   1  10  -6    1.23    0.78
   1 -10   6   -0.22    0.54
  -1 -10  -6    0.71    0.66
  -1  10   6    0.46    0.47
  -1 -10  -6   -0.25    0.56
   1  10  -6    0.90    0.50
  -1 -10  -6   -0.20    0.49
  -1 -11   1  397.30   17.03
  -1 -11   1  387.18   16.59
   1  11   1  446.59   17.29
  -1 -11   1  395.59   17.48
   1  11   1  438.81   16.73
   1 -11  -1  392.36   17.34
  -1  11  -1  434.76   16.41
   1  11   1  439.66   17.85
  -1 -11   1  393.14   16.22
   1  11   1  431.91   16.31
  -1  11  -1  443.60   16.68
  -1  11  -1  443.37   17.16
  -1  11  -1  440.69   17.67
   1 -11  -1  386.87   19.02
  -1 -11   1  400.20   16.75
   1  11   1  450.23   16.94
  -1  11  -1  443.85   16.84
  -1 -11   1  416.34   16.18
   1 -11  -1  392.05   17.69
   1 -11  -1  442.99   16.39
   1 -11  -1  430.03   16.44
   1  11   1  447.66   16.35
   1 -11  -1  381.21   18.29
  -1 -11  -1  422.04   17.92
   1 -11   1  434.38   16.66
   1  11  -1  459.78   17.12
  -1  11   1  452.65   16.40
  -1 -11  -1  426.89   17.34
   1  11  -1  445.70   16.63
   1 -11   1  456.10   17.71
  -1  11   1  420.20   18.19
  -1  11   1  433.19   16.88
  -1  11   1  437.65   16.38
   1  11  -1  458.56   16.80
  -1  11   1  421.12   17.51
  -1 -11  -1  437.00   16.98
   1 -11   1  432.67   16.81
   1 -11   1  442.30   17.14
  -1 -11  -1  416.14   16.35
   1  11  -1  439.49   16.42
   1  11  -1  447.30   16.19
   1  11  -1  472.41   17.66
  -1  11   1  440.06   17.12
   1  11  -1  427.89   16.18
   1 -11   1  431.80   16.30
  -1 -11  -1  432.74   16.78
   1  11   3  336.76   13.75
  -1 -11   3  318.90   13.04
  -1 -11   3  320.07   13.16
   1  11   3  341.43   13.52
  -1  11  -3  352.17   14.50
  -1  11  -3  338.50   13.03
   1 -11  -3  347.53   15.13
  -1  11  -3  351.10   13.85
   1  11   3  339.02   15.02
  -1 -11   3  329.87   13.81
   1 -11  -3  325.93   13.48
   1 -11  -3  343.99   14.27
  -1  11  -3  349.95   13.28
   1 -11  -3  335.71   13.10
   1 -11  -3  336.63   13.74
  -1 -11   3  318.43   13.39
   1 -11  -3  338.57   13.02
  -1  11  -3  348.19   13.46
  -1 -11   3  354.03   12.79
   1  11   3  348.30   14.30
  -1  11   3  340.27   15.35
   1  11  -3  336.01   12.99
   1  11  -3  323.61   12.69
   1 -11   3  351.84   13.25
  -1 -11  -3  333.68   12.93
  -1 -11  -3  329.52   13.05
   1 -11   3  350.02   13.78
   1 -11   3  361.38   13.44
  -1  11   3  339.93   14.44
   1  11  -3  329.42   13.20
   1  11  -3  331.15   13.02
  -1 -11  -3  320.14   14.22
  -1  11   3  338.85   13.88
  -1 -11  -3  317.81   13.74
  -1  11   3  331.41   12.90
   1 -11   3  356.35   14.35
  -1 -11  -3  320.09   14.99
   1  11  -3  336.39   12.94
   1  11  -3  360.60   12.70
  -1 -11  -3  322.25   13.51
   1 -11   3  344.77   12.95
  -1  11   3  335.25   13.59
   1  11  -3  330.94   13.52
  -1 -11   5  220.61    8.79
  -1  11  -5  200.58    8.50
  -1 -11   5  216.63    8.39
   1 -11  -5  204.79   10.02
  -1 -11   5  226.83    8.43
  -1 -11   5  216.19    8.74
   1  11   5  213.49    9.25
   1 -11  -5  207.91   11.19
   1  11   5  214.46    8.42
  -1 -11   5  230.67    8.56
   1 -11  -5  208.97    9.41
   1 -11  -5  217.44    8.65
   1 -11  -5  207.35    9.08
   1 -11  -5  199.33    8.48
  -1 -11   5  216.91    9.13
   1  11   5  218.88   11.60
  -1 -11   5  219.26    8.26
  -1 -11   5  212.86    8.49
   1  11   5  218.35   10.37
  -1 -11   5  219.78    9.22
   1  11   5  224.81    9.69
  -1  11   5  227.85    9.78
  -1 -11  -5  227.53   11.84
  -1  11   5  215.67    9.32
  -1 -11  -5  212.32    8.60
   1 -11   5  211.85   10.17
   1 -11   5  206.37    8.98
  -1  11   5  223.63   11.87
   1  11  -5  214.22    8.45
   1  11  -5  210.81    8.18
   1 -11   5  209.18    8.78
  -1 -11  -5  217.57    8.47
  -1 -11  -5  207.25   10.46
   1 -11   5  210.37   10.70
  -1  11   5  228.15   10.59
   1 -11   5  212.43    9.24
  -1 -11  -5  210.01    9.35
   1 -11   5  203.12    8.94
   1 -11   5  204.80    9.40
   1 -11   5  203.79    8.50
   1 -11   5  213.24    9.80
  -1 -11  -5  195.63    9.63
  -1  11   5  218.05    8.38
  -1 -12   0   -0.18    0.25
  -1  12   0    0.16    0.28
  -1 -12   0    0.50    0.63
  -1  12   0    0.02    0.18
   1  12   0    0.27    0.19
   1  12   0    0.57    0.58
   1 -12   0    0.17    0.24
   1  12   0    0.28    0.28
  -1  12   0    0.60    1.27
   1  12   0   -0.61    0.75
   1 -12   0   -0.87    1.22
  -1 -12   0   -0.69    0.83
   1 -12   0    0.84    0.65
  -1 -12   0    0.36    1.33
   1  12   0    0.95    0.32
  -1 -12   0    0.17    0.17
  -1  12   0   -0.24    0.46
   1 -12   0   -0.37    0.49
  -1  12   0    0.41    0.79
   1  12   0    0.24    0.46
  -1 -12   0    0.12    0.52
   1  12   0    0.93    1.23
  -1  12   0    0.52    0.59
   1 -12   0    0.34    0.23
   1 -12   0    0.02    0.89
  -1  12  -2   -0.26    1.19
  -1  12  -2    0.64    0.51
   1  12   2    1.78    0.84
   1  12   2    0.18    0.22
  -1 -12   2    1.07    0.51
  -1 -12   2    0.31    0.18
   1 -12  -2   -1.22    1.16
   1 -12  -2   -0.07    0.35
  -1 -12   2    0.67    0.88
   1  12   2   -0.13    0.60
  -1  12  -2    0.31    0.32
  -1  12  -2    0.23    0.84
   1 -12  -2    0.88    0.74
   1  12   2   -0.82    1.06
  -1 -12   2    0.65    1.14
  -1  12  -2    0.49    0.60
  -1 -12   2   -0.13    0.59
   1  12   2    0.69    1.54
   1 -12  -2   -0.13    0.27
   1 -12  -2    1.11    0.95
   1 -12  -2    2.86    1.77
  -1 -12  -2   -0.10    0.65
   1  12  -2    0.02    0.13
   1  12  -2    0.40    0.44
   1  12  -2    0.12    0.31
   1 -12   2    0.83    0.80
   1 -12   2    1.91    1.18
   1 -12   2    0.34    0.21
  -1  12   2    0.29    0.25
   1  12  -2   -0.63    0.62
  -1  12   2    0.27    1.72
  -1 -12  -2    0.03    0.79
   1 -12   2    0.53    0.60
  -1 -12  -2    0.10    1.08
  -1 -12  -2    0.12    0.22
   1  12  -2    1.06    0.98
  -1  12   2   -0.07    0.68
  -1  12   2    0.48    0.25
  -1  12   2    1.85    1.30
  -1  12   2    0.54    0.90
  -1 -12  -2    0.02    0.30
   1 -12   2   -0.06    0.46
   1  12  -2   -0.31    0.35
  -1 -12  -2   -1.47    1.50
   1  12   4    0.46    1.65
  -1  12  -4    0.88    0.66
  -1 -12   4    1.32    0.53
  -1  12  -4    0.22    0.85
  -1  12  -4    2.52    1.79
   1 -12  -4    0.20    0.44
   1  12   4    1.95    1.03
  -1  12  -4    0.16    0.46
  -1  12  -4    0.78    0.30
   1 -12  -4    0.69    0.42
   1  12   4    9.66    2.87
  -1 -12   4    0.58    1.23
  -1 -12   4    0.17    0.82
  -1 -12   4    0.07    0.64
   1  12   4    0.20    0.29
  -1  12  -4    0.19    1.21
   1  12   4   -1.47    1.21
   1 -12   4    0.71    0.67
  -1 -12  -4    1.92    1.37
  -1 -12  -4   -0.09    1.03
   1 -12   4    0.10    0.79
  -1 -12  -4    3.89    2.45
   1  12  -4    0.68    0.43
   1  12  -4   -0.59    1.10
  -1 -12  -4    2.26    1.83
   1  12  -4    0.47    0.22
   1 -12   4    0.45    1.64
   1  12  -4    0.22    0.74
   1  12  -4   -0.17    0.43
  -1 -12  -4    0.00    0.32
   1 -12   4    0.19    0.37
   1  12  -4    0.40    0.52
  -1  12   4    0.62    0.35
   1 -12   4   -1.10    1.08
  -1 -12  -4    0.29    0.44
   1 -12  -6    0.16    0.67
   1 -12  -6    0.27    0.64
   1 -12  -6   -0.50    0.51
  -1 -12   6    0.43    1.28
   1  12   6    0.62    0.52
  -1 -12   6    0.42    0.75
  -1 -12   6    1.75    0.95
  -1 -12   6   -2.91    1.85
  -1  12  -6   -0.03    0.71
  -1  12  -6    0.76    0.53
  -1 -12  -6    0.67    0.57
  -1  12   6   -0.29    0.47
   1  12  -6    0.30    0.83
   1 -12   6    0.07    0.58
  -1 -12  -6   -0.63    0.64
   1  13   1  126.41    5.68
  -1  13  -1  134.36    5.66
  -1 -13   1  134.48    5.15
   1 -13  -1  133.28    6.60
  -1  13  -1  131.95    5.33
   1  13   1  131.73    5.27
  -1 -13   1  127.00    5.09
  -1  13  -1  134.19    6.78
  -1  13  -1  135.16    6.23
  -1  13  -1  131.38    5.83
  -1 -13   1  129.41    5.81
   1 -13  -1  128.09    5.84
   1 -13  -1  141.36    5.39
   1 -13  -1  140.67    5.30
   1  13   1  128.36    5.21
  -1 -13   1  127.07    6.68
   1 -13  -1  143.49    7.47
   1  13   1  130.74    6.30
  -1 -13   1  134.77    6.19
   1 -13  -1  132.49    6.10
   1  13   1  132.00    6.96
  -1 -13   1  132.05    5.64
   1  13   1  125.89    5.87
  -1  13   1  137.16    5.86
  -1 -13  -1  127.64    5.27
  -1  13   1  137.40    5.28
   1  13  -1  133.87    5.60
  -1 -13  -1  133.56    5.18
  -1 -13  -1  131.07    6.42
   1 -13   1  131.98    6.79
  -1  13   1  134.66    6.54
  -1 -13  -1  128.12    5.76
   1  13  -1  133.06    6.12
  -1  13   1  132.44    6.07
   1  13  -1  133.56    5.08
   1 -13   1  132.84    5.83
  -1 -13  -1  130.39    5.99
   1 -13   1  131.94    5.65
   1  13  -1  138.53    6.74
  -1  13   1  131.60    5.31
   1  13  -1  134.16    5.33
   1  13  -1  134.60    5.77
  -1  13   1  137.40    7.34
   1  13  -1  131.52    5.09
  -1 -13  -1  138.18    7.19
   1 -13   1  137.08    6.24
  -1 -13   3   88.91    3.44
  -1 -13   3   90.46    4.04
   1 -13  -3   88.75    5.22
  -1 -13   3   90.91    4.91
   1 -13  -3   88.66    3.72
   1  13   3   88.78    4.55
  -1  13  -3   87.67    4.17
  -1  13  -3   86.95    3.97
   1 -13  -3   93.91    4.70
   1 -13  -3   87.17    3.82
  -1  13  -3   82.74    4.52
  -1  13  -3   86.51    5.21
  -1 -13   3   91.88    3.40
   1  13   3   86.61    4.25
   1 -13  -3   86.50    6.17
   1  13   3   85.33    3.73
  -1 -13   3   88.54    4.36
   1  13   3   94.24    5.14
  -1 -13   3   89.88    3.86
   1 -13  -3   86.11    4.34
   1  13   3   93.25    6.09
   1 -13   3   89.88    4.16
  -1  13   3   87.23    3.61
   1  13  -3   86.97    3.70
   1  13  -3   94.88    3.35
  -1  13   3   83.62    6.08
   1 -13   3   85.46    3.51
  -1  13   3   86.84    5.20
   1 -13   3   91.51    4.57
  -1  13   3   88.84    4.64
   1  13  -3   85.52    4.05
  -1 -13  -3   88.00    3.63
   1  13  -3   83.54    3.69
  -1 -13  -3   80.06    5.86
   1 -13   3   87.36    3.96
   1 -13   3   83.55    5.12
  -1  13   3   91.13    4.37
   1  13  -3   86.33    3.81
  -1 -13  -3   76.39    4.98
  -1 -13  -3   84.22    4.30
   1  13  -3   82.39    4.43
  -1 -13  -3   86.11    4.58
   1  13  -3   94.17    3.37
   1  13   5   41.94    2.01
  -1  13  -5   42.83    2.15
  -1 -13   5   40.02    2.62
  -1 -13   5   38.16    3.27
   1  13   5   41.64    4.41
   1  13   5   38.93    3.09
  -1 -13   5   42.80    1.89
   1  13   5   44.05    3.57
  -1 -13   5   44.15    2.71
   1 -13  -5   41.22    2.25
  -1 -13   5   41.38    2.12
   1  13   5   35.08    5.90
  -1 -13   5   40.09    2.30
   1 -13  -5   37.48    4.10
  -1 -13   5   39.56    3.25
   1 -13  -5   42.41    2.13
  -1 -13   5   43.76    2.29
   1 -13  -5   39.32    2.94
   1 -13  -5   54.21    5.92
  -1 -13   5   40.24    2.14
   1 -13  -5   47.41    3.41
  -1 -13  -5   38.48    4.50
   1 -13   5   39.85    3.34
   1  13  -5   41.95    2.15
  -1  13   5   43.70    2.00
  -1 -13  -5   38.19    5.82
  -1  13   5   39.04    3.20
  -1  13   5   35.44    5.96
   1 -13   5   40.75    2.78
  -1 -13  -5   40.36    2.03
  -1  13   5   44.59    4.52
   1 -13   5   40.45    2.50
  -1  13   5   43.08    3.64
   1 -13   5   40.82    2.05
  -1 -13  -5   37.27    3.18
  -1 -13  -5   42.45    3.68
   1 -13   5   36.58    4.26
   1  13  -5   43.21    1.74
  -1 -13  -5   41.76    2.20
   1  14   0    1.00    0.68
   1  14   0    2.47    1.71
  -1  14   0    0.25    1.11
   1 -14   0   -0.14    1.10
   1  14   0    0.97    0.27
   1 -14   0    1.08    0.71
  -1  14   0    1.11    0.37
  -1  14   0    1.87    0.80
  -1 -14   0    2.48    1.75
  -1 -14   0    1.64    0.38
   1 -14   0    1.12    0.33
  -1 -14   0    1.91    0.32
   1  14   0    0.81    0.36
   1  14   0   -0.55    1.01
   1 -14   0    0.66    1.54
  -1  14   0    1.09    0.29
  -1  14   0    1.25    1.74
  -1 -14   0    0.27    1.18
   1  14   0    1.29    0.80
   1 -14   0    1.29    0.34
  -1 -14   0    1.80    0.94
  -1 -14   0    2.59    0.81
  -1  14   0    1.19    0.89
   1 -14   0    1.29    0.90
  -1 -14   2    1.18    0.75
   1  14   2    1.09    1.90
   1  14   2    0.92    1.31
  -1 -14   2    0.71    0.60
  -1  14  -2    1.58    0.78
  -1 -14   2    0.91    0.27
   1  14   2    1.29    0.99
  -1 -14   2   -0.56    1.39
  -1 -14   2    1.30    1.04
  -1  14  -2    0.85    1.07
   1 -14  -2    0.77    1.03
  -1  14  -2    2.21    1.52
   1 -14  -2    1.49    0.40
   1  14   2    0.70    0.75
  -1  14  -2    1.22    0.61
  -1  14  -2    1.19    0.46
   1 -14  -2    2.18    1.48
   1 -14  -2    2.88    2.19
   1  14   2    0.82    0.31
   1 -14  -2    0.56    0.81
   1 -14  -2    1.51    0.49
  -1  14   2   -0.15    2.07
  -1 -14  -2    0.89    0.30
   1 -14   2    0.74    0.24
  -1 -14  -2   -0.23    1.33
  -1 -14  -2    1.70    1.09
   1  14  -2    0.17    1.19
  -1  14   2    1.56    0.88
  -1  14   2    0.95    0.33
  -1 -14  -2    1.09    0.83
   1  14  -2    1.50    0.62
  -1 -14  -2    0.56    0.41
   1  14  -2    0.96    0.20
  -1 -14  -2    3.35    1.91
   1  14  -2    1.62    0.53
   1  14  -2    1.24    0.85
  -1  14   2    1.37    0.31
  -1  14   2    3.01    1.54
   1  14  -2    0.96    0.43
  -1  14   2   -0.40    0.92
  -1  14  -4    1.70    0.54
   1  14   4    0.75    0.37
   1 -14  -4    0.65    0.61
   1 -14  -4    0.54    1.54
  -1 -14   4    1.34    1.12
   1 -14  -4    1.74    1.25
  -1 -14   4    0.71    0.26
   1  14   4   -0.06    2.74
  -1  14  -4    1.67    0.85
  -1  14  -4   -0.84    1.26
   1  14   4    0.00    1.95
   1  14   4    1.33    1.08
  -1  14  -4   -1.16    0.91
   1 -14  -4    0.42    0.44
   1 -14  -4    4.52    2.96
  -1  14  -4    1.63    0.40
   1  14   4    1.27    1.41
   1 -14  -4    2.87    2.14
  -1 -14   4    0.14    0.75
  -1  14  -4    0.58    1.96
  -1 -14   4    1.61    0.66
  -1 -14   4    1.03    1.58
   1 -14   4    0.31    0.42
  -1  14   4   -3.01    2.69
  -1  14   4    1.65    1.99
  -1 -14  -4    1.44    3.05
  -1 -14  -4    0.22    1.52
   1 -14   4    1.89    1.82
   1  14  -4    0.82    0.49
   1  14  -4    0.65    0.22
  -1  14   4    2.63    1.53
   1  14  -4    0.61    0.60
  -1  14   4    1.22    1.19
   1 -14   4    0.45    0.93
  -1 -14  -4    0.92    0.41
   1  14  -4    0.33    0.85
   1 -14   4    2.49    1.34
  -1 -14  -4   -0.76    2.11
  -1  14   4    0.56    0.38
  -1 -14  -4    1.28    1.21
  -1 -14  -4    1.01    0.58
   1  14  -4    2.10    1.25
   1 -14   4    0.90    0.75
   1  14   6    1.78    0.59
  -1  14  -6    1.03    0.56
   1 -14  -6    0.02    0.63
   1 -14  -6    1.23    0.77
  -1 -14   6    0.51    0.81
  -1 -14   6    1.73    1.97
  -1 -14   6    1.99    1.02
  -1 -14   6   -0.08    1.39
  -1  14  -6    1.65    0.82
   1  14  -6    1.14    0.92
  -1 -14  -6    0.01    0.71
  -1 -14  -6    1.27    0.61
   1 -14   6    0.90    0.64
  -1  14   6    0.69    0.58
   1 -15  -1  280.64   13.20
  -1  15  -1  283.67   11.33
  -1  15  -1  273.57   10.92
  -1 -15   1  268.56   10.65
   1 -15  -1  287.62   12.39
   1  15   1  275.84   12.88
  -1  15  -1  280.47   11.99
  -1  15  -1  280.61   11.54
   1  15   1  284.54   10.87
   1  15   1  284.13   11.40
   1  15   1  280.40   12.13
   1 -15  -1  272.24   11.49
   1 -15  -1  284.27   11.80
   1  15   1  289.58   11.66
   1 -15  -1  299.95   10.98
  -1 -15   1  277.31   10.72
   1  15   1  275.84   10.79
  -1  15  -1  275.39   12.66
   1 -15  -1  277.84   10.85
   1  15  -1  285.34   12.67
  -1 -15  -1  282.35   13.18
   1 -15   1  285.48   11.32
  -1  15   1  274.93   13.15
   1  15  -1  260.33   10.64
  -1 -15  -1  286.21   12.32
  -1  15   1  292.63   11.52
  -1  15   1  293.80   12.37
   1  15  -1  280.20   11.93
  -1 -15  -1  280.65   10.76
   1  15  -1  270.26   10.64
   1  15  -1  279.32   11.50
   1 -15   1  291.57   12.76
   1 -15   1  285.69   11.56
   1 -15   1  265.68   10.77
  -1 -15  -1  281.13   11.48
  -1  15   1  292.15   11.80
  -1  15   1  289.37   10.91
   1  15  -1  277.71   10.91
  -1 -15  -1  283.28   11.76
   1  15  -1  281.21   11.29
  -1 -15  -1  268.54   10.86
   1 -15   1  290.81   12.03
  -1 -15   3  159.85    7.68
   1  15   3  159.91    6.93
   1 -15  -3  150.37    9.08
  -1 -15   3  168.41    7.11
   1 -15  -3  150.93    7.28
   1 -15  -3  151.75    6.39
  -1  15  -3  144.43    6.52
   1  15   3  163.07    7.28
  -1  15  -3  148.03    7.16
  -1  15  -3  150.21    7.92
  -1  15  -3  146.98    6.73
   1 -15  -3  146.81    6.24
   1  15   3  160.46    7.88
   1 -15  -3  151.49    6.96
  -1 -15   3  163.59    6.49
  -1  15  -3  157.69    6.31
  -1 -15   3  156.89    5.95
  -1 -15   3  167.18    5.94
   1  15   3  161.82    8.92
   1 -15  -3  154.10    7.98
   1  15   3  157.02    6.17
  -1 -15   3  166.20    6.69
  -1  15   3  133.69    6.48
  -1  15   3  165.42    7.34
  -1  15   3  163.10    8.00
   1 -15   3  159.18    7.24
  -1  15   3  165.70    6.11
   1  15  -3  160.62    5.86
  -1 -15  -3  148.97    6.96
  -1 -15  -3  149.83    6.15
   1  15  -3  151.14    6.72
  -1 -15  -3  144.07    7.84
  -1 -15  -3  154.10    7.30
  -1  15   3  156.83    6.96
   1  15  -3  151.17    7.23
   1 -15   3  159.44    6.06
   1 -15   3  156.97    6.79
  -1 -15  -3  151.04    6.32
   1  15  -3  148.53    6.43
  -1 -15  -3  159.36    9.04
   1 -15   3  157.87    6.59
   1  15  -3  147.78    6.29
  -1  15   3  156.35    8.96
   1  15  -3  144.87    6.23
   1 -15   3  156.25    7.95
   1  15   5   79.10    3.38
  -1 -15   5   76.77    3.48
   1 -15  -5   72.22    3.62
  -1 -15   5   79.70    3.08
  -1  15  -5   73.96    3.49
  -1 -15   5   77.26    4.22
   1  15   5   75.92    6.10
   1  15   5   71.85    4.51
  -1 -15   5   77.97    4.76
   1  15   5   77.81    5.14
  -1 -15   5   79.86    3.24
  -1 -15   5   86.05    4.97
  -1 -15   5   84.00    3.69
  -1 -15   5   72.28    3.74
   1 -15  -5   75.84    3.50
   1  15   5   69.13    7.78
  -1 -15   5   75.65    3.55
  -1 -15   5   80.08    4.08
  -1 -15  -5   70.23    3.36
  -1 -15  -5   76.70    3.60
   1 -15   5   76.85    3.36
   1  15  -5   76.47    3.49
  -1  15   5   77.53    3.34
   1  16   0    4.61    0.45
   1 -16   0    6.90    1.63
  -1 -16   0    4.59    0.43
   1 -16   0    4.13    0.55
   1  16   0    3.49    1.38
   1  16   0    4.74    1.13
   1  16   0    3.94    0.55
  -1  16   0    3.08    2.09
  -1  16   0    5.31    0.62
  -1 -16   0    2.24    2.07
   1  16   0    6.75    1.12
   1  16   0    5.91    1.92
  -1 -16   0    4.24    1.22
  -1  16   0    4.72    0.48
  -1  16   0    3.71    1.04
   1 -16   0    4.38    0.99
  -1  16   0    5.23    1.62
  -1 -16   0    5.56    0.57
   1 -16   0    4.60    1.22
  -1 -16   0    5.24    1.65
   1 -16   0    4.78    0.51
  -1 -16   0    2.96    0.99
  -1  16   0    4.31    1.25
   1 -16   0    1.90    2.02
  -1  16  -2    3.86    0.62
  -1  16  -2    3.46    1.35
   1 -16  -2    4.46    2.48
  -1 -16   2    2.98    0.40
   1  16   2   -1.40    1.85
   1 -16  -2    4.25    1.15
   1  16   2    1.76    1.55
   1 -16  -2    2.63    0.55
   1 -16  -2    2.13    0.58
   1  16   2    3.66    1.22
  -1 -16   2    2.46    1.21
  -1 -16   2    3.55    0.97
   1 -16  -2    3.81    1.83
  -1  16  -2    3.11    0.79
   1 -16  -2    3.84    1.36
  -1  16  -2    2.27    1.86
   1  16   2    2.91    1.04
  -1 -16   2    2.26    0.75
  -1  16  -2    3.68    1.00
  -1 -16   2    1.02    1.73
  -1 -16  -2    3.13    0.64
   1  16  -2    2.62    0.57
   1  16  -2    3.58    0.35
   1 -16   2    4.01    1.17
   1 -16   2    1.96    1.87
   1  16  -2    0.70    1.11
   1  16  -2    2.87    1.71
  -1 -16  -2    4.58    1.21
  -1  16   2    3.76    2.46
  -1 -16  -2    2.85    0.44
  -1 -16  -2    3.48    1.35
   1  16  -2    3.68    0.76
   1 -16   2    4.50    0.95
   1 -16   2    3.18    1.43
  -1  16   2    3.17    1.79
   1  16  -2    2.47    0.84
  -1  16   2    2.75    1.06
  -1  16   2    2.51    1.26
  -1 -16  -2    3.36    2.54
  -1  16   2    3.16    0.52
  -1  16   2    2.60    0.47
   1 -16   2    2.55    0.42
  -1 -16  -2    3.10    1.86
   1 -16  -4    0.47    1.61
   1 -16  -4    0.33    0.57
  -1 -16   4    0.86    0.32
   1  16   4    1.52    2.18
   1  16   4    2.25    1.68
   1 -16  -4    2.29    2.43
  -1  16  -4    0.46    0.37
  -1 -16   4    0.65    0.81
  -1  16  -4    0.57    0.90
  -1 -16   4    1.83    2.07
   1  16   4    2.71    1.37
   1 -16  -4    0.59    3.25
   1  16   4    0.52    0.37
  -1  16  -4    0.88    1.55
   1 -16  -4    1.10    0.48
   1 -16  -4    2.34    1.36
  -1  16  -4    0.54    0.59
  -1  16  -4   -0.15    1.13
   1  16   4    6.65    3.42
  -1  16  -4    2.36    2.43
  -1 -16   4    0.63    1.36
  -1 -16   4    0.70    1.00
   1 -16   4    0.34    0.36
   1 -16   4    2.85    1.69
  -1 -16  -4    1.04    0.60
  -1  16   4    1.25    3.47
   1  16  -4    0.61    0.62
  -1 -16  -4    1.14    0.46
   1 -16   4    0.07    0.88
   1  16  -4    0.99    1.08
   1  16  -4    0.86    0.76
  -1  16   4    1.15    0.41
   1  16  -4    2.07    1.65
  -1  16   4    1.99    1.76
  -1 -16  -4    2.60    1.91
  -1  16   4    2.30    1.43
  -1  16   4    0.89    2.40
  -1 -16  -4   -0.10    1.42
   1  16  -4   -1.12    0.56
  -1 -16  -4   -0.41    3.49
   1 -16   4    1.66    2.26
   1 -16   4    0.50    1.12
  -1 -16  -4   -4.28    2.37
  -1 -16   6    0.88    0.96
   1 -16  -6   -0.55    0.70
  -1 -16   6    3.00    1.63
  -1  16  -6    1.66    0.64
  -1  16  -6    1.28    0.91
   1  16   6   -0.05    0.55
  -1 -16   6   -0.57    2.24
  -1 -16   6    1.09    1.20
   1 -16  -6    0.67    0.81
   1  16  -6   -0.60    0.89
  -1 -16  -6   -0.89    0.80
   1 -16   6    0.39    0.73
  -1  16   6    0.37    0.62
  -1 -16  -6    1.26    0.74
   1 -17  -1  348.68   13.83
   1 -17  -1  338.74   12.69
  -1 -17   1  308.60   12.48
  -1  17  -1  307.68   13.45
  -1 -17   1  332.99   13.51
   1 -17  -1  342.20   15.44
   1  17   1  320.63   14.20
  -1 -17   1  341.84   14.06
  -1 -17   1  335.14   12.57
  -1 -17   1  331.91   13.24
   1  17   1  315.15   12.64
   1 -17  -1  351.01   13.50
  -1 -17   1  331.18   14.85
  -1  17  -1  313.79   14.81
  -1  17  -1  314.68   13.99
   1 -17  -1  328.81   12.80
   1 -17  -1  344.47   14.45
   1  17   1  331.40   13.35
  -1  17  -1  316.63   13.22
   1  17   1  329.19   13.64
   1  17   1  316.36   15.07
   1 -17   1  320.27   12.65
  -1  17   1  332.64   12.70
  -1  17   1  340.93   12.75
   1  17  -1  342.79   13.40
  -1 -17  -1  328.53   13.75
   1 -17   1  318.49   13.53
  -1 -17  -1  349.54   14.51
   1 -17   1  322.88   15.07
  -1 -17  -1  341.52   13.47
   1 -17   1  315.20   14.36
  -1  17   1  327.28   13.39
  -1  17   1  340.23   15.33
   1  17  -1  332.76   13.83
  -1 -17  -1  318.90   12.72
   1  17  -1  328.96   13.14
   1  17  -1  341.10   14.64
  -1  17   1  325.92   14.27
  -1 -17  -1  329.03   15.38
   1  17  -1  337.07   12.79
  -1 -17  -1  323.45   12.59
  -1  17   1  326.06   13.68
   1 -17   1  316.27   13.86
  -1 -17   3  322.68   13.34
   1  17   3  297.70   12.29
  -1 -17   3  324.58   12.08
  -1  17  -3  331.88   12.50
  -1 -17   3  318.54   12.66
   1  17   3  312.90   15.30
   1 -17  -3  324.71   13.69
   1 -17  -3  333.81   15.81
   1  17   3  309.09   13.46
  -1  17  -3  318.41   13.02
   1  17   3  299.77   14.10
   1 -17  -3  330.36   13.33
  -1  17  -3  322.11   14.44
   1 -17  -3  307.62   12.38
  -1 -17   3  313.65   12.87
   1 -17  -3  326.53   14.49
  -1  17  -3  318.04   13.53
   1 -17  -3  313.86   12.56
  -1  17  -3  314.48   12.77
  -1 -17   3  312.46   13.96
   1  17   3  315.25   13.15
  -1 -17   3  296.55   12.05
   1 -17   3  311.78   12.79
   1 -17   3  314.37   14.36
   1 -17   3  307.45   13.02
  -1  17   3  313.60   15.42
   1  17  -3  320.22   13.70
  -1 -17  -3  335.28   15.74
  -1  17   3  320.40   12.26
   1  17  -3  319.49   12.71
   1  17  -3  311.32   11.98
  -1  17   3  304.51   12.32
  -1  17   3  312.61   14.26
   1  17  -3  320.23   13.07
   1  17  -3  347.96   11.98
  -1  17   3  324.15   13.59
  -1 -17  -3  327.33   12.52
   1 -17   3  302.05   12.18
   1 -17   3  306.59   13.52
  -1  17   3  309.41   13.16
   1  17  -3  324.53   12.54
  -1 -17  -3  340.05   14.54
  -1 -17  -3  342.81   13.37
  -1 -17  -3  340.90   13.76
  -1 -17  -3  313.84   12.31
  -1  17  -5  254.68    9.84
   1  17   5  245.64    9.92
   1 -17  -5  248.93   10.07
   1 -17  -5  261.01   10.28
  -1  17  -5  262.81   10.13
  -1 -17   5  246.86    9.78
  -1 -17  -5  248.61   10.19
   1  17  -5  245.44   10.01
   1 -17   5  256.85    9.76
  -1  17   5  239.97    9.91
   1 -17   5  255.16    9.95
  -1 -18   0    9.23    1.75
   1 -18   0    5.52    2.66
   1  18   0    6.92    0.57
   1 -18   0    4.99    2.00
  -1 -18   0    8.69    1.56
   1 -18   0    8.51    1.47
   1  18   0    6.39    2.28
   1  18   0    8.49    0.75
  -1 -18   0    6.71    0.69
   1  18   0    5.50    1.29
  -1  18   0    6.77    0.60
  -1  18   0    7.31    1.39
  -1 -18   0    7.79    2.16
  -1 -18   0    6.92    0.54
   1  18   0    7.19    1.23
   1 -18   0    7.55    1.59
  -1  18   0    3.05    1.68
   1  18   0    9.10    1.89
   1 -18   0    5.85    0.68
   1 -18   0    7.45    0.64
  -1  18   0    6.94    2.49
  -1 -18   0    7.43    2.82
  -1  18   0   11.44    1.72
  -1  18  -2    3.46    0.65
   1  18   2    3.94    0.62
  -1  18  -2    4.25    0.97
   1  18   2    4.47    1.96
   1 -18  -2    5.49    1.39
  -1  18  -2    7.06    2.31
  -1 -18   2    2.22    1.03
   1  18   2    1.15    2.31
   1  18   2    3.56    1.36
  -1 -18   2    2.11    2.04
   1 -18  -2    3.50    1.49
   1  18   2    3.62    0.51
   1 -18  -2    3.68    0.58
   1 -18  -2    3.09    1.96
  -1 -18   2    4.25    0.51
  -1 -18   2    7.59    1.69
   1 -18  -2   -0.52    2.79
  -1 -18   2    3.78    0.94
   1 -18  -2    4.16    0.79
  -1  18  -2    3.41    1.16
   1  18   2    4.99    1.22
  -1  18  -2    3.22    1.59
   1 -18   2    3.31    0.49
  -1 -18  -2    3.62    0.52
  -1 -18  -2    3.87    1.38
   1 -18   2    2.32    1.60
  -1  18   2    0.94    2.48
   1  18  -2    7.33    1.36
  -1  18   2    4.44    1.32
   1 -18   2    4.89    2.25
   1 -18   2    3.84    1.02
   1  18  -2    2.90    1.43
  -1 -18  -2    0.26    3.08
  -1 -18  -2    3.11    1.66
   1  18  -2    3.04    0.59
   1  18  -2    5.76    2.10
  -1  18   2    5.90    1.57
  -1 -18  -2    4.05    0.69
  -1  18   2    3.29    0.59
   1  18  -2    2.29    0.83
   1  18  -2    3.39    0.43
  -1  18   2    4.29    0.59
  -1 -18  -2    3.40    2.32
   1 -18   2    4.43    1.25
  -1  18   2    3.18    1.89
   1  18   4   -0.39    1.62
  -1  18  -4    2.40    1.31
  -1  18  -4    1.05    0.45
  -1 -18   4    2.41    0.99
  -1 -18   4    2.05    2.38
   1  18   4    0.22    0.39
  -1  18  -4    0.69    0.58
  -1 -18   4    0.22    0.38
  -1  18  -4    0.49    1.75
  -1 -18   4    2.58    1.73
   1 -18  -4    1.62    1.70
   1 -18  -4    0.12    0.51
  -1  18  -4   -0.27    2.68
  -1 -18   4   -0.52    1.14
  -1  18  -4    0.93    1.05
   1 -18  -4    1.55    3.78
   1 -18  -4    0.46    2.01
   1 -18  -4    1.30    0.78
   1  18   4    1.08    2.84
   1  18   4   -0.97    1.98
   1 -18  -4    1.32    2.80
   1  18   4    0.14    4.12
   1  18  -4    3.81    2.00
  -1 -18  -4    0.14    0.65
   1 -18   4   -3.24    2.49
  -1 -18  -4    0.30    0.43
  -1 -18  -4    0.33    1.67
  -1 -18  -4    1.95    2.15
   1  18  -4   -0.51    1.20
  -1  18   4   -0.97    2.69
  -1  18   4    3.59    3.86
   1  18  -4    0.91    0.71
  -1  18   4    0.66    0.49
   1 -18   4    1.06    0.53
   1  18  -4    1.16    0.66
   1 -18   4    0.43    0.39
   1 -18   4    0.23    1.84
  -1 -18  -4   -2.75    2.62
   1 -18   4   -0.36    1.31
   1  18  -4    0.64    0.89
  -1 -18  -4   -1.07    3.82
   1 -18   4    0.56    1.05
  -1  18   4    3.14    1.97
  -1  18   4    0.00    1.50
   1  18   6    0.88    0.61
   1 -18  -6    0.41    0.82
  -1  18  -6    1.23    0.98
   1 -18  -6    0.85    1.03
   1  18  -6    1.31    0.97
  -1 -18  -6    2.40    1.08
   1 -18   6    2.07    0.80
  -1 -18  -6    0.18    0.68
   1 -18   6   -0.76    0.55
  -1  18   6    0.58    0.67
  -1 -19   1   11.21    1.81
  -1  19  -1    9.53    1.87
  -1 -19   1   10.22    0.74
  -1  19  -1    9.33    1.55
  -1 -19   1    8.01    1.43
   1 -19  -1    9.71    2.31
   1 -19  -1   11.82    2.09
   1 -19  -1   10.15    0.83
  -1  19  -1    7.51    0.92
  -1 -19   1   12.97    2.77
   1 -19  -1   12.27    1.77
   1 -19  -1   11.55    3.30
   1 -19  -1   10.17    0.77
  -1  19  -1   12.93    3.13
   1  19   1    4.69    3.85
   1  19   1   10.52    0.88
  -1 -19   1    9.52    0.60
   1  19   1    9.23    0.73
  -1  19  -1   10.79    2.21
  -1 -19   1   16.83    2.45
  -1  19   1    8.97    2.20
  -1  19   1    8.46    0.81
   1 -19   1   10.20    0.81
  -1 -19  -1    9.23    0.85
  -1 -19  -1    9.16    0.72
  -1 -19  -1   10.06    2.55
   1 -19   1   10.44    2.28
   1 -19   1   10.76    2.99
  -1  19   1    9.99    1.94
  -1  19   1   12.18    1.63
   1  19  -1    9.52    1.36
  -1  19   1    9.01    0.76
  -1  19   1    9.24    2.95
   1 -19   1   10.72    1.61
   1  19  -1   10.54    1.97
   1  19  -1    6.64    2.34
  -1 -19  -1   10.28    1.88
   1 -19   1   10.60    1.91
   1  19  -1    9.30    1.54
  -1 -19  -1   11.71    3.47
  -1 -19  -1   11.66    2.07
   1  19   3   38.14    2.95
   1 -19  -3   36.73    1.91
   1  19   3   38.56    5.78
   1 -19  -3   35.96    3.05
   1 -19  -3   34.39    4.48
  -1  19  -3   35.86    1.99
   1  19   3   38.12    4.31
  -1 -19   3   36.59    4.16
   1 -19  -3   28.70    5.87
  -1 -19   3   45.61    3.30
  -1  19  -3   36.05    3.32
  -1  19  -3   32.90    2.42
  -1 -19   3   39.03    2.67
   1 -19  -3   34.94    2.11
   1 -19  -3   38.91    3.54
  -1 -19   3   39.31    2.41
  -1 -19   3   39.17    1.67
   1  19   3   35.79    1.83
   1  19   3   40.96    3.42
  -1  19  -3   39.73    2.80
  -1  19  -3   34.36    4.35
  -1 -19  -3   42.21    3.26
  -1  19   3   44.31    4.35
   1  19  -3   35.78    1.95
   1 -19   3   39.72    3.59
  -1  19   3   32.95    5.53
   1  19  -3   42.66    2.52
  -1 -19  -3   37.78    4.57
   1  19  -3   33.03    3.81
  -1  19   3   36.98    1.88
   1  19  -3   35.26    2.19
  -1  19   3   40.37    3.43
   1 -19   3   40.54    2.59
   1 -19   3   43.27    4.67
  -1  19   3   35.53    1.83
  -1 -19  -3   36.81    1.85
   1  19  -3   36.23    2.93
   1 -19   3   37.85    2.89
   1  19  -3   38.24    1.48
  -1 -19  -3   41.77    3.73
  -1  19   3   35.22    2.89
   1 -19   3   36.57    1.75
  -1 -19  -3   38.01    2.06
  -1 -19  -3   36.91    6.13
   1 -19  -5   35.02    2.02
   1 -19  -5   33.51    2.17
  -1  19  -5   32.95    2.06
   1  19   5   34.08    1.86
  -1  19  -5   31.96    1.68
  -1  19   5   34.09    1.87
   1 -19   5   36.36    1.95
  -1 -19  -5   35.17    1.95
  -1 -19  -5   34.04    2.16
   1 -19   5   33.73    1.67
   1  19  -5   31.97    2.03
  -1  20   0    5.90    1.63
  -1  20   0    5.19    1.28
  -1 -20   0    7.52    3.10
  -1 -20   0    6.92    2.21
   1  20   0    4.58    0.53
  -1  20   0    3.94    1.95
   1  20   0    4.67    1.93
  -1  20   0    0.73    2.76
   1 -20   0    5.18    2.97
   1  20   0    5.01    0.72
   1  20   0    4.62    1.19
  -1  20   0    4.07    0.55
   1 -20   0    1.42    3.24
   1  20   0    5.44    1.42
  -1 -20   0    5.75    1.43
  -1 -20   0    5.69    1.68
  -1 -20   0    5.25    0.70
  -1  20   0    4.51    0.75
   1  20   0   11.44    2.87
   1 -20   0    5.41    0.58
  -1 -20   0    3.78    0.52
   1 -20  -2   -4.18    3.00
  -1 -20   2    2.76    1.75
  -1  20  -2    2.41    1.90
  -1  20  -2    2.11    1.14
   1  20   2    3.10    0.63
  -1  20  -2    2.38    0.70
  -1 -20   2    2.92    2.35
  -1 -20   2    1.69    1.03
   1 -20  -2    8.88    2.44
   1  20   2    1.98    0.49
  -1 -20   2    3.47    0.54
  -1 -20   2    2.86    1.29
  -1  20  -2    4.64    2.72
   1 -20  -2    3.44    1.37
   1 -20  -2    2.38    0.48
  -1  20  -2    2.23    1.37
   1 -20  -2    5.54    1.74
   1 -20  -2    2.48    0.70
   1 -20   2   -0.21    1.73
   1  20  -2    1.30    0.92
  -1 -20  -2    4.67    1.71
   1 -20   2    7.23    2.86
  -1  20   2    5.97    1.72
  -1 -20  -2    4.43    2.06
   1 -20   2    2.17    1.16
  -1 -20  -2    3.23    0.55
  -1  20   2    2.13    2.13
  -1  20   2    3.23    0.55
  -1 -20  -2    9.42    3.83
  -1  20   2   -1.22    2.81
   1  20  -2    2.38    0.60
   1  20  -2    1.47    1.70
   1  20  -2    3.54    1.24
   1  20  -2    0.84    2.44
   1 -20   2    1.57    0.51
  -1  20   2    4.39    1.35
  -1 -20  -2    1.87    0.60
  -1 -20  -2    4.12    2.68
   1 -20   2    2.70    1.44
  -1  20   2    3.69    0.65
  -1  20  -4   -0.22    0.45
   1  20   4    0.47    4.89
  -1  20  -4    0.14    0.67
   1  20   4   -3.72    3.19
   1 -20  -4   -0.04    0.75
  -1 -20   4    0.62    0.74
   1 -20  -4    0.51    0.61
   1  20   4   -0.02    0.46
   1  20   4    3.73    1.98
   1  20   4   -2.07    2.24
  -1  20   4    4.10    4.41
  -1 -20  -4    0.28    0.64
   1  20  -4    0.67    0.66
  -1 -20  -4   -2.51    3.35
  -1  20   4    0.61    3.17
  -1 -20  -4    0.81    2.01
  -1 -20  -4    0.10    5.08
  -1  20   4   -0.44    0.49
  -1  20   4    2.16    2.20
   1 -20   4   -0.58    0.53
  -1 -20  -4    0.26    0.50
   1 -20   4    0.62    0.46
  -1 -20  -4   -3.50    2.30
  -1  20   4    0.62    1.78
  -1 -21   1  167.21    8.32
   1 -21  -1  170.33    8.00
  -1  21  -1  162.99    8.43
  -1  21  -1  155.23    7.70
   1 -21  -1  160.22    6.75
   1  21   1  158.56    7.46
   1  21   1  162.74    8.57
   1  21   1  170.75    7.91
   1  21   1  168.67    6.64
  -1 -21   1  169.05    7.72
   1  21   1  171.21    6.76
  -1 -21   1  173.36    7.42
  -1 -21   1  166.55    6.43
   1 -21  -1  157.27    9.91
  -1 -21   1  170.75    6.54
   1 -21  -1  175.61    8.84
  -1  21  -1  160.16    9.53
  -1  21  -1  156.80    6.78
   1 -21  -1  161.29    6.62
  -1  21  -1  163.08    7.42
   1  21   1  160.12    9.75
  -1 -21   1  182.67    9.51
   1 -21  -1  168.31    7.59
  -1  21   1  164.84    6.64
  -1 -21  -1  162.93   10.18
  -1 -21  -1  156.18    6.72
   1  21  -1  159.02    7.49
   1 -21   1  167.27    8.55
  -1  21   1  175.61    7.58
  -1  21   1  168.25    6.72
  -1  21   1  184.34    8.78
   1  21  -1  163.15    6.73
   1  21  -1  155.23    8.04
  -1  21   1  168.66    9.96
   1 -21   1  168.46    7.85
   1  21  -1  152.30    8.90
   1 -21   1  165.83    7.47
  -1 -21  -1  167.58    7.66
  -1 -21  -1  167.46    8.09
  -1 -21  -1  167.23    8.88
  -1  21   1  176.58    7.95
   1  21  -1  168.28    7.25
  -1 -21  -1  166.65    6.59
   1 -21   1  163.23    9.69
  -1 -21   3  133.38    6.67
   1 -21  -3  130.38    7.97
   1 -21  -3  126.34    5.47
  -1  21  -3  126.50    5.92
  -1  21  -3  119.09    6.22
  -1  21  -3  122.24    7.00
   1 -21  -3  125.41    9.71
   1 -21  -3  123.99    5.22
  -1  21  -3  124.65    5.41
  -1 -21   3  122.94    6.00
  -1 -21   3  134.80    4.94
  -1 -21   3  138.09    7.80
   1  21   3  120.41    8.92
   1 -21  -3  118.22    6.88
   1  21   3  129.68    5.20
  -1 -21   3  128.09    5.73
   1  21   3  129.59   10.88
   1  21   3  127.68    8.18
  -1  21  -3  128.08    8.29
   1 -21  -3  119.33    6.39
  -1  21   3  135.41    6.38
   1  21  -3  122.48    6.40
   1  21  -3  114.68    5.79
   1 -21   3  129.13    6.35
  -1 -21  -3  130.62    8.51
  -1 -21  -3  113.30    5.34
  -1 -21  -3  109.90    5.12
   1 -21   3  129.39    5.97
  -1  21   3  120.78    5.22
  -1 -21  -3  130.81    7.42
  -1 -21  -3  137.25    6.88
   1  21  -3  125.71    5.30
   1  21  -3  116.77    7.36
   1 -21   3  135.72    8.24
   1 -21   3  125.42    6.97
  -1 -21  -3  121.54   11.33
  -1  21   3  130.53    9.34
   1 -21   3  130.51    5.08
   1  21  -3  118.51    5.57
  -1  21   3  122.66    5.16
  -1  21   3  128.47    7.72
  -1  21   3  134.16    6.84
   1  21   5   80.55    3.57
   1 -21  -5   70.41    3.91
  -1  21  -5   79.93    3.83
   1 -21  -5   79.31    3.70
  -1  21   5   77.87    3.61
   1 -21   5   82.80    3.67
   1  21  -5   74.07    3.64
  -1 -21  -5   77.83    3.63
   1 -21   5   83.49    3.38
  -1 -21  -5   76.40    3.88
   1  22   0    1.89    0.59
  -1  22   0    1.72    1.29
  -1 -22   0    2.94    0.66
   1  22   0    2.63    0.47
   1 -22   0    2.16    1.33
  -1  22   0    1.02    1.55
  -1 -22   0    1.54    3.18
   1  22   0   -0.39    1.08
   1 -22   0   -1.54    3.13
   1  22   0    1.70    2.03
  -1  22   0    4.75    2.29
   1 -22   0    3.51    2.25
  -1 -22   0    4.82    1.49
  -1 -22   0    3.33    1.73
  -1  22   0    1.64    0.61
  -1  22   0    2.15    0.48
  -1 -22   0    2.08    0.44
   1 -22   0    2.68    1.59
   1 -22   0    2.00    0.50
   1  22   0    1.52    1.50
   1 -22   0    1.68    0.60
   1  22   0    5.63    2.94
  -1 -22   0    5.92    2.39
  -1  22   0    0.59    3.09
   1  22   2    1.46    1.82
   1  22   2    1.95    2.67
  -1 -22   2   -1.42    2.67
   1  22   2    0.73    0.42
  -1 -22   2    1.18    0.49
   1  22   2   -2.48    3.26
   1 -22  -2   -1.16    1.53
  -1 -22   2    0.32    1.88
  -1  22  -2    1.44    2.07
  -1  22  -2   -1.19    3.08
  -1 -22   2   -1.33    1.02
   1  22   2    0.62    0.56
   1 -22  -2   -2.23    2.45
   1 -22  -2   -2.99    1.79
   1  22   2    0.22    1.45
   1 -22  -2   -6.34    3.35
  -1  22  -2    0.25    0.66
   1 -22  -2    1.03    0.63
   1 -22  -2    1.06    0.50
  -1  22  -2    2.97    1.28
  -1  22  -2    0.68    1.49
  -1 -22   2   -0.42    1.33
  -1  22   2    1.90    1.81
   1 -22   2    1.62    0.58
  -1  22   2    0.78    0.46
  -1 -22  -2    2.09    2.88
   1 -22   2    0.04    1.53
   1  22  -2    1.44    1.85
  -1  22   2    0.70    0.42
  -1  22   2    0.88    3.54
   1 -22   2    2.47    3.88
   1  22  -2   -0.15    0.95
  -1 -22  -2    1.15    2.03
   1 -22   2   -2.05    2.57
  -1 -22  -2   -1.51    4.03
  -1 -22  -2    0.95    0.45
  -1  22   2   -0.07    2.50
   1  22  -2    1.80    1.33
   1 -22   2    1.05    1.91
   1  22  -2    0.39    0.54
  -1 -22  -2    1.04    0.67
  -1 -22  -2    0.79    1.67
  -1  22   2    1.93    1.44
   1  22  -2   -3.59    2.43
   1 -22  -4    0.20    0.87
  -1  22  -4   -0.22    0.74
   1  22   4   -0.20    0.51
   1 -22  -4    0.77    0.55
   1  22  -4   -0.15    0.69
   1 -22   4    0.23    0.52
  -1 -22  -4    1.09    0.84
  -1  22   4   -0.94    0.52
  -1 -22  -4   -0.14    0.55
  -1 -23   1   85.13    3.70
   1 -23  -1   89.13    3.93
  -1 -23   1   96.18    5.93
  -1  23  -1  104.49    7.70
   1 -23  -1  101.18    6.44
   1  23   1   86.50    3.77
   1  23   1   86.39    5.96
   1 -23  -1   85.73    5.33
   1 -23  -1   74.88    7.52
  -1 -23   1   95.56    4.78
   1  23   1   88.20    5.21
  -1  23  -1  100.39    4.84
  -1 -23   1   92.96    7.18
   1 -23  -1   93.88    4.94
   1  23   1   88.79    4.81
   1 -23  -1   86.69    3.78
  -1 -23   1   84.17    3.58
  -1  23  -1   86.48    3.97
   1  23   1   86.60    3.90
  -1  23  -1  101.67    6.16
  -1  23  -1  100.17    5.27
   1  23   1   99.92    7.56
  -1 -23   1   92.57    5.15
   1  23  -1   92.06    3.92
   1  23  -1   94.86    4.92
   1 -23   1   88.05    7.24
  -1 -23  -1   88.62    3.92
  -1  23   1   86.98    5.13
  -1 -23  -1   89.04    5.49
  -1  23   1   75.74    3.73
   1  23  -1   95.41    4.59
  -1  23   1   89.46    4.78
  -1  23   1   87.32    3.88
  -1  23   1   85.87    5.99
   1 -23   1   84.21    5.91
   1  23  -1   96.41    6.77
   1 -23   1   92.35    4.81
   1 -23   1   87.23    5.17
   1 -23   1   84.74    3.80
  -1 -23  -1   91.87    8.00
  -1 -23  -1   85.93    4.97
  -1 -23  -1   87.12    3.72
   1  23  -1   87.59    5.51
  -1 -23  -1   85.89    6.39
  -1  23   1   83.79    7.39
   1 -23  -3   78.60    3.46
  -1 -23   3   75.17    3.15
   1 -23  -3   80.41    5.01
  -1  23  -3   82.11    3.73
   1 -23  -3   80.92    5.61
   1 -23  -3   89.86    8.81
   1  23   3   71.82    4.74
  -1  23  -3   76.97    7.51
  -1  23  -3   70.76    5.70
   1 -23  -3   80.11    6.77
  -1  23  -3   80.94    4.45
   1  23   3   80.88    8.83
   1  23   3   71.34    6.53
   1  23   3   76.64    3.44
  -1  23  -3   76.77    4.85
   1  23   3   73.79    5.38
   1 -23  -3   80.11    3.71
  -1 -23  -3   81.39    5.85
  -1 -23  -3   73.15    3.62
  -1 -23  -3   81.93    7.19
  -1 -23  -3   70.32    5.16
   1 -23   3   74.37    8.15
  -1  23   3   67.48    3.35
  -1  23   3   79.41    4.77
   1 -23   3   86.08    6.42
  -1 -23  -3   80.27    3.44
  -1  23   3   73.44    3.45
  -1  23   3   75.41    6.40
   1 -23   3   94.87    7.91
   1  23  -3   79.23    3.56
   1 -23   3   89.55    6.45
  -1 -23  -3   68.15    9.42
  -1  23   3   69.03    8.05
  -1  23   3   65.18    5.16
   1 -23   3   74.45    3.31
   1 -23  -5   51.14    2.69
   1 -23  -5   50.51    3.06
  -1  23  -5   51.34    2.89
   1  23   5   46.15    2.54
  -1 -23  -5   53.27    3.05
  -1  23   5   46.89    2.59
   1  23  -5   54.51    2.76
  -1 -23  -5   51.47    2.67
   1 -23   5   49.09    2.70
   1 -23   5   46.79    2.36
   1  24   0    0.65    0.39
  -1 -24   0    0.74    0.65
   1 -24   0    1.18    3.47
   1  24   0    0.70    2.25
  -1  24   0   -1.18    2.36
  -1  24   0    1.56    0.59
  -1  24   0    0.23    1.68
   1 -24   0    0.48    0.52
  -1  24   0   -1.83    3.28
  -1 -24   0    2.27    1.90
   1 -24   0    2.10    1.98
  -1 -24   0    0.24    1.59
   1 -24   0    3.67    2.72
   1 -24   0    1.09    1.52
  -1 -24   0   -2.27    2.57
  -1 -24   0    3.38    3.80
   1  24   0    0.48    1.36
  -1  24   0    2.43    1.40
  -1 -24   0    0.81    0.40
   1  24   0    0.94    0.53
   1  24   0   -0.31    1.58
   1 -24   0    0.58    0.44
   1  24   0    0.34    3.36
   1 -24  -2   -0.42    3.33
  -1 -24   2    2.10    1.39
  -1 -24   2   -0.55    3.26
   1 -24  -2    9.78    4.91
  -1 -24   2    0.32    0.54
   1 -24  -2    1.78    0.66
  -1  24  -2   -3.17    3.79
   1  24   2    1.02    1.97
   1  24   2    1.58    0.51
  -1  24  -2    2.11    2.59
  -1  24  -2    0.62    0.68
   1  24   2    0.91    1.61
  -1 -24   2    1.42    2.29
  -1  24  -2    1.10    1.89
   1 -24  -2    0.41    2.00
  -1  24  -2    3.55    1.55
   1  24   2    0.91    0.60
   1  24   2    2.28    2.70
   1  24   2   -5.12    3.82
   1 -24  -2    1.01    0.49
  -1 -24   2   -0.34    1.68
   1 -24  -2   -1.83    2.40
   1 -24   2    0.61    2.60
  -1 -24  -2    1.35    0.57
   1  24  -2    0.99    0.58
   1  24  -2    2.60    1.23
   1 -24   2    2.33    1.60
   1  24  -2   -1.73    2.04
  -1  24   2    0.92    0.49
   1 -24   2   -0.58    1.92
   1 -24   2    0.15    0.61
  -1 -24  -2    7.64    3.48
  -1 -24  -2   -4.38    4.39
   1  24  -2   -0.16    1.49
  -1 -24  -2   -0.16    0.71
  -1  24   2    0.78    0.51
  -1 -24  -2   -1.60    1.89
   1  24  -2   -1.53    3.14
  -1 -24  -2   -3.15    2.32
   1 -24   2    2.81    3.78
   1  24   4    0.70    0.65
   1 -24  -4    1.89    0.99
  -1  24  -4    0.17    0.87
   1 -24  -4    0.75    0.67
  -1 -24  -4   -0.16    0.80
  -1  24   4    0.15    0.64
   1  24  -4    0.26    0.75
   1 -24   4    1.04    0.65
  -1 -24  -4    0.40    0.68
   1  25   1   61.23    5.46
   1  25   1   57.18    3.91
   1  25   1   56.83    2.69
  -1  25  -1   58.93    6.78
   1 -25  -1   48.98    5.39
   1  25   1   60.27    4.44
  -1  25  -1   58.44    5.30
   1 -25  -1   61.64    4.05
  -1 -25   1   56.07    5.01
  -1 -25   1   56.89    2.51
   1 -25  -1   54.38    4.47
  -1 -25   1   60.17    2.65
  -1 -25   1   62.61    4.25
   1 -25  -1   85.81    7.73
  -1  25  -1   52.83    4.25
  -1 -25   1   56.82    3.73
   1 -25  -1   56.83    2.69
   1  25   1   48.73    6.78
   1  25   1   62.29    2.87
   1 -25  -1   60.14    2.87
  -1 -25   1   54.67    6.49
  -1  25  -1   56.93    2.91
  -1  25  -1   60.83    3.91
  -1  25   1   58.04    3.91
  -1  25   1   61.70    5.42
   1  25  -1   52.54    4.81
  -1 -25  -1   61.05    2.88
  -1  25   1   59.12    2.79
   1 -25   1   56.93    2.74
  -1 -25  -1   62.46    7.84
  -1 -25  -1   64.98    6.02
   1  25  -1   57.91    2.81
  -1 -25  -1   57.09    2.63
  -1  25   1   57.45    2.69
   1 -25   1   63.95    5.45
   1 -25   1   59.51    6.99
  -1  25   1   63.15    4.36
  -1 -25  -1   59.20    4.81
  -1 -25  -1   64.58    4.27
   1 -25   1   60.81    3.95
   1 -25   1   60.18    4.45
   1  25  -1   53.61    6.31
   1  25  -1   63.08    4.12
  -1  25   1   73.91    7.36
   1  25  -1   62.61    3.70
   1  25   3   27.83    5.25
   1  25   3   28.39    3.64
  -1  25  -3   30.08    2.00
   1  25   3   33.28    4.38
   1 -25  -3   26.93    1.73
   1  25   3   30.18    1.78
   1 -25  -3   34.20    2.09
   1  25   3   36.78    7.16
  -1  25   3   29.82    1.78
  -1 -25  -3   28.67    1.76
  -1 -25  -3   30.77    4.21
  -1 -25  -3   21.53    7.53
  -1 -25  -3   34.28    2.07
  -1 -25  -3   38.13    5.04
   1 -25   3   31.03    1.77
  -1 -25  -3   34.07    5.99
   1  25  -3   31.13    1.89
   1 -26   0    0.40    0.46
  -1 -26   0   -9.03    4.16
  -1 -26   0   -2.25    2.85
   1  26   0    0.71    2.49
  -1  26   0    0.65    2.69
   1  26   0    2.49    1.50
  -1 -26   0    0.22    0.69
   1  26   0   -1.47    1.76
   1 -26   0    0.32    0.58
   1  26   0    0.27    0.54
  -1  26   0    1.42    1.60
  -1 -26   0   -2.54    1.71
   1  26   0    0.34    0.41
   1  26   0    1.68    3.90
  -1  26   0   -0.17    3.91
  -1  26   0    2.15    1.93
   1 -26   0   -0.46    1.72
   1 -26   0    1.64    2.15
  -1 -26   0    0.57    0.53
  -1 -26   0    3.87    2.29
   1 -26   0   -5.41    2.97
   1 -26   0   -1.65    4.40
  -1  26   0    0.27    0.52
  -1  26  -2   -0.14    3.32
   1 -26  -2    1.20    2.78
   1  26   2    3.46    2.44
  -1  26  -2    2.12    0.81
   1 -26  -2    3.14    3.91
   1  26   2    3.70    4.91
   1 -26  -2    0.17    0.52
   1  26   2   -0.17    0.51
  -1  26  -2    1.34    2.35
   1 -26  -2   -0.63    0.70
  -1  26  -2    0.21    1.85
   1  26   2    4.49    3.27
   1  26   2    0.69    0.64
   1 -26  -2   -0.01    2.19
   1  26   2    2.28    1.95
   1 -26  -2    1.35    5.62
  -1  26  -2   -4.43    4.83
  -1 -26   2    0.67    0.60
  -1 -26  -2    5.62    2.53
  -1  26   2   -5.48    3.18
  -1  26   2   -1.82    1.76
  -1  26   2    1.58    0.56
   1  26  -2    0.22    0.62
  -1 -26  -2    0.47    0.67
  -1 -26  -2   -4.48    2.96
  -1 -26  -2   -0.72    4.29
  -1 -26  -2    2.14    6.18
  -1  26   2    0.83    0.58
  -1  26   2    0.15    4.82
   1 -26   2    0.80    0.68
  -1  26   2   -0.95    2.39
  -1 -26  -2   -0.13    0.74
   1 -26  -4   -0.16    0.73
  -1  26  -4    0.03    1.00
   1  26   4    0.86    0.70
   1 -26  -4   -0.58    1.04
  -1 -26  -4    0.76    0.99
  -1  26   4    1.35    0.73
   1  26  -4   -0.09    0.81
   1 -26   4    0.70    0.78
  -1 -26  -4   -0.18    0.68
  -1 -27   1   39.73    2.08
   1  27   1   39.27    2.02
  -1  27  -1   38.82    5.20
  -1  27  -1   47.20    4.13
   1 -27  -1   40.65    3.68
   1  27   1   46.07    4.20
  -1 -27   1   36.26    1.85
   1 -27  -1   39.72    5.54
  -1  27  -1   40.32    2.29
  -1  27  -1   41.51    3.46
   1 -27  -1   43.82    2.08
   1  27   1   31.64    5.21
   1  27   1   39.25    2.19
   1 -27  -1   37.49    7.59
   1  27   1   47.25    7.44
   1 -27  -1   48.78    4.48
   1 -27  -1   43.02    2.22
   1  27   1   41.03    3.51
  -1  27  -1   47.08    7.29
  -1  27   1   38.73    4.08
  -1 -27  -1   39.25    1.97
   1 -27   1   35.27    4.26
  -1  27   1   38.17    7.18
  -1 -27  -1   40.46    2.21
   1 -27   1   37.47    5.54
   1 -27   1   32.63    3.53
  -1 -27  -1   50.29    8.27
   1 -27   1   35.46    6.20
  -1  27   1   38.73    2.03
  -1 -27  -1   56.74    6.18
  -1  27   1   39.99    2.16
   1  27  -1   42.34    2.21
   1 -27   1   39.57    2.12
  -1  27   1   39.60    5.21
  -1 -27  -1   41.99    4.71
  -1 -27  -1   42.64    4.06
  -1  27   1   38.99    3.49
   1  27   3   33.09    6.58
   1 -27  -3   48.54    2.49
   1  27   3   47.70    2.48
  -1  27  -3   51.03    2.78
   1 -27  -3   48.74    2.72
   1  27   3   37.01    9.43
   1  27   3   32.72    5.42
   1  27   3   46.02    8.68
   1 -27   3   47.31    2.42
  -1  27   3   46.62    2.46
  -1 -27  -3   49.06    2.71
  -1  27   3   43.54    2.40
  -1 -27  -3   50.37    2.50
   1 -28   0   -1.01    1.99
  -1  28   0   -3.29    4.93
   1 -28   0    1.47    0.58
   1  28   0    1.64    5.14
   1 -28   0    1.86    0.71
   1  28   0    1.00    0.50
  -1  28   0    2.20    0.77
  -1 -28   0    2.66    0.58
   1 -28   0   -5.47    2.41
  -1  28   0    7.47    3.48
  -1 -28   0    2.85    0.85
   1 -28   0   -0.28    4.81
   1 -28   0    2.33    3.42
   1  28   0    0.58    2.48
   1  28   0    0.08    1.96
   1  28   0   -5.03    3.29
  -1  28   0    1.40    2.41
   1  28   0    0.51    0.64
  -1  28   0    5.20    1.98
   1  28   2   11.12    4.12
   1 -28  -2    2.05    0.72
  -1  28  -2    1.93    0.92
   1  28   2    1.08    0.62
   1  28   2    1.65    0.75
   1  28   2   -0.32    2.25
   1  28   2   -0.09    2.76
   1 -28  -2    0.68    0.79
   1  28   2   -8.74    5.25
  -1  28   2    1.14    0.55
  -1 -28  -2    0.82    0.83
  -1  28   2    0.51    0.63
  -1 -28  -2    0.86    0.65
  -1 -28  -2    2.60    3.34
   1  28  -2    0.37    0.73
  -1 -28  -2    0.76    4.38
  -1 -28  -2   10.23    2.89
  -1  28   2    4.64    5.93
  -1 -28  -2    3.27    6.58
  -1  28   2   -1.13    2.25
  -1  28   2   -1.80    2.67
  -1  28   2    9.14    4.30
   1 -28   2    1.08    0.70
   1  29   1   18.29    1.42
   1  29   1   20.21    6.68
   1 -29  -1   17.38    6.24
  -1 -29   1   17.32    1.37
  -1  29  -1   13.71    1.42
   1 -29  -1   14.50    1.34
   1 -29  -1   19.82    3.66
   1 -29  -1   20.42    4.80
  -1 -29   1   13.02    1.23
   1  29   1   18.42    3.30
   1 -29  -1   22.97    3.52
   1 -29  -1   13.15    1.19
   1  29   1   17.16    4.75
   1  29   1   15.48    1.15
   1  29   1   17.86    3.51
  -1  29   1   15.82    1.27
  -1  29   1   17.41    1.20
  -1  29   1   27.32    5.31
  -1 -29  -1   16.47    1.15
   1  29  -1   16.11    1.37
  -1  29   1   18.26    6.05
  -1 -29  -1   15.12    1.44
  -1  29   1   17.99    3.32
   1 -29   1   15.25    1.37
  -1  29   1   17.28    3.15
   1  29   3   10.10    1.15
  -1  29  -3   10.25    1.50
   1 -29  -3    7.60    1.07
   1 -29  -3    5.93    1.21
   1  29  -3    7.19    1.28
  -1 -29  -3    7.82    1.41
  -1 -29  -3    6.33    1.12
  -1  29   3   10.09    1.15
  -1  29   3    8.24    1.26
   1 -29   3   10.30    1.27
   1 -30   0    1.49    0.73
  -1  30   0    1.50    0.74
   1 -30   0    3.24    0.87
  -1  30   0   -0.07    2.95
  -1  30   0   -2.54    5.76
  -1  30   0    4.97    2.35
  -1 -30   0    2.38    0.64
   1  30   0    2.46    0.73
  -1 -30   0    3.94    0.95
  -1  30   0    3.00    4.18
   1 -30  -2    0.10    0.92
   1  30   2    2.36    0.87
  -1  30  -2    2.22    1.00
   1 -30  -2    2.57    0.81
   1  30   2    1.35    0.68
  -1  30   2    1.12    0.61
  -1  30   2    2.59    0.75
   1  30  -2    1.11    0.80
   1 -30   2    2.71    0.84
  -1 -30  -2    1.53    0.76
  -1 -30  -2    2.90    1.07
   1  31   1    6.08    0.95
   1  31   1    6.65    1.11
   1 -31  -1    5.62    0.93
   1 -31  -1    4.56    1.09
  -1  31  -1    5.84    1.09
  -1 -31  -1    6.37    1.01
   1  31  -1    4.41    0.97
  -1  31   1    6.23    0.89
  -1  31   1   10.47    3.99
   1 -31   1    6.58    1.18
  -1  31   1   13.71    5.21
  -1  31   1    6.68    1.10
  -1  31   1   19.48    7.79
  -1 -31  -1    5.19    1.15
  -1  31   1    0.23    2.92
  -1 -32   0    1.82    0.68
   1  32   0    1.75    0.85
   1 -32   0    1.84    0.92
  -1  32   0    1.99    0.93
   1 -32   0    2.12    0.78
  -1 -32   0    2.14    0.99
  -2   0   2  880.04   32.68
   2   0   2  879.43   33.49
   2   0   2  887.75   34.00
  -2   0  -2  829.51   32.70
  -2   0   2  876.29   32.72
   2   0   2  851.42   33.28
  -2   0   2  886.44   32.81
  -2   0   2  889.12   32.96
   2   0   2  898.91   32.76
   2   0   2  851.59   33.16
   2   0   2  863.38   33.13
  -2   0  -2  887.94   32.75
   2   0   2  878.04   34.23
   2   0  -2  850.98   32.67
   2   0   2  832.34   33.01
   2   0   2  889.50   33.68
   2   0  -2  831.68   32.70
   2   0   4  438.40   19.18
  -2   0   4  450.84   17.38
   2   0   4  440.27   16.99
   2   0   4  417.60   17.98
   2   0  -4  460.00   17.16
  -2   0   4  458.59   16.98
   2   0  -4  461.25   17.42
   2   0  -4  453.41   16.99
  -2   0   4  456.30   16.90
  -2   0   4  455.17   17.13
  -2   0  -4  414.67   16.93
   2   0   4  427.02   17.36
  -2   0   4  457.08   16.76
   2   0  -4  457.57   16.92
   2   0  -4  463.10   16.95
   2   0   4  430.07   18.72
   2   0   4  438.10   18.32
   2   0   4  425.69   17.57
   2   0   4  437.81   17.54
   2   0   4  436.15   17.80
  -2   0   6  238.83    9.52
  -2   0   6  247.56    9.38
  -2   0   6  255.78    9.92
   2   0  -6  221.13    9.56
  -2   0   6  257.40    9.67
   2   0   6  238.55    9.62
  -2   0   6  240.47    9.88
  -2   0   6  242.74    9.64
  -2   0  -6  239.44    9.57
  -2   0   6  247.02   10.35
  -2   0  -6  238.01    9.66
   2   0  -6  251.00    9.59
  -2   0   6  234.87   10.10
  -2   0   6  257.27    9.55
  -2  -1   1    5.21    0.33
  -2  -1   1    4.21    0.67
  -2  -1   1    4.31    0.50
   2  -1  -1    4.16    0.39
   2   1   1    3.31    0.81
   2   1   1    4.00    0.58
  -2   1  -1    3.88    0.50
   2   1   1    4.14    0.99
  -2   1  -1    4.14    1.01
   2  -1  -1    4.18    0.24
  -2   1  -1    4.80    0.77
  -2  -1   1    3.85    0.39
   2   1   1    4.01    0.51
   2   1   1    3.61    0.75
  -2  -1   1    3.85    0.35
   2  -1  -1    4.36    0.79
   2   1   1    3.83    1.07
   2   1   1    3.83    0.33
   2  -1  -1    5.22    0.30
   2  -1  -1    4.73    0.31
  -2  -1   1    4.73    0.28
  -2   1  -1    4.54    0.60
   2  -1  -1    4.15    0.58
   2   1   1    3.87    0.57
  -2  -1   1    3.78    0.26
   2   1   1    4.61    0.67
   2  -1  -1    4.50    0.46
  -2   1  -1    3.78    0.33
  -2  -1   1    4.27    0.24
  -2   1   1    4.24    0.73
   2   1  -1    4.54    0.41
   2  -1   1    4.30    0.52
  -2   1   1    3.75    0.54
  -2   1   1    3.76    0.25
   2   1  -1    4.04    0.35
  -2   1   1    4.29    0.26
  -2   1   1    4.26    0.31
   2  -1   1    4.43    0.94
   2  -1   1    3.64    0.32
  -2   1   1    4.56    0.33
  -2   1   1    4.58    0.35
   2  -1   1    3.74    0.75
   2   1  -1    5.19    0.33
   2   1  -1    4.06    0.50
   2  -1   1    4.62    0.61
  -2   1   1    3.56    0.43
   2   1  -1    4.27    0.67
  -2   1   1    4.24    0.39
   2   1   3   18.29    2.25
   2  -1  -3   15.29    0.87
   2  -1  -3   16.77    1.41
  -2   1  -3   15.19    0.84
   2  -1  -3   16.11    0.86
  -2   1  -3   14.66    0.90
   2   1   3   16.96    1.23
   2  -1  -3   15.67    0.96
  -2  -1   3   16.08    0.80
   2   1   3   16.02    1.38
   2   1   3   15.74    1.31
   2  -1  -3   16.75    1.12
  -2  -1   3   15.81    0.67
   2   1   3   16.49    1.51
   2   1   3   16.86    1.69
   2   1   3   16.05    1.87
  -2  -1   3   14.44    0.90
  -2  -1   3   15.68    0.73
   2   1   3   14.72    0.88
   2   1   3   17.83    2.53
  -2  -1   3   16.03    0.71
   2   1  -3   15.64    0.78
   2  -1   3   17.21    1.70
   2   1  -3   16.17    0.87
  -2   1   3   16.68    0.71
   2   1  -3   15.77    0.74
   2  -1   3   13.36    2.46
  -2  -1  -3   15.35    0.89
   2  -1   3   16.92    1.93
  -2   1   3   16.41    0.87
  -2  -1  -3   16.75    0.85
   2  -1   3   15.39    1.49
   2  -1   3   13.67    2.19
  -2   1   3   16.86    1.32
  -2   1   3   17.26    1.09
   2  -1   3   16.58    1.24
   2  -1   3   14.92    1.30
  -2   1   3   16.42    0.94
   2   1  -3   15.09    1.01
   2   1  -3   19.31    0.85
   2  -1   3   14.71    0.87
   2   1  -3   15.79    0.82
   2  -1   3   17.32    1.39
   2   1   5   12.42    1.86
  -2  -1   5   13.03    1.02
  -2  -1   5   15.43    0.91
   2  -1  -5   15.91    1.06
   2   1   5   12.90    2.96
  -2  -1   5   15.59    1.03
   2  -1  -5   12.83    1.03
  -2  -1   5   16.06    1.27
   2   1   5   12.44    1.79
  -2  -1   5   15.30    1.65
  -2   1  -5   13.07    1.09
   2   1   5   12.14    3.28
   2   1   5   12.29    0.93
  -2  -1   5   12.95    0.74
  -2  -1   5   11.01    0.85
  -2  -1   5   13.76    0.80
  -2   1  -5   14.34    0.92
  -2  -1   5   12.14    1.34
   2   1   5   13.41    2.34
   2   1   5   17.71    2.32
   2   1   5   13.63    1.58
   2   1   5   14.88    2.69
  -2   1   5   14.40    0.98
   2  -1   5   17.88    2.35
  -2  -1  -5   14.54    0.91
  -2   1   5   12.02    1.36
   2  -1   5   14.34    3.60
   2  -1   5   16.40    3.10
   2  -1   5   14.13    0.98
   2  -1   5   10.36    2.07
  -2   1   5   13.49    1.11
  -2   1   5   14.29    1.94
  -2   1   5   13.69    0.78
   2  -1   5   14.18    1.83
   2   1  -5   14.43    0.96
   2  -1   5   15.10    1.56
   2  -1   5   21.75    3.62
   2  -1   5   16.95    1.97
   2   1  -5   13.73    1.00
  -2   1  -7    3.75    0.92
  -2   1  -7    5.81    0.96
   2  -1  -7    3.79    0.96
   2   1   7    3.92    0.81
   2  -1  -7    3.82    0.83
   2   1  -7    3.99    0.96
   2   1  -7    3.83    0.77
   2  -1   7    4.13    0.87
  -2  -1  -7    3.42    0.89
  -2  -1  -7    3.23    0.75
   2  -2   0   -0.06    0.53
  -2   2   0    0.38    0.28
   2  -2   0    0.66    0.31
   2   2   0    0.36    0.62
   2   2   0    0.50    0.15
   2   2   0   -0.47    0.39
   2  -2   0    0.06    0.34
  -2   2   0    0.27    0.16
   2  -2   0    0.41    0.17
  -2   2   0    0.50    0.34
   2  -2   0    0.45    0.27
  -2  -2   0    0.76    0.22
   2  -2   0    0.46    0.16
   2   2   0    0.49    0.28
  -2   2   0    0.65    0.62
   2   2   0    0.05    0.31
  -2   2   0    0.57    0.44
   2   2   2   52.96    3.11
   2   2   2   52.69    3.54
   2   2   2   53.71    2.71
   2   2   2   57.75    2.71
   2  -2  -2   55.25    2.81
   2  -2  -2   59.31    2.35
   2   2   2   57.47    2.87
  -2   2  -2   57.68    2.35
   2   2   2   57.21    2.33
   2   2   2   52.64    2.58
   2  -2  -2   58.80    2.30
   2  -2  -2   52.07    2.46
  -2   2  -2   55.02    2.28
   2  -2  -2   54.01    3.15
  -2  -2   2   54.41    2.16
   2  -2  -2   56.67    2.60
   2   2   2   52.91    2.97
  -2  -2   2   61.72    2.27
   2   2   2   53.75    3.42
  -2  -2  -2   57.08    2.30
  -2   2   2   58.93    2.23
   2   2  -2   57.82    2.17
   2  -2   2   57.83    2.34
   2  -2   2   49.85    2.91
   2   2  -2   57.64    2.24
   2  -2   2   51.65    3.38
   2   2  -2   57.87    2.20
  -2   2   2   53.36    2.40
   2  -2   2   50.88    2.68
   2  -2   2   53.53    2.58
  -2   2   2   54.49    2.34
   2   2  -2   57.71    2.24
  -2   2   2   53.20    2.74
   2   2  -2   57.59    2.32
  -2   2   2   54.77    2.55
   2   2   4   23.81    1.23
   2  -2  -4   22.30    1.26
   2   2   4   22.35    3.12
   2   2   4   23.14    1.70
   2   2   4   20.37    2.06
   2   2   4   21.71    1.81
   2   2   4   24.44    2.62
   2  -2  -4   21.47    1.45
   2  -2  -4   21.65    1.73
   2   2   4   25.80    1.95
   2  -2  -4   23.52    1.34
   2  -2  -4   20.16    2.21
  -2  -2   4   24.82    1.01
   2   2   4   27.36    3.58
   2   2   4   17.90    2.28
   2  -2  -4   21.77    1.22
   2  -2   4   20.43    3.29
   2   2  -4   24.01    1.18
   2  -2   4   19.11    3.02
   2  -2   4   26.86    2.34
   2   2  -4   22.99    1.18
   2  -2   4   21.60    1.83
  -2   2   4   25.84    1.87
  -2   2   4   24.78    1.58
  -2   2   4   24.61    2.39
   2  -2   4   25.88    1.87
  -2   2   4   25.81    1.43
   2  -2   4   22.06    1.64
   2  -2   4   26.71    2.15
   2   2  -4   24.54    0.99
  -2  -2  -4   24.19    1.21
   2  -2   4   23.43    1.24
   2  -2   4   21.06    2.55
  -2   2   4   24.23    1.06
   2  -2  -6   29.65    1.77
   2  -2  -6   29.99    1.72
  -2   2  -6   28.93    1.75
  -2   2  -6   28.60    1.62
   2   2   6   34.64    1.72
  -2  -2   6   34.63    1.58
   2   2  -6   29.58    1.61
   2  -2   6   31.70    1.72
   2   2  -6   31.26    1.75
  -2   2   6   31.54    2.09
  -2   2   6   28.07    3.96
  -2   2   6   32.54    1.51
  -2   2   6   34.24    2.41
  -2  -2  -6   29.72    1.74
  -2  -2  -6   29.82    1.64
  -2   2   6   27.49    2.94
   2  -3  -1    2.49    0.34
  -2   3  -1    1.65    0.27
   2  -3  -1    1.46    0.21
  -2   3  -1    1.83    0.44
   2  -3  -1    2.63    0.30
  -2   3  -1    1.55    0.50
   2  -3  -1    1.96    0.44
  -2  -3   1    2.01    0.21
   2   3   1    2.63    0.99
   2   3   1    2.16    0.72
   2  -3  -1    1.46    0.37
  -2  -3   1    1.62    0.18
  -2   3  -1    1.96    0.90
   2   3   1    1.04    0.55
   2  -3  -1    1.72    0.70
   2  -3  -1    1.68    0.25
   2  -3  -1    1.45    0.19
   2   3   1    1.86    0.25
  -2   3  -1    2.19    0.64
   2  -3  -1    1.92    0.56
  -2  -3   1    2.17    0.23
   2   3   1    1.20    0.44
   2  -3   1    1.43    0.25
  -2   3   1    1.27    0.49
   2  -3   1    1.84    0.63
   2   3  -1    1.67    0.27
   2   3  -1    1.88    0.46
  -2  -3  -1    2.12    0.24
   2   3  -1    2.09    0.21
  -2   3   1    1.85    0.37
   2   3  -1    1.62    0.54
   2  -3   1    1.15    0.80
   2   3  -1    1.50    0.39
  -2   3   1    2.40    0.24
   2   3  -1    1.79    0.29
   2   3  -1    1.27    0.32
   2   3  -1    0.97    0.26
  -2   3   1    2.39    0.44
  -2   3   1    1.45    0.20
   2   3  -1    1.55    0.46
  -2   3   1    2.11    0.69
   2  -3   1    1.95    0.44
   2  -3   1    1.64    0.50
   2   3   3    8.80    1.78
   2  -3  -3    9.02    1.47
  -2   3  -3    7.91    0.54
   2  -3  -3    8.60    0.65
   2   3   3    8.30    1.29
   2  -3  -3    9.26    0.87
   2   3   3    8.37    1.64
  -2  -3   3    8.12    0.43
   2   3   3    7.86    0.61
  -2  -3   3    8.22    0.49
   2  -3  -3    8.49    0.74
   2   3   3   11.05    1.49
   2   3   3    7.23    1.10
   2  -3  -3    8.89    1.10
   2   3   3    7.82    1.08
   2   3   3    7.42    0.97
   2  -3  -3    9.37    0.65
   2   3   3    8.50    2.09
  -2   3  -3    7.81    0.65
   2  -3   3   10.36    1.31
  -2   3   3    8.67    0.48
   2  -3   3    7.55    1.06
   2  -3   3    6.20    1.67
   2  -3   3   11.07    2.24
   2  -3   3    8.08    0.93
  -2  -3  -3    9.23    0.59
   2   3  -3    8.34    0.54
  -2   3   3    9.72    0.78
   2  -3   3    7.42    0.60
   2  -3   3    7.22    1.04
  -2   3   3    9.50    0.89
  -2   3   3    8.48    1.47
   2  -3   3    8.10    1.36
   2   3  -3    8.62    0.42
   2   3  -3   10.23    0.53
   2  -3   3    7.19    1.58
  -2   3   3    9.74    1.13
   2  -3  -5    6.16    1.07
   2  -3  -5    6.39    1.27
  -2   3  -5    6.21    0.76
   2   3   5    8.43    3.19
   2   3   5   11.30    1.70
   2   3   5    7.38    2.27
   2   3   5    5.21    1.62
  -2   3  -5    7.40    0.68
   2  -3  -5    4.83    1.34
   2  -3  -5    6.27    0.74
   2   3   5    6.36    0.68
   2  -3  -5    9.14    0.92
   2  -3  -5    7.44    1.88
  -2  -3   5    6.24    0.52
  -2   3   5    7.34    1.45
   2  -3   5    8.02    1.89
   2  -3   5   10.58    2.47
   2  -3   5   10.69    1.70
   2   3  -5    8.20    0.65
   2  -3   5    7.71    1.75
   2  -3   5    7.86    1.51
  -2   3   5    5.95    2.12
  -2  -3  -5    6.70    0.67
   2   3  -5    7.39    0.64
  -2  -3  -5    7.59    1.12
  -2   3   5    7.00    0.57
   2  -3   5    6.56    0.71
   2  -3   5    5.63    3.16
   2   3  -5    7.58    0.74
  -2   3   5    5.90    1.59
   2  -3   5    8.19    1.35
   2  -3   5    5.53    2.50
  -2   3   5    7.07    1.22
  -2   3  -7   -0.02    0.82
  -2   3  -7    1.47    0.71
   2  -3  -7    2.46    0.82
   2  -3  -7    1.76    0.92
   2   3   7    0.65    0.66
   2   3  -7    1.35    0.97
   2  -3   7    2.33    0.76
  -2  -3  -7    1.96    0.73
  -2  -3  -7    0.69    0.77
  -2  -4   0  419.08   15.89
   2   4   0  425.55   16.25
  -2   4   0  424.30   16.48
   2   4   0  427.31   16.45
  -2  -4   0  420.74   15.92
  -2  -4   0  435.20   16.81
   2  -4   0  424.00   16.82
  -2  -4   0  431.33   16.47
  -2   4   0  413.27   16.16
   2  -4   0  398.65   16.24
  -2  -4   0  428.64   16.17
   2  -4   0  443.34   15.94
  -2   4   0  412.93   16.80
  -2   4   0  434.31   15.96
   2   4   0  425.57   16.15
   2  -4   0  408.87   16.45
   2   4   0  419.72   15.90
   2  -4   0  441.62   15.97
  -2   4   0  414.45   16.26
   2  -4   0  398.17   15.95
   2  -4   0  397.41   16.14
   2   4   0  443.00   16.81
  -2  -4   0  421.47   16.26
   2   4   2  171.52    7.45
   2  -4  -2  184.85    7.15
  -2   4  -2  189.22    8.38
   2  -4  -2  183.78    7.10
   2  -4  -2  195.63    6.94
  -2  -4   2  185.42    6.99
   2  -4  -2  172.20    7.77
  -2   4  -2  177.61    7.51
  -2   4  -2  185.93    7.39
   2   4   2  173.56    7.95
   2   4   2  182.96    8.56
  -2   4  -2  185.56    7.85
   2   4   2  197.20    7.11
   2  -4  -2  171.56    7.34
   2   4   2  174.90    7.63
   2  -4  -2  187.43    6.89
  -2   4  -2  190.03    7.13
   2  -4  -2  168.57    7.47
   2  -4  -2  189.74    6.95
   2  -4  -2  169.77    8.19
  -2  -4   2  183.59    6.93
  -2  -4   2  193.82    6.95
   2  -4   2  184.91    7.51
  -2  -4  -2  180.83    7.68
  -2   4   2  180.86    6.90
  -2  -4  -2  180.01    8.03
  -2   4   2  184.65    7.88
  -2   4   2  181.77    7.22
   2  -4   2  184.21    7.38
  -2   4   2  187.48    7.03
  -2  -4  -2  186.85    7.53
   2  -4   2  175.53    7.76
  -2  -4  -2  181.10    7.05
   2  -4   2  188.53    7.11
   2  -4   2  176.75    8.22
   2   4  -2  179.81    6.94
  -2   4   2  180.53    7.53
   2   4  -2  190.69    6.95
  -2  -4  -2  177.66    8.55
  -2   4   2  185.57    7.33
   2   4  -2  192.67    6.94
   2   4   4  208.38   13.02
  -2  -4   4  241.88    8.33
   2  -4  -4  223.36    8.63
   2   4   4  222.23   11.43
   2  -4  -4  207.15    8.61
   2   4   4  219.48   10.84
   2  -4  -4  228.52    9.22
   2   4   4  222.08   10.00
   2  -4  -4  228.00    8.92
  -2   4  -4  212.31    8.63
   2  -4  -4  229.02    8.77
   2   4   4  234.53   10.65
   2   4   4  220.26    9.20
   2   4   4  228.18   10.07
   2  -4  -4  219.39    9.68
   2   4   4  216.58    9.44
   2   4   4  192.51    8.67
   2  -4   4  225.55   10.44
  -2   4   4  216.90    9.98
   2   4  -4  231.48    8.47
  -2  -4  -4  212.85    8.68
   2  -4   4  205.41   10.62
   2   4  -4  221.45    8.46
   2  -4   4  226.46    9.03
   2  -4   4  209.50    9.13
  -2   4   4  218.48    9.04
   2  -4   4  224.26    8.61
   2   4  -4  212.27    8.38
   2  -4   4  233.17    9.26
   2  -4   4  230.05    9.71
   2  -4   4  214.37    9.90
  -2   4   4  216.37    9.39
   2  -4   4  213.97    9.38
  -2   4   4  222.80    8.43
  -2   4   4  218.20    8.86
  -2  -4  -4  213.73    8.56
   2  -4  -6  131.15    5.89
  -2   4  -6  142.56    5.79
   2  -4  -6  148.84    5.91
  -2   4  -6  139.87    5.92
   2   4   6  148.00    5.85
  -2   4   6  148.23    5.67
  -2   4   6  136.25    8.19
   2   4  -6  140.51    5.75
  -2   4   6  140.50    6.55
   2  -4   6  146.60    5.88
  -2   4   6  138.45    7.14
  -2  -4  -6  142.89    5.83
  -2   4   6  141.17    6.26
  -2  -4  -6  145.70    5.89
   2  -5  -1    0.30    0.20
   2   5   1   -0.41    0.59
  -2   5  -1   -0.06    0.19
   2  -5  -1    0.23    0.16
  -2  -5   1    0.20    0.12
  -2   5  -1    0.91    0.38
   2  -5  -1    0.61    0.29
   2  -5  -1    0.86    0.27
   2   5   1   -0.05    0.92
  -2   5  -1    0.03    0.38
   2   5   1    0.04    0.37
  -2   5  -1    0.01    0.54
  -2  -5   1    0.09    0.12
  -2  -5   1    0.33    0.21
   2  -5  -1    0.02    0.16
   2   5   1    0.30    0.17
  -2   5  -1   -0.45    0.72
   2   5   1    0.39    0.47
  -2  -5  -1   -0.20    0.61
  -2   5   1    0.38    0.65
  -2  -5  -1    0.30    0.15
   2   5  -1   -0.12    0.19
  -2  -5  -1    0.29    0.45
  -2   5   1    0.27    0.46
   2  -5   1   -0.34    0.30
   2  -5   1    0.96    0.45
   2  -5   1   -0.10    0.18
  -2   5   1    0.16    0.16
   2   5  -1    0.24    0.12
   2  -5   1    0.92    0.82
  -2   5   1   -0.06    0.25
   2   5  -1    0.03    0.24
   2  -5   1    0.65    0.55
  -2  -5  -1    0.16    0.36
  -2   5   1    0.15    0.16
  -2  -5  -1   -0.25    0.91
   2   5  -1    0.44    0.34
  -2   5   1    0.12    0.33
   2   5  -1    0.36    0.50
  -2   5  -3    1.29    0.29
  -2  -5   3    1.88    0.41
   2  -5  -3    1.36    0.40
   2   5   3    2.32    1.81
   2  -5  -3    1.12    0.50
   2  -5  -3    1.44    1.15
   2  -5  -3    2.18    0.85
   2  -5  -3    1.39    0.19
   2  -5  -3    1.16    0.36
   2   5   3    1.20    0.29
  -2   5  -3    1.23    0.62
  -2  -5   3    1.82    0.25
   2  -5  -3    1.44    0.22
   2  -5  -3    1.37    0.57
  -2   5  -3    2.87    1.55
  -2   5  -3    2.13    0.81
   2   5   3    1.29    1.18
  -2   5  -3    1.43    0.37
   2   5   3    1.95    0.89
   2   5   3    1.41    0.71
  -2  -5   3    1.80    0.29
  -2   5  -3    3.10    1.12
  -2  -5  -3    1.51    0.34
  -2   5   3    0.47    0.80
   2  -5   3    1.36    0.35
  -2  -5  -3    1.06    0.29
   2   5  -3    1.31    0.22
   2   5  -3    1.55    0.28
  -2   5   3    0.74    0.59
  -2  -5  -3    1.85    0.88
  -2   5   3    2.53    1.27
  -2   5   3    1.61    0.53
   2  -5   3    0.55    0.62
  -2   5   3    1.79    0.28
   2   5  -3    1.75    0.26
  -2  -5  -3    1.91    1.16
  -2  -5  -3    3.11    1.83
   2  -5   3    2.03    0.95
  -2  -5  -3    1.57    0.75
   2  -5   3    2.18    0.59
   2  -5   3    1.54    1.32
   2   5   5    2.40    1.11
   2  -5  -5    0.90    0.80
   2   5   5    0.69    1.17
   2   5   5    1.89    0.50
   2  -5  -5    1.22    0.57
   2   5   5    2.51    1.52
  -2   5  -5    0.59    0.40
   2   5   5    2.85    1.35
   2  -5  -5    0.35    1.97
  -2  -5   5    1.60    0.34
   2   5   5    1.96    2.95
   2   5   5    2.29    1.78
   2  -5  -5    1.90    1.05
   2  -5  -5    1.29    0.57
   2   5   5    1.75    2.02
   2   5   5    5.05    2.74
  -2   5  -5    2.45    0.56
   2  -5  -5    3.11    1.43
   2  -5   5    0.08    2.29
   2  -5   5    2.07    2.10
  -2  -5  -5    0.77    0.41
   2  -5   5    1.54    0.45
   2   5  -5    1.16    0.47
  -2   5   5    1.94    1.66
   2   5  -5    1.49    0.38
  -2   5   5    4.05    2.47
   2  -5   5    0.94    0.93
   2  -5   5   -0.19    2.85
  -2   5   5    2.16    1.19
  -2  -5  -5    1.05    0.46
   2  -5   5    1.45    1.13
   2  -5   5   -0.35    1.11
   2   5  -5    1.39    0.48
  -2   5   5    1.14    0.36
  -2   5   5    1.20    0.98
   2  -5   5    4.47    1.65
   2  -5   5    1.84    1.50
   2   5   7    0.10    0.61
   2  -5  -7    0.86    0.94
   2  -5  -7   -0.37    0.74
  -2   5  -7    0.29    0.75
  -2   5  -7    0.32    0.70
   2  -5   7    0.85    0.75
  -2  -5  -7    0.86    0.76
  -2  -5  -7   -0.65    0.60
   2  -6   0  604.97   22.21
   2  -6   0  562.53   22.77
  -2   6   0  587.25   22.19
   2  -6   0  559.01   22.41
   2  -6   0  562.88   22.53
  -2   6   0  602.01   23.25
   2   6   0  590.37   22.50
  -2  -6   0  591.30   22.41
  -2   6   0  575.88   22.43
  -2  -6   0  613.46   22.78
   2   6   0  590.33   22.40
  -2   6   0  573.31   22.79
   2   6   0  600.01   22.73
  -2   6   0  583.93   22.55
  -2  -6   0  612.15   23.15
  -2  -6   0  607.77   22.54
   2   6   0  605.48   23.08
   2  -6   0  557.51   22.19
   2   6   0  617.52   22.12
   2  -6   0  559.87   23.13
   2   6   2  302.09   12.75
   2  -6  -2  279.31   12.05
  -2  -6   2  288.16   10.93
   2  -6  -2  274.49   11.17
  -2   6  -2  296.65   12.52
   2  -6  -2  287.93   11.72
   2   6   2  303.23   12.17
  -2   6  -2  300.16   11.48
  -2   6  -2  312.94   11.22
  -2   6  -2  299.69   11.64
  -2  -6   2  285.10   11.10
  -2  -6   2  284.20   10.93
  -2   6  -2  300.74   11.98
   2  -6  -2  283.86   11.53
   2  -6  -2  287.04   11.25
   2   6   2  295.00   11.76
   2   6   2  295.41   11.58
   2  -6  -2  293.96   11.00
   2   6   2  295.02   11.14
   2  -6  -2  284.17   11.02
   2  -6  -2  285.14   12.63
  -2   6   2  285.66   12.27
  -2  -6  -2  299.68   11.11
  -2  -6  -2  296.95   11.15
   2  -6   2  279.74   11.87
  -2  -6  -2  290.62   11.79
  -2  -6  -2  290.07   12.79
  -2   6   2  291.47   11.12
  -2   6   2  290.10   11.84
   2  -6   2  281.49   11.58
   2  -6   2  296.56   11.18
  -2   6   2  292.28   11.01
  -2   6   2  287.98   11.41
   2  -6   2  285.45   11.44
   2  -6   2  283.68   12.37
  -2   6   2  289.20   11.55
   2   6  -2  282.13   10.94
   2   6  -2  301.75   11.05
  -2  -6  -2  292.10   11.60
  -2  -6  -2  300.34   12.23
   2  -6  -4  285.63   12.27
   2  -6  -4  281.38   11.13
   2   6   4  277.40   11.77
  -2  -6   4  299.79   10.59
   2   6   4  282.01   13.24
  -2   6  -4  289.04   10.96
   2   6   4  267.60   10.85
   2   6   4  280.62   12.34
   2  -6  -4  268.96   10.92
   2  -6  -4  278.66   11.65
   2  -6  -4  297.38   10.59
   2  -6  -4  293.55   10.59
   2  -6  -4  281.37   11.31
   2   6   4  279.44   11.50
   2  -6   4  300.29   11.35
  -2   6   4  251.69   12.48
  -2  -6  -4  291.34   11.62
   2   6  -4  294.93   10.68
   2  -6   4  293.20   11.55
   2  -6   4  280.13   11.48
  -2  -6  -4  292.34   11.91
  -2  -6  -4  277.46   10.84
  -2   6   4  248.85   11.20
  -2  -6  -4  294.99   12.55
   2   6  -4  294.94   10.67
   2  -6   4  274.44   11.72
   2  -6   4  295.26   12.03
  -2  -6  -4  296.73   13.52
   2  -6   4  275.24   13.14
   2   6  -4  262.89   10.71
  -2   6   4  250.37   11.80
   2  -6   4  277.15   12.27
  -2  -6  -4  272.38   10.89
  -2   6   4  277.12   10.73
  -2   6   4  255.90   11.41
   2  -6   4  286.43   12.75
   2  -6   4  278.04   10.88
   2  -6  -6  156.87    6.51
   2   6   6  158.48    6.39
  -2   6  -6  161.27    6.51
   2  -6  -6  157.65    6.50
  -2   6  -6  155.46    6.32
  -2   6   6  141.20   12.19
  -2   6   6  149.75    8.04
   2  -6   6  159.29    6.42
  -2   6   6  156.78    6.23
   2   6  -6  161.56    6.23
  -2  -6  -6  155.74    6.42
  -2   6   6  153.01   10.19
  -2  -6  -6  157.69    6.39
   2   7   1    0.47    0.98
   2  -7  -1    1.00    0.45
  -2  -7   1    0.64    0.60
   2  -7  -1    1.18    0.79
   2   7   1    0.95    0.41
  -2  -7   1    1.51    0.47
   2   7   1    0.36    0.73
   2  -7  -1    0.89    0.59
   2  -7  -1    0.43    1.08
   2  -7  -1    0.97    0.26
  -2   7  -1    0.84    0.47
   2   7   1    1.04    0.22
  -2  -7   1    0.67    0.12
   2   7   1    1.57    0.58
   2  -7  -1    1.47    0.35
  -2   7  -1    0.08    0.88
  -2   7  -1    0.99    0.27
  -2  -7   1    0.92    0.19
  -2   7  -1    0.42    0.36
  -2  -7   1    0.77    0.28
  -2   7  -1    0.84    0.65
   2  -7  -1    1.07    0.25
  -2  -7   1    0.77    0.34
   2   7  -1    1.12    0.21
  -2   7   1    1.98    0.74
  -2   7   1    1.25    0.25
   2  -7   1    0.97    0.42
  -2  -7  -1    1.29    0.24
  -2   7   1    1.00    0.42
   2  -7   1   -0.71    0.61
  -2  -7  -1    0.76    0.49
   2  -7   1    0.87    0.19
  -2  -7  -1    1.10    0.21
   2   7  -1    0.74    0.30
  -2  -7  -1    0.47    0.42
   2   7  -1    1.03    0.27
   2   7  -1    0.70    0.58
  -2   7   1    0.79    0.23
  -2  -7  -1    1.42    0.97
   2  -7   1    1.13    0.26
   2  -7   1    1.27    0.52
   2  -7   1    2.20    1.03
  -2   7   1    1.54    0.52
   2   7  -1    1.01    0.42
  -2   7   1    0.45    0.85
  -2  -7  -1    1.09    0.70
  -2  -7   3    1.22    0.33
  -2   7  -3    1.59    0.40
   2  -7  -3    1.04    0.24
  -2   7  -3    1.69    0.65
   2   7   3    1.65    0.84
   2  -7  -3    1.01    0.62
   2  -7  -3    0.59    0.74
   2   7   3    0.82    0.69
  -2   7  -3    0.96    0.29
   2  -7  -3    1.03    1.43
  -2   7  -3    0.59    1.06
   2  -7  -3    1.23    0.28
   2   7   3    4.21    1.76
  -2   7  -3    0.85    0.77
   2   7   3   -2.40    0.90
   2  -7  -3    0.74    0.38
   2  -7  -3    0.88    1.00
  -2   7  -3    3.26    1.63
   2   7   3    0.63    0.26
   2  -7  -3    0.77    0.37
  -2  -7   3    0.83    0.14
  -2   7   3    0.40    0.74
   2  -7   3    0.87    0.33
  -2   7   3    1.34    1.07
  -2   7   3    1.19    1.47
  -2   7   3    1.12    0.26
   2  -7   3    0.38    0.57
  -2  -7  -3    4.18    1.89
   2  -7   3    0.55    0.94
  -2  -7  -3    2.01    0.82
   2   7  -3    0.86    0.16
  -2  -7  -3    1.04    0.33
   2  -7   3   -0.24    1.23
  -2  -7  -3    1.16    0.93
   2   7  -3    0.66    0.29
   2  -7   3    1.92    0.77
  -2  -7  -3    2.15    1.28
  -2   7   3    1.18    0.64
  -2  -7  -3    1.02    0.27
   2  -7  -5    0.87    0.97
   2   7   5    2.65    1.65
  -2  -7   5    0.38    0.31
   2   7   5   -3.56    2.98
   2  -7  -5   -0.59    1.64
   2   7   5    0.17    0.38
   2   7   5    2.32    1.35
  -2   7  -5    1.15    0.55
   2  -7  -5    1.47    0.59
   2  -7  -5    1.34    0.55
   2  -7  -5   -0.67    2.36
   2  -7  -5    0.86    1.22
  -2   7  -5    1.18    0.43
   2   7   5    3.80    2.31
   2  -7   5    1.07    1.47
  -2   7   5   -0.26    2.67
   2  -7   5   -0.26    0.42
  -2   7   5    3.51    1.42
  -2   7   5    0.90    0.37
   2  -7   5   -0.51    1.71
   2  -7   5    0.33    1.14
   2  -7   5    1.28    2.07
  -2  -7  -5    0.31    0.44
  -2  -7  -5    0.27    0.47
  -2   7   5    0.60    1.07
   2  -7   5   -1.28    2.42
  -2  -7  -5    1.27    0.42
   2   7  -5    0.72    0.38
   2  -7   5    2.51    2.95
   2   7  -5    1.16    0.51
   2  -7   5   -0.20    1.20
   2  -7   5    1.08    1.01
  -2   7   5   -0.31    1.83
  -2   7  -7   -0.42    0.87
  -2   7  -7    0.53    0.70
   2  -7  -7    0.70    0.93
   2   7   7    0.62    0.67
   2  -7  -7   -0.17    0.83
  -2  -7  -7    1.08    0.83
  -2  -7  -7    0.17    0.64
   2  -7   7   -0.59    0.77
  -2   7   7    0.91    0.66
   2  -8   0   12.47    1.59
  -2   8   0    7.43    0.54
  -2   8   0    9.15    0.81
   2  -8   0    9.27    0.83
   2  -8   0    9.36    0.57
  -2  -8   0    8.56    0.89
   2   8   0    9.35    0.50
  -2  -8   0    9.46    0.45
   2  -8   0    8.30    0.90
  -2  -8   0    8.91    1.09
   2   8   0    9.25    0.48
  -2   8   0    9.15    1.16
  -2   8   0    7.31    0.89
  -2  -8   0    8.97    0.78
  -2   8   0    7.80    1.52
   2   8   0    8.89    0.74
   2  -8   0    9.15    1.14
   2   8   0    9.33    0.48
   2   8   0    7.80    1.01
   2   8   0    8.91    0.85
   2   8   0    8.34    1.41
  -2  -8   0    8.73    1.44
  -2  -8   2   14.11    0.75
   2  -8  -2   12.92    0.88
   2   8   2   12.30    1.17
   2   8   2   13.07    0.75
  -2  -8   2   14.36    0.63
   2   8   2   13.55    1.35
   2  -8  -2   14.31    0.73
  -2  -8   2   13.98    0.70
  -2  -8   2   13.11    0.84
  -2  -8   2   15.21    1.03
  -2   8  -2   17.14    1.30
   2   8   2   13.85    1.70
   2  -8  -2   14.65    0.86
   2   8   2   15.32    2.33
  -2   8  -2   12.81    2.05
  -2   8  -2   13.05    0.82
  -2   8  -2   15.59    1.58
  -2   8  -2   13.21    1.11
  -2   8   2   14.35    0.72
   2   8  -2   14.21    0.75
  -2   8   2   16.02    1.33
   2   8  -2   14.30    0.88
   2  -8   2   13.16    1.08
   2  -8   2   14.50    0.83
  -2   8   2   13.74    0.78
   2  -8   2   14.00    1.22
  -2  -8  -2   12.64    0.76
  -2   8   2   15.11    1.17
   2  -8   2    8.88    1.84
   2   8  -2   13.37    0.70
  -2   8   2   12.83    2.12
   2  -8   2   13.95    1.47
  -2   8   2   13.81    1.58
  -2  -8  -2   13.94    0.74
   2   8  -2   11.12    1.04
   2   8  -2   13.48    0.76
  -2   8  -4    0.50    0.42
   2   8   4    3.41    1.63
   2   8   4    2.21    1.22
   2   8   4    2.51    0.46
   2  -8  -4    2.12    0.83
   2  -8  -4    0.85    1.33
   2  -8  -4    1.39    0.56
   2   8   4    0.35    2.25
   2  -8  -4   -0.09    1.83
   2  -8  -4    1.71    0.54
   2  -8  -4    2.71    0.49
   2  -8  -4    1.66    0.35
   2  -8  -4    2.97    1.00
   2   8   4    0.21    0.87
   2  -8   4    2.65    0.89
   2  -8   4    2.54    1.90
  -2  -8  -4    1.27    1.00
   2  -8   4    1.90    0.46
  -2   8   4    1.64    2.14
  -2  -8  -4    4.65    2.68
   2  -8   4    2.23    1.34
  -2   8   4    1.85    0.91
   2  -8   4    1.76    0.98
  -2  -8  -4    1.76    0.50
  -2  -8  -4    1.40    0.37
  -2   8   4    2.10    1.12
  -2   8   4    2.16    0.41
   2   8  -4    2.14    0.49
  -2   8   4   -0.42    1.46
  -2  -8  -4    3.12    1.28
  -2  -8  -4    3.20    1.78
   2   8  -4    2.06    0.31
   2  -8  -6    4.00    0.88
   2   8   6    3.30    0.68
  -2   8  -6    5.16    0.76
  -2   8  -6    4.98    0.92
   2  -8  -6    5.51    0.93
  -2   8   6    4.07    0.68
   2  -8   6    3.49    0.75
  -2  -8  -6    3.90    0.75
  -2  -8  -6    3.50    0.71
  -2   9  -1    2.58    0.65
  -2  -9   1    2.99    0.59
   2   9   1    2.22    0.29
   2  -9  -1    2.84    0.43
   2   9   1    3.72    1.00
  -2   9  -1    3.53    1.07
  -2   9  -1    2.65    0.81
  -2   9  -1    3.56    0.64
   2  -9  -1    3.27    0.39
   2  -9  -1    2.25    0.63
   2   9   1    3.20    0.73
  -2  -9   1    2.67    0.18
   2   9   1    2.71    1.17
  -2  -9   1    2.38    0.44
  -2  -9   1    3.24    0.66
  -2  -9   1    2.15    0.79
   2  -9  -1    3.57    0.83
  -2   9  -1    2.59    0.39
   2  -9  -1    4.97    1.43
   2   9   1    2.93    0.62
   2  -9  -1    4.06    1.09
   2   9  -1    2.75    0.54
   2   9  -1    2.34    0.31
   2  -9   1    2.81    0.68
   2   9  -1    2.50    0.68
   2  -9   1    2.41    0.34
  -2   9   1    2.58    0.58
   2  -9   1    2.63    0.29
   2  -9   1    3.01    0.60
  -2  -9  -1    2.60    0.75
  -2   9   1    2.38    0.34
  -2  -9  -1    2.82    0.99
   2  -9   1    1.67    1.12
  -2  -9  -1    2.10    0.27
  -2  -9  -1    1.72    1.26
  -2   9   1    1.79    1.23
  -2  -9  -1    3.26    0.68
   2   9  -1    2.05    0.89
   2  -9   1    2.66    0.89
  -2   9   1    0.98    0.83
   2   9  -1    3.20    0.50
  -2  -9  -1    2.25    0.30
  -2   9   1    2.02    0.66
  -2   9   1    2.75    0.39
   2   9   3    9.63    2.25
  -2   9  -3    7.47    2.26
   2   9   3    5.35    0.49
  -2   9  -3    5.49    0.64
   2  -9  -3    6.97    1.32
   2  -9  -3    7.80    0.67
   2   9   3    7.24    1.17
  -2  -9   3    7.19    0.38
   2  -9  -3    6.28    1.59
   2  -9  -3    7.73    1.15
  -2   9  -3    6.21    1.45
  -2   9  -3    7.21    1.33
   2  -9  -3    5.62    0.62
   2  -9  -3    7.69    2.04
  -2   9  -3    5.79    1.64
   2  -9  -3    6.23    0.74
   2   9   3    7.73    1.37
   2   9   3    7.83    1.67
   2  -9   3    5.90    1.13
  -2   9   3    7.10    1.66
   2   9  -3    6.67    0.59
   2  -9   3    5.66    1.40
   2  -9   3    7.06    1.02
  -2   9   3    5.22    1.04
  -2  -9  -3    5.99    1.18
  -2  -9  -3    6.11    0.51
  -2  -9  -3   10.20    2.37
   2  -9   3    6.08    0.59
  -2  -9  -3    6.12    1.69
  -2  -9  -3    6.11    0.63
  -2   9   3    6.28    0.53
   2  -9   3    7.28    1.98
  -2   9   3    6.49    1.30
  -2   9   3    6.34    2.09
  -2  -9  -3    6.16    1.30
   2   9   5    6.90    2.71
  -2   9  -5    3.70    0.71
   2  -9  -5    3.41    2.65
   2  -9  -5    5.24    0.81
   2   9   5    6.43    3.64
   2   9   5    3.45    0.62
  -2  -9   5    3.97    0.52
  -2   9  -5    4.44    0.60
   2  -9  -5    5.22    0.47
   2  -9  -5    4.24    1.94
   2  -9  -5    4.86    0.89
   2  -9  -5    4.72    0.48
   2   9   5    7.10    2.00
   2  -9  -5    8.32    1.52
   2   9   5    7.31    1.71
   2  -9  -5    5.97    1.53
   2   9  -5    5.17    0.77
  -2  -9  -5    5.72    0.67
  -2  -9  -5    4.01    0.64
  -2   9   5    3.04    2.89
   2  -9   5    4.58    1.33
   2  -9   5    3.21    2.64
   2  -9   5    5.13    1.99
  -2  -9  -5    5.53    2.54
   2  -9   5    5.70    2.21
  -2   9   5    2.22    1.58
  -2   9   5    5.50    0.64
   2  -9   5    4.42    0.74
  -2   9   5    2.69    1.31
   2  -9   5    5.52    1.63
   2  -9   5    9.51    1.88
   2  -9   5    5.85    1.26
  -2  -9  -5    5.37    3.56
  -2   9   5    0.38    2.05
  -2  -9  -5    3.94    1.55
  -2  -9  -5    5.87    1.91
   2  -9   5    8.47    3.21
   2   9  -5    4.43    0.48
   2  10   0  341.47   13.09
   2  10   0  352.28   13.61
   2  10   0  339.69   13.04
  -2 -10   0  339.31   13.60
  -2 -10   0  346.35   13.91
   2  10   0  357.61   13.92
  -2  10   0  343.58   14.60
  -2 -10   0  339.61   13.05
   2  10   0  351.79   13.46
  -2  10   0  338.44   14.03
  -2  10   0  341.83   13.54
  -2 -10   0  338.56   13.45
  -2 -10   0  355.99   14.42
   2 -10   0  342.27   13.19
   2 -10   0  336.47   13.19
   2  10   0  358.66   14.41
   2  10   0  352.62   13.16
  -2  10   0  339.73   13.70
   2  10   0  348.87   13.07
  -2 -10   0  347.93   13.06
  -2  10   0  346.26   13.20
  -2 -10   2  447.94   17.24
   2  10   2  466.76   17.80
  -2  10  -2  469.00   18.70
   2 -10  -2  448.94   17.64
   2  10   2  467.26   18.25
  -2 -10   2  443.86   17.01
  -2  10  -2  471.89   18.03
   2 -10  -2  409.61   17.09
   2  10   2  468.59   17.56
   2  10   2  450.23   17.02
  -2  10  -2  431.99   17.11
   2 -10  -2  456.58   17.90
   2  10   2  454.40   18.92
   2 -10  -2  446.82   18.38
  -2  10  -2  467.69   17.44
  -2 -10   2  451.66   17.48
  -2 -10   2  445.07   17.09
   2 -10  -2  438.04   19.14
  -2  10  -2  461.80   17.61
   2 -10  -2  446.21   17.21
  -2  10   2  414.91   18.14
  -2 -10  -2  464.71   18.31
   2 -10   2  463.07   17.59
  -2 -10  -2  458.00   17.83
  -2  10   2  408.66   18.82
   2  10  -2  457.66   17.30
   2 -10   2  442.75   16.99
   2 -10   2  466.61   18.57
  -2  10   2  427.55   17.73
  -2  10   2  428.57   16.96
   2 -10   2  465.01   17.96
  -2 -10  -2  443.93   18.97
  -2  10   2  423.12   17.52
   2 -10   2  455.51   17.09
   2  10  -2  442.61   17.04
  -2 -10  -2  434.81   17.05
   2  10  -2  430.23   17.01
   2 -10   2  462.83   17.41
   2  10  -2  463.06   17.60
  -2 -10  -2  439.04   16.99
  -2 -10  -2  443.51   17.56
   2  10  -2  444.09   17.12
  -2  10   2  432.75   17.06
   2 -10  -4  179.00    7.31
   2 -10  -4  166.68    7.10
  -2  10  -4  184.38    9.45
  -2  10  -4  175.17    7.24
  -2  10  -4  184.07    7.66
   2 -10  -4  183.45    9.23
   2  10   4  179.59    8.85
   2  10   4  187.66    8.25
  -2  10  -4  190.33    8.49
   2  10   4  178.88    7.14
   2 -10  -4  177.06    8.40
   2  10   4  178.41    9.82
   2 -10  -4  179.21    7.23
  -2  10  -4  187.96    7.93
   2 -10  -4  184.54    7.66
  -2  10  -4  169.80    7.15
   2  10   4  181.36    7.89
  -2 -10   4  174.03    6.94
   2 -10  -4  188.32    7.95
  -2 -10  -4  191.31    8.35
   2  10  -4  181.39    7.08
  -2 -10  -4  182.01    7.98
   2 -10   4  177.14    9.05
  -2 -10  -4  182.11    7.14
   2 -10   4  182.43    7.84
  -2 -10  -4  178.12    9.95
   2 -10   4  178.35    8.27
  -2  10   4  180.98    8.77
   2 -10   4  184.58    7.61
  -2  10   4  182.78    7.08
  -2  10   4  184.36    9.80
  -2  10   4  176.79    7.81
  -2 -10  -4  187.98    9.03
  -2  10   4  179.32    8.14
  -2 -10  -4  166.54    7.19
  -2  10  -6  100.42    4.38
   2  10   6   93.51    4.22
   2 -10  -6  104.69    4.40
   2 -10  -6  104.69    4.46
  -2  10  -6  100.62    4.15
  -2 -10  -6   98.85    4.33
  -2  10   6   94.61    4.12
   2 -10   6   90.53    4.23
  -2 -10  -6  101.86    4.26
  -2 -10  -6   98.74    4.26
  -2  11  -1    3.16    0.47
  -2 -11   1    3.60    0.74
   2  11   1    3.20    0.35
  -2 -11   1    3.58    0.25
  -2 -11   1    4.18    0.87
   2  11   1    4.04    0.91
   2  11   1    3.64    1.61
  -2 -11   1    4.23    1.12
  -2  11  -1    4.07    1.50
   2 -11  -1    4.98    1.31
   2  11   1    3.61    0.77
   2 -11  -1    3.45    0.80
   2 -11  -1    3.36    0.45
  -2  11  -1    3.52    0.87
   2 -11  -1    4.69    1.01
   2 -11  -1    3.94    0.50
   2 -11  -1    2.65    1.70
  -2  11  -1    3.09    1.12
  -2  11  -1    2.42    0.70
   2  11   1    4.58    1.22
  -2 -11   1    3.11    0.61
   2 -11   1    3.10    0.69
   2 -11   1    3.95    0.39
  -2  11   1    2.18    1.48
  -2  11   1    3.98    1.20
  -2 -11  -1    4.83    1.19
   2  11  -1    3.81    0.21
  -2  11   1    3.61    0.45
   2  11  -1    4.13    1.26
   2  11  -1    3.60    0.26
  -2 -11  -1    4.00    0.92
   2  11  -1    3.37    0.94
   2  11  -1    3.68    0.42
  -2  11   1    4.00    0.43
  -2 -11  -1    3.46    0.39
   2 -11   1    3.14    1.02
  -2 -11  -1    3.51    0.34
  -2 -11  -1    4.85    1.60
   2  11  -1    4.12    0.66
   2 -11   1    3.55    0.84
  -2 -11  -1    3.18    0.76
   2  11  -1    5.21    0.82
  -2  11   1    3.25    0.72
  -2  11   1    2.91    0.86
   2 -11   1    0.84    1.05
  -2  11  -3   14.91    1.54
  -2 -11   3   11.18    0.68
  -2  11  -3   11.81    1.92
   2  11   3    8.85    2.74
   2  11   3   15.64    1.51
  -2 -11   3   11.23    0.97
   2 -11  -3   12.76    0.96
   2  11   3    9.50    0.78
  -2 -11   3   12.24    0.63
  -2 -11   3   12.09    0.79
   2 -11  -3   10.74    0.90
  -2  11  -3   14.02    1.28
   2  11   3   11.51    1.70
   2  11   3   12.81    2.26
  -2  11  -3   10.32    0.85
  -2  11  -3   17.72    2.83
   2  11  -3   11.23    0.61
  -2  11   3   12.24    0.66
  -2 -11  -3   15.11    3.03
   2 -11   3   12.71    2.54
  -2 -11  -3   17.50    1.89
   2 -11   3   12.24    0.85
   2  11  -3    9.19    0.95
  -2 -11  -3   14.87    2.38
   2 -11   3   15.38    1.92
   2  11  -3   11.05    0.65
  -2  11   3   12.15    0.78
   2  11  -3   10.67    0.75
   2 -11   3   12.72    1.47
  -2  11   3   12.35    2.35
  -2  11   3   14.05    1.58
   2  11  -3   13.46    0.84
  -2  11   3    8.40    2.63
  -2 -11  -3   12.50    0.79
   2 -11   3   12.55    1.25
  -2  11   3   13.47    1.86
  -2 -11  -3   12.32    0.84
  -2 -11  -3   14.88    1.61
   2 -11  -5    6.53    2.21
   2  11   5   14.23    2.21
   2 -11  -5   10.75    1.03
   2  11   5    8.76    0.83
   2 -11  -5   11.40    1.05
   2  11   5    8.42    3.07
   2 -11  -5   12.13    2.10
   2  11   5   12.70    2.37
   2  11   5    6.19    4.23
   2 -11  -5    7.17    2.99
   2 -11  -5    9.31    1.75
  -2  11  -5   11.99    1.07
  -2  11  -5   11.13    0.86
  -2  11   5   11.00    3.82
  -2 -11  -5   13.27    3.19
  -2 -11  -5   11.42    2.34
  -2 -11  -5   10.51    0.87
   2 -11   5   11.73    3.24
  -2  11   5    8.98    2.73
   2 -11   5   11.67    0.96
   2 -11   5   13.28    2.67
  -2 -11  -5   10.31    1.97
  -2  11   5   13.08    2.29
  -2  11   5    9.95    0.87
  -2  11   5   11.54    2.12
   2 -11   5   14.57    2.24
   2 -11   5   10.49    1.76
  -2 -11  -5   16.02    4.21
   2  11  -5   10.34    0.98
   2 -11   5   15.22    2.01
  -2 -11  -5    9.49    0.90
   2 -11   5   13.41    2.54
   2 -11   5   11.85    3.43
   2 -11   5   14.19    2.37
   2  12   0    6.73    0.51
  -2 -12   0    7.53    0.91
  -2  12   0    6.85    1.42
   2  12   0    7.72    0.55
   2  12   0    7.47    0.88
  -2  12   0    8.05    1.20
   2  12   0    7.18    1.05
   2 -12   0    7.04    0.57
  -2 -12   0    7.04    0.45
  -2 -12   0    7.33    1.68
   2  12   0    8.65    1.77
   2 -12   0    6.13    0.91
  -2  12   0    7.19    0.98
   2  12   0    6.43    1.32
   2 -12   0    7.99    1.43
   2 -12   0    7.72    1.67
   2 -12   0    6.46    0.56
  -2 -12   0    5.37    1.01
  -2  12   0    9.09    1.89
  -2 -12   0    6.70    0.41
   2  12   0    6.28    0.46
  -2 -12   0    5.68    1.27
   2 -12   0    7.52    1.11
  -2  12   0    7.02    0.60
  -2  12  -2   75.52    3.21
  -2  12  -2   73.34    3.50
   2 -12  -2   74.73    3.29
  -2 -12   2   72.13    3.29
   2 -12  -2   72.77    4.03
   2  12   2   78.38    5.13
   2 -12  -2   72.08    3.76
   2  12   2   78.74    3.68
   2  12   2   74.15    4.32
  -2  12  -2   73.34    3.69
   2 -12  -2   81.89    5.53
  -2 -12   2   77.69    3.95
  -2  12  -2   75.15    4.13
  -2 -12   2   73.17    3.18
  -2  12  -2   70.58    4.76
   2 -12  -2   70.25    3.15
   2  12   2   70.71    3.06
   2 -12  -2   87.16    4.74
   2  12   2   73.02    3.86
  -2 -12   2   73.38    3.53
  -2 -12  -2   75.83    3.95
  -2  12   2   73.14    4.43
  -2  12   2   78.27    3.15
   2 -12   2   78.29    4.73
   2 -12   2   77.36    4.10
  -2 -12  -2   75.35    3.05
  -2 -12  -2   75.23    3.13
   2 -12   2   74.19    3.14
   2  12  -2   71.80    3.94
  -2 -12  -2   75.01    5.09
   2  12  -2   69.47    3.29
   2  12  -2   69.76    3.18
   2  12  -2   76.61    3.12
  -2  12   2   65.17    5.10
  -2  12   2   73.26    3.06
  -2  12   2   77.12    3.73
   2 -12   2   74.88    3.05
  -2  12   2   74.42    3.94
  -2 -12  -2   77.46    3.73
   2  12  -2   71.29    3.53
  -2 -12  -2   75.12    4.41
   2 -12   2   78.22    3.73
   2 -12   2   77.38    3.52
   2 -12  -4   41.88    2.66
  -2  12  -4   35.89    2.69
   2  12   4   40.27    5.30
   2 -12  -4   37.59    2.13
   2 -12  -4   44.12    3.02
   2 -12  -4   39.98    3.56
   2 -12  -4   38.73    2.02
   2  12   4   39.01    3.19
  -2  12  -4   39.96    1.86
  -2  12  -4   40.63    2.06
  -2 -12   4   43.39    1.59
  -2  12  -4   40.24    3.34
  -2 -12   4   41.14    1.67
   2  12   4   39.63    3.92
   2  12   4   41.76    2.82
  -2  12  -4   40.72    4.39
   2  12   4   41.50    1.94
  -2  12  -4   37.67    2.44
   2 -12  -4   34.30    4.49
   2 -12   4   40.91    2.77
  -2 -12  -4   45.59    4.06
  -2  12   4   44.44    5.23
   2 -12   4   38.68    3.23
   2 -12   4   41.94    2.51
  -2  12   4   40.52    4.04
  -2 -12  -4   39.86    2.90
  -2 -12  -4   37.85    1.98
  -2  12   4   41.81    3.27
   2 -12   4   45.76    4.18
   2 -12   4   42.30    1.99
  -2 -12  -4   36.69    5.11
   2  12  -4   38.24    1.93
  -2  12   4   41.61    1.90
  -2 -12  -4   40.57    1.91
  -2 -12  -4   43.43    3.33
  -2  12   4   42.78    2.90
   2 -12  -6   41.39    2.97
   2 -12  -6   43.95    2.44
  -2  12  -6   45.67    2.19
   2  12   6   44.76    2.27
  -2  12  -6   40.58    2.38
  -2 -12  -6   43.48    2.38
   2 -12   6   50.76    2.37
  -2  12   6   48.53    2.24
  -2 -12  -6   42.19    2.26
   2 -13  -1    4.88    0.97
  -2  13  -1    2.86    0.51
   2 -13  -1    2.02    0.95
  -2  13  -1    1.92    1.13
   2 -13  -1    2.97    0.57
  -2 -13   1    3.51    0.28
  -2  13  -1    3.30    0.76
  -2 -13   1    2.20    1.34
  -2 -13   1    2.91    0.24
  -2  13  -1    4.26    0.98
   2  13   1    3.04    0.93
   2  13   1    3.50    0.39
  -2 -13   1    1.14    0.96
   2 -13  -1    4.27    1.44
   2  13   1    4.81    1.74
  -2  13  -1    4.19    1.68
   2 -13  -1    2.53    1.80
   2  13   1    2.20    1.25
  -2 -13   1    2.50    0.77
   2 -13  -1    3.86    0.52
  -2 -13   1    2.93    0.68
   2  13   1    3.60    0.81
  -2  13   1    2.57    1.04
  -2  13   1    1.28    0.77
  -2 -13  -1    3.04    0.42
   2  13  -1    2.88    0.27
  -2 -13  -1    4.65    1.86
  -2  13   1    2.71    1.38
   2  13  -1    3.12    0.46
   2 -13   1    2.02    1.06
   2  13  -1    3.19    0.28
   2  13  -1    2.50    0.25
  -2 -13  -1    2.22    0.78
   2 -13   1    1.90    0.84
  -2  13   1   -0.05    1.77
   2 -13   1    3.39    1.54
   2 -13   1    3.11    0.78
  -2  13   1    2.87    0.43
  -2 -13  -1    3.73    1.06
  -2 -13  -1    2.72    1.29
   2 -13   1    2.84    0.38
  -2 -13  -1    2.42    0.32
  -2  13   1    3.84    0.53
   2  13   3   12.80    2.56
   2  13   3   11.25    0.82
  -2 -13   3   12.49    1.59
  -2 -13   3   12.52    0.86
   2  13   3   12.24    1.93
  -2  13  -3   11.30    0.98
  -2  13  -3   13.61    1.40
   2 -13  -3   13.22    0.94
   2 -13  -3    8.53    2.89
  -2  13  -3    9.12    2.36
   2 -13  -3   17.12    2.04
  -2  13  -3   15.40    1.65
   2 -13  -3   15.91    1.78
  -2 -13   3   14.00    1.22
   2  13   3   20.43    3.78
   2 -13  -3   11.91    1.02
  -2  13  -3   16.48    2.20
   2 -13  -3   13.15    2.47
   2  13   3   12.06    1.65
  -2 -13   3   13.81    0.99
  -2 -13  -3   12.80    0.83
  -2 -13  -3   14.82    3.17
   2  13  -3   12.83    0.89
   2 -13   3   16.36    1.64
  -2  13   3   15.19    2.69
   2  13  -3   12.69    0.80
   2  13  -3   13.12    1.10
  -2 -13  -3   15.53    2.66
  -2 -13  -3   13.22    0.93
   2  13  -3   12.48    1.43
  -2 -13  -3   15.22    1.73
   2  13  -3   14.79    0.94
   2 -13   3   16.41    1.44
   2 -13   3   14.47    1.98
  -2  13   3   15.56    1.71
  -2  13   3   11.80    0.87
  -2  13   3   12.34    0.74
  -2 -13  -3   17.34    2.13
  -2  13   3   12.92    3.28
   2 -13   3   14.07    2.75
  -2  13   3   13.25    2.02
   2 -13   3   12.44    0.89
   2 -13  -5   14.20    1.27
   2  13   5   13.51    4.71
  -2  13  -5   10.49    1.12
   2  13   5   11.95    2.56
   2 -13  -5   11.29    1.11
   2  13   5   14.19    2.52
   2  13   5   11.21    3.39
  -2  13  -5   12.06    0.88
   2  13   5   11.27    0.92
  -2 -13  -5   10.65    1.01
  -2 -13  -5   11.86    0.96
  -2  13   5   16.28    3.56
  -2 -13  -5   13.84    2.47
  -2 -13  -5    9.88    4.60
  -2  13   5   11.60    0.90
   2 -13   5    9.85    0.98
  -2 -13  -5    8.16    3.20
   2  13  -5   12.94    1.16
  -2 -13  -5   11.74    2.52
  -2  13   5   16.59    7.08
  -2  13   5   11.29    3.86
  -2 -14   0    8.07    1.76
  -2 -14   0    5.70    0.40
   2 -14   0    4.42    0.54
  -2  14   0    6.50    2.13
   2  14   0    4.53    0.48
   2  14   0    6.82    1.89
   2 -14   0    6.01    1.93
   2 -14   0    5.13    0.53
   2  14   0    4.59    0.44
   2  14   0    6.44    1.21
   2  14   0    6.35    0.98
   2 -14   0    5.85    1.56
  -2 -14   0    5.75    0.47
  -2  14   0    4.90    1.16
   2 -14   0    4.18    0.97
  -2  14   0    5.84    1.05
  -2  14   0    4.85    1.46
   2 -14   0    5.56    1.16
  -2 -14   0    6.95    2.19
   2  14   0    4.99    1.36
  -2 -14   0    5.73    1.09
  -2 -14   0    4.61    1.21
  -2  14   0    5.26    0.61
   2 -14  -2    3.16    1.74
   2  14   2   -0.70    1.97
   2 -14  -2    4.90    0.63
  -2  14  -2    5.55    0.64
  -2  14  -2    5.83    1.57
   2 -14  -2    5.44    1.23
   2 -14  -2    6.05    2.37
  -2  14  -2    5.05    2.06
  -2  14  -2    4.79    0.96
   2 -14  -2    8.05    1.56
   2  14   2    4.35    1.23
  -2  14  -2    4.20    1.16
   2  14   2    5.53    1.74
   2  14   2    4.42    0.47
  -2 -14   2    4.40    0.88
  -2 -14   2    3.92    1.10
  -2 -14   2    3.94    1.53
   2  14   2    4.56    1.02
  -2 -14   2    4.84    0.82
   2 -14  -2    4.58    0.60
  -2  14   2    4.79    2.33
  -2  14   2    5.87    1.21
  -2 -14  -2    6.60    1.86
   2 -14   2    4.32    0.50
  -2 -14  -2    5.18    1.19
  -2  14   2    4.74    0.54
  -2  14   2    6.32    1.40
  -2  14   2    4.95    0.58
  -2 -14  -2    4.76    0.55
   2  14  -2    4.33    1.03
   2  14  -2    4.57    0.61
   2  14  -2    4.55    0.73
   2  14  -2    5.04    0.88
  -2  14   2    2.59    1.51
  -2 -14  -2    4.54    1.39
  -2 -14  -2    3.82    2.19
   2  14  -2    4.31    1.43
   2  14   4    8.10    1.96
   2 -14  -4   -4.54    3.34
  -2  14  -4    7.90    2.89
   2  14   4    8.63    1.78
   2 -14  -4    6.56    0.83
   2 -14  -4    0.65    1.75
  -2  14  -4    5.75    1.54
  -2  14  -4    6.82    0.89
   2  14   4    8.32    0.73
  -2  14  -4    8.97    1.44
   2 -14  -4    1.44    2.60
   2  14   4    8.40    3.50
   2  14   4    8.55    2.60
  -2  14  -4   11.33    2.34
  -2  14  -4    5.72    0.71
   2 -14  -4    7.43    1.01
  -2 -14  -4    8.68    0.83
  -2  14   4    3.27    3.55
  -2  14   4   11.44    2.16
  -2 -14  -4    8.61    2.00
   2 -14   4   11.23    2.76
   2 -14   4    8.13    1.53
   2  14  -4    7.95    0.94
  -2 -14  -4   10.22    2.79
   2 -14   4   12.97    2.44
  -2 -14  -4    8.21    0.73
   2 -14   4    8.87    1.49
  -2  14   4    7.70    0.79
   2 -14   4    6.61    0.77
  -2 -14  -4    9.61    1.80
  -2  14   4    7.66    2.70
  -2 -14  -4    3.56    3.42
  -2  14   4    8.00    1.64
  -2  14  -6   13.21    1.40
   2  14   6   12.46    1.11
   2 -14  -6   11.54    1.45
   2 -14  -6   11.30    1.28
  -2  14  -6   12.16    1.09
  -2  14   6   14.05    1.17
  -2 -14  -6   13.13    1.31
  -2 -14  -6    9.42    1.08
   2 -14   6   13.35    1.19
  -2  15  -1    0.51    1.25
  -2  15  -1    1.02    0.47
  -2  15  -1    1.26    0.79
   2 -15  -1    1.34    2.28
   2  15   1    2.00    1.34
  -2 -15   1    0.38    0.63
   2 -15  -1    1.84    1.17
  -2  15  -1    2.85    1.02
  -2 -15   1    1.57    1.14
   2  15   1    1.21    0.40
  -2 -15   1    1.11    1.57
  -2 -15   1    1.49    0.27
   2  15   1    3.19    2.13
  -2  15  -1    4.54    2.06
  -2 -15   1    3.06    0.90
   2  15   1    1.48    0.94
   2  15   1    1.36    0.33
   2  15   1    2.48    0.82
   2 -15  -1    1.90    0.43
   2 -15  -1    0.88    1.58
  -2 -15   1    1.47    0.26
   2 -15  -1    0.87    0.45
   2 -15  -1    2.69    1.00
   2  15  -1    2.11    0.28
   2  15  -1    2.04    0.29
   2 -15   1    2.39    0.79
  -2 -15  -1    0.44    1.94
  -2 -15  -1    1.57    0.31
  -2 -15  -1    2.50    0.95
   2  15  -1    0.99    1.58
  -2  15   1    1.55    0.44
   2 -15   1    1.40    1.18
   2  15  -1    1.83    1.17
   2 -15   1    1.40    0.92
  -2  15   1    0.28    0.82
  -2 -15  -1    3.28    1.09
   2 -15   1    1.65    1.48
   2  15  -1    1.72    0.28
   2 -15   1    1.30    0.40
   2  15  -1    3.90    0.96
  -2 -15  -1    1.50    0.41
  -2  15   1    1.94    1.04
  -2 -15  -1    2.70    1.46
  -2  15   1    1.32    0.35
   2  15  -1    1.83    0.46
  -2  15   1    0.00    1.26
  -2  15   1   -0.33    1.94
   2  15  -1    1.05    0.74
   2 -15  -3    4.85    0.78
  -2 -15   3    3.34    1.44
  -2  15  -3    8.35    2.65
  -2 -15   3    5.80    0.92
   2  15   3    6.10    0.62
   2  15   3    8.06    1.58
   2  15   3    6.83    1.59
   2 -15  -3    7.39    1.60
  -2  15  -3    6.89    0.84
  -2 -15   3    8.72    1.41
   2  15   3    7.21    2.30
  -2  15  -3    6.08    1.79
   2  15   3   12.88    3.28
   2 -15  -3    6.11    0.76
   2 -15  -3    4.05    3.15
   2 -15  -3    8.52    1.91
   2 -15  -3    8.95    2.50
  -2  15  -3    9.27    1.37
  -2  15  -3    7.10    1.42
  -2 -15   3    5.90    0.87
   2 -15   3    2.37    2.12
  -2  15   3    6.29    1.37
   2  15  -3    6.86    0.82
   2  15  -3    5.57    1.03
  -2  15   3    6.84    0.59
   2 -15   3    7.44    1.25
  -2 -15  -3    7.64    2.39
   2  15  -3    6.09    0.76
  -2 -15  -3   10.00    3.07
  -2 -15  -3    6.37    0.70
  -2 -15  -3    5.81    0.60
  -2  15   3    7.51    2.35
  -2  15   3    7.56    3.17
   2 -15   3    6.47    0.76
  -2 -15  -3    7.94    1.61
  -2 -15  -3    7.40    1.81
  -2  15   3    6.52    0.71
   2 -15   3    6.43    1.33
   2 -15   3    6.97    1.76
   2  15  -3    7.15    0.92
   2  15  -3    4.91    1.39
  -2  15   3    8.22    1.76
   2 -15   3    6.19    0.58
   2 -15  -5    6.23    1.13
  -2  15  -5    6.94    0.80
   2  15   5    5.38    0.74
   2 -15  -5    6.85    0.93
  -2  15  -5    5.86    1.03
   2  15  -5    5.21    0.99
  -2 -15  -5    6.92    0.96
  -2 -15  -5    6.48    0.76
   2 -15   5    5.15    0.90
  -2  15   5    6.82    0.81
   2 -16   0  297.42   14.27
  -2 -16   0  312.70   14.21
   2  16   0  320.62   12.57
  -2  16   0  311.52   12.13
  -2 -16   0  314.77   12.88
  -2 -16   0  305.17   12.59
   2  16   0  305.47   12.02
  -2  16   0  322.36   13.61
  -2  16   0  312.39   12.70
   2  16   0  318.18   12.81
   2  16   0  308.51   14.05
   2 -16   0  307.90   13.47
  -2 -16   0  309.76   13.38
   2  16   0  319.91   13.33
   2 -16   0  299.64   12.63
  -2  16   0  325.97   13.03
  -2  16   0  310.97   14.46
  -2 -16   0  321.50   11.88
  -2 -16   0  323.72   11.94
   2 -16   0  313.38   12.12
   2 -16   0  304.97   12.92
   2  16   0  301.05   12.22
  -2  16  -2  144.02    7.83
  -2 -16   2  135.98    7.06
  -2  16  -2  139.32    6.91
  -2 -16   2  136.17    6.43
  -2 -16   2  136.21    6.03
   2 -16  -2  138.39    6.69
  -2 -16   2  135.24    5.83
   2 -16  -2  132.54    6.32
  -2  16  -2  140.12    6.13
  -2  16  -2  140.96    6.40
  -2  16  -2  138.20    5.68
   2  16   2  138.49    6.54
   2 -16  -2  141.58    5.62
   2  16   2  135.78    7.09
   2 -16  -2  154.91    8.63
   2  16   2  129.65    6.17
   2 -16  -2  138.36    5.74
   2 -16  -2  151.56    7.48
   2  16   2  130.46    8.03
   2  16   2  136.09    5.50
   2  16  -2  138.38    5.80
  -2 -16  -2  140.75    5.48
   2  16  -2  138.60    5.97
   2  16  -2  133.93    5.59
  -2  16   2  140.05    7.33
  -2 -16  -2  141.71    8.47
   2 -16   2  140.65    6.89
   2  16  -2  132.10    6.30
  -2 -16  -2  145.05    6.42
   2 -16   2  140.57    7.75
   2 -16   2  132.31    6.30
   2  16  -2  133.90    6.95
  -2  16   2  136.70    6.63
  -2  16   2  137.32    5.53
  -2  16   2  128.93    5.61
  -2  16   2  133.68    6.31
  -2 -16  -2  143.14    7.41
  -2 -16  -2  142.35    6.75
  -2 -16  -2  142.11    5.63
   2 -16   2  139.29    6.09
  -2  16   2  129.92    8.34
  -2 -16   4  120.72    5.20
   2  16   4  122.71    5.27
   2  16   4  126.05    6.73
  -2  16  -4  136.37    7.09
   2 -16  -4  135.56    8.98
  -2  16  -4  136.01    8.39
   2 -16  -4  129.11    5.56
   2  16   4  130.68    9.09
   2 -16  -4  129.81    6.35
   2 -16  -4  140.25    6.87
  -2  16  -4  130.39    5.18
   2 -16  -4  140.99    7.73
  -2  16  -4  132.65    5.46
  -2  16  -4  131.02    5.97
  -2 -16   4  118.34    5.69
  -2  16  -4  127.71    6.29
   2  16   4  126.90    6.30
  -2 -16   4  121.11    5.38
   2 -16  -4  125.12    5.38
   2  16   4  138.53    7.67
  -2 -16   4  124.51    5.12
  -2  16   4  140.09    7.81
  -2 -16  -4  124.76    6.89
   2  16  -4  127.24    5.34
  -2  16   4  132.19    6.38
  -2 -16  -4  108.05    9.13
  -2 -16  -4  135.41    6.51
  -2 -16  -4  130.96    5.30
  -2  16   4  133.84    6.86
  -2 -16  -4  133.70    5.48
   2  16  -4  126.28    5.16
   2 -16   4  132.84    5.91
   2  16  -4  127.05    5.09
   2 -16   4  129.19    6.18
   2 -16   4  130.06    5.38
  -2  16   4  129.88    5.31
  -2 -16  -4  128.83    7.83
   2  16  -4  124.21    5.65
   2  16  -4  133.18    5.32
   2 -16   4  129.85    5.19
  -2  16   4  129.04    9.37
   2 -16   4  121.28    7.63
   2 -16   4  127.97    6.77
  -2  16  -6   66.15    2.99
  -2  16  -6   66.67    3.32
   2 -16  -6   63.47    3.21
   2 -16  -6   71.71    3.55
   2  16   6   62.01    3.08
  -2 -16  -6   68.45    3.37
  -2  16   6   65.98    3.11
   2 -16   6   63.98    3.15
  -2 -16  -6   67.19    3.16
  -2  17  -1    0.75    1.58
   2 -17  -1    0.85    1.05
  -2 -17   1    2.53    1.10
  -2 -17   1    4.46    2.06
  -2 -17   1    1.25    0.29
  -2  17  -1   -0.01    2.07
   2 -17  -1    0.43    0.41
   2 -17  -1   -3.79    1.66
  -2  17  -1   -0.43    1.10
   2  17   1   -0.51    2.18
  -2 -17   1    2.83    1.43
   2  17   1    0.39    0.29
   2  17   1    0.99    0.36
  -2 -17   1    0.95    0.25
   2  17   1    0.90    1.44
   2  17   1   -0.85    0.85
  -2  17  -1    0.64    0.89
  -2  17  -1    0.09    0.43
   2 -17  -1   -1.09    1.28
   2 -17  -1    1.12    0.46
   2 -17  -1   -1.75    2.45
  -2 -17   1   -0.27    0.81
   2  17   1    0.59    1.09
   2  17  -1    2.75    1.93
  -2  17   1    1.36    0.40
   2  17  -1    0.72    0.91
   2  17  -1    0.27    1.33
   2 -17   1    0.24    2.29
  -2  17   1    0.91    1.21
  -2  17   1    1.25    1.02
  -2 -17  -1    0.10    1.84
   2 -17   1    1.23    0.89
  -2  17   1    0.15    2.31
  -2 -17  -1   -1.00    2.47
   2 -17   1    1.54    1.13
   2  17  -1    1.00    0.25
  -2  17   1    0.75    1.72
  -2 -17  -1    1.90    1.53
   2  17  -1    1.23    0.78
  -2  17   1    0.55    0.44
   2  17  -1    0.69    0.29
  -2 -17  -1    1.25    1.26
  -2 -17  -1    0.95    0.41
   2 -17   1    2.91    1.68
   2  17  -1    0.33    0.34
  -2 -17  -1    0.81    0.31
   2  17  -1    1.28    0.29
   2 -17  -3    2.15    1.72
  -2  17  -3   -1.44    1.17
   2  17   3    2.02    1.29
   2 -17  -3   -3.78    3.10
   2  17   3    2.20    3.29
  -2 -17   3    1.24    0.74
  -2  17  -3    1.35    0.56
   2 -17  -3    2.37    1.35
   2 -17  -3    5.44    2.46
  -2 -17   3    0.73    0.90
  -2 -17   3    2.30    1.75
  -2  17  -3   -0.62    2.44
   2  17   3    4.11    1.66
  -2 -17   3    2.25    1.23
   2  17   3    2.60    2.28
   2 -17  -3    2.89    0.59
  -2  17  -3    1.35    0.99
   2 -17  -3    1.44    0.65
  -2  17  -3    5.31    1.91
   2  17   3    3.13    0.52
  -2  17   3    2.30    0.47
  -2 -17  -3    3.05    1.50
  -2 -17  -3    1.80    1.82
  -2  17   3    5.75    1.74
  -2 -17  -3    1.66    0.45
   2 -17   3    1.70    0.52
  -2  17   3    1.59    0.46
  -2  17   3    1.09    2.13
   2  17  -3    1.99    0.66
   2  17  -3    0.99    1.49
   2  17  -3    2.97    0.83
   2 -17   3    2.18    0.47
  -2  17   3    0.18    3.20
  -2 -17  -3    0.99    2.48
  -2 -17  -3    2.60    0.65
   2  17  -3    1.86    0.59
  -2 -17  -3    0.10    3.12
   2  17  -3    1.32    1.04
  -2  17   3    3.03    1.29
   2  17   5    0.39    0.49
  -2  17  -5    0.82    0.55
  -2  17  -5    0.25    0.78
   2 -17  -5    1.79    0.96
   2 -17  -5    1.52    0.66
  -2 -17  -5    2.41    0.72
   2 -17   5    0.90    0.48
  -2 -17  -5    0.93    0.58
   2  17  -5    1.21    0.73
   2 -17   5    1.00    0.67
  -2  17   5    2.28    0.67
   2  18   0   90.65    4.81
   2 -18   0   92.77    4.68
   2 -18   0   99.66    6.60
   2 -18   0   98.45    5.65
  -2  18   0   90.35    4.98
   2  18   0   99.22    5.48
  -2  18   0   93.98    5.65
   2  18   0   92.02    4.01
   2 -18   0   94.66    5.02
  -2  18   0   89.16    6.59
   2 -18   0   93.03    3.99
  -2 -18   0  100.16    3.81
   2  18   0   95.37    4.57
  -2 -18   0   96.84    3.87
   2  18   0   98.59    3.87
  -2 -18   0   93.92    6.57
  -2 -18   0   96.50    4.70
  -2  18   0   91.89    4.06
  -2  18   0   94.94    4.71
   2 -18   0  100.09    4.08
   2  18   0   97.51    6.42
  -2 -18   0   91.86    5.57
  -2 -18   0   99.54    5.03
  -2 -18   2   25.08    2.57
  -2  18  -2   22.57    2.03
   2 -18  -2   26.07    4.44
  -2 -18   2   20.70    2.05
   2 -18  -2   23.95    1.51
   2  18   2   22.72    1.23
  -2  18  -2   23.91    2.94
  -2  18  -2   20.38    3.64
  -2 -18   2   23.78    1.84
   2 -18  -2   21.81    1.30
  -2  18  -2   20.75    1.38
   2  18   2   25.33    4.07
   2  18   2   24.66    3.22
   2  18   2   23.57    2.18
   2 -18  -2   25.73    3.48
   2 -18  -2   24.13    2.71
  -2 -18   2   29.18    3.53
  -2  18  -2   20.21    2.30
   2  18   2   27.93    2.62
   2 -18  -2   24.47    2.32
   2  18  -2   24.65    1.38
  -2  18   2   23.56    1.32
  -2 -18  -2   21.54    1.36
  -2 -18  -2   21.38    2.81
   2 -18   2   23.86    2.01
  -2 -18  -2   22.82    1.22
   2  18  -2   22.02    2.36
   2  18  -2   23.14    1.67
  -2  18   2   27.45    4.77
  -2 -18  -2   23.24    3.64
  -2  18   2   25.97    2.70
   2 -18   2   24.17    2.87
   2  18  -2   19.48    1.85
  -2 -18  -2   26.21    2.47
   2 -18   2   23.63    1.25
   2 -18   2   25.51    3.81
  -2  18   2   24.73    2.34
   2  18  -2   23.04    3.23
  -2 -18  -2   21.27    4.21
  -2  18   2   19.93    1.25
  -2  18   2   19.25    3.37
   2 -18   2   24.80    2.30
   2  18   4   40.10    3.36
  -2  18  -4   42.86    5.63
   2  18   4   43.00    2.03
   2 -18  -4   38.84    2.27
  -2  18  -4   38.76    4.17
   2  18   4   41.75    3.96
  -2  18  -4   41.14    2.95
  -2 -18   4   37.71    2.11
  -2  18  -4   41.24    2.19
   2 -18  -4   42.93    2.14
  -2 -18   4   42.01    2.75
  -2  18  -4   40.82    3.36
   2  18   4   38.97    6.80
   2  18   4   35.29    4.77
   2 -18   4   44.54    5.34
  -2 -18  -4   36.90    4.69
   2  18  -4   39.32    1.97
   2 -18   4   39.87    4.03
  -2 -18  -4   41.24    2.01
  -2  18   4   36.89    4.64
  -2 -18  -4   37.50    2.14
  -2  18   4   34.42    3.72
  -2 -18  -4   43.71    8.35
  -2 -18  -4   37.54    6.04
   2  18  -4   40.59    2.05
  -2  18   4   39.54    3.31
   2  18  -4   38.50    2.10
   2  18  -4   35.11    2.39
  -2  18   4   43.70    6.65
   2 -18   4   41.43    2.13
   2 -18   4   40.00    2.91
  -2  18   4   43.14    2.08
   2 -18   4   42.93    1.91
  -2 -18  -4   38.17    4.52
   2  18  -4   34.52    3.00
   2 -18   4   45.34    3.33
  -2  19  -1    1.89    1.42
  -2 -19   1    3.12    1.34
   2  19   1    2.32    1.51
   2 -19  -1    2.65    1.28
  -2 -19   1    2.97    0.39
  -2 -19   1   -0.53    1.73
   2  19   1    1.53    1.17
   2 -19  -1    2.36    1.48
   2  19   1    2.90    2.89
  -2  19  -1    3.13    2.67
   2 -19  -1    1.02    2.77
  -2  19  -1    2.85    0.71
  -2 -19   1    3.36    1.14
   2 -19  -1    3.59    0.60
  -2  19  -1    2.80    1.98
   2 -19  -1    4.76    2.14
  -2 -19   1    2.34    0.44
  -2 -19   1    2.23    2.57
   2 -19  -1    1.34    0.54
   2  19   1    0.13    1.92
  -2  19  -1    2.67    1.15
   2  19   1    2.85    0.55
   2  19   1    3.31    0.57
  -2  19   1    4.88    2.13
  -2 -19  -1    2.52    0.45
   2 -19   1    3.93    0.61
  -2 -19  -1    2.40    0.56
  -2  19   1    3.17    0.62
   2  19  -1    3.34    0.99
   2  19  -1    5.03    2.38
  -2 -19  -1    2.17    1.28
   2  19  -1    2.78    0.62
   2 -19   1    4.23    1.51
   2 -19   1    4.66    2.06
  -2 -19  -1    0.18    3.01
  -2  19   1    3.12    1.46
  -2  19   1    3.76    0.54
  -2 -19  -1    3.50    1.55
  -2  19   1    4.24    3.15
   2 -19   1    1.53    2.67
   2  19  -1    3.50    1.73
   2 -19   1    3.12    1.19
  -2 -19  -1    6.61    2.37
  -2  19   1    1.97    1.21
   2  19  -1    2.70    1.22
   2  19  -1    2.69    0.41
  -2  19  -3   -0.52    1.17
  -2  19  -3    0.72    0.66
   2 -19  -3    1.57    1.49
  -2 -19   3    1.76    2.18
   2 -19  -3    3.18    3.77
   2  19   3   -0.63    3.52
   2 -19  -3    1.04    0.47
  -2  19  -3    1.29    1.47
   2  19   3    2.14    1.45
   2  19   3    1.48    1.81
   2 -19  -3    0.06    1.79
   2  19   3    0.92    2.51
   2 -19  -3    0.76    0.60
  -2 -19   3    1.02    0.90
  -2 -19   3    0.28    1.10
   2 -19  -3    0.87    2.50
   2  19   3    1.50    0.45
  -2  19  -3    2.34    2.21
  -2 -19   3    2.20    1.54
  -2  19  -3   -1.59    3.11
   2 -19   3    0.93    1.95
   2  19  -3    0.52    0.74
   2 -19   3    0.12    1.14
  -2  19   3    1.55    0.55
  -2 -19  -3    3.59    2.36
  -2 -19  -3    1.07    0.45
  -2  19   3   -0.62    1.40
  -2  19   3    0.74    0.45
  -2  19   3    4.20    1.90
   2 -19   3    0.95    0.45
  -2  19   3    0.53    2.50
   2  19  -3    1.31    0.91
   2  19  -3    1.60    0.55
   2  19  -3    2.99    1.93
  -2 -19  -3    2.72    1.77
   2 -19   3   -0.24    2.69
  -2 -19  -3    1.65    0.66
   2 -19   3    3.16    1.47
  -2 -19  -3    2.00    4.35
  -2  19   3   -2.62    3.54
   2  19  -3    0.39    1.27
   2 -19   3    0.66    0.52
  -2 -19  -3   -0.66    3.04
  -2  19  -5    0.80    0.59
  -2  19  -5    1.06    0.89
   2  19   5   -0.54    0.53
   2 -19  -5   -0.03    0.68
   2 -19  -5    0.56    0.77
   2  19  -5    0.68    0.70
   2 -19   5    0.55    0.65
   2 -19   5   -0.30    0.51
  -2 -19  -5   -0.35    0.58
  -2  19   5    0.04    0.62
  -2 -19  -5   -1.04    0.68
   2  20   0    5.23    2.10
   2  20   0    5.32    1.30
  -2 -20   0    3.36    0.50
   2  20   0    3.22    0.66
  -2 -20   0    3.33    0.64
  -2 -20   0    4.37    1.37
  -2 -20   0    4.65    3.07
   2  20   0    3.32    0.52
   2 -20   0    4.71    2.42
  -2  20   0    2.14    0.59
   2  20   0    1.23    2.86
   2  20   0    4.31    1.56
   2 -20   0    0.95    1.25
   2 -20   0    3.71    3.11
  -2  20   0    5.17    1.78
  -2  20   0    3.30    1.35
   2 -20   0    3.30    0.61
  -2 -20   0    6.80    2.27
  -2 -20   0    4.10    1.69
  -2  20   0    3.34    2.26
   2 -20   0    2.81    1.73
   2 -20   0    2.98    0.67
  -2  20   0    1.96    3.35
  -2  20  -2   29.03    1.79
  -2  20  -2   23.33    4.82
  -2 -20   2   27.56    4.07
   2 -20  -2   30.52    1.78
   2  20   2   30.61    3.19
   2  20   2   25.68    5.16
   2 -20  -2   29.70    3.19
   2  20   2   26.91    3.91
  -2  20  -2   31.23    3.60
   2 -20  -2   25.13    4.85
   2  20   2   31.70    1.58
   2 -20  -2   29.22    1.64
   2 -20  -2   30.05    2.71
   2  20   2   35.14    2.80
  -2 -20   2   30.53    3.13
  -2  20  -2   33.30    2.54
  -2 -20   2   28.83    2.24
   2 -20  -2   29.29    3.98
  -2  20  -2   31.36    2.92
  -2 -20   2   27.17    2.56
   2  20  -2   30.86    1.68
  -2  20   2   31.37    2.78
  -2  20   2   31.88    1.67
  -2  20   2   34.42    5.55
   2 -20   2   30.26    1.58
   2 -20   2   33.16    2.85
   2  20  -2   27.47    3.76
  -2  20   2   35.94    4.18
  -2  20   2   35.32    3.30
   2  20  -2   33.85    2.40
  -2 -20  -2   22.26    4.70
  -2  20   2   30.20    1.63
   2 -20   2   34.88    3.59
  -2 -20  -2   34.08    4.26
   2 -20   2   30.15    4.58
  -2 -20  -2   30.34    1.73
  -2 -20  -2   27.22    2.87
  -2 -20  -2   30.08    1.53
  -2 -20  -2   36.71    3.38
   2  20  -2   34.70    2.96
   2 -20   2   34.11    2.50
   2  20  -2   31.81    2.14
   2 -20  -4    2.70    0.68
   2  20   4   11.67    5.11
   2  20   4    6.74    3.54
   2  20   4    7.01    2.20
   2 -20  -4    3.87    1.08
   2  20   4    4.94    0.78
   2  20   4    3.59    2.55
  -2  20  -4    3.37    0.84
  -2 -20  -4    2.04    2.44
  -2  20   4    4.16    0.76
   2 -20   4    4.91    0.65
  -2 -20  -4    3.50    0.73
  -2 -20  -4    3.74    6.07
   2  20  -4    4.93    0.85
  -2 -20  -4   -0.63    4.12
  -2 -20  -4    2.87    0.86
  -2 -20  -4   11.58    3.26
   2 -20   4    5.34    0.99
  -2  21  -1    3.93    0.73
  -2 -21   1   -1.01    2.75
  -2  21  -1    9.62    3.74
   2 -21  -1    2.42    1.55
   2 -21  -1    2.62    3.67
  -2 -21   1    3.68    0.46
  -2  21  -1    3.07    1.37
   2 -21  -1    3.70    0.64
   2  21   1    3.78    3.42
  -2 -21   1    3.30    0.59
  -2 -21   1    3.81    2.13
   2 -21  -1    4.04    2.69
  -2  21  -1    4.26    1.76
  -2  21  -1    3.93    2.43
   2  21   1    2.85    0.61
  -2 -21   1    0.65    1.25
   2 -21  -1    3.94    0.75
   2 -21  -1    1.70    1.83
   2  21   1    6.11    1.88
   2  21   1    3.06    0.58
   2  21   1    4.18    2.47
  -2 -21   1    2.57    1.52
   2  21   1    3.23    1.42
  -2  21   1    4.30    1.54
  -2  21   1    3.98    0.58
   2 -21   1    7.27    2.44
   2 -21   1    3.80    3.30
   2  21  -1    5.52    1.24
  -2 -21  -1    2.52    1.84
  -2 -21  -1    5.56    2.51
   2  21  -1    1.60    0.56
   2  21  -1    6.00    2.00
  -2 -21  -1    3.30    0.70
   2  21  -1    2.91    1.39
  -2 -21  -1    4.10    0.56
   2 -21   1    2.67    1.38
  -2  21   1    2.06    1.80
  -2  21   1    4.79    2.60
  -2  21   1    3.09    0.69
  -2 -21  -1    1.59    3.26
   2 -21   1    3.15    1.70
  -2 -21  -1    6.16    1.69
  -2  21   1   11.00    3.91
   2 -21   1    2.97    0.65
   2  21  -1    6.33    2.82
   2 -21  -3    1.86    3.11
  -2 -21   3    3.55    3.08
  -2 -21   3    6.51    1.97
  -2 -21   3    4.46    1.55
  -2 -21   3    4.58    2.56
   2  21   3    2.72    0.54
   2  21   3    0.48    2.20
  -2  21  -3    2.03    1.47
  -2  21  -3    3.37    0.86
   2 -21  -3    2.50    2.25
  -2  21  -3    1.09    2.45
  -2  21  -3    0.26    1.69
  -2  21  -3    9.15    3.77
   2 -21  -3    2.25    0.64
   2  21   3    5.22    4.66
   2  21   3    3.74    1.80
   2 -21  -3    5.64    4.44
   2 -21  -3    0.95    1.82
   2  21   3   -0.68    3.10
   2 -21  -3    2.96    0.87
  -2 -21  -3    2.12    3.61
  -2 -21  -3    2.83    5.24
   2 -21   3    3.95    1.43
   2 -21   3    3.19    0.60
  -2 -21  -3    3.83    2.72
  -2 -21  -3    4.14    0.86
   2  21  -3    1.71    0.98
   2  21  -3    3.22    1.74
  -2  21   3    3.10    0.65
  -2 -21  -3    1.59    2.09
   2 -21   3    1.19    3.41
  -2  21   3    0.91    4.61
  -2  21   3    4.31    1.83
   2  21  -3    2.25    1.21
  -2  21   3    1.45    2.18
   2  21  -3    2.42    0.65
  -2  21   3    3.19    0.65
  -2  21   3    4.08    3.14
  -2 -21  -3    3.34    0.63
   2 -21   3    2.89    1.79
   2  21  -3    2.68    2.38
   2 -21   3   -1.04    2.39
   2  21   5    1.73    0.68
  -2  21  -5    0.96    0.95
   2 -21  -5    2.41    1.09
   2 -21  -5    2.17    0.80
  -2  21  -5    2.98    0.71
   2  21  -5    2.19    0.88
  -2 -21  -5    2.93    0.99
   2 -21   5    2.61    0.67
  -2  21   5    1.95    0.76
  -2 -21  -5    2.41    0.76
   2 -21   5    1.17    0.84
  -2 -22   0   52.73    3.52
  -2  22   0   53.98    4.83
   2  22   0   43.78    4.38
  -2 -22   0   46.20    3.90
   2 -22   0   52.93    4.06
   2 -22   0   49.13    2.45
   2 -22   0   44.74    6.39
   2 -22   0   61.88    5.21
   2  22   0   50.32    2.25
  -2 -22   0   50.39    4.86
   2  22   0   53.67    2.49
   2  22   0   52.35    3.31
  -2  22   0   38.77    6.13
  -2 -22   0   47.74    2.29
  -2  22   0   54.66    3.48
   2 -22   0   52.91    3.58
  -2  22   0   46.78    2.47
   2  22   0   46.81    3.68
   2 -22   0   50.73    2.40
  -2 -22   0   52.34    2.20
  -2 -22   0   43.10    6.15
   2  22   0   60.65    5.95
  -2  22   0   52.14    3.90
   2  22   2  131.57    7.07
   2  22   2  134.04    5.45
  -2 -22   2  133.68    6.52
   2 -22  -2  133.37    7.07
   2  22   2  122.56    7.92
  -2  22  -2  139.12    6.90
  -2  22  -2  136.73    7.73
   2 -22  -2  130.94    5.66
  -2  22  -2  132.69    5.67
   2 -22  -2  136.82    9.57
  -2  22  -2  131.61    6.42
   2 -22  -2  136.55    5.52
  -2 -22   2  120.05    8.19
   2  22   2  139.01    6.66
   2 -22  -2  139.93    8.04
   2 -22  -2  137.66    6.63
  -2  22  -2  137.47    9.41
  -2 -22   2  129.41    6.13
   2  22   2  132.50    9.65
   2  22  -2  131.42    7.77
  -2  22   2  131.88    6.63
  -2 -22  -2  134.20    5.39
  -2 -22  -2  135.23    8.41
  -2 -22  -2  132.99    6.85
  -2  22   2  145.35    8.19
   2 -22   2  128.64    5.43
  -2  22   2  127.13    5.46
   2  22  -2  128.05    6.18
   2  22  -2  127.05    6.72
   2 -22   2  126.66    7.56
   2 -22   2  134.49    6.38
  -2  22   2  138.18    7.13
  -2 -22  -2  148.33   10.31
  -2  22   2  135.85    9.81
   2  22  -2  127.04    5.51
  -2  22   2  132.76    5.48
  -2 -22  -2  132.48    5.59
   2 -22   2  133.59    6.79
   2 -22   2  116.04    8.66
  -2 -22  -2  132.80    7.36
   2  22   4   70.89   10.99
   2 -22  -4   85.52    3.81
   2  22   4   70.34   12.82
   2  22   4   66.69    7.03
   2  22   4   61.74    8.24
  -2  22  -4   83.99    3.97
   2  22   4   81.56    3.68
   2 -22  -4   85.60    4.06
  -2 -22  -4   82.93    3.96
  -2  22   4   84.40    3.76
  -2 -22  -4   86.89    3.72
   2 -22   4   79.43    3.57
   2  22  -4   85.46    3.75
   2 -22   4   84.56    3.85
  -2 -23   1    1.18    0.53
  -2 -23   1    2.90    1.52
  -2 -23   1    2.63    1.88
  -2  23  -1    4.72    1.54
   2  23   1    1.45    0.54
  -2  23  -1    2.61    0.78
   2  23   1    1.49    2.01
   2  23   1    5.37    4.11
  -2  23  -1    2.89    1.84
   2  23   1    3.21    1.67
   2  23   1    0.93    2.68
  -2  23  -1    1.07    3.63
   2 -23  -1    2.60    0.72
  -2  23  -1    7.53    2.70
   2 -23  -1    1.66    0.56
  -2 -23   1    2.59    0.46
   2  23   1    2.59    0.54
  -2 -23   1    3.50    3.59
  -2 -23   1    1.44    2.50
  -2 -23  -1    0.85    0.63
  -2 -23  -1    3.60    3.14
  -2  23   1    1.80    0.47
  -2  23   1    2.18    0.62
   2 -23   1    1.46    0.65
  -2  23   1    8.12    4.21
  -2  23   1    4.97    2.90
  -2 -23  -1   -0.07    4.38
  -2 -23  -1    2.57    1.84
  -2  23   1    1.37    1.66
  -2 -23  -1    2.28    0.57
  -2 -23  -1    3.34    2.24
   2 -23   1    2.48    1.65
   2  23  -1    2.69    0.67
   2 -23   1    0.15    2.58
   2 -23   1   -1.31    1.97
   2  23  -1    4.10    1.60
   2  23  -1    2.65    1.29
   2 -23   1    4.79    3.58
  -2  23   1    2.39    2.03
   2  23  -1    6.52    2.24
   2  23  -1    6.64    3.01
   2 -23  -3    5.17    0.80
   2 -23  -3    6.39    1.14
   2  23   3    0.39    3.84
   2  23   3    2.13    5.46
  -2  23  -3    5.28    1.99
   2  23   3    6.06    0.79
  -2  23  -3   -1.67    3.27
  -2  23  -3    2.56    2.46
   2  23   3   11.04    2.37
  -2  23  -3    7.81    4.88
   2  23   3    6.79    2.78
  -2  23  -3    5.51    1.02
  -2 -23  -3    5.87    0.85
  -2 -23  -3    5.51    4.20
  -2 -23  -3    5.88    1.08
   2 -23   3    5.34    0.79
  -2  23   3    6.36    0.90
   2  23  -3    5.69    0.95
  -2 -23  -3    6.34    6.26
  -2 -23  -3   23.73    4.44
  -2  23   3    5.65    0.80
  -2 -23  -3    5.38    2.65
  -2 -24   0   62.09    5.23
  -2 -24   0   57.17    4.46
   2 -24   0   62.44    4.05
   2  24   0   49.70    6.30
  -2  24   0   65.98    4.51
   2 -24   0   60.60    4.55
   2 -24   0   55.62    5.51
  -2  24   0   52.89    2.80
  -2  24   0   57.71    7.00
   2  24   0   58.31    2.80
   2 -24   0   56.08    2.76
  -2 -24   0   56.71    2.63
  -2 -24   0   58.02    6.65
   2 -24   0   68.39    7.42
  -2  24   0   64.14    5.50
   2  24   0   54.61    2.52
   2 -24   0   59.63    2.72
  -2 -24   0   59.30    2.51
   2  24   0   59.76    3.71
   2  24   0   66.69    4.20
   2  24   0   49.13    4.85
  -2  24   0   55.00    3.89
  -2 -24   0   69.14    8.65
   2 -24  -2  113.72    9.44
   2  24   2  101.07    7.52
  -2  24  -2   98.49    4.67
   2  24   2  114.26    9.62
   2 -24  -2  102.46    7.43
   2 -24  -2  101.18    6.35
  -2  24  -2  109.42    5.67
  -2  24  -2  101.28    6.08
   2  24   2  106.81    5.83
   2  24   2  113.95    6.51
   2 -24  -2  107.21    4.66
   2 -24  -2  105.11    4.49
  -2  24  -2   94.98    8.81
   2  24   2  106.53    4.47
   2 -24  -2   98.37    5.75
  -2  24  -2   91.57    6.91
  -2  24   2  114.16    9.57
   2  24  -2  105.09    4.53
  -2 -24  -2  109.11    6.83
  -2  24   2  106.29    4.46
  -2 -24  -2  100.20    4.58
   2 -24   2  100.64    4.45
  -2  24   2   99.85    6.31
   2 -24   2  107.59    8.66
  -2 -24  -2  103.03    6.19
   2 -24   2  106.98    6.99
   2 -24   2  102.35    6.06
  -2  24   2  108.78    4.48
  -2 -24  -2   97.84    9.94
  -2 -24  -2  101.82    4.37
  -2  24   2  104.26    5.82
  -2  24   2  114.59    7.66
  -2 -24  -2  105.91    8.03
   2 -24   2  105.26    5.57
   2 -24  -4   29.91    2.19
   2  24   4   30.25    1.81
   2 -24  -4   29.26    1.86
  -2  24  -4   31.33    2.09
   2 -24   4   29.99    2.07
   2  24  -4   33.01    1.95
  -2 -24  -4   30.52    2.10
  -2 -24  -4   30.95    1.83
  -2  24   4   31.34    1.88
   2 -24   4   28.63    1.71
   2  25   1    2.10    0.54
   2  25   1    0.62    0.55
  -2  25  -1    2.42    2.20
   2  25   1    5.66    3.24
   2 -25  -1    2.20    0.73
  -2  25  -1   -1.24    4.56
   2  25   1   -1.90    2.15
   2 -25  -1   -0.56    2.20
  -2  25  -1    1.46    0.76
  -2  25  -1    5.40    1.91
   2 -25  -1    1.40    3.02
  -2 -25   1    2.08    0.44
   2 -25  -1   -5.47    4.21
  -2 -25   1    1.97    0.61
  -2  25  -1   -3.75    3.03
   2 -25  -1    1.93    1.96
   2  25   1    0.35    4.33
   2  25   1    0.51    1.79
   2 -25  -1    1.76    0.62
  -2  25   1    1.61    0.64
  -2  25   1    1.87    1.76
   2  25  -1    1.97    4.39
   2 -25   1    3.21    2.40
  -2 -25  -1    3.30    5.19
  -2  25   1    2.90    3.23
   2 -25   1   -9.02    4.53
   2  25  -1    1.28    0.61
  -2  25   1    0.80    2.23
  -2 -25  -1    1.22    2.04
  -2 -25  -1    1.22    0.71
   2 -25   1   -1.27    3.11
   2 -25   1    2.93    0.73
  -2  25   1    0.55    4.64
   2  25  -1    3.37    3.11
  -2  25   1    1.12    0.52
  -2 -25  -1    1.42    0.56
  -2 -25  -1    0.56    3.63
  -2 -25  -1    4.15    2.65
   2 -25   1    1.79    1.89
   2 -25  -3    4.70    1.09
   2 -25  -3    5.38    0.93
   2  25   3    5.49    3.11
   2  25   3    9.94    2.71
   2  25   3    5.53    0.89
  -2  25  -3    5.43    1.09
   2  25   3   12.12    6.40
   2  25   3    0.57    4.20
   2  25  -3    5.98    1.02
  -2  25   3    4.32    0.85
   2 -25   3    5.43    0.93
  -2 -25  -3    6.09    1.22
  -2 -25  -3    5.76    0.98
  -2 -25  -3   -0.61    5.06
  -2 -25  -3    4.60    3.88
  -2 -25  -3    5.90    7.27
  -2 -25  -3    5.72    3.09
  -2  25   3    5.48    0.92
  -2  26   0  154.09    8.07
   2  26   0  150.82    6.16
   2  26   0  154.55    8.73
   2 -26   0  152.19    6.34
   2  26   0  143.93    7.27
   2 -26   0  171.17   11.35
   2 -26   0  142.15    7.60
  -2  26   0  145.49    7.51
  -2 -26   0  208.74   17.02
  -2 -26   0  154.38    6.14
  -2  26   0  152.63   11.03
   2 -26   0  151.09    6.42
  -2  26   0  154.95    6.49
   2 -26   0  156.81    9.49
   2  26   0  157.99    6.47
  -2  26   0  136.26    9.00
   2  26   0  155.01    7.79
   2 -26   0  165.77    8.39
   2  26   0  165.60   10.56
  -2 -26   0  209.19   14.07
  -2 -26   0  155.53    6.29
   2 -26  -2   58.36    2.98
   2  26   2   61.51    4.67
  -2  26  -2   58.01    6.47
   2 -26  -2   56.98    2.80
   2  26   2   77.06    9.32
   2  26   2   54.74    5.31
  -2  26  -2   53.57    8.86
  -2  26  -2   52.45    5.12
  -2  26  -2   62.59    3.15
   2  26   2   65.76    6.85
   2  26   2   59.85    2.81
  -2  26  -2   50.30    4.35
   2 -26   2   57.93    6.82
   2 -26   2   55.81    2.84
  -2 -26  -2   61.96    5.13
  -2  26   2   57.80    2.78
  -2 -26  -2   55.82    7.14
  -2 -26  -2   59.92    2.76
  -2 -26  -2   76.02   10.06
  -2 -26  -2   51.05    5.75
  -2  26   2   57.84    2.77
  -2 -26  -2   57.49    2.95
   2  26  -2   60.64    2.88
   2 -26  -4   54.30    3.13
   2  26   4   53.04    2.83
   2 -26  -4   59.12    2.91
  -2  26  -4   54.35    3.23
  -2 -26  -4   58.67    3.19
  -2 -26  -4   55.78    2.84
   2 -26   4   58.67    2.77
  -2  26   4   55.83    2.86
   2 -26   4   56.04    3.14
   2  26  -4   56.44    2.87
   2 -27  -1    2.27    5.21
   2 -27  -1    2.82    2.25
   2 -27  -1    0.61    0.60
   2  27   1    1.52    0.74
   2 -27  -1   -0.82    3.68
   2  27   1    0.22    2.24
   2  27   1    0.71    0.53
  -2  27  -1   -2.92    5.56
   2  27   1    3.00    2.81
   2  27   1    0.16    5.35
   2 -27  -1    1.61    0.75
   2  27   1   -5.56    3.66
  -2  27  -1    0.18    2.14
  -2  27  -1    1.08    0.75
  -2  27  -1    1.23    3.74
   2 -27  -1   -0.46    2.77
  -2  27  -1    0.50    2.70
  -2  27   1  -12.41    5.22
  -2  27   1   -4.83    3.75
  -2  27   1    0.80    0.61
   2 -27   1   -0.07    0.66
  -2  27   1   -1.34    2.03
   2 -27   1   -1.19    2.07
  -2 -27  -1   -0.34    0.72
  -2 -27  -1    0.66    0.55
   2 -27   1   -1.16    2.64
   2  27  -1   -0.04    0.58
   2 -27   1   -3.72    5.59
   2 -27   1   -8.18    3.69
  -2  27   1   -0.25    2.63
   2  27   3    0.83    3.43
   2  27   3    4.67    0.94
   2 -27  -3    3.05    1.12
  -2  27  -3    1.84    1.01
   2  27   3    5.06    2.87
   2  27   3   11.88    7.46
   2 -27  -3    3.67    0.87
   2  27   3    6.74    4.93
  -2  27   3    3.63    0.79
  -2  27   3    5.17    0.93
   2  27  -3    2.70    0.84
  -2 -27  -3    2.95    1.09
   2 -27   3    3.26    0.89
  -2 -27  -3    2.95    0.87
   2 -28   0  104.23    6.98
   2  28   0  106.52    4.44
  -2  28   0  104.17    6.13
   2 -28   0  101.63    6.28
   2 -28   0  106.98    4.63
   2  28   0  110.73    4.76
  -2  28   0   97.34    7.93
  -2  28   0  107.17    4.79
  -2 -28   0  110.41    4.41
  -2  28   0  108.29    6.74
   2 -28   0  123.78   10.73
  -2 -28   0  108.89    4.58
   2 -28   0  120.28    8.54
  -2  28   0  114.74   10.37
   2 -28   0  100.95    4.70
  -2  28  -2   49.34    2.78
   2  28   2   45.63    2.38
   2 -28  -2   43.62    2.53
   2 -28  -2   47.08    2.42
  -2 -28  -2   44.45    2.57
   2  28  -2   48.42    2.50
  -2 -28  -2   49.86    2.39
  -2  28   2   44.71    2.37
  -2  28   2   44.11    2.40
   2 -28   2   48.79    2.52
  -2  29  -1    1.42    0.88
   2 -29  -1    1.35    0.69
   2  29   1    0.74    0.59
   2 -29  -1    1.12    0.84
   2  29   1    1.76    0.83
   2  29  -1    1.08    0.74
  -2 -29  -1    1.17    0.88
   2 -29   1   -0.34    0.77
  -2 -29  -1    2.81    0.70
  -2  29   1    1.63    0.76
   2 -30   0    4.76    7.29
  -2  30   0   10.38    3.63
   2  30   0   11.74    1.03
   2 -30   0   18.43    4.08
  -2 -30   0   14.07    1.09
  -2  30   0   28.28    5.51
   2 -30   0   13.18    3.24
  -2  30   0   16.75    7.29
  -2 -30   0   14.75    1.35
  -2  30   0   12.18    1.37
   2  30   0   11.50    1.34
  -2  30   0   15.51    3.10
   2 -30   0   10.93    1.34
   2 -30   0   19.20    5.57
  -2  30  -2    3.25    1.11
   2 -30  -2   -0.24    0.69
   2 -30  -2    0.82    0.91
   2  30   2    0.52    0.70
  -2  30   2    1.22    0.64
   2  30  -2    0.93    0.79
  -2  30   2    0.67    0.72
   2 -30   2    1.00    0.87
  -2 -30  -2    1.13    0.78
  -2 -30  -2    0.25    0.96
   2  31   1    3.23    0.77
   2 -31  -1    2.01    0.82
   2  31   1    1.59    0.87
   2 -31  -1    2.25    1.10
  -2  31  -1    2.29    1.10
   2 -31   1    1.26    0.94
  -2  31   1    3.07    0.90
  -2 -31  -1    1.85    0.97
  -2 -31  -1    2.53    0.77
   2  31  -1    2.24    0.85
   3   0   0    0.05    0.17
  -3   0   0    0.03    1.22
   3   0   0   -0.03    0.16
  -3   0   0   -0.45    0.17
  -3   0   2    0.04    0.40
   3   0  -2    0.42    0.55
   3   0   2   -0.23    0.24
   3   0   2   -0.41    0.90
  -3   0   2   -0.08    0.59
   3   0   2   -1.61    0.81
  -3   0   2   -0.20    0.28
  -3   0   2   -0.18    0.12
   3   0  -2   -0.53    0.29
   3   0   2   -1.62    1.07
   3   0  -2   -0.41    0.17
  -3   0  -2   -0.35    0.24
   3   0   2    0.42    0.53
   3   0   2   -1.02    0.64
   3   0  -2    0.21    0.75
  -3   0   2   -0.03    0.24
  -3   0  -2   -0.51    0.21
   3   0   2   -0.85    0.55
   3   0  -2   -0.59    0.26
   3   0   2    0.01    0.65
  -3   0   2   -0.04    0.14
   3   0  -2   -0.04    0.37
   3   0   2   -0.51    1.26
   3   0  -4    0.38    0.22
   3   0   4   -2.68    1.91
  -3   0  -4   -0.21    0.37
   3   0   4    0.08    0.83
  -3   0   4    0.12    0.28
   3   0   4    0.18    0.34
  -3   0   4   -0.09    0.21
   3   0  -4   -0.40    0.25
   3   0  -4    0.72    0.53
  -3   0   4    0.09    0.29
   3   0  -4   -0.02    0.33
   3   0   4   -0.61    1.67
   3   0   4    0.76    1.00
   3   0   4    1.38    1.40
  -3   0  -4    0.11    0.33
  -3   0   4    0.10    0.15
   3   0   4    2.08    2.52
   3   0   4    1.75    1.30
   3   0  -4    0.58    0.38
   3   0  -4    0.53    0.39
   3   0   4   -0.21    0.96
  -3   0  -6   -0.25    0.63
  -3   0  -6    0.17    0.55
   3   0   6   -0.47    0.52
   3   0  -6   -0.54    0.59
   3   0  -6   -0.69    0.58
   3   1   1  214.72    9.15
  -3   1  -1  207.80    8.92
   3   1   1  216.69    8.16
   3  -1  -1  205.76    8.05
  -3  -1   1  204.64    8.87
  -3   1  -1  208.77    9.48
   3  -1  -1  213.78    8.42
  -3  -1   1  210.76    8.55
   3  -1  -1  210.39    8.63
   3  -1  -1  207.81    8.97
   3  -1  -1  205.04    8.14
   3   1   1  212.87    8.63
  -3   1  -1  219.84    8.18
   3  -1  -1  215.07    8.03
   3   1   1  215.44    8.60
  -3   1  -1  205.88    8.60
   3   1   1  222.06    9.53
   3   1   1  206.55    8.92
  -3   1  -1  206.55    8.46
   3   1   1  218.16    9.76
   3   1   1  217.78    8.78
   3   1   1  212.07    8.47
   3  -1  -1  215.31    8.31
  -3  -1   1  212.12    8.35
  -3  -1   1  217.98    8.27
  -3   1   1  204.94    8.28
  -3   1   1  221.56    8.06
   3   1  -1  208.11    8.02
   3   1  -1  210.91    8.36
   3   1  -1  217.29    8.00
   3   1  -1  214.55    8.56
   3  -1   1  207.21    9.42
   3  -1   1  215.71    8.95
   3  -1   1  212.64    8.63
  -3   1   1  199.18    8.90
  -3   1   1  204.95    8.58
   3   1  -1  213.59    8.11
   3   1  -1  212.95    8.88
   3   1  -1  211.61    8.27
  -3   1   1  202.91    8.38
   3  -1   1  215.62    8.17
   3  -1   1  209.27    8.47
   3   1   3  148.43    8.17
  -3  -1   3  154.60    5.82
   3   1   3  146.52    6.44
   3   1   3  151.44    6.04
   3   1   3  155.54    7.44
   3   1   3  154.23    6.70
   3  -1  -3  157.99    5.93
   3  -1  -3  152.72    6.01
   3   1   3  155.98    6.93
   3  -1  -3  150.45    6.28
   3  -1  -3  152.51    5.98
  -3   1  -3  143.99    6.16
   3  -1  -3  152.98    6.10
   3   1   3  150.82    6.64
   3  -1  -3  154.80    6.63
   3   1   3  154.18    7.86
   3   1   3  153.02    7.14
  -3   1   3  155.87    5.93
   3  -1   3  147.60    6.61
   3   1  -3  157.79    5.88
   3  -1   3  150.64    7.87
   3   1  -3  152.59    5.95
   3  -1   3  150.81    8.22
  -3   1   3  152.57    5.99
   3  -1   3  153.76    7.42
  -3   1   3  140.35    5.86
   3   1  -3  151.83    5.82
   3  -1   3  148.77    6.45
   3  -1   3  162.34    7.21
   3   1  -3  152.47    5.86
   3   1  -3  153.89    5.93
   3   1  -3  151.31    6.09
  -3   1   3  146.03    6.35
   3  -1   3  155.91    6.91
  -3   1   3  155.46    6.14
  -3  -1  -3  135.44    6.10
   3  -1   3  151.29    6.04
   3  -1   3  154.58    6.70
   3   1   5   90.08    4.89
   3   1   5   80.70    5.49
   3   1   5   89.31    4.60
  -3  -1   5   98.68    3.63
  -3   1  -5   94.46    3.89
   3   1   5   92.49    3.94
   3   1   5   96.79    5.36
   3   1   5   83.45    4.88
   3   1   5   84.35    7.51
   3   1   5   87.10    6.10
   3  -1  -5   95.96    3.90
   3  -1  -5   92.09    3.85
  -3   1  -5   90.84    4.00
   3   1   5   88.80    6.78
   3  -1   5   93.54    6.25
  -3   1   5  102.42    3.54
  -3   1   5   99.60    3.66
   3  -1   5   91.54    5.54
   3  -1   5   93.81    5.39
  -3   1   5  104.22    3.51
  -3   1   5   79.60    3.48
   3  -1   5   90.64    4.91
  -3   1   5   83.22    3.54
   3  -1   5   82.55    7.65
   3  -1   5   88.27    4.88
   3  -1   5   89.61    3.93
   3  -1   5   90.46    4.58
  -3   1   5   97.32    3.68
  -3  -1  -5   94.35    4.01
  -3   1   5   83.04    3.60
   3  -1   5   86.12    6.67
   3   1  -5   93.16    3.77
  -3   1   5   78.91    3.50
  -3  -1  -5   91.48    3.88
  -3   1   5  102.70    3.59
   3   1  -5   99.67    3.86
   3  -2   0    6.66    0.45
   3  -2   0    6.49    0.45
   3   2   0    6.83    0.89
   3  -2   0    6.56    0.99
  -3   2   0    6.94    0.84
   3  -2   0    5.50    1.22
  -3   2   0    6.19    0.70
   3  -2   0    6.25    0.71
   3   2   0    5.36    0.73
   3  -2   0    7.95    0.85
   3   2   0    5.82    1.39
  -3   2   0    8.30    1.45
   3   2   0    6.43    1.13
   3   2   0    6.14    0.42
  -3   2   0    6.59    1.06
  -3   2   0    6.43    0.47
  -3   2  -2    2.98    0.47
  -3  -2   2    3.49    0.38
   3   2   2    2.25    0.65
   3  -2  -2    2.67    0.61
   3   2   2    3.29    0.42
   3   2   2    4.32    1.26
   3   2   2    4.26    0.90
  -3  -2   2    2.90    0.37
   3   2   2    3.22    1.10
   3  -2  -2    3.64    0.86
   3   2   2    5.29    1.58
   3  -2  -2    3.13    0.57
   3  -2  -2    3.48    0.36
   3  -2  -2    3.73    1.17
   3   2   2    3.94    0.81
   3  -2  -2    3.63    0.47
   3   2   2    1.36    1.52
   3   2   2    4.23    0.92
   3  -2   2    3.73    1.13
  -3   2   2    3.00    0.57
   3   2  -2    3.99    0.42
   3   2  -2    3.41    0.43
   3  -2   2    3.66    1.49
  -3  -2  -2    3.15    0.38
  -3   2   2    2.62    0.47
  -3   2   2    3.67    0.33
   3   2  -2    2.95    0.50
   3  -2   2    4.32    0.80
   3   2  -2    4.11    0.84
  -3   2   2    3.47    0.68
  -3   2   2    2.74    0.87
   3  -2   2    2.86    0.42
   3   2  -2    3.12    0.78
   3   2  -2    3.88    0.68
   3  -2   2    3.37    0.85
   3  -2  -4   -0.12    0.75
   3  -2  -4    1.28    1.12
   3   2   4   -0.87    0.88
   3   2   4    0.34    0.36
  -3   2  -4    0.93    0.42
   3  -2  -4    0.19    0.54
   3   2   4    4.08    2.74
   3   2   4    1.62    1.61
   3  -2  -4    0.32    0.46
   3   2   4    2.82    2.38
   3  -2  -4    0.53    0.43
  -3   2  -4    0.27    0.32
   3   2   4   -1.87    1.20
   3   2   4    0.49    1.05
   3  -2  -4   -0.05    0.35
   3   2   4   -0.78    1.06
   3   2   4   -0.43    1.77
  -3   2   4   -0.12    0.43
  -3  -2  -4    0.59    0.35
   3   2  -4    0.40    0.32
   3  -2   4    0.93    2.49
   3   2  -4    0.44    0.34
   3  -2   4   -1.71    2.07
  -3   2   4    0.48    0.32
   3  -2   4   -0.87    1.74
   3  -2   4    1.44    1.00
   3  -2   4    0.58    1.26
  -3   2   4   -0.47    0.88
   3  -2   4    2.32    1.16
   3  -2   4    0.58    0.86
   3  -2   4    1.10    1.54
   3  -2   4   -0.20    0.33
  -3   2   4    0.25    0.36
  -3  -2  -4   -0.50    0.36
  -3   2   4   -0.23    0.60
   3   2   6    0.23    0.57
   3  -2  -6    0.53    0.67
   3  -2  -6    1.48    0.68
  -3   2  -6    2.22    0.76
  -3   2  -6    1.89    0.57
   3   2  -6    2.27    0.66
  -3  -2  -6    1.47    0.69
  -3  -2  -6    0.70    0.54
   3  -2   6    1.23    0.62
  -3  -3   1    2.50    0.33
  -3   3  -1    2.35    0.34
  -3   3  -1    2.61    0.61
   3  -3  -1    3.15    0.40
   3  -3  -1    2.53    0.37
   3   3   1    1.75    0.86
   3   3   1    2.84    0.61
   3  -3  -1    1.60    0.94
   3   3   1    2.31    0.74
  -3   3  -1    2.80    0.94
   3   3   1    2.75    0.71
   3   3   1    2.42    0.65
   3   3   1    1.93    1.34
   3  -3  -1    2.28    0.27
  -3   3  -1    2.89    1.22
   3   3   1    2.00    0.30
  -3   3  -1    2.83    0.72
   3  -3  -1    1.97    0.54
   3  -3  -1    2.18    0.47
   3  -3  -1    1.95    0.71
   3   3   1    2.70    0.99
   3   3   1    3.60    1.38
  -3   3   1    1.91    0.53
   3  -3   1    2.41    0.57
   3   3  -1    2.37    0.49
   3   3  -1    1.58    0.42
   3  -3   1    2.55    0.87
  -3   3   1    1.90    0.68
   3   3  -1    2.47    0.82
   3   3  -1    1.79    0.66
   3   3  -1    2.19    0.63
  -3   3   1    1.36    0.43
   3   3  -1    2.41    0.21
   3   3  -1    1.76    0.51
  -3   3   1    1.92    0.28
   3   3  -1    2.33    0.29
   3   3  -1    2.50    0.94
   3  -3   1    2.10    0.34
   3   3  -1    2.20    0.41
   3  -3   1    1.21    0.97
  -3  -3  -1    2.32    0.30
   3   3  -1    2.30    0.16
  -3   3   1    1.50    0.89
   3  -3   1    2.50    0.66
   3  -3  -3    3.04    1.37
   3  -3  -3    3.78    0.67
   3   3   3    5.07    2.12
  -3  -3   3    3.21    0.30
   3   3   3    2.43    0.81
   3   3   3    3.47    0.46
   3   3   3    2.70    1.33
   3   3   3    2.93    0.99
  -3  -3   3    2.63    0.28
   3  -3  -3    3.57    0.77
   3  -3  -3    2.79    0.46
   3   3   3    3.89    1.82
   3   3   3    4.37    1.13
   3   3   3    2.28    0.90
   3   3   3    1.98    1.40
  -3   3  -3    2.87    0.46
   3  -3  -3    3.18    0.51
   3  -3  -3    2.00    0.91
   3  -3   3    3.41    1.04
   3  -3   3    3.03    1.84
  -3  -3  -3    3.14    0.61
  -3   3   3    2.89    0.71
   3   3  -3    4.38    0.36
  -3   3   3    3.33    0.65
  -3   3   3    2.85    0.43
  -3   3   3    4.42    1.06
   3   3  -3    3.41    0.42
   3  -3   3    0.53    2.16
   3  -3   3    5.37    1.44
  -3   3   3    2.54    0.47
   3  -3   3    2.44    0.45
   3  -3   3    2.12    0.94
   3  -3   3    2.05    1.15
   3  -3   3    3.37    1.64
   3  -3   3    2.70    0.82
   3  -3  -5    2.73    1.56
   3  -3  -5    0.71    0.75
   3   3   5    2.32    1.50
   3   3   5    1.31    0.52
  -3   3  -5    1.68    0.64
   3  -3  -5    2.85    0.67
   3   3   5   -2.13    3.42
   3  -3  -5    2.78    0.63
   3   3   5    0.81    1.75
   3   3   5    1.75    1.48
   3   3   5   -1.36    2.45
   3   3   5    0.65    2.90
  -3   3  -5    1.12    0.46
   3   3   5    0.74    1.21
   3   3   5    1.07    2.01
   3  -3  -5    2.10    0.65
   3  -3  -5    0.57    1.05
  -3  -3  -5    1.18    0.57
  -3  -3  -5    2.63    0.54
   3  -3   5    1.97    2.54
   3  -3   5   -1.53    1.37
   3  -3   5    2.01    0.59
   3  -3   5    1.09    1.16
   3   3  -5    1.33    0.45
  -3   3   5    0.93    0.93
   3  -3   5    1.41    1.43
   3  -3   5   -0.29    3.61
  -3   3   5    0.80    1.29
   3   3  -5    2.54    0.52
   3  -3   5   -1.01    2.80
   3  -3   5   -0.11    1.77
  -3   3   5    1.44    0.57
  -3   3   5    1.42    0.69
  -3   3   5    1.53    0.43
   3  -3   5    1.76    1.97
   3  -4   0   27.11    1.23
   3   4   0   23.90    1.78
   3  -4   0   27.59    1.23
   3   4   0   27.74    2.43
  -3   4   0   26.73    1.62
  -3   4   0   28.08    2.31
   3   4   0   26.66    1.67
   3   4   0   25.83    2.21
   3   4   0   26.27    1.15
   3  -4   0   31.02    2.38
   3   4   0   26.91    1.54
  -3   4   0   27.16    1.50
   3   4   0   24.59    1.43
   3   4   0   27.84    1.96
   3  -4   0   28.56    1.53
   3  -4   0   30.58    1.69
   3   4   0   24.02    1.54
  -3   4   0   25.21    1.21
  -3   4   0   29.38    1.89
   3  -4   0   27.03    1.88
  -3   4  -2   16.13    1.78
   3   4   2   18.11    1.28
  -3  -4   2   14.42    0.78
   3   4   2   17.68    2.38
  -3   4  -2   13.79    2.38
   3  -4  -2   14.77    0.65
   3  -4  -2   14.05    1.53
   3  -4  -2   14.99    0.91
   3   4   2   14.73    1.32
   3   4   2   16.20    1.68
   3   4   2   13.06    2.62
  -3   4  -2   14.47    1.38
   3   4   2   14.31    1.36
   3   4   2   16.12    1.56
   3  -4  -2   13.22    2.02
  -3   4  -2   15.01    1.21
   3   4   2   13.85    1.92
   3   4   2   14.57    0.83
   3  -4  -2   16.19    1.28
  -3  -4   2   12.32    0.66
   3  -4  -2   17.15    1.14
  -3  -4   2   15.29    0.78
  -3   4  -2   13.27    0.87
   3  -4  -2   15.34    0.81
   3  -4  -2   14.21    0.64
   3   4  -2   12.95    0.75
   3  -4   2   14.33    1.17
   3  -4   2   12.77    1.31
  -3   4   2   14.47    1.08
   3   4  -2   12.28    1.16
   3   4  -2   14.24    0.80
  -3   4   2   15.72    0.77
   3  -4   2   14.11    2.16
  -3   4   2   14.40    1.30
   3   4  -2   14.94    1.14
   3   4  -2   12.77    0.81
   3   4  -2   14.01    0.92
  -3   4   2   13.86    0.95
   3   4  -2   11.11    0.91
  -3   4   2   15.90    0.68
   3  -4   2   13.42    1.66
   3   4  -2   14.42    0.74
  -3   4   2   14.45    1.67
   3   4  -2   15.29    0.73
   3  -4   2   13.77    0.85
  -3  -4  -2   14.03    0.79
   3  -4  -4    0.54    0.57
   3   4   4   -2.22    1.43
  -3   4  -4    1.14    0.38
   3   4   4    0.90    1.10
   3   4   4    1.56    1.40
   3   4   4    2.02    1.15
   3   4   4    4.82    2.41
  -3   4  -4    0.40    0.41
   3  -4  -4    1.00    0.53
   3   4   4    0.57    0.35
   3  -4  -4    0.67    0.43
   3   4   4    1.59    0.92
   3  -4  -4    1.35    0.72
   3   4   4    1.04    1.93
   3   4   4    1.09    2.74
   3  -4  -4    1.92    1.45
   3  -4  -4    0.12    0.98
  -3  -4   4    1.13    0.19
   3  -4   4    3.00    1.88
   3  -4   4    0.89    2.04
   3  -4   4   -0.39    0.87
   3  -4   4    1.34    1.13
   3  -4   4    1.42    1.02
  -3  -4  -4    0.55    0.35
   3  -4   4    2.11    2.56
   3  -4   4    0.70    0.40
   3   4  -4    0.74    0.29
  -3  -4  -4    0.88    0.46
  -3   4   4    0.82    0.48
  -3   4   4    1.20    0.81
  -3   4   4    0.53    0.57
   3  -4   4    1.29    1.32
  -3   4   4    0.97    0.38
   3   4  -4    1.12    0.37
   3  -4   4    1.06    1.48
  -3   4   4    1.36    1.15
  -3   4  -6    3.70    0.78
   3  -4  -6    3.90    0.83
   3   4   6    2.23    0.65
   3  -4  -6    2.62    0.76
  -3   4  -6    2.93    0.67
  -3   4   6    2.93    0.96
   3  -4   6    2.57    0.73
  -3   4   6    2.01    1.32
  -3   4   6    5.20    1.87
  -3   4   6    1.41    0.77
  -3  -4  -6    3.12    0.65
  -3  -4  -6    2.75    0.73
  -3   5  -1  183.04    8.53
   3   5   1  178.49    7.40
   3   5   1  182.57    7.56
  -3   5  -1  180.49    7.60
   3   5   1  190.81    7.05
  -3   5  -1  185.98    7.11
   3   5   1  189.70    8.54
  -3  -5   1  167.19    6.95
   3   5   1  181.50    7.89
  -3   5  -1  181.03    7.43
   3  -5  -1  176.77    7.12
   3   5   1  183.93    7.70
   3   5   1  193.06    8.76
   3  -5  -1  184.86    7.08
   3   5   1  182.15    8.06
   3   5   1  182.91    7.50
  -3   5  -1  179.18    7.94
   3  -5  -1  184.53    7.01
  -3   5   1  185.50    7.00
   3   5  -1  185.70    7.78
   3  -5   1  190.63    7.12
   3  -5   1  181.89    7.42
  -3  -5  -1  183.08    7.02
   3   5  -1  176.37    7.19
   3   5  -1  175.38    7.50
   3   5  -1  181.46    7.25
  -3   5   1  179.67    7.44
  -3   5   1  182.90    7.32
   3  -5   1  184.57    7.06
   3   5  -1  186.76    7.16
   3  -5   1  184.72    8.48
   3   5  -1  175.89    7.29
   3  -5   1  182.47    7.59
  -3   5   1  175.50    8.12
  -3   5   1  182.53    7.72
   3   5  -1  181.86    6.95
   3  -5   1  177.60    7.88
   3   5  -1  178.78    7.85
   3   5  -1  190.53    7.47
   3   5   3  160.85    8.65
  -3  -5   3  158.36    6.07
   3  -5  -3  159.51    7.18
   3   5   3  167.93    6.99
  -3   5  -3  157.85    7.52
   3   5   3  158.38    8.38
   3   5   3  163.03    7.79
   3   5   3  160.79    6.83
   3  -5  -3  159.19    6.37
   3  -5  -3  159.04    6.80
  -3   5  -3  154.39    6.37
   3   5   3  156.89    7.03
  -3   5  -3  159.61    8.41
   3   5   3  159.70    7.24
   3  -5  -3  162.75    6.30
   3  -5  -3  158.74    7.80
  -3   5  -3  136.12    6.32
   3  -5  -3  157.21    6.60
  -3  -5   3  156.26    6.07
  -3   5  -3  161.08    7.05
   3   5   3  163.10    7.55
  -3   5  -3  156.49    6.80
  -3   5   3  158.64    7.24
   3  -5   3  168.51    7.03
   3  -5   3  162.03    6.37
  -3   5   3  157.46    6.80
   3  -5   3  164.14    7.48
  -3   5   3  159.16    6.55
   3   5  -3  165.94    6.10
  -3   5   3  154.52    6.23
   3  -5   3  163.62    8.25
  -3  -5  -3  154.01    6.25
   3  -5   3  159.48    6.76
  -3   5   3  162.79    6.43
   3   5   5  116.15    4.68
   3   5   5  109.66    7.02
   3   5   5  111.37    8.50
   3   5   5  114.84    6.16
  -3   5  -5  112.38    4.78
   3   5   5  106.05    7.80
   3   5   5  116.76    5.74
   3  -5  -5  104.59    4.66
  -3   5  -5  112.93    4.61
   3  -5  -5  108.26    4.66
   3   5   5  107.78    6.49
   3   5   5  110.47    5.45
   3   5   5  115.65    5.81
  -3   5   5  106.73    5.35
   3  -5   5  114.52    5.36
   3  -5   5  111.57    5.69
  -3  -5  -5  108.45    4.62
  -3   5   5  109.53    5.73
   3  -5   5  113.70    6.06
   3  -5   5  117.41    7.55
  -3  -5  -5  107.48    4.69
   3  -5   5  117.44    6.98
  -3   5   5  109.68    7.44
   3  -5   5  108.80    4.69
   3   5  -5  111.10    4.42
   3  -5   5  115.40    8.39
   3  -5   5  111.21    5.62
   3  -5   5  107.08    6.26
  -3   5   5  118.14    4.50
   3   5  -5  113.77    4.39
  -3   5   5  110.53    6.32
   3   6   0   43.07    2.46
   3  -6   0   42.57    2.99
   3   6   0   43.86    2.19
  -3   6   0   38.60    2.99
   3   6   0   39.77    2.24
   3   6   0   38.60    2.48
  -3   6   0   40.96    2.23
   3  -6   0   43.35    2.13
   3   6   0   39.88    2.95
  -3   6   0   42.50    2.56
   3   6   0   41.42    1.71
   3  -6   0   42.35    2.27
  -3  -6   0   41.75    1.71
  -3   6   0   40.96    1.80
   3   6   0   40.57    2.09
   3   6   0   45.93    2.09
   3   6   0   40.59    2.86
   3  -6   0   42.65    2.55
   3  -6   0   41.75    1.81
  -3   6   0   40.24    2.10
   3  -6   0   41.29    1.81
   3  -6  -2   24.22    1.14
  -3   6  -2   20.18    1.16
  -3   6  -2   23.18    2.09
  -3   6  -2   23.02    1.53
   3   6   2   23.35    3.13
  -3  -6   2   18.48    0.91
  -3  -6   2   25.64    0.99
  -3   6  -2   22.43    1.72
   3   6   2   21.41    1.10
   3   6   2   20.86    2.31
   3  -6  -2   25.76    1.56
   3  -6  -2   22.40    0.99
   3  -6  -2   20.29    0.97
   3  -6  -2   22.24    2.07
   3   6   2   24.34    1.70
  -3   6  -2   26.22    2.81
   3   6   2   24.69    1.95
   3  -6  -2   25.59    2.75
   3  -6  -2   23.89    1.26
   3  -6  -2   23.21    1.72
   3   6  -2   22.11    0.92
   3   6  -2   21.54    1.00
  -3   6   2   23.32    1.35
  -3   6   2   24.07    1.02
   3   6  -2   20.23    1.19
   3  -6   2   18.83    2.54
  -3   6   2   23.56    1.50
   3   6  -2   20.06    1.07
  -3   6   2   20.81    2.18
   3  -6   2   20.49    2.00
   3  -6   2   19.00    1.11
   3   6  -2   20.60    1.37
  -3   6   2   23.67    1.09
  -3  -6  -2   19.31    1.04
  -3   6   2   20.78    1.72
   3   6  -2   19.71    1.41
   3  -6   2   19.81    1.48
   3   6  -2   21.41    1.18
   3  -6   2   20.03    1.66
   3   6  -2   21.35    1.06
   3   6  -2   20.95    1.02
   3   6   4    1.08    2.02
  -3   6  -4    1.19    0.45
   3  -6  -4    0.99    0.51
   3  -6  -4    0.33    1.78
   3   6   4    2.27    2.50
   3  -6  -4    0.14    0.70
   3   6   4    1.25    1.32
   3   6   4    2.49    1.49
   3   6   4    3.15    1.14
   3  -6  -4    1.28    1.28
  -3  -6   4    1.54    0.29
   3   6   4    1.67    2.95
   3   6   4    1.05    1.20
   3   6   4    4.02    1.90
   3   6   4    1.47    0.45
  -3   6  -4    0.70    0.37
   3  -6  -4    1.06    0.92
   3  -6  -4    1.06    0.54
  -3   6   4    1.86    1.12
   3  -6   4    2.73    2.17
  -3   6   4    1.50    0.44
  -3   6   4    1.78    0.67
   3  -6   4    2.91    1.38
   3  -6   4    2.48    1.12
   3   6  -4    1.32    0.32
   3  -6   4    2.31    0.96
   3  -6   4    1.58    1.11
   3   6  -4    1.32    0.28
   3  -6   4    0.93    1.84
   3  -6   4    0.60    0.41
  -3   6   4   -0.49    1.48
  -3  -6  -4    1.19    0.36
  -3   6   4    1.41    0.78
   3  -6   4    3.02    1.55
   3  -6   4    3.24    2.79
  -3   6  -6    2.36    0.86
   3  -6  -6    4.38    0.87
  -3   6  -6    2.67    0.67
   3   6   6    2.95    0.68
   3  -6  -6    2.27    0.81
  -3   6   6    3.70    0.71
   3  -6   6    4.45    0.83
  -3  -6  -6    3.85    0.74
  -3  -6  -6    1.93    0.69
   3   7   1  286.93   12.63
  -3   7  -1  297.09   11.97
  -3   7  -1  290.23   11.39
  -3   7  -1  296.84   12.62
   3   7   1  296.68   10.95
   3   7   1  298.20   11.45
  -3  -7   1  289.08   10.82
   3  -7  -1  280.22   11.00
   3  -7  -1  277.91   11.07
  -3   7  -1  292.15   11.04
   3  -7  -1  289.76   10.95
   3   7   1  287.91   12.01
  -3   7  -1  295.23   11.59
   3   7   1  296.33   11.65
   3   7  -1  283.76   11.45
  -3   7   1  235.74   12.56
  -3  -7  -1  302.61   11.49
   3  -7   1  286.11   11.54
  -3  -7  -1  298.08   11.68
  -3  -7  -1  278.20   10.91
  -3  -7  -1  294.31   12.08
   3  -7   1  292.78   10.99
  -3   7   1  240.45   11.97
   3   7  -1  296.36   11.18
  -3   7   1  279.91   10.92
   3   7  -1  294.07   11.77
   3   7  -1  300.72   11.41
   3   7  -1  295.81   11.08
  -3  -7  -1  305.24   12.81
   3  -7   1  291.46   12.52
   3   7  -1  277.79   10.81
   3   7  -1  280.98   11.11
   3  -7   1  293.34   11.03
  -3   7   1  243.42   11.60
  -3   7   1  253.92   11.43
   3   7  -1  304.02   10.81
   3   7  -1  287.22   11.82
   3  -7   1  285.88   11.90
   3  -7   1  286.88   11.36
   3   7  -1  287.02   11.23
  -3  -7   3  233.53    8.65
  -3  -7   3  205.19    8.42
  -3   7  -3  233.84   10.98
   3  -7  -3  229.53    9.44
   3  -7  -3  231.46    8.50
  -3   7  -3  224.86   10.01
  -3   7  -3  229.20    9.52
   3   7   3  228.24    9.70
  -3   7  -3  231.06    9.29
   3  -7  -3  223.26    8.77
   3   7   3  227.35    8.75
  -3  -7   3  221.30    8.44
   3   7   3  226.32   10.26
  -3   7  -3  203.05    8.80
   3  -7  -3  215.54   10.58
   3  -7  -3  234.28    8.90
   3  -7  -3  235.77    8.49
   3   7   3  232.18    9.44
   3  -7  -3  222.49    9.18
   3  -7  -3  213.10    9.84
   3   7   3  221.65   11.13
  -3   7   3  218.28    8.96
  -3   7   3  227.03   10.05
  -3   7   3  217.54    9.46
  -3   7   3  221.81    9.13
  -3   7   3  216.80    8.70
   3   7  -3  233.44    8.45
  -3  -7  -3  217.36    8.69
   3  -7  -5  137.30    5.57
   3  -7  -5  136.35    7.39
   3  -7  -5  131.49    6.49
   3  -7  -5  128.65    5.98
   3  -7  -5  132.29    5.77
   3  -7  -5  127.32    5.50
   3   7   5  136.83    7.94
   3   7   5  130.71    7.35
   3   7   5  127.81    6.64
   3   7   5  130.72    6.30
   3   7   5  137.13    6.55
   3   7   5  137.08    7.03
   3   7   5  121.42    8.71
  -3   7  -5  131.79    5.41
  -3   7  -5  141.33    5.64
   3   7   5  116.52    9.29
   3   7   5  129.81    5.47
  -3   7   5  134.82    5.97
  -3   7   5  135.19    5.35
  -3  -7  -5  137.38    5.46
   3  -7   5  133.74    9.06
   3  -7   5  139.13    6.60
  -3   7   5  126.38    5.71
   3  -7   5  127.65    6.36
  -3  -7  -5  136.95    5.52
   3  -7   5  138.85    8.55
  -3   7   5  138.28    7.34
   3  -7   5  133.15    5.52
  -3   7   5  135.64    6.47
   3  -7   5  131.46    7.62
   3  -7   5  132.59    7.24
   3  -7   5  126.65    6.73
   3  -7   5  135.68    6.21
   3  -8   0   32.38    2.61
   3   8   0   25.00    1.70
  -3   8   0   25.36    2.04
  -3  -8   0   24.31    2.51
   3   8   0   26.11    2.03
   3  -8   0   29.16    1.32
  -3   8   0   25.81    1.27
  -3  -8   0   26.65    2.04
  -3   8   0   25.22    2.59
   3  -8   0   29.39    1.80
   3  -8   0   26.83    1.60
   3   8   0   26.29    1.23
  -3  -8   0   26.51    1.74
  -3  -8   0   24.80    1.14
   3   8   0   26.24    1.17
   3   8   0   24.39    2.43
  -3   8   0   28.69    1.63
   3  -8   0   25.33    1.28
   3   8   0   28.44    1.60
  -3  -8   0   26.73    1.59
   3  -8   0   29.37    2.10
  -3   8   0   28.51    1.79
   3  -8  -2   13.61    0.75
  -3   8  -2   15.40    1.32
   3   8   2   16.34    1.62
   3  -8  -2   13.48    2.45
  -3   8  -2   15.59    1.94
   3  -8  -2   15.79    1.01
  -3   8  -2   12.74    0.93
   3   8   2   14.25    1.42
  -3   8  -2   15.66    2.68
   3  -8  -2   17.85    2.01
  -3  -8   2   13.89    0.59
   3  -8  -2   14.76    1.34
   3   8   2   14.04    0.83
   3  -8  -2   13.31    0.72
   3  -8  -2   14.67    0.90
   3   8   2   14.28    2.79
   3   8   2   12.17    1.97
  -3   8  -2   15.93    1.54
   3  -8  -2   14.73    1.56
  -3  -8   2   15.35    0.62
  -3   8   2   14.48    0.84
   3   8  -2   12.26    0.99
   3   8  -2   13.05    0.81
   3  -8   2   13.28    2.34
   3   8  -2   11.12    0.87
   3  -8   2   15.93    1.29
  -3  -8  -2   13.82    2.12
   3  -8   2   15.67    1.47
  -3  -8  -2   14.70    2.98
   3   8  -2   13.41    1.24
   3   8  -2   12.57    1.20
   3   8  -2   11.58    1.54
  -3   8   2   14.23    1.35
  -3  -8  -2   17.00    1.53
   3  -8   2   12.96    0.88
  -3   8   2   14.24    1.67
  -3  -8  -2   13.69    0.79
   3   8  -2   13.64    0.76
   3  -8   2   14.11    1.73
   3   8  -2   14.27    0.97
  -3   8   2   14.50    0.80
  -3   8   2   14.36    1.18
  -3  -8  -2   16.17    1.72
  -3   8   2   17.07    2.23
   3   8   4    2.42    1.26
   3   8   4    0.13    0.31
  -3   8  -4    0.52    0.48
   3  -8  -4    2.17    1.66
   3  -8  -4   -0.03    0.89
   3   8   4    1.92    2.14
   3  -8  -4    3.42    2.25
   3   8   4    0.12    1.42
   3  -8  -4    0.50    0.47
  -3   8  -4   -0.34    0.35
   3   8   4    2.15    3.08
   3  -8  -4    0.87    1.20
  -3   8   4   -0.02    2.04
  -3   8   4   -0.85    1.33
   3  -8   4    2.29    1.32
   3  -8   4    2.26    1.70
  -3   8   4   -0.81    0.90
  -3   8   4    0.44    0.40
   3  -8   4    0.84    0.48
  -3  -8  -4    0.71    0.36
  -3   8   4    0.49    0.77
   3  -8   4    0.32    2.47
   3   8  -4    0.13    0.28
   3  -8   4    2.10    0.98
   3  -8  -6    3.08    0.86
   3   8   6    2.47    0.71
  -3   8  -6    2.49    0.70
  -3   8  -6    3.36    1.29
   3  -8  -6    3.31    0.91
  -3  -8  -6    3.23    0.80
   3  -8   6    4.21    0.87
  -3  -8  -6    3.32    0.69
  -3   8   6    3.75    0.83
  -3  -9   1   54.47    2.77
   3  -9  -1   59.69    2.47
   3   9   1   58.10    3.13
   3  -9  -1   62.01    2.55
  -3  -9   1   52.50    2.64
  -3  -9   1   61.83    2.29
  -3   9  -1   58.25    3.08
  -3   9  -1   59.77    2.55
   3  -9  -1   58.51    3.08
   3   9   1   58.77    3.52
  -3   9  -1   61.85    3.49
   3  -9  -1   61.76    4.03
  -3   9  -1   60.51    4.06
   3   9   1   58.77    2.94
  -3  -9   1   54.87    3.42
   3  -9  -1   59.06    2.90
  -3  -9   1   58.30    3.05
  -3   9  -1   59.04    2.90
   3   9   1   54.35    4.10
   3  -9  -1   58.97    3.43
   3   9   1   60.07    2.44
   3  -9  -1   59.84    2.61
   3  -9   1   60.20    2.49
   3  -9   1   56.44    3.03
   3  -9   1   56.26    3.36
   3  -9   1   59.21    2.55
   3  -9   1   48.72    3.73
   3  -9   1   54.36    2.84
  -3  -9  -1   60.39    3.00
  -3   9   1   58.42    2.45
   3   9  -1   61.51    2.29
  -3   9   1   58.52    3.01
  -3  -9  -1   58.86    2.40
   3   9  -1   59.38    2.27
  -3  -9  -1   61.37    3.20
  -3   9   1   59.61    2.85
  -3  -9  -1   57.92    4.21
  -3   9   1   61.84    3.39
  -3  -9  -1   58.88    3.57
  -3   9   1   56.31    3.91
   3   9   3   33.16    4.27
   3  -9  -3   39.23    1.55
  -3   9  -3   38.40    2.59
   3  -9  -3   37.30    1.93
   3  -9  -3   35.58    1.84
  -3   9  -3   34.74    4.02
  -3   9  -3   37.67    3.09
   3  -9  -3   40.39    3.34
   3  -9  -3   38.92    1.62
   3   9   3   37.56    1.78
   3  -9  -3   39.29    2.73
   3  -9  -3   37.04    2.41
   3  -9  -3   38.67    4.25
  -3  -9   3   35.30    1.50
   3   9   3   36.10    2.46
   3   9   3   36.02    3.33
   3   9   3   37.70    2.80
  -3   9  -3   37.53    2.35
  -3   9  -3   38.74    1.92
  -3  -9  -3   36.09    2.58
   3  -9   3   32.10    3.75
  -3   9   3   39.11    1.79
  -3   9   3   36.85    3.62
   3  -9   3   37.68    3.06
   3   9  -3   40.31    1.62
  -3  -9  -3   35.88    2.86
  -3   9   3   36.19    2.87
  -3  -9  -3   39.71    3.45
  -3   9   3   37.41    2.20
   3  -9   3   35.21    2.55
  -3  -9  -3   38.24    1.75
  -3   9   3   38.57    2.43
  -3   9   3   39.26    1.52
   3  -9   3   36.95    1.86
  -3  -9  -3   41.36    4.67
   3  -9   3   36.63    2.31
  -3   9  -5   19.89    1.46
   3   9   5   19.56    1.28
  -3   9  -5   21.07    1.26
   3   9   5   16.68    3.80
   3  -9  -5   22.16    3.15
   3  -9  -5   23.96    2.06
   3   9   5   19.48    2.44
   3   9   5   19.56    2.85
   3   9   5   19.30    3.24
   3  -9  -5   22.06    1.44
   3  -9  -5   17.38    2.36
   3  -9  -5   24.80    4.39
   3  -9  -5   22.14    1.46
   3   9   5   14.26    2.60
   3   9   5   18.71    3.75
   3   9   5   19.81    5.30
   3   9   5   20.81    4.61
  -3   9   5   21.77    1.28
  -3   9   5   20.34    2.02
   3  -9   5   19.79    1.36
  -3   9   5   18.94    3.66
   3  -9   5   19.17    2.27
   3  -9   5   21.88    4.25
   3  -9   5   17.13    2.68
  -3  -9  -5   21.30    1.26
  -3   9   5   21.93    2.39
  -3   9   5   17.08    3.01
   3  -9   5   18.31    3.21
   3 -10   0   10.20    2.08
  -3  10   0   12.44    2.30
   3 -10   0    8.25    0.64
  -3  10   0    8.49    0.65
  -3  10   0    9.75    1.04
   3  10   0    8.60    1.19
   3  10   0    9.58    1.03
   3 -10   0   11.25    1.10
  -3  10   0   10.60    1.25
   3  10   0    9.28    1.52
  -3  10   0   10.10    1.56
   3 -10   0   12.42    1.55
   3 -10   0    9.15    1.16
   3  10   0    8.40    1.90
   3  10   0    8.96    0.53
  -3 -10   0    9.19    0.50
   3 -10   0    9.06    0.64
   3  10   2    3.33    1.57
  -3  10  -2    4.01    1.08
   3  10   2    5.62    1.27
   3  10   2    4.44    1.02
   3 -10  -2    3.26    0.48
   3 -10  -2    4.07    0.46
   3  10   2    5.40    2.28
  -3  10  -2    8.46    2.25
   3 -10  -2    4.41    0.65
  -3  10  -2    5.19    1.00
  -3  10  -2    5.08    1.40
   3  10   2    3.79    0.45
  -3  10  -2    3.76    0.64
  -3  10   2    3.21    0.76
  -3  10   2    4.81    0.51
  -3  10   2    4.90    0.55
   3 -10   2    3.09    0.42
  -3  10   2    4.10    1.68
   3 -10   2    3.61    0.51
  -3  10   2    4.03    1.23
  -3  10   2    3.16    0.90
  -3 -10  -2    5.15    2.16
   3  10  -2    4.77    0.44
   3 -10   2    3.92    0.87
  -3 -10  -2    4.06    0.44
  -3 -10  -2    4.24    1.23
  -3 -10  -2    6.69    1.76
   3  10  -2    4.48    0.88
   3 -10   2    4.16    1.39
   3  10  -2    6.00    1.23
   3  10  -2    4.93    0.64
   3 -10   2    3.59    1.04
   3  10  -2    5.20    0.77
   3 -10   2    2.25    1.61
  -3 -10  -2    5.73    1.15
   3  10   4    0.40    1.50
   3 -10  -4    0.32    0.47
   3 -10  -4    0.93    1.36
   3  10   4    1.28    2.07
  -3  10  -4    1.42    1.35
  -3  10  -4    1.22    1.85
   3  10   4    0.53    2.86
  -3  10  -4    4.45    2.98
   3  10   4    0.30    1.27
   3 -10  -4    4.27    2.75
  -3  10  -4    0.49    0.48
   3 -10  -4    0.30    1.10
  -3  10  -4   -0.54    1.06
   3 -10  -4    0.32    0.53
  -3  10  -4    0.65    0.37
   3 -10  -4    1.16    1.75
   3 -10  -4    0.11    0.26
   3  10   4    0.04    0.32
  -3 -10  -4   -1.73    3.24
  -3 -10  -4    0.71    1.39
  -3  10   4    1.10    1.62
  -3  10   4   -1.32    2.34
  -3  10   4   -0.53    1.16
   3 -10   4    0.04    0.45
   3 -10   4    0.45    1.25
  -3 -10  -4   -1.64    1.69
   3 -10   4    0.47    1.02
   3  10  -4    0.32    0.36
  -3  10   4    0.02    0.46
   3 -10   4    0.11    2.54
  -3 -10  -4    0.72    2.31
  -3 -10  -4    0.44    0.36
   3 -10   4    0.89    1.77
  -3  10   4   -0.41    0.92
   3 -10  -6    1.18    0.88
   3 -10  -6    1.27    0.85
  -3  10  -6    1.70    0.69
   3  10   6    2.13    0.68
  -3  10   6    2.10    0.76
  -3 -10  -6    1.58    0.70
   3 -10   6    1.88    0.77
  -3 -10  -6    2.45    0.68
   3  11   1  351.36   13.15
  -3 -11   1  364.97   14.42
   3 -11  -1  342.35   13.20
   3 -11  -1  308.66   13.24
  -3  11  -1  347.74   15.11
  -3  11  -1  316.72   13.25
  -3 -11   1  355.35   13.91
   3 -11  -1  338.44   13.34
   3  11   1  356.18   13.71
   3  11   1  363.41   13.97
   3 -11  -1  335.50   13.95
   3 -11  -1  333.79   14.38
  -3 -11   1  350.04   13.43
  -3 -11   1  354.90   13.59
   3  11   1  342.71   14.36
  -3  11  -1  348.60   13.91
  -3 -11   1  357.23   12.98
   3 -11  -1  348.96   13.73
   3 -11  -1  334.81   15.09
  -3  11  -1  347.39   14.37
  -3  11  -1  352.54   13.70
   3  11   1  345.48   15.09
  -3  11   1  342.83   13.19
   3  11  -1  345.58   13.56
  -3 -11  -1  330.44   14.94
  -3  11   1  329.93   14.27
   3 -11   1  347.50   13.22
   3  11  -1  353.40   13.42
   3  11  -1  349.83   14.34
  -3 -11  -1  353.38   13.11
   3 -11   1  334.24   13.26
   3 -11   1  346.91   13.87
   3  11  -1  327.47   12.95
  -3  11   1  345.62   15.05
  -3  11   1  348.40   13.68
   3  11  -1  325.19   12.94
  -3 -11  -1  360.41   14.66
   3 -11   1  345.42   14.30
   3 -11   1  351.57   13.67
  -3  11   1  349.34   13.90
   3  11  -1  354.87   12.96
  -3 -11  -1  334.61   16.31
   3 -11   1  340.47   14.95
   3  11  -1  346.64   13.85
   3 -11  -3  263.16   10.73
   3  11   3  283.25   10.66
   3  11   3  281.04   12.38
   3 -11  -3  281.39   10.53
   3 -11  -3  265.35   13.16
   3 -11  -3  263.98   11.29
   3 -11  -3  260.61   11.57
   3 -11  -3  259.38   10.85
   3  11   3  283.38   13.47
  -3  11  -3  281.47   11.52
   3  11   3  264.48   11.34
  -3  11  -3  269.85   12.96
   3 -11  -3  255.61   12.11
  -3  11  -3  287.67   11.27
   3  11   3  269.59   11.67
  -3  11  -3  267.04   12.02
   3 -11  -3  260.61   10.54
  -3  11  -3  258.39   10.76
  -3 -11  -3  281.08   13.56
  -3  11   3  274.32   11.19
  -3 -11  -3  279.25   12.50
  -3  11   3  281.71   11.47
   3 -11   3  289.90   12.94
  -3  11   3  278.92   10.67
  -3 -11  -3  280.10   11.49
   3 -11   3  284.61   11.49
  -3 -11  -3  272.60   10.61
  -3  11   3  280.84   12.02
   3 -11   3  265.01   10.71
   3  11  -3  278.21   10.51
  -3  11   3  285.00   12.91
   3 -11   3  289.30   12.06
  -3 -11  -3  282.27   11.82
   3 -11   3  277.74   11.20
  -3  11   3  275.68   10.42
   3  11   5  183.05   10.16
   3 -11  -5  190.91    7.83
   3  11   5  193.05    7.65
   3  11   5  197.10    8.76
   3 -11  -5  182.05    7.71
  -3  11  -5  191.26    7.82
   3  11   5  211.25   12.16
  -3  11  -5  195.09    7.58
   3  11   5  187.24    9.20
   3 -11   5  162.45    9.33
  -3  11   5  193.43    7.60
   3 -11   5  197.39    9.44
   3 -11   5  198.83   10.41
   3 -11   5  187.13    7.68
  -3 -11  -5  187.00    7.62
   3  12   0   -1.98    1.41
   3 -12   0    0.53    0.77
   3 -12   0    0.22    0.29
   3  12   0    0.72    0.63
  -3 -12   0    0.19    1.13
   3 -12   0   -0.67    0.58
  -3  12   0    0.55    0.84
  -3  12   0    0.43    0.37
  -3  12   0    0.55    0.64
   3  12   0    0.68    0.25
   3 -12   0   -0.19    1.62
  -3  12   0   -1.61    1.66
  -3 -12   0    3.31    1.58
   3  12   0    0.72    0.75
   3 -12   0    0.64    1.05
   3  12   0   -0.33    1.04
  -3  12   0    2.20    1.23
  -3 -12   0    0.60    0.78
  -3 -12   0    0.18    0.18
   3 -12   0    0.84    0.38
  -3 -12   0    1.29    0.69
  -3  12  -2    2.08    0.51
  -3 -12   2    0.40    0.51
  -3  12  -2    0.18    0.78
   3 -12  -2    0.90    1.12
  -3 -12   2    1.02    0.71
   3  12   2    1.09    0.87
   3 -12  -2    0.76    0.45
   3  12   2    1.88    1.54
   3  12   2    0.13    2.17
  -3  12  -2    1.03    1.06
   3 -12  -2    0.45    0.94
  -3 -12   2    1.12    1.03
   3  12   2    0.94    0.35
   3 -12  -2    1.90    2.14
   3 -12  -2    3.17    1.65
  -3 -12   2    0.86    0.43
   3 -12  -2    0.86    0.45
  -3  12  -2    1.11    2.21
   3  12   2    0.73    1.11
  -3  12  -2    1.87    1.48
   3 -12   2    0.68    1.17
  -3 -12  -2    2.65    1.18
   3 -12   2    1.04    0.43
   3  12  -2    0.62    1.19
   3 -12   2    0.93    0.33
  -3 -12  -2    1.10    0.36
   3  12  -2    1.52    0.53
   3  12  -2    0.12    0.81
   3  12  -2    2.03    0.65
  -3 -12  -2    1.47    1.32
  -3  12   2    1.43    0.40
  -3  12   2    1.16    0.81
   3  12  -2    1.15    0.35
  -3  12   2    1.55    1.40
  -3  12   2    1.82    1.03
  -3  12   2    0.66    0.41
  -3 -12  -2    1.54    2.53
  -3  12   2    0.27    2.00
   3 -12   2    1.40    0.96
   3 -12   2    1.73    1.57
  -3 -12  -2    1.19    0.31
   3 -12   2    0.20    0.73
  -3 -12  -2   -2.13    1.73
   3  12   4    1.02    0.45
   3  12   4    0.67    1.44
  -3  12  -4   -0.38    2.87
   3  12   4    0.91    1.80
   3  12   4    3.30    2.61
   3 -12  -4    0.71    1.53
   3 -12  -4    2.30    2.19
   3 -12  -4    1.15    1.22
  -3  12  -4    1.29    0.46
   3 -12  -4    2.52    3.11
   3 -12  -4    1.13    0.69
   3 -12  -4    0.48    0.37
  -3  12  -4    0.72    1.41
  -3  12  -4    2.47    1.24
   3  12   4   -2.14    3.56
  -3  12  -4   -0.17    1.98
  -3  12  -4    1.15    0.57
   3 -12  -4    0.41    0.51
   3 -12   4    3.86    2.03
  -3 -12  -4    1.30    0.48
  -3 -12  -4    2.89    1.64
   3 -12   4    0.88    0.49
  -3  12   4    2.91    2.95
  -3  12   4    0.75    1.41
   3 -12   4   -1.11    2.76
   3 -12   4    2.11    1.43
  -3 -12  -4    1.42    1.88
   3  12  -4    1.81    0.44
   3 -12   4    1.52    1.11
  -3  12   4    2.78    2.14
  -3 -12  -4    1.07    3.75
  -3 -12  -4    0.34    2.53
  -3 -12  -4    1.31    0.39
  -3  12   4    1.26    1.19
  -3  12   4    0.72    0.54
   3 -12  -6    2.42    0.92
  -3  12  -6    0.59    0.68
   3 -12  -6    0.72    0.86
   3  12   6    0.25    0.61
  -3 -12  -6    1.13    0.74
   3 -12   6    0.86    0.78
  -3  12   6    0.84    0.70
  -3 -12  -6    0.66    0.64
  -3 -13   1   76.90    3.61
  -3  13  -1   78.15    4.59
  -3 -13   1   84.87    3.12
  -3  13  -1   74.32    3.53
  -3  13  -1   75.78    4.09
   3 -13  -1   76.03    4.14
   3  13   1   82.86    4.16
  -3 -13   1   78.34    3.79
   3 -13  -1   78.45    3.50
  -3  13  -1   78.51    3.89
   3  13   1   85.23    5.47
   3  13   1   79.90    3.29
   3 -13  -1   76.83    3.91
  -3 -13   1   81.11    4.15
   3 -13  -1   80.60    3.45
   3 -13  -1   75.29    4.63
  -3 -13   1   79.68    4.69
   3  13   1   87.09    4.71
   3  13   1   79.28    3.88
  -3  13  -1   83.88    5.53
   3 -13  -1   83.60    5.57
   3  13  -1   73.75    4.65
  -3 -13  -1   94.78    5.75
   3  13  -1   76.74    3.30
  -3  13   1   81.73    3.93
   3 -13   1   81.74    4.11
   3  13  -1   86.11    3.08
  -3  13   1   78.10    3.36
  -3 -13  -1   81.13    3.24
   3  13  -1   81.39    3.81
  -3 -13  -1   81.57    3.97
   3 -13   1   84.95    3.39
  -3  13   1   84.87    4.23
  -3 -13  -1   83.61    4.25
   3 -13   1   82.20    5.32
   3 -13   1   81.59    4.57
   3  13  -1   79.76    4.15
   3 -13   1   79.00    3.87
  -3 -13  -1   80.86    4.74
  -3 -13  -1   86.12    3.28
  -3  13   1   75.02    5.39
  -3  13   1   87.05    4.72
   3  13  -1   78.34    3.11
   3  13  -1   79.87    3.64
   3 -13  -3   57.99    2.77
   3 -13  -3   51.33    4.52
  -3  13  -3   53.18    5.21
  -3  13  -3   58.93    3.56
   3 -13  -3   57.00    2.64
   3 -13  -3   52.43    3.38
  -3  13  -3   59.27    2.70
   3  13   3   59.11    3.38
   3 -13  -3   49.79    5.68
   3  13   3   57.80    3.72
   3  13   3   55.69    4.35
   3 -13  -3   47.61    3.69
   3  13   3   54.00    2.49
  -3  13  -3   58.17    3.23
   3  13   3   63.34    5.57
  -3  13  -3   62.00    4.23
   3  13  -3   59.23    2.45
  -3  13   3   59.92    3.61
  -3 -13  -3   56.44    2.47
   3 -13   3   54.73    2.47
   3  13  -3   60.72    2.19
   3  13  -3   52.87    2.24
   3  13  -3   52.77    2.19
   3  13  -3   59.20    2.36
  -3  13   3   57.33    4.25
   3 -13   3   58.22    4.80
  -3  13   3   57.95    5.42
  -3  13   3   55.97    2.34
  -3  13   3   64.38    3.35
   3  13  -3   60.39    2.22
  -3  13   3   54.52    3.03
   3  13  -3   51.28    2.32
   3 -13   3   57.32    3.38
   3 -13   3   55.60    3.89
   3 -13   3   54.85    3.11
   3  13  -3   59.88    2.27
  -3 -13  -3   54.62    2.55
   3  13  -3   52.11    2.18
   3 -13   3   58.74    2.62
   3  13   5   32.94    1.88
   3 -13  -5   37.89    2.08
   3 -13  -5   36.26    2.20
  -3  13  -5   33.92    2.02
  -3  13  -5   36.58    1.86
  -3  13   5   38.92    1.94
   3  13  -5   37.31    1.73
   3 -13   5   33.28    1.94
  -3 -13  -5   35.70    1.90
  -3 -14   0    1.13    1.33
   3  14   0    3.97    1.01
   3 -14   0    3.45    1.13
   3 -14   0    3.77    2.06
  -3 -14   0    1.38    1.74
   3  14   0    1.17    1.21
  -3  14   0    2.22    0.54
   3 -14   0    2.14    0.47
   3  14   0    2.72    0.38
   3 -14   0    4.13    1.56
  -3 -14   0    2.59    0.84
  -3 -14   0    2.90    1.02
   3  14   0    0.83    1.84
  -3  14   0    3.37    0.94
   3 -14   0    1.32    0.83
  -3  14   0    1.98    1.83
  -3  14   0    2.48    1.01
  -3 -14   0    1.66    0.31
   3  14   0    3.20    0.80
  -3  14   0    4.66    1.49
   3 -14  -2    3.46    2.75
   3  14   2    1.79    0.40
  -3 -14   2    2.57    0.94
   3  14   2    6.05    1.84
   3 -14  -2    1.67    1.12
   3 -14  -2    3.37    0.70
   3  14   2    2.21    1.25
   3 -14  -2    0.77    1.40
  -3 -14   2    1.90    1.28
  -3  14  -2    3.85    0.69
   3 -14  -2    2.51    0.56
   3  14   2   -0.09    2.25
  -3 -14   2    2.88    0.64
   3 -14  -2   -0.25    1.93
  -3  14  -2   -0.85    2.70
   3  14   2    2.67    1.11
  -3 -14   2    1.97    0.72
   3 -14   2    2.92    0.55
  -3  14   2    5.23    1.81
  -3  14   2    2.78    0.54
  -3 -14  -2    3.16    1.25
   3  14  -2    5.42    1.61
   3 -14   2    2.05    1.13
   3  14  -2    3.32    0.53
   3  14  -2    1.59    0.79
   3  14  -2    2.09    0.66
  -3 -14  -2    5.91    2.58
  -3 -14  -2    3.62    0.53
   3 -14   2    2.31    1.58
   3 -14   2    2.44    0.97
  -3  14   2    3.50    1.32
  -3  14   2    3.72    1.05
   3 -14   2    2.40    2.26
  -3 -14  -2    2.07    1.35
   3  14  -2    3.22    1.11
   3 -14   2    3.08    0.52
  -3  14   2    4.47    2.48
  -3 -14  -2    2.47    1.88
   3  14   4    0.50    1.75
  -3  14  -4    6.78    3.51
   3 -14  -4    2.55    0.69
  -3  14  -4    1.27    0.58
   3  14   4    5.04    4.29
   3 -14  -4    1.66    0.76
   3 -14  -4    3.09    1.52
   3 -14  -4    1.94    1.80
   3 -14  -4    2.20    2.66
  -3  14  -4    2.87    1.64
   3  14   4   -1.53    2.82
   3  14   4   -0.82    2.04
  -3  14  -4   -0.19    1.28
   3  14   4    1.61    0.48
  -3  14  -4    2.48    2.38
  -3  14  -4    2.14    0.54
   3 -14  -4    1.30    3.59
  -3 -14  -4   -0.43    1.82
   3 -14   4    3.16    1.30
   3 -14   4    1.47    0.45
  -3 -14  -4    2.04    0.50
  -3 -14  -4    0.12    2.49
  -3 -14  -4    1.93    0.63
  -3  14   4   -1.02    3.32
   3 -14   4    2.27    2.09
   3  14  -4    1.70    0.50
   3 -14   4    4.82    2.83
  -3  14   4    2.55    0.60
  -3  14   4    3.20    1.39
   3 -14   4    1.50    0.61
  -3  14   4    3.49    1.73
  -3 -14  -4    0.37    3.57
  -3 -14  -4    7.52    5.44
  -3  14   4   -2.60    2.22
   3 -14   4    0.07    1.46
   3 -14  -6    1.11    1.04
   3 -14  -6    1.97    0.90
  -3  14  -6    1.03    0.73
   3  14   6    0.80    0.68
  -3  14   6    1.46    0.81
  -3 -14  -6    2.21    0.80
   3 -14   6    1.77    0.80
   3 -15  -1  151.29    6.76
  -3 -15   1  157.02    5.78
   3  15   1  156.34    8.34
   3 -15  -1  143.35    6.12
   3  15   1  155.43    6.64
  -3 -15   1  150.99    6.58
  -3 -15   1  149.26    7.64
  -3  15  -1  151.71    6.14
   3 -15  -1  143.84    7.62
   3  15   1  147.33    7.41
  -3  15  -1  152.37    7.51
   3 -15  -1  140.42    8.43
  -3  15  -1  158.85    8.52
  -3  15  -1  150.96    6.67
  -3  15  -1  156.20    6.98
   3 -15  -1  148.07    6.20
  -3 -15   1  148.91    6.37
   3  15   1  155.68    6.93
   3  15   1  149.99    5.96
  -3 -15   1  146.98    6.95
   3 -15  -1  148.71    7.05
  -3 -15  -1  157.73    8.56
   3  15  -1  146.95    7.01
  -3 -15  -1  153.39    6.70
  -3  15   1  145.59    6.06
  -3  15   1  157.79    7.68
  -3 -15  -1  156.74    5.96
   3  15  -1  160.37    5.72
   3  15  -1  147.08    6.58
  -3 -15  -1  149.16    6.97
   3  15  -1  149.48    5.78
   3  15  -1  150.41    7.74
   3 -15   1  144.04    6.05
  -3  15   1  167.20    8.76
  -3 -15  -1  151.94    7.57
   3 -15   1  143.42    6.09
  -3 -15  -1  156.17    5.91
   3  15  -1  144.39    6.16
   3 -15   1  150.60    6.89
   3  15  -1  152.44    6.41
   3 -15   1  151.86    6.65
   3 -15   1  158.53    8.45
  -3  15   1  155.40    7.04
  -3  15   1  152.64    6.73
   3 -15   1  155.32    7.47
  -3  15  -3  129.75    8.45
  -3  15  -3  142.72    7.33
   3 -15  -3  135.78    5.67
  -3  15  -3  141.61    6.64
  -3 -15   3  134.31    5.61
  -3 -15   3  134.20    5.89
   3  15   3  131.92    5.52
   3 -15  -3  140.12    6.53
  -3 -15   3  134.79    5.45
   3  15   3  139.03    6.42
   3 -15  -3  135.41    9.02
   3  15   3  142.01    6.82
   3  15   3  141.10    8.86
  -3  15  -3  143.53    5.75
   3 -15  -3  136.16    7.63
  -3  15  -3  135.65    6.27
  -3 -15   3  136.89    5.38
   3  15   3  124.34    7.40
   3 -15  -3  127.79    5.78
   3 -15  -3  141.17    6.93
  -3 -15  -3  139.86    9.32
  -3  15   3  137.99    7.61
   3 -15   3  138.66    6.21
   3 -15   3  135.54    6.50
  -3  15   3  142.08    8.90
  -3  15   3  143.18    5.61
  -3  15   3  139.79    6.83
  -3 -15  -3  131.95    5.48
  -3 -15  -3  135.76    7.86
  -3 -15  -3  139.18    5.61
   3  15  -3  139.91    5.50
   3 -15   3  137.95    5.67
   3 -15   3  134.95    5.50
   3 -15   3  144.08    7.18
   3  15  -3  136.46    5.61
  -3  15   3  129.64    5.39
  -3  15   3  133.12    6.40
   3  15  -3  135.24    5.89
  -3 -15  -3  137.18    7.02
   3  15  -3  135.31    5.45
   3  15  -3  134.62    5.37
   3 -15   3  143.90    8.20
  -3 -15  -3  132.57    6.57
   3 -15  -5   98.09    4.51
  -3  15  -5   97.82    4.44
   3  15   5   94.04    4.20
   3 -15  -5   93.44    4.31
  -3  15  -5   97.99    4.13
   3 -15   5  100.00    4.31
  -3  15   5  100.42    4.25
  -3 -15  -5   96.74    4.31
   3 -15   5   95.66    4.10
  -3 -15  -5   98.01    4.22
  -3 -16   0   19.18    1.73
   3  16   0   15.90    0.88
  -3 -16   0   17.30    1.93
   3  16   0   17.43    2.35
  -3  16   0   17.76    3.55
  -3  16   0   13.88    2.56
   3 -16   0   15.39    1.70
   3 -16   0   16.36    2.01
  -3 -16   0   14.90    0.79
  -3  16   0   20.08    2.13
  -3 -16   0   14.32    2.82
  -3 -16   0   17.77    2.45
   3  16   0   20.23    3.27
  -3  16   0   16.33    1.80
   3  16   0   16.24    1.53
   3  16   0   16.21    1.79
   3 -16   0   17.62    2.63
   3 -16   0   17.96    3.60
   3 -16   0   15.34    1.09
  -3  16   0   13.37    1.12
   3  16   2    8.67    3.26
  -3  16  -2    8.19    0.92
   3 -16  -2    9.91    2.71
  -3 -16   2    6.41    1.91
  -3  16  -2    9.88    2.18
  -3 -16   2    8.28    1.33
   3 -16  -2    9.53    1.71
   3 -16  -2    3.98    3.41
  -3 -16   2    8.58    1.11
   3 -16  -2    8.77    0.91
  -3 -16   2    9.21    1.72
   3  16   2    8.16    0.69
  -3  16  -2    8.29    1.51
   3 -16  -2    8.08    0.82
  -3  16  -2   11.30    1.89
   3  16   2   10.27    2.40
   3  16   2   11.11    1.82
   3 -16  -2   10.23    2.00
  -3  16  -2    8.52    2.85
   3  16   2    7.90    1.75
  -3 -16  -2    8.17    0.67
  -3 -16  -2   12.84    3.59
  -3 -16  -2   10.06    1.99
   3  16  -2    9.47    1.62
   3 -16   2    7.20    0.67
  -3 -16  -2    9.07    2.51
   3 -16   2    9.00    1.53
   3 -16   2    7.12    2.07
   3 -16   2    8.73    0.83
  -3  16   2    8.03    2.33
   3 -16   2   10.91    1.88
  -3  16   2    9.62    0.79
  -3  16   2    7.05    3.22
  -3  16   2    8.28    1.51
   3  16  -2    9.00    0.76
  -3  16   2    8.04    1.79
  -3  16   2    9.38    0.82
   3  16  -2   10.07    1.34
   3  16  -2    9.36    1.13
  -3 -16  -2    8.46    0.75
   3  16  -2    9.23    2.00
  -3 -16  -2   11.08    1.85
   3 -16   2   11.47    2.90
   3  16   4    2.15    3.08
  -3  16  -4    1.34    0.61
   3  16   4    0.87    0.49
  -3  16  -4    3.74    3.70
   3  16   4    1.72    1.71
  -3  16  -4    1.01    1.72
  -3  16  -4   -1.86    2.51
   3 -16  -4    1.16    0.64
   3  16   4   -2.82    2.00
   3  16   4    9.75    4.42
   3 -16  -4    0.85    0.83
  -3  16  -4    1.82    1.46
   3  16  -4    0.94    0.54
   3 -16   4    1.42    1.73
   3 -16   4    1.18    0.49
   3 -16   4    0.27    0.56
   3 -16   4   -0.04    1.40
  -3  16   4    0.63    0.57
  -3 -16  -4   -0.09    3.22
   3 -16   4    1.52    3.31
   3 -16   4    0.61    2.46
  -3 -16  -4    6.12    4.63
  -3 -16  -4    1.16    0.49
  -3 -16  -4    2.26    0.62
  -3 -16  -4    1.58    2.35
  -3 -16  -4    4.47    2.00
   3 -17  -1  278.85   11.21
  -3  17  -1  298.74   11.83
  -3 -17   1  288.72   11.74
  -3 -17   1  282.06   11.48
   3  17   1  292.46   12.68
  -3  17  -1  279.75   11.16
  -3  17  -1  292.66   12.15
   3  17   1  283.93   10.97
   3 -17  -1  265.07   11.13
   3  17   1  291.46   11.74
  -3 -17   1  287.56   13.01
  -3  17  -1  277.46   13.81
   3 -17  -1  279.48   12.87
   3 -17  -1  268.28   12.15
  -3 -17   1  283.44   12.19
   3  17   1  286.94   12.04
  -3  17  -1  296.49   12.83
  -3 -17   1  302.94   10.77
   3 -17  -1  274.05   14.01
   3  17   1  308.82   13.87
   3 -17  -1  275.12   11.84
   3 -17   1  287.73   12.65
   3  17  -1  280.84   12.23
   3  17  -1  292.16   11.07
  -3  17   1  285.09   11.88
   3  17  -1  288.86   13.08
  -3  17   1  297.92   12.28
   3  17  -1  276.67   11.47
   3 -17   1  275.44   11.99
  -3 -17  -1  285.93   10.96
  -3 -17  -1  277.80   13.78
  -3  17   1  293.12   12.99
   3 -17   1  282.30   11.72
   3 -17   1  294.04   13.70
  -3 -17  -1  289.39   10.90
   3  17  -1  272.60   11.71
  -3 -17  -1  289.89   11.84
  -3 -17  -1  290.93   12.17
   3  17  -1  268.35   10.77
   3 -17   1  268.89   11.11
   3  17  -1  289.58   10.70
   3 -17   1  264.52   11.05
  -3 -17  -1  277.69   12.74
  -3  17   1  290.53   14.13
  -3  17  -3  240.86   10.03
   3 -17  -3  247.98   11.71
  -3  17  -3  237.42   11.08
   3 -17  -3  248.42   10.34
   3  17   3  243.66   11.48
  -3 -17   3  230.94    9.55
   3 -17  -3  246.29   10.80
  -3 -17   3  230.28    9.30
   3 -17  -3  247.56    9.57
   3  17   3  243.27   10.24
  -3  17  -3  236.73   10.36
  -3  17  -3  245.94   12.45
   3  17   3  249.61   12.92
   3 -17  -3  238.73    9.38
   3  17   3  233.98    9.22
  -3 -17   3  234.00    9.19
   3  17   3  236.42   10.62
  -3  17  -3  238.85    9.43
  -3 -17   3  228.69    9.96
   3 -17  -3  231.34   13.05
  -3  17   3  242.14    9.31
   3 -17   3  234.84    9.97
   3 -17   3  241.85   12.17
  -3 -17  -3  244.62   11.73
  -3  17   3  219.29   10.14
   3 -17   3  235.09   10.30
  -3  17   3  212.05   11.31
  -3  17   3  226.72   12.87
  -3 -17  -3  231.91   13.04
   3 -17   3  227.95    9.19
   3  17  -3  237.07    9.22
   3  17  -3  226.23    9.16
   3 -17   3  222.26    9.35
  -3 -17  -3  230.82    9.31
  -3 -17  -3  236.07    9.19
  -3  17   3  218.02    9.10
  -3 -17  -3  238.92   10.80
   3 -17   3  231.46   10.96
   3  17  -3  232.61    9.29
   3  17  -3  229.99    9.52
   3  17  -3  229.36    9.92
  -3  17   3  230.29   10.60
  -3 -17  -3  235.90   10.35
  -3  17  -5  162.51    6.39
  -3  17  -5  157.14    6.70
   3 -17  -5  156.71    6.57
   3 -17  -5  160.43    6.85
   3  17   5  144.36    6.43
  -3  17   5  156.27    6.50
   3 -17   5  151.12    6.54
  -3 -17  -5  163.34    6.65
  -3 -17  -5  158.38    6.46
   3  17  -5  155.33    6.33
   3 -17   5  158.84    6.36
  -3 -18   0   22.65    3.96
   3  18   0   27.19    4.20
  -3  18   0   22.61    2.54
  -3  18   0   24.76    3.29
   3 -18   0   26.26    3.20
  -3  18   0   25.00    2.28
  -3  18   0   26.79    4.42
   3 -18   0   23.47    2.14
   3 -18   0   19.96    1.33
  -3 -18   0   24.70    2.99
   3  18   0   25.06    2.37
  -3 -18   0   20.59    1.09
   3 -18   0   21.37    2.45
   3 -18   0   22.79    4.13
  -3  18   0   22.20    1.40
   3  18   0   22.03    1.16
   3  18   0   20.50    2.94
  -3 -18   0   22.87    2.02
  -3 -18   0   22.34    1.08
   3  18   0   25.97    2.02
  -3 -18   0   20.66    2.31
   3 -18  -2   14.94    2.22
  -3  18  -2   13.28    2.30
   3 -18  -2   14.20    4.19
  -3 -18   2   11.91    2.17
   3  18   2   15.07    2.47
   3 -18  -2   18.00    2.66
   3 -18  -2   11.71    1.08
   3  18   2   12.56    1.97
   3  18   2   10.05    2.62
   3  18   2   13.00    0.92
  -3  18  -2   11.73    2.68
   3 -18  -2   13.64    1.05
  -3 -18   2   13.42    1.71
  -3 -18   2   10.24    2.50
  -3  18  -2   13.19    1.15
  -3  18  -2   10.69    3.54
  -3  18  -2   15.43    1.91
  -3 -18   2   12.74    1.43
   3 -18  -2   15.83    3.15
   3  18   2    5.21    3.16
  -3 -18  -2   15.44    2.68
   3 -18   2    6.66    2.93
  -3  18   2   10.32    2.96
  -3  18   2   12.53    2.13
   3  18  -2   13.61    2.53
   3 -18   2   13.94    2.80
   3 -18   2   11.15    1.01
   3  18  -2   12.26    1.39
  -3  18   2   15.86    4.26
  -3  18   2   12.33    1.00
   3 -18   2   11.65    0.92
  -3 -18  -2   12.87    0.84
   3  18  -2   12.93    1.67
  -3  18   2   13.84    0.99
  -3 -18  -2   20.74    3.66
   3  18  -2   13.15    2.11
  -3 -18  -2   11.15    3.97
  -3  18   2   11.96    2.18
   3 -18   2   17.24    2.23
   3  18  -2   13.88    1.00
  -3 -18  -2   16.65    2.26
  -3 -18  -2   12.62    0.99
   3 -18   2   14.12    1.85
  -3  18  -4    1.54    0.77
   3 -18  -4    1.01    0.73
   3  18   4   -0.13    1.97
   3  18   4    0.91    2.37
   3  18   4    2.16    3.28
  -3  18  -4   -0.94    2.90
   3  18   4   -1.30    5.03
  -3  18  -4    2.90    1.75
  -3  18  -4   -1.10    2.08
   3  18   4    1.15    0.52
   3 -18  -4    0.24    0.65
  -3  18  -4    7.56    4.60
   3 -18   4    0.58    0.45
  -3 -18  -4    1.25    0.55
  -3 -18  -4    0.61    0.65
  -3 -18  -4   -1.03    3.86
  -3 -18  -4    1.87    2.16
  -3  18   4    0.09    0.60
   3  18  -4    0.33    0.59
  -3 -18  -4    8.08    5.55
   3 -18   4    0.76    0.62
  -3 -18  -4   -1.78    2.70
   3 -19  -1   16.29    2.64
   3 -19  -1   14.36    1.10
   3  19   1   19.01    3.14
   3 -19  -1   13.86    1.13
  -3  19  -1   12.11    1.90
   3  19   1   15.84    3.78
   3 -19  -1    8.46    3.67
  -3 -19   1   11.45    3.02
   3  19   1   13.34    1.94
  -3 -19   1   11.78    2.00
   3 -19  -1   13.69    2.21
   3  19   1   14.09    0.92
  -3  19  -1   18.06    3.14
  -3 -19   1   12.99    1.70
   3  19   1   11.59    2.29
  -3  19  -1   16.16    2.46
  -3  19  -1   15.85    1.18
  -3  19  -1   13.77    3.79
   3 -19  -1   16.64    3.34
  -3 -19   1   13.99    0.72
  -3 -19   1   14.68    2.66
  -3 -19  -1   12.65    2.16
  -3 -19  -1   17.85    4.08
  -3 -19  -1   15.97    2.57
  -3  19   1   15.42    3.09
  -3  19   1   12.09    3.77
  -3 -19  -1   13.90    0.94
   3  19  -1   15.82    1.76
   3 -19   1   14.54    3.88
   3  19  -1   19.23    3.88
  -3  19   1   14.78    2.18
   3 -19   1   14.54    2.03
   3 -19   1   14.53    2.45
  -3  19   1   13.44    2.50
  -3 -19  -1   16.06    3.10
   3  19  -1   12.38    1.01
  -3  19   1   13.76    1.09
   3 -19   1   10.84    2.76
   3  19  -1   12.98    2.05
   3  19  -1   12.81    2.47
  -3 -19  -1   13.70    0.86
   3 -19   1   12.73    1.02
  -3  19  -3    5.27    2.12
  -3  19  -3    8.17    2.82
  -3 -19   3    6.46    1.25
  -3 -19   3    5.03    1.50
   3  19   3    9.15    4.59
   3  19   3    7.48    0.78
   3  19   3    9.02    2.38
  -3 -19   3    7.15    2.04
  -3 -19   3   12.88    1.58
   3 -19  -3   10.21    1.00
  -3  19  -3    7.56    1.10
   3  19   3    9.66    1.96
  -3  19  -3    8.26    3.98
   3  19   3    5.48    3.08
  -3  19  -3    6.82    1.76
   3 -19  -3    8.34    1.12
   3  19  -3    5.06    1.44
  -3  19   3   11.10    4.60
   3 -19   3    8.83    0.96
  -3 -19  -3    8.09    2.71
  -3 -19  -3    8.22    0.98
   3 -19   3   10.21    2.03
  -3  19   3    7.73    0.90
  -3  19   3    7.95    0.86
   3 -19   3    3.84    3.68
  -3  19   3    9.83    2.44
  -3 -19  -3    8.04    2.20
  -3 -19  -3    7.07    4.87
   3  19  -3    3.26    1.90
   3 -19   3    7.75    0.80
   3 -19   3    7.92    1.72
   3  19  -3    7.74    1.18
   3  19  -3    5.91    1.13
  -3 -19  -3    7.69    0.77
  -3 -19  -3    9.37    3.67
   3 -19   3   10.85    2.68
  -3  19   3    9.82    1.95
  -3  19   3    9.79    3.22
   3  19  -3    7.95    0.91
  -3  19  -5    4.99    1.21
   3 -19  -5    4.22    1.23
  -3  19  -5    5.54    0.97
   3 -19  -5    5.76    1.06
   3  19   5    4.51    0.87
  -3 -19  -5    6.34    1.17
   3 -19   5    6.70    0.91
  -3 -19  -5    5.26    0.96
   3 -19   5    4.63    1.00
   3  19  -5    5.34    0.93
  -3  19   5    4.18    0.91
  -3  20   0   19.26    2.44
   3  20   0   27.80    3.37
  -3 -20   0   19.96    2.70
   3 -20   0   18.39    2.32
  -3  20   0   20.12    3.72
  -3 -20   0   18.31    1.01
   3  20   0   22.36    4.50
   3  20   0   19.63    2.48
  -3 -20   0   16.99    2.25
  -3 -20   0   11.68    3.61
   3  20   0   18.87    1.24
  -3  20   0   19.16    2.87
   3  20   0   16.65    2.04
  -3 -20   0   18.20    0.98
  -3  20   0   23.04    4.95
   3 -20   0   18.75    3.52
   3 -20   0   15.91    4.23
   3 -20   0   16.63    2.72
  -3  20   0   19.11    1.34
   3 -20   0   16.61    1.24
  -3 -20   0   28.75    3.60
   3  20   0   18.32    1.05
   3  20   2    9.23    0.81
   3 -20  -2    8.46    0.98
  -3  20  -2    9.25    1.10
   3 -20  -2    7.89    2.04
   3 -20  -2    6.59    4.34
  -3 -20   2   11.30    1.66
  -3 -20   2   13.47    2.69
   3  20   2   14.01    3.25
   3  20   2   14.26    4.33
  -3  20  -2   10.25    1.92
  -3 -20   2    4.06    1.46
   3  20   2    8.31    2.24
   3 -20  -2   11.11    0.95
   3  20   2   14.03    2.22
  -3  20  -2    4.42    4.03
   3 -20  -2   12.46    2.49
  -3  20  -2    7.54    2.91
   3 -20  -2    8.72    3.05
  -3 -20   2    6.39    2.67
  -3  20  -2   10.48    2.26
   3  20  -2    6.05    1.77
   3 -20   2   13.42    2.47
  -3 -20  -2    8.58    2.06
  -3  20   2    8.31    0.87
  -3 -20  -2   18.30    3.24
  -3 -20  -2    4.92    4.16
  -3  20   2    9.52    3.40
  -3 -20  -2    8.47    0.78
   3 -20   2    7.01    3.54
  -3  20   2   10.16    0.90
   3 -20   2    7.69    1.69
   3 -20   2    9.19    0.98
   3  20  -2    8.29    0.90
   3  20  -2    6.92    1.40
   3 -20   2    8.62    0.86
  -3 -20  -2    8.99    0.91
   3  20  -2    8.03    2.50
  -3  20   2   10.84    2.05
  -3  20   2   -0.36    4.12
  -3 -20  -2    9.21    3.21
  -3  20   2   10.17    2.43
   3  20  -2    9.61    1.74
   3 -20   2    8.24    2.62
   3  20   4    3.15    2.23
   3 -20  -4   -0.93    0.79
  -3  20  -4    0.38    0.76
   3 -20  -4    1.30    0.72
   3  20   4   -1.53    5.53
   3  20   4    0.00    0.47
   3  20   4   -3.97    2.54
   3  20   4   -0.87    3.67
  -3 -20  -4   -2.05    3.08
  -3 -20  -4    1.47    0.68
   3 -20   4    0.50    0.67
   3 -20   4    0.00    0.50
  -3 -20  -4    1.35    2.62
  -3  20   4    0.46    0.60
  -3 -20  -4   -0.24    0.54
  -3 -20  -4    5.07    6.37
   3  20  -4    1.13    0.65
  -3 -20  -4    7.05    4.43
  -3 -21   1  135.81    8.52
  -3  21  -1  129.43    5.59
   3 -21  -1  124.96    5.56
   3  21   1  136.54    5.36
  -3 -21   1  137.47    5.09
   3  21   1  130.36    6.78
   3  21   1  130.64    7.60
  -3  21  -1  132.25    7.76
  -3  21  -1  128.56    6.91
   3  21   1  135.96    6.40
   3 -21  -1  128.54    7.98
   3 -21  -1  132.43    6.60
   3 -21  -1  137.31    5.56
  -3  21  -1  141.83    9.60
   3 -21  -1  120.64    9.46
  -3 -21   1  133.75    7.33
  -3  21  -1  136.34    6.52
  -3 -21   1  126.35    6.18
   3  21   1  138.83    9.12
   3 -21  -1  128.23    7.04
  -3 -21   1  126.72    6.54
  -3  21   1  132.53    6.62
  -3  21   1  121.37    9.47
  -3 -21  -1  135.16    6.58
   3 -21   1  129.97    7.60
  -3  21   1  125.14    5.47
   3  21  -1  136.35    6.44
   3  21  -1  129.43    5.47
  -3 -21  -1  131.55    5.35
   3 -21   1  135.19    8.98
   3  21  -1  131.30    8.10
  -3  21   1  131.12    7.06
   3  21  -1  137.06    6.09
   3 -21   1  134.12    6.80
   3 -21   1  131.67    6.37
  -3 -21  -1  139.98    7.93
   3 -21   1  127.26    5.50
  -3 -21  -1  133.56    9.43
  -3  21   1  131.91    8.04
  -3 -21  -1  128.75    6.99
   3  21  -1  130.88    7.08
  -3  21  -3  105.47    9.28
  -3  21  -3  111.16    4.92
   3  21   3  111.81    4.64
   3 -21  -3  108.12    4.76
  -3  21  -3  109.95    7.22
   3 -21  -3  110.09    4.93
  -3  21  -3  104.67    5.76
   3  21   3  106.56    6.47
   3  21   3  106.22    7.48
   3  21   3  108.04    5.88
  -3  21  -3  110.59    6.26
  -3  21   3  105.58    4.56
   3 -21   3  111.06    5.73
   3 -21   3  110.70    4.64
   3  21  -3  108.33    4.65
   3 -21   3  102.29    7.03
  -3 -21  -3  111.19   10.64
  -3 -21  -3  111.27    4.59
  -3 -21  -3  114.32    8.23
   3 -21   3  111.65    8.72
  -3 -21  -3  109.02    4.77
  -3 -21  -3  112.19    6.39
  -3  21   3  112.58    4.70
   3 -21   3  115.05    4.87
  -3 -21  -3  112.25    7.11
   3 -21   3  113.04    6.24
  -3  22   0    6.31    1.02
   3  22   0    6.54    2.01
   3  22   0    6.95    0.81
   3 -22   0    6.22    1.96
   3  22   0    9.04    3.89
   3 -22   0   12.67    3.95
  -3 -22   0    5.00    1.77
  -3 -22   0    6.00    0.67
  -3 -22   0    6.85    0.92
  -3 -22   0    4.02    2.80
  -3  22   0   10.95    3.23
  -3  22   0    8.83    4.10
  -3  22   0    7.17    2.28
  -3 -22   0   10.73    4.29
   3  22   0    5.80    1.62
   3  22   0    7.82    0.72
   3 -22   0   10.39    3.34
   3 -22   0    4.17    2.37
  -3 -22   0    8.45    2.26
  -3  22   0    9.20    1.97
   3 -22   0    6.80    0.88
   3  22   0    4.53    2.70
   3 -22  -2    3.15    0.87
   3 -22  -2    3.44    2.06
  -3  22  -2    2.95    2.22
  -3  22  -2    3.07    4.62
   3  22   2    4.11    0.71
  -3  22  -2    5.24    0.95
   3 -22  -2    4.88    3.33
   3 -22  -2    4.53    0.83
   3  22   2    3.55    4.70
   3  22   2    6.88    3.30
   3 -22  -2    3.43    2.59
  -3  22  -2    5.42    3.08
   3  22   2    0.73    2.28
   3 -22  -2    6.11    5.32
  -3  22  -2    5.42    1.89
   3  22   2    6.20    1.96
   3 -22   2    8.80    1.95
  -3 -22  -2    5.36    5.30
  -3  22   2    7.11    3.78
  -3  22   2    4.54    0.80
  -3 -22  -2    6.72    3.71
   3 -22   2   -2.56    4.08
  -3  22   2    2.77    2.45
  -3  22   2    5.17    2.07
  -3 -22  -2    3.22    2.64
  -3 -22  -2    5.55    0.86
  -3 -22  -2    6.81    2.28
  -3  22   2   -0.82    5.00
  -3 -22  -2    4.29    0.65
   3 -22   2    4.24    0.86
   3 -22   2    3.15    2.16
  -3  22   2    5.00    0.77
   3  22  -2    4.88    0.80
   3 -22   2    3.72    0.76
   3 -22   2    4.03    3.18
   3 -22  -4    0.32    0.70
   3 -22  -4    2.41    0.98
  -3  22  -4    0.38    0.93
   3  22   4    0.17    0.57
   3 -22   4   -0.22    0.64
  -3 -22  -4    2.84    0.98
   3 -22   4    0.06    0.74
   3  22  -4    1.31    0.71
  -3  22   4   -0.57    0.56
  -3 -22  -4    1.42    0.74
  -3  23  -1   65.51    4.23
   3  23   1   63.87    4.11
  -3 -23   1   60.74    2.61
  -3  23  -1   63.87    3.10
   3  23   1   53.52    4.52
  -3  23  -1   75.75    8.22
   3 -23  -1   62.17    4.94
   3  23   1   55.43    7.51
  -3  23  -1   64.61    4.78
  -3  23  -1   58.76    5.73
   3 -23  -1   54.93    2.94
   3  23   1   68.27    5.87
   3 -23  -1   67.80    6.26
   3 -23  -1   67.75    4.38
   3  23   1   60.45    2.77
   3 -23  -1   64.45    2.96
   3 -23  -1   76.92    8.32
  -3  23   1   55.82    5.93
  -3 -23  -1   60.51    4.90
  -3 -23  -1   59.59    8.04
  -3 -23  -1   62.37    2.69
  -3 -23  -1   60.59    2.88
  -3  23   1   63.13    5.00
  -3 -23  -1   53.47    5.98
   3 -23   1   66.95    4.24
  -3  23   1   61.43    2.92
  -3 -23  -1   57.84    4.29
   3  23  -1   60.91    2.91
   3 -23   1   59.14    5.64
  -3  23   1   62.67    4.40
   3 -23   1   50.51    7.10
  -3  23   1   64.51    8.33
   3 -23   1   60.32    2.92
   3 -23   1   60.83    4.71
   3  23   3   35.52    7.35
   3 -23  -3   48.20    2.43
  -3  23  -3   46.89    2.62
   3 -23  -3   46.24    2.55
   3  23   3   43.82    4.08
   3  23   3   36.20    4.71
   3  23   3   45.72    2.28
   3  23   3   51.45    6.30
  -3 -23  -3   40.50    4.68
   3  23  -3   45.88    2.31
   3 -23   3   41.02    2.22
  -3 -23  -3   52.69    8.51
  -3 -23  -3   43.33    7.25
  -3 -23  -3   45.96    2.44
  -3 -23  -3   40.52    5.61
  -3  23   3   43.55    2.28
  -3 -23  -3   45.14    2.22
  -3  23   3   44.36    2.22
   3 -23   3   45.31    2.50
  -3  24   0    6.53    2.63
  -3  24   0    2.45    3.51
   3 -24   0    1.17    2.59
  -3  24   0    1.06    1.91
  -3  24   0    1.07    0.77
   3 -24   0    6.94    2.22
  -3 -24   0    0.95    0.54
   3 -24   0    3.96    4.71
   3  24   0    1.46    0.64
  -3  24   0    1.74    5.05
  -3 -24   0    1.04    0.57
   3 -24   0    1.14    0.63
   3  24   0    1.03    0.42
   3 -24   0    1.12    3.43
  -3  24  -2    7.60    2.75
  -3  24  -2   -0.03    2.07
   3  24   2   -5.67    5.50
   3 -24  -2    2.17    0.68
   3 -24  -2    0.79    0.68
  -3  24  -2    7.24    3.74
  -3  24  -2    3.80    5.43
   3  24   2   -5.34    3.67
   3  24   2    3.74    2.13
   3  24   2   -0.36    2.70
   3  24   2    0.84    0.61
  -3  24  -2    2.03    0.82
  -3 -24  -2    0.98    0.71
  -3 -24  -2    3.51    3.38
   3 -24   2   -1.29    2.41
   3  24  -2    2.32    0.70
   3 -24   2   -0.18    1.88
   3 -24   2   -1.04    3.49
   3 -24   2    3.19    0.75
  -3 -24  -2    5.01    2.75
  -3 -24  -2   -0.67    6.14
  -3 -24  -2   -1.67    4.43
  -3  24   2    1.67    0.63
  -3 -24  -2    1.97    0.60
  -3  24   2    3.65    0.73
   3 -24   2    1.22    0.70
   3 -24   2    1.68    4.90
   3 -24  -4    1.44    0.86
   3  24   4    1.81    0.71
  -3  24  -4    1.60    0.98
   3 -24  -4    2.53    1.21
  -3 -24  -4    1.96    1.05
   3  24  -4    3.08    0.83
  -3 -24  -4    2.45    0.79
  -3  24   4    1.84    0.69
  -3  24   4    1.34    0.74
   3 -24   4    2.81    0.76
   3 -24   4    1.29    0.93
  -3  25  -1   26.65    3.45
  -3  25  -1   28.55    1.92
   3 -25  -1   24.93    1.64
  -3  25  -1   27.86    4.11
   3  25   1   24.59    1.48
  -3  25  -1   26.53    5.39
   3 -25  -1   26.30    1.76
  -3  25  -1   30.86    6.20
   3 -25   1   31.77    6.64
   3 -25   1   23.36    3.34
  -3  25   1   23.77    1.70
  -3 -25  -1   24.53    1.56
   3 -25   1   30.86    4.17
  -3 -25  -1   26.38    1.47
   3 -25   1   25.28    1.72
   3 -25   1   26.94    4.87
  -3  25   1   19.09    4.69
  -3  25   1   28.43    3.47
   3  25  -1   25.21    1.66
  -3  25   1   26.54    6.65
  -3  25   1   25.36    4.15
   3  25   3   28.55    5.93
   3 -25  -3   24.93    1.70
   3  25   3   24.72    1.60
  -3  25  -3   22.98    1.97
   3  25   3   20.51    4.34
   3  25   3   19.14    7.70
   3  25   3   26.14    4.29
   3 -25  -3   27.04    1.96
   3  25  -3   27.15    1.73
  -3 -25  -3   28.59   10.08
  -3 -25  -3   27.26    1.63
  -3  25   3   25.01    1.59
   3 -25   3   24.98    1.94
  -3 -25  -3   20.46    5.64
  -3 -25  -3   25.92    1.83
   3 -25   3   25.38    1.63
  -3 -25  -3   46.38    9.16
  -3 -25  -3   27.14    4.80
  -3  25   3   24.89    1.62
  -3 -26   0    0.33    0.58
   3 -26   0    4.52    2.49
   3 -26   0    2.85    3.16
  -3  26   0    1.23    0.78
   3 -26   0    1.58    5.55
  -3  26   0    9.79    6.26
   3 -26   0    1.39    4.26
  -3 -26   0   -0.34    0.53
  -3  26   0    0.06    2.26
   3  26   0    1.05    0.69
   3 -26   0    0.44    0.74
   3  26   0    0.83    0.45
  -3  26   0   -1.31    2.91
  -3  26   0   -2.24    3.93
   3 -26  -2    1.87    0.92
   3 -26  -2    1.09    0.66
  -3  26  -2    0.22    0.93
   3  26   2    2.45    0.68
   3 -26   2    1.93    0.92
  -3  26   2    2.05    0.69
   3  26  -2    1.79    0.70
  -3  26   2    2.90    0.76
   3 -26   2    2.32    0.85
  -3 -26  -2    2.97    0.87
  -3 -26  -2    1.93    0.68
  -3  27  -1   45.81    2.71
   3 -27  -1   47.38    2.65
   3  27   1   48.35    2.33
   3 -27  -1   46.64    2.50
  -3  27  -1   52.68    8.40
  -3  27  -1   48.84    5.33
  -3  27  -1   41.36    4.49
  -3  27  -1   50.23    6.95
   3  27  -1   46.64    2.48
   3 -27   1   43.07    7.03
  -3  27   1   47.27    2.50
   3 -27   1   47.93    2.59
  -3 -27  -1   51.18    2.33
   3 -27   1   49.81    9.79
  -3 -27  -1   43.65    2.39
   3 -27   1   47.84    5.45
   3 -27   1   50.82    4.69
   3  27   3   44.96    2.42
  -3  27  -3   42.92    3.35
  -3  27   3   45.14    2.33
  -3 -27  -3   48.10    2.62
   3  27  -3   42.75    2.39
   3 -28   0    4.46    0.99
  -3  28   0    4.91    1.05
   3  28   0    4.08    0.94
   3  28   0    3.04    0.63
   3 -28  -2    3.62    1.17
   3 -28  -2    2.54    0.82
  -3  28  -2    1.84    1.11
   3  28   2    3.67    0.83
   3  28  -2    2.99    0.87
  -3 -28  -2    3.30    0.99
   3 -28   2    2.33    1.07
  -3 -28  -2    3.56    0.86
   3 -28   2    2.80    1.00
  -3  28   2    3.05    0.82
   3 -29  -1    2.71    0.92
   3 -29  -1    2.34    0.86
   3  29   1    4.04    0.81
  -3  29  -1    2.41    1.10
  -3  29   1    3.27    0.92
  -3 -29  -1    6.77    1.05
  -3 -29  -1    3.06    0.96
   3  29  -1    4.67    0.98
   3 -29   1    2.34    0.99
   3  30   0    9.22    1.21
  -3  30   0    8.66    1.47
  -4   0   0  430.06   16.45
   4   0   0  440.23   16.43
   4   0   0  428.42   16.44
   4   0  -2  394.58   15.59
  -4   0   2  381.86   14.77
   4   0   2  381.61   15.26
  -4   0   2  377.26   15.42
   4   0   2  361.64   16.48
  -4   0   2  389.68   14.66
  -4   0  -2  385.83   14.56
   4   0   2  371.02   16.07
  -4   0   2  376.33   15.00
  -4   0   2  373.99   14.37
   4   0   2  366.43   16.96
   4   0  -2  375.80   14.59
   4   0   2  386.28   15.34
   4   0   2  376.60   15.52
   4   0  -2  393.89   15.14
   4   0   2  385.47   15.82
   4   0   2  383.46   15.09
   4   0  -2  389.61   14.85
  -4   0   2  358.85   14.35
   4   0  -2  392.00   14.72
  -4   0  -2  386.43   14.63
  -4   0  -4  384.54   14.29
   4   0   4  354.47   14.83
   4   0   4  346.51   15.71
  -4   0   4  377.23   13.92
   4   0   4  351.54   15.11
   4   0   4  368.60   14.22
   4   0   4  357.20   15.47
   4   0   4  358.61   17.55
   4   0   4  360.19   15.09
   4   0  -4  380.01   14.01
   4   0   4  359.31   16.96
  -4   0  -4  379.56   14.17
   4   0  -4  374.32   14.08
   4   0   4  366.52   16.29
  -4   0  -6  226.82    9.17
   4   0  -6  230.11    8.97
  -4   0  -6  227.68    9.34
   4   0  -6  236.42    9.07
   4   0   6  224.91    9.26
   4   1   1    3.52    0.91
   4  -1  -1    4.57    0.84
   4   1   1    3.63    0.80
  -4   1  -1    3.45    0.43
   4  -1  -1    6.77    1.27
   4   1   1    4.53    1.13
   4   1   1    3.71    1.42
   4   1   1    1.68    1.10
   4  -1  -1    4.46    0.51
  -4  -1   1    3.37    0.38
   4  -1  -1    4.42    0.47
   4   1   1    3.91    0.91
   4  -1  -1    3.88    0.71
   4   1   1    2.91    0.43
   4  -1  -1    3.42    1.34
   4   1   1    6.48    2.05
   4  -1  -1    3.15    0.32
   4   1   1    2.61    1.55
   4   1  -1    3.43    0.29
   4  -1   1    2.90    1.14
   4   1  -1    2.65    0.87
   4   1  -1    3.82    0.46
   4   1  -1    4.70    0.42
   4   1  -1    3.77    1.19
  -4   1   1    2.31    0.94
   4  -1   1    3.87    0.91
   4  -1   1    4.04    0.79
  -4   1   1    2.58    0.73
   4   1  -1    4.32    0.83
  -4  -1  -1    3.39    0.47
  -4   1   1    4.08    1.31
   4  -1   1    4.70    1.72
   4   1  -1    3.71    0.64
  -4   1   1    3.59    0.71
   4  -1   1    3.33    0.45
  -4   1   1    3.52    0.40
   4  -1  -3   17.30    0.98
  -4   1  -3   17.36    1.03
   4  -1  -3   21.59    1.38
   4  -1  -3   17.64    1.55
   4   1   3   17.49    1.95
   4  -1  -3   20.75    2.00
   4   1   3   13.99    3.20
   4   1   3   15.81    2.95
   4   1   3   24.04    2.68
   4   1   3   21.61    2.10
   4   1   3   20.22    1.80
   4   1   3   16.00    1.07
   4  -1  -3   18.93    2.72
   4  -1  -3   18.39    1.11
   4   1   3   21.04    2.38
  -4   1  -3   15.74    1.12
   4   1   3   21.48    4.30
  -4  -1  -3   15.22    1.09
   4  -1   3   20.33    2.32
   4   1  -3   19.71    1.60
   4  -1   3   23.70    3.62
   4  -1   3   18.48    1.93
   4  -1   3   24.39    1.87
  -4   1   3   17.90    1.18
   4   1  -3   16.32    1.75
   4   1  -3   20.34    1.17
   4  -1   3   19.31    3.01
   4  -1   3   25.68    2.66
   4  -1   3   15.72    1.07
   4  -1   3   19.90    3.78
   4   1  -3   16.27    1.13
   4   1  -3   18.08    1.29
   4   1  -3   16.48    1.02
   4   1  -3   17.92    1.36
   4  -1   3   20.01    2.02
  -4   1   3   15.96    1.83
   4   1  -3   21.59    2.11
  -4   1   3   17.35    1.07
  -4   1   3   17.86    1.42
   4   1  -3   18.45    1.03
  -4  -1  -3   16.65    1.03
   4   1   5   18.03    3.79
   4   1   5   16.07    1.18
  -4   1  -5   15.91    1.29
   4   1   5   21.65    3.50
   4   1   5   18.75    2.87
   4   1   5   20.65    2.47
   4   1   5   21.07    5.08
   4   1   5   28.65    5.71
   4  -1  -5   17.04    1.22
   4   1   5   13.29    3.13
  -4   1  -5   16.67    1.13
   4   1   5   35.35    7.63
   4  -1  -5   14.81    1.06
   4  -1   5   20.16    2.91
   4   1  -5   14.42    0.99
  -4  -1  -5   15.01    1.29
   4   1  -5   13.60    1.13
  -4  -1  -5   14.39    1.08
   4  -1   5   13.65    4.17
   4  -1   5   15.96    2.38
   4  -1   5   15.27    1.16
   4  -1   5   16.35    3.12
   4  -2   0   82.82    3.30
  -4   2   0   72.93    4.69
   4   2   0   81.45    5.01
   4  -2   0   81.59    3.68
   4  -2   0   79.88    3.85
   4  -2   0   75.89    4.69
   4   2   0   85.01    3.28
   4  -2   0   84.40    3.29
   4   2   0   82.64    3.98
  -4   2   0   72.36    4.10
  -4   2   0   77.06    3.80
  -4   2   0   78.54    3.65
  -4   2   0   83.51    3.31
   4   2   0   82.16    4.39
   4   2   0   85.15    3.80
   4  -2   0   82.23    4.18
   4   2   0   81.75    3.25
   4   2   2   45.93    2.68
   4   2   2   42.11    2.66
  -4  -2   2   41.80    1.77
  -4   2  -2   42.11    1.99
   4   2   2   44.46    3.52
   4  -2  -2   40.81    3.19
   4   2   2   47.64    4.38
   4  -2  -2   43.60    2.03
   4  -2  -2   44.97    2.69
   4   2   2   44.34    2.45
   4  -2  -2   39.12    2.14
   4   2   2   43.44    3.87
  -4  -2   2   46.36    1.76
   4  -2  -2   41.52    2.31
   4   2   2   43.98    3.14
   4   2   2   45.62    2.98
   4  -2   2   41.80    2.65
   4  -2   2   42.16    2.45
   4   2  -2   46.95    2.42
   4  -2   2   41.91    3.09
   4   2  -2   42.49    2.02
   4  -2   2   37.53    4.36
   4   2  -2   43.79    1.92
   4  -2   2   42.62    3.48
   4  -2   2   49.11    3.04
   4  -2   2   44.32    3.95
  -4   2   2   45.91    2.10
  -4  -2  -2   42.04    1.97
   4   2  -2   39.06    2.87
   4   2  -2   39.05    2.44
  -4   2   2   45.31    1.75
  -4   2   2   41.50    2.21
  -4  -2  -2   40.64    1.90
  -4   2   2   44.56    2.50
   4   2  -2   43.49    2.82
   4   2  -2   39.38    2.18
   4   2  -2   41.31    2.13
   4   2  -2   43.35    2.08
  -4   2   2   44.02    2.98
   4  -2   2   39.00    2.05
   4   2   4   30.71    3.13
   4  -2  -4   29.19    1.97
   4   2   4   33.73    2.83
   4   2   4   39.87    4.95
   4  -2  -4   26.75    1.47
   4   2   4   32.95    4.08
   4  -2  -4   29.12    1.56
   4   2   4   29.46    3.48
  -4   2  -4   28.61    1.66
   4   2   4   24.14    2.38
   4  -2  -4   25.86    1.66
   4   2   4   32.47    1.65
  -4  -2   4   33.20    1.32
   4   2   4   37.91    5.75
   4  -2  -4   26.97    2.43
  -4   2  -4   29.95    1.58
   4   2   4   31.48    2.70
   4  -2  -4   28.64    1.60
  -4   2   4   34.09    1.51
  -4  -2  -4   28.24    1.66
  -4   2   4   34.32    1.63
  -4   2   4   30.55    1.82
   4  -2   4   30.29    2.41
   4  -2   4   31.30    2.76
   4  -2   4   26.10    3.38
   4  -2   4   31.51    3.98
   4  -2   4   38.30    5.49
   4   2  -4   30.21    1.43
   4  -2   4   25.69    2.67
   4   2  -4   28.75    1.47
   4  -2   4   27.51    4.42
   4  -2   4   32.05    3.27
   4  -2   4   30.65    1.65
  -4   2   4   33.38    2.30
  -4   2   4   34.09    1.45
  -4  -2  -4   27.45    1.53
   4  -2  -6    6.97    1.00
  -4   2  -6   10.64    1.28
   4   2   6   11.05    1.12
  -4   2  -6    9.00    1.01
   4  -2  -6   11.29    1.14
  -4  -2  -6    8.61    1.25
  -4  -2  -6    9.18    1.04
   4  -2   6   10.13    1.14
   4   3   1    2.72    1.24
   4   3   1    2.46    0.85
  -4   3  -1    1.58    0.38
   4   3   1    3.02    1.52
   4  -3  -1    2.05    0.94
   4   3   1    2.21    0.40
   4   3   1    0.86    1.07
   4  -3  -1    1.39    1.24
  -4   3  -1    2.03    0.70
   4   3   1    3.34    2.44
  -4   3  -1    1.99    1.16
   4   3   1    2.76    0.74
   4   3   1    2.33    1.02
  -4   3  -1    3.72    1.75
   4  -3  -1    1.57    0.54
   4  -3  -1    1.55    0.67
   4   3   1    5.37    1.88
   4  -3  -1    2.23    0.31
   4  -3  -1    2.17    0.45
  -4   3  -1    1.77    0.82
   4   3  -1    0.17    0.75
   4  -3   1    1.74    0.69
   4   3  -1    1.74    0.71
   4   3  -1    2.22    0.62
   4  -3   1    2.56    1.54
   4   3  -1    1.19    0.57
   4   3  -1    2.35    0.54
   4   3  -1   -1.02    1.19
   4  -3   1    3.67    0.92
  -4  -3  -1    2.06    0.35
  -4   3   1    2.24    0.60
   4   3  -1    1.17    1.12
   4   3  -1    2.67    0.32
  -4   3   1    1.56    0.70
  -4   3   1    0.40    1.22
  -4   3   1    1.68    0.92
   4  -3   1    1.82    0.34
  -4   3   1    1.76    0.33
   4   3  -1    2.19    0.38
   4  -3   1    1.70    0.36
   4   3  -1    0.21    0.89
   4   3  -1    1.76    0.21
   4  -3   1    1.54    1.06
   4  -3  -3    6.51    2.17
   4   3   3   11.99    1.52
   4  -3  -3   10.53    1.29
   4   3   3   11.43    1.96
   4   3   3    8.66    1.94
   4  -3  -3   10.75    0.87
  -4   3  -3    6.67    0.75
   4  -3  -3   10.38    1.56
   4   3   3   13.05    3.49
   4  -3  -3    8.87    0.69
   4  -3  -3    7.94    1.65
   4   3   3   13.71    3.04
   4   3   3    9.24    2.44
   4   3   3   10.03    1.59
   4   3   3    8.11    0.75
  -4   3  -3    9.67    0.73
   4   3   3    8.34    1.57
   4   3  -3    9.57    0.60
  -4   3   3    7.46    0.99
   4  -3   3    9.15    1.66
  -4   3   3   10.61    0.89
  -4   3   3    8.86    0.61
   4  -3   3   11.24    1.48
  -4  -3  -3    7.80    0.80
  -4   3   3   11.59    1.31
   4   3  -3    7.31    0.55
   4  -3   3   12.61    2.34
   4   3  -3   10.83    0.99
   4   3  -3    9.35    0.68
   4   3  -3    9.47    0.74
   4   3  -3    9.47    0.54
   4  -3   3   10.18    3.22
  -4  -3  -3    7.94    0.66
   4  -3   3   13.04    2.10
   4  -3   3   12.21    1.72
   4   3  -3    8.38    0.66
   4  -3   3    8.33    0.77
   4  -3   3   14.03    2.83
   4  -3   3    9.06    2.29
   4   3  -3    7.31    0.49
  -4   3   3    5.55    1.47
   4   3  -3    8.89    0.86
   4   3   5   13.05    3.45
   4  -3  -5    6.16    1.46
   4  -3  -5    6.71    0.81
   4  -3  -5    8.39    0.95
   4   3   5    8.44    2.62
   4  -3  -5    6.63    1.02
  -4   3  -5    7.53    0.81
   4   3   5    9.37    1.85
  -4   3  -5    5.28    0.88
   4  -3  -5    6.75    1.11
   4   3   5    8.63    2.21
   4   3   5   13.92    6.38
   4   3   5    1.60    4.03
   4  -3  -5    7.51    0.85
   4   3   5   15.58    4.82
   4   3   5    8.24    0.90
   4   3   5    5.13    2.82
  -4  -3  -5    6.77    0.96
  -4  -3  -5    8.51    0.85
   4   3  -5    6.40    0.70
  -4   3   5    7.71    0.87
   4  -3   5    6.82    1.76
  -4   3   5    8.38    0.72
  -4   3   5    7.94    1.12
   4  -3   5   13.14    4.06
  -4   3   5    7.82    0.84
   4   3  -5    6.62    0.81
  -4   3   5    7.78    1.25
   4  -3   5    7.37    0.90
   4  -3   5    8.09    2.85
   4  -3   5   12.34    2.34
   4   4   0  228.41    9.95
   4   4   0  248.36   10.65
  -4   4   0  216.80    9.65
   4   4   0  242.10    9.06
   4  -4   0  233.08    9.53
  -4   4   0  239.84    9.15
   4  -4   0  241.83   10.13
  -4   4   0  219.49    9.49
   4  -4   0  236.01    9.73
   4   4   0  238.50    9.48
   4   4   0  249.14   10.28
  -4   4   0  221.36   10.04
  -4   4   0  227.23   10.69
   4   4   0  248.39    9.84
   4   4   0  257.14   11.01
   4   4   0  237.00    9.64
   4   4   0  245.91    9.62
   4  -4   0  237.03   10.76
   4  -4   0  233.46    9.13
   4  -4   0  239.56    9.16
  -4   4  -2  246.22    9.60
   4   4   2  247.55   11.57
   4   4   2  247.38   10.48
  -4   4  -2  248.12   11.70
   4   4   2  256.23   12.05
   4   4   2  232.23    9.64
   4   4   2  249.92   10.29
   4   4   2  244.79   10.77
   4  -4  -2  241.91   10.34
   4  -4  -2  241.10    9.80
   4  -4  -2  224.11    9.59
   4   4   2  244.96   10.03
  -4   4  -2  243.83   10.06
   4  -4  -2  248.02    9.27
  -4   4  -2  249.73   10.82
   4   4   2  246.62   10.19
  -4   4  -2  250.49   10.32
   4  -4  -2  250.68    9.27
   4  -4  -2  242.23    9.98
   4  -4  -2  230.30   10.85
   4   4   2  254.04   11.10
  -4  -4  -2  246.40    9.49
   4  -4   2  248.41   10.28
   4   4  -2  242.80    9.88
   4   4  -2  238.59   10.24
   4  -4   2  246.80    9.56
   4   4  -2  248.43    9.52
   4   4  -2  242.94    9.61
   4  -4   2  245.67   11.52
   4   4  -2  240.88    9.80
  -4   4   2  244.48   10.14
   4   4  -2  248.55    9.67
   4  -4   2  242.61   10.02
   4   4  -2  249.99    9.56
   4   4  -2  242.76   10.13
   4   4  -2  250.38    9.40
  -4   4   2  250.07   10.71
  -4   4   2  247.09    9.31
  -4   4   2  241.95    9.83
  -4   4   2  241.66    9.69
   4  -4   2  248.43   10.77
   4   4   4  151.15    7.63
   4   4   4  140.57    6.70
   4   4   4  135.32    8.67
   4   4   4  139.26    9.36
   4  -4  -4  137.14    5.81
   4   4   4  134.36    5.72
   4   4   4  149.99    8.07
   4   4   4  139.06    6.45
   4  -4  -4  142.45    6.38
  -4   4  -4  134.18    5.66
   4   4   4  143.91    6.83
   4   4   4  138.71    7.14
   4  -4  -4  136.00    5.97
   4  -4  -4  134.11    5.61
   4  -4  -4  140.83    5.73
  -4   4  -4  141.94    5.84
   4  -4  -4  139.11    7.00
  -4  -4  -4  142.13    5.77
   4  -4   4  143.47    7.13
  -4   4   4  141.62    5.57
   4   4  -4  146.59    5.50
   4  -4   4  132.90    9.36
   4  -4   4  143.23    6.72
   4  -4   4  135.50    5.75
   4  -4   4  140.29    7.96
   4  -4   4  143.43    8.55
   4  -4   4  141.83    6.73
   4  -4   4  133.31    7.34
   4  -4   4  141.83    6.42
  -4  -4  -4  139.79    5.67
   4   4   6   90.61    4.10
  -4   4  -6   93.03    4.28
  -4   4  -6   90.37    4.03
   4  -4  -6   94.66    4.09
   4  -4  -6   91.30    3.98
  -4  -4  -6   92.06    4.06
  -4  -4  -6   91.17    4.22
   4  -4   6   91.27    4.15
  -4   5  -1    0.46    1.12
   4   5   1    0.89    1.88
   4   5   1    0.51    0.60
   4   5   1   -0.13    0.97
  -4   5  -1    0.04    0.32
   4  -5  -1    0.43    0.95
   4  -5  -1   -0.18    0.35
   4  -5  -1    0.68    0.25
   4   5   1    0.46    0.70
   4   5   1    1.23    0.91
   4   5   1    1.46    0.84
   4  -5  -1    2.23    1.47
  -4   5  -1   -0.42    0.77
   4  -5  -1    0.93    0.55
  -4   5  -1    1.11    1.52
   4  -5  -1   -0.64    0.65
  -4   5  -1    0.70    0.65
   4   5   1    2.82    1.65
   4   5   1    0.46    0.26
   4   5   1   -0.47    1.19
   4  -5   1    0.50    0.31
  -4   5   1    0.36    0.53
   4  -5   1    0.27    0.64
   4  -5   1    0.53    0.79
   4   5  -1    1.11    0.80
   4   5  -1    0.61    0.28
   4   5  -1    0.26    1.32
   4  -5   1    0.44    0.32
   4  -5   1    0.42    1.02
  -4   5   1    0.71    0.29
  -4   5   1    1.30    0.89
   4   5  -1   -1.72    1.04
   4   5  -1    0.24    0.14
  -4   5   1    1.47    1.31
   4   5  -1    0.81    0.65
  -4  -5  -1    0.39    0.26
   4   5  -1    0.05    0.52
   4   5  -1    0.38    0.50
   4   5  -1    0.59    0.18
   4   5  -1    0.01    0.85
   4  -5   1   -0.86    1.44
  -4   5   1    0.28    0.65
   4   5  -1    0.26    0.42
   4   5   3    1.17    0.40
  -4  -5   3    1.95    0.41
  -4   5  -3    1.17    0.47
   4   5   3    1.12    1.69
   4   5   3    2.00    1.07
   4  -5  -3    2.69    0.99
  -4   5  -3    1.43    0.36
   4   5   3    3.41    2.69
   4  -5  -3    0.36    2.31
   4   5   3    3.42    1.18
   4   5   3    0.13    1.24
   4  -5  -3    1.40    1.15
   4  -5  -3    3.24    1.70
   4   5   3    4.56    1.53
   4   5   3    4.76    1.93
   4   5   3   -0.06    2.33
  -4   5   3    1.64    0.77
  -4  -5  -3    0.62    0.32
  -4   5   3    1.57    0.62
  -4   5   3    1.75    1.47
   4  -5   3    1.70    0.45
  -4   5   3    1.35    0.39
   4   5  -3    2.14    0.40
  -4   5   3    1.60    1.07
   4   5   5    2.22    4.21
   4  -5  -5    1.76    1.05
   4   5   5    0.13    1.61
   4  -5  -5    0.49    0.55
  -4   5  -5    1.99    0.57
   4  -5  -5    1.39    0.86
   4   5   5    1.28    1.95
   4   5   5    3.61    2.82
  -4   5  -5    1.68    0.71
   4  -5  -5    1.33    1.46
   4   5   5    1.28    0.56
   4  -5  -5    0.64    0.67
   4  -5  -5   -1.75    2.03
  -4   5   5    3.06    0.91
   4  -5   5    0.69    3.92
  -4   5   5    1.31    0.73
  -4  -5  -5    1.46    0.64
   4  -5   5    0.96    1.54
  -4   5   5    1.52    1.25
  -4  -5  -5    2.32    0.59
  -4   5   5    2.27    0.70
   4  -5   5   -2.21    1.81
  -4   5   5    3.35    1.79
   4  -5   5    5.92    2.70
   4  -5   5    0.99    0.60
   4   6   0  265.65   10.75
   4   6   0  256.73   10.08
   4   6   0  243.06   10.46
   4   6   0  238.98   10.09
   4  -6   0  251.20    9.67
   4  -6   0  249.70    9.63
   4   6   0  258.82   10.30
   4   6   0  237.47   10.99
  -4  -6   0  249.71    9.53
   4   6   0  252.03    9.52
   4  -6   0  254.02   11.33
  -4   6   0  249.92    9.64
  -4   6   0  245.02   10.05
   4   6   0  272.39   11.53
  -4   6   0  241.66   10.65
   4   6   0  247.51    9.94
   4  -6   0  248.72   10.06
  -4   6   0  250.33   11.40
   4  -6   0  248.78   10.66
  -4   6   0  239.75   10.23
   4  -6   0  240.14   10.23
  -4   6  -2  267.14   12.55
   4  -6  -2  261.73   10.71
   4  -6  -2  272.88   12.13
  -4   6  -2  271.34   10.41
  -4   6  -2  273.78   11.70
   4  -6  -2  263.83   11.35
   4   6   2  264.57   11.62
   4   6   2  220.41   11.29
   4   6   2  268.61   11.12
   4  -6  -2  255.94   10.45
   4   6   2  276.14   10.32
   4  -6  -2  267.80   10.13
  -4   6  -2  270.94   10.89
   4  -6  -2  261.85   10.31
   4   6   2  267.37   10.87
   4  -6  -2  256.42   10.90
   4  -6  -2  249.53   10.12
   4   6   2  275.09   12.52
  -4   6  -2  264.58   11.12
   4   6  -2  274.48   10.14
   4   6  -2  274.69   10.93
   4   6  -2  264.86   10.42
   4  -6   2  259.19   10.37
  -4  -6  -2  266.85   10.27
   4   6  -2  260.49   10.61
  -4   6   2  263.48   11.09
  -4   6   2  261.02   10.14
  -4   6   2  257.76   10.56
   4  -6   2  269.24   12.45
   4  -6   2  275.34   11.14
   4  -6   2  280.59   10.89
   4   6  -2  270.40   10.39
   4  -6   2  281.22   11.66
  -4   6   2  272.16   11.73
   4   6  -2  276.70   10.30
   4   6  -2  269.39   10.32
  -4   6   2  261.89   10.73
   4   6  -2  274.21   10.59
   4  -6  -4  165.72    6.86
   4  -6  -4  166.65    7.75
   4  -6  -4  162.60    6.74
   4   6   4  181.00    8.02
   4   6   4  173.09    6.82
   4  -6  -4  163.99    8.52
   4   6   4  171.71    9.07
   4  -6  -4  178.32    7.33
   4   6   4  167.23    7.78
   4  -6  -4  160.96    7.04
   4   6   4  169.24    8.19
   4   6   4  169.07    8.69
   4   6   4  170.99   10.41
   4   6   4  158.20    9.86
  -4   6  -4  165.46    6.76
   4   6   4  173.17    7.62
  -4   6  -4  172.65    6.95
   4  -6   4  168.07    6.86
   4   6  -4  179.98    6.49
  -4  -6  -4  161.77    6.74
   4  -6   4  167.48    8.23
  -4   6   4  172.44    6.91
  -4   6   4  171.92    7.42
  -4  -6  -4  170.11    6.86
   4  -6   4  161.95    7.51
  -4   6   4  167.61    7.06
   4  -6   4  175.01    7.86
  -4   6   4  166.87    8.02
   4  -6   4  177.42    7.93
  -4   6   4  165.45    6.70
   4  -6   4  166.64    9.14
   4  -6   4  161.47   10.57
   4  -6   4  164.04    9.64
   4  -6   4  164.25    8.51
  -4   6  -6  113.00    4.85
   4  -6  -6  115.13    4.94
   4  -6  -6  119.20    4.91
  -4   6  -6  115.49    5.12
   4   6   6  107.29    4.90
  -4  -6  -6  116.75    5.04
   4  -6   6  114.35    5.00
  -4  -6  -6  110.82    4.88
  -4   7  -1    2.01    1.77
   4   7   1   -1.09    1.26
  -4   7  -1    0.20    0.70
   4   7   1   -1.51    1.84
   4   7   1    0.93    1.01
   4   7   1    0.41    0.28
  -4   7  -1   -0.68    1.28
   4   7   1    1.72    0.86
   4  -7  -1    0.82    0.43
   4   7   1    0.74    0.84
   4   7   1    0.99    1.21
   4   7   1    0.82    0.70
  -4   7  -1    0.56    0.39
  -4  -7   1    0.59    0.20
  -4   7  -1    1.21    0.91
   4   7   1   -0.83    1.67
   4  -7  -1    0.15    0.28
   4   7  -1    0.49    0.27
   4   7  -1    0.58    0.48
   4   7  -1    0.63    0.92
   4  -7   1    1.35    1.16
  -4   7   1   -0.22    0.54
   4  -7   1    2.00    0.91
  -4   7   1    0.81    1.05
   4  -7   1    0.77    0.72
   4   7  -1    1.71    1.15
   4   7  -1    0.06    0.81
   4  -7   1    1.17    0.37
   4   7  -1    0.98    0.53
  -4   7   1    0.81    0.31
   4   7  -1    0.86    0.66
   4  -7   1    0.18    0.30
  -4  -7  -1    1.07    0.28
   4   7  -1    0.91    0.62
   4   7  -1   -0.57    1.31
   4  -7   1    1.84    1.70
  -4   7   1    0.74    1.45
  -4   7   1    0.15    0.70
   4   7   3    0.50    0.34
   4   7   3    4.10    2.52
  -4   7  -3    0.09    0.42
   4   7   3    1.89    1.22
   4  -7  -3    0.29    1.29
   4   7   3    0.61    1.54
  -4   7  -3    1.89    1.31
   4  -7  -3   -0.05    0.99
   4  -7  -3    1.04    0.43
   4  -7  -3    0.20    2.46
  -4   7  -3    0.70    1.04
   4   7   3    0.91    1.00
  -4   7  -3   -0.05    2.71
  -4   7  -3   -1.97    1.73
   4  -7  -3    0.51    0.58
   4  -7  -3    0.68    1.79
  -4   7   3    1.23    0.40
  -4   7   3   -1.12    1.53
   4  -7   3    0.59    1.03
   4  -7   3    0.39    0.39
  -4   7   3    1.53    1.10
  -4   7   3    0.19    0.63
   4   7  -3    0.59    0.26
   4  -7   3    0.24    1.84
   4  -7   3    1.09    1.34
  -4  -7  -3    1.26    0.41
   4  -7   3    3.36    2.72
  -4   7   3    0.58    0.76
   4  -7  -5   -0.02    0.68
   4   7   5   -0.62    0.46
   4  -7  -5   -1.90    1.44
   4  -7  -5   -0.07    1.14
   4   7   5    3.61    4.66
  -4   7  -5    1.51    0.72
   4   7   5   -1.36    3.04
   4  -7  -5    0.99    2.98
   4  -7  -5    0.10    0.59
   4  -7  -5    0.87    2.03
   4   7   5    2.45    2.18
  -4   7  -5    0.14    0.51
   4   7   5    0.85    1.75
  -4   7   5   -1.10    1.54
  -4   7   5    0.50    0.65
  -4  -7  -5   -0.35    0.57
  -4   7   5   -0.04    1.10
  -4  -7  -5    0.95    0.57
   4  -7   5    3.88    1.76
   4  -7   5    2.42    2.17
   4  -7   5   -0.01    0.55
  -4   7   5    1.37    0.90
   4  -7   5    0.28    3.93
   4  -7   5    2.12    2.86
  -4   8   0   15.09    1.54
   4   8   0   14.08    1.37
  -4   8   0   16.74    2.74
   4   8   0   16.64    1.81
   4   8   0   14.45    2.48
   4  -8   0   15.33    2.64
   4   8   0   14.78    1.36
   4   8   0   14.13    1.19
   4   8   0   15.76    1.57
  -4   8   0   15.96    1.36
   4   8   0   15.73    2.37
  -4   8   0   14.14    1.93
   4   8   0   15.07    0.75
  -4   8   0   13.97    0.89
   4  -8   0   14.32    0.89
   4  -8   0   13.82    0.95
   4  -8   0   14.21    1.35
   4   8   0   13.15    1.94
   4  -8   0   13.16    1.53
   4  -8   0   11.12    1.85
  -4  -8   0   16.10    0.78
   4  -8  -2    6.14    1.27
  -4   8  -2    2.46    2.33
   4  -8  -2    4.04    0.73
   4   8   2    4.37    0.54
   4  -8  -2    6.33    2.19
   4   8   2    0.72    2.34
   4   8   2    3.53    1.00
   4   8   2    7.33    2.08
   4   8   2    5.61    1.31
  -4  -8   2    3.12    0.52
   4   8   2    6.13    2.24
  -4   8  -2    3.24    1.21
  -4   8  -2    4.02    0.65
  -4   8  -2    3.69    1.03
   4  -8  -2    4.14    0.46
  -4   8  -2    5.64    1.80
  -4  -8   2    4.12    0.34
   4   8   2    4.59    1.19
   4  -8  -2    4.74    1.55
   4  -8  -2    4.32    0.62
   4   8   2    1.94    1.44
   4   8   2    4.14    1.35
   4  -8  -2    3.98    0.96
   4   8  -2    4.68    0.69
  -4   8   2    1.37    1.79
  -4   8   2    3.58    0.55
  -4  -8  -2    3.19    0.47
   4   8  -2    5.73    0.77
   4  -8   2    3.24    2.18
   4   8  -2    4.64    1.17
  -4   8   2    2.94    1.33
   4  -8   2    4.13    1.02
  -4   8   2    3.56    1.00
   4   8  -2    4.13    0.86
   4  -8   2    5.49    1.26
   4   8  -2    4.24    0.61
   4   8  -2    5.28    0.35
   4   8  -2    4.48    1.28
   4   8  -2    4.03    0.37
   4  -8   2    3.89    0.59
   4  -8   2    3.98    0.52
   4  -8   2    7.66    1.80
  -4   8   2    3.73    0.88
   4   8  -2    4.29    0.95
   4   8  -2    4.13    0.73
  -4   8  -4    3.92    0.67
   4  -8  -4    3.70    0.69
  -4   8  -4    3.64    0.74
   4  -8  -4    4.79    0.87
   4  -8  -4    4.13    1.52
   4   8   4    3.88    0.62
   4   8   4    3.61    1.54
   4   8   4    4.06    2.42
   4   8   4    6.65    1.87
   4  -8  -4    2.11    2.03
   4   8   4    3.57    4.98
   4   8   4    4.68    2.46
   4   8   4    3.62    3.28
   4  -8  -4   -0.89    2.75
   4   8   4    4.74    2.07
   4   8   4    4.39    3.52
   4  -8  -4    5.34    1.26
   4  -8   4    4.63    2.34
   4  -8   4    2.94    1.39
  -4   8   4    4.60    0.76
  -4  -8  -4    3.44    0.55
   4  -8   4   10.21    3.58
  -4   8   4    3.35    0.96
   4  -8   4    4.36    1.74
  -4   8   4    2.70    1.57
   4  -8   4    4.13    0.71
  -4   8   4    4.10    1.16
  -4   8   4    5.64    2.26
   4  -8   4   -0.39    3.74
  -4   8  -6   -0.26    0.61
   4  -8  -6    0.98    0.91
  -4   8  -6   -0.01    0.86
   4  -8  -6   -0.07    0.94
   4   8   6   -0.18    0.63
   4  -8   6    0.16    0.73
  -4  -8  -6    0.42    0.80
  -4  -8  -6    0.30    0.64
   4  -9  -1    2.36    0.92
   4   9   1    1.14    0.87
   4   9   1    2.87    0.97
   4   9   1    1.91    1.07
  -4   9  -1    3.19    0.95
   4   9   1    0.92    0.76
  -4   9  -1    1.69    1.51
  -4  -9   1    1.51    0.26
   4   9   1    1.38    0.33
  -4   9  -1    2.76    1.14
   4   9   1    2.00    1.49
   4  -9  -1   -0.48    1.70
   4   9   1    4.77    1.91
   4   9   1    3.23    2.11
   4  -9  -1    1.49    0.80
   4  -9  -1    1.40    0.53
   4  -9  -1    1.76    0.41
  -4   9  -1    2.49    2.17
   4  -9  -1    2.70    1.26
   4   9   1   -0.59    1.20
  -4   9   1    0.54    1.13
  -4   9   1    1.43    1.68
   4   9  -1    0.80    0.66
  -4  -9  -1    1.62    0.33
   4   9  -1    1.49    0.72
  -4   9   1    1.75    0.42
   4   9  -1    0.86    0.54
  -4   9   1    2.09    0.76
   4   9  -1    1.56    1.06
   4  -9   1    0.11    1.76
   4  -9   1    1.71    1.01
   4  -9   1    1.90    0.46
   4  -9   1    1.46    0.41
   4  -9   1    3.00    1.38
   4  -9   1    3.15    0.89
   4   9  -1    0.84    1.39
   4   9  -1    1.60    0.29
   4   9  -1    2.41    0.40
   4   9  -1   -1.83    1.25
  -4   9   1    2.16    0.92
   4   9  -1    1.18    0.57
   4   9  -1    0.75    0.93
   4   9   3    5.27    2.49
  -4   9  -3    4.73    0.79
   4   9   3    9.17    1.65
   4  -9  -3   12.02    2.11
   4   9   3    4.70    1.57
  -4   9  -3    3.37    2.06
   4  -9  -3    4.84    0.45
   4   9   3    4.28    0.59
   4   9   3    3.23    1.98
   4  -9  -3    5.31    0.97
   4  -9  -3    6.55    1.43
   4  -9  -3    5.86    0.72
   4   9   3    8.53    2.96
   4  -9  -3    6.76    3.03
   4   9   3    8.10    1.63
   4   9   3    1.79    3.31
   4   9   3    7.13    1.90
   4  -9  -3    8.00    2.32
  -4   9  -3    6.98    2.85
  -4   9  -3    6.46    1.36
  -4   9  -3    3.81    1.50
  -4   9   3    5.23    1.01
   4  -9   3    3.81    1.46
  -4   9   3    5.01    0.38
   4  -9   3   10.14    1.64
  -4   9   3    6.06    0.68
   4  -9   3    5.21    0.70
  -4   9   3    6.88    1.59
  -4  -9  -3    4.51    0.54
   4  -9   3    6.99    2.16
  -4   9   3    8.47    1.45
   4  -9   3   -0.15    2.91
  -4   9   3    3.83    2.16
   4   9   5    7.07    2.08
   4  -9  -5    3.25    0.86
   4   9   5    7.21    3.43
   4  -9  -5    7.29    1.08
  -4   9  -5    5.09    0.80
   4   9   5    3.64    2.42
   4   9   5   16.96    5.09
   4   9   5    3.52    0.72
  -4   9  -5    4.42    0.90
  -4  -9  -5    4.39    0.88
  -4  -9  -5    3.85    0.73
   4  -9   5    4.76    0.90
  -4   9   5    5.53    1.07
   4 -10   0  187.27    8.43
  -4  10   0  180.39    7.16
   4 -10   0  182.57    7.21
   4  10   0  187.35    8.26
  -4  10   0  177.54    9.12
  -4  10   0  178.75    7.64
   4  10   0  175.03    8.83
  -4 -10   0  188.16    7.00
   4  10   0  185.24    7.81
   4  10   0  181.83    7.58
   4 -10   0  184.34    7.69
   4 -10   0  185.08    7.91
  -4  10   0  171.84    7.82
  -4  10   0  177.35    8.33
   4 -10   0  179.02    9.20
   4 -10   0  176.23    7.17
   4  10   0  186.73    7.00
   4 -10  -2  158.43    6.11
   4  10   2  159.54    6.97
   4  10   2  157.77    6.20
   4  10   2  157.53    7.27
  -4  10  -2  155.83    6.34
  -4 -10   2  151.55    5.95
  -4  10  -2  166.56    8.89
   4  10   2  152.36    7.86
   4  10   2  147.16    8.83
   4 -10  -2  152.60    7.70
  -4  10  -2  150.69    6.83
  -4  10  -2  150.98    7.10
   4 -10  -2  164.01    7.18
  -4 -10   2  162.75    5.92
  -4  10  -2  159.54    7.75
   4 -10  -2  161.11    6.88
   4 -10  -2  156.99    6.29
   4 -10  -2  151.73    6.40
   4 -10  -2  163.36    8.63
   4 -10   2  141.50    8.43
   4  10  -2  160.90    6.52
  -4  10   2  146.32    6.83
   4  10  -2  154.99    6.36
  -4 -10  -2  157.57    6.15
   4 -10   2  156.56    6.31
   4 -10   2  154.15    6.22
   4 -10   2  156.04    7.67
   4  10  -2  160.21    6.20
  -4  10   2  155.49    6.11
   4  10  -2  151.19    6.58
   4  10  -2  160.90    6.31
   4  10  -2  164.56    6.94
   4 -10   2  151.59    7.10
  -4  10   2  158.11    8.09
   4  10  -2  158.79    6.25
  -4  10   2  149.15    6.63
   4  10  -2  156.15    7.01
  -4  10   2  148.47    7.26
   4 -10   2  153.29    6.82
   4  10   4  165.59    9.17
   4 -10  -4  166.89    7.40
   4  10   4  167.98    8.08
   4 -10  -4  164.31    7.73
   4  10   4  171.24   10.54
   4  10   4  163.40    8.24
  -4  10  -4  170.83    8.01
   4 -10  -4  179.13    9.86
   4 -10  -4  163.73    6.93
   4 -10  -4  171.22    6.82
   4 -10  -4  178.84    8.51
  -4  10  -4  175.22    6.98
  -4  10  -4  174.88    6.75
  -4  10  -4  169.01    7.63
   4  10   4  169.95   10.75
   4  10   4  158.68    6.75
  -4  10  -4  177.85   10.48
   4  10   4  172.46    7.86
   4  10   4  174.74    7.75
   4  10   4  168.12    8.92
  -4  10  -4  167.66    8.82
   4 -10   4  170.03    7.58
   4 -10   4  166.05    8.67
   4 -10   4  167.93    7.92
  -4  10   4  160.66    7.87
  -4 -10  -4  164.04    6.70
   4 -10   4  144.01    9.78
   4 -10   4  163.12    6.84
  -4  10   4  156.92    7.35
  -4  10   4  162.23    7.12
  -4  10   4  162.66    8.78
   4 -11  -1    2.26    1.17
  -4 -11   1    1.95    0.31
  -4  11  -1    2.45    0.95
   4 -11  -1    1.47    2.01
  -4  11  -1    1.80    0.52
  -4  11  -1    5.14    2.27
   4 -11  -1    4.72    1.67
   4  11   1    4.16    1.71
   4 -11  -1    2.56    0.47
   4 -11  -1    2.47    0.59
   4  11   1    5.70    2.45
   4  11   1    0.38    1.14
  -4  11  -1    0.96    1.11
   4 -11  -1    3.30    1.00
   4  11   1    2.64    0.99
  -4  11  -1    5.14    1.66
  -4  11   1    3.11    1.02
   4  11  -1    2.99    0.32
   4  11  -1    2.44    0.88
   4  11  -1    2.73    0.73
   4 -11   1    2.31    0.88
  -4  11   1    4.37    1.45
   4 -11   1    3.42    2.25
   4  11  -1    3.50    0.85
   4  11  -1    1.52    1.05
   4  11  -1    3.60    1.22
   4 -11   1    2.49    0.49
  -4 -11  -1    3.57    1.27
  -4  11   1    3.39    0.91
  -4  11   1    2.31    2.02
   4  11  -1    2.72    0.72
   4 -11   1    3.07    0.53
   4 -11   1    1.80    1.07
   4  11  -1    2.10    1.53
  -4 -11  -1    2.18    0.41
  -4 -11  -1    4.38    1.08
  -4  11   1    2.47    0.49
   4  11  -1    3.60    1.71
  -4 -11  -1    0.23    2.17
   4 -11   1    1.21    1.46
  -4 -11  -1    0.93    1.54
   4  11  -1    2.52    0.39
   4 -11  -3   13.71    1.04
  -4  11  -3   17.59    3.14
   4  11   3   13.61    2.01
  -4  11  -3   15.08    2.29
   4  11   3   14.32    2.25
  -4  11  -3   14.87    1.93
   4 -11  -3   18.31    2.52
   4  11   3   12.21    3.94
   4 -11  -3   12.59    0.77
   4  11   3   14.57    2.89
   4 -11  -3   12.02    1.10
   4 -11  -3   12.51    1.98
  -4  11  -3   13.66    1.11
   4  11   3   10.83    0.88
   4 -11  -3   17.66    3.99
  -4  11  -3   14.17    3.79
   4 -11  -3   15.30    2.96
  -4  11   3   11.83    1.82
   4 -11   3   13.98    2.57
  -4  11   3   12.88    0.72
  -4  11   3   13.16    2.41
   4 -11   3   12.98    1.03
   4 -11   3   15.56    1.91
  -4  11   3   14.25    1.56
  -4  11   3   13.09    2.88
   4 -11   3   11.50    0.87
   4 -11   3   10.20    3.20
   4 -11   3   14.45    2.24
  -4 -11  -3   10.56    0.84
   4  11   5   12.02    1.07
  -4  11  -5   12.09    1.09
   4 -11  -5   10.34    1.30
  -4  11  -5   12.36    1.32
   4  11   5   10.04    5.32
   4  11   5    7.11    2.81
   4 -11  -5   10.98    1.19
   4  11   5    6.06    3.73
   4  11   5   15.44    2.61
  -4  11   5   12.09    1.21
  -4 -11  -5   11.72    1.05
   4 -11   5   11.56    1.17
  -4 -12   0  108.40    4.11
   4 -12   0  108.53    4.91
  -4  12   0  105.13    5.67
  -4 -12   0  108.02    5.54
  -4  12   0  107.62    6.64
   4 -12   0   97.68    5.58
   4  12   0  111.08    6.36
  -4  12   0  102.77    4.31
   4  12   0  106.33    5.00
  -4 -12   0   94.80    6.11
  -4 -12   0  102.62    5.03
   4 -12   0  104.81    4.33
   4  12   0  104.63    5.48
   4  12   0  101.02    4.71
   4 -12   0  109.09    5.16
   4 -12   0  106.84    6.52
   4 -12   0  103.82    4.36
  -4  12   0   99.95    4.84
  -4  12   0  102.50    5.12
   4  12   0  105.23    4.12
  -4 -12   0  104.63    4.80
   4  12   2   65.49    3.89
   4  12   2   67.78    4.69
   4  12   2   59.66    3.49
  -4  12  -2   67.69    4.51
  -4  12  -2   58.70    5.54
  -4  12  -2   60.08    3.41
   4 -12  -2   58.66    2.79
  -4  12  -2   60.33    2.82
   4 -12  -2   62.60    2.95
   4  12   2   66.11    5.80
   4 -12  -2   59.12    2.64
   4  12   2   64.59    2.69
  -4  12  -2   58.81    3.72
  -4 -12  -2   64.15    4.54
   4  12  -2   59.46    2.72
   4  12  -2   60.31    3.61
  -4  12   2   58.71    3.33
   4 -12   2   63.92    2.72
  -4 -12  -2   55.21    3.51
  -4 -12  -2   61.15    3.91
   4 -12   2   63.81    3.70
  -4  12   2   60.83    3.61
   4  12  -2   59.03    2.97
   4  12  -2   58.61    3.10
  -4 -12  -2   61.84    2.63
   4 -12   2   65.77    3.48
   4  12  -2   53.72    3.79
   4 -12   2   70.67    4.46
   4  12  -2   60.75    2.83
  -4  12   2   66.54    2.70
  -4  12   2   63.21    5.18
   4  12  -2   59.69    3.30
   4  12  -2   58.69    2.84
   4 -12   2   71.84    5.44
  -4  12   2   63.15    4.21
  -4 -12  -2   61.55    5.70
   4 -12   2   62.91    2.81
   4  12   4   51.54    5.20
  -4  12  -4   30.45    4.36
   4  12   4   44.10    3.98
  -4  12  -4   37.99    6.47
   4 -12  -4   39.06    2.44
   4 -12  -4   38.26    2.20
  -4  12  -4   42.85    2.34
  -4  12  -4   38.58    3.12
   4  12   4   36.87    7.08
  -4  12  -4   44.19    3.66
   4  12   4   45.07    2.15
   4  12   4   45.52    3.55
  -4 -12  -4   42.71    2.08
  -4  12   4   48.21    2.19
   4 -12   4   45.57    2.26
   4 -12   4   33.03    5.88
   4 -12   4   46.72    3.21
   4 -12   4   46.85    4.49
   4 -12   4   44.45    3.62
  -4 -13   1    3.79    0.34
  -4  13  -1    3.81    1.17
   4 -13  -1    3.58    1.18
   4 -13  -1    3.90    2.59
   4  13   1    5.91    1.48
   4 -13  -1    4.31    1.90
   4 -13  -1    2.85    0.59
  -4  13  -1    6.08    1.98
  -4  13  -1    3.08    0.59
   4 -13  -1    4.77    0.77
   4  13   1    4.06    1.17
   4 -13  -1    4.92    1.43
   4  13   1    5.65    1.97
  -4  13  -1    2.92    2.59
   4  13   1    7.28    2.75
  -4  13  -1    5.83    1.45
  -4 -13  -1   -0.85    2.33
  -4 -13  -1    5.52    1.46
   4 -13   1    4.77    1.35
  -4  13   1    3.88    0.66
   4  13  -1    3.46    0.99
  -4 -13  -1    3.80    0.44
  -4 -13  -1    4.86    1.22
   4 -13   1    4.55    1.77
  -4 -13  -1    7.93    1.98
   4  13  -1    6.46    2.00
  -4  13   1    3.33    1.03
   4 -13   1    1.92    2.42
   4  13  -1    3.51    0.42
   4  13  -1    4.69    1.36
  -4  13   1    6.62    2.74
  -4  13   1    2.76    1.75
  -4  13   1    4.15    1.34
   4  13  -1    3.49    0.33
   4  13  -1    3.64    0.79
   4 -13   1    4.30    0.64
   4 -13   1    3.52    1.06
   4 -13   1    4.06    0.55
   4 -13  -3   11.37    3.07
   4 -13  -3   13.95    2.15
  -4  13  -3   16.34    3.25
  -4  13  -3   15.65    1.24
  -4  13  -3   17.44    4.09
  -4  13  -3   15.76    2.02
   4 -13  -3   13.41    0.91
  -4  13  -3   16.25    2.41
   4 -13  -3   15.33    1.15
   4 -13  -3   20.17    2.75
   4  13   3   14.13    1.00
   4  13   3   17.49    2.32
   4 -13  -3   20.85    4.43
   4  13   3   16.76    2.78
   4  13   3   23.08    3.73
   4 -13  -3   14.54    1.28
   4  13   3   14.10    4.20
   4 -13   3   20.02    3.11
  -4  13   3   15.84    0.89
  -4  13   3   13.00    2.25
   4 -13   3   14.21    1.12
   4 -13   3   17.27    2.33
  -4  13   3   18.95    3.60
   4 -13   3   13.02    0.99
  -4 -13  -3   15.62    3.29
  -4 -13  -3   19.65    4.57
  -4  13   3   15.55    1.10
  -4  13   3   13.31    1.89
  -4 -13  -3   17.61    2.47
  -4 -13  -3   13.95    2.51
  -4 -13  -3   14.14    0.96
  -4  13   3    9.50    2.46
   4 -13   3   15.98    2.00
   4 -13   3   15.16    3.59
   4 -13  -5   15.97    1.38
  -4  13  -5   15.63    1.20
   4  13   5   12.52    1.19
   4  13   5   13.67    3.38
   4  13   5    8.18    6.13
   4  13   5   16.41    4.48
  -4  13  -5   13.86    1.49
   4  13   5   20.38    3.46
   4 -13  -5   13.99    1.52
   4 -13   5   14.50    1.32
  -4  13   5   17.87    1.33
  -4 -13  -5   13.59    1.16
  -4 -14   0   12.22    2.32
  -4 -14   0   12.26    1.78
   4  14   0   11.83    2.28
  -4 -14   0   11.97    0.69
  -4 -14   0    9.44    1.48
   4 -14   0   12.63    1.96
   4  14   0   15.74    2.98
  -4  14   0   12.75    0.97
   4  14   0   11.60    0.72
   4 -14   0   12.88    1.66
   4 -14   0   12.99    3.07
  -4  14   0   14.81    2.66
   4 -14   0   13.27    2.31
  -4  14   0   12.07    3.15
   4  14   0   13.33    1.78
   4 -14   0   12.97    0.95
  -4  14   0   11.50    1.97
   4 -14   0   11.18    0.89
  -4 -14   0   10.96    2.77
  -4  14   0   13.70    1.69
   4  14   0   14.43    1.54
   4 -14  -2   17.46    1.28
   4 -14  -2   18.59    1.23
   4 -14  -2   17.28    1.12
   4  14   2   13.64    2.44
   4  14   2   18.54    1.06
  -4  14  -2   18.02    1.97
  -4  14  -2   20.22    3.97
   4 -14  -2   19.80    3.97
   4 -14  -2   20.32    2.69
  -4  14  -2   14.71    2.29
  -4  14  -2   17.70    1.26
   4  14   2   22.18    3.96
   4 -14  -2   25.40    3.56
   4  14   2   19.50    2.14
   4 -14  -2   16.66    2.24
  -4  14  -2   17.59    2.97
   4  14   2   18.11    3.08
  -4  14   2   17.83    1.93
   4  14  -2   14.61    2.45
   4 -14   2   18.36    1.11
   4 -14   2   20.14    3.94
   4  14  -2   20.27    1.45
   4  14  -2   16.18    1.42
   4 -14   2   17.77    1.19
  -4  14   2   19.42    1.15
   4  14  -2   14.42    2.84
  -4 -14  -2   16.87    0.99
   4 -14   2   18.63    3.07
   4 -14   2   18.01    2.32
  -4 -14  -2   16.33    3.27
   4  14  -2   18.31    1.79
  -4 -14  -2   14.09    2.12
   4  14  -2   15.23    1.23
  -4  14   2   19.25    3.74
   4  14  -2   14.07    2.02
  -4 -14  -2   19.51    2.60
  -4  14   2   20.85    2.91
  -4 -14  -2   17.59    4.04
   4  14  -2   17.68    1.64
   4 -14   2   19.13    1.99
  -4  14   2   18.86    2.27
  -4  14  -4    3.76    2.14
  -4  14  -4    4.45    4.35
   4  14   4   11.52    5.41
  -4  14  -4    1.32    1.70
   4 -14  -4    4.21    0.59
  -4  14  -4    6.66    1.05
  -4  14  -4    4.95    0.77
   4 -14  -4    4.34    0.96
   4  14   4    4.63    0.73
   4 -14  -4    3.95    0.81
  -4  14  -4   -0.71    2.94
   4  14   4    3.89    2.08
   4  14   4    2.95    3.47
   4  14   4    3.90    2.54
   4 -14   4    3.35    0.62
   4 -14   4    5.34    2.07
   4 -14   4    6.01    0.92
  -4 -14  -4    5.50    2.70
  -4  14   4    7.51    0.88
  -4 -14  -4    6.43    4.84
   4 -14   4    3.61    1.71
  -4 -14  -4    4.45    2.24
   4 -14   4   10.24    3.00
   4 -14   4    1.31    3.75
  -4 -14  -4   -0.73    3.34
  -4 -14  -4    4.88    0.72
   4 -15  -1    1.94    1.99
  -4 -15   1    2.27    1.03
   4  15   1    4.86    1.58
  -4 -15   1    2.27    0.87
   4 -15  -1    1.15    1.45
  -4  15  -1    3.17    1.88
  -4  15  -1    1.64    1.10
  -4 -15   1    3.02    1.36
   4  15   1    2.19    1.14
   4 -15  -1    1.88    1.20
  -4  15  -1    4.92    1.49
   4 -15  -1    1.53    0.47
  -4  15  -1   -1.19    2.69
  -4 -15   1    1.80    0.29
   4 -15  -1    1.83    0.62
   4  15   1    2.64    0.48
   4  15   1    1.48    2.70
  -4  15  -1    4.36    0.76
   4  15   1    2.88    1.96
   4 -15  -1    1.72    2.82
  -4 -15   1    2.83    2.01
  -4 -15  -1    0.30    1.90
   4  15  -1    1.84    0.85
   4 -15   1    3.46    1.45
  -4 -15  -1    3.19    1.25
  -4 -15  -1    4.66    2.92
  -4  15   1    2.97    2.97
   4 -15   1    2.60    1.19
  -4 -15  -1    1.10    1.46
  -4  15   1    2.79    0.64
   4 -15   1    4.68    2.49
   4 -15   1    1.78    0.54
  -4 -15  -1    2.46    0.44
   4  15  -1    2.76    2.11
  -4  15   1    1.85    1.13
   4 -15   1    1.70    0.48
   4 -15   1    0.57    1.74
   4  15  -1    2.06    1.49
  -4  15   1    3.46    1.43
  -4  15   1    5.25    2.05
   4  15  -1    1.20    1.03
   4 -15  -3    9.14    1.18
   4 -15  -3    8.84    0.98
  -4  15  -3    5.63    0.89
   4  15   3    8.40    2.28
  -4  15  -3    6.76    2.03
   4  15   3   20.43    4.47
  -4  15  -3    8.72    2.80
  -4  15  -3    9.97    1.83
   4  15   3    8.97    0.80
   4 -15  -3    7.86    0.84
   4  15   3    6.17    1.79
   4  15   3   14.42    3.15
  -4  15  -3   10.88    3.97
  -4  15   3    7.92    0.77
   4  15  -3    9.12    1.03
  -4 -15  -3    9.16    3.14
  -4  15   3   13.96    2.40
  -4  15   3    7.48    1.62
  -4 -15  -3   10.24    2.49
   4  15  -3    8.53    0.72
   4  15  -3    7.93    0.56
   4 -15   3    5.55    2.61
   4  15  -3    8.20    0.72
   4  15  -3    8.15    0.60
   4 -15   3    6.94    1.69
   4  15  -3    8.36    0.52
   4  15  -3    8.53    0.53
  -4 -15  -3    4.28    4.13
  -4  15   3   10.12    2.70
  -4 -15  -3   15.81    2.51
   4 -15   3    8.31    0.89
   4 -15   3    6.77    1.98
   4  15  -3    9.84    1.01
   4 -15   3    7.50    0.75
  -4  15   3    9.68    0.94
   4 -15   3   11.23    3.71
  -4  15   3   11.29    3.86
  -4 -15  -3    8.07    0.75
   4 -15  -5    6.76    1.15
   4 -15  -5    8.58    1.41
  -4  15  -5    8.75    1.14
  -4  15  -5    7.18    1.28
   4  15   5    6.48    0.93
   4 -15   5    6.81    1.16
   4 -15   5    4.88    0.87
  -4  15   5    6.29    1.09
  -4 -15  -5    9.28    1.02
  -4 -16   0   89.93    6.17
   4 -16   0   84.12    4.73
   4 -16   0   87.34    6.57
  -4 -16   0   84.32    3.31
  -4 -16   0   84.46    4.51
   4  16   0   81.25    4.39
   4  16   0   84.79    5.95
  -4  16   0   75.05    6.53
   4  16   0   84.10    4.12
   4 -16   0   87.20    4.41
   4 -16   0   82.43    3.65
   4 -16   0   79.20    3.57
  -4 -16   0   76.24    5.01
  -4 -16   0   85.68    4.22
  -4  16   0   82.95    5.45
  -4  16   0   79.85    4.34
   4  16   0   80.15    3.35
   4 -16   0   90.94    5.46
  -4  16   0   78.87    3.60
  -4  16   0   82.20    4.70
   4  16   0   80.65    4.94
  -4  16  -2  109.90    6.37
  -4  16  -2  104.08    7.75
  -4  16  -2  103.22    4.47
   4 -16  -2  100.75    6.66
  -4  16  -2  103.28    5.56
   4  16   2   95.93    7.96
   4 -16  -2  102.50    4.31
   4 -16  -2  115.74    8.34
   4  16   2   99.72    5.25
   4  16   2  109.44    5.75
   4 -16  -2  102.98    4.47
   4 -16  -2  103.57    5.85
   4  16   2  112.53    6.64
   4  16   2  104.62    4.26
   4 -16  -2   99.69    5.38
  -4  16  -2   95.88    5.15
   4 -16  -2  116.33    4.61
   4 -16   2  101.35    4.34
  -4 -16  -2  101.16    6.61
   4 -16   2   96.52    5.42
   4  16  -2   99.13    5.19
  -4  16   2   98.79    4.27
  -4  16   2   98.00    6.28
  -4  16   2  101.76    7.86
  -4  16   2  103.63    5.20
  -4 -16  -2  104.56    5.42
   4 -16   2   96.25    7.31
  -4  16   2  106.53    5.63
  -4 -16  -2  105.49    4.22
   4 -16   2  106.87    5.16
   4  16  -2  102.82    4.57
  -4 -16  -2  105.80    5.81
   4 -16   2  104.14    6.26
  -4 -16  -2  102.00    8.01
   4 -16   2   99.92    4.42
   4  16  -2  103.54    6.03
   4  16  -2   98.65    4.76
   4 -16  -4   69.07    3.47
  -4  16  -4   66.01    6.20
   4  16   4   65.08    9.00
  -4  16  -4   86.93    8.63
   4  16   4   74.17    3.26
   4  16   4   66.52    4.70
   4  16   4   74.74    6.77
  -4  16  -4   65.39    4.56
   4 -16  -4   72.67    3.39
  -4  16  -4   67.15    5.09
  -4  16  -4   72.95    3.48
   4 -16  -4   72.61    3.58
   4  16   4   54.17    5.21
  -4  16   4   74.99    3.30
  -4 -16  -4   79.72    9.65
   4 -16   4   67.36    4.92
  -4 -16  -4   75.11    5.21
  -4 -16  -4   72.21    7.00
   4 -16   4   59.79    5.84
  -4 -16  -4   84.28    5.96
   4 -16   4   71.04    3.37
   4 -16   4   80.67    7.73
  -4 -16  -4   74.62    3.22
   4 -16   4   73.15    3.22
   4 -16   4   67.86    4.55
  -4  17  -1    1.15    0.59
  -4  17  -1    1.96    1.29
  -4 -17   1    2.20    1.01
   4  17   1   -0.71    2.15
   4 -17  -1    2.93    2.33
   4 -17  -1   -8.44    3.10
  -4  17  -1    0.99    2.02
   4 -17  -1    1.85    0.71
  -4  17  -1    0.08    3.04
  -4 -17   1    0.59    2.31
   4  17   1    1.19    1.57
   4 -17  -1    3.25    1.69
   4  17   1    1.57    0.42
  -4 -17   1    1.35    0.32
  -4 -17   1   -0.94    1.53
  -4  17  -1   -0.18    1.48
   4  17   1    2.07    3.29
  -4 -17   1   -0.33    1.12
   4 -17  -1    1.08    1.29
   4 -17  -1    1.93    0.51
   4  17   1    0.45    1.30
   4 -17   1    1.19    0.48
  -4 -17  -1    0.98    0.43
  -4  17   1    5.00    1.52
  -4  17   1    1.92    1.66
  -4 -17  -1   -0.55    1.63
  -4 -17  -1    0.15    1.94
  -4 -17  -1    2.84    3.58
   4  17  -1    0.72    1.22
  -4  17   1    5.49    2.40
   4  17  -1    0.29    2.39
   4 -17   1    1.26    1.37
   4 -17   1    1.73    0.58
   4  17  -1    1.20    0.95
  -4 -17  -1   -1.45    2.46
   4 -17   1   -0.97    2.28
  -4  17   1    1.16    0.58
   4  17  -1    1.09    1.69
   4 -17   1    4.83    3.51
   4 -17   1    3.10    1.74
  -4  17   1    7.22    3.41
   4  17   3    1.50    0.51
   4  17   3    8.17    3.47
   4 -17  -3    2.88    0.86
  -4  17  -3    1.52    0.63
  -4  17  -3    2.22    1.69
   4  17   3    0.46    4.87
  -4  17  -3   -1.86    4.27
   4 -17  -3    2.25    0.59
   4  17   3   -2.85    1.75
  -4  17  -3    2.53    2.97
   4  17   3    2.97    2.35
   4 -17  -3    0.92    0.61
  -4  17  -3    2.27    2.09
   4  17  -3    1.13    0.96
  -4  17   3    1.97    0.63
  -4 -17  -3    8.22    5.06
   4 -17   3    0.36    1.50
  -4  17   3    2.38    0.58
  -4 -17  -3    2.13    3.17
   4  17  -3   -0.11    1.23
   4 -17   3    0.03    2.51
  -4 -17  -3    3.37    2.06
  -4 -17  -3    2.03    0.57
   4  17  -3    1.40    0.55
  -4 -17  -3    1.97    2.42
   4  17  -3    1.08    1.30
   4  17  -3    1.81    0.70
   4 -17   3    0.97    1.86
   4  17  -3    2.19    0.52
   4  17  -3    2.04    0.87
   4 -17   3    1.21    3.77
   4  17  -3    1.84    0.62
   4 -17   3    2.13    0.57
   4  17   5    1.77    0.70
   4 -17  -5    3.16    0.89
  -4  17  -5    2.04    0.79
  -4  17  -5    2.24    1.04
   4 -17   5    1.82    0.70
   4 -17   5    3.01    0.92
  -4 -17  -5    1.64    0.73
  -4  17   5    1.98    0.83
   4  18   0   35.06    3.71
  -4 -18   0   30.14    2.96
  -4 -18   0   31.29    4.95
   4  18   0   33.21    1.59
   4  18   0   35.64    5.03
   4 -18   0   32.31    1.81
  -4 -18   0   34.71    2.68
   4  18   0   37.73    2.58
  -4  18   0   35.76    1.88
   4 -18   0   30.83    4.07
   4  18   0   36.14    3.01
  -4  18   0   36.19    3.35
  -4  18   0   27.74    5.57
  -4 -18   0   34.08    1.52
   4 -18   0   33.49    1.88
   4 -18   0   37.56    5.67
  -4  18   0   29.72    4.11
   4 -18   0   37.54    3.33
   4 -18   0   34.46    2.88
  -4  18   0   32.90    2.84
  -4 -18   0   36.74    3.81
   4 -18  -2   44.76    8.50
   4 -18  -2   45.38    2.23
   4 -18  -2   48.64    2.48
   4 -18  -2   46.45    2.37
   4  18   2   52.77    6.42
   4  18   2   42.61    3.79
   4  18   2   46.98    2.15
  -4  18  -2   47.13    3.83
   4  18   2   44.88    4.75
   4 -18  -2   37.47    7.33
   4  18   2   47.56    3.35
  -4 -18   2   48.12    4.78
  -4  18  -2   43.81    3.34
  -4  18  -2   56.34    6.43
  -4 -18   2   41.57    3.63
  -4  18  -2   48.20    4.74
  -4 -18   2   43.81    2.83
   4 -18  -2   46.10    5.91
  -4  18  -2   45.72    2.41
  -4 -18   2   43.64    3.10
   4 -18  -2   31.30    4.77
   4 -18   2   49.52    2.29
   4 -18   2   41.96    6.00
  -4 -18  -2   39.54    6.28
   4 -18   2   41.30    2.29
  -4  18   2   43.23    4.82
   4 -18   2   48.49    3.30
  -4 -18  -2   43.82    5.03
   4  18  -2   41.96    3.43
   4  18  -2   45.62    2.89
  -4  18   2   46.18    6.64
  -4 -18  -2   46.69    3.57
  -4  18   2   46.67    2.23
  -4  18   2   45.03    3.89
  -4  18   2   47.12    3.41
   4  18  -2   46.03    2.65
  -4 -18  -2   46.45    4.08
  -4 -18  -2   43.12    2.07
   4 -18   2   42.46    4.57
   4 -18   2   46.66    3.71
   4  18   4   28.66    7.21
   4 -18  -4   29.03    1.59
   4  18   4   29.22    1.68
   4 -18  -4   26.17    2.00
   4  18   4   32.51    4.60
   4 -18  -4   27.76    1.81
   4  18   4   30.41    6.10
  -4  18  -4   27.85    2.01
   4  18   4   23.20    3.40
  -4 -18  -4   35.17    7.75
   4  18  -4   28.60    1.58
  -4 -18  -4   28.13    5.83
   4 -18   4   26.59    1.81
  -4 -18  -4   38.15    5.13
  -4 -18  -4   26.97    1.64
  -4  18   4   27.53    1.73
  -4 -18  -4   24.75    4.28
   4 -18   4   25.83    1.61
   4 -19  -1    6.77    2.85
  -4  19  -1    2.01    1.66
   4 -19  -1   -8.44    3.79
   4 -19  -1    1.00    1.91
  -4 -19   1    0.97    2.06
  -4 -19   1    4.75    2.92
  -4  19  -1   -3.50    2.68
   4 -19  -1    2.46    0.71
   4  19   1    6.60    1.57
   4  19   1    3.13    2.50
  -4 -19   1    2.67    0.40
   4  19   1    4.09    1.84
   4  19   1    2.81    0.52
  -4  19  -1    1.80    0.71
  -4  19  -1   -2.08    1.91
  -4 -19   1    1.65    1.20
  -4 -19   1    2.61    1.59
   4  19   1   11.62    4.00
   4 -19  -1    3.83    0.74
   4 -19  -1    2.88    1.66
  -4  19  -1    1.19    4.00
   4 -19   1    2.17    0.63
   4  19  -1    3.93    3.12
  -4  19   1    2.65    0.75
  -4 -19  -1   -1.64    3.65
   4 -19   1    3.71    1.69
  -4  19   1    7.88    4.22
  -4 -19  -1    1.11    1.54
  -4  19   1    4.62    2.17
  -4  19   1    3.42    1.69
   4  19  -1    1.69    1.25
   4 -19   1    6.08    2.98
  -4 -19  -1   -0.88    2.65
  -4  19   1   -0.89    2.83
   4 -19   1    1.10    3.79
   4  19  -1    4.96    2.28
   4 -19   1    2.56    2.11
   4 -19   1    2.76    0.64
  -4 -19  -1    1.32    1.89
  -4 -19  -1    2.53    0.50
   4  19  -1    2.21    1.49
   4 -19  -3    0.81    0.63
  -4  19  -3    0.16    0.80
  -4  19  -3    2.34    3.45
   4  19   3    0.71    0.52
   4  19   3    0.87    5.18
  -4  19  -3   -2.08    2.27
  -4  19  -3    1.73    1.95
   4  19   3   -2.07    1.98
   4 -19  -3    1.61    0.69
   4  19   3    3.70    3.61
   4  19   3    5.86    2.66
   4 -19  -3    0.79    0.78
  -4  19  -3    0.80    5.11
  -4 -19  -3  -10.85    4.85
   4  19  -3    0.14    0.66
   4 -19   3    0.74    1.80
  -4 -19  -3    0.55    0.51
   4 -19   3    0.96    2.24
   4 -19   3   -0.68    0.51
   4 -19   3   -2.40    4.22
  -4  19   3    0.53    0.55
   4  19  -3    1.40    1.13
   4  19  -3    1.22    0.59
   4  19  -3    1.71    0.83
   4  19  -3    0.25    1.69
  -4 -19  -3    1.51    2.72
  -4 -19  -3    6.46    3.86
   4 -19   3    0.40    0.66
   4 -19   3   -1.50    3.12
  -4  19   3    1.51    0.66
  -4 -19  -3    3.73    2.29
  -4 -20   0    3.63    2.02
   4 -20   0    8.12    4.19
  -4  20   0    3.46    3.39
   4 -20   0    5.78    0.86
   4  20   0    8.04    1.74
  -4  20   0    5.82    0.94
  -4  20   0    2.30    4.73
  -4  20   0    9.00    2.16
  -4 -20   0    3.82    3.60
   4 -20   0    4.60    2.32
   4  20   0    8.11    2.95
  -4 -20   0    7.51    0.66
  -4  20   0    7.69    2.65
   4 -20   0    8.36    3.16
   4 -20   0    7.90    1.06
   4  20   0    5.64    2.10
   4  20   0    5.47    3.86
  -4 -20   0    5.39    2.74
   4 -20   0    8.25    2.00
   4  20   0    6.62    0.72
  -4 -20   0    4.30    1.72
  -4  20  -2    2.34    3.31
   4  20   2    5.38    4.67
   4  20   2    2.54    1.83
   4 -20  -2    5.73    1.07
  -4  20  -2    0.60    4.84
  -4  20  -2    4.82    0.91
   4  20   2    8.37    3.42
  -4  20  -2   10.88    2.57
   4  20   2    7.78    2.48
  -4  20  -2    5.27    1.98
   4 -20  -2    5.16    0.86
   4 -20  -2    4.42    0.85
   4  20   2    3.00    0.64
  -4  20   2    6.29    1.04
  -4 -20  -2   12.62    4.00
  -4 -20  -2    4.44    0.69
   4 -20   2    3.53    0.71
   4 -20   2    3.81    1.77
   4 -20   2    0.99    3.00
   4 -20   2    2.90    0.71
  -4 -20  -2    3.91    2.23
  -4 -20  -2    6.19    5.19
   4 -20   2    0.86    2.03
  -4 -20  -2    8.14    2.89
   4 -20   2    5.97    4.48
   4 -20  -4    9.96    1.24
   4  20   4   11.19    1.10
   4 -20  -4   11.72    1.19
   4 -20  -4   12.39    1.44
  -4  20  -4   14.70    1.59
   4 -20   4    9.33    1.05
  -4 -20  -4   13.82    1.12
  -4  20   4   12.12    1.28
   4 -20   4   12.18    1.34
   4  20  -4   11.48    1.15
   4 -21  -1    1.16    0.67
  -4  21  -1    5.94    1.89
  -4  21  -1    5.27    3.41
   4  21   1    0.97    2.96
   4  21   1    3.37    1.79
   4  21   1    6.51    4.60
   4  21   1    3.41    0.69
   4 -21  -1    1.71    0.77
  -4  21  -1   15.52    5.10
  -4  21  -1    4.41    2.28
   4  21   1    0.66    2.17
  -4  21  -1    2.69    0.82
  -4 -21  -1    5.64    3.59
  -4 -21  -1  -10.03    5.16
   4 -21   1    0.40    2.18
  -4 -21  -1    2.49    0.53
  -4  21   1    4.74    2.46
  -4  21   1    8.79    3.51
  -4  21   1    1.96    0.75
  -4  21   1    0.25    1.86
  -4 -21  -1    2.74    4.41
   4 -21   1    1.42    3.84
   4 -21   1    1.42    0.70
  -4 -21  -1    6.92    7.59
   4 -21   1   -0.54    1.79
   4 -21   1    4.74    3.08
  -4  21   1    3.58    4.76
   4 -21   1    2.04    0.77
  -4  21  -3   -2.67    3.73
   4 -21  -3    2.28    0.79
  -4  21  -3    1.83    2.29
   4  21   3    9.62    6.32
   4  21   3    6.64    3.12
   4  21   3   -2.72    4.14
  -4  21  -3   -2.42    2.68
   4  21   3    1.12    2.35
   4  21   3    3.17    0.68
  -4  21  -3   11.80    5.75
   4 -21  -3    2.18    0.75
  -4  21  -3    1.56    0.92
   4 -21  -3    1.35    0.84
  -4 -21  -3  -10.82    6.72
   4 -21   3    2.43    2.24
  -4 -21  -3    0.25    3.55
  -4  21   3    2.21    0.74
  -4  21   3    2.81    0.69
   4 -21   3    2.11    2.82
   4 -21   3    1.84    0.76
  -4 -21  -3    1.71    0.62
   4 -21   3    9.39    5.63
   4  21  -3    1.67    0.66
   4 -21   3    2.17    0.65
  -4 -21  -3   -0.18    4.84
  -4 -21  -3    5.18    2.92
   4 -21   3    7.30    4.02
  -4 -22   0  139.10    5.38
   4 -22   0  133.36    7.59
  -4  22   0  145.86   10.88
   4 -22   0  134.52   10.68
   4 -22   0  142.65    7.05
  -4  22   0  140.55    7.64
  -4  22   0  130.31    5.79
   4 -22   0  123.41    5.74
  -4  22   0  153.23    8.94
   4 -22   0  130.78    8.74
   4 -22   0  132.76    5.87
  -4  22   0  142.26    7.08
   4  22   0  136.59    5.42
  -4  22  -2   95.38    9.91
  -4  22  -2   95.36    5.54
   4  22   2   96.08    4.01
   4 -22  -2   90.34    4.13
   4 -22  -2   92.17    4.24
   4 -22  -2   86.88    4.29
  -4  22  -2   90.87    4.27
  -4  22  -2  109.19    6.26
  -4  22  -2   84.90    7.24
   4 -22   2   98.91    9.24
  -4  22   2   94.45    4.06
   4 -22   2   99.63    7.15
   4 -22   2   89.28    4.23
  -4 -22  -2   90.64    3.90
   4 -22   2   96.75    4.17
   4 -22   2   89.27    5.96
   4 -22   2   94.63    5.45
  -4  23  -1    6.40    2.50
  -4  23  -1    4.63    4.44
  -4  23  -1    5.82    3.06
   4  23   1    1.47    0.60
   4 -23  -1    1.53    0.75
  -4  23  -1    1.80    0.87
   4 -23  -1    1.46    0.70
  -4  23  -1   -3.10    6.23
   4 -23   1    1.96    2.66
  -4 -23  -1    2.04    0.57
   4 -23   1    2.20    2.17
   4 -23   1    2.14    3.53
   4 -23   1    2.36    5.27
   4 -23   1    1.34    0.80
   4 -23   1    1.47    0.73
  -4  23   1    1.56    0.73
   4 -23  -3    6.68    1.11
   4 -23  -3    8.04    1.41
   4  23   3    7.78    0.94
   4 -23  -3    6.65    1.22
  -4  23  -3    7.60    1.32
  -4  23   3    7.12    1.02
   4 -23   3    3.92    0.88
  -4 -23  -3    5.36    0.92
  -4  23   3    6.82    1.03
   4  23  -3    5.74    1.00
   4 -23   3    6.41    1.18
  -4 -24   0   26.60    1.46
   4 -24   0   28.69    1.83
   4  24   0   25.58    1.36
  -4  24   0   22.21    1.83
   4 -24   0   28.33    1.83
   4 -24  -2   22.32    1.70
  -4  24  -2   24.34    4.52
  -4  24  -2   20.53    3.61
   4  24   2   22.10    1.50
  -4  24  -2   29.09    7.50
  -4  24  -2   28.52    5.43
   4 -24  -2   22.57    1.84
  -4  24  -2   26.32    1.90
   4 -24   2   23.91    1.81
  -4  24   2   21.60    1.56
   4 -24   2   23.72    3.72
   4 -24   2   28.76    5.41
   4 -24   2   29.68    6.96
   4 -24   2   23.51    3.98
  -4 -24  -2   23.42    1.44
   4  24  -2   22.02    1.58
   4 -24   2   19.99    1.60
   4 -25  -1    0.45    0.79
  -4  25  -1    1.22    0.94
   4 -25  -1    1.88    0.86
   4  25   1    1.39    0.65
  -4  25  -1   -2.70    7.43
   4 -25   1    0.41    0.82
   4 -25   1    1.38    0.81
  -4  25   1    2.20    0.86
  -4 -25  -1    2.05    0.65
   4 -26   0   28.76    1.99
  -4  26   0   26.53    1.96
   4 -26   0   24.97    1.89
   4  26   0   27.26    1.41
   4 -26  -2   48.98    2.57
  -4  26  -2   44.12    2.72
   4 -26  -2   46.12    2.71
   4  26   2   43.47    2.32
  -4 -26  -2   44.32    2.25
   4  26  -2   45.04    2.44
   4 -26   2   40.08    2.60
  -4  26   2   41.72    2.33
   4 -26   2   41.23    2.48
   4  27   1    0.99    0.70
  -4  27  -1    0.64    1.00
   4 -27  -1    0.81    0.96
   4 -27   1    3.23    1.07
  -4 -27  -1    0.15    0.72
   4 -27   1    0.54    0.95
  -4  27   1    1.56    0.93
   5   0   0   -0.48    2.18
   5   0   0   -1.25    0.82
   5   0   0   -0.14    0.33
   5   0   0    0.36    0.29
  -5   0   0   -0.19    0.32
   5   0   0    1.05    1.49
   5   0   0   -1.18    1.07
   5   0  -2    0.14    0.53
   5   0   2    0.61    0.97
   5   0   2    2.11    2.13
   5   0   2   -3.15    2.94
   5   0  -2   -0.17    1.17
   5   0   2    0.36    1.13
   5   0   2    1.18    1.49
   5   0  -2    1.26    1.74
   5   0  -2    0.40    0.83
  -5   0  -2   -0.64    0.34
   5   0  -2   -0.21    0.66
  -5   0  -2    0.50    0.43
   5   0   2   -0.07    1.61
   5   0   2    0.99    2.34
   5   0   2    0.09    0.36
   5   0   2    2.01    1.26
  -5   0   2   -0.16    0.28
  -5   0  -4    0.56    0.61
   5   0   4   -1.99    2.28
   5   0  -4    0.85    0.71
   5   0  -4    0.07    0.10
   5   0   4    3.03    1.92
   5   0   4   -5.73    3.78
   5   0   4    0.38    1.86
   5   0   4    1.24    4.76
   5   0   4   -0.72    2.48
   5   0   4   -4.15    3.17
   5   0  -4   -0.12    0.16
   5   0   4    0.39    0.50
  -5   0  -4   -0.39    0.45
   5   0   4   -2.96    1.49
   5   1   1  129.91    6.13
   5   1   1  128.84    6.40
   5   1   1  126.84    6.73
   5  -1  -1  118.33    6.59
  -5   1  -1  119.77    5.05
   5  -1  -1  121.94    5.58
   5  -1  -1  122.32    5.04
   5   1   1  129.86    5.82
   5   1   1  123.46    7.76
   5   1   1  120.61    5.80
   5  -1  -1  127.64    4.85
   5   1   1  130.25    5.03
   5  -1  -1  123.40    5.99
   5   1   1  124.53    5.59
   5  -1  -1  126.70    5.40
  -5  -1   1  129.87    4.94
   5   1   1  126.63    7.26
   5   1  -1  136.55    6.81
  -5  -1  -1  116.24    5.03
  -5   1   1  124.82    6.03
   5  -1   1  120.35    6.08
   5   1  -1  128.01    4.81
  -5   1   1  125.77    6.76
   5  -1   1  132.20    7.39
   5   1  -1  127.25    5.99
   5  -1   1  126.80    7.87
   5   1  -1  117.75    6.10
   5  -1   1  117.42    5.80
   5  -1   1  124.07    5.59
   5  -1   1  121.83    4.99
  -5   1   1  128.31    5.41
  -5   1   1  124.29    5.59
   5  -1   1  119.15    6.69
   5   1  -1  121.11    5.47
   5   1  -1  126.46    6.96
   5   1  -1  129.31    5.39
   5   1  -1  126.40    5.58
   5  -1   1  125.72    6.38
   5  -1   1  128.78    5.04
   5  -1   1  124.86    5.81
   5   1  -1  120.28    5.00
   5   1  -1  118.90    5.66
   5   1  -1  117.01    4.87
  -5   1   1  129.09    4.95
   5   1   3   88.57    6.11
   5  -1  -3   88.09    3.72
   5   1   3   88.97    6.87
   5   1   3   87.96    4.77
   5  -1  -3   82.82    4.76
   5   1   3   87.31    4.54
  -5   1  -3   82.87    3.78
   5   1   3   87.34    7.69
  -5   1  -3   81.10    3.63
   5  -1  -3   90.57    5.71
   5   1   3   87.74    5.23
   5   1   3   86.84    3.72
   5  -1  -3   84.05    4.28
   5   1   3   87.80    5.58
   5   1   3   91.28    4.94
   5  -1  -3   88.76    4.04
   5   1  -3   85.34    3.84
   5   1  -3   81.55    4.13
   5   1  -3   86.45    4.46
   5   1  -3   85.65    3.69
   5  -1   3   86.23    5.62
   5  -1   3   87.60    3.73
   5  -1   3   87.92    4.84
   5  -1   3   84.67    5.18
   5  -1   3   83.65    4.50
  -5  -1  -3   86.66    3.66
   5   1  -3   83.29    3.84
   5   1  -3   77.13    4.00
   5  -1   3   80.15    7.24
   5  -1   3   92.29    6.18
   5   1  -3   83.75    4.66
   5   1  -3   89.17    3.63
   5  -1   3   85.83    4.86
   5  -1   3   97.39    7.07
   5   1  -3   89.76    5.21
  -5  -1  -3   86.77    3.78
   5   1   5   65.59    4.47
   5   1   5   57.96    6.17
   5   1   5   62.48    8.49
   5   1   5   61.64    3.02
  -5   1  -5   63.82    2.97
  -5   1  -5   62.62    3.12
   5  -1  -5   61.72    2.90
   5   1   5   65.77    5.06
   5  -1   5   79.28    8.73
   5  -1   5   66.18    6.31
  -5  -1  -5   67.48    3.22
  -5  -1  -5   61.92    2.95
   5  -1   5   61.45    3.05
   5  -1   5   58.79    4.44
   5  -1   5   62.50    5.01
   5   2   0    1.25    1.17
   5  -2   0    3.12    1.07
   5   2   0    2.54    1.93
   5  -2   0    3.16    0.89
  -5  -2   0    1.53    0.40
   5   2   0    3.76    1.44
  -5   2   0    3.63    1.49
   5  -2   0    1.25    0.37
   5   2   0    1.70    0.37
  -5   2   0    1.23    0.86
   5  -2   0    3.44    1.48
   5   2   0   -0.64    1.58
   5   2   0    2.20    0.95
   5   2   0    2.07    1.00
   5   2   0    2.36    0.45
  -5   2   0    2.32    1.07
  -5   2   0    1.96    0.46
   5   2   0   -1.64    2.24
   5   2   0    1.04    0.78
   5  -2   0   -0.19    1.97
  -5   2   0    4.01    2.27
   5  -2  -2    0.69    0.72
   5   2   2    0.61    1.29
  -5  -2   2    0.94    0.34
  -5   2  -2    1.26    0.45
   5  -2  -2    1.36    2.00
   5   2   2   -1.41    2.13
   5   2   2    0.26    1.52
   5   2   2    0.79    1.99
   5   2   2    0.71    0.39
   5   2   2    0.26    1.15
   5   2   2    4.67    1.82
   5   2   2    2.58    1.08
   5   2   2    7.57    3.24
   5  -2  -2    1.87    1.00
   5  -2  -2    0.55    1.37
   5  -2  -2    0.32    0.78
   5   2  -2   -0.40    0.64
  -5   2   2   -0.39    1.69
  -5   2   2    0.69    0.84
   5   2  -2    0.45    0.82
   5   2  -2    4.17    1.90
   5   2  -2    1.50    0.68
  -5   2   2    1.51    1.23
  -5  -2  -2    0.82    0.39
   5   2  -2    0.83    0.87
  -5   2   2    0.36    0.35
   5  -2   2    1.63    1.27
  -5   2   2    2.12    0.72
   5   2  -2    1.35    1.68
   5  -2   2   -0.20    1.17
  -5  -2  -2    0.99    0.41
   5   2  -2    0.34    1.12
   5   2  -2    0.53    1.21
   5  -2   2    1.40    1.05
   5  -2   2   -0.44    1.96
   5  -2   2    3.34    3.10
   5   2  -2    1.64    0.54
   5  -2   2    4.18    1.85
   5  -2   2    0.26    1.47
   5  -2   2    1.70    2.62
   5  -2   2    0.86    0.40
   5   2   4    2.19    3.35
  -5   2  -4   -0.15    0.50
   5   2   4    2.55    1.62
   5   2   4    1.89    4.85
   5  -2  -4    0.76    1.26
   5   2   4    2.31    3.88
   5  -2  -4    1.13    0.90
   5   2   4   -0.21    1.82
   5   2   4   -2.17    2.54
   5  -2  -4    3.23    1.80
   5  -2  -4   -1.06    0.70
   5   2   4   -0.04    0.46
   5   2   4    3.06    2.42
   5   2   4   -1.04    1.89
  -5   2  -4    0.03    0.48
   5  -2  -4    0.75    0.67
   5  -2   4    0.15    1.85
  -5  -2  -4    1.15    0.61
   5  -2   4   -4.18    2.26
   5  -2   4   -0.53    1.50
   5  -2   4   -1.34    2.47
   5  -2   4    0.04    0.47
   5  -2   4    6.11    3.39
   5  -2   4   -2.95    4.34
   5  -2   4    0.89    3.98
   5   2  -4   -0.55    0.56
  -5  -2  -4    0.66    0.50
   5  -2   4    0.99    1.88
   5  -3  -1    3.46    0.44
   5  -3  -1   -0.54    1.73
   5  -3  -1    1.70    1.31
   5   3   1    5.09    1.35
   5   3   1    1.86    1.89
  -5   3  -1    2.39    1.71
  -5   3  -1    2.77    0.58
  -5   3  -1    4.32    1.09
   5  -3  -1    4.05    0.72
   5  -3  -1    4.74    1.07
   5   3   1    5.57    2.80
   5   3   1    4.17    1.48
  -5   3  -1    5.02    1.33
  -5   3  -1   -0.33    2.37
   5   3   1    4.27    1.63
   5   3   1    4.93    1.10
  -5  -3   1    4.46    0.50
   5   3   1    3.91    0.51
   5   3   1    4.15    1.27
   5  -3  -1    4.18    0.89
   5   3   1    1.26    2.19
   5   3  -1    3.33    1.09
  -5   3   1    4.02    0.53
   5   3  -1    5.35    0.90
   5   3  -1    2.90    0.46
   5   3  -1    4.98    1.08
   5   3  -1    4.82    2.10
   5  -3   1    4.03    2.19
  -5   3   1    4.70    0.97
   5   3  -1    3.86    0.55
   5  -3   1    4.05    1.04
   5  -3   1    4.70    0.58
   5  -3   1    3.32    1.26
   5   3  -1    4.68    1.42
   5   3  -1    3.12    0.32
   5  -3   1    3.43    0.47
  -5   3   1    3.05    1.05
   5   3  -1    6.12    1.14
  -5  -3  -1    3.87    0.50
  -5   3   1    4.28    2.02
   5   3  -1    5.98    1.61
  -5  -3  -1    3.87    0.58
   5   3  -1    2.53    1.81
  -5   3   1    5.69    1.51
   5  -3   1    7.58    1.81
   5  -3  -3    4.32    1.99
   5   3   3    6.04    1.97
   5   3   3    4.15    2.30
   5  -3  -3    6.32    1.30
  -5   3  -3    3.84    0.63
   5  -3  -3    7.08    1.60
   5   3   3    6.37    0.69
   5   3   3   10.47    3.70
   5   3   3    7.15    1.90
  -5   3  -3    4.27    0.80
   5   3   3    7.54    1.61
   5  -3  -3    4.19    2.69
   5  -3  -3    6.87    0.90
   5   3   3    2.24    2.57
   5   3   3    8.44    1.77
   5   3   3    1.38    3.35
  -5   3   3    5.46    1.45
  -5   3   3    6.33    1.09
   5   3  -3    4.21    1.32
   5  -3   3    4.76    2.01
   5   3  -3    2.85    0.96
   5  -3   3    9.38    2.96
  -5   3   3    6.62    1.17
   5  -3   3    4.79    1.66
   5   3  -3    4.78    1.22
  -5   3   3    6.82    1.99
   5  -3   3    7.32    3.93
   5   3  -3    5.74    0.70
   5   3  -3    5.84    0.98
   5  -3   3    6.68    0.75
   5   3  -3    4.96    0.77
  -5  -3  -3    4.98    0.75
   5   3  -3    7.52    1.72
  -5  -3  -3    4.36    0.63
   5   3  -3    4.06    0.77
   5   3  -3    5.95    1.02
   5   3   5    6.54    2.41
  -5   3  -5    3.69    1.10
   5   3   5    2.60    5.68
   5  -3  -5    4.78    0.85
  -5   3  -5    3.18    0.87
   5   3   5    4.53    3.84
   5  -3  -5    5.30    0.98
   5   3   5    4.35    0.88
   5   3   5    4.50    2.85
   5  -3   5    4.75    0.95
   5  -3   5   11.93    5.53
   5  -3   5    2.71    2.71
   5  -3   5    3.10    3.83
   5  -3   5   -0.40    2.10
  -5  -3  -5    4.86    0.80
  -5  -3  -5    4.14    0.91
   5   4   0   13.28    1.85
   5  -4   0   11.23    1.74
   5   4   0   10.36    2.08
   5  -4   0   12.86    2.23
  -5   4   0    9.74    2.43
   5   4   0   17.54    3.47
  -5   4   0   11.33    0.85
   5  -4   0   10.32    2.43
  -5   4   0   13.09    1.58
   5   4   0   13.57    1.52
   5  -4   0   10.91    0.80
   5   4   0   11.23    1.52
  -5   4   0   10.81    1.28
   5   4   0   11.72    0.74
   5  -4   0   10.18    0.75
   5  -4   0   13.14    1.52
   5   4   0   13.34    1.31
  -5   4   0   12.00    2.05
   5   4   0   11.83    2.30
   5   4   0   10.29    0.68
   5   4   0    9.92    1.96
   5   4   2    7.79    1.62
   5   4   2    4.35    0.61
   5  -4  -2    6.44    1.29
   5   4   2    7.52    2.21
   5   4   2    5.08    2.49
   5   4   2    1.35    2.81
   5  -4  -2    5.90    1.72
  -5   4  -2    5.27    0.72
   5  -4  -2    7.12    2.33
   5  -4  -2    4.46    0.87
   5  -4  -2    5.66    0.36
   5  -4  -2    7.18    1.26
   5   4   2    5.11    1.81
   5   4   2   13.95    3.89
  -5  -4   2    4.47    0.51
   5   4   2    8.40    1.60
   5   4   2    7.03    1.58
  -5   4   2    6.17    1.09
   5   4  -2    7.40    1.25
  -5  -4  -2    5.86    0.62
   5   4  -2    7.92    1.20
   5   4  -2    7.32    0.99
   5   4  -2    7.73    1.59
   5   4  -2    6.61    1.04
  -5   4   2    8.50    1.32
   5  -4   2    5.95    0.70
   5   4  -2    7.12    0.73
  -5  -4  -2    7.98    0.76
   5  -4   2    8.37    1.66
   5   4  -2    5.48    1.75
   5   4  -2    3.50    1.80
   5   4  -2    5.89    1.39
   5  -4   2    6.48    1.34
  -5   4   2    5.40    0.58
  -5   4   2    5.16    1.90
  -5   4   2    4.06    1.37
   5  -4   2    7.17    2.09
   5  -4   2    3.85    2.63
   5   4   4   -0.32    2.73
   5   4   4    1.46    3.90
   5  -4  -4    1.46    0.73
   5   4   4    2.52    3.46
   5  -4  -4    0.61    2.39
   5   4   4    1.49    4.92
   5   4   4    0.50    0.50
  -5   4  -4    0.60    0.53
   5  -4  -4    1.33    1.25
   5  -4  -4    0.03    1.76
   5  -4  -4    0.32    0.96
  -5   4  -4    0.43    0.61
   5   4   4    5.81    2.14
   5   4   4   -2.44    1.61
   5   4   4   -2.91    2.36
   5   4   4    4.09    2.22
   5  -4   4    8.15    4.99
   5  -4   4    2.53    1.66
  -5   4   4    1.96    1.30
  -5  -4  -4    1.39    0.54
   5  -4   4    7.03    3.59
   5  -4   4    0.05    2.36
  -5  -4  -4    1.04    0.64
   5  -4   4    1.53    1.99
  -5   4   4    1.27    0.93
   5  -4   4    2.08    2.77
   5  -4   4    1.91    0.63
  -5   4   4    2.01    1.91
   5  -4   4    3.08    2.02
  -5   4   4    2.10    0.77
   5  -4   4    5.85    3.90
   5   5   1   98.29    4.81
   5   5   1   96.52    4.63
   5  -5  -1   95.24    4.72
   5   5   1   94.47    5.43
  -5   5  -1   99.07    4.10
   5  -5  -1  100.68    4.14
   5   5   1  102.85    6.53
  -5   5  -1  100.02    6.52
   5  -5  -1  101.54    3.93
   5  -5  -1  101.49    4.53
   5   5   1   94.27    5.71
   5   5   1   97.59    4.00
  -5   5  -1   96.25    5.51
   5   5   1   95.52    5.10
  -5   5  -1   97.79    4.91
   5   5   1  101.01    4.95
  -5   5  -1   96.96    4.64
   5  -5  -1  101.48    5.23
   5   5   1   93.40    6.82
   5  -5  -1  109.06    6.07
   5   5  -1  100.93    4.69
  -5   5   1   93.83    5.16
   5   5  -1   98.18    3.74
   5  -5   1   92.46    4.60
  -5  -5  -1   99.63    3.99
   5   5  -1  102.59    5.17
   5  -5   1   94.78    4.04
   5   5  -1   99.09    3.95
  -5   5   1   96.32    3.97
   5   5  -1  104.26    4.57
  -5   5   1   93.72    6.00
   5   5  -1  103.11    3.77
   5  -5   1   88.63    5.31
   5   5  -1  103.49    4.97
  -5   5   1   99.81    4.74
   5   5  -1   99.68    4.46
   5   5  -1  104.96    4.37
   5  -5   1   83.46    6.18
   5   5  -1   89.68    5.85
   5   5  -1  100.29    5.65
  -5   5   1   94.72    4.48
   5  -5   1   87.10    4.82
   5  -5   1   94.93    4.05
  -5  -5   3  133.04    5.07
   5   5   3  132.75    6.64
   5   5   3  128.01    6.42
   5   5   3  126.12    7.67
  -5   5  -3  134.72    5.40
   5   5   3  127.63    6.24
   5   5   3  120.82    8.60
   5  -5  -3  135.29    7.02
   5   5   3  134.58    6.91
  -5   5  -3  131.09    5.52
   5   5   3  129.91    5.40
   5   5   3  129.22    7.30
   5  -5  -3  132.58    6.34
   5  -5  -3  130.28    6.01
   5  -5  -3  130.34    5.53
   5   5   3  122.20    9.19
   5  -5  -3  128.86    8.08
  -5  -5  -3  140.11    5.38
  -5   5   3  124.81    6.92
   5  -5   3  136.56    8.67
   5   5  -3  133.98    5.17
   5   5  -3  136.51    5.28
   5  -5   3  132.26    7.79
  -5   5   3  130.74    6.22
  -5   5   3  131.65    5.61
   5  -5   3  122.90    6.42
   5  -5   3  128.07    5.46
  -5  -5  -3  133.11    5.47
   5   5  -3  140.16    5.18
   5   5  -3  132.85    5.11
   5  -5   3  130.95    6.61
   5  -5   3  128.83    6.89
   5   5  -3  137.40    5.20
   5  -5   3  128.01    9.31
   5  -5   3  133.47    7.43
   5   5  -3  124.93    5.48
   5   5  -3  138.97    5.45
   5   5  -3  131.28    5.29
  -5   5   3  126.79    5.78
   5   5  -3  136.50    5.74
   5  -5   3  127.58    6.24
   5  -5  -5  116.24    4.75
  -5   5  -5  116.09    5.07
   5   5   5  108.17    4.85
  -5   5  -5  114.04    4.84
   5  -5  -5  110.92    4.84
  -5   5   5  113.27    4.83
  -5  -5  -5  112.28    4.82
  -5   5   5  115.15    5.78
   5  -5   5  110.69    4.93
  -5  -5  -5  111.91    4.99
  -5   5   5  112.03    5.16
  -5   5   5  112.39    4.67
   5   6   0   21.16    3.62
   5   6   0   21.68    1.61
   5  -6   0   18.06    1.13
  -5   6   0   20.05    1.69
  -5  -6   0   17.08    0.98
   5  -6   0   22.19    2.65
   5  -6   0   19.99    1.80
   5   6   0   19.80    0.99
  -5   6   0   20.01    3.45
   5  -6   0   16.14    1.14
   5   6   0   17.78    2.89
   5   6   0   18.11    2.01
   5  -6   0   20.42    3.41
  -5   6   0   18.80    1.89
  -5   6   0   18.91    1.14
   5   6   0   20.65    1.77
   5   6   0   17.66    2.17
   5   6   0   24.17    1.87
   5   6   0   20.75    2.59
  -5   6   0   16.95    2.38
   5  -6   0   20.60    2.09
   5   6   0   18.60    0.95
  -5   6  -2   16.12    2.93
   5  -6  -2   12.74    1.55
   5   6   2   17.91    2.56
   5   6   2   13.29    2.10
   5   6   2   12.33    2.05
   5   6   2   15.37    1.78
   5  -6  -2   13.87    2.48
   5   6   2   19.26    3.38
  -5   6  -2   12.25    2.13
   5  -6  -2   15.23    1.19
  -5   6  -2   10.16    0.94
   5   6   2   10.72    0.85
   5  -6  -2   10.34    0.65
   5   6   2   17.16    4.12
   5  -6  -2   15.12    1.89
   5  -6  -2   18.31    3.55
   5   6   2   21.15    2.88
   5   6   2   10.33    3.25
  -5   6  -2   12.60    1.80
  -5   6  -2    7.87    3.33
   5   6  -2   14.79    1.72
   5  -6   2   10.44    0.90
   5   6  -2   12.08    0.84
   5  -6   2   16.68    2.81
   5   6  -2   10.67    1.11
   5  -6   2   11.40    0.84
   5   6  -2   10.29    1.31
  -5   6   2   10.43    1.36
   5  -6   2   11.95    3.14
   5  -6   2   13.18    2.13
   5   6  -2   12.51    1.73
   5   6  -2   10.76    1.98
  -5   6   2   14.98    1.66
  -5   6   2   11.19    2.52
   5   6  -2   13.03    1.12
   5  -6   2   16.17    1.82
  -5   6   2   10.75    0.80
  -5   6   2   12.02    2.14
   5   6  -2   11.26    1.28
  -5  -6  -2   10.55    0.81
   5   6  -2   10.26    1.91
   5  -6  -4    0.50    1.29
  -5   6  -4    3.08    0.77
   5   6   4    4.98    2.01
   5  -6  -4   -0.14    2.20
   5  -6  -4    5.64    1.73
  -5   6  -4    3.15    0.67
   5  -6  -4   -2.60    3.29
   5   6   4    1.29    4.47
   5   6   4    7.45    3.36
   5   6   4    3.10    2.15
   5   6   4    5.50    2.99
   5   6   4    0.48    4.63
   5   6   4    3.36    0.67
   5   6   4    1.78    1.70
   5  -6  -4    3.92    0.71
   5  -6  -4    4.29    0.86
   5   6   4    3.93    2.37
  -5   6   4    2.64    1.01
  -5   6   4    5.32    2.43
   5  -6   4    7.11    2.30
   5  -6   4    5.50    3.10
   5  -6   4    2.46    1.79
   5  -6   4    3.38    2.71
   5  -6   4   -1.38    3.71
  -5   6   4    6.92    1.34
  -5  -6  -4    2.44    0.69
  -5  -6  -4    3.14    0.68
   5  -6   4    0.58    4.01
   5  -6   4    5.97    2.18
   5  -6   4   16.38    5.64
  -5   6   4    5.35    1.74
   5  -6   4    4.13    0.80
   5   7   1  179.69    8.80
   5   7   1  172.94    7.91
   5   7   1  173.24    7.64
   5  -7  -1  176.39    7.21
  -5   7  -1  181.15    9.73
   5   7   1  183.77    9.96
   5   7   1  186.80    8.55
   5   7   1  189.02    7.90
   5  -7  -1  175.18    6.99
   5   7   1  183.84    8.19
   5   7   1  184.91    7.03
  -5   7  -1  183.26    8.71
  -5  -7   1  182.69    6.92
  -5   7  -1  179.18    8.05
   5   7   1  178.59    9.43
  -5   7  -1  173.12    7.15
  -5   7  -1  182.66    7.77
  -5   7   1  170.60    8.26
   5   7  -1  178.51    7.92
  -5   7   1  190.12    9.33
   5  -7   1  184.42    7.13
   5   7  -1  179.25    7.54
  -5   7   1  181.74    7.83
   5  -7   1  186.73    9.65
   5   7  -1  174.96    7.45
   5   7  -1  171.31    6.94
  -5   7   1  178.80    7.03
  -5   7   1  180.06    7.58
   5  -7   1  175.77    8.57
   5  -7   1  182.76    8.05
   5   7  -1  176.56    8.56
   5   7  -1  177.88    7.36
   5   7  -1  176.42    7.66
   5  -7   1  181.08    7.74
   5  -7   1  174.64    7.13
   5   7  -1  169.48    8.75
   5   7  -1  173.81    8.07
  -5  -7  -1  180.30    7.01
   5   7   3  120.08    8.35
   5   7   3  120.06    6.09
   5   7   3  116.45    5.89
   5  -7  -3  110.75    4.91
   5   7   3   99.22    8.58
   5  -7  -3  113.48    6.65
   5   7   3  118.69    7.29
   5   7   3  115.51    6.83
  -5   7  -3  110.79    4.88
   5   7   3  116.33    6.31
   5   7   3  122.32    5.69
   5  -7  -3  109.48    5.85
   5  -7  -3  112.06    7.98
   5   7   3  112.93    4.74
   5  -7  -3  110.68    5.49
   5  -7   3  118.01    5.69
  -5  -7  -3  103.49    4.65
   5  -7   3  111.26    6.75
   5  -7   3  114.50    8.27
   5  -7   3  118.04    4.85
  -5   7   3  116.81    5.07
   5  -7   3  117.89    6.07
  -5   7   3  112.43    6.62
  -5   7   3  121.50    5.80
  -5   7   3  105.60    5.23
  -5   7  -5   43.91    2.48
  -5   7  -5   40.35    2.20
   5  -7  -5   40.72    2.33
   5  -7  -5   40.15    2.19
   5   7   5   44.45    2.25
   5  -7   5   42.83    2.34
  -5  -7  -5   41.42    2.31
  -5  -7  -5   40.08    2.19
   5   8   0   11.99    3.11
   5   8   0   10.11    2.04
  -5   8   0   13.64    1.88
   5  -8   0   10.97    0.86
  -5  -8   0   10.62    0.71
   5   8   0   11.90    1.58
   5  -8   0   14.17    2.46
   5   8   0   13.40    1.36
   5   8   0   13.79    1.93
   5  -8   0   10.48    0.84
  -5   8   0   13.54    2.93
   5  -8   0   14.54    1.85
   5   8   0   11.07    0.70
   5   8   0   10.23    2.51
   5  -8   0   10.95    2.80
   5   8   0   11.62    0.70
  -5   8   0   14.16    2.42
   5   8   0   10.84    1.56
  -5   8   0   13.40    1.55
   5   8   0   10.73    2.24
   5  -8   0   11.77    1.57
  -5   8  -2    8.92    1.74
  -5   8  -2    5.52    2.31
   5  -8  -2    9.54    2.17
   5   8   2   10.79    1.68
  -5   8  -2    5.46    0.84
   5  -8  -2    7.32    1.54
   5   8   2   10.09    2.13
   5  -8  -2    8.65    1.55
   5   8   2   11.29    2.40
   5   8   2   11.20    2.02
   5  -8  -2   10.09    1.05
   5  -8  -2    6.28    2.82
  -5   8  -2    6.70    1.82
   5   8   2    7.54    3.57
   5   8   2    5.00    2.48
  -5   8  -2    6.96    3.47
   5   8   2    6.76    0.68
  -5  -8   2    6.83    0.52
   5   8   2    5.29    1.63
   5  -8  -2    6.87    0.59
   5   8   2   11.55    3.32
  -5   8   2    6.92    1.34
   5  -8   2    6.19    0.71
  -5  -8  -2    6.02    0.65
   5  -8   2    7.80    1.72
  -5   8   2    6.77    0.73
   5   8  -2    7.83    1.01
   5   8  -2    8.47    1.89
  -5   8   2   10.21    1.68
   5   8  -2   12.17    1.74
   5   8  -2    6.33    1.05
  -5   8   2    6.20    1.73
   5   8  -2    8.83    1.05
   5   8  -2    6.36    1.24
   5   8  -2    7.76    1.39
   5  -8   2    6.63    1.48
   5   8  -2    7.40    1.83
   5  -8   2    8.37    2.18
   5   8  -2    7.16    0.63
  -5   8   2    3.91    2.43
   5  -8   2    8.74    3.18
   5  -8   2    5.90    0.76
   5  -8  -4    1.30    0.84
   5   8   4    0.87    2.59
   5   8   4   10.91    5.39
  -5   8  -4    2.49    0.63
   5  -8  -4    2.45    0.70
   5   8   4    1.07    0.51
   5   8   4    3.20    2.27
   5   8   4    1.77    3.62
   5   8   4   -0.27    3.05
   5   8   4    2.42    2.17
   5   8   4   -0.48    1.78
   5   8   4    5.90    4.49
   5  -8   4    2.49    0.70
  -5  -8  -4    1.66    0.53
   5  -8   4    1.31    3.03
  -5  -8  -4    1.62    0.69
   5  -8   4    2.55    1.82
   5  -8   4    5.14    2.36
   5  -8   4   -1.36    4.50
   5   9   1   27.05    4.24
  -5   9  -1   35.49    4.64
  -5   9  -1   30.38    1.72
   5  -9  -1   28.31    4.83
   5   9   1   38.53    2.77
   5   9   1   34.48    1.59
   5  -9  -1   31.07    3.37
   5   9   1   40.23    3.62
   5  -9  -1   37.10    2.74
   5   9   1   32.99    3.28
  -5   9  -1   32.81    2.46
   5   9   1   40.66    2.94
   5  -9  -1   31.33    2.64
  -5   9  -1   30.59    2.76
   5  -9  -1   33.59    1.84
  -5  -9   1   34.54    1.47
  -5   9  -1   33.74    3.48
   5   9   1   32.87    2.38
   5   9   1   34.77    2.52
   5   9   1   28.10    4.69
   5   9  -1   28.40    2.59
   5   9  -1   32.35    2.80
   5   9  -1   33.49    2.10
   5   9  -1   31.94    3.60
   5   9  -1   31.17    1.49
  -5   9   1   34.40    3.22
   5  -9   1   36.77    4.34
  -5   9   1   31.21    2.61
   5  -9   1   32.88    2.42
   5  -9   1   33.65    1.68
   5   9  -1   31.50    2.31
   5   9  -1   31.65    2.23
   5  -9   1   39.87    3.46
   5  -9   1   36.20    2.80
   5   9  -1   27.66    3.44
  -5   9   1   31.94    2.33
  -5  -9  -1   32.07    1.56
  -5   9   1   33.00    1.64
  -5   9   1   36.81    4.46
   5   9  -1   31.82    2.01
   5  -9   1   34.86    1.72
   5   9   3   17.97    2.35
   5   9   3   22.01    3.15
   5   9   3   11.43    4.44
   5  -9  -3   16.65    2.85
   5  -9  -3   14.71    2.63
   5   9   3   18.46    3.37
   5   9   3   17.36    3.67
   5   9   3   18.26    1.16
  -5   9  -3   16.30    1.31
   5   9   3   19.16    2.75
  -5   9  -3    9.56    4.36
  -5   9  -3   16.16    2.26
  -5   9  -3   12.99    3.29
  -5   9  -3   15.97    2.79
   5  -9  -3   15.19    1.18
   5  -9  -3   20.31    5.35
   5   9   3    9.73    4.40
   5  -9  -3   18.92    3.91
   5   9   3   17.78    2.66
   5  -9  -3   13.29    1.36
   5  -9   3   19.27    2.74
   5  -9   3   16.30    2.27
   5  -9   3   18.98    4.47
   5  -9   3   19.58    1.28
  -5   9   3   18.74    2.04
   5  -9   3   19.13    3.44
  -5   9   3   17.36    2.60
  -5   9   3   16.90    1.72
  -5  -9  -3   13.63    1.04
  -5   9   3   14.15    3.04
   5  -9   3   18.05    1.13
   5  -9  -5    7.20    1.11
  -5   9  -5    7.39    1.02
  -5   9  -5    8.16    1.29
   5   9   5    8.33    1.02
   5  -9  -5    6.37    1.20
  -5   9   5    8.00    1.13
   5  -9   5    8.83    1.16
  -5  -9  -5    6.45    1.12
  -5  -9  -5    5.46    0.94
   5 -10   0    3.69    0.65
   5  10   0    2.54    1.07
  -5  10   0    3.12    1.42
  -5 -10   0    2.88    0.46
  -5  10   0    2.90    0.60
  -5  10   0    1.99    1.82
   5  10   0    1.09    1.75
   5 -10   0    1.40    2.55
   5 -10   0    2.78    1.18
  -5  10   0    2.97    1.13
   5 -10   0    3.92    1.38
   5  10   0    2.56    1.07
   5  10   0    3.83    0.93
   5 -10   0    5.27    2.11
   5  10   0    1.85    2.21
   5  10   0    4.23    1.38
   5  10   0    4.35    2.57
   5  10   0    2.40    1.54
   5  10   0    4.01    0.45
   5 -10   0    4.42    0.72
  -5  10   0    4.85    2.79
   5  10   2    1.31    1.80
  -5  10  -2    3.78    2.24
   5  10   2    6.16    3.29
  -5 -10   2    2.10    0.40
   5  10   2    3.82    2.15
  -5  10  -2    1.85    0.59
   5 -10  -2    0.11    2.10
   5  10   2    2.70    1.59
   5 -10  -2    2.19    0.47
  -5  10  -2    3.03    1.61
  -5  10  -2    3.71    1.41
  -5  10  -2    0.95    3.28
   5  10   2    3.22    3.65
   5 -10  -2    2.33    0.82
   5  10   2    2.07    1.23
   5 -10  -2    1.38    1.51
   5  10   2    3.73    2.65
   5 -10  -2    1.91    1.21
   5  10   2    6.00    1.59
   5  10   2    2.54    0.51
   5 -10  -2    1.31    2.99
   5 -10   2    3.97    1.71
  -5  10   2    2.85    2.45
   5  10  -2    0.98    1.76
   5  10  -2    3.41    0.93
   5  10  -2    3.54    0.93
   5  10  -2    3.02    1.74
   5  10  -2    2.66    1.25
   5  10  -2    2.28    0.74
  -5  10   2    2.27    1.08
  -5  10   2    2.83    0.60
  -5 -10  -2    2.00    0.45
   5 -10   2    2.34    0.54
  -5  10   2    3.37    1.81
   5 -10   2    2.35    1.34
   5 -10   2    2.37    3.18
   5 -10   2    2.91    0.60
   5  10  -2    2.60    0.76
   5 -10   2    2.15    2.21
  -5  10   2    4.04    1.35
   5  10  -2    2.14    1.22
   5  10   4    0.99    2.67
   5  10   4    4.23    5.50
  -5  10  -4    1.30    0.79
   5  10   4    0.38    0.53
  -5  10  -4    1.90    0.64
   5 -10  -4    0.76    0.65
   5  10   4    0.61    3.80
   5 -10  -4    0.80    0.86
   5  10   4   -2.70    2.04
  -5 -10  -4    1.01    0.56
   5 -10   4   -5.35    4.32
   5 -10   4    3.94    2.21
   5 -10   4    0.06    1.75
   5 -10   4    2.05    0.73
   5 -10   4    4.14    3.03
   5 -10   4    0.48    0.46
  -5  11  -1  230.02    9.46
   5  11   1  251.85   11.24
   5  11   1  243.48   12.30
  -5  11  -1  237.36   10.47
   5 -11  -1  238.63   10.44
   5  11   1  244.42   12.02
   5 -11  -1  247.40   12.28
   5  11   1  240.59   10.01
  -5  11  -1  239.04   10.13
   5  11   1  240.96    9.27
   5  11   1  234.37   10.89
   5 -11  -1  233.03    9.56
  -5  11  -1  240.00   12.45
   5  11   1  240.28   10.30
   5 -11  -1  238.75    9.33
   5 -11  -1  239.57   10.11
   5  11   1  241.46   10.14
   5  11   1  249.56   10.53
  -5  11  -1  236.74   11.18
   5 -11  -1  257.24   11.22
  -5 -11   1  247.39    9.15
   5 -11   1  233.28   10.41
  -5  11   1  228.32   10.80
  -5 -11  -1  237.15    9.25
   5  11  -1  238.94    9.97
  -5  11   1  233.09    9.33
   5 -11   1  241.44   11.13
   5  11  -1  237.88   11.17
   5  11  -1  236.68    9.72
   5 -11   1  244.71   10.15
  -5  11   1  235.15   11.86
   5  11  -1  250.44   10.34
   5 -11   1  243.25    9.45
   5  11  -1  245.89    9.67
   5  11  -1  249.10    9.89
  -5  11   1  223.66    9.92
   5  11  -1  227.41   10.37
  -5  11   1  226.35   10.20
   5 -11   1  237.46   12.16
   5  11  -1  231.03    9.13
   5  11  -1  246.32   11.07
   5 -11   1  235.96    9.44
   5  11   3  195.89    9.26
   5  11   3  196.64    9.50
  -5  11  -3  185.29   10.06
   5  11   3  212.67   12.31
   5  11   3  194.32   10.78
   5 -11  -3  204.53    7.59
   5  11   3  206.66   10.55
   5 -11  -3  195.34    7.97
  -5  11  -3  166.72   11.68
   5  11   3  186.12   12.67
  -5  11  -3  186.26    9.16
  -5  11  -3  196.99    8.83
   5 -11  -3  194.12    8.17
   5  11   3  197.44    9.03
   5  11   3  196.79    7.89
  -5  11  -3  202.40    8.11
   5  11   3  195.18    9.85
   5 -11   3  202.68    7.92
   5 -11   3  200.25   11.54
  -5 -11  -3  196.07    7.82
   5 -11   3  199.12    8.83
   5 -11   3  206.09    9.30
   5 -11   3  204.79   10.10
   5 -11   3  203.10    8.04
  -5  11  -5  172.84    7.05
   5 -11  -5  155.42    6.75
   5 -11  -5  157.46    6.92
   5  11   5  165.26    6.76
  -5  11  -5  169.69    6.73
  -5 -11  -5  167.62    6.86
  -5  11   5  155.44    6.65
   5 -11   5  156.46    6.83
  -5 -11  -5  157.93    6.67
   5 -12   0    1.94    2.02
  -5  12   0    1.28    1.42
   5  12   0    2.09    1.08
   5 -12   0    0.89    0.51
   5  12   0    1.10    0.33
   5  12   0    0.35    2.67
   5 -12   0    0.60    2.77
  -5  12   0    0.49    0.52
  -5  12   0   -0.80    1.15
   5  12   0    0.55    0.90
   5  12   0   -0.81    1.55
   5  12   0    1.08    1.28
   5 -12   0    2.23    1.48
  -5  12   0    2.51    2.88
   5  12   0    2.27    1.14
  -5 -12   0    0.93    0.37
   5 -12   0    0.62    0.47
   5  12   0    4.66    2.43
   5 -12   0    1.56    1.18
   5  12   0   -1.59    1.71
  -5  12   0    0.99    2.03
   5  12   2    2.62    2.70
  -5  12  -2   -1.99    1.39
  -5  12  -2    0.49    0.52
  -5 -12   2    0.67    0.28
   5  12   2    3.64    2.29
   5 -12  -2    0.21    1.52
   5  12   2    4.48    4.06
  -5  12  -2   -1.46    2.48
   5 -12  -2    4.10    2.83
   5 -12  -2    0.76    0.53
   5 -12  -2    2.89    4.20
   5  12   2    0.98    3.40
   5  12   2    1.93    1.32
   5 -12  -2    2.17    1.99
  -5  12  -2    2.08    3.86
   5  12   2   -1.42    1.42
   5  12   2    1.17    0.44
   5  12   2    2.69    1.99
   5  12   2    1.88    1.65
   5 -12  -2    0.79    0.67
  -5  12  -2    1.25    1.87
  -5 -12  -2    0.86    0.41
  -5  12   2    2.52    1.45
   5  12  -2    3.63    2.00
   5  12  -2    1.40    0.99
   5  12  -2    1.10    0.76
  -5  12   2    4.01    2.01
   5 -12   2   -0.93    1.87
   5 -12   2    1.83    0.57
   5  12  -2   -0.22    1.30
   5 -12   2    2.48    1.68
  -5  12   2    1.78    2.68
   5 -12   2    1.52    2.67
  -5  12   2    1.13    0.56
   5 -12   2    1.00    0.54
  -5  12   2    1.33    1.17
   5 -12   2    2.59    3.64
  -5  12  -4    0.47    0.59
  -5  12  -4    5.90    3.65
   5  12   4   -0.89    3.99
   5 -12  -4    1.35    0.75
   5  12   4   -1.72    5.84
  -5  12  -4    1.34    0.73
   5  12   4    0.74    2.85
  -5  12  -4    1.93    2.66
  -5  12  -4    0.84    2.06
   5  12   4    2.77    2.29
   5  12   4    0.41    0.52
  -5  12  -4   -8.85    5.30
   5 -12  -4    1.51    0.90
   5 -12   4    0.70    0.70
  -5 -12  -4    1.02    0.58
   5 -12   4    0.67    0.51
   5 -12   4   -0.72    4.61
   5 -12   4   -1.36    3.24
   5 -12   4    1.95    1.97
   5 -12   4    4.65    2.54
   5 -13  -1   36.58    3.86
   5 -13  -1   36.35    2.77
  -5  13  -1   30.22    3.98
   5  13   1   35.12    2.86
   5  13   1   36.06    3.48
   5 -13  -1   33.80    3.04
   5  13   1   33.25    5.30
   5 -13  -1   27.13    4.98
  -5  13  -1   36.03    2.81
   5 -13  -1   35.03    1.75
   5  13   1   35.44    2.57
  -5  13  -1   32.66    1.84
  -5  13  -1   38.66    5.76
   5 -13  -1   35.12    2.00
   5  13   1   33.52    3.14
   5  13   1   34.31    1.62
  -5 -13   1   36.61    1.50
   5  13   1   37.17    2.76
   5  13   1   32.47    3.93
  -5  13  -1   33.51    3.20
   5  13   1   42.98    4.80
   5 -13   1   32.50    1.81
   5  13  -1   27.93    4.01
   5  13  -1   34.50    4.06
  -5  13   1   34.88    2.90
   5  13  -1   35.18    3.14
   5  13  -1   34.45    2.18
  -5  13   1   31.01    3.59
   5  13  -1   34.59    1.48
   5 -13   1   35.32    5.22
  -5  13   1   32.28    2.50
   5 -13   1   33.57    3.89
  -5 -13  -1   33.75    1.61
   5  13  -1   32.37    2.44
   5 -13   1   34.77    1.83
   5  13  -1   33.38    2.99
   5  13  -1   32.58    2.52
  -5  13   1   31.16    4.93
   5 -13   1   33.30    3.06
   5  13  -1   30.98    2.23
   5 -13   1   33.57    2.70
   5  13   3   24.23    3.88
   5 -13  -3   34.18    1.62
  -5  13  -3   38.84    6.61
  -5  13  -3   41.83    3.64
  -5  13  -3   35.17    2.05
  -5  13  -3   46.47    4.85
   5  13   3   41.84    7.33
   5 -13  -3   33.80    1.93
  -5  13  -3   32.37    3.05
   5  13   3   39.73    3.44
   5  13   3   33.14    1.77
   5  13   3   33.18    5.06
   5 -13   3   30.75    3.03
  -5 -13  -3   35.40    1.76
   5 -13   3   37.13    5.88
   5 -13   3   34.20    3.61
   5 -13   3   32.03    1.80
   5 -13   3   28.62    4.47
   5 -13   3   30.39    1.88
  -5  14   0    1.45    3.35
   5 -14   0    0.38    1.31
   5  14   0   -0.50    1.21
   5  14   0    0.18    1.74
   5  14   0    0.44    2.52
   5 -14   0    0.97    0.47
   5  14   0   -0.77    1.36
  -5  14   0   -0.10    2.14
   5  14   0    1.33    1.01
   5  14   0   -0.85    2.01
   5  14   0    2.19    2.98
   5  14   0    0.53    0.35
  -5  14   0   -0.74    1.28
   5 -14   0    1.99    3.19
  -5 -14   0    0.69    0.36
  -5  14   0    0.34    0.54
   5  14   0   -0.04    1.11
   5 -14   0   -0.06    0.55
   5 -14   0   -0.11    2.22
   5 -14   0   -0.53    1.61
  -5  14   0    2.72    1.67
  -5  14  -2   -1.92    2.67
   5  14   2    3.02    1.71
  -5  14  -2    0.19    0.59
  -5  14  -2   -2.60    3.98
   5 -14  -2   -0.23    0.70
   5  14   2    0.77    0.42
  -5  14  -2    0.17    1.43
  -5  14  -2   -0.05    1.88
   5  14   2   -0.86    4.17
   5  14   2   -2.41    2.76
   5  14   2    1.41    2.17
   5 -14  -2    0.86    0.52
   5 -14   2    0.08    0.54
  -5 -14  -2    0.15    0.44
   5 -14   2    0.38    1.93
   5 -14   2    0.32    0.45
   5 -14   2    0.45    2.74
   5  14  -2    0.45    1.36
  -5  14   2    0.03    0.62
   5  14  -2    0.60    0.77
   5  14  -2    1.51    0.96
   5  14  -2    3.14    1.99
   5 -14   2   -0.67    3.77
   5 -14   2    1.97    1.57
  -5  14  -4   -0.09    0.81
   5 -14  -4   -0.27    0.73
   5  14   4    3.20    3.27
   5  14   4    2.69    4.45
   5  14   4   -0.84    6.62
  -5  14  -4   -1.56    3.79
   5 -14  -4    1.50    0.98
  -5  14  -4    0.86    0.65
  -5  14  -4   -4.94    5.80
   5  14   4    0.49    0.54
   5  14   4    4.50    2.62
  -5  14  -4    3.70    2.27
  -5  14  -4   -0.18    2.63
   5 -14   4   -0.35    3.20
  -5 -14  -4    0.30    0.56
   5 -14   4    0.21    2.56
   5 -14   4    0.42    0.78
   5 -14   4    7.89    5.84
   5 -14   4   -0.54    0.60
   5 -14   4   -4.56    4.23
  -5  14   4    1.40    0.77
   5  15   1   79.03    4.39
   5  15   1   56.40    7.04
  -5  15  -1   79.69    3.58
   5  15   1   81.41    5.76
  -5  15  -1   78.05    4.52
  -5 -15   1   83.48    3.16
   5 -15  -1   79.97    3.71
  -5  15  -1   79.57    4.95
  -5  15  -1   85.65    5.91
   5  15   1   78.71    3.32
   5  15   1   76.89    4.83
  -5  15  -1   76.92    7.50
   5 -15  -1   79.94    3.47
  -5  15   1   80.53    4.40
   5 -15   1   78.49    5.72
  -5  15   1   75.34    4.78
   5 -15   1   79.49    4.88
   5  15  -1   84.47    4.14
   5  15  -1   82.68    3.88
   5 -15   1   73.77    3.51
   5 -15   1   76.85    3.53
   5 -15   1   76.95    4.46
   5  15  -1   82.51    4.72
  -5  15   1   80.59    6.98
   5  15  -1   86.14    5.79
  -5  15   1   79.61    3.51
  -5  15   1   77.97    5.65
  -5 -15  -1   83.06    3.30
   5 -15   1   70.46    6.87
   5  15   3   97.60    4.29
   5  15   3  101.91    9.77
  -5  15  -3  106.76    9.43
   5  15   3  108.38    7.66
   5 -15  -3  109.54    4.73
  -5  15  -3  105.24    4.60
  -5  15  -3   91.99    7.17
  -5  15  -3  101.56    6.10
  -5  15  -3  102.72    5.59
   5  15   3   92.89    5.67
   5 -15  -3  105.15    4.17
   5 -15  -3  106.80    4.52
   5  15   3  103.54    6.43
   5 -15   3  100.64    4.48
   5 -15   3   89.25    6.88
  -5 -15  -3  108.41    4.28
   5 -15   3  100.70    4.37
   5 -15   3   89.59    5.39
   5 -15   3   81.96    8.36
   5 -15   3   94.69    5.92
   5 -16   0    7.14    2.72
  -5  16   0    4.26    2.86
  -5 -16   0    5.22    0.60
  -5  16   0    7.47    1.85
   5 -16   0    5.06    0.79
   5 -16   0    5.12    3.65
   5 -16   0    4.07    1.68
   5 -16   0    5.03    0.94
  -5  16   0    7.81    4.19
   5 -16   0    6.79    2.16
  -5  16   0    5.38    0.91
   5  16   0    6.84    0.66
  -5  16   0    5.27    2.12
   5  16   2    3.03    0.59
   5 -16  -2    2.96    0.65
   5 -16  -2    3.30    0.94
  -5  16  -2    2.74    2.19
   5  16   2   -3.45    4.68
  -5  16  -2    1.38    1.82
  -5  16  -2    5.06    3.13
   5  16   2    2.79    1.92
  -5  16  -2   -6.06    4.21
   5  16   2    6.42    3.46
   5  16   2    2.44    2.34
  -5  16  -2    3.27    0.78
   5  16  -2    2.83    0.92
   5 -16   2    2.84    2.98
  -5 -16  -2    3.07    0.57
   5 -16   2    2.25    2.17
   5 -16   2    2.75    0.64
   5  16  -2    1.02    1.11
   5  16  -2   -1.25    2.21
   5 -16   2    6.14    1.83
   5 -16   2    2.78    0.73
   5 -16   2   -5.32    4.12
   5  16  -2    2.18    1.56
  -5  16  -4    0.89    0.90
   5 -16  -4    0.14    0.77
   5 -16  -4   -0.79    1.06
   5  16   4    0.29    0.58
  -5 -16  -4   -0.81    0.57
   5 -16   4   -0.99    0.65
   5 -16   4   -0.54    0.74
  -5  17  -1  198.74   10.64
   5 -17  -1  206.22    8.56
   5  17   1  212.71    8.10
  -5  17  -1  205.55    9.33
  -5  17  -1  207.41    9.81
  -5  17  -1  199.03    8.36
  -5  17  -1  209.19   12.53
   5 -17  -1  202.62    8.26
  -5  17   1  213.65    8.31
   5 -17   1  213.21    8.40
   5 -17   1  205.87    8.35
  -5 -17  -1  204.55    8.06
   5 -17  -3  149.30    6.28
  -5  17  -3  132.42   11.12
   5 -17  -3  142.33    5.74
  -5  17  -3  137.32    6.13
  -5  17  -3  135.84    7.70
   5  17   3  147.55    5.87
  -5  17  -3  140.85    7.19
   5 -17  -3  130.90    6.02
  -5  17  -3  134.26    8.86
   5 -17   3  135.12   10.73
   5 -17   3  145.07    5.94
   5 -17   3  148.92    7.16
   5 -17   3  141.00    7.65
   5 -17   3  143.25    6.05
   5 -17   3  144.01    8.78
  -5 -17  -3  143.17    5.80
  -5 -18   0    9.35    0.76
   5  18   0    9.70    0.78
   5 -18   0    7.78    1.04
   5 -18   0    9.10    0.97
  -5  18   0    8.28    1.08
  -5  18  -2    4.96    2.13
  -5  18  -2    8.14    3.59
   5 -18  -2    6.22    1.18
   5  18   2    3.93    0.79
  -5  18  -2    7.27    2.59
  -5  18  -2    7.13    1.13
   5 -18  -2    5.01    0.86
  -5  18  -2    8.95    5.24
   5 -18   2    7.24    2.61
   5 -18   2    5.90    0.93
   5 -18   2    6.19    3.46
   5 -18   2    7.49    2.15
  -5  18   2    6.59    1.10
  -5 -18  -2    6.01    0.77
   5 -18   2    7.47    0.97
   5 -18   2   12.15    4.96
  -5  19  -1   10.68    1.19
   5  19   1   10.57    0.92
   5 -19  -1   10.39    1.10
   5 -19  -1   11.26    1.35
   5 -19   1   10.56    1.09
  -5 -19  -1   10.46    0.86
   5 -19   1   11.56    1.19
  -5  19   1   12.26    1.31
  -5  19  -3    5.99    1.24
   5 -19  -3    4.46    0.97
  -5  19  -3   -2.90    6.66
  -5  19  -3    6.45    2.59
  -5  19  -3    7.08    3.30
   5  19   3    4.84    0.84
   5 -19  -3    4.47    0.87
   5 -19  -3    5.44    1.26
  -5  19  -3   -2.52    4.39
  -5 -19  -3    3.68    0.75
   5 -19   3    3.27    0.79
   5 -19   3    4.00    0.90
   5 -20   0   11.76    1.32
   5 -20   0    9.43    1.09
  -5  20   0    8.99    1.22
   5  20   0    7.21    0.93
  -5 -20   0    7.36    0.77
   5  20   2    6.12    0.87
   5 -20  -2    4.75    0.97
   5 -20  -2    4.37    1.05
  -5  20  -2    5.52    1.09
   5 -20   2    4.99    0.98
  -5  20   2    6.06    1.01
  -5 -20  -2    4.50    0.75
   5 -20   2    6.12    1.03
   5  21   1   99.96    4.15
   5 -21  -1  102.62    4.62
  -5  21  -1  101.78    4.53
   5 -21  -1   96.82    4.40
   5 -21   1  101.87    4.53
  -5  21   1   94.56    4.42
   5 -21   1   92.62    4.42
  -5 -21  -1  100.88    4.08
  -5  22   0    3.90    1.05
   5 -22   0    3.39    1.08
   5 -22   0    3.94    0.89
   5 -22  -2    3.89    0.93
   5 -22  -2    2.36    1.09
  -5  22  -2    3.92    1.09
   5  22   2    2.60    0.72
  -5 -22  -2    2.48    0.68
   5 -22   2    3.39    0.96
  -5  22   2    2.97    0.92
   5 -22   2    1.54    0.82
   5 -23  -1   28.25    1.88
   5  23   1   27.40    1.63
  -5  23  -1   30.16    2.05
   5 -23  -1   29.31    2.10
   5 -23   1   24.86    1.85
  -5  23   1   27.07    1.95
  -5 -23  -1   27.73    1.54
   5 -23   1   26.06    2.00
   5 -24   0    0.54    0.82
  -5  24   0    0.87    0.99
   5 -24   0    1.04    0.97
   6   0   0  161.05    6.37
   6   0   0  160.03    6.47
   6   0   0  158.32    7.63
  -6   0   0  158.99    6.49
   6   0   0  166.51    7.34
   6   0   0  172.21    9.86
   6   0   0  161.05    8.42
   6   0   2  168.94    8.29
  -6   0   2  164.11    6.39
   6   0  -2  164.28    7.80
   6   0   2  157.69    6.59
   6   0  -2  159.91    6.66
   6   0   2  158.22   10.87
   6   0  -2  172.93    7.29
   6   0  -2  173.31    7.02
  -6   0  -2  168.98    6.58
   6   0   2  147.84    9.09
   6   0   2  165.10    7.76
  -6   0  -2  156.23    6.67
   6   0  -2  157.72    8.75
   6   0   4  187.45    7.94
  -6   0  -4  194.41    7.83
  -6   0  -4  196.96    8.02
  -6  -1   1    4.89    0.77
   6  -1  -1    4.33    1.63
   6   1   1    5.94    1.42
   6  -1  -1    3.54    3.26
   6  -1  -1    5.41    2.85
   6   1   1    7.23    2.35
   6  -1  -1    6.18    2.38
  -6   1  -1    6.19    0.83
   6  -1  -1    8.45    1.51
   6   1   1    2.70    3.16
   6  -1  -1    7.80    1.56
   6   1   1    4.70    0.64
   6   1   1   11.41    2.99
   6   1   1    8.36    1.79
   6  -1  -1    5.61    1.41
   6  -1  -1    6.33    0.88
   6   1   1    5.48    2.06
   6   1   1    4.96    0.66
   6  -1  -1    5.14    0.53
   6   1   1    5.51    4.07
   6   1   1   10.69    2.02
   6  -1  -1    9.76    2.11
   6  -1   1    4.58    0.68
   6   1  -1    8.00    3.01
   6  -1   1   11.58    2.18
   6   1  -1    6.23    0.87
   6   1  -1    7.09    1.35
  -6  -1  -1    5.20    0.73
  -6   1   1    5.23    0.77
   6  -1   1    6.81    2.09
   6   1  -1    4.87    1.54
   6  -1   1    9.75    2.36
   6   1  -1    6.88    1.30
   6  -1   1    7.54    1.48
   6  -1   1    7.33    2.90
   6   1  -1    7.31    1.50
   6  -1   1    4.62    0.65
   6  -1   1    8.91    3.29
   6   1  -1    6.45    2.65
   6  -1   1    5.80    1.64
   6   1  -1    5.42    2.14
   6   1  -1    6.63    1.97
   6   1  -1    5.58    0.47
  -6  -1  -1    6.22    0.67
   6  -1   1    6.91    4.03
   6  -1  -3    5.30    0.95
   6   1   3   11.08    3.88
  -6   1  -3    4.67    0.79
   6   1   3    4.01    2.85
   6   1   3    4.04    0.76
   6   1   3   -0.71    5.30
   6   1   3    7.87    2.30
  -6   1  -3    3.83    0.81
   6   1  -3    4.30    1.50
   6   1  -3   -3.13    1.95
  -6  -1  -3    4.04    0.74
   6   1  -3    2.55    1.18
   6  -1   3    2.88    2.65
   6  -1   3    3.94    3.79
   6  -1   3    8.06    2.26
   6   1  -3    4.26    0.89
   6   1  -3    8.33    2.99
  -6  -1  -3    3.78    0.88
   6  -1   3    4.25    0.78
   6  -1   3    9.65    5.52
   6  -2   0   89.15    3.80
   6   2   0   94.93    5.34
   6   2   0   87.92    4.36
   6  -2   0   87.26    5.02
   6   2   0   86.76    4.63
   6   2   0   90.48    3.75
   6  -2   0   86.95    5.80
  -6   2   0   91.42    3.80
   6   2   0   88.67    4.96
   6   2   0   81.08    5.62
   6   2   0   92.49    6.47
   6  -2   0   94.64    7.18
   6   2   0   92.04    7.05
   6  -2   0   91.41    3.70
  -6  -2   0   88.13    3.77
   6   2   0   90.27    4.60
  -6   2  -2   52.01    2.43
   6   2   2   58.13    5.43
   6   2   2   55.67    3.86
   6  -2  -2   51.42    2.63
   6   2   2   56.14    7.28
   6   2   2   54.00    2.45
   6   2   2   53.90    4.29
  -6   2  -2   51.61    2.57
  -6  -2   2   56.29    2.30
   6  -2   2   48.99    3.78
   6   2  -2   51.74    4.90
   6   2  -2   45.03    2.93
   6   2  -2   50.48    3.75
   6   2  -2   51.58    2.89
  -6  -2  -2   51.50    2.42
   6  -2   2   51.75    4.32
   6  -2   2   60.42    7.46
  -6   2   2   55.30    2.29
   6   2  -2   57.14    3.18
  -6  -2  -2   45.56    2.46
   6  -2   2   58.23    5.54
   6  -2   2   53.39    2.43
   6  -2   2   53.79    2.48
   6   2   4   20.43    1.41
   6  -2  -4   17.72    1.46
  -6   2  -4   16.71    1.33
  -6   2  -4   19.72    1.57
  -6  -2  -4   18.59    1.57
  -6  -2  -4   17.93    1.33
   6  -2   4   20.05    1.45
   6   3   1    0.30    1.86
   6  -3  -1    3.57    1.50
   6   3   1    4.51    2.74
   6  -3  -1    2.11    1.28
   6   3   1    3.71    3.77
   6  -3  -1    2.81    0.50
   6   3   1    2.50    1.49
   6   3   1    2.60    0.52
  -6   3  -1    4.00    0.70
   6  -3  -1    4.02    2.35
   6   3   1    2.15    0.52
   6  -3  -1    2.19    0.69
   6  -3  -1   10.04    3.21
   6   3  -1    4.51    2.12
   6  -3   1    3.14    1.64
   6  -3   1   -9.31    3.63
  -6   3   1    2.56    0.62
  -6   3   1    1.83    1.10
   6  -3   1    5.50    2.22
   6   3  -1    1.79    0.32
   6  -3   1    3.55    2.75
   6  -3   1    2.62    1.33
   6   3  -1    3.17    1.25
   6   3  -1    3.09    0.73
   6   3  -1    1.01    1.73
   6  -3   1   -4.10    2.86
   6  -3   1    2.75    0.55
  -6  -3  -1    2.65    0.54
   6  -3   1   -0.36    1.57
   6   3  -1    2.99    1.20
  -6   3   1    5.06    1.46
   6  -3   1    2.47    1.96
  -6   3   1    1.19    1.86
  -6   3   1    6.21    2.84
   6   3  -1    2.72    0.99
   6   3  -1    4.01    2.58
   6   3  -1    0.36    1.36
   6   3  -1    1.01    2.91
  -6  -3  -1    1.80    0.56
   6  -3  -3    1.25    0.85
  -6   3  -3    2.30    0.62
   6   3   3    1.93    0.57
   6   3   3    6.26    2.17
  -6   3  -3    1.88    0.71
   6   3   3    4.70    3.83
   6   3   3    5.93    2.70
   6   3   3    3.13    5.44
   6   3  -3    0.66    1.27
   6  -3   3    1.14    2.19
   6  -3   3    0.89    0.55
   6   3  -3    2.00    1.80
   6   3  -3    1.74    0.64
  -6  -3  -3    0.84    0.51
  -6  -3  -3    1.14    0.65
   6  -3   3   -0.60    3.81
   6   3  -3    3.46    2.56
   6  -3   3   -1.35    2.73
   6   3  -3    1.52    1.04
   6  -3   3    8.59    5.85
  -6   4   0  185.10   10.36
   6   4   0  179.45   10.45
   6   4   0  184.39    8.23
  -6  -4   0  186.29    7.30
   6   4   0  178.54    8.78
   6   4   0  178.50    8.05
   6  -4   0  180.09    7.24
   6  -4   0  183.83   10.10
   6  -4   0  181.31    8.19
   6   4   0  190.33    8.49
  -6   4   0  186.80    8.33
   6  -4   0  193.06    9.11
   6   4   0  187.38    7.15
   6  -4   0  189.52    7.38
   6   4   0  187.17    7.26
  -6   4   0  178.79    7.98
  -6   4   0  184.40    7.33
  -6  -4   0  175.70    7.20
   6  -4   0  182.43    8.56
  -6   4   0  186.54    9.03
   6   4   0  193.39    7.99
   6   4   0  175.34    9.10
   6   4   0  178.22    9.69
  -6  -4   2  174.70    6.61
  -6   4  -2  157.62    6.87
   6   4   2  169.18    8.46
   6   4   2  179.54    9.55
   6   4   2  173.02   11.33
   6  -4  -2  162.62    6.96
   6   4   2  171.16    6.77
   6   4   2  175.71    7.99
   6  -4   2  160.39    6.77
   6  -4   2  159.50    9.49
   6   4  -2  171.61    6.74
   6   4  -2  169.29    7.04
  -6   4   2  168.44    6.59
  -6  -4  -2  171.61    6.88
   6   4  -2  171.42    8.55
   6  -4   2  168.13   11.38
  -6  -4  -2  173.14    6.76
   6   4  -2  165.24    7.72
   6  -4   2  166.76    6.84
   6  -4   2  168.44    8.52
   6  -4   2  169.05    8.05
   6   4  -2  166.86    7.25
  -6   4  -4  105.22    4.64
  -6   4  -4  103.17    4.43
   6  -4  -4   93.83    4.42
   6   4   4  100.56    4.43
   6  -4   4  102.25    4.51
  -6  -4  -4  110.45    4.63
  -6  -4  -4   96.53    4.36
   6   5   1   -1.86    1.43
  -6   5  -1    0.11    3.53
   6   5   1   -0.33    2.58
  -6   5  -1    1.58    0.55
  -6  -5   1    0.23    0.45
  -6   5  -1    6.38    2.51
   6  -5  -1    0.80    0.42
   6   5   1    0.75    1.88
   6   5   1    0.26    0.40
  -6   5  -1   -0.54    1.33
   6   5   1    2.51    3.77
  -6   5  -1   -1.19    1.54
   6   5   1    0.08    0.41
   6  -5  -1    0.31    0.63
   6   5  -1    0.95    0.96
  -6   5   1    1.57    2.90
   6   5  -1    0.32    0.53
  -6   5   1   -0.53    1.99
   6   5  -1    0.95    2.41
  -6   5   1   -1.07    1.08
  -6   5   1    0.11    1.42
  -6  -5  -1    0.20    0.43
  -6  -5  -1    0.55    0.52
  -6   5   1    0.03    0.54
   6  -5   1    0.66    0.44
   6   5  -1   -1.20    1.14
   6  -5   1    0.53    0.49
   6   5  -1   -0.74    1.61
   6  -5  -3    1.15    0.74
  -6   5  -3   -0.24    0.53
  -6   5  -3    1.04    0.62
   6   5   3    4.19    2.17
   6   5   3  -13.06    5.29
   6   5   3   -7.58    3.69
   6   5   3   -2.36    2.64
   6   5   3    0.41    0.49
  -6  -5  -3    0.64    0.57
   6   5  -3    3.59    2.18
   6   5  -3   -0.09    1.04
   6  -5   3    4.61    5.47
   6  -5   3    0.61    2.54
   6  -5   3    0.79    2.11
   6   5  -3   -1.36    1.44
   6  -5   3    0.32    0.55
   6  -5   3   -0.30    0.52
  -6  -5  -3    0.02    0.48
   6   5  -3    0.44    0.86
  -6   6   0  140.01    5.60
   6   6   0  138.82    5.37
   6   6   0  137.17    6.41
  -6   6   0  136.68    6.29
   6   6   0  138.28    7.58
   6  -6   0  138.65    5.52
  -6   6   0  122.25    8.33
   6   6   0  133.86    6.77
   6   6   0  133.86    5.46
  -6  -6   0  140.07    5.46
   6  -6   0  140.41    5.75
  -6   6   0  133.76    7.35
   6   6   0  139.61    9.04
  -6   6   0  133.20    6.58
   6  -6  -2  147.57    6.02
  -6   6  -2  138.59    5.89
   6   6   2  139.26    8.44
   6   6   2  136.41    5.72
   6   6   2  140.43    6.92
   6   6   2  153.29   10.37
   6   6   2  142.38    7.46
  -6  -6   2  143.87    5.58
  -6  -6  -2  139.29    5.72
   6   6  -2  144.67    5.64
   6  -6   2  135.60    5.82
   6  -6   2  141.79    5.80
  -6  -6  -2  140.38    5.84
  -6   6   2  138.89    5.58
   6  -6  -4  101.50    4.64
  -6   6  -4  103.65    4.76
  -6   6  -4  106.27    4.56
   6   6   4  103.95    4.55
  -6  -6  -4  105.97    4.51
   6  -6   4  108.19    4.68
  -6  -6  -4  102.53    4.66
  -6   7  -1   -1.69    1.62
   6   7   1    2.32    2.05
   6   7   1   -2.15    2.70
  -6  -7   1    0.01    0.43
   6   7   1    1.86    1.63
   6   7   1   -0.04    0.39
  -6   7  -1    0.94    2.35
  -6   7  -1    0.12    0.51
  -6   7  -1    4.51    3.63
   6  -7  -1   -0.34    0.43
  -6   7  -1   -0.87    1.33
   6  -7  -1    0.85    0.63
   6   7   1   -9.95    3.86
   6   7  -1    0.65    0.49
   6  -7   1    0.18    0.45
  -6  -7  -1    0.12    0.41
   6  -7   1    0.00    0.46
  -6   7  -3   -0.97    0.67
   6   7   3   -1.19    2.79
  -6   7  -3   -0.84    0.53
   6  -7  -3    0.88    0.86
   6   7   3    0.03    3.89
   6   7   3   -0.30    5.55
   6   7   3    1.91    2.27
   6   7   3    0.06    0.45
   6  -7   3    1.18    2.30
   6   7  -3   -0.91    0.82
   6  -7   3   -0.74    0.45
   6   7  -3    0.61    1.12
   6   7  -3   -0.97    0.66
   6  -7   3   -4.99    3.96
  -6  -7  -3   -0.19    0.50
   6  -7   3   -0.08    0.57
  -6  -7  -3   -0.27    0.54
   6  -7   3    1.01    2.80
   6   7  -3   -0.01    1.58
   6  -7   3   -2.89    5.67
   6  -8   0   15.90    1.20
  -6   8   0   16.98    1.19
  -6  -8   0   17.87    1.03
   6  -8   0   16.75    1.12
   6   8   0   17.22    0.94
   6   8   2   13.96    2.71
   6   8   2    8.71    0.83
  -6  -8   2    7.76    0.68
  -6   8  -2    8.18    0.99
   6   8   2   -0.06    5.09
   6  -8  -2    7.65    0.67
   6   8   2   11.38    2.88
   6  -8  -2    9.68    1.27
   6   8   2    9.89    3.93
   6   8  -2    7.57    1.81
   6   8  -2    9.61    2.58
   6   8  -2    8.52    1.40
  -6  -8  -2    7.29    0.78
   6   8  -2    7.37    1.17
   6  -8   2    6.67    0.87
   6  -8   2    6.26    0.82
  -6   8   2    4.95    0.89
  -6   8  -4    1.70    0.89
   6   8   4    1.45    0.67
  -6   8  -4    1.03    0.67
   6  -8  -4    0.69    0.98
  -6  -8  -4    2.27    0.75
  -6  -8  -4    2.23    0.89
   6  -8   4    2.29    0.82
   6  -8   4    0.82    0.70
   6   9   1   -0.15    0.39
  -6   9  -1    0.61    0.56
  -6  -9   1    0.49    0.42
   6  -9  -1    0.31    0.69
   6  -9  -1    0.69    0.47
   6  -9   1    0.26    0.54
  -6   9   1    0.89    0.60
   6  -9   1    0.69    0.53
   6   9  -1    1.13    0.52
  -6  -9  -1    0.31    0.43
   6  -9  -3    2.03    0.96
   6   9   3    2.50    4.47
   6   9   3  -10.51    5.79
   6   9   3    1.40    3.75
   6   9   3  -11.16    8.16
  -6   9  -3   -0.48    0.69
   6   9   3    0.92    0.56
   6  -9   3    1.02    0.60
  -6  -9  -3    1.06    0.55
   6  -9   3    0.26    0.63
   6  10   0   62.65    2.78
  -6  10   0   67.93    2.99
   6  10   0   63.21    2.68
   6 -10   0   64.68    2.92
   6 -10   0   65.91    3.07
  -6 -10   0   67.98    2.78
  -6  10  -2   70.10    3.26
   6  10   2   64.58    2.99
   6 -10  -2   68.23    3.34
   6 -10  -2   69.34    2.92
   6 -10   2   66.33    3.12
  -6 -10  -2   67.67    2.99
   6 -10   2   68.76    3.17
   6  10   4   85.80    3.97
   6 -10  -4   89.27    4.25
  -6  10  -4   85.00    4.22
   6 -10   4   85.88    4.12
  -6 -10  -4   91.63    3.96
  -6 -10  -4   89.59    4.14
   6 -10   4   98.00    4.31
   6  11   1    3.41    0.58
   6 -11  -1    5.85    1.08
  -6  11  -1    3.16    0.73
   6 -11  -1    4.06    0.72
  -6 -11   1    4.21    0.65
   6 -11   1    3.23    0.74
  -6  11   1    5.20    0.97
  -6 -11  -1    3.76    0.64
   6 -11   1    4.37    0.81
   6 -11  -3    3.53    1.12
  -6  11  -3    2.09    0.80
   6  11   3    2.58    0.65
  -6 -11  -3    1.84    0.62
   6 -11   3    2.29    0.72
   6 -11   3    2.69    0.82
  -6  12   0  116.73    4.86
   6  12   0  112.50    4.58
   6 -12   0  113.11    4.80
  -6 -12   0  119.39    4.61
   6  12   0  113.68    4.51
   6 -12   0  110.24    4.92
   6  12   2   74.80    3.19
   6 -12  -2   67.54    3.05
   6 -12  -2   74.81    3.59
  -6  12  -2   67.99    3.41
  -6  12   2   75.00    3.36
   6 -12   2   73.68    3.37
   6 -12   2   72.04    3.33
  -6 -12  -2   71.60    3.15
  -6 -13   1    5.64    0.67
   6  13   1    5.72    0.72
  -6  13  -1    4.47    0.89
   6 -13  -1    5.70    0.83
   6 -13  -1    7.18    1.23
  -6 -13  -1    5.60    0.75
  -6  13   1    6.09    1.04
   6 -13   1    5.55    0.95
   6 -13   1    5.55    0.90
   6 -13  -3    5.03    1.23
  -6  13  -3    5.79    1.13
   6  13   3    4.56    0.85
   6 -13   3    5.87    1.02
  -6 -13  -3    6.91    0.96
   6 -13   3    6.43    1.00
   6 -14   0   31.55    1.75
  -6 -14   0   31.41    1.52
   6 -14   0   30.89    1.93
  -6  14   0   27.52    1.77
   6  14   0   32.08    1.61
   6 -14  -2   25.30    1.49
  -6  14  -2   22.27    1.75
   6  14   2   28.12    1.54
  -6 -14  -2   27.46    1.52
   6 -14   2   29.80    1.74
   6 -14   2   27.04    1.74
  -6  15  -1    2.93    0.81
   6 -15  -1    1.82    1.00
   6 -15  -1    4.55    0.89
   6  15   1    1.76    0.58
  -6  15   1    3.51    0.92
   6 -15   1    3.31    0.80
   6 -15   1    3.83    0.79
  -6 -15  -1    4.37    0.72
   6 -15  -3    2.58    1.10
  -6  15  -3    1.91    0.94
   6  15   3    2.24    0.71
   6 -15   3    1.39    0.82
  -6 -15  -3    1.46    0.70
   6 -15   3    0.90    0.76
  -6 -16   0   31.21    1.51
   6 -16   0   29.72    1.98
   6 -16   0   27.88    1.78
  -6  16   0   28.25    1.90
  -6  16  -2   38.78    2.40
   6 -16  -2   43.17    2.54
   6 -16  -2   42.12    2.11
   6  16   2   41.16    2.07
   6 -16   2   38.87    2.26
   6 -16   2   44.10    2.36
  -6 -16  -2   40.80    2.05
   6 -17  -1    0.89    1.02
   6 -17  -1   -0.36    0.72
   6  17   1    0.85    0.55
  -6  17  -1    2.36    0.88
  -6 -17  -1    0.35    0.56
   6 -17   1    0.41    0.72
   6 -17   1   -1.14    0.75
  -6  17   1    0.65    0.92
   6 -18   0   28.62    1.81
   6 -18   0   28.12    2.02
  -6  18   0   28.01    1.91
   6 -18  -2   35.36    2.01
   6 -18  -2   34.88    2.38
   6  18   2   34.73    1.90
  -6  18  -2   35.19    2.25
   6 -18   2   34.51    2.12
  -6 -18  -2   33.15    1.84
   6 -18   2   35.74    2.38
   6 -19  -1    1.93    0.84
   6  19   1    0.22    0.57
  -6  19  -1    0.97    0.95
   6 -19  -1   -0.15    1.06
  -6  19   1    1.58    1.00
  -6 -19  -1    0.80    0.66
   6 -19   1    0.50    0.74
   6 -19   1    2.39    0.98
   6 -20   0    3.59    0.89
   6 -20   0    1.49    1.17
  -6  20   0    3.40    1.13
   7   0   0    0.15    0.63
   7   0   0    0.13    0.46
  -7   0   0    0.53    0.62
  -7   0  -2   -0.52    0.51
   7   0  -2    1.20    0.99
   7   0   2    0.41    0.62
   7   0   2   -0.22    0.55
  -7   0  -2   -2.03    0.66
  -7   1  -1   59.10    2.86
   7   1   1   63.24    2.79
   7  -1  -1   58.14    2.87
  -7  -1   1   58.49    2.75
   7   1   1   59.21    2.68
   7   1  -1   57.11    2.85
   7  -1   1   60.62    2.72
   7  -1   1   59.88    2.81
  -7   1   1   59.94    2.75
  -7  -1  -1   57.88    2.85
  -7  -1  -1   61.05    2.75
  -7   1  -3   51.14    2.55
   7   1   3   51.30    2.55
   7  -1  -3   52.16    2.82
  -7   1  -3   50.55    2.73
  -7  -1  -3   49.66    2.75
   7  -1   3   51.25    2.57
  -7  -1  -3   48.08    2.52
  -7  -2   0   -1.17    0.59
  -7   2   0   -0.07    0.62
   7  -2   0    0.16    0.50
   7  -2   0   -0.95    0.63
   7   2   0    1.19    0.62
   7   2   0    0.07    0.45
   7   2   2    0.25    0.59
  -7   2  -2    0.08    0.72
   7  -2  -2    1.03    1.02
   7   2   2    0.67    0.61
  -7   2  -2    0.88    0.66
   7   2  -2    1.37    0.95
  -7  -2  -2   -0.30    0.55
  -7  -2  -2   -0.87    0.70
   7  -2   2    0.02    0.59
   7  -2   2   -0.29    0.53
   7   3   1    1.72    0.65
  -7  -3   1    3.07    0.73
   7  -3  -1   -0.43    0.79
   7   3   1    1.65    0.56
  -7   3  -1   -0.12    0.58
   7  -3   1    0.47    0.59
  -7   3   1    1.73    0.72
   7   3  -1    1.19    0.77
  -7  -3  -1    1.44    0.61
   7  -3   1    1.97    0.66
  -7  -3  -1    0.55    0.62
   7   4   0    0.71    0.48
   7  -4   0    0.13    0.52
  -7   4   0   -0.20    0.65
  -7  -4   0    0.71    0.54
  -7  -4   0    0.05    0.58
   7   4   0    0.45    0.63
   7  -4   0    1.47    0.70
   7   4   2    1.00    0.63
  -7   4  -2    1.79    0.80
   7   4   2    1.86    0.66
   7  -4  -2    1.08    1.04
  -7   4  -2    2.29    0.67
  -7  -4  -2    3.29    0.80
  -7  -4  -2    2.30    0.73
   7  -4   2    1.70    0.70
   7  -4   2    2.53    1.06
   7   5   1   79.76    3.54
  -7   5  -1   88.64    3.83
  -7  -5   1   84.20    3.62
  -7  -5   1   83.91    3.53
   7   5   1   81.42    3.62
   7  -5  -1   88.18    3.62
   7  -5  -1   88.65    3.94
   7  -5   1   78.19    3.64
  -7   5   1   84.14    3.66
   7  -5   1   83.86    3.75
  -7  -5  -1   85.52    3.62
   7   5  -1   79.46    3.66
  -7  -5  -1   84.58    3.75
   7  -6   0    2.09    0.78
   7  -6   0    1.06    0.57
  -7  -6   0    1.09    0.61
   7   6   0    2.13    0.66
  -7   6   0    2.06    0.74
  -7  -6   0    1.04    0.59
   7  -6  -2    4.03    1.15
   7   6   2    2.80    0.71
  -7   6  -2    3.42    0.86
  -7  -6   2    3.38    0.66
  -7  -6  -2    4.13    0.84
   7  -6   2    3.48    0.83
   7  -6   2    1.44    0.73
  -7  -6  -2    4.73    0.84
  -7  -7   1   73.37    3.18
  -7   7  -1   68.62    3.35
   7  -7  -1   73.68    3.52
   7  -7  -1   70.24    3.05
   7   7   1   70.74    3.17
  -7  -7   1   73.82    3.08
   7   7   1   71.30    3.10
  -7  -7  -1   71.21    3.16
  -7   7   1   72.12    3.23
  -7  -7  -1   70.37    3.28
   7  -7   1   71.59    3.32
   7  -7   1   72.21    3.26
  -7  -8   0    0.13    0.54
   7  -8   0    0.43    0.74
  -7   8   0   -0.32    0.69
  -7  -8   0    0.90    0.63
   7  -8   0    0.25    0.60
   7   8   0    0.46    0.65
  -7   8  -2    1.68    0.91
   7  -8  -2    0.83    1.06
   7   8   2    1.78    0.64
  -7  -8  -2    1.55    0.67
   7  -8   2    2.13    0.80
  -7  -8  -2    1.61    0.75
   7  -8   2    2.22    0.77
   7  -9  -1    6.67    0.93
  -7   9  -1    7.93    1.14
   7   9   1    8.55    0.89
  -7  -9   1    8.98    0.90
  -7  -9   1    7.61    1.02
   7   9   1    8.73    0.96
   7  -9  -1    8.62    1.37
  -7   9   1   10.50    1.19
   7  -9   1    8.25    1.13
  -7  -9  -1    5.79    1.04
   7  -9   1    9.09    1.08
  -7  -9  -1    6.98    0.92
   7 -10   0    0.21    0.65
  -7  10   0   -1.88    0.69
   7 -10   0    0.34    0.79
  -7 -10   0    0.13    0.58
  -7 -10  -2    0.10    0.62
   7 -11  -1  156.77    6.58
   7 -11  -1  150.08    6.09
   7  11   1  143.04    6.06
   7  11   1  145.64    6.00
  -7  11  -1  151.86    6.38
  -7 -11  -1  156.88    6.10
  -7  11   1  152.48    6.23
   7 -11   1  146.53    6.25
   7 -11   1  153.10    6.39
  -7 -12   0   -0.12    0.60
   7 -12   0    0.87    0.94
   7 -12   0    1.38    0.73
  -7  12   0    1.20    0.81
   0   0   0    0.00    0.00
;
_shelx_hkl_checksum              21273
loop_
_space_group_symop_operation_xyz
'x, y, z'
'-x, -y, z'
'x+1/2, -y+1/2, z'
'-x+1/2, y+1/2, z'
'x, y+1/2, z+1/2'
'-x, -y+1/2, z+1/2'
'x+1/2, -y+1, z+1/2'
'-x+1/2, y+1, z+1/2'
loop_
_atom_site_label
_atom_site_type_symbol
_atom_site_fract_x
_atom_site_fract_y
_atom_site_fract_z
_atom_site_U_iso_or_equiv
_atom_site_adp_type
_atom_site_occupancy
_atom_site_site_symmetry_order
_atom_site_calc_flag
_atom_site_refinement_flags_posn
_atom_site_refinement_flags_adp
_atom_site_refinement_flags_occupancy
_atom_site_disorder_assembly
_atom_site_disorder_group
Ce1 Ce 0.49976(8) 0.40822(2) 0.6631(3) 0.0117(2) Uani 1 1 d . . . . .
P11 P 0.4473(5) 0.21321(9) 0.1319(5) 0.0054(7) Uani 0.887(4) 1 d . . P . .
P12 P 0.434(5) 0.2863(8) 0.644(6) 0.0054(7) Uani 0.113(4) 1 d . . P . .
Si11 Si 0.5845(5) 0.29276(10) 0.2420(7) 0.0046(6) Uani 0.887(4) 1 d . . P . .
Si12 Si 0.585(4) 0.2083(8) -0.238(5) 0.0046(6) Uani 0.113(4) 1 d . . P . .
P2 P 0.0041(4) 0.37571(7) 0.6580(9) 0.0060(4) Uani 1 1 d . . . . .
P31 P 0.327(2) 0.4997(3) 0.9870(18) 0.0142(12) Uiso 0.327(9) 1 d . . P . .
P32 P 0.230(2) 0.4997(3) 0.3672(18) 0.0142(12) Uiso 0.405(16) 1 d . . P . .
P33 P 0.191(3) 0.5001(4) 0.939(3) 0.0142(12) Uiso 0.263(14) 1 d . . P . .
loop_
_atom_site_aniso_label
_atom_site_aniso_U_11
_atom_site_aniso_U_22
_atom_site_aniso_U_33
_atom_site_aniso_U_23
_atom_site_aniso_U_13
_atom_site_aniso_U_12
Ce1 0.0090(3) 0.0196(3) 0.0065(3) 0.0004(4) 0.0001(2) 0.00063(18)
P11 0.0077(14) 0.0043(9) 0.0043(19) -0.0012(10) 0.0039(11) -0.0020(9)
P12 0.0077(14) 0.0043(9) 0.0043(19) -0.0012(10) 0.0039(11) -0.0020(9)
Si11 0.0066(12) 0.0035(11) 0.0038(11) 0.0006(11) -0.0009(10) -0.0003(10)
Si12 0.0066(12) 0.0035(11) 0.0038(11) 0.0006(11) -0.0009(10) -0.0003(10)
P2 0.0079(9) 0.0055(8) 0.0047(8) -0.0003(19) 0.0003(9) -0.0007(7)
loop_
_atom_type_symbol
_atom_type_description
_atom_type_scat_dispersion_real
_atom_type_scat_dispersion_imag
_atom_type_scat_source
Si Si 0.0817 0.0704 'International Tables Vol C Tables 4.2.6.8 and 6.1.1.4'
P P 0.1023 0.0942 'International Tables Vol C Tables 4.2.6.8 and 6.1.1.4'
Ce Ce -0.2486 2.6331 'International Tables Vol C Tables 4.2.6.8 and 6.1.1.4'
loop_
_geom_angle_atom_site_label_1
_geom_angle_atom_site_label_2
_geom_angle_atom_site_label_3
_geom_angle
_geom_angle_site_symmetry_1
_geom_angle_site_symmetry_3
_geom_angle_publ_flag
P33 Ce1 P33 46.1(7) 7_554 8_544 ?
P33 Ce1 P32 74.6(3) 7_554 8_545 ?
P33 Ce1 P32 50.8(3) 8_544 8_545 ?
P33 Ce1 P32 50.8(3) 7_554 7 ?
P33 Ce1 P32 74.3(3) 8_544 7 ?
P32 Ce1 P32 55.4(4) 8_545 7 ?
P33 Ce1 P2 131.1(3) 7_554 8_545 ?
P33 Ce1 P2 130.6(3) 8_544 8_545 ?
P32 Ce1 P2 79.9(2) 8_545 8_545 ?
P32 Ce1 P2 80.4(2) 7 8_545 ?
P33 Ce1 P2 77.5(3) 7_554 8_544 ?
P33 Ce1 P2 77.2(3) 8_544 8_544 ?
P32 Ce1 P2 126.72(19) 8_545 8_544 ?
P32 Ce1 P2 127.13(19) 7 8_544 ?
P2 Ce1 P2 148.43(7) 8_545 8_544 ?
P33 Ce1 P2 126.1(3) 7_554 . ?
P33 Ce1 P2 80.5(3) 8_544 . ?
P32 Ce1 P2 76.6(2) 8_545 . ?
P32 Ce1 P2 131.5(2) 7 . ?
P2 Ce1 P2 85.88(10) 8_545 . ?
P2 Ce1 P2 84.90(9) 8_544 . ?
P33 Ce1 P11 136.8(4) 7_554 6_655 ?
P33 Ce1 P11 144.1(4) 8_544 6_655 ?
P32 Ce1 P11 148.6(2) 8_545 6_655 ?
P32 Ce1 P11 139.5(2) 7 6_655 ?
P2 Ce1 P11 77.56(9) 8_545 6_655 ?
P2 Ce1 P11 71.14(9) 8_544 6_655 ?
P2 Ce1 P11 80.24(7) . 6_655 ?
P33 Ce1 P2 80.2(3) 7_554 1_655 ?
P33 Ce1 P2 125.8(3) 8_544 1_655 ?
P32 Ce1 P2 131.4(2) 8_545 1_655 ?
P32 Ce1 P2 76.4(2) 7 1_655 ?
P2 Ce1 P2 86.78(10) 8_545 1_655 ?
P2 Ce1 P2 85.80(10) 8_544 1_655 ?
P2 Ce1 P2 149.04(7) . 1_655 ?
P11 Ce1 P2 68.81(7) 6_655 1_655 ?
P33 Ce1 P12 145.8(6) 7_554 . ?
P33 Ce1 P12 136.9(7) 8_544 . ?
P32 Ce1 P12 137.5(6) 8_545 . ?
P32 Ce1 P12 148.8(6) 7 . ?
P2 Ce1 P12 76.2(6) 8_545 . ?
P2 Ce1 P12 72.4(6) 8_544 . ?
P2 Ce1 P12 67.2(5) . . ?
P11 Ce1 P12 13.1(5) 6_655 . ?
P2 Ce1 P12 81.9(5) 1_655 . ?
P33 Ce1 P31 79.0(4) 7_554 . ?
P33 Ce1 P31 63.5(4) 8_544 . ?
P32 Ce1 P31 14.0(3) 8_545 . ?
P32 Ce1 P31 48.1(2) 7 . ?
P2 Ce1 P31 67.95(18) 8_545 . ?
P2 Ce1 P31 140.37(19) 8_544 . ?
P2 Ce1 P31 83.6(2) . . ?
P11 Ce1 P31 142.8(2) 6_655 . ?
P2 Ce1 P31 120.9(2) 1_655 . ?
P12 Ce1 P31 135.0(6) . . ?
P33 Ce1 P31 63.4(4) 7_554 2_665 ?
P33 Ce1 P31 78.8(4) 8_544 2_665 ?
P32 Ce1 P31 48.1(2) 8_545 2_665 ?
P32 Ce1 P31 14.0(3) 7 2_665 ?
P2 Ce1 P31 68.42(18) 8_545 2_665 ?
P2 Ce1 P31 140.66(19) 8_544 2_665 ?
P2 Ce1 P31 121.1(2) . 2_665 ?
P11 Ce1 P31 137.0(2) 6_655 2_665 ?
P2 Ce1 P31 83.5(2) 1_655 2_665 ?
P12 Ce1 P31 142.3(7) . 2_665 ?
P31 Ce1 P31 38.0(4) . 2_665 ?
P12 P11 Si12 92(2) 6_654 6_655 ?
P12 P11 Si11 158(3) 6_654 3_455 ?
Si12 P11 Si11 82.9(6) 6_655 3_455 ?
P12 P11 Si11 66.4(17) 6_654 . ?
Si12 P11 Si11 26.5(6) 6_655 . ?
Si11 P11 Si11 108.88(14) 3_455 . ?
P12 P11 Si11 100(3) 6_654 6_654 ?
Si12 P11 Si11 114.0(8) 6_655 6_654 ?
Si11 P11 Si11 101.49(14) 3_455 6_654 ?
Si11 P11 Si11 111.72(15) . 6_654 ?
P12 P11 Si12 75(3) 6_654 . ?
Si12 P11 Si12 114.3(8) 6_655 . ?
Si11 P11 Si12 126.9(6) 3_455 . ?
Si11 P11 Si12 100.6(5) . . ?
Si11 P11 Si12 25.5(6) 6_654 . ?
P12 P11 Ce1 84.8(16) 6_654 6_654 ?
Si12 P11 Ce1 155.9(8) 6_655 6_654 ?
Si11 P11 Ce1 90.81(11) 3_455 6_654 ?
Si11 P11 Ce1 146.05(14) . 6_654 ?
Si11 P11 Ce1 90.06(12) 6_654 6_654 ?
Si12 P11 Ce1 88.0(5) . 6_654 ?
P11 P12 Si11 95(2) 6_655 6_655 ?
P11 P12 Si12 166(3) 6_655 3_456 ?
Si11 P12 Si12 85.6(10) 6_655 3_456 ?
P11 P12 Si12 87(3) 6_655 6_655 ?
Si11 P12 Si12 109.2(14) 6_655 6_655 ?
Si12 P12 Si12 105.1(13) 3_456 6_655 ?
P11 P12 Si12 70(2) 6_655 1_556 ?
Si11 P12 Si12 26.5(6) 6_655 1_556 ?
Si12 P12 Si12 109.5(11) 3_456 1_556 ?
Si12 P12 Si12 111.9(11) 6_655 1_556 ?
P11 P12 Si11 63(3) 6_655 . ?
Si11 P12 Si11 109.7(12) 6_655 . ?
Si12 P12 Si11 128.8(14) 3_456 . ?
Si12 P12 Si11 23.8(7) 6_655 . ?
Si12 P12 Si11 101.3(10) 1_556 . ?
P11 P12 Ce1 82.1(16) 6_655 . ?
Si11 P12 Ce1 161.5(17) 6_655 . ?
Si12 P12 Ce1 92.7(9) 3_456 . ?
Si12 P12 Ce1 89.0(9) 6_655 . ?
Si12 P12 Ce1 143.1(13) 1_556 . ?
Si11 P12 Ce1 85.7(7) . . ?
Si12 Si11 P12 87.3(15) 6_655 6_654 ?
Si12 Si11 P2 79.3(12) 6_655 8_544 ?
P12 Si11 P2 146.7(10) 6_654 8_544 ?
Si12 Si11 P11 168.6(17) 6_655 3 ?
P12 Si11 P11 84.7(8) 6_654 3 ?
P2 Si11 P11 103.17(15) 8_544 3 ?
Si12 Si11 P11 69.5(13) 6_655 . ?
P12 Si11 P11 18.2(7) 6_654 . ?
P2 Si11 P11 133.9(2) 8_544 . ?
P11 Si11 P11 101.80(13) 3 . ?
Si12 Si11 P11 78.7(18) 6_655 6_655 ?
P12 Si11 P11 101.8(10) 6_654 6_655 ?
P2 Si11 P11 105.2(2) 8_544 6_655 ?
P11 Si11 P11 110.94(15) 3 6_655 ?
P11 Si11 P11 101.11(13) . 6_655 ?
Si12 Si11 P12 62.6(18) 6_655 . ?
P12 Si11 P12 100.1(10) 6_654 . ?
P2 Si11 P12 100.5(5) 8_544 . ?
P11 Si11 P12 127.0(7) 3 . ?
P11 Si11 P12 94.4(5) . . ?
P11 Si11 P12 16.2(7) 6_655 . ?
Si11 Si12 P11 84.0(14) 6_654 6_654 ?
Si11 Si12 P12 155(2) 6_654 3_554 ?
P11 Si12 P12 85.2(10) 6_654 3_554 ?
Si11 Si12 P12 94(2) 6_654 6_654 ?
P11 Si12 P12 107.0(12) 6_654 6_654 ?
P12 Si12 P12 110.9(12) 3_554 6_654 ?
Si11 Si12 P2 74.5(12) 6_654 3_554 ?
P11 Si12 P2 139.6(14) 6_654 3_554 ?
P12 Si12 P2 100.1(10) 3_554 3_554 ?
P12 Si12 P2 108.2(11) 6_654 3_554 ?
Si11 Si12 P12 66.2(14) 6_654 1_554 ?
P11 Si12 P12 18.2(6) 6_654 1_554 ?
P12 Si12 P12 103.1(11) 3_554 1_554 ?
P12 Si12 P12 103.2(11) 6_654 1_554 ?
P2 Si12 P12 130.6(12) 3_554 1_554 ?
Si11 Si12 P11 75.8(17) 6_654 . ?
P11 Si12 P11 104.4(10) 6_654 . ?
P12 Si12 P11 128.7(12) 3_554 . ?
P12 Si12 P11 17.9(7) 6_654 . ?
P2 Si12 P11 102.9(9) 3_554 . ?
P12 Si12 P11 95.4(10) 1_554 . ?
Si11 P2 Si12 26.2(6) 8_545 3_456 ?
Si11 P2 Ce1 118.0(2) 8_545 8_544 ?
Si12 P2 Ce1 121.1(7) 3_456 8_544 ?
Si11 P2 Ce1 92.3(2) 8_545 8_545 ?
Si12 P2 Ce1 89.9(7) 3_456 8_545 ?
Ce1 P2 Ce1 148.42(7) 8_544 8_545 ?
Si11 P2 Ce1 118.74(12) 8_545 . ?
Si12 P2 Ce1 92.6(6) 3_456 . ?
Ce1 P2 Ce1 86.72(10) 8_544 . ?
Ce1 P2 Ce1 85.73(9) 8_545 . ?
Si11 P2 Ce1 91.11(10) 8_545 1_455 ?
Si12 P2 Ce1 116.8(6) 3_456 1_455 ?
Ce1 P2 Ce1 85.94(10) 8_544 1_455 ?
Ce1 P2 Ce1 84.97(9) 8_545 1_455 ?
Ce1 P2 Ce1 149.04(7) . 1_455 ?
P32 P31 P33 44.8(13) 8_545 . ?
P32 P31 P31 115.9(15) 8_545 2_665 ?
P33 P31 P31 160.7(17) . 2_665 ?
P32 P31 P32 139.5(14) 8_545 1_556 ?
P33 P31 P32 94.7(15) . 1_556 ?
P31 P31 P32 104.5(4) 2_665 1_556 ?
P32 P31 P32 99.7(16) 8_545 7 ?
P33 P31 P32 144.5(19) . 7 ?
P31 P31 P32 16.2(3) 2_665 7 ?
P32 P31 P32 120.8(7) 1_556 7 ?
P32 P31 P33 151.8(15) 8_545 8_545 ?
P33 P31 P33 106.9(16) . 8_545 ?
P31 P31 P33 92.3(5) 2_665 8_545 ?
P32 P31 P33 12.3(3) 1_556 8_545 ?
P32 P31 P33 108.5(7) 7 8_545 ?
P32 P31 Ce1 66.8(11) 8_545 . ?
P33 P31 Ce1 96.8(13) . . ?
P31 P31 Ce1 71.3(4) 2_665 . ?
P32 P31 Ce1 131.3(4) 1_556 . ?
P32 P31 Ce1 61.6(3) 7 . ?
P33 P31 Ce1 127.8(4) 8_545 . ?
P32 P31 Ce1 66.8(11) 8_545 2_665 ?
P33 P31 Ce1 95.9(13) . 2_665 ?
P31 P31 Ce1 70.7(4) 2_665 2_665 ?
P32 P31 Ce1 131.1(4) 1_556 2_665 ?
P32 P31 Ce1 61.1(3) 7 2_665 ?
P33 P31 Ce1 127.2(4) 8_545 2_665 ?
Ce1 P31 Ce1 94.5(3) . 2_665 ?
P32 P31 Ce1 91.4(12) 8_545 8_545 ?
P33 P31 Ce1 62.6(12) . 8_545 ?
P31 P31 Ce1 127.9(5) 2_665 8_545 ?
P32 P31 Ce1 62.4(3) 1_556 8_545 ?
P32 P31 Ce1 132.7(3) 7 8_545 ?
P33 P31 Ce1 70.0(4) 8_545 8_545 ?
Ce1 P31 Ce1 81.8(2) . 8_545 ?
Ce1 P31 Ce1 157.3(4) 2_665 8_545 ?
P32 P31 Ce1 91.2(13) 8_545 7_455 ?
P33 P31 Ce1 61.6(12) . 7_455 ?
P31 P31 Ce1 127.0(5) 2_665 7_455 ?
P32 P31 Ce1 62.4(3) 1_556 7_455 ?
P32 P31 Ce1 131.9(3) 7 7_455 ?
P33 P31 Ce1 69.7(4) 8_545 7_455 ?
Ce1 P31 Ce1 157.2(4) . 7_455 ?
Ce1 P31 Ce1 81.6(2) 2_665 7_455 ?
Ce1 P31 Ce1 93.2(3) 8_545 7_455 ?
P33 P32 P31 74.4(17) 8_544 8_544 ?
P33 P32 P31 117.0(17) 8_544 1_554 ?
P31 P32 P31 168.6(16) 8_544 1_554 ?
P33 P32 P31 122.2(16) 8_544 7_454 ?
P31 P32 P31 47.8(14) 8_544 7_454 ?
P31 P32 P31 120.8(7) 1_554 7_454 ?
P33 P32 P33 136.9(17) 8_544 1_554 ?
P31 P32 P33 149(2) 8_544 1_554 ?
P31 P32 P33 19.9(5) 1_554 1_554 ?
P31 P32 P33 100.9(9) 7_454 1_554 ?
P33 P32 Ce1 128.8(13) 8_544 8_544 ?
P31 P32 Ce1 99.1(12) 8_544 8_544 ?
P31 P32 Ce1 74.1(4) 1_554 8_544 ?
P31 P32 Ce1 70.8(3) 7_454 8_544 ?
P33 P32 Ce1 63.7(5) 1_554 8_544 ?
P33 P32 Ce1 127.1(13) 8_544 7_454 ?
P31 P32 Ce1 99.2(12) 8_544 7_454 ?
P31 P32 Ce1 74.2(4) 1_554 7_454 ?
P31 P32 Ce1 70.3(3) 7_454 7_454 ?
P33 P32 Ce1 63.5(5) 1_554 7_454 ?
Ce1 P32 Ce1 104.1(4) 8_544 7_454 ?
P33 P32 Ce1 45.6(11) 8_544 . ?
P31 P32 Ce1 75.1(11) 8_544 . ?
P31 P32 Ce1 112.5(4) 1_554 . ?
P31 P32 Ce1 108.9(3) 7_454 . ?
P33 P32 Ce1 124.6(4) 1_554 . ?
Ce1 P32 Ce1 83.34(17) 8_544 . ?
Ce1 P32 Ce1 171.4(4) 7_454 . ?
P33 P32 Ce1 44.1(11) 8_544 2_665 ?
P31 P32 Ce1 75.2(12) 8_544 2_665 ?
P31 P32 Ce1 112.5(4) 1_554 2_665 ?
P31 P32 Ce1 108.4(3) 7_454 2_665 ?
P33 P32 Ce1 124.1(4) 1_554 2_665 ?
Ce1 P32 Ce1 171.7(4) 8_544 2_665 ?
Ce1 P32 Ce1 83.08(17) 7_454 2_665 ?
Ce1 P32 Ce1 89.2(3) . 2_665 ?
P32 P33 P31 60.8(17) 8_545 . ?
P32 P33 P33 138.4(16) 8_545 2_565 ?
P31 P33 P33 160.8(17) . 2_565 ?
P32 P33 P32 126.2(18) 8_545 1_556 ?
P31 P33 P32 65.4(14) . 1_556 ?
P33 P33 P32 95.4(7) 2_565 1_556 ?
P32 P33 P31 50.7(15) 8_545 8_544 ?
P31 P33 P31 111.5(19) . 8_544 ?
P33 P33 P31 87.7(5) 2_565 8_544 ?
P32 P33 P31 176.9(11) 1_556 8_544 ?
P32 P33 Ce1 127.2(13) 8_545 7_455 ?
P31 P33 Ce1 103.4(12) . 7_455 ?
P33 P33 Ce1 67.0(5) 2_565 7_455 ?
P32 P33 Ce1 65.8(5) 1_556 7_455 ?
P31 P33 Ce1 116.0(5) 8_544 7_455 ?
P32 P33 Ce1 125.5(13) 8_545 8_545 ?
P31 P33 Ce1 102.2(12) . 8_545 ?
P33 P33 Ce1 66.9(5) 2_565 8_545 ?
P32 P33 Ce1 65.4(5) 1_556 8_545 ?
P31 P33 Ce1 115.6(5) 8_544 8_545 ?
Ce1 P33 Ce1 106.6(7) 7_455 8_545 ?
P32 P33 Ce1 44.4(11) 8_545 2_665 ?
P31 P33 Ce1 69.5(13) . 2_665 ?
P33 P33 Ce1 123.2(5) 2_565 2_665 ?
P32 P33 Ce1 115.2(5) 1_556 2_665 ?
P31 P33 Ce1 63.2(4) 8_544 2_665 ?
Ce1 P33 Ce1 82.9(2) 7_455 2_665 ?
Ce1 P33 Ce1 168.9(6) 8_545 2_665 ?
P32 P33 Ce1 42.8(11) 8_545 . ?
P31 P33 Ce1 68.5(13) . . ?
P33 P33 Ce1 122.9(5) 2_565 . ?
P32 P33 Ce1 114.9(5) 1_556 . ?
P31 P33 Ce1 62.8(4) 8_544 . ?
Ce1 P33 Ce1 169.1(6) 7_455 . ?
Ce1 P33 Ce1 82.8(2) 8_545 . ?
Ce1 P33 Ce1 87.2(5) 2_665 . ?
loop_
_geom_bond_atom_site_label_1
_geom_bond_atom_site_label_2
_geom_bond_distance
_geom_bond_site_symmetry_2
_geom_bond_publ_flag
Ce1 P33 2.872(15) 7_554 ?
Ce1 P33 2.874(15) 8_544 ?
Ce1 P32 2.916(10) 8_545 ?
Ce1 P32 2.928(10) 7 ?
Ce1 P2 2.972(5) 8_545 ?
Ce1 P2 3.029(5) 8_544 ?
Ce1 P2 3.035(2) . ?
Ce1 P11 3.069(2) 6_655 ?
Ce1 P2 3.084(2) 1_655 ?
Ce1 P12 3.086(19) . ?
Ce1 P31 3.132(10) . ?
Ce1 P31 3.144(10) 2_665 ?
P11 P12 0.70(3) 6_654 ?
P11 Si12 2.12(2) 6_655 ?
P11 Si11 2.236(4) 3_455 ?
P11 Si11 2.246(4) . ?
P11 Si11 2.264(4) 6_654 ?
P11 Si12 2.29(3) . ?
P12 Si11 2.07(2) 6_655 ?
P12 Si12 2.17(3) 3_456 ?
P12 Si12 2.21(3) 6_655 ?
P12 Si12 2.26(3) 1_556 ?
P12 Si11 2.49(4) . ?
Si11 Si12 1.01(2) 6_655 ?
Si11 P2 2.201(4) 8_544 ?
Si12 P2 2.24(2) 3_554 ?
P31 P32 0.769(14) 8_545 ?
P31 P33 0.85(2) . ?
P31 P31 2.04(2) 2_665 ?
P31 P32 2.268(12) 1_556 ?
P31 P32 2.477(12) 7 ?
P31 P33 2.61(2) 8_545 ?
P32 P33 0.622(13) 8_544 ?
P32 P33 2.486(14) 1_554 ?
P33 P33 2.25(4) 2_565 ?
