#------------------------------------------------------------------------------
#$Date: 2021-07-05 20:44:22 +0300 (Mon, 05 Jul 2021) $
#$Revision: 267195 $
#$URL: file:///home/coder/svn-repositories/cod/cif/7/70/73/7707315.cif $
#------------------------------------------------------------------------------
#
# This file is available in the Crystallography Open Database (COD),
# http://www.crystallography.net/
#
# All data on this site have been placed in the public domain by the
# contributors.
#
data_7707315
loop_
_publ_author_name
'Li, Han-Ying'
'Lii, Kwang-Hwa'
_publ_section_title
;
 Hydrothermal synthesis, crystal structures, and X-ray photoelectron
 spectroscopy of lead tellurium(IV) and tellurium(VI) oxycompounds:
 Ba<sub>3</sub>PbTe<sub>6</sub>O<sub>16</sub> and
 Na<sub>2</sub>Pb<sub>9</sub>(\m<sub>6</sub>-O)<sub>2</sub>(Te<sub>2</sub>O<sub>10</sub>)<sub>2</sub>.
;
_journal_issue                   23
_journal_name_full
'Dalton transactions (Cambridge, England : 2003)'
_journal_page_first              8189
_journal_page_last               8195
_journal_paper_doi               10.1039/d1dt00566a
_journal_volume                  50
_journal_year                    2021
_chemical_formula_sum            'Ba9 O48 Pb3 Te18'
_chemical_formula_weight         4922.43
_chemical_name_systematic        Ba3PbTe6O16
_space_group_crystal_system      trigonal
_space_group_IT_number           148
_space_group_name_Hall           '-R 3'
_space_group_name_H-M_alt        'R -3 :H'
_audit_creation_method           SHELXL-2017/1
_audit_update_record
;
2021-02-05 deposited with the CCDC.	2021-05-04 downloaded from the CCDC.
;
_cell_angle_alpha                90
_cell_angle_beta                 90
_cell_angle_gamma                120
_cell_formula_units_Z            1
_cell_length_a                   7.3068(3)
_cell_length_b                   7.3068(3)
_cell_length_c                   28.5210(12)
_cell_measurement_reflns_used    187
_cell_measurement_temperature    296(2)
_cell_measurement_theta_max      26.9474
_cell_measurement_theta_min      2.2532
_cell_volume                     1318.71(9)
_computing_structure_refinement  'SHELXL-2017/1 (Sheldrick, 2017)'
_computing_structure_solution    'SHELXT 2014/5 (Sheldrick, 2014)'
_diffrn_ambient_temperature      296(2)
_diffrn_measured_fraction_theta_full 1.000
_diffrn_measured_fraction_theta_max 1.000
_diffrn_measurement_device_type  'Bruker D8 QUEST'
_diffrn_measurement_method       'phi and omega scans'
_diffrn_radiation_type           MoK\a
_diffrn_radiation_wavelength     0.71073
_diffrn_reflns_av_R_equivalents  0.0390
_diffrn_reflns_av_unetI/netI     0.0240
_diffrn_reflns_Laue_measured_fraction_full 1.000
_diffrn_reflns_Laue_measured_fraction_max 1.000
_diffrn_reflns_limit_h_max       9
_diffrn_reflns_limit_h_min       -9
_diffrn_reflns_limit_k_max       9
_diffrn_reflns_limit_k_min       -9
_diffrn_reflns_limit_l_max       37
_diffrn_reflns_limit_l_min       -37
_diffrn_reflns_number            5683
_diffrn_reflns_point_group_measured_fraction_full 1.000
_diffrn_reflns_point_group_measured_fraction_max 1.000
_diffrn_reflns_theta_full        25.242
_diffrn_reflns_theta_max         28.166
_diffrn_reflns_theta_min         2.142
_diffrn_source                   'I\mS 3.0 microfocus X-ray source'
_exptl_absorpt_coefficient_mu    26.009
_exptl_absorpt_correction_T_max  0.7457
_exptl_absorpt_correction_T_min  0.6042
_exptl_absorpt_correction_type   numerical
_exptl_absorpt_process_details
;
 SADABS 2016/2: Krause, L., Herbst-Irmer, R., Sheldrick G.M. & Stalke D.,
 J. Appl. Cryst. 48 (2015) 3-10
;
_exptl_crystal_colour            colorless
_exptl_crystal_density_diffrn    6.198
_exptl_crystal_description       lamellar
_exptl_crystal_F_000             2070
_exptl_crystal_size_max          0.154
_exptl_crystal_size_mid          0.063
_exptl_crystal_size_min          0.049
_refine_diff_density_max         2.859
_refine_diff_density_min         -1.437
_refine_diff_density_rms         0.289
_refine_ls_extinction_method     none
_refine_ls_goodness_of_fit_ref   1.071
_refine_ls_hydrogen_treatment    undef
_refine_ls_matrix_type           full
_refine_ls_number_parameters     41
_refine_ls_number_reflns         733
_refine_ls_number_restraints     0
_refine_ls_restrained_S_all      1.071
_refine_ls_R_factor_all          0.0265
_refine_ls_R_factor_gt           0.0229
_refine_ls_shift/su_max          0.001
_refine_ls_shift/su_mean         0.000
_refine_ls_structure_factor_coef Fsqd
_refine_ls_weighting_details
'w=1/[\s^2^(Fo^2^)+(0.0179P)^2^+61.2934P] where P=(Fo^2^+2Fc^2^)/3'
_refine_ls_weighting_scheme      calc
_refine_ls_wR_factor_gt          0.0532
_refine_ls_wR_factor_ref         0.0546
_reflns_Friedel_coverage         0.000
_reflns_number_gt                679
_reflns_number_total             733
_reflns_threshold_expression     'I > 2\s(I)'
_cod_data_source_file            d1dt00566a2.cif
_cod_data_source_block           1_a
_cod_depositor_comments
'Adding full bibliography for 7707315--7707316.cif.'
_cod_original_cell_volume        1318.71(12)
_cod_database_code               7707315
_shelx_shelxl_version_number     2017/1
_shelx_space_group_comment
;
The symmetry employed for this shelxl refinement is uniquely defined
by the following loop, which should always be used as a source of
symmetry information in preference to the above space-group names.
They are only intended as comments.
;
_shelx_res_file
;
TITL 1_a.res in R-3
    1_a.res
    created by SHELXL-2017/1 at 11:44:05 on 20-May-2020
REM Old TITL 1 in R-3
REM SHELXT solution in R-3
REM R1 0.032,  Rweak 0.004,  Alpha 0.012,  Orientation as input
REM Formula found by SHELXT:  Ba O16 Pb Te8
CELL  0.71073   7.3068   7.3068  28.5210   90.000   90.000  120.000
ZERR    1   0.0003   0.0003   0.0012    0.000    0.000    0.000
LATT  3
SYMM -Y, X-Y, Z
SYMM -X+Y, -X, Z
SFAC BA O PB TE
UNIT 9 48 3 18
TEMP 23.000
L.S. 10
BOND $H
LIST 6
FMAP 2
PLAN 20
ACTA
WGHT    0.017900   61.293400
FVAR       0.08873
PB01  3    0.666667    0.333333    0.333333    10.16667    0.01389    0.01389 =
         0.01309    0.00000    0.00000    0.00695
BA1   1    0.000000    0.000000    0.500000    10.16667    0.00946    0.00946 =
         0.00853    0.00000    0.00000    0.00473
BA2   1    0.333333    0.666667    0.307501    10.33333    0.01415    0.01415 =
         0.01305    0.00000    0.00000    0.00707
TE1   4    0.520694    0.523879    0.435374    11.00000    0.00984    0.00987 =
         0.01033   -0.00018    0.00002    0.00378
O1    2    0.571734    0.595108    0.372552    11.00000    0.01935    0.01395 =
         0.01100    0.00192    0.00214    0.00840
O2    2    0.265390    0.266086    0.434950    11.00000    0.01019    0.01132 =
         0.02235    0.00005   -0.00122    0.00281
O3    2    0.333333    0.666667    0.440504    10.33333    0.00852    0.00852 =
         0.03382    0.00000    0.00000    0.00426
O4    2    0.666667    0.333333    0.427210    10.33333    0.00906    0.00906 =
         0.01766    0.00000    0.00000    0.00453
HKLF 4




REM  1_a.res in R-3
REM R1 =  0.0229 for     679 Fo > 4sig(Fo)  and  0.0265 for all     733 data
REM     41 parameters refined using      0 restraints

END

WGHT      0.0179     61.2939

REM Highest difference peak  2.859,  deepest hole -1.437,  1-sigma level  0.289
Q1    1   0.6667  0.3333  0.3878  10.33333  0.05    1.07
Q2    1   0.3333  0.6667  0.4834  10.33333  0.05    0.95
Q3    1   0.6667  0.3333  0.4490  10.33333  0.05    0.86
Q4    1   0.7365  0.2276  0.3336  11.00000  0.05    0.82
Q5    1  -0.1921  0.0130  0.4938  11.00000  0.05    0.79
Q6    1   0.6153  0.5552  0.3482  11.00000  0.05    0.78
Q7    1   0.2100  0.3923  0.4494  11.00000  0.05    0.74
Q8    1   0.1288  0.0926  0.4569  11.00000  0.05    0.73
Q9    1   0.3587  0.2377  0.4813  11.00000  0.05    0.73
Q10   1   0.3333  0.6667  0.4204  10.33333  0.05    0.69
Q11   1   0.3709  0.8098  0.4382  11.00000  0.05    0.65
Q12   1   0.6512  0.2067  0.3644  11.00000  0.05    0.65
Q13   1   0.4275  0.8309  0.4999  11.00000  0.05    0.64
Q14   1   0.3333  0.6667  0.3523  10.33333  0.05    0.63
Q15   1   0.1474  0.1504  0.4265  11.00000  0.05    0.63
Q16   1   0.5870  0.6353  0.4022  11.00000  0.05    0.63
Q17   1   0.4577  0.6385  0.3726  11.00000  0.05    0.63
Q18   1   0.4709  0.6687  0.3427  11.00000  0.05    0.63
Q19   1   0.6621  0.7318  0.4862  11.00000  0.05    0.62
Q20   1   0.4694  0.6143  0.3074  11.00000  0.05    0.62
;
_shelx_res_checksum              61671
_shelx_hkl_file
;
  -2   1   0 1050.72   43.66
  -2   1   0 1014.62   43.70
   1  -2   0  987.57   45.71
   1  -2   0 1065.82   44.02
   1  -2   0 1024.11   43.81
  -1   2   0 1035.64   46.05
  -1   2   0 1018.90   43.89
  -1   2   0 1029.98   44.02
   2  -1   0 1055.77   43.80
   2  -1   0 1013.30   43.71
  -3   3   0 1917.49   81.54
  -3   3   0 1908.46   81.56
   3  -3   0 1877.78   81.38
   3  -3   0 2009.09   81.78
   0   3   0 1849.24   80.51
   3  -3   0 1889.53   85.84
   2  -4   0 9999.00  391.52
   2  -4   0 9342.20  394.80
   2  -4   0 9301.50  390.78
  -4   2   0 9541.59  390.97
  -4   2   0 9630.91  390.40
   4  -2   0 9830.03  391.12
   4  -2   0 9584.48  391.07
  -2   4   0 9588.89  391.57
   4  -5   0  850.05   40.67
   4  -5   0  834.34   45.91
  -5   1   0  838.40   39.84
   4  -5   0  824.39   40.26
   5  -1   0  849.18   38.49
  -4   5   0  848.68   40.83
  -4   5   0  801.61   40.49
   1  -5   0  628.11   31.86
  -5   4   0  586.50   30.66
  -5   4   0  604.13   31.01
  -1   5   0  607.03   30.63
   5  -4   0  584.57   30.91
   5  -4   0  584.97   36.30
  -1   5   0  616.77   29.66
   5  -4   0  616.26   31.17
  -1   5   0  600.92   31.11
  -6   3   0  394.45   20.85
   3  -6   0  397.12   22.17
  -6   3   0  367.21   21.78
   3  -6   0  383.78   26.27
   6  -3   0  394.20   28.39
  -3   6   0  393.30   24.82
  -3   6   0  383.13   23.02
   6  -3   0  406.04   22.40
  -3   6   0  380.96   22.56
  -6   6   0 3373.04  144.61
  -6   6   0 3345.33  144.09
   0   6   0 3347.54  141.41
   6  -6   0 3277.44  153.04
   6  -6   0 3353.93  144.05
  -7   2   0  608.80   31.49
   5  -7   0  633.88   40.52
   7  -2   0  605.80   31.65
  -5   7   0  607.81   36.50
  -5   7   0  604.41   34.09
  -5   7   0  662.99   45.72
   7  -2   0  598.32   38.90
   2  -7   0  795.47   42.51
  -7   5   0  784.96   39.90
  -7   5   0  770.56   40.93
   7  -5   0  767.71   40.98
  -2   7   0  788.67   39.57
  -2   7   0  793.09   41.88
  -2   7   0  795.10   40.38
  -7   8   0  216.09   23.00
  -7   8   0  224.39   19.36
   8  -1   0  264.14   26.15
  -4   8   0 2413.12  121.97
  -4   8   0 2481.42  112.08
   8  -4   0 2527.16  112.12
  -4   8   0 2652.89  116.05
   8  -4   0 2497.88  121.53
  -8   7   0  249.63   22.69
  -8   7   0  217.57   19.36
  -1   8   0  234.52   17.97
  -9   3   0  315.48   22.24
  -6   9   0  286.77   23.63
   9  -3   0  307.10   22.72
  -6   9   0  363.73   33.42
  -9   6   0  200.39   19.47
  -9   6   0  224.20   17.73
  -9   6   0  221.05   18.91
   3  -9   0  234.98   25.32
  -9   6   0  246.97   22.62
  -3   9   0  208.82   18.85
  -3   9   0  183.27   21.36
   1  -1  -1  155.30    7.78
   0   1  -1  158.68    7.97
   0   1  -1  149.22    7.59
   0   1  -1  148.19    7.35
   1  -1  -1  148.48    7.71
   0  -1   1  152.51    7.32
  -1   1   1  163.31    7.84
   0  -1   1  158.52    8.47
  -1   1   1  143.71    7.65
   0  -1   1  147.32    7.62
  -1   3  -1  681.69   33.67
   3  -2  -1  709.25   31.66
  -1   3  -1  691.05   31.36
   3  -2  -1  677.87   31.44
  -1   3  -1  667.26   31.02
   1  -3   1  705.55   31.15
  -3   2   1  686.56   31.35
   1  -3   1  682.61   30.87
  -3   2   1  689.11   31.45
   1  -3   1  689.67   33.14
  -2   2  -1 4879.54  196.10
   2   0  -1 4715.52  194.74
  -2   2  -1 4758.64  196.07
   2  -2   1 4905.97  196.13
   2  -2   1 4720.74  195.89
   2  -2   1 4788.18  199.11
  -2   5  -1   49.24    6.98
   5  -3  -1   40.18    6.43
   5  -3  -1   31.84    7.49
  -2   5  -1   39.59    6.54
  -2   5  -1   39.60    7.64
  -5   3   1   28.21    5.44
  -5   3   1   37.16    6.35
   2  -5   1   24.38    6.77
   2  -5   1   37.03    6.09
   2  -3  -1   26.10    4.25
   2  -3  -1   24.40    5.69
   2  -3  -1   30.87    4.39
  -3   1  -1   28.93    3.90
  -2   3   1   33.22    4.98
  -2   3   1   27.92    4.31
   3  -1   1   29.51    3.87
   3  -1   1   27.86    3.86
   4  -1  -1    1.11    2.21
  -3   4  -1    2.40    2.60
  -3   4  -1    2.45    3.09
   3  -4   1    1.18    2.48
  -4   1   1    3.32    2.62
   3  -4   1    1.48    3.87
   3  -4   1    7.89    3.55
  -3   7  -1   81.79   11.41
   7  -4  -1   76.48   15.62
  -3   7  -1   71.21   11.97
  -3   7  -1   78.89   10.42
   7  -4  -1   71.35   10.55
  -7   4   1   67.90    8.93
   3  -7   1   75.25   13.65
  -7   4   1   67.66    8.90
  -7   4   1   80.07   10.88
   4  -4  -1 2869.32  129.30
   4  -4  -1 3025.40  123.37
   4  -4  -1 2892.84  123.09
   0   4  -1 2848.98  120.66
   0   4  -1 2866.89  121.16
  -4   4   1 2872.55  123.13
  -4   4   1 2933.41  127.58
  -4   3  -1  427.25   22.35
   1  -4  -1  429.21   21.28
   1  -4  -1  419.94   23.41
  -4   3  -1  442.13   22.81
  -1   4   1  427.64   21.64
   4  -3   1  426.92   22.56
   4  -3   1  449.79   22.93
  -1   4   1  436.52   22.01
   4  -3   1  461.73   27.50
  -4   6  -1  951.37   48.19
  -4   6  -1  999.15   48.48
  -4   6  -1 1032.92   51.03
   6  -2  -1 1000.27   46.81
   6  -2  -1 1017.19   53.51
   4  -6   1 1014.93   48.16
   4  -6   1  966.11   53.46
  -6   2   1 1015.06   46.46
   4  -6   1  985.12   47.73
  -4   9  -1   -9.24    6.97
  -4   9  -1   -5.51    6.10
  -9   5   1    4.07    7.37
  -9   5   1   -6.22    7.32
   6  -5  -1   21.87    9.43
  -1   6  -1   15.84    4.76
   6  -5  -1   12.85    5.51
  -1   6  -1   19.88    4.78
  -1   6  -1   15.01    4.85
  -6   5   1   19.97    5.25
  -6   5   1   10.63    4.85
   3  -5  -1   26.43    5.51
  -5   2  -1   16.98    4.22
  -3   5   1   18.89    4.87
  -3   5   1   16.03    4.87
   5  -2   1   21.73    4.90
   5  -2   1   12.55    6.04
   5  -2   1   19.37    4.50
  -5   5  -1    3.81    3.94
  -5   5  -1    5.55    3.34
   5  -5   1    5.77    3.69
   5  -5   1    9.32    6.23
   5  -5   1    4.18    3.54
   8  -3  -1   -0.95    6.33
   8  -3  -1   -1.15   11.33
  -5   8  -1   -4.47    5.43
  -5   8  -1   -1.17    6.09
   5  -8   1    8.12   10.83
  -8   3   1   -3.55    5.05
  -2   8  -1  490.89   27.03
  -2   8  -1  458.64   29.20
  -2   8  -1  427.83   27.48
   2  -8   1  443.06   30.28
  -8   6   1  439.29   27.72
  -8   6   1  414.86   27.86
   5  -6  -1  353.59   28.51
   5  -6  -1  375.74   22.71
  -5   6   1  348.86   22.48
  -5   6   1  365.23   22.94
   6  -1   1  400.10   26.04
   2  -6  -1 1221.40   62.97
  -6   4  -1 1253.35   58.19
  -6   4  -1 1243.24   57.13
  -2   6   1 1250.08   59.50
   6  -4   1 1227.43   57.82
  -2   6   1 1289.99   57.41
  -2   6   1 1263.36   57.85
   6  -4   1 1234.00   58.22
   6  -4   1 1261.63   65.75
  -6   7  -1  101.09   13.50
   7  -1  -1  109.24   16.08
  -6   7  -1  100.66   13.55
  -6   7  -1   82.99   14.02
   6  -7   1   97.37   17.83
   6  -7   1  107.94   11.75
   0   7  -1   23.69    7.46
  -7   7   1   33.65    8.35
  -7   3  -1   23.16    5.43
   4  -7  -1   33.03    9.69
   4  -7  -1   32.09    7.42
   7  -3   1   35.80    6.56
   7  -3   1   29.99   10.78
  -4   7   1   30.29    8.04
  -4   7   1   23.41    6.93
  -7   6  -1    7.16    6.18
  -7   6  -1    1.34    5.08
   7  -6   1    0.40    9.03
   7  -6   1    7.70    5.58
  -1   7   1    0.46    4.77
  -7   9  -1   -6.79    8.33
   9  -2  -1   32.17   17.71
  -6   8   1  503.89   30.70
  -6   8   1  458.74   32.42
   8  -2   1  497.17   35.79
  -8   5  -1  264.22   20.90
  -8   5  -1  242.50   17.44
  -8   5  -1  216.53   18.29
  -8   5  -1  256.17   17.32
   3  -8  -1  242.24   22.24
   8  -5   1  224.01   18.33
  -3   8   1  233.06   20.21
   8  -5   1  246.49   34.92
  -3   8   1  220.74   18.29
  -8   8  -1  299.51   23.76
   0   8   1  285.30   21.20
  -9   4  -1    3.07    6.62
  -5   9   1   -4.62    6.93
  -5   9   1    6.72    7.91
  -9   7  -1   14.51    9.97
  -9   7  -1   11.57    8.92
  -2   9   1   13.38    8.88
  -2   9   1   19.33    8.12
   1   0  -2  103.84    5.49
  -1   1  -2   96.40    5.65
  -1   1  -2   92.33    7.00
  -1   1  -2  100.80    5.63
  -1   1  -2   94.50    6.17
   1  -1   2  101.91    5.80
  -1   0   2  112.19    5.60
   1  -1   2  100.61    6.95
   1  -1   2   99.39    5.57
   0   2  -2 4456.29  181.14
   0   2  -2 4398.38  182.31
   2  -2  -2 4418.23  181.93
   0   2  -2 4335.89  181.46
  -2   2   2 4457.24  181.95
  -2   2   2 4552.83  182.07
   0  -2   2 4496.57  182.04
  -2   3  -2   38.25    4.53
  -2   3  -2   43.37    7.45
  -2   3  -2   41.50    4.90
   3  -1  -2   36.65    4.72
   2  -3   2   39.79    5.04
  -3   1   2   39.70    4.13
   2  -3   2   48.19    7.05
   2  -3   2   40.54    5.17
  -3   1   2   38.43    4.35
   4  -3  -2  719.26   34.23
  -1   4  -2  704.84   34.51
  -1   4  -2  710.23   36.43
  -1   4  -2  705.40   33.14
  -1   4  -2  700.73   33.46
  -4   3   2  723.00   34.17
   1  -4   2  768.08   33.21
   1  -4   2  696.68   35.10
  -4   3   2  699.27   33.80
  -3   2  -2  638.05   29.49
  -3   2  -2  651.65   29.84
   1  -3  -2  631.64   29.09
   1  -3  -2  674.13   31.66
  -1   3   2  651.03   29.44
   3  -2   2  663.82   29.91
   3  -2   2  631.46   29.70
   3  -2   2  647.91   33.43
  -1   3   2  633.65   29.31
  -3   5  -2    5.76    3.38
  -3   5  -2    8.26    4.59
  -3   5  -2    2.45    3.36
   5  -2  -2    9.32    3.53
   3  -5   2    6.87    5.74
  -5   2   2    6.88    2.88
   3  -5   2   12.83    4.13
   3  -5   2   15.79    3.36
   6  -4  -2 1362.51   69.54
   6  -4  -2 1380.59   61.97
  -2   6  -2 1319.55   61.39
  -2   6  -2 1316.51   63.03
  -2   6  -2 1391.35   61.29
  -6   4   2 1289.28   61.44
   2  -6   2 1334.31   64.05
  -6   4   2 1313.00   61.00
  -4   1  -2  160.90    9.56
   3  -4  -2  147.47   14.07
   3  -4  -2  155.11   10.91
   4  -1   2  150.36   12.90
  -3   4   2  168.66   11.30
  -3   4   2  150.99   10.84
   4  -1   2  152.57    9.71
   4   0  -2 2734.22  113.31
  -4   4  -2 2746.66  115.89
   4  -4   2 2638.02  121.28
   4  -4   2 2742.62  115.91
   4  -4   2 2726.42  115.59
   7  -3  -2   30.26    9.88
  -4   7  -2   11.86    5.75
  -4   7  -2   17.27    6.83
   7  -3  -2    7.25    4.66
  -4   7  -2    6.73    4.76
  -7   3   2   17.01    5.52
   4  -7   2   21.45    8.73
  -3   8  -2  337.31   23.65
   8  -5  -2  352.35   23.47
  -3   8  -2  345.28   22.48
  -3   8  -2  316.29   24.30
  -8   5   2  342.36   22.87
   3  -8   2  323.40   27.10
  -8   5   2  362.43   22.75
  -8   5   2  350.77   21.84
   5  -5  -2  154.41   12.43
   5  -5  -2  163.68   17.76
  -5   5   2  138.57   12.39
  -5   5   2  174.05   13.29
   2  -5  -2  106.93   11.90
   2  -5  -2  126.29    9.64
  -5   3  -2  125.63    9.94
  -5   3  -2  114.49    9.21
   5  -3   2  123.01   11.05
   5  -3   2  111.68   13.54
   5  -3   2  126.13   10.22
  -2   5   2  118.09    9.62
  -2   5   2  124.19   10.38
  -5   6  -2  366.22   21.97
   6  -1  -2  349.10   19.43
  -5   6  -2  329.75   23.72
  -5   6  -2  328.88   21.50
   5  -6   2  336.25   27.15
   5  -6   2  348.26   21.27
   5  -6   2  312.68   21.24
  -5   9  -2    5.47    7.07
  -5   9  -2   -0.58    7.87
  -9   4   2    9.16    8.33
  -9   4   2   -1.48    7.30
  -1   7  -2   84.18   11.28
  -1   7  -2   92.81   10.85
   7  -6  -2   73.33   11.66
  -1   7  -2   84.95   10.30
   7  -6  -2  123.93   21.50
  -7   6   2   81.33   11.85
  -7   6   2   97.26   12.87
  -6   2  -2 1715.13   76.72
   4  -6  -2 1748.97   78.76
   4  -6  -2 1718.33   84.93
  -4   6   2 1805.28   79.57
   6  -2   2 1780.55   84.23
  -4   6   2 1762.44   79.35
   6  -2   2 1806.74   77.35
  -6   5  -2   68.94   10.00
  -6   5  -2   62.47    9.35
  -1   6   2   60.26    8.98
  -1   6   2   61.91    7.32
   6  -5   2   50.91   12.54
   6  -5   2   68.37   10.25
  -1   6   2   73.39    9.46
   6  -5   2   66.51    9.31
  -6   8  -2  520.12   34.61
   8  -2  -2  513.12   37.75
  -6   8  -2  516.76   31.84
   8  -2  -2  506.56   29.04
  -8   2   2  512.36   28.77
  -2   9  -2   98.53   15.35
  -2   9  -2   89.65   12.92
  -9   7   2   90.58   18.04
  -9   7   2   57.55   14.08
   6  -7  -2  273.52   26.87
   6  -7  -2  312.66   20.94
  -6   7   2  251.18   19.74
  -6   7   2  281.80   20.28
   3  -7  -2  344.79   24.60
  -7   4  -2  311.73   19.03
  -7   4  -2  313.24   20.75
  -7   4  -2  347.37   22.93
   7  -4   2  321.47   27.51
   7  -4   2  322.05   20.45
  -3   7   2  295.85   20.88
  -3   7   2  329.15   23.05
  -3   7   2  317.82   20.62
  -7   7  -2   90.36   13.62
  -7   7  -2  119.12   17.41
  -7   7  -2  105.50   14.48
   0   7   2   93.93   10.65
  -8   8   2  531.88   33.89
  -8   3  -2  168.02   13.48
   5  -8  -2  162.16   22.72
   5  -8  -2  195.60   18.18
   8  -3   2  152.33   14.74
  -5   8   2  153.09   17.86
  -5   8   2  149.48   14.93
  -8   6  -2  567.27   33.42
  -8   6  -2  584.15   36.19
  -8   6  -2  537.01   31.81
  -2   8   2  524.66   31.01
  -2   8   2  581.04   33.88
  -2   8   2  567.49   32.39
  -7   9   2  140.79   19.38
   9  -2   2  152.71   24.14
   4  -9  -2  205.86   25.65
  -9   5  -2  200.31   17.72
  -9   5  -2  193.05   19.26
  -4   9   2  187.34   20.64
  -4   9   2  169.68   17.39
   0   0  -3   17.95    2.53
   0   0  -3   21.11    2.73
   0   0   3   28.79    3.16
   0   0   3   23.03    2.31
  -1   2  -3  456.16   21.41
  -1   2  -3  457.81   21.21
   2  -1  -3  471.81   21.36
  -1   2  -3  460.83   23.38
  -1   2  -3  471.29   22.23
  -2   1   3  496.99   21.28
  -2   1   3  443.53   21.10
   1  -2   3  461.97   23.08
   1  -2   3  458.54   21.48
  -2   1  -3 1590.69   68.83
   1  -2  -3 1617.76   66.33
  -2   1  -3 1579.33   66.63
   1   1  -3 1598.15   65.62
  -2   1  -3 1591.27   66.11
   2  -1   3 1594.11   66.01
   2  -1   3 1588.89   66.02
  -1   2   3 1577.80   66.26
   2  -1   3 1535.74   68.51
  -2   4  -3   18.78    5.07
  -2   4  -3   14.97    4.46
   4  -2  -3   16.81    4.17
  -2   4  -3   12.48    3.89
   2  -4   3   12.80    4.83
  -4   2   3   11.18    3.34
  -4   2   3   13.33    4.14
  -4   2   3   24.05    4.73
   2  -4   3   19.07    4.43
   3  -3  -3  578.44   27.65
   0   3  -3  573.75   26.27
   0   3  -3  573.45   26.54
   0   3  -3  574.21   27.06
   0   3  -3  536.10   28.04
   0  -3   3  579.06   27.55
  -3   3   3  573.08   27.67
  -3   3   3  584.53   27.67
  -3   3  -3  900.28   40.65
  -3   3  -3  883.36   40.68
   3   0  -3  868.42   39.14
  -3   0   3  928.49   39.38
   3  -3   3  911.57   40.89
   3  -3   3  905.85   44.59
   3  -3   3  865.08   40.39
  -3   6  -3   13.91    5.27
  -3   6  -3   17.60    5.31
  -3   6  -3   15.93    5.73
   6  -3  -3   22.18    5.36
  -6   3   3   14.18    4.69
  -6   3   3   14.73    5.12
  -6   3   3   19.86    5.30
   3  -6   3   21.69    7.31
   3  -6   3   20.24    5.58
  -1   5  -3 1522.04   67.33
  -1   5  -3 1549.47   71.55
  -1   5  -3 1546.78   68.88
   5  -4  -3 1524.29   68.68
  -1   5  -3 1521.73   67.70
   5  -4  -3 1526.46   75.39
  -5   4   3 1584.37   68.76
  -5   4   3 1460.03   68.52
   1  -5   3 1533.69   69.50
  -4   2  -3   26.28    4.58
   2  -4  -3   17.83    4.00
   2  -4  -3   19.80    5.96
   4  -2   3   27.09    4.59
  -2   4   3   24.09    5.00
   4  -2   3   30.86    7.23
   4  -2   3   26.57    4.60
  -2   4   3   23.47    4.73
  -4   5  -3 1325.63   61.59
   5  -1  -3 1263.50   57.26
  -4   5  -3 1343.56   59.55
  -4   5  -3 1306.52   59.40
   4  -5   3 1231.40   64.11
   4  -5   3 1315.59   59.37
  -5   1   3 1296.52   57.09
   4  -5   3 1238.16   58.56
  -4   8  -3   17.11    7.66
   8  -4  -3   34.23    8.18
  -4   8  -3   14.61    6.84
   8  -4  -3    5.42   11.10
   4  -8   3   31.06   11.29
  -8   4   3   25.94    7.99
  -2   7  -3  425.86   25.39
  -2   7  -3  416.79   27.04
   7  -5  -3  443.80   35.21
  -2   7  -3  440.14   26.13
  -7   5   3  436.41   28.64
  -7   5   3  455.02   26.23
   2  -7   3  451.04   28.58
   4  -5  -3   57.58    8.08
   4  -5  -3   58.57   11.64
  -4   5   3   52.98    7.70
  -4   5   3   62.60    8.54
   5  -1   3   67.20    9.29
  -5   4  -3    6.19    3.55
   1  -5  -3    8.44    3.66
  -5   4  -3    7.80    3.58
   5  -4   3   11.05    4.03
   5  -4   3   11.02    6.61
   5  -4   3    4.51    3.35
  -1   5   3    1.23    3.20
  -5   7  -3  517.39   41.45
  -5   7  -3  547.50   32.15
   7  -2  -3  602.14   30.90
  -5   7  -3  561.74   34.51
   5  -7   3  584.51   33.25
   5  -7   3  623.04   46.26
  -7   2   3  554.16   29.98
   5  -7   3  566.32   31.85
  -3   9  -3  443.04   28.91
  -3   9  -3  461.39   32.07
  -9   6   3  435.86   27.66
   3  -9   3  470.57   35.23
  -9   6   3  455.14   29.60
   6  -6  -3    1.23    5.44
   0   6  -3    5.59    4.02
   6  -6  -3    2.38    8.81
  -6   6   3   -0.49    4.49
  -6   6   3    7.80    5.85
  -6   3  -3 1903.00   83.89
   3  -6  -3 1844.82   87.79
   3  -6  -3 1895.97   82.46
  -6   3  -3 1907.46   82.53
   6  -3   3 1884.00   89.78
   6  -3   3 1904.76   82.76
  -3   6   3 1845.33   83.19
   6  -3   3 1805.82   82.07
  -3   6   3 1863.99   83.13
  -6   6  -3   30.29    8.03
  -6   6  -3   31.60    7.64
  -6   6  -3   26.13    6.53
   6  -6   3   34.13   10.61
   6  -6   3   20.22    6.64
   6  -6   3   32.20    7.92
   9  -3  -3  333.91   29.07
  -6   9  -3  323.30   25.05
  -6   9  -3  333.83   40.40
  -9   3   3  339.58   23.19
  -1   8  -3    0.14    8.65
  -1   8  -3   -2.56    5.87
  -8   7   3    6.18    6.87
   5  -7  -3   62.93   13.52
  -5   7   3   46.18   10.99
   7  -2   3   59.27   12.22
  -5   7   3   56.08    9.61
   7  -2   3   53.37    7.93
  -7   5  -3  129.53   12.22
   2  -7  -3  126.43   14.85
  -7   5  -3  180.96   20.06
  -7   5  -3  134.64   13.10
  -2   7   3  127.98   13.77
   7  -5   3  154.02   14.20
  -2   7   3  126.39   12.70
  -2   7   3  149.75   12.73
   7  -5   3  145.92   13.68
  -7   8  -3   22.22    8.53
  -7   8  -3   15.84    9.57
   8  -1  -3   14.47   12.50
   1   7  -3  940.67   53.27
  -7   8   3 1023.33   52.18
   4  -8  -3   -0.29    6.28
  -8   4  -3   -2.98    5.35
  -8   4  -3    2.96    5.69
   4  -8  -3   15.07    9.88
   8  -4   3    6.14   11.67
  -4   8   3   -2.92    4.95
  -4   8   3    9.20    7.87
  -4   8   3    3.05    5.33
  -8   7  -3  734.47   41.60
  -8   7  -3  781.57   44.92
  -1   8   3  701.66   38.89
  -9   3  -3    8.69    7.48
  -6   9   3   11.28    8.07
  -6   9   3    9.84   10.29
  -9   6  -3    0.80    8.60
  -9   6  -3   -0.06    7.26
  -9   6  -3   -8.66    7.32
  -9   6  -3  -19.03    7.72
  -3   9   3    6.24    7.36
  -3   9   3   -0.87    8.57
   0   1  -4  208.71   11.39
   0   1  -4  207.35   10.19
   0   1  -4  210.69   10.71
   1  -1  -4  203.67   10.19
   0  -1   4  211.99   11.15
  -1   1   4  191.65   10.01
   0  -1   4  196.92   10.12
  -1   3  -4   39.32    6.55
   3  -2  -4   43.51    5.32
  -1   3  -4   36.40    5.49
  -1   3  -4   42.70    4.52
  -1   3  -4   37.27    4.75
  -3   2   4   42.75    5.51
  -3   2   4   43.45    4.83
   1  -3   4   36.93    4.79
   1  -3   4   34.52    6.16
   2   0  -4    9.39    2.95
   2   0  -4    8.84    2.52
  -2   2  -4    6.23    2.46
  -2   2  -4    9.38    4.08
  -2   2  -4    8.37    2.46
  -2   2  -4    9.87    3.02
  -2   0   4   11.31    2.98
   2  -2   4    5.62    2.40
  -2   0   4   12.28    2.72
   2  -2   4    5.87    3.64
   2  -2   4    7.80    2.89
  -2   5  -4    6.87    4.04
  -2   5  -4    4.59    3.23
   5  -3  -4    7.52    3.66
  -2   5  -4    7.94    3.74
  -2   5  -4    9.35    5.25
   2  -5   4    3.51    4.70
   2  -5   4   11.08    4.10
  -5   3   4    3.81    3.40
  -5   3   4    4.75    3.21
   1   2  -4  562.19   25.68
   2  -3  -4  527.31   25.20
  -3   1  -4  531.74   24.16
  -1  -2   4  456.45   25.19
  -2   3   4  549.62   25.31
   3  -1   4  533.02   27.43
   3  -1   4  546.55   24.17
  -2   3   4  520.18   25.12
  -3   4  -4  999.76   45.78
  -3   4  -4 1043.73   47.78
   4  -1  -4 1015.49   44.75
  -3   4  -4  971.12   45.67
  -3   4  -4  972.71   50.51
   3  -4   4  987.95   45.51
   3  -4   4  989.93   49.88
   3  -4   4  991.11   45.84
  -4   1   4  983.30   44.42
  -3   7  -4   65.76    9.69
  -3   7  -4   70.77   10.91
   7  -4  -4   87.56   16.64
  -3   7  -4   68.25   12.52
   7  -4  -4   69.55   10.63
   3  -7   4   79.80   10.61
  -7   4   4   76.01   10.50
  -7   4   4   78.22    9.21
   3  -7   4   66.43   12.84
  -7   4   4   70.92    9.32
   0   4  -4   32.83    5.74
   0   4  -4   27.69    5.12
   4  -4  -4   31.81    5.93
   0   4  -4   34.50    6.53
  -4   4   4   18.95    5.10
   0  -4   4   27.00    5.74
  -4   4   4   28.78    5.64
   1  -4  -4   80.64    8.66
  -4   3  -4   79.74    7.24
  -4   3  -4   81.20    7.65
   3   1  -4   87.09    6.98
  -4   3  -4   81.39    8.88
   1  -4  -4   88.19    6.80
   4  -3   4   80.58   10.67
  -1   4   4   84.99    7.37
   4  -3   4   95.47    8.13
   4  -3   4   87.15    7.89
  -1   4   4   93.68    7.25
   6  -2  -4   25.28    5.86
  -4   6  -4   23.19    6.06
  -4   6  -4   23.47    6.64
  -4   6  -4   34.28    8.20
  -6   2   4   21.88    5.27
   4  -6   4   17.58    8.43
   4  -6   4   28.70    6.66
   4  -6   4   19.62    6.12
  -4   9  -4   14.41    8.83
  -4   9  -4   14.52    7.00
  -9   5   4   22.27    8.20
  -1   6  -4  546.54   29.71
   6  -5  -4  567.21   38.47
   6  -5  -4  566.49   30.90
  -1   6  -4  572.04   33.73
  -1   6  -4  564.11   29.52
  -1   6  -4  567.40   30.84
   1  -6   4  593.85   31.92
  -6   5   4  567.61   31.02
  -6   5   4  549.42   30.61
  -5   2  -4  197.09   12.67
   3  -5  -4  194.96   13.51
   5  -2   4  203.15   12.50
  -3   5   4  216.94   14.04
   5  -2   4  217.70   17.52
  -3   5   4  187.43   13.69
   5  -2   4  198.01   12.82
  -5   5  -4    4.15    4.34
  -5   5  -4    2.03    4.16
  -5   5  -4    8.22    4.02
  -5   0   4    7.59    3.59
   5  -5   4    6.19    4.32
   5  -5   4   -0.13    3.27
   5  -5   4   12.90    7.31
  -5   8  -4  658.85   41.02
   8  -3  -4  718.85   46.73
  -5   8  -4  661.02   38.18
  -8   3   4  704.55   41.10
   5  -8   4  717.89   45.75
  -2   8  -4   17.43    7.27
  -2   8  -4   27.65    8.69
   2  -8   4   23.46   11.72
  -8   6   4   26.94    7.61
  -8   6   4    6.79    7.59
   5  -6  -4  129.92   17.53
   1   5  -4  133.18   10.36
   5  -6  -4  117.62   11.59
  -5   6   4  112.77   11.99
  -5   6   4  116.56   11.93
  -6   4  -4   48.93    7.63
  -6   4  -4   47.42    8.35
  -6   4  -4   40.75    7.64
   2  -6  -4   46.42    7.23
   6  -4   4   34.99   10.67
   6  -4   4   53.42    8.91
  -2   6   4   43.37    7.61
  -2   6   4   53.08    7.47
   6  -4   4   45.31    8.06
   7  -1  -4   93.64   10.92
  -6   7  -4  110.88   12.33
  -6   7  -4  102.24   13.91
  -6   7  -4  109.60   14.23
   6  -7   4   84.36   12.13
  -7   1   4  108.40   10.83
   6  -7   4  136.33   21.02
   6  -7   4  112.52   12.77
   0   7  -4   39.01    7.95
  -7   7   4   28.53    8.51
  -7   3  -4  182.36   14.19
  -7   3  -4  214.92   15.76
   4  -7  -4  186.83   20.06
   4  -7  -4  195.28   15.41
   7  -3   4  163.00   13.89
   7  -3   4  185.99   14.91
   7  -3   4  177.37   19.70
  -4   7   4  204.14   16.30
  -4   7   4  194.38   15.42
  -7   6  -4  621.80   37.33
  -7   6  -4  614.57   36.51
  -7   6  -4  609.50   34.94
  -1   7   4  627.35   33.11
   7  -6   4  628.31   35.27
   7  -6   4  615.26   42.54
   7  -6   4  636.33   34.70
  -7   9  -4    3.54    8.97
  -7   9  -4   -7.28    7.86
   9  -2  -4   22.33    8.92
  -9   2   4   15.32    8.93
   8  -2   4   -2.11   11.61
  -6   8   4   23.99    8.79
   3  -8  -4  245.44   23.22
  -8   5  -4  248.21   20.75
  -8   5  -4  229.49   18.51
  -3   8   4  244.56   18.97
   8  -5   4  218.51   17.88
  -3   8   4  218.36   17.51
  -3   8   4  218.23   19.54
   8  -5   4  257.72   38.15
  -8   8  -4    1.22    6.88
   0   8   4   10.44    7.62
  -9   4  -4  210.21   18.09
  -5   9   4  244.22   23.19
   9  -4   4  237.69   19.58
  -5   9   4  263.80   20.57
  -9   7  -4    3.96    9.35
  -9   7  -4   16.36    8.03
  -2   9   4    7.37    8.40
   1   0  -5    3.57    3.03
   1   0  -5    4.57    2.22
   1   0  -5    3.46    2.78
  -1   1  -5    0.84    2.93
  -1   1  -5    5.31    2.51
  -1   1  -5    2.97    1.93
  -1   0   5    6.24    2.96
   1  -1   5    3.14    2.25
  -1   0   5    6.38    3.11
   1  -1   5    3.70    2.48
   1  -1   5    6.43    2.64
   0   2  -5 1791.29   72.84
   0   2  -5 1687.38   71.27
   0   2  -5 1627.57   70.58
   2  -2  -5 1648.50   71.17
  -2   2   5 1662.10   71.09
   0  -2   5 1658.62   70.57
   0  -2   5 1763.96   72.13
   0  -2   5 1641.30   71.21
  -2   3  -5  138.17   10.27
  -2   3  -5  120.54   11.75
  -2   3  -5  135.49    9.43
   3  -1  -5  134.36    8.93
  -2   3  -5  133.67    9.33
  -3   1   5  155.90    9.21
   2  -3   5  155.05    9.96
   2  -3   5  136.20   11.49
  -3   1   5  141.25    9.18
  -1   4  -5  195.26   12.46
   4  -3  -5  185.41   12.62
  -1   4  -5  189.67   12.07
  -1   4  -5  192.02   13.33
  -1   4  -5  201.31   15.34
   1  -4   5  198.67   13.60
  -4   3   5  201.51   12.90
   1  -4   5  196.27   13.83
  -4   3   5  195.14   12.85
   1  -3  -5  168.86   10.31
   2   1  -5  196.38   10.68
   2   1  -5  182.90   10.66
  -3   2  -5  187.42   11.04
  -3   2  -5  191.70   14.45
  -3   2  -5  181.51   10.64
  -3   2  -5  170.77   11.84
   3  -2   5  189.89   14.04
   3  -2   5  188.10   11.18
  -1   3   5  181.86   10.49
   3  -2   5  184.61   10.68
  -3   5  -5   79.24    9.64
  -3   5  -5   57.39   11.42
   5  -2  -5   58.19    8.04
  -3   5  -5   67.23    8.85
  -3   5  -5   83.59    8.42
  -5   2   5   57.72    6.53
   3  -5   5   61.98   10.95
  -5   2   5   67.23    8.46
  -5   2   5   70.75    7.23
   3  -5   5   64.88    7.83
  -2   6  -5  437.67   25.04
   6  -4  -5  449.17   25.78
  -2   6  -5  431.71   25.24
  -2   6  -5  456.35   26.97
  -2   6  -5  463.87   30.27
  -6   4   5  450.31   25.52
   2  -6   5  439.07   27.77
   2  -6   5  470.61   24.85
  -6   4   5  424.03   24.70
   1   3  -5  209.04   13.49
   1   3  -5  184.89   11.47
   3  -4  -5  207.30   12.93
  -3   4   5  180.36   12.54
   4  -1   5  192.47   14.81
  -3   4   5  197.88   12.74
   4   0  -5  891.90   39.29
  -4   4  -5  867.44   42.61
  -4   4  -5  822.71   41.98
   4   0  -5  872.24   39.18
  -4   4  -5  832.53   40.82
   4  -4   5  827.83   45.38
   4  -4   5  834.55   40.82
   4  -4   5  879.58   40.64
  -4   0   5  885.78   39.43
  -4   7  -5  213.05   18.64
   7  -3  -5  211.01   16.05
  -4   7  -5  217.22   16.80
  -7   3   5  192.38   15.17
   4  -7   5  199.96   15.97
   4  -7   5  179.14   20.58
  -3   8  -5  335.99   23.33
  -3   8  -5  368.13   26.12
   3  -8   5  384.94   31.20
  -8   5   5  299.26   24.41
  -8   5   5  339.90   23.35
  -8   5   5  345.67   25.17
   0   5  -5   13.57    4.70
   0   5  -5   20.53    4.34
   0   5  -5   19.12    5.09
   5  -5  -5    6.24    6.13
   5  -5  -5   13.80    4.64
   0  -5   5   23.12    6.17
  -5   5   5    8.13    4.78
  -5   5   5   19.34    5.91
  -5   3  -5    7.91    3.89
  -5   3  -5    7.83    3.49
   2  -5  -5    4.92    3.38
   2  -5  -5    7.12    5.00
  -5   3  -5    7.09    3.17
   5  -3   5    8.80    4.72
  -2   5   5   10.91    4.13
  -2   5   5   10.49    3.45
   5  -3   5    4.11    2.92
   5  -3   5   13.50    5.93
  -5   6  -5  255.74   20.23
  -5   6  -5  267.29   18.35
   6  -1  -5  263.61   16.53
  -5   6  -5  260.41   18.51
   5  -6   5  259.97   17.80
   5  -6   5  279.66   23.67
  -6   1   5  260.95   16.66
   5  -6   5  243.87   18.26
  -5   9  -5  146.91   19.34
  -5   9  -5  160.02   16.01
  -9   4   5  127.09   14.86
   7  -6  -5  283.34   21.13
  -1   7  -5  294.95   20.77
   7  -6  -5  303.27   28.36
  -1   7  -5  305.13   19.40
  -1   7  -5  276.57   19.67
  -1   7  -5  302.56   24.08
  -7   6   5  301.86   21.06
   1  -7   5  270.09   21.42
  -7   6   5  292.88   21.35
   4  -6  -5  416.66   29.94
   4  -6  -5  419.01   24.73
  -6   2  -5  424.25   22.75
  -4   6   5  434.81   25.09
  -4   6   5  432.20   25.09
   6  -2   5  440.15   28.77
   6  -2   5  450.54   23.64
  -6   5  -5  209.49   17.38
  -6   5  -5  203.82   14.97
  -6   5  -5  218.09   15.96
   6  -5   5  218.46   15.79
   6  -5   5  181.34   14.89
   6  -5   5  188.07   20.09
  -1   6   5  199.45   14.06
  -6   8  -5  140.82   14.34
   8  -2  -5  129.89   14.23
  -6   8  -5  129.48   16.75
  -8   2   5  138.32   13.96
   6  -8   5  133.19   15.35
  -2   9  -5   17.54    8.09
  -2   9  -5   40.59   11.55
  -9   7   5   43.43   10.05
   6  -7  -5  167.20   16.05
   6  -7  -5  189.85   23.18
   1   6  -5  185.63   14.64
  -6   7   5  179.93   15.96
  -6   7   5  171.58   15.70
  -7   4  -5  115.53   13.30
  -7   4  -5  109.72   11.77
   3  -7  -5  118.10   16.35
   3  -7  -5  119.73   12.01
   7  -4   5  113.87   12.05
  -3   7   5  104.45   11.16
  -3   7   5  131.57   12.53
   7  -4   5  136.53   19.66
   7  -4   5   96.45   10.74
  -7   7  -5   65.97   12.32
  -7   7  -5   69.38   11.98
  -7   7  -5   63.26   13.15
   7  -7   5   79.78   12.45
  -8   8   5  129.57   20.34
  -8   3  -5  360.96   22.32
   5  -8  -5  350.69   31.56
   5  -8  -5  386.44   28.14
   8  -3   5  360.46   22.16
   8  -3   5  361.03   34.98
  -5   8   5  375.39   24.25
  -8   6  -5  179.88   16.89
  -8   6  -5  199.01   19.98
  -8   6  -5  198.67   18.07
   8  -6   5  203.34   18.07
  -2   8   5  216.60   18.91
  -2   8   5  200.37   17.31
   9  -2   5   -5.39   15.86
   4  -9  -5   19.33   14.93
  -9   5  -5    1.78    7.40
  -9   5  -5    3.76    6.91
  -4   9   5    4.15    7.39
  -4   9   5    6.56    7.71
   0   0  -6  455.08   22.10
   0   0  -6  450.06   22.16
   0   0  -6  445.52   20.98
   0   0   6  495.62   22.31
   0   0   6  487.87   21.26
   0   0   6  462.29   22.20
  -1   2  -6 2973.20  126.93
   2  -1  -6 3177.86  126.44
  -1   2  -6 2953.04  126.05
  -1   2  -6 3085.14  128.84
   1  -2   6 3063.72  126.32
   1  -2   6 2976.01  128.01
  -2   1   6 3027.55  126.06
   1  -2   6 3029.19  127.13
  -2   1   6 3240.43  126.22
   1  -2  -6 3599.03  147.66
  -2   1  -6 3541.93  147.34
  -2   1  -6 3477.49  148.07
  -2   1  -6 3538.36  150.22
   1   1  -6 3765.45  147.82
   1   1  -6 3467.82  149.63
  -1  -1   6 3729.56  148.57
  -1   2   6 3506.38  147.45
   2  -1   6 3603.16  149.75
   2  -1   6 3557.49  147.36
   2  -1   6 3535.42  148.24
  -1  -1   6 3907.44  147.86
  -2   4  -6   12.22    5.79
  -2   4  -6    9.33    3.29
  -2   4  -6   10.52    4.13
  -2   4  -6    7.01    3.19
   4  -2  -6   14.75    3.74
  -4   2   6   13.08    3.57
   2  -4   6    9.90    3.76
   2  -4   6   13.13    4.66
  -4   2   6   15.20    3.82
  -4   2   6   11.22    3.44
   0   3  -6 1830.47   78.54
   0   3  -6 1870.08   81.21
   3  -3  -6 1883.24   79.64
  -3   3   6 1814.67   79.30
   0  -3   6 1882.22   80.14
  -3   3   6 1847.70   79.47
   0  -3   6 1853.02   78.37
   0  -3   6 1832.70   79.40
  -3   3  -6 1742.38   81.88
  -3   3  -6 1815.58   78.64
  -3   3  -6 1900.09   79.67
   3   0  -6 1878.58   76.53
   3   0  -6 1617.11   75.95
  -3   3  -6 1784.06   76.82
   3  -3   6 1825.60   78.49
  -3   0   6 1865.22   76.36
   3  -3   6 1748.47   81.02
   3  -3   6 1781.25   76.84
   6  -3  -6 2483.30  107.63
  -3   6  -6 2404.24  109.71
  -3   6  -6 2450.90  107.74
  -3   6  -6 2488.50  114.96
  -3   6  -6 2414.28  107.74
   3  -6   6 2587.38  107.89
  -6   3   6 2527.03  106.04
  -6   3   6 2454.37  107.11
  -6   3   6 2480.31  106.44
   3  -6   6 2426.30  111.98
  -1   5  -6  768.71   37.87
  -1   5  -6  762.74   41.82
   5  -4  -6  785.06   39.12
  -1   5  -6  788.58   38.34
  -1   5  -6  811.45   39.49
  -5   4   6  832.02   39.42
   1  -5   6  800.91   37.61
  -5   4   6  807.32   38.93
   1  -5   6  786.88   40.32
  -4   2  -6   48.83    5.54
   2   2  -6   43.60    5.57
   2  -4  -6   54.00    6.50
   2   2  -6   47.88    6.62
  -4   2  -6   48.95    6.55
   4  -2   6   54.14    8.93
   4  -2   6   45.34    5.76
  -2   4   6   48.46    5.89
   4  -2   6   48.09    6.01
  -4   5  -6  735.25   43.13
   5  -1  -6  714.44   37.78
  -4   5  -6  775.07   37.59
  -4   5  -6  737.63   37.15
  -4   5  -6  757.35   39.46
   4  -5   6  734.70   37.35
   4  -5   6  731.94   42.04
  -5   1   6  786.83   36.01
  -4   8  -6    3.25    7.17
  -4   8  -6    5.25    5.77
   8  -4  -6    1.03    6.43
   8  -4  -6   13.15   12.60
  -8   4   6    7.96    5.83
  -8   4   6    7.43    6.10
  -8   4   6    6.45    6.33
   4  -8   6   -1.20    5.68
   4  -8   6    4.42    9.22
   7  -5  -6  503.53   37.26
  -2   7  -6  480.17   29.74
  -2   7  -6  492.49   28.04
   7  -5  -6  455.06   28.35
  -2   7  -6  425.76   31.74
  -2   7  -6  495.54   29.65
  -7   5   6  494.68   27.74
  -7   5   6  509.86   29.30
   2  -7   6  489.98   26.77
  -7   5   6  459.59   27.88
   2  -7   6  483.79   30.87
   1   4  -6 2029.93   88.06
   4  -5  -6 2065.77   90.32
   1   4  -6 2039.36   90.59
   4  -5  -6 2071.11   96.87
  -4   5   6 2119.68   90.58
  -4   5   6 2043.04   90.22
   5  -1   6 2049.95   92.23
  -5   4  -6 2284.59   98.01
   4   1  -6 2263.11   95.74
  -5   4  -6 2237.15   97.03
  -5   4  -6 2254.45   99.77
   5  -4   6 2228.29  104.24
   5  -4   6 2250.99   97.55
   5  -4   6 2228.30   98.03
  -1   5   6 2275.99   96.27
  -5   7  -6  410.89   25.52
  -5   7  -6  392.32   27.75
   7  -2  -6  370.50   23.47
  -5   7  -6  372.91   24.52
   5  -7   6  402.04   31.02
  -7   2   6  448.06   24.05
   5  -7   6  395.86   26.85
  -3   9  -6  146.90   19.49
  -3   9  -6  132.20   15.75
  -9   6   6  139.88   17.26
  -9   6   6  152.12   15.47
   0   6  -6    8.52    6.59
   0   6  -6    7.09    4.30
   0   6  -6    3.70    4.76
   0  -6   6    6.52    5.92
  -6   6   6   11.26    8.40
  -6   6   6   13.62    8.40
   3  -6  -6  560.91   29.51
  -6   3  -6  536.33   28.89
  -6   3  -6  554.60   30.22
   3  -6  -6  547.33   34.31
   6  -3   6  543.47   34.72
  -3   6   6  595.55   30.02
  -3   6   6  562.81   30.15
   6  -3   6  571.07   28.85
   6  -3   6  569.61   29.47
  -6   6  -6   14.52    6.86
  -6   6  -6    9.98    5.28
  -6   6  -6    4.83    4.88
   6  -6   6   17.18    9.73
  -6   9  -6  163.36   17.33
  -6   9  -6  155.94   25.35
  -9   3   6  142.66   16.55
  -1   8  -6 1266.48   61.08
  -1   8  -6 1176.41   58.80
  -8   7   6 1209.64   61.52
   5  -7  -6 1112.09   54.53
   5  -7  -6 1055.74   59.69
   7  -2   6 1038.34   55.86
  -5   7   6 1001.34   51.76
   2  -7  -6  754.70   41.63
  -7   5  -6  764.83   38.73
  -7   5  -6  739.35   40.01
   7  -5   6  797.51   50.73
  -2   7   6  761.58   38.39
   7  -5   6  786.96   40.14
  -2   7   6  779.30   39.59
   7  -5   6  796.90   50.98
  -7   8  -6 1274.75   64.03
  -7   8  -6 1226.87   66.69
   7  -8   6 1280.48   63.46
   1   7  -6  150.83   14.59
  -7   8   6  121.67   15.92
   4  -8  -6   22.95   10.49
  -8   4  -6    2.15    6.23
  -8   4  -6    8.24    6.10
   4  -8  -6   -2.39    6.58
   8  -4   6   19.67   12.24
   8  -4   6    5.62    5.45
  -4   8   6   15.04    6.23
   8  -4   6    5.64    7.61
  -8   7  -6   99.65   14.20
  -8   7  -6  107.04   16.56
   8  -7   6  132.32   14.88
  -1   8   6  121.37   13.73
   9  -3   6  550.33   54.68
  -6   9   6  626.27   36.49
  -9   6  -6  829.05   43.81
  -9   6  -6  869.26   49.50
  -9   6  -6  847.19   46.49
  -3   9   6  848.00   44.93
  -3   9   6  918.95   50.12
   1  -1  -7 1775.24   74.08
  -1   0  -7 1790.15   74.81
   0   1  -7 1740.20   75.81
  -1   0  -7 1798.28   74.71
   0   1  -7 1734.01   73.96
   0   1  -7 1779.73   75.06
   1   0   7 1822.50   74.51
  -1   1   7 1709.28   73.76
  -1   1   7 1737.18   73.85
   0  -1   7 1842.70   75.27
   1   0   7 1750.43   74.30
   0  -1   7 1771.60   75.56
   0  -1   7 1806.26   74.31
  -1   3  -7 1320.24   60.52
  -1   3  -7 1281.27   58.11
  -1   3  -7 1315.49   57.22
   3  -2  -7 1341.71   57.68
   1  -3   7 1294.55   58.34
  -3   2   7 1393.17   57.31
  -3   2   7 1322.40   57.31
   1  -3   7 1283.32   57.22
   1  -3   7 1277.76   59.26
  -2   2  -7  810.61   36.42
  -2   2  -7  817.76   36.62
  -2   2  -7  827.89   40.03
   2   0  -7  884.01   37.02
  -2   2  -7  783.36   37.45
   2  -2   7  794.50   36.67
  -2   0   7  839.20   36.53
  -2   0   7  873.79   37.68
   2  -2   7  808.08   37.74
   2  -2   7  794.14   39.07
  -2   5  -7  832.11   39.03
  -2   5  -7  813.04   44.07
   5  -3  -7  789.01   39.26
  -2   5  -7  792.30   40.43
  -2   5  -7  757.63   38.87
  -5   3   7  801.09   38.89
   2  -5   7  819.60   42.08
  -5   3   7  810.14   38.77
   2  -5   7  839.88   39.23
  -5   3   7  808.25   38.35
   2  -3  -7 1755.29   75.66
  -3   1  -7 1770.45   74.48
   1   2  -7 1758.03   74.98
   1   2  -7 1846.24   76.19
   1   2  -7 1861.97   77.50
  -3   1  -7 1775.48   78.43
  -1  -2   7 1739.10   74.66
  -1  -2   7 1765.64   77.34
  -2   3   7 1757.39   75.55
   3  -1   7 1707.07   77.32
  -3   4  -7 1047.21   50.81
  -3   4  -7 1061.81   49.35
  -3   4  -7 1105.84   54.94
   4  -1  -7 1089.81   48.76
  -4   1   7 1092.34   48.37
  -4   1   7 1051.29   47.69
   3  -4   7 1114.67   49.82
  -3   7  -7  161.27   24.20
  -3   7  -7  169.94   16.34
  -3   7  -7  157.99   13.91
   7  -4  -7  127.55   13.78
  -3   7  -7  125.11   18.02
  -7   4   7  163.21   13.71
   3  -7   7  152.26   13.56
  -7   4   7  154.29   13.42
   3  -7   7  157.33   17.17
  -7   4   7  150.65   13.41
   0   4  -7 1067.57   51.93
   4  -4  -7 1005.15   46.74
   0   4  -7  981.19   45.44
   0   4  -7 1019.44   46.42
  -4   4   7  959.32   46.41
   0  -4   7 1001.97   46.20
   0  -4   7 1013.58   47.04
  -4   4   7  945.12   46.24
  -4   3  -7  702.93   33.93
  -4   3  -7  698.43   33.21
  -4   3  -7  681.89   38.95
  -4   3  -7  718.48   35.41
   1  -4  -7  704.47   32.55
   3   1  -7  744.50   33.38
  -1   4   7  682.28   32.67
   4  -3   7  688.35   38.17
   4  -3   7  729.66   33.90
   4  -3   7  721.43   34.35
  -1   4   7  725.80   32.72
  -4   6  -7  337.34   26.90
  -4   6  -7  307.09   22.19
  -4   6  -7  307.09   20.15
  -4   6  -7  303.35   20.27
   6  -2  -7  300.97   19.34
  -6   2   7  342.49   19.48
   4  -6   7  322.74   20.79
   4  -6   7  308.57   24.93
  -4   9  -7   71.82   11.84
  -4   9  -7   92.34   16.02
  -9   5   7   65.63   12.28
  -9   5   7   62.14   11.41
  -9   5   7   55.15   12.14
  -1   6  -7  825.44   42.28
  -1   6  -7  877.92   43.84
  -1   6  -7  858.99   42.23
  -1   6  -7  853.98   46.96
   6  -5  -7  899.17   44.29
  -6   5   7  865.12   43.56
  -6   5   7  915.70   44.14
   1  -6   7  851.39   44.23
   3  -5  -7  833.56   47.05
   3  -5  -7  888.12   42.65
   2   3  -7  914.08   41.11
   2   3  -7  953.13   43.95
  -5   2  -7  928.49   41.64
  -3   5   7  940.36   43.09
   5  -2   7  881.20   46.55
  -3   5   7  886.64   42.80
   5  -2   7  878.16   41.01
   5  -2   7  900.92   41.67
   5   0  -7  520.01   26.53
  -5   5  -7  513.17   27.63
  -5   5  -7  499.70   29.63
   5   0  -7  491.94   26.03
  -5   5  -7  482.59   27.90
   5  -5   7  488.24   33.05
   5  -5   7  474.61   27.66
   5  -5   7  544.42   27.88
  -5   8  -7  710.95   41.95
   8  -3  -7  681.05   38.16
  -5   8  -7  685.92   39.04
  -8   3   7  680.27   37.56
   5  -8   7  731.51   39.14
  -2   8  -7  109.50   13.49
  -2   8  -7  105.97   14.55
   2  -8   7   91.93   15.51
  -8   6   7  101.72   14.41
  -8   6   7  102.87   13.24
   5  -6  -7  500.52   28.09
   5  -6  -7  510.05   34.96
   1   5  -7  453.79   25.43
  -5   6   7  512.44   28.08
  -5   6   7  445.39   27.38
  -6   4  -7  365.10   23.39
  -6   4  -7  349.66   20.38
   2  -6  -7  369.89   26.05
  -6   4  -7  382.71   22.28
   2  -6  -7  378.67   20.60
  -2   6   7  361.31   21.36
   6  -4   7  353.10   22.28
   6  -4   7  398.64   22.00
   6  -4   7  333.52   27.29
  -2   6   7  372.32   21.03
  -6   7  -7  148.64   14.91
   7  -1  -7  152.88   13.94
  -6   7  -7  165.18   17.45
  -6   7  -7  156.78   14.59
   6  -7   7  167.04   23.08
   6  -7   7  153.06   15.29
  -7   1   7  169.88   13.51
   0   7  -7  123.43   13.01
  -7   7   7   99.44   13.40
  -7   3  -7  385.07   22.61
   4  -7  -7  370.51   28.35
   4  -7  -7  397.97   24.13
   7  -3   7  399.01   29.64
   7  -3   7  388.29   23.10
   7  -3   7  401.66   22.49
  -4   7   7  350.55   23.14
  -7   6  -7  641.52   37.90
  -7   6  -7  633.41   36.03
  -7   6  -7  633.92   37.41
   7  -6   7  651.05   35.92
   7  -6   7  582.87   42.55
  -1   7   7  622.66   33.39
   7  -6   7  619.99   34.94
  -7   9  -7   29.31   10.68
  -7   9  -7   57.94   14.22
  -9   2   7   53.01   11.24
   2   6  -7  138.84   13.33
  -6   8   7  132.52   15.19
   8  -2   7  140.73   20.65
   3  -8  -7  191.10   20.55
  -8   5  -7  158.84   15.26
  -8   5  -7  184.37   17.97
   3  -8  -7  174.35   16.15
   8  -5   7  182.86   16.33
  -3   8   7  164.73   14.89
  -3   8   7  175.13   16.14
   8  -5   7  179.17   16.65
  -8   8  -7   83.56   16.99
  -9   4  -7  233.17   18.37
  -5   9   7  223.06   19.38
   9  -4   7  191.29   18.29
  -9   7  -7   59.19   14.49
  -2   9   7   58.84   13.03
   1   0  -8 4237.66  177.93
   1   0  -8 4194.33  178.07
  -1   1  -8 4310.61  177.26
   1   0  -8 4185.54  179.00
  -1   1  -8 4264.44  178.43
  -1   1  -8 4431.09  179.99
   0  -1  -8 4488.71  176.95
   0   1   8 4542.52  178.53
   1  -1   8 4201.68  179.00
   1  -1   8 4451.77  178.82
  -1   0   8 4382.42  179.74
  -1   0   8 4201.44  178.06
   1  -1   8 4558.14  177.86
   0   1   8 4342.16  176.70
   2  -2  -8   49.69    5.28
   0   2  -8   48.72    5.81
   0   2  -8   62.92    7.22
  -2   0  -8   50.64    6.06
   0   2  -8   49.95    5.20
  -2   2   8   47.72    5.16
   0  -2   8   46.98    6.14
   0  -2   8   56.75    6.41
   0  -2   8   57.96    5.64
  -2   3  -8 3757.38  161.77
  -2   3  -8 3776.85  160.40
   3  -1  -8 3965.78  160.74
  -3   1   8 3966.71  160.34
   2  -3   8 3784.35  162.08
   2  -3   8 3827.95  163.68
  -3   1   8 4045.01  160.87
  -1   4  -8 2287.93   99.74
  -1   4  -8 2349.46  103.02
   4  -3  -8 2306.10   99.30
  -1   4  -8 2366.75   98.74
  -1   4  -8 2262.84  100.29
  -4   3   8 2297.49   98.91
   1  -4   8 2242.24  100.78
   1  -4   8 2366.26   98.65
  -3   2  -8 3292.60  141.71
  -3   2  -8 3349.06  140.70
  -3   2  -8 3410.28  145.51
   1  -3  -8 3452.04  140.29
   2   1  -8 3519.80  141.20
   2   1  -8 3457.03  143.91
   2   1  -8 3437.86  141.08
   2   1  -8 3299.22  141.51
  -3   2  -8 3332.49  140.02
  -1   3   8 3327.61  139.88
  -2  -1   8 3612.09  140.49
   3  -2   8 3291.16  144.12
   3  -2   8 3350.44  140.79
  -3   5  -8 2228.03   96.77
   5  -2  -8 2237.55   96.35
  -3   5  -8 2261.83   98.86
  -3   5  -8 2230.33   96.83
  -3   5  -8 2156.51  102.91
  -5   2   8 2221.79   95.83
   3  -5   8 2219.13   96.88
  -5   2   8 2336.92   95.88
  -5   2   8 2235.06   96.80
   3  -5   8 2085.15  100.41
  -2   6  -8   27.14    6.40
  -2   6  -8   25.79    7.26
  -2   6  -8   17.56    9.07
   6  -4  -8   14.99    5.43
  -2   6  -8   27.63    6.65
  -6   4   8   22.28    5.58
  -6   4   8   31.83    6.77
   2  -6   8   21.36    5.86
  -6   4   8   28.95    6.39
   2  -6   8   17.78    7.76
   1   3  -8 2746.36  112.72
   1   3  -8 2648.79  109.36
   3  -4  -8 2533.73  110.59
  -3   4   8 2597.71  110.44
  -3   4   8 2497.65  114.36
   4  -1   8 2581.19  112.13
  -1  -3   8 2572.48  112.15
  -4   4  -8  185.71   17.20
  -4   4  -8  176.96   14.06
   4   0  -8  169.50   12.05
  -4   4  -8  169.09   12.58
  -4   4  -8  180.04   12.94
   4   0  -8  184.68   12.21
   4  -4   8  188.92   16.57
   4  -4   8  182.69   13.08
   7  -3  -8  968.95   49.35
  -4   7  -8 1001.46   52.67
  -4   7  -8  985.61   55.90
  -4   7  -8  980.20   50.04
  -4   7  -8 1050.08   58.80
  -7   3   8 1050.10   49.05
  -7   3   8  981.78   47.73
   4  -7   8 1013.24   56.27
  -7   3   8  998.63   48.98
   4  -7   8  993.81   49.88
  -3   8  -8  919.32   49.03
  -3   8  -8  903.01   46.85
   3  -8   8  858.44   50.58
  -8   5   8  828.16   45.63
  -8   5   8  889.18   45.90
  -8   5   8  925.75   45.37
   5  -5  -8 1548.53   71.46
   0   5  -8 1586.77   73.92
   0   5  -8 1598.89   70.75
   0   5  -8 1532.76   69.53
   0   5  -8 1580.20   69.65
  -5   5   8 1523.81   70.99
  -5   5   8 1562.26   71.22
   3   2  -8 2445.06   98.17
   2  -5  -8 2293.38  102.78
   2  -5  -8 2344.16   98.26
  -5   3  -8 2306.74  100.09
  -5   3  -8 2209.49   96.93
  -5   3  -8 2313.74   98.70
   3   2  -8 2042.67  101.92
   3   2  -8 2352.67   97.92
   5  -3   8 2300.52   98.93
   5  -3   8 2267.98  104.51
  -2   5   8 2344.70   98.35
  -2   5   8 2194.11   98.19
   5  -3   8 2384.61   98.61
  -5   6  -8 1643.76   74.93
  -5   6  -8 1570.24   73.92
   6  -1  -8 1581.34   72.41
   5  -6   8 1627.88   74.70
   5  -6   8 1618.24   80.94
  -6   1   8 1645.53   72.48
  -5   9  -8  545.14   39.79
  -5   9  -8  479.64   32.08
  -9   4   8  459.05   30.59
   5  -9   8  525.37   32.10
  -1   7  -8 1263.33   58.91
  -1   7  -8 1153.11   62.22
  -1   7  -8 1200.14   56.87
  -1   7  -8 1165.87   56.94
   1  -7   8 1176.28   58.83
  -7   6   8 1177.23   58.46
  -7   6   8 1144.62   58.11
   2   4  -8   25.07    5.50
   4  -6  -8   26.35    9.47
   4  -6  -8   25.06    6.15
  -4   6   8   20.53    6.41
  -4   6   8   26.18    6.90
   6  -2   8   33.25    6.07
   6  -2   8   28.70    7.60
  -6   5  -8 1745.08   81.36
  -6   5  -8 1726.24   79.08
   5   1  -8 1779.42   76.71
  -6   5  -8 1716.20   77.85
   6  -5   8 1793.86   79.68
   6  -5   8 1730.85   78.65
  -1   6   8 1755.60   77.02
   6  -5   8 1666.86   85.95
   8  -2  -8    1.32    6.40
  -6   8  -8    8.98    7.91
  -6   8  -8    4.56    6.80
  -8   2   8    7.96    6.96
   6  -8   8   -3.24    6.78
  -2   9  -8  338.38   26.79
  -2   9  -8  279.29   23.04
  -9   7   8  326.03   24.09
  -9   7   8  279.94   24.24
   6  -7  -8  820.71   52.67
   6  -7  -8  825.64   43.84
   1   6  -8  783.63   40.92
   1   6  -8  821.79   40.34
  -6   7   8  812.36   43.53
  -6   7   8  896.08   51.74
   3  -7  -8  861.78   43.18
   3  -7  -8  882.33   48.76
  -7   4  -8  889.44   45.58
  -7   4  -8  873.21   44.13
   7  -4   8  880.16   43.74
  -3   7   8  881.13   44.52
   7  -4   8  860.85   44.36
   7  -4   8  916.12   52.29
  -3   7   8  903.19   44.12
  -7   7  -8  489.75   31.75
  -7   7  -8  520.99   34.42
   7  -7   8  537.91   32.35
   0   8  -8    5.02    7.96
  -8   8   8    7.55    9.75
   5  -8  -8 1212.53   69.43
   3   5  -8 1203.35   57.86
   8  -3   8 1243.19   58.04
   8  -3   8 1270.85   59.65
  -5   8   8 1295.10   61.59
  -8   6  -8   -2.23    7.10
  -8   6  -8    4.10    6.51
  -8   6  -8   -0.75    6.96
   8  -6   8    8.11    7.38
  -2   8   8   10.00    7.15
  -7   9   8  258.90   22.90
  -9   5  -8  351.04   25.92
  -9   5  -8  434.34   29.65
   4  -9  -8  359.58   33.35
  -4   9   8  397.10   26.20
   9  -5   8  406.66   27.48
   0   0  -9 5482.47  225.52
   0   0  -9 5451.48  223.63
   0   0  -9 5498.06  225.41
   0   0   9 5489.73  225.43
   0   0   9 5502.06  223.87
  -1   2  -9   98.04    9.76
   2  -1  -9  101.62    7.58
  -1   2  -9   95.28    7.36
   2  -1  -9  101.01    7.63
  -2   1   9  114.26    7.71
   1  -2   9  103.90    8.69
   1  -2   9  110.75    9.15
   1  -2   9  108.28    7.92
  -2   1   9   83.71    8.03
  -2   1   9  110.53    8.06
   1  -2  -9   41.47    4.46
   1   1  -9   49.64    6.98
   1   1  -9   41.85    6.78
   1   1  -9   36.88    4.87
  -2   1  -9   41.83    6.76
  -2   1  -9   40.13    5.37
  -1   2   9   35.07    4.21
   2  -1   9   36.61    5.76
   2  -1   9   40.98    4.77
  -1  -1   9   42.26    5.42
  -1  -1   9   40.12    6.04
   2  -1   9   34.82    5.24
  -2   4  -9 2387.55  106.01
  -2   4  -9 2426.90  104.82
  -2   4  -9 2417.19  104.56
  -2   4  -9 2510.17  110.13
   2  -4   9 2439.05  104.92
   2  -4   9 2554.51  110.40
  -4   2   9 2498.52  104.18
  -4   2   9 2401.70  104.18
   0   3  -9    7.74    5.18
   0   3  -9    7.57    3.61
   3  -3  -9    4.66    3.30
   0   3  -9    5.68    3.33
  -3   3   9    7.99    2.74
   0  -3   9   11.09    4.21
   0  -3   9   11.30    4.26
   0  -3   9    7.34    3.60
   3   0  -9   10.20    3.38
  -3   3  -9   10.38    3.46
   3   0  -9    3.87    3.50
  -3   3  -9    9.64    5.06
  -3   3  -9   10.38    3.51
  -3   3  -9    9.73    4.36
  -3   0   9   13.87    4.38
  -3   0   9    9.86    4.32
   3  -3   9    6.46    4.33
   3  -3   9    7.38    3.53
  -3   6  -9    4.31    5.02
  -3   6  -9   18.89    8.49
   6  -3  -9   15.68    5.61
  -3   6  -9   17.32    6.82
  -3   6  -9   11.96    5.61
  -6   3   9    7.09    4.12
   3  -6   9   18.68    5.93
   3  -6   9   17.40    6.75
  -6   3   9   15.15    5.80
  -6   3   9   18.88    6.01
  -1   5  -9  122.08   10.66
  -1   5  -9  112.37   13.85
   5  -4  -9  117.10   10.74
  -1   5  -9  119.02   11.57
  -1   5  -9  115.07   10.44
   1  -5   9  125.14   11.98
  -5   4   9  117.82   10.96
   1  -5   9  124.51   10.32
  -5   4   9  119.87   11.16
   2  -4  -9 2132.35   90.18
  -4   2  -9 2092.85   90.72
   2   2  -9 2158.27   89.77
  -4   2  -9 2131.00   95.45
  -4   2  -9 2076.68   91.54
  -2   4   9 2068.68   89.84
   4  -2   9 2098.62   93.98
   5  -1  -9  109.31    9.60
  -4   5  -9   87.66   11.22
  -4   5  -9  103.56   10.46
  -4   5  -9   95.37    9.85
  -4   5  -9  111.88   14.46
  -5   1   9  100.54    9.54
  -5   1   9  112.13    8.98
   4  -5   9   98.94   13.29
   4  -5   9  103.29   10.80
  -5   1   9  121.70    9.88
  -4   8  -9  646.33   38.40
  -4   8  -9  716.58   41.79
   4  -8   9  655.16   44.11
  -8   4   9  715.92   37.95
   4  -8   9  690.37   38.32
  -8   4   9  688.15   37.17
  -8   4   9  686.09   37.07
  -2   7  -9    7.50    6.40
  -2   7  -9   13.60    7.81
  -2   7  -9    8.20    5.64
   7  -5  -9   11.96    6.27
  -2   7  -9    5.99    5.97
  -7   5   9   -0.91    4.93
   2  -7   9    9.52    5.13
   2  -7   9   -3.81    7.50
   1   4  -9   14.43    3.67
   4  -5  -9   17.73    5.49
   1   4  -9   19.69    6.62
  -4   5   9    9.15    3.92
  -4   5   9    4.82    3.71
   5  -1   9    7.90    4.32
  -1  -4   9   11.20    5.78
  -5   4  -9   11.03    5.41
  -5   4  -9   16.42    4.41
  -5   4  -9    9.98    7.41
  -5   4  -9   12.43    5.44
   4   1  -9   20.24    5.71
  -1   5   9   10.34    4.01
   5  -4   9   19.73    7.44
   5  -4   9   20.17    5.99
  -5   7  -9   32.13    8.51
  -5   7  -9   17.98    6.32
  -5   7  -9   32.76    9.55
   7  -2  -9   36.82    8.27
  -7   2   9   25.07    7.42
   5  -7   9   24.22    7.50
   5  -7   9   45.43   10.91
  -3   9  -9   68.56   12.04
  -3   9  -9   80.34   15.17
  -9   6   9  108.28   13.95
  -9   6   9   56.69   11.07
   0   6  -9  784.37   39.04
   6  -6  -9  745.54   49.15
   0   6  -9  771.23   39.42
   0   6  -9  814.19   44.29
   0   6  -9  798.69   40.53
   6  -6  -9  800.00   41.51
   0  -6   9  813.55   41.79
  -6   6   9  709.61   40.52
  -6   6   9  788.91   41.10
   3  -6  -9  246.87   16.68
   3   3  -9  234.82   15.40
  -6   3  -9  245.84   15.97
   3   3  -9  240.12   15.79
   3  -6  -9  251.23   20.78
  -6   3  -9  224.44   16.97
  -3   6   9  258.24   16.70
   6  -3   9  258.88   16.70
   6  -3   9  249.57   15.49
  -3   6   9  225.33   16.48
   6  -3   9  216.85   19.83
  -6   6  -9  891.44   48.45
   6   0  -9  902.07   43.95
  -6   6  -9  866.15   44.91
  -6   6  -9  901.94   48.52
   6  -6   9  918.73   46.40
   6  -6   9  922.69   53.38
  -6   9  -9   17.12   10.56
  -9   3   9   14.70    8.33
   6  -9   9   22.73    8.93
  -1   8  -9   47.11   14.25
  -1   8  -9   69.95   11.36
  -1   8  -9   73.72   12.63
   1  -8   9   56.54   13.25
  -8   7   9   62.73   10.47
   5  -7  -9   14.78    6.68
   2   5  -9   26.74    6.86
  -5   7   9   22.23    7.07
   7  -2   9   31.59    8.97
  -5   7   9   25.70    7.15
  -7   5  -9    7.95    5.36
  -7   5  -9    1.14    5.69
   2  -7  -9    5.05    5.06
   5   2  -9    9.74    5.41
  -7   5  -9    8.26    5.77
   7  -5   9   10.53    6.81
   7  -5   9   21.98   11.22
  -2   7   9   20.79    7.08
  -2   7   9    8.67    4.87
  -7   8  -9   10.55    6.98
   8  -1  -9   29.67    9.43
  -7   8  -9   25.44   10.45
   7  -8   9   29.18    9.97
   1   7  -9  183.33   15.94
  -7   8   9  197.50   19.11
   4  -8  -9  607.87   34.10
   4  -8  -9  602.61   48.54
  -8   4  -9  605.72   33.34
   8  -4   9  591.16   41.84
  -4   8   9  618.96   34.03
   8  -4   9  609.74   34.38
  -8   7  -9  129.59   18.67
  -8   7  -9  118.06   15.66
  -1   8   9  112.80   13.86
   8  -7   9   87.70   14.38
  -6   9   9   27.90   10.15
  -9   6  -9   40.23   12.24
  -9   6  -9   21.87    9.18
  -3   9   9   18.93    9.79
   9  -6   9   25.02    9.63
  -3   9   9   21.04    9.02
  -1   0 -10  612.10   29.08
   0   1 -10  621.36   27.72
  -1   0 -10  500.59   28.81
   0   1 -10  636.49   29.62
   1  -1 -10  645.51   27.89
   0   1 -10  509.21   29.19
   1   0  10  604.90   28.53
  -1   1  10  615.96   27.60
   0  -1  10  622.54   29.38
  -1   1  10  613.74   29.00
   0  -1  10  579.37   30.19
  -1   1  10  639.47   27.61
   1   0  10  547.55   28.26
   1   0  10  575.59   27.01
   0  -1  10  668.14   28.45
  -1   3 -10  982.46   48.04
  -1   3 -10  981.97   44.16
  -1   3 -10  975.07   45.35
   3  -2 -10 1013.77   44.81
   1  -3  10  980.17   44.44
   1  -3  10  960.57   46.23
  -3   2  10  937.31   43.95
  -3   2  10  990.25   44.12
   1  -3  10  960.58   45.57
  -2   2 -10  553.58   29.54
  -2   2 -10  541.25   27.05
   2   0 -10  526.26   26.32
  -2   2 -10  534.37   25.56
   2   0 -10  575.07   26.61
  -2   0  10  558.36   28.21
  -2   0  10  534.86   26.38
   0   2  10  554.66   26.45
   2  -2  10  534.05   27.26
   2  -2  10  514.58   28.02
   2  -2  10  546.50   26.23
  -2   5 -10  298.40   18.59
  -2   5 -10  309.66   18.76
  -2   5 -10  289.35   22.55
  -2   5 -10  300.77   20.08
   5  -3 -10  297.66   19.02
  -5   3  10  280.81   18.14
  -5   3  10  303.08   18.46
   2  -5  10  309.41   18.96
   2  -5  10  324.15   21.67
  -5   3  10  313.76   18.46
   2  -3 -10  213.68   12.79
   1   2 -10  227.01   14.64
  -3   1 -10  198.05   12.82
   1   2 -10  201.29   12.49
  -3   1 -10  194.21   14.77
  -3   1 -10  201.28   11.56
   1   2 -10  177.46   14.29
   3  -1  10  190.99   13.67
   3  -1  10  223.08   12.07
  -1  -2  10  216.56   12.81
  -1  -2  10  216.18   13.76
  -2   3  10  216.38   13.84
   3  -1  10  211.94   13.08
   4  -1 -10   92.55    9.51
  -3   4 -10   87.14   11.93
  -3   4 -10   85.62    9.57
  -3   4 -10   80.09    8.06
  -3   4 -10   93.75    8.29
  -4   1  10   82.07    8.68
   3  -4  10   77.20   10.04
  -4   1  10   80.26    9.21
   3  -4  10   64.75    7.95
  -4   1  10   73.93    7.94
   7  -4 -10  494.04   29.44
  -3   7 -10  470.06   32.31
  -3   7 -10  476.89   35.36
  -3   7 -10  483.49   28.87
  -3   7 -10  513.47   31.87
   3  -7  10  464.21   28.49
  -7   4  10  525.32   29.25
  -7   4  10  494.78   28.68
  -7   4  10  493.05   28.12
   3  -7  10  507.18   33.41
   4  -4 -10  300.14   19.00
   0   4 -10  328.84   22.09
   0   4 -10  337.69   19.78
   0   4 -10  330.52   18.61
   0  -4  10  321.23   18.24
   0  -4  10  326.15   19.92
   0  -4  10  329.02   20.47
  -4   4  10  278.15   18.24
  -4   4  10  326.68   19.30
   3   1 -10  954.69   41.53
  -4   3 -10  869.71   40.25
   1  -4 -10  873.61   39.86
  -4   3 -10  882.06   42.64
  -4   3 -10  891.55   47.30
   3   1 -10 1005.46   45.22
  -4   3 -10  881.17   41.34
   3   1 -10  858.65   42.16
   4  -3  10  888.86   45.64
  -3  -1  10  767.61   40.97
  -1   4  10  850.07   39.42
   4  -3  10  873.91   41.47
  -4   6 -10  147.96   13.31
   6  -2 -10  143.54   12.82
  -4   6 -10  149.62   17.74
  -4   6 -10  151.06   13.61
  -4   6 -10  157.65   15.28
  -6   2  10  144.55   12.80
  -6   2  10  135.60   11.48
   4  -6  10  162.96   17.59
  -6   2  10  152.80   13.90
   4  -6  10  151.73   13.57
  -4   9 -10   94.66   13.68
  -4   9 -10  135.79   19.01
  -9   5  10  107.94   15.93
   4  -9  10  101.19   14.32
  -9   5  10  113.46   16.03
   6  -5 -10   10.41    6.14
  -1   6 -10   14.23    6.23
  -1   6 -10   17.79    8.27
  -1   6 -10   15.40    5.45
  -1   6 -10   16.64    6.24
   1  -6  10   19.26    5.93
  -6   5  10   23.00    5.88
   1  -6  10   17.32    8.42
  -6   5  10   18.25    6.41
  -5   2 -10  139.99   10.29
   2   3 -10  142.15   13.53
  -5   2 -10  137.70   11.16
   3  -5 -10  144.07   11.60
   2   3 -10  127.65   10.45
  -3   5  10  138.69   11.39
  -3   5  10  132.73   11.30
   5  -2  10  144.71   14.27
   5  -2  10  139.83   10.69
  -5   5 -10  191.97   16.68
  -5   5 -10  205.90   20.80
  -5   5 -10  184.55   14.21
   5   0 -10  206.02   14.59
   5   0 -10  196.26   14.76
  -5   5 -10  196.76   15.36
   5  -5  10  215.50   15.83
   5  -5  10  211.98   19.70
  -5   8 -10   20.10    7.30
   8  -3 -10   17.45   10.63
  -5   8 -10   10.77    8.09
   5  -8  10   15.45    6.52
  -8   3  10    1.21    6.39
  -2   8 -10   49.42   13.96
  -2   8 -10   55.72   10.90
  -2   8 -10   48.48    9.87
   2  -8  10   61.45   15.37
  -8   6  10   43.74   10.12
  -8   6  10   40.90   10.15
   1   5 -10  807.93   39.93
   1   5 -10  821.24   43.98
   5  -6 -10  785.94   41.70
  -5   6  10  831.46   42.28
  -5   6  10  833.11   41.97
   4   2 -10  144.35   13.76
  -6   4 -10  133.43   12.23
   2  -6 -10  109.53   10.42
   4   2 -10  108.01   12.59
  -6   4 -10  125.26   10.34
  -6   4 -10  138.58   13.56
   2  -6 -10  133.27   17.25
   6  -4  10  132.33   18.82
  -2   6  10  133.15   10.89
  -2   6  10  136.78   11.73
   6  -4  10  143.99   12.68
  -6   7 -10  564.36   35.91
  -6   7 -10  554.59   33.56
   7  -1 -10  582.59   32.43
  -6   7 -10  614.19   34.69
   6  -7  10  576.96   33.97
   0   7 -10    8.91    6.86
   0   7 -10   23.12   10.07
  -7   7  10   16.79    7.52
   0  -7  10   14.04   10.56
  -7   3 -10    3.09    5.18
   4  -7 -10   -0.19    8.63
   3   4 -10    2.79    5.16
   4  -7 -10    6.65    5.62
  -4   7  10    7.77    5.08
   7  -3  10    3.67    5.11
  -4   7  10    5.39    5.93
   7  -3  10   -7.24    9.12
  -7   6 -10    6.75    6.37
   6   1 -10    9.39    6.80
   6   1 -10    4.83    7.88
   6   1 -10    0.51    5.67
  -7   6 -10   14.54    6.78
   7  -6  10    9.75    6.45
  -1   7  10    9.70    5.66
   2   6 -10   33.32    8.24
   8  -2  10   19.59   13.56
  -6   8  10    9.79    7.00
   3  -8 -10  798.97   46.52
  -8   5 -10  775.05   43.48
  -8   5 -10  767.88   41.62
   3  -8 -10  733.24   42.68
   5   3 -10  768.65   41.27
   8  -5  10  803.35   42.33
  -3   8  10  747.38   40.50
  -3   8  10  769.33   50.32
  -8   8 -10   34.80   10.31
  -8   8 -10   26.11   11.17
   8  -8  10   18.76    9.09
  -9   4 -10    7.11    8.98
   9  -4  10    9.56    8.90
  -5   9  10    2.11    8.19
  -1   1 -11  382.16   21.33
  -1   1 -11  377.71   18.39
   0  -1 -11  375.59   18.10
   0  -1 -11  352.24   20.24
   1   0 -11  368.57   19.15
   1   0 -11  418.23   22.05
   1  -1  11  374.54   20.21
  -1   0  11  366.83   19.39
   1  -1  11  398.52   19.28
   0   1  11  395.65   20.70
   1  -1  11  365.03   20.06
  -1   0  11  305.98   20.55
   0   1  11  374.99   18.08
   2  -2 -11 1617.99   72.67
   0   2 -11 1740.73   74.25
   0   2 -11 1672.87   72.44
  -2   0 -11 1653.68   73.63
  -2   0 -11 1684.94   73.47
   0   2 -11 1730.59   76.29
   0  -2  11 1679.93   75.05
   0  -2  11 1765.95   74.51
  -2   2  11 1638.34   74.22
   2   0  11 1724.31   72.82
   2   0  11 1681.87   72.63
   0  -2  11 1736.78   73.13
  -2   2  11 1677.85   72.41
  -2   3 -11   64.46    6.67
   3  -1 -11   54.36    6.84
   3  -1 -11   63.60    7.11
  -2   3 -11   58.92    6.59
  -2   3 -11   52.15    7.24
  -2   3 -11   65.86   10.15
   2  -3  11   60.78    7.62
   2  -3  11   63.45    9.49
  -3   1  11   62.06    8.92
  -3   1  11   64.67    7.71
   2  -3  11   66.68    7.12
  -3   1  11   61.40    7.61
  -1   4 -11  871.23   41.57
   4  -3 -11  892.62   42.30
  -1   4 -11  914.59   46.64
  -1   4 -11  847.99   42.70
   1  -4  11  892.86   44.30
  -4   3  11  898.97   41.86
   1  -4  11  877.53   41.73
  -4   3  11  898.73   41.64
   1  -4  11  864.75   43.22
   2   1 -11  681.79   42.10
  -3   2 -11  765.14   37.28
   2   1 -11  808.73   37.93
  -3   2 -11  803.12   35.47
  -3   2 -11  787.42   40.83
  -3   2 -11  806.76   36.39
   1  -3 -11  828.10   35.86
  -2  -1  11  688.98   37.22
   3  -2  11  792.16   39.34
  -1   3  11  817.54   35.42
  -2  -1  11  866.86   36.96
   3  -2  11  769.06   37.74
  -3   5 -11   78.49    8.85
   5  -2 -11   86.62    9.23
  -3   5 -11   74.76   13.37
  -3   5 -11   77.62    8.80
  -3   5 -11   76.04   10.11
  -5   2  11   90.03   10.21
  -5   2  11   80.40    8.26
   3  -5  11   78.65    9.16
  -5   2  11   77.66    8.81
   3  -5  11   76.79   12.50
  -2   6 -11  484.65   33.19
  -2   6 -11  502.62   27.25
  -2   6 -11  446.75   26.68
  -2   6 -11  462.71   28.68
   6  -4 -11  479.53   27.77
  -6   4  11  486.88   26.68
  -6   4  11  487.37   27.18
   2  -6  11  464.94   29.75
  -6   4  11  430.12   26.42
   2  -6  11  459.04   26.69
   1   3 -11   10.73    6.08
  -4   1 -11    3.44    4.32
   3  -4 -11    9.49    3.92
   1   3 -11   11.68    4.72
   1   3 -11    5.07    4.95
  -1  -3  11    6.35    4.99
   4  -1  11    4.82    4.34
  -3   4  11    3.09    3.09
  -1  -3  11    6.47    4.33
  -1  -3  11    4.44    3.10
  -4   4 -11  912.62   42.18
   4   0 -11  948.51   42.73
  -4   4 -11  895.61   42.79
  -4   4 -11  890.41   44.32
  -4   4 -11  871.60   48.92
   4  -4  11  913.92   43.17
  -4   0  11  911.73   44.21
   4  -4  11  854.71   46.75
  -4   0  11  793.15   40.70
   7  -3 -11   30.99    8.95
  -4   7 -11   21.38    7.56
  -4   7 -11   27.19    8.28
  -4   7 -11   20.42    7.63
  -4   7 -11   26.55   11.01
   4  -7  11   34.08    8.94
  -7   3  11   33.53    7.56
  -7   3  11   30.21    8.05
   4  -7  11   29.25   10.57
  -3   8 -11  823.68   45.13
  -3   8 -11  777.86   50.04
  -3   8 -11  750.89   41.95
   3  -8  11  792.45   41.32
  -8   5  11  727.40   41.54
   3  -8  11  792.01   47.14
  -8   5  11  740.06   40.78
  -8   5  11  749.61   41.86
   0   5 -11  350.46   20.99
   0   5 -11  340.68   24.58
   5  -5 -11  366.13   22.39
   0   5 -11  362.80   22.12
   0  -5  11  349.96   20.23
   0  -5  11  339.88   22.77
  -5   5  11  350.30   21.95
  -5   5  11  346.29   22.04
   3   2 -11  392.80   22.46
   2  -5 -11  416.84   27.69
  -5   3 -11  406.57   28.28
  -5   3 -11  423.71   24.07
   3   2 -11  398.42   24.89
  -5   3 -11  405.16   22.37
   3   2 -11  401.24   22.83
  -2   5  11  381.14   21.96
   5  -3  11  412.38   22.89
  -2   5  11  411.56   21.85
   5  -3  11  393.99   26.96
  -5   6 -11  719.86   40.32
  -5   6 -11  694.60   38.12
   6  -1 -11  711.86   37.02
  -5   6 -11  746.89   47.26
  -5   6 -11  674.27   37.19
   5  -6  11  739.51   50.69
   5  -6  11  708.57   38.64
  -6   1  11  729.17   36.40
  -5   9 -11   35.85   12.23
  -5   9 -11    4.68   10.18
  -9   4  11   -4.47    8.58
   5  -9  11   -9.00    7.73
  -1   7 -11   84.82   13.13
  -1   7 -11   67.15   11.83
  -1   7 -11   57.15    9.52
  -1   7 -11   56.29   13.27
  -7   6  11   76.68   11.55
   1  -7  11   49.61   12.43
  -7   6  11   55.17    9.82
   2   4 -11  472.86   26.24
   4  -6 -11  491.83   28.16
   2   4 -11  551.39   30.81
   6  -2  11  482.22   30.50
   6  -2  11  503.05   26.40
  -4   6  11  503.79   28.01
  -4   6  11  481.50   28.19
  -6   5 -11   17.82    5.76
   5   1 -11   19.36    6.33
  -6   5 -11   14.41    5.97
  -6   5 -11   18.32    8.16
   5   1 -11   16.73    8.03
   5   1 -11   17.81    6.44
   6  -5  11   10.09    6.12
   6  -5  11   29.63    9.71
  -1   6  11   27.46    6.42
  -6   8 -11  255.58   21.48
  -6   8 -11  261.59   24.56
  -8   2  11  270.19   19.23
   6  -8  11  242.86   20.12
   1   6 -11  632.91   34.35
   1   6 -11  649.88   39.17
   6  -7 -11  721.06   67.21
   1   6 -11  639.42   37.71
  -6   7  11  634.78   36.34
  -7   4 -11  604.58   35.40
   3  -7 -11  614.25   33.11
  -7   4 -11  643.10   34.12
   4   3 -11  651.17   33.16
   4   3 -11  598.70   34.70
   3  -7 -11  636.16   39.28
  -3   7  11  630.00   33.42
   7  -4  11  618.02   34.45
  -3   7  11  662.77   36.74
   7  -4  11  659.80   42.14
   7   0 -11   99.42   14.31
  -7   7 -11  138.80   17.09
  -7   7 -11  119.56   15.29
   7  -7  11  109.51   14.02
   0   8 -11  177.31   17.40
  -8   8  11  166.50   18.97
   5  -8 -11  111.29   20.68
   3   5 -11   86.21   16.97
   8  -3  11   97.62   12.63
  -5   8  11  104.24   13.26
   8  -3  11  148.01   22.91
  -8   6 -11  218.00   20.03
  -8   6 -11  218.44   21.95
  -8   6 -11  230.44   18.20
  -2   8  11  220.17   18.25
   8  -6  11  242.68   20.10
   4  -9 -11  265.83   30.60
  -9   5 -11  276.01   24.75
  -9   5 -11  259.92   21.09
   9  -5  11  215.20   20.97
  -4   9  11  328.28   22.09
   0   0 -12  575.66   27.78
   0   0 -12  598.63   30.09
   0   0  12  629.77   28.61
   0   0  12  601.63   30.06
  -1   2 -12  184.59   12.87
   2  -1 -12  181.61   11.87
  -1  -1 -12  159.39   12.11
   2  -1 -12  190.70   12.01
  -1   2 -12  176.40   11.31
   1  -2  12  186.31   13.25
   1  -2  12  194.40   13.40
  -2   1  12  185.31   13.07
   1   1  12  190.77   12.73
   1   1 -12  666.45   34.91
  -2   1 -12  662.79   32.15
   1  -2 -12  677.23   30.91
   1   1 -12  668.32   31.96
   1   1 -12  670.77   33.87
  -2   1 -12  677.75   34.22
  -2   1 -12  664.70   30.15
  -1   2  12  666.13   30.55
   2  -1  12  673.91   32.49
  -1   2  12  643.82   30.56
  -1   2  12  652.44   32.51
   2  -1  12  622.06   32.33
   2  -1  12  713.99   31.32
  -1  -1  12  674.35   31.93
  -2   4 -12  476.78   27.04
  -2   4 -12  502.11   30.79
  -2   4 -12  446.82   25.13
  -2   4 -12  498.36   26.05
   4  -2 -12  494.96   26.09
  -4   2  12  496.74   25.48
   2  -4  12  477.01   25.97
  -4   2  12  515.25   25.89
   2  -4  12  498.36   28.40
   2  -4  12  432.66   35.18
   0   3 -12  158.08   12.51
   0   3 -12  175.16   14.73
   0  -3  12  165.10   11.63
   0  -3  12  156.05   12.54
  -3   3  12  147.33   11.06
  -3   3  12  151.86   10.96
   0  -3  12  161.10   13.31
  -3   3 -12  266.22   15.58
   3   0 -12  299.14   16.87
  -3   3 -12  268.73   17.37
  -3   3 -12  275.99   16.20
   3   0 -12  271.71   16.62
  -3   3 -12  295.58   20.83
  -3   0  12  262.82   18.40
   3  -3  12  272.59   17.97
  -3   0  12  229.01   15.54
   3  -3  12  276.48   20.93
   3  -3  12  257.43   16.33
  -3   6 -12  102.06   11.05
  -3   6 -12  101.29   12.67
   6  -3 -12  106.82   11.97
  -3   6 -12   94.93   16.17
  -3   6 -12   90.03   12.28
  -6   3  12   90.32   10.52
   3  -6  12  107.14   14.24
  -6   3  12   81.19   10.81
   3  -6  12   97.48   11.12
  -6   3  12   92.55   10.68
  -1   5 -12  910.61   44.34
   5  -4 -12  891.65   45.32
  -1   5 -12  921.09   49.94
  -1   5 -12  876.99   45.57
  -1   5 -12  923.37   44.58
   1  -5  12  948.44   44.47
   1  -5  12  910.83   46.28
  -5   4  12  935.93   44.95
   1  -5  12  934.40   47.00
  -5   4  12  877.73   44.62
  -5   4  12  954.78   44.48
   2   2 -12  609.25   32.46
   2  -4 -12  559.94   28.26
  -4   2 -12  590.24   27.98
   2   2 -12  582.08   30.21
  -4   2 -12  548.95   32.86
  -4   2 -12  553.82   29.04
   2   2 -12  519.05   30.88
  -2   4  12  566.16   28.03
  -2  -2  12  578.24   28.16
   4  -2  12  560.32   29.58
  -2  -2  12  594.70   29.88
   4  -2  12  568.60   28.22
   4  -2  12  555.48   31.38
  -4   5 -12  621.76   33.43
   5  -1 -12  689.37   34.32
  -4   5 -12  645.31   35.94
  -4   5 -12  667.95   34.62
  -4   5 -12  651.21   40.80
  -5   1  12  645.02   32.92
   4  -5  12  651.12   34.71
  -5   1  12  636.15   34.34
   4  -5  12  643.45   38.36
  -5   1  12  680.06   33.29
  -4   8 -12  248.17   20.33
  -4   8 -12  196.34   25.46
  -4   8 -12  260.80   23.92
  -8   4  12  248.31   20.07
   4  -8  12  275.06   21.03
  -8   4  12  241.88   20.14
  -8   4  12  280.27   21.13
  -2   7 -12  150.77   19.79
   7  -5 -12  173.48   17.93
  -2   7 -12  137.20   14.36
  -2   7 -12  151.81   15.31
  -2   7 -12  166.58   16.19
  -7   5  12  179.24   14.93
  -7   5  12  170.03   16.00
   2  -7  12  168.33   17.81
  -7   5  12  181.21   16.04
   2  -7  12  151.74   14.44
   1   4 -12    9.05    6.25
   4  -5 -12    6.90    4.72
   1   4 -12   10.80    5.31
   1   4 -12   11.83    4.90
  -1  -4  12   11.21    6.12
  -1  -4  12   12.94    4.25
   5  -1  12   11.16    4.92
  -4   5  12   10.40    5.68
  -1  -4  12    8.39    4.84
  -4   5  12    9.07    4.31
   4   1 -12    9.34    4.98
   4   1 -12   15.20    5.96
  -5   4 -12   14.45    4.29
  -5   4 -12   16.97    5.76
  -5   4 -12   18.57    5.98
  -5   4 -12   20.41    8.53
   4   1 -12   16.34    7.44
   5  -4  12   19.72    8.53
   5  -4  12   13.37    5.79
   7  -2 -12  319.60   22.42
  -5   7 -12  317.93   29.65
  -5   7 -12  331.36   22.95
  -5   7 -12  334.79   23.08
  -5   7 -12  310.47   24.68
   5  -7  12  322.10   23.03
  -7   2  12  320.68   22.89
   5  -7  12  326.81   28.54
  -3   9 -12  403.09   31.86
  -3   9 -12  353.34   35.17
  -3   9 -12  377.69   26.72
  -9   6  12  345.87   26.27
  -9   6  12  368.67   26.87
   3  -9  12  372.82   26.87
   0   6 -12  273.38   23.41
   0   6 -12  236.39   18.65
   6  -6 -12  248.81   19.38
   0   6 -12  257.42   18.56
   0  -6  12  255.44   22.01
  -6   6  12  266.20   19.31
  -6   6  12  275.34   19.91
  -6   3 -12 1046.33   49.70
   3   3 -12  924.13   51.92
   3   3 -12 1098.86   50.20
   3  -6 -12 1072.17   50.49
   3  -6 -12 1087.93   56.80
  -6   3 -12 1102.38   51.59
   6  -3  12 1087.94   55.78
  -3   6  12 1055.76   50.18
  -3   6  12 1063.58   50.98
   6  -3  12 1062.87   50.60
   6   0 -12  309.83   20.39
  -6   6 -12  292.13   23.01
   6   0 -12  278.60   20.55
  -6   6 -12  293.91   21.63
   6  -6  12  288.63   21.62
   6  -6  12  297.91   26.11
  -6   9 -12  244.50   21.81
  -6   9 -12  255.34   26.59
  -9   3  12  187.84   20.71
   6  -9  12  224.52   27.41
  -1   8 -12   55.70   14.82
  -1   8 -12   48.33   10.40
  -1   8 -12   67.40   12.12
  -8   7  12   56.43   11.88
   1  -8  12   55.83   15.66
  -8   7  12   60.46   10.93
   5  -7 -12   11.79    6.68
   2   5 -12   12.64    6.06
   5  -7 -12   39.66   13.96
   7  -2  12    8.40    8.18
  -5   7  12    5.35    6.69
  -5   7  12    4.02    5.13
   5   2 -12    9.12    6.57
   5   2 -12   21.26    8.16
  -7   5 -12   22.54    6.65
  -7   5 -12   24.28    8.28
   5   2 -12   25.45    8.38
  -7   5 -12   26.13    8.89
   7  -5  12   26.12    8.06
   7  -5  12   20.08   12.39
  -2   7  12   15.09    6.80
  -7   8 -12  125.23   15.72
   7  -8  12  140.96   16.44
   1   7 -12  620.48   34.63
  -7   8  12  605.35   37.23
  -8   4 -12  174.47   17.01
   4  -8 -12  208.18   27.20
   4  -8 -12  195.59   17.37
  -4   8  12  174.93   16.22
   8  -4  12  157.14   16.40
   8  -4  12  198.76   26.30
  -8   7 -12  595.19   39.18
  -8   7 -12  591.45   36.07
  -1   8  12  548.27   33.25
   8  -7  12  569.73   35.48
  -6   9  12   25.91    9.87
   9  -3  12   27.61    9.32
  -9   6 -12    7.24   11.87
  -9   6 -12    9.17    8.94
  -3   9  12   -4.03    8.29
   9  -6  12    5.73   10.67
   0   1 -13   39.48    7.17
   1  -1 -13   41.34    5.70
   1  -1 -13   41.59    5.52
  -1   0 -13   52.12    7.91
   0   1 -13   45.66    6.34
   0   1 -13   31.36    6.76
  -1   0 -13   51.52    7.88
   0  -1  13   34.59    6.25
   1   0  13   35.86    5.90
   1   0  13   51.61    6.31
  -1   1  13   44.70    6.59
   0  -1  13   37.45    6.04
  -1   1  13   45.45    6.92
   1   0  13   22.13    5.83
   0  -1  13   41.71    6.53
  -1   3 -13   85.41   11.16
  -1   3 -13   81.55    8.38
   1  -3  13   72.99    9.02
  -3   2  13   79.40    8.06
  -3   2  13   79.13    7.54
   1  -3  13   76.26    9.80
   1  -3  13   74.40    8.18
  -2   2 -13  785.13   36.90
   0  -2 -13  914.95   39.02
  -2   2 -13  785.30   41.55
  -2   2 -13  781.57   38.79
   2   0 -13  791.64   37.98
   2   0 -13  789.75   38.18
   2  -2  13  828.98   39.65
   2  -2  13  865.61   38.40
   2  -2  13  781.43   39.74
   0   2  13  804.35   36.10
   0   2  13  805.54   38.47
  -2   0  13  824.60   38.34
  -2   5 -13    5.26    7.40
  -2   5 -13   11.32    4.64
  -2   5 -13    4.06    3.94
  -2   5 -13    1.65    4.65
   5  -3 -13    6.77    4.72
   2  -5  13   10.84    6.65
   2  -5  13    6.09    4.79
  -5   3  13   17.95    5.88
  -5   3  13    6.51    4.57
   2  -3 -13  289.67   17.36
  -3   1 -13  304.82   16.21
  -3   1 -13  299.74   22.17
   1   2 -13  315.19   17.66
   1   2 -13  250.69   19.50
  -3   1 -13  314.45   18.02
   3  -1  13  300.59   18.69
  -1  -2  13  330.44   19.58
   3  -1  13  334.50   18.63
  -2   3  13  323.97   17.23
  -1  -2  13  326.36   18.18
   3  -1  13  329.72   17.18
  -3   4 -13  513.21   26.19
  -3   4 -13  500.69   32.09
  -3   4 -13  487.60   26.27
   4  -1 -13  461.56   26.13
  -3   4 -13  477.64   27.73
   4  -1 -13  517.41   26.77
  -4   1  13  475.97   25.65
  -4   1  13  493.41   27.31
   3  -4  13  476.33   29.36
  -4   1  13  519.19   27.17
   3  -4  13  489.34   26.78
   3  -4  13  471.53   28.13
   7  -4 -13   74.58   12.01
  -3   7 -13   74.16   11.43
  -3   7 -13   75.74   11.23
  -3   7 -13   96.38   14.00
  -3   7 -13   93.12   17.02
   3  -7  13   76.94   14.14
  -7   4  13   89.91   12.70
   3  -7  13   77.48   12.02
   4  -4 -13  659.23   33.55
   0   4 -13  623.18   37.04
   0   4 -13  631.20   33.77
   0   4 -13  638.16   32.40
   0  -4  13  667.97   35.51
  -4   4  13  622.64   32.72
   0  -4  13  672.75   32.73
  -4   3 -13  156.42   11.66
  -4   3 -13  145.31   12.60
   3   1 -13  173.07   13.21
   3   1 -13  124.67   14.59
   3   1 -13  145.76   12.06
  -4   3 -13  137.60   15.38
  -4   3 -13  154.69   10.84
  -3  -1  13  148.77   13.13
   4  -3  13  158.37   11.96
  -3  -1  13  168.73   11.93
   4  -3  13  166.01   15.05
  -4   6 -13  435.32   29.18
  -4   6 -13  454.18   27.76
  -4   6 -13  499.17   35.28
  -4   6 -13  447.15   26.89
   6  -2 -13  492.19   27.94
  -6   2  13  478.63   26.64
   4  -6  13  464.83   28.04
  -6   2  13  451.79   27.98
   4  -6  13  482.19   32.00
  -6   2  13  463.44   25.86
  -6   2  13  466.73   27.58
  -4   9 -13   50.13   13.24
   4  -9  13   24.21   10.39
  -9   5  13   17.59   13.20
  -1   6 -13  291.20   20.98
   6  -5 -13  278.14   20.50
  -1   6 -13  286.58   25.13
  -1   6 -13  295.79   23.32
  -1   6 -13  300.65   19.82
  -6   5  13  287.67   20.80
  -6   5  13  275.89   24.89
   1  -6  13  304.44   19.62
   1  -6  13  289.39   22.14
   2   3 -13  108.84   13.53
  -5   2 -13  121.72   14.92
   2   3 -13  137.10   10.81
  -5   2 -13  106.39   10.64
   2   3 -13  131.97   13.22
   3  -5 -13  136.89   11.26
   5  -2  13  110.50   10.11
  -2  -3  13  130.30   12.18
   5  -2  13  117.92   12.83
  -3   5  13  118.41   10.59
  -5   5 -13   10.01    5.23
  -5   5 -13    5.30    7.58
   5   0 -13    6.33    4.38
   5   0 -13    1.46    5.15
  -5   5 -13   -3.35    3.96
  -5   5 -13   -0.73    5.03
   5  -5  13    8.27    7.18
   5  -5  13    0.49    4.75
  -5   0  13    4.97    6.19
  -5   8 -13  478.83   33.20
  -5   8 -13  443.04   30.03
  -5   8 -13  433.00   38.60
   5  -8  13  451.70   29.82
  -8   3  13  463.84   29.15
  -2   8 -13  125.86   17.42
  -2   8 -13  117.69   20.05
  -2   8 -13  126.51   14.81
   2  -8  13  114.39   14.05
  -8   6  13   89.88   13.16
  -8   6  13  108.56   14.89
   1   5 -13   87.55   10.77
   1   5 -13  113.74   12.94
   1   5 -13  110.69   16.11
  -5   6  13  100.56   11.67
  -5   6  13  100.97   11.85
  -1  -5  13   84.90   12.29
   2  -6 -13  277.84   22.41
   4   2 -13  300.82   21.85
   4   2 -13  267.71   20.15
   2  -6 -13  291.94   18.05
   4   2 -13  292.77   19.07
  -6   4 -13  286.74   19.56
  -6   4 -13  293.26   21.00
  -2   6  13  261.59   18.42
   6  -4  13  331.61   25.15
  -2   6  13  299.63   17.75
   6  -4  13  295.40   19.76
   7  -1 -13   71.17   11.37
  -6   7 -13   95.95   15.13
  -6   7 -13  100.70   14.37
   6  -7  13   87.41   13.29
   0   7 -13   -9.88    8.82
   0   7 -13    0.83    7.64
   0   7 -13    1.27    6.70
  -7   7  13   -3.12    7.57
   0  -7  13    5.45   10.76
   4  -7 -13   68.47   13.35
  -7   3 -13   80.80   10.52
   3   4 -13   76.34   11.20
   3   4 -13   95.95   14.22
   4  -7 -13   54.59   13.73
  -4   7  13   74.75   11.15
  -4   7  13   69.91   11.25
   7  -3  13   88.11   13.84
   7  -3  13   83.50   10.89
  -7   6 -13  282.77   20.55
   6   1 -13  290.86   20.71
  -7   6 -13  331.86   24.63
   6   1 -13  244.60   24.48
  -7   6 -13  273.07   21.49
   7  -6  13  334.12   22.96
  -1   7  13  313.52   20.14
   2   6 -13   81.32   11.69
  -6   8  13   94.31   12.98
   8  -2  13   97.25   17.49
  -8   5 -13  137.51   16.84
  -8   5 -13  138.79   14.99
   5   3 -13  150.75   15.98
   8  -5  13  108.88   14.57
  -9   4 -13   70.91   11.53
   9  -4  13   55.31   11.84
  -5   9  13   72.23   12.88
   1   0 -14 1010.79   47.96
  -1   1 -14  997.72   60.24
   1   0 -14  983.57   49.75
   0  -1 -14 1184.83   50.70
  -1   1 -14 1094.39   49.92
  -1   1 -14 1072.38   47.60
   1   0 -14 1118.88   48.13
   0  -1 -14  976.13   46.77
   1   0 -14  867.94   50.71
   1  -1  14 1100.48   50.02
   1  -1  14 1091.62   49.88
  -1   0  14 1129.69   51.29
   0   1  14 1156.63   47.85
  -1   0  14 1139.15   48.65
   1  -1  14 1043.64   48.66
   0   2 -14 7058.15  292.10
   0   2 -14 6523.30  295.99
   0   2 -14 7437.57  294.94
  -2   0 -14 7116.91  294.15
   2  -2 -14 7402.03  292.93
  -2   2  14 7022.69  294.09
  -2   2  14 7254.08  292.09
   0  -2  14 6163.28  295.39
   0  -2  14 7713.06  293.50
   2   0  14 7177.50  292.85
  -2   2  14 7173.80  291.96
   2   0  14 7257.64  293.16
   0  -2  14 7388.26  294.89
   3  -1 -14 1297.36   53.90
   3  -1 -14  943.79   51.81
  -2   3 -14 1163.25   54.10
  -2   3 -14 1157.70   57.81
  -2   3 -14 1197.95   54.29
  -3   1  14 1172.72   54.24
  -3   1  14 1208.75   52.39
  -3   1  14 1085.88   53.87
   2  -3  14 1106.52   55.01
   2  -3  14 1186.90   54.91
   2  -3  14 1207.47   53.29
  -1   4 -14  184.39   14.52
  -1   4 -14  199.92   17.97
  -1   4 -14  182.41   13.05
   4  -3 -14  149.89   12.87
   1  -4  14  190.64   13.67
   1  -4  14  175.80   15.18
  -4   3  14  185.05   13.33
  -4   3  14  166.92   12.72
   1  -4  14  167.21   14.83
   2   1 -14  227.18   17.97
   2   1 -14  255.35   18.70
  -3   2 -14  227.74   13.45
   2   1 -14  221.27   16.18
   1  -3 -14  235.30   13.94
   2   1 -14  212.38   18.00
  -3   2 -14  243.41   18.85
  -3   2 -14  230.47   14.24
  -3   2 -14  237.99   15.63
  -2  -1  14  237.94   15.41
  -2  -1  14  242.99   16.60
   3  -2  14  242.59   14.92
   3  -2  14  251.53   16.48
  -1   3  14  242.12   13.85
   3  -2  14  238.52   16.86
   5  -2 -14  762.71   39.11
  -3   5 -14  774.28   39.03
  -3   5 -14  776.50   40.74
  -3   5 -14  753.52   38.45
  -3   5 -14  819.30   46.46
  -5   2  14  725.71   39.33
  -5   2  14  679.93   39.28
   3  -5  14  785.26   42.91
  -5   2  14  780.68   38.24
   3  -5  14  772.79   39.39
  -2   6 -14 2895.13  134.61
  -2   6 -14 2936.60  126.65
  -2   6 -14 2995.33  139.71
  -6   4  14 2783.34  126.18
  -6   4  14 2822.01  128.61
   2  -6  14 2901.30  129.79
  -6   4  14 2971.25  125.91
   2  -6  14 2930.56  126.59
   3  -4 -14 1421.01   63.63
   1   3 -14 1416.86   65.82
  -4   1 -14 1426.53   66.78
   1   3 -14 1345.27   67.27
   1   3 -14 1347.39   62.53
  -1  -3  14 1423.19   64.69
   4  -1  14 1375.77   62.84
  -3   4  14 1398.18   62.62
  -1  -3  14 1454.84   63.07
   4  -1  14 1390.37   64.10
   4   0 -14 5384.78  208.69
  -4   4 -14 4908.52  206.68
   4   0 -14 4559.54  207.01
  -4   4 -14 4987.58  207.84
  -4   4 -14 4857.33  215.82
  -4   4 -14 4969.00  209.87
   4  -4  14 5129.69  208.62
   4  -4  14 4972.71  212.77
   7  -3 -14  743.69   40.44
  -4   7 -14  736.07   48.79
  -4   7 -14  768.56   42.99
  -4   7 -14  751.79   40.63
  -7   3  14  729.68   38.73
  -7   3  14  723.56   39.16
  -7   3  14  689.55   40.13
   4  -7  14  765.09   45.82
   4  -7  14  735.07   40.73
  -3   8 -14   22.46    7.82
  -3   8 -14   10.19    8.75
  -3   8 -14   17.01   12.84
   3  -8  14   -1.78    7.09
  -8   5  14    2.98    8.50
  -8   5  14    8.28    8.24
   0   5 -14  532.86   30.04
   0   5 -14  576.22   31.92
   5  -5 -14  555.88   31.60
   0   5 -14  588.80   36.27
   0  -5  14  540.85   31.98
   0  -5  14  566.96   34.12
  -5   5  14  579.00   31.28
   0  -5  14  555.75   29.84
  -5   5  14  544.12   31.21
  -5   3 -14  516.52   29.21
   3   2 -14  480.19   29.23
  -5   3 -14  529.13   27.85
   3   2 -14  541.33   31.41
   2  -5 -14  522.73   27.34
  -5   3 -14  540.68   34.94
   5  -3  14  545.06   28.71
  -3  -2  14  564.66   27.64
  -2   5  14  531.26   27.15
   5  -3  14  503.82   32.07
  -3  -2  14  535.70   29.48
  -5   6 -14   38.09    8.79
  -5   6 -14   24.65    9.59
   6  -1 -14   39.11    7.92
  -5   6 -14   18.13    7.28
   5  -6  14   25.34    6.62
  -6   1  14   28.63    8.60
   5  -6  14   25.84   10.78
  -5   9 -14  391.64   33.69
  -5   9 -14  415.27   30.30
   5  -9  14  401.16   33.01
  -9   4  14  362.68   30.19
  -9   4  14  416.50   28.77
  -1   7 -14  589.06   34.45
  -1   7 -14  613.41   48.78
  -1   7 -14  590.14   35.97
  -7   6  14  635.08   35.74
  -7   6  14  572.60   34.37
   1  -7  14  677.47   34.17
   1  -7  14  604.90   38.94
   2   4 -14 2578.43  113.59
   4  -6 -14 2446.77  109.45
   2   4 -14 2387.19  107.55
  -4   6  14 2457.70  108.54
   6  -2  14 2580.94  112.16
  -4   6  14 2437.79  109.63
  -6   5 -14  637.77   50.41
   5   1 -14  643.44   34.28
  -6   5 -14  659.48   37.42
   5   1 -14  524.10   37.02
   5   1 -14  680.74   34.63
  -6   5 -14  668.34   35.32
  -6   5 -14  656.19   33.47
   6  -5  14  612.83   40.56
  -1   6  14  638.68   32.80
  -6   8 -14 1427.25   70.13
  -6   8 -14 1448.21   74.56
   6  -8  14 1280.59   68.47
   1   6 -14  123.40   13.86
   1   6 -14  113.55   18.11
   1   6 -14   97.01   12.78
  -6   7  14   90.84   12.36
   4   3 -14  185.62   15.85
   3  -7 -14  174.07   21.06
   3  -7 -14  201.15   16.02
  -7   4 -14  198.16   15.55
   4   3 -14  151.81   17.12
  -3   7  14  156.34   15.49
   7  -4  14  184.55   21.30
  -3   7  14  199.28   15.30
   7  -4  14  220.42   22.41
   7   0 -14  593.48   33.39
  -7   7 -14  568.63   34.61
  -7   7 -14  552.07   37.43
   7  -7  14  521.55   33.77
   3   5 -14  498.73   32.79
   3   5 -14  433.90   34.68
  -5   8  14  582.78   32.83
   8  -3  14  558.95   37.80
   8  -3  14  571.41   32.65
  -8   6 -14 1440.71   67.93
   6   2 -14 1161.62   64.88
  -8   6 -14 1209.47   60.41
   6   2 -14 1259.03   61.59
  -8   6 -14 1273.98   63.52
   8  -6  14 1334.28   64.91
  -9   5 -14  244.43   21.38
  -9   5 -14  235.61   23.86
   9  -5  14  231.03   20.55
  -4   9  14  198.13   19.50
   0   0 -15 7074.92  291.80
   0   0 -15 6912.91  288.58
   0   0  15 7202.39  291.86
  -1  -1 -15  101.49   10.63
   2  -1 -15  145.05   10.82
  -1   2 -15  141.14   10.00
  -1   2 -15  137.58   11.41
  -1   2 -15  161.70   14.25
  -1  -1 -15  103.55   10.28
   1   1  15  146.22   11.74
  -2   1  15  131.89   12.06
   1  -2  15  152.35   11.40
   1  -2  15  131.86   11.88
   1  -2  15  142.72   11.97
  -2   1  15  112.30   11.66
   1   1  15  130.75   10.67
   1  -2 -15   38.49    5.21
   1   1 -15   28.24    5.78
  -2   1 -15   31.13    5.84
   1   1 -15   39.35    6.76
  -2   1 -15   24.46    7.02
   1   1 -15   32.11    7.12
  -2   1 -15   23.09    4.98
  -1   2  15   33.37    5.41
   2  -1  15   34.31    8.94
   2  -1  15   29.81    6.55
  -1  -1  15   24.46    6.01
  -1   2  15   29.04    5.89
   2  -1  15   37.83    6.89
  -1  -1  15   31.08    6.11
  -2   4 -15 2758.49  120.30
   4  -2 -15 2635.54  113.65
  -2   4 -15 2604.97  114.68
  -2   4 -15 2513.05  112.11
   2  -4  15 2644.70  115.60
   2  -4  15 2683.06  113.62
  -4   2  15 2644.48  112.49
  -4   2  15 2510.99  114.11
   2  -4  15 2551.29  115.74
  -4   2  15 2668.57  113.47
   0   3 -15    0.79    4.01
   0   3 -15    3.80    3.30
   3  -3 -15    3.78    3.96
   0   3 -15    9.16    5.73
   0  -3  15    1.80    4.92
  -3   3  15    7.68    3.42
  -3   3  15   10.65    4.44
   0  -3  15   -2.26    4.03
   0  -3  15   11.72    4.96
   3   0  15    4.34    3.94
  -3   3 -15   20.07    7.52
   3   0 -15   14.41    5.33
  -3   3 -15   12.54    4.15
  -3   3 -15   13.60    4.51
  -3   3 -15    9.07    4.40
   3   0 -15    6.36    4.18
  -3   0  15   19.52    5.92
  -3   0  15    6.25    5.26
   3  -3  15   15.67    5.84
   3  -3  15   11.06    4.61
   3  -3  15   11.38    5.27
   0   3  15   16.34    4.28
  -3   6 -15  123.65   15.17
  -3   6 -15  151.97   17.27
  -3   6 -15  110.72   13.09
  -3   6 -15  109.82   18.22
   6  -3 -15   60.84   16.17
  -6   3  15  106.15   12.11
  -6   3  15  130.04   14.13
   3  -6  15   96.75   15.11
  -6   3  15  109.92   12.13
   3  -6  15  102.60   12.25
  -1   5 -15    3.88    4.14
  -1   5 -15    7.59    7.42
   5  -4 -15    2.56    5.31
  -1   5 -15    2.60    4.93
   1  -5  15   -1.04    5.73
   1  -5  15    3.77    4.99
  -5   4  15    5.58    4.28
  -5   4  15    6.06    3.92
   1  -5  15    9.50    6.36
   2   2 -15 2459.92  109.74
   2   2 -15 2609.68  113.56
   2  -4 -15 2585.41  109.31
   2   2 -15 2468.89  109.20
  -4   2 -15 2663.07  115.69
   2   2 -15 2657.44  111.97
  -4   2 -15 2489.24  109.91
  -4   2 -15 2572.40  108.27
   4  -2  15 2659.14  109.14
  -2  -2  15 2643.26  109.53
  -2   4  15 2449.26  108.00
  -2  -2  15 2390.32  110.65
   4  -2  15 2493.30  110.58
   4  -2  15 2532.74  112.23
  -4   5 -15    3.52    4.67
  -4   5 -15    3.54    4.99
  -4   5 -15    6.76    4.95
   5  -1 -15    4.54    4.85
  -4   5 -15    5.77    7.05
   4  -5  15   -6.17    6.00
  -5   1  15    9.25    5.60
  -5   1  15    4.56    5.94
   4  -5  15    3.72    5.55
  -4   8 -15  776.42   42.43
  -4   8 -15  779.68   44.98
  -4   8 -15  753.95   51.31
  -8   4  15  698.44   40.39
   4  -8  15  753.91   41.00
  -8   4  15  567.60   39.87
  -8   4  15  720.99   40.05
  -2   7 -15   39.09    9.53
  -2   7 -15   24.88    8.08
  -2   7 -15   25.60   11.28
   2  -7  15   23.30   11.46
  -7   5  15   37.03    9.13
  -7   5  15   42.84    9.24
   2  -7  15   22.43    8.45
   4  -5 -15   14.34    5.08
   1   4 -15   13.92    7.79
   1   4 -15   16.54    6.42
   1   4 -15   11.34    5.12
  -1  -4  15   16.03    5.86
  -4   5  15    0.75    4.55
  -1  -4  15    9.81    4.52
  -5   4 -15   60.62    7.73
  -5   4 -15   61.31   13.37
  -5   4 -15   55.58    9.84
   4   1 -15   59.95    8.33
   4   1 -15   42.45   11.76
  -5   4 -15   58.35    9.45
   4   1 -15   71.16    9.63
   5  -4  15   68.11   10.27
   5  -4  15   57.21   11.53
  -4  -1  15   72.88    9.09
   7  -2 -15    9.82    7.68
  -5   7 -15    8.39   11.41
  -5   7 -15   12.12    8.11
  -5   7 -15    7.99    7.12
   5  -7  15   14.00    7.16
  -7   2  15   11.74    7.10
  -7   2  15   25.25    7.37
  -7   2  15   10.89    8.99
  -7   2  15    7.21    7.12
   0   6 -15  812.31   43.59
   0   6 -15  842.50   50.75
   0   6 -15  888.87   47.03
   0  -6  15  876.11   43.15
  -6   6  15  880.62   45.45
  -6   6  15  870.38   44.65
   3   3 -15    5.86    6.66
  -6   3 -15   16.27    5.62
  -6   3 -15    0.99    4.94
   3  -6 -15   -1.65    5.25
   3   3 -15   -0.09    5.92
   3   3 -15   11.47    6.51
  -3   6  15    3.36    4.51
   6  -3  15    9.47    5.69
  -3   6  15   -4.33    4.65
   6  -3  15    5.78    7.92
  -6   6 -15  995.61   52.49
  -6   6 -15  971.76   50.17
  -6   6 -15  968.55   60.12
  -6   6 -15  906.97   47.91
   6  -6  15  988.51   50.57
  -1   8 -15   34.85   11.91
  -1   8 -15    8.20   15.04
  -1   8 -15   15.64    9.50
  -8   7  15   31.06   10.69
   2   5 -15    3.29    8.79
   5  -7 -15   14.27    8.17
   2   5 -15   13.14    7.14
   7  -2  15   -1.45    9.38
  -5   7  15   11.57    6.63
   5   2 -15    8.08    8.48
  -7   5 -15   21.96    8.21
   5   2 -15   20.28    8.17
   5   2 -15   14.20    7.78
  -7   5 -15   20.52    8.51
   7  -5  15   11.56    7.09
  -7   8 -15   37.40   13.98
  -7   8 -15   42.42   12.76
   7  -8  15   45.94   12.59
   1   7 -15    0.33    7.25
   1   7 -15    2.52   12.92
  -8   4 -15  635.52   35.77
   4  -8 -15  616.58   45.60
  -8   4 -15  699.17   38.42
   4   4 -15  637.77   43.63
   4   4 -15  680.68   40.41
   4  -8 -15  610.65   38.83
   4   4 -15  618.70   36.07
  -4   8  15  657.75   36.46
   8  -4  15  672.64   37.17
   7   1 -15   10.61   12.61
  -8   7 -15    2.35    8.15
   8  -7  15   14.83   15.10
   1  -1 -16   21.58    4.61
   1  -1 -16   34.85    7.43
  -1   0 -16   23.12    5.77
   0   1 -16   16.07    5.38
   0   1 -16   20.48    6.56
   1  -1 -16   13.50    3.90
   0   1 -16   27.87    7.06
   0  -1  16   14.92    5.22
   0  -1  16   21.94    5.76
   1   0  16   29.43    6.21
   1   0  16   19.82    5.76
  -1   1  16   18.84    5.97
   0  -1  16   18.29    5.81
   1   0  16   19.54    6.78
  -1   3 -16   13.75    4.45
  -1   3 -16    6.39    4.76
  -1   3 -16    6.81    5.54
   3  -2 -16   18.00    4.65
  -3   2  16   16.52    5.17
   1  -3  16   12.26    5.20
   1  -3  16   16.76    6.07
  -3   2  16   11.47    4.56
   2   1  16    6.74    4.51
  -3   2  16   21.00    5.74
   1  -3  16   13.74    6.01
   2   0 -16 4942.15  203.98
   2   0 -16 4886.74  208.37
  -2   2 -16 4665.12  202.33
  -2   2 -16 4727.33  205.09
  -2   2 -16 5003.73  209.21
  -2   0  16 4954.72  204.14
   0   2  16 4957.02  205.76
  -2   0  16 4933.52  207.54
   2  -2  16 4756.07  209.16
   2  -2  16 5008.36  206.26
   2  -2  16 5176.39  204.58
  -2   5 -16   60.11   13.34
  -2   5 -16   65.84   10.67
  -2   5 -16   60.48    9.70
  -2   5 -16   56.89    7.88
   5  -3 -16   53.39    9.38
  -5   3  16   71.54   10.39
  -5   3  16   56.69    8.92
   2  -5  16   80.51   10.80
   2  -5  16   69.11   11.27
   2  -5  16   55.01   10.15
   1   2 -16   38.10    8.72
  -3   1 -16   53.45    9.58
   1   2 -16   41.97    8.52
  -3   1 -16   45.58    7.27
   1   2 -16   50.09    7.09
   2  -3 -16   50.98    9.35
   3  -1  16   49.41    7.62
   3  -1  16   34.31    6.56
  -2   3  16   46.85    5.96
  -2   3  16   42.94    6.37
  -1  -2  16   38.18    8.08
   3  -1  16   48.48    6.81
  -1  -2  16   50.27    8.02
  -2   3  16   41.57    8.42
   4  -1 -16   55.96    9.50
  -3   4 -16   62.68   13.11
   4  -1 -16   39.09    7.20
  -3   4 -16   35.88    6.65
  -3   4 -16   45.32    7.39
  -3   4 -16   53.81    8.93
   3  -4  16   50.62    9.10
  -4   1  16   59.31    8.97
  -4   1  16   49.37    8.63
   3  -4  16   47.57    8.29
   3  -4  16   45.09    8.95
  -3   7 -16   13.93    7.12
  -3   7 -16   10.91    7.42
  -3   7 -16   25.33   10.48
  -7   4  16   17.54    8.74
  -7   4  16   15.02    7.63
   3  -7  16   19.69   10.95
   3  -7  16   18.13    7.32
  -7   4  16   28.31    8.38
   0   4 -16 3284.28  140.46
   0   4 -16 3175.12  135.40
   0   4 -16 2948.25  132.32
   4  -4 -16 3174.02  134.34
   0  -4  16 3227.22  135.82
   0  -4  16 3215.30  133.53
  -4   4  16 3148.93  132.99
   0  -4  16 2684.31  136.50
  -4   4  16 3149.80  133.16
  -4   3 -16   12.36    4.96
   3   1 -16    3.49    5.89
  -4   3 -16    8.47    7.22
   3   1 -16   11.54    4.81
   3   1 -16   13.72    5.27
  -4   3 -16    6.94    4.69
  -4   3 -16    6.28    4.02
   4  -3  16    8.80    6.23
  -3  -1  16    6.07    5.40
  -3  -1  16    9.36    5.52
   4  -3  16    3.58    5.31
   4  -3  16   12.35    4.64
  -4   6 -16 1602.65   73.01
  -4   6 -16 1548.30   75.63
  -4   6 -16 1578.68   82.90
  -4   6 -16 1643.34   73.96
  -6   2  16 1518.20   76.83
   4  -6  16 1447.96   77.25
  -6   2  16 1668.66   73.09
   4  -6  16 1575.14   74.03
  -6   2  16 1473.72   73.30
  -1   6 -16   10.07    6.05
   6  -5 -16   11.80    6.80
  -1   6 -16   20.88    7.69
  -1   6 -16   27.75    7.39
  -1   6 -16   18.75   10.57
  -6   5  16   26.98    7.20
  -6   5  16    6.79    7.26
  -6   5  16   21.33    7.19
   1  -6  16   19.31    8.44
   1  -6  16   19.42    6.15
   2   3 -16   53.90    9.19
  -5   2 -16   39.23    6.78
   3  -5 -16   49.53    8.71
  -5   2 -16   46.72    7.93
  -5   2 -16   51.72   10.64
   2   3 -16   45.38    7.83
   2   3 -16   29.22    9.92
  -3   5  16   40.92    7.01
  -2  -3  16   50.94    8.82
   5  -2  16   54.53    7.92
   5  -2  16   43.69    9.22
  -2  -3  16   47.75    8.36
   5   0 -16   92.40   12.13
  -5   5 -16   88.89   15.95
  -5   5 -16  106.07   10.79
  -5   5 -16  102.01   13.04
   5   0 -16  109.62   13.44
  -5   5 -16   92.55   11.95
  -5   0  16   60.16    9.90
   5  -5  16   72.37   20.27
   5  -5  16  104.27   11.98
  -5   8 -16   36.07   15.90
  -5   8 -16   46.24   12.45
  -5   8 -16   38.32    9.13
  -8   3  16   19.32    8.31
  -8   3  16   21.71    9.64
  -8   3  16   32.16   10.50
  -8   3  16   11.41   11.82
   5  -8  16   10.54    7.74
  -2   8 -16  758.61   42.20
  -2   8 -16  729.73   50.39
  -2   8 -16  718.11   43.77
   2  -8  16  732.48   40.35
  -8   6  16  717.20   42.05
  -8   6  16  716.57   40.73
   5  -6 -16   17.87    7.85
   1   5 -16   34.07    7.84
   1   5 -16   21.92    7.67
   1   5 -16   25.36   10.32
  -1  -5  16   16.81    6.36
  -5   6  16   20.41    6.81
  -5   6  16   11.89    7.16
  -1  -5  16   28.65    8.58
   4   2 -16 1557.22   77.23
  -6   4 -16 1703.12   87.43
   4   2 -16 1728.28   78.83
   4   2 -16 1716.03   81.48
  -6   4 -16 1780.34   78.22
  -6   4 -16 1699.40   80.25
   6  -4  16 1744.48   78.78
   6  -4  16 1707.98   83.93
  -6   7 -16   -1.39    6.59
  -6   7 -16   22.62    9.06
  -6   7 -16   11.89   12.03
  -7   1  16    9.22   10.92
   6  -7  16    0.82    6.62
   0   7 -16  178.81   19.80
   0   7 -16  172.03   23.78
   0   7 -16  138.62   15.53
  -7   7  16  142.04   16.45
  -7   7  16  160.91   16.51
   0  -7  16  166.87   23.48
   3   4 -16  121.80   14.68
  -7   3 -16  128.27   14.30
  -7   3 -16  129.94   12.79
   3   4 -16  152.02   18.81
   3   4 -16  131.69   14.37
   4  -7 -16  122.24   30.36
   4  -7 -16  162.70   15.70
   7  -3  16  140.60   19.13
   7  -3  16  132.88   12.94
  -4   7  16  120.70   12.62
   6   1 -16   39.97   12.96
   6   1 -16   31.49   16.00
  -7   6 -16   32.73   10.24
   6   1 -16   39.47    9.41
  -7   6 -16    9.53    8.87
  -7   6 -16   25.24    9.10
   7  -6  16   15.88    8.10
  -1   7  16   14.76    8.50
   2   6 -16  751.13   51.24
  -6   8  16  751.24   41.73
   8  -2  16  696.92   43.88
   5   3 -16   18.46    9.61
   3  -8 -16    9.65   13.78
  -8   5 -16   15.15    9.15
   3  -8 -16   10.28    8.53
  -8   5 -16   17.56    9.08
  -3   8  16   -3.29    7.38
   8  -5  16   16.01    7.91
   1   0 -17 1072.00   49.86
   1   0 -17 1064.28   45.62
   1   0 -17 1066.19   47.62
   1   0 -17 1028.36   48.46
  -1   1 -17  784.33   44.72
  -1   1 -17  815.33   47.80
  -1   1 -17  945.79   48.48
  -1   0  17 1119.73   46.49
  -1   0  17 1095.75   49.09
   0   1  17  786.17   45.02
   0   1  17 1084.41   49.19
   1  -1  17  939.13   48.43
   0   2 -17  498.32   26.46
  -2   0 -17  555.51   29.70
  -2   0 -17  552.46   28.99
   2  -2 -17  555.42   27.51
   0   2 -17  529.06   30.23
   2   0  17  442.30   27.68
   0  -2  17  512.84   29.58
   0  -2  17  483.70   30.24
  -2   2  17  527.26   26.21
   2   0  17  446.56   27.24
  -2   2  17  538.68   26.92
   0  -2  17  551.26   28.09
  -2   3 -17 1288.15   64.01
  -2   3 -17 1197.55   59.10
  -2   3 -17 1173.33   56.45
   3  -1 -17 1247.00   58.38
  -3   1  17 1259.17   60.35
  -3   1  17 1310.45   59.13
   2  -3  17 1359.11   58.96
   1   2  17 1297.14   59.21
   2  -3  17 1285.09   60.53
   2  -3  17 1197.87   59.96
  -1   4 -17  215.05   16.97
  -1   4 -17  252.17   21.78
   4  -3 -17  200.74   16.07
  -1   4 -17  208.60   15.23
   1  -4  17  217.58   18.18
  -4   3  17  223.28   16.03
  -4   3  17  207.61   17.01
   1  -4  17  223.09   16.34
   1  -4  17  228.28   18.20
  -4   3  17  229.34   15.60
   1  -3 -17  422.44   21.83
  -3   2 -17  357.51   23.15
   2   1 -17  423.49   23.49
   2   1 -17  400.42   23.84
  -3   2 -17  407.89   21.20
  -3   2 -17  392.51   26.94
   2   1 -17  482.25   27.48
   2   1 -17  428.79   25.58
  -1   3  17  411.80   24.79
  -1   3  17  408.10   21.64
   3  -2  17  363.91   23.89
  -2  -1  17  412.10   27.51
   3  -2  17  425.71   23.38
  -1   3  17  405.32   21.17
  -3   5 -17  711.79   37.71
   5  -2 -17  784.39   38.84
  -3   5 -17  683.27   36.45
  -3   5 -17  724.11   42.20
  -3   5 -17  742.77   45.11
   3  -5  17  660.15   39.49
   3  -5  17  726.95   38.27
  -5   2  17  741.09   36.68
  -5   2  17  689.67   38.71
  -5   2  17  646.03   37.94
   3  -5  17  721.83   41.28
  -2   6 -17   82.05   12.24
  -2   6 -17   80.92   10.23
  -2   6 -17   78.46   12.50
   6  -4 -17   78.47   12.53
  -6   4  17   81.74   11.43
  -6   4  17   83.73   11.36
  -6   4  17   95.37   11.88
   2  -6  17   76.68   12.52
   2  -6  17  102.04   23.40
  -4   1 -17 1556.18   72.26
   3  -4 -17 1482.36   68.21
  -4   1 -17 1493.02   68.25
   1   3 -17 1447.43   67.46
  -1  -3  17 1584.53   68.62
  -3   4  17 1494.56   67.56
   4  -1  17 1449.68   71.42
  -3   4  17 1464.89   67.20
  -1  -3  17 1547.07   70.58
   4   0 -17  320.89   20.49
  -4   4 -17  302.51   21.47
  -4   4 -17  304.45   26.04
   4   0 -17  287.46   19.63
  -4   4 -17  280.00   18.35
  -4   4 -17  336.99   20.58
   4   0 -17  323.87   23.93
   4  -4  17  286.97   22.51
  -4   0  17  288.86   22.46
   4  -4  17  301.59   22.07
   4  -4  17  336.37   20.84
  -4   0  17  287.16   19.60
  -4   7 -17  277.38   30.23
  -4   7 -17  334.74   23.97
  -4   7 -17  333.23   25.64
  -7   3  17  278.70   23.71
  -7   3  17  306.59   21.97
  -7   3  17  304.47   22.04
   4  -7  17  309.09   23.39
  -7   3  17  323.47   24.63
  -3   8 -17   44.16   15.99
  -3   8 -17   53.10   11.76
  -3   8 -17   39.13   11.96
  -8   5  17   36.43   10.09
   3  -8  17   46.66   10.43
  -8   5  17   42.13   11.14
   5  -5 -17  223.60   22.56
   0   5 -17  231.98   23.00
   0   5 -17  243.62   18.95
  -5   5  17  239.96   17.96
   0  -5  17  164.18   19.74
   0  -5  17  217.26   17.30
   0  -5  17  241.15   19.31
  -5   3 -17  378.14   21.66
  -5   3 -17  349.99   22.62
   3   2 -17  377.98   25.57
  -5   3 -17  373.49   28.22
   2  -5 -17  358.55   21.00
   3   2 -17  298.90   22.47
   3   2 -17  303.15   22.88
   3   2 -17  300.73   21.39
  -3  -2  17  386.17   21.65
   5  -3  17  337.54   21.62
  -2   5  17  365.43   20.09
   5  -3  17  363.97   25.23
  -5   6 -17  152.81   20.42
  -5   6 -17  151.22   15.76
  -5   6 -17  140.65   16.48
  -5   6 -17  142.03   14.17
   6  -1 -17  163.29   16.08
  -6   1  17  164.25   14.51
   5  -6  17  165.68   19.22
   5  -6  17  111.35   14.04
  -1   7 -17  740.05   48.29
  -1   7 -17  702.60   41.74
  -1   7 -17  725.90   40.08
  -7   6  17  702.38   39.89
   1  -7  17  717.24   48.34
   1  -7  17  756.03   39.37
  -7   6  17  656.54   38.69
   4  -6 -17  149.62   15.03
   2   4 -17  166.79   16.53
   2   4 -17  129.50   20.88
   2   4 -17  161.04   17.49
   6  -2  17  137.45   13.18
   6  -2  17  179.95   17.28
  -4   6  17  145.58   15.05
  -2  -4  17  150.58   15.93
  -4   6  17  154.18   13.65
  -6   5 -17  820.60   42.48
   5   1 -17  862.64   44.78
  -6   5 -17  914.64   47.76
  -6   5 -17  934.16   56.24
   5   1 -17  860.32   47.53
  -6   5 -17  864.51   45.31
   5   1 -17  812.01   49.42
   6  -5  17  891.06   51.89
   6  -5  17  860.37   46.01
  -6   8 -17   31.94   11.02
  -8   2  17   -6.04   14.33
   1   6 -17   63.92   14.79
   1   6 -17   80.32   13.74
  -6   7  17   69.73   12.09
  -6   7  17   81.85   12.37
  -7   4 -17   92.71   13.66
   4   3 -17   67.74   11.98
  -7   4 -17   93.45   11.34
   4   3 -17   91.97   14.26
   3  -7 -17   87.85   12.33
   3  -7 -17   93.38   16.31
   4   3 -17   84.64   13.47
  -3   7  17   84.98   12.16
  -3   7  17   78.04    9.81
   7  -4  17   85.34   17.00
   7  -4  17   73.48   11.93
   7   0 -17   87.74   18.53
  -7   7 -17   92.80   13.71
  -7   7 -17  133.19   18.77
   7  -7  17   79.68   13.04
   3   5 -17  808.09   53.66
  -5   8  17  820.47   43.63
   8  -3  17  760.67   47.88
   8  -3  17  793.24   42.66
   6   2 -17   21.15   11.92
  -8   6 -17    8.89    8.48
  -8   6 -17   33.10   11.78
   8  -6  17   20.88    9.26
   0   0 -18 1285.93   59.16
   0   0 -18 1247.88   55.43
   0   0 -18 1208.43   55.43
   0   0 -18 1263.94   59.33
   0   0  18 1258.50   58.87
   0   0  18 1211.27   56.19
  -1  -1 -18   30.83    6.70
   2  -1 -18   28.18    6.09
  -1   2 -18   39.42    6.45
   2  -1 -18   36.51    5.83
  -1   2 -18   31.33    6.95
  -1   2 -18   25.97    7.45
  -1  -1 -18   34.03    7.35
  -2   1  18   46.76    8.14
   1  -2  18   19.85    5.85
   1   1  18   50.74    7.37
   1  -2  18   31.37    7.41
  -2   1  18   31.34    8.20
   1   1  18   29.47    6.77
   1  -2  18   28.73    6.67
   1  -2 -18  119.56   11.93
   1   1 -18   97.95   10.35
   1  -2 -18  115.36    9.67
  -2   1 -18  102.92   12.74
   1   1 -18  103.52   12.46
   1   1 -18  104.28   11.67
  -2   1 -18  103.07    8.96
  -2   1 -18  106.50   11.47
  -1   2  18  103.69    9.48
  -1   2  18  102.14   11.31
   2  -1  18  103.61    9.88
  -1  -1  18   81.47    9.83
   2  -1  18  109.29   11.30
  -2   4 -18  604.93   37.95
   4  -2 -18  620.69   32.39
  -2   4 -18  575.84   32.95
  -2   4 -18  566.38   30.43
  -4   2  18  588.48   30.77
   2  -4  18  558.89   33.85
   2  -4  18  590.97   32.34
  -4   2  18  503.72   32.03
   2  -4  18  637.43   34.98
  -4   2  18  600.34   33.29
   0   3 -18    3.85    5.32
  -3   0 -18   11.36    5.49
   3  -3 -18   10.02    4.06
   0   3 -18    8.14    3.70
   0   3 -18    4.78    6.10
  -3   0 -18   10.85    6.50
   0  -3  18   17.06    6.62
  -3   3  18   12.84    4.84
   3   0  18    9.28    5.31
   0  -3  18    5.30    6.75
  -3   3  18    7.89    4.56
   3   0  18    7.27    4.05
  -3   3  18    8.42    4.44
   0  -3  18    6.90    5.20
   3   0 -18    0.40    4.60
   3   0 -18   12.59    7.34
  -3   3 -18    4.97    4.64
  -3   3 -18    7.62    4.15
   3   0 -18   14.58    5.32
  -3   3 -18   12.75    6.89
  -3   3 -18    2.14    4.26
   0   3  18   13.88    3.76
  -3   0  18    7.64    6.25
  -3   0  18    2.66    5.26
   3  -3  18   11.85    5.23
   3  -3  18   13.13    5.35
   3  -3  18    7.17    5.03
   0   3  18   11.39    5.58
   6  -3 -18  204.02   17.96
  -3   6 -18  238.75   24.84
  -3   6 -18  238.43   18.84
  -3   6 -18  253.49   21.04
  -3   6 -18  243.28   18.36
   3  -6  18  242.93   19.27
  -6   3  18  222.77   17.67
   3  -6  18  281.49   23.13
  -6   3  18  237.83   19.85
  -1   5 -18  215.55   17.03
   5  -4 -18  229.65   21.14
  -1   5 -18  218.71   23.22
  -1   5 -18  222.23   20.94
   1  -5  18  218.29   19.89
   1  -5  18  228.39   19.61
  -5   4  18  204.96   16.24
  -5   4  18  222.91   17.05
   1  -5  18  215.13   17.28
   2   2 -18  547.17   33.49
  -4   2 -18  612.36   33.43
   2   2 -18  661.13   35.78
  -4   2 -18  639.30   38.18
  -4   2 -18  630.53   31.61
   2   2 -18  659.32   37.27
   2   2 -18  623.16   32.94
   2  -4 -18  670.24   32.44
  -2   4  18  585.06   34.06
   4  -2  18  639.94   34.54
  -2   4  18  636.13   31.36
   4  -2  18  621.01   34.55
  -2  -2  18  631.82   33.15
  -2   4  18  636.48   31.99
   4  -2  18  646.20   32.65
  -4   5 -18  131.94   12.22
  -4   5 -18  119.11   14.40
   5  -1 -18  114.60   13.43
  -4   5 -18  115.49   12.36
  -4   5 -18  105.86   18.61
  -5   1  18  130.59   16.12
   4  -5  18  126.69   13.73
   4  -5  18  127.74   20.59
  -5   1  18  117.44   13.08
  -4   8 -18  125.60   22.60
  -4   8 -18  168.79   17.57
  -4   8 -18  189.64   26.89
   4  -8  18  142.56   17.42
  -8   4  18  180.15   17.00
  -8   4  18  127.34   17.01
  -2   7 -18    2.39    7.98
  -2   7 -18    3.13    7.56
  -2   7 -18    2.04   10.88
  -7   5  18    0.79    7.22
  -7   5  18    3.69    7.16
   2  -7  18    6.83    7.24
   1   4 -18  108.27   13.72
   1   4 -18   95.14   14.54
  -5   1 -18   88.91   13.29
   1   4 -18  105.29   11.47
   4  -5 -18  104.38   12.64
  -1  -4  18  106.53   13.99
  -4   5  18   93.06   11.31
   5  -1  18   90.02   11.55
  -1  -4  18  101.00   12.01
  -4   5  18  103.13   11.70
  -5   4 -18  186.94   15.42
   4   1 -18  175.08   18.67
  -5   4 -18  152.85   12.52
  -5   4 -18  160.77   16.11
   4   1 -18  193.91   15.49
   4   1 -18  131.49   13.96
  -5   4 -18  171.78   20.88
  -4  -1  18  148.95   13.99
   5  -4  18  185.88   16.10
   5  -4  18  159.16   18.76
  -4  -1  18  170.11   15.60
  -1   5  18  159.16   15.33
  -5   7 -18   20.39   12.75
  -5   7 -18   39.61    8.90
  -5   7 -18   30.05    8.85
   5  -7  18   31.05   10.03
  -7   2  18   24.65   11.80
   0   6 -18  351.54   29.94
   0   6 -18  308.76   24.15
  -6   6  18  342.12   23.11
   0  -6  18  320.34   27.70
  -6   6  18  323.23   23.01
   0  -6  18  317.36   21.67
  -6   3 -18  359.26   24.31
  -6   3 -18  411.03   23.39
   3  -6 -18  410.47   24.55
  -6   3 -18  375.54   30.31
   3   3 -18  360.93   27.42
   3   3 -18  375.10   24.17
   6  -3  18  338.46   27.53
  -3  -3  18  369.08   25.10
   6  -3  18  406.17   24.00
  -3   6  18  381.75   22.62
  -6   6 -18  197.99   25.56
  -6   6 -18  210.11   18.52
  -6   6 -18  225.32   18.11
   6   0 -18  224.59   23.18
  -6   6 -18  222.37   21.31
   6   0 -18  216.77   19.46
   6  -6  18  201.25   19.02
  -5   7  18   63.02   10.83
   7  -2  18   55.07   14.65
  -7   5 -18   26.40    9.77
   5   2 -18   39.54   11.25
  -7   5 -18   38.01    9.23
   5   2 -18   23.12    9.38
   7  -5  18   22.92    8.25
  -2   7  18   30.95    8.87
   4  -8 -18  213.12   30.13
   4   4 -18  205.62   23.03
  -8   4 -18  239.81   21.06
  -8   4 -18  270.08   23.13
  -4   8  18  273.20   20.75
   8  -4  18  242.71   20.63
  -1   0 -19  132.52   13.14
  -1   0 -19  128.94    9.22
   0   1 -19  130.15   11.59
   0   1 -19  145.91   13.71
   1  -1 -19   86.60   13.07
   1  -1 -19   96.37    9.75
  -1   0 -19  146.10   13.04
   0   1 -19  148.43   14.28
   0  -1  19  128.06   11.69
   1   0  19  143.49   11.18
  -1   1  19  110.99   20.41
   1   0  19  122.81   12.30
  -1   1  19  141.83   12.55
   0  -1  19  132.27   14.06
  -1   3 -19  551.93   29.08
   3  -2 -19  558.78   30.52
  -2  -1 -19  561.54   30.45
  -1   3 -19  547.50   35.00
  -1   3 -19  564.04   31.88
  -2  -1 -19  523.54   30.48
   1  -3  19  563.64   32.62
   1  -3  19  529.14   32.36
  -3   2  19  565.66   31.72
  -3   2  19  601.92   31.38
   1  -3  19  596.11   31.11
   2   1  19  523.64   29.99
  -2   2 -19   63.06   12.44
   0  -2 -19   58.26    7.39
  -2   2 -19   52.58    6.95
   0  -2 -19   63.79    8.90
   2   0 -19   64.15    8.66
   2   0 -19   60.41    8.36
   2   0 -19   50.83   10.65
  -2   2 -19   50.11    8.22
   0   2  19   62.74    8.01
  -2   0  19   76.34    9.29
   2  -2  19   77.20   10.68
   0   2  19   37.91    8.57
   2  -2  19   61.78    9.11
   2  -2  19   49.61    8.35
  -2   0  19   54.77    9.46
  -2   5 -19  207.76   18.37
   5  -3 -19  226.78   21.51
  -2   5 -19  200.21   17.01
  -2   5 -19  187.02   21.75
  -2   5 -19  202.99   18.79
   2  -5  19  207.81   18.91
  -5   3  19  215.64   16.41
   2  -5  19  201.84   17.43
  -5   3  19  216.64   18.40
   2  -5  19  214.69   19.30
  -5   3  19  224.44   19.02
   1   2 -19   13.86    6.69
  -3   1 -19   15.48    6.36
   1   2 -19   13.03    5.03
   1   2 -19   11.42    6.60
   2  -3 -19   10.39    4.69
  -3   1 -19   17.22    7.43
  -2   3  19   12.09    5.18
   3  -1  19    8.07    5.29
  -2   3  19   14.07    5.58
  -1  -2  19   21.15    6.10
  -1  -2  19   -0.31    5.43
   3  -1  19    8.58    5.57
  -2   3  19    6.95    4.35
  -3   4 -19   45.35    7.80
   4  -1 -19   54.52    8.98
  -3   4 -19   65.75    9.29
  -3   4 -19   42.58    8.35
  -3   4 -19   46.28   12.43
   4  -1 -19   52.58    7.93
  -4   1  19   42.73    8.85
   1   3  19   50.62    9.27
  -4   1  19   74.50   10.26
   3  -4  19   52.99    9.84
   3  -4  19   57.02   10.86
   3  -4  19   43.73    9.65
  -3   7 -19  309.66   32.13
  -3   7 -19  291.45   25.93
  -3   7 -19  334.91   23.97
  -7   4  19  332.98   25.62
   3  -7  19  320.11   24.08
  -7   4  19  331.93   23.37
   0   4 -19   14.55    8.01
   0   4 -19   13.53    5.93
   0   4 -19   22.24    7.44
   4  -4 -19   11.16    5.61
  -4   4  19    8.92    5.64
   0  -4  19   23.67    8.49
   0  -4  19   11.86    6.09
   0  -4  19   11.14    6.60
  -4   4  19   12.14    5.94
  -4   3 -19  642.57   32.72
   3   1 -19  528.88   32.66
  -4   3 -19  627.11   39.92
   3   1 -19  666.26   33.94
   3   1 -19  664.88   38.20
  -4   3 -19  601.75   34.45
  -4   3 -19  574.41   30.58
   4  -3  19  667.59   34.29
  -1   4  19  605.62   34.22
  -3  -1  19  661.75   35.97
   4  -3  19  631.31   36.62
  -1   4  19  626.62   31.38
   4  -3  19  660.69   36.43
   6  -2 -19   33.90   10.00
  -4   6 -19   43.20    9.32
  -4   6 -19   24.54    7.49
  -4   6 -19   26.52   11.62
  -4   6 -19   37.78    9.69
   4  -6  19   32.67    8.53
   4  -6  19   17.92   11.67
  -6   2  19   19.25    8.72
  -6   2  19   36.89    9.71
  -1   6 -19   10.19   10.22
  -1   6 -19   25.92    8.21
  -1   6 -19   26.79    8.87
  -6   5  19   24.23    8.49
   1  -6  19   33.37    8.70
  -6   5  19   27.93    7.86
   1  -6  19   30.36   10.96
   2   3 -19   23.70    7.23
   2   3 -19   30.08    7.14
   3  -5 -19   22.08    6.66
   2   3 -19   17.75    9.14
  -5   2 -19    9.58    8.68
   2   3 -19   22.43    7.39
  -5   2 -19   14.39    5.84
  -2  -3  19   22.16    7.55
  -3   5  19   22.09    7.34
  -3   5  19   18.97    5.59
   5  -2  19   22.18    7.17
   5  -2  19   10.34    5.87
  -2  -3  19   12.33    7.01
   5  -2  19   16.94    7.58
  -5   5 -19  153.66   21.10
  -5   5 -19  162.42   15.58
   5   0 -19  131.91   15.20
   5   0 -19  175.78   16.00
  -5   5 -19  155.63   16.47
   5   0 -19  186.99   27.31
  -5   5 -19  132.17   13.87
   5  -5  19  184.92   16.25
   5  -5  19  162.24   18.82
  -5   0  19  163.90   15.43
  -5   0  19  175.79   16.67
  -5   8 -19   85.68   16.59
   5  -8  19   92.03   16.92
  -8   3  19  111.53   14.75
  -2   8 -19    5.35   12.61
  -2   8 -19    1.76   14.79
  -2   8 -19   -3.72   14.34
  -8   6  19   -3.15    8.85
   2  -8  19   15.40   10.90
   5  -6 -19  605.75   34.10
   1   5 -19  521.78   31.98
   1   5 -19  467.34   34.75
  -1  -5  19  571.63   34.72
  -5   6  19  583.89   32.37
  -5   6  19  536.69   31.52
  -1  -5  19  564.45   30.86
  -6   4 -19   -0.72    5.49
   4   2 -19    9.05    7.89
   4   2 -19    8.07    8.28
   4   2 -19   -0.27    7.46
   2  -6 -19    7.36    6.24
  -6   4 -19    7.26    6.68
  -6   4 -19    5.95   10.02
   6  -4  19   16.21    7.96
   6  -4  19    9.54   10.55
  -4  -2  19   -5.50    7.27
  -4  -2  19    5.16    6.52
  -6   7 -19  390.70   36.83
  -6   7 -19  404.78   30.09
  -6   7 -19  366.18   27.16
   6  -7  19  371.02   26.98
  -7   1  19  333.74   33.56
   0   7 -19   22.67   11.68
   0   7 -19   61.20   11.16
   0   7 -19   21.66   14.43
   4  -7 -19  -18.75    7.64
   3   4 -19   10.16   10.10
   3   4 -19  -10.29    9.66
   7  -3  19   -2.54   11.76
  -4   7  19    1.55    6.90
  -7   6 -19   48.70   16.16
  -7   6 -19   54.45   11.54
  -7   6 -19   71.54   14.42
  -7   6 -19   55.92   11.85
   6   1 -19   75.38   15.31
   7  -6  19   69.45   12.93
  -1   7  19   78.10   11.62
  -1   7  19   55.89   15.80
   2   6 -19   10.98   14.24
  -6   8  19    5.97    9.14
  -6   8  19   10.94    9.16
   5   3 -19  581.90   39.47
  -8   5 -19  596.97   37.67
  -8   5 -19  567.62   34.83
   8  -5  19  538.82   34.64
  -3   8  19  511.40   31.58
   0  -1 -20 1146.44   52.74
   1   0 -20 1130.22   53.64
   1   0 -20 1108.56   50.35
   0  -1 -20 1005.09   49.16
   1   0 -20 1101.57   49.91
   1   0 -20 1145.71   54.27
  -1   1 -20 1106.47   52.60
  -1   1 -20  931.55   52.82
   1  -1  20  939.41   49.79
   0   1  20 1151.50   50.86
   1  -1  20 1017.82   53.42
  -1   0  20 1096.89   53.24
   0   1  20 1007.90   55.57
  -1   0  20 1136.17   50.88
   0   2 -20  172.04   17.52
   0   2 -20  168.21   13.51
  -2   0 -20  167.54   15.67
  -2   0 -20  181.21   15.03
   2  -2 -20  169.73   13.59
  -2   2  20  195.60   14.87
   0  -2  20  175.33   14.86
   0  -2  20  192.70   17.17
  -2   2  20  162.37   15.34
   2   0  20  199.17   13.53
  -2   3 -20  471.12   31.43
  -2   3 -20  477.01   27.49
  -2   3 -20  430.50   24.02
   3  -1 -20  392.45   24.98
   3  -1 -20  434.07   25.28
  -1  -2 -20  471.70   25.67
   2  -3  20  413.31   27.25
   1   2  20  437.46   23.84
   2  -3  20  395.92   27.05
   1   2  20  480.55   26.97
   2  -3  20  439.60   25.98
  -3   1  20  458.33   26.35
  -3   1  20  364.06   27.33
   4  -3 -20 1598.55   74.01
  -1   4 -20 1635.69   80.99
  -1   4 -20 1623.38   75.56
  -1   4 -20 1512.37   71.99
  -4   3  20 1683.19   73.64
   1  -4  20 1544.62   76.83
   1  -4  20 1611.53   76.32
   1  -4  20 1668.77   74.30
  -4   3  20 1484.55   74.69
  -4   3  20 1573.04   72.58
   2   1 -20 1748.73   78.85
   2   1 -20 1656.87   74.39
  -3   2 -20 1681.22   80.16
   1  -3 -20 1792.57   76.57
   2   1 -20 1632.29   74.32
  -3   2 -20 1590.61   75.36
   1  -3 -20 1565.59   72.32
   2   1 -20 1677.73   77.33
  -1   3  20 1536.73   75.11
   3  -2  20 1627.70   76.32
   3  -2  20 1749.40   74.74
   3  -2  20 1551.32   75.57
  -1   3  20 1557.13   71.83
  -2  -1  20 1703.38   77.03
  -2  -1  20 1513.62   73.92
  -3   5 -20  354.06   24.41
   5  -2 -20  334.06   23.30
  -5   2  20  313.13   23.98
   3  -5  20  301.85   32.05
  -5   2  20  335.42   23.50
   3  -5  20  323.28   25.55
   3  -5  20  336.47   26.35
  -2   6 -20  163.44   15.72
  -2   6 -20  140.12   17.71
  -2   6 -20  177.63   23.81
  -6   4  20  152.54   15.10
   2  -6  20  145.82   15.21
  -6   4  20  146.07   16.68
   2  -6  20  159.70   19.07
   2  -6  20  157.55   18.87
  -6   4  20  126.48   15.42
   3  -4 -20  212.22   16.14
   1   3 -20  186.92   19.60
  -4   1 -20  227.82   17.64
  -4   1 -20  190.12   18.22
   1   3 -20  199.00   19.33
   1   3 -20  190.91   15.61
   4  -1  20  222.54   15.16
  -3   4  20  205.55   17.56
  -3   4  20  203.50   15.39
   4  -1  20  243.20   17.58
   4  -1  20  217.91   16.58
  -1  -3  20  227.60   17.41
  -3   4  20  216.11   15.63
  -1  -3  20  190.02   18.13
   4   0 -20  135.86   14.78
   4   0 -20  177.69   18.63
  -4   4 -20  170.32   14.67
  -4   4 -20  186.35   22.18
   4   0 -20  178.26   15.23
  -4   4 -20  159.02   13.18
   0   4  20  160.08   16.09
   4  -4  20  171.99   17.51
   0   4  20  167.29   12.41
  -4   0  20  179.52   15.88
   4  -4  20  169.23   17.38
  -4   0  20  182.06   17.69
   4  -4  20  174.54   16.17
  -4   7 -20   70.62   13.31
  -4   7 -20  116.77   21.61
  -4   7 -20   63.99   11.41
  -7   3  20   78.89   11.85
   4  -7  20   75.55   13.17
  -7   3  20  103.66   15.33
  -3   8 -20 1124.27   63.07
  -3   8 -20 1222.62   71.09
   3  -8  20 1092.46   57.91
  -8   5  20 1047.97   57.61
  -8   5  20 1092.93   59.06
   0   5 -20  429.86   29.25
   0   5 -20  406.18   26.29
   5  -5 -20  462.81   27.89
   0  -5  20  443.97   26.68
   0  -5  20  455.92   35.27
   0  -5  20  416.91   28.76
  -5   5  20  422.97   26.36
  -5   5  20  412.42   26.14
  -5   3 -20  605.41   31.82
   3   2 -20  551.18   32.41
   3   2 -20  624.74   36.78
  -5   3 -20  569.34   33.53
   3   2 -20  668.22   37.73
  -5   3 -20  561.15   38.63
   2  -5 -20  637.24   31.77
   5  -3  20  632.37   33.50
  -2   5  20  542.67   33.63
  -2   5  20  625.46   30.79
   5  -3  20  548.06   34.17
  -3  -2  20  490.28   33.15
   5  -3  20  561.59   35.81
  -3  -2  20  571.38   32.27
  -2   5  20  611.02   31.48
  -5   6 -20 1303.70   64.72
  -5   6 -20 1313.42   75.56
  -5   6 -20 1190.78   62.20
  -5   6 -20 1399.00   67.62
  -6   1  20 1286.65   62.94
   5  -6  20 1306.86   65.35
  -1   7 -20    6.59    8.23
  -1   7 -20   12.22   10.09
  -1   7 -20   13.01   14.56
  -7   6  20   10.23    8.12
  -7   6  20    9.12    8.53
   1  -7  20   20.23    9.37
   2   4 -20  176.12   16.32
   4  -6 -20  185.34   16.66
  -6   2 -20  173.56   21.02
   6  -2  20  190.16   18.47
  -2  -4  20  202.34   18.86
  -4   6  20  196.85   16.19
  -2  -4  20  164.40   15.31
  -4   6  20  171.25   16.43
   6  -2  20  197.55   16.14
  -6   5 -20   93.25   11.79
  -6   5 -20   95.66   13.75
   5   1 -20   70.11   12.21
  -6   5 -20   86.33   14.19
  -6   5 -20  105.99   19.81
   5   1 -20   90.24   14.35
   6  -5  20   83.29   12.42
  -1   6  20   82.34   12.12
  -5  -1  20  106.87   15.88
   1   6 -20  661.35   47.43
   1   6 -20  884.40   53.89
  -1  -6  20  857.37   48.38
  -6   7  20  850.05   44.76
  -6   7  20  875.26   45.51
   3  -7 -20  912.95   46.99
  -7   4 -20  908.98   48.54
  -7   4 -20  871.64   46.01
   4   3 -20  877.17   51.71
   7  -4  20  839.68   47.17
  -3   7  20  940.42   50.69
  -7   7 -20  154.08   21.09
   7   0 -20  103.73   19.55
  -7   7 -20  105.62   23.61
   7  -7  20  156.08   18.49
   3   5 -20   24.29   14.09
   8  -3  20    7.35    9.05
  -5   8  20   -0.26    8.52
   0   0 -21  574.06   32.59
   0   0 -21  568.13   33.02
   0   0 -21  567.56   28.92
   0   0 -21  550.91   29.19
   0   0  21  592.01   32.93
   0   0  21  581.90   30.32
   2  -1 -21  520.34   33.34
  -1  -1 -21  548.93   31.35
   2  -1 -21  552.57   29.34
  -1   2 -21  512.80   32.66
  -1  -1 -21  508.16   30.89
  -1   2 -21  548.72   29.34
  -1  -1 -21  547.76   27.66
   1  -2  21  522.67   30.22
  -2   1  21  580.41   30.49
   1   1  21  594.27   29.19
   1   1  21  595.41   31.83
   1   1 -21  375.38   24.23
   1   1 -21  418.54   25.68
   1   1 -21  374.97   21.83
   1   1 -21  354.99   20.72
  -2   1 -21  365.88   19.56
  -2   1 -21  335.37   24.77
   1  -2 -21  323.40   19.89
   1  -2 -21  309.30   23.05
   2  -1  21  261.98   20.34
   2  -1  21  266.59   21.91
  -1   2  21  393.82   21.95
  -1   2  21  326.78   24.01
   2  -1  21  319.36   23.59
  -1  -1  21  369.40   24.11
  -1  -1  21  399.86   22.78
  -2   4 -21  132.09   12.62
  -2   4 -21  128.63   17.90
   4  -2 -21  166.03   14.62
   2  -4  21  152.87   14.90
  -4   2  21  155.70   15.85
   2  -4  21  163.98   16.68
   2  -4  21  127.41   15.66
  -4   2  21  118.85   14.53
   0   3 -21  224.71   16.20
   0   3 -21  201.75   19.68
  -3   0 -21  213.96   18.49
   3  -3 -21  239.54   17.13
  -3   0 -21  236.61   17.89
   3   0  21  223.44   15.70
  -3   3  21  245.68   17.15
   0  -3  21  221.89   19.19
  -3   3  21  229.35   15.80
   3   0  21  176.47   16.71
   0  -3  21  234.73   20.90
  -3   3  21  214.15   18.10
   0  -3  21  250.02   18.24
   3   0  21  203.35   17.25
   3   0 -21  156.15   14.70
   0  -3 -21  222.76   16.55
  -3   3 -21  175.28   13.75
  -3   3 -21  185.45   16.84
   3   0 -21  221.92   15.84
  -3   3 -21  221.91   21.64
   3   0 -21  136.61   18.01
   3  -3  21  201.91   18.22
   0   3  21  202.97   13.76
  -3   0  21  192.72   16.98
  -3   0  21  222.53   17.01
   3  -3  21  224.30   16.96
   0   3  21  166.46   17.15
   3  -3  21  184.20   16.92
  -3   6 -21  745.75   40.49
  -3   6 -21  773.67   50.15
  -3   6 -21  754.41   42.64
  -6   3  21  636.78   40.89
  -6   3  21  699.17   38.41
   3  -6  21  754.18   41.18
  -6   3  21  659.24   40.15
   5  -4 -21   22.62    8.72
  -1   5 -21   17.33   10.50
  -1   5 -21   18.47    7.77
  -1   5 -21   24.28    8.70
   1  -5  21   34.63   10.84
   1  -5  21   39.47   16.36
  -5   4  21   36.16    8.72
   1  -5  21   37.25   10.18
  -5   4  21   28.42    8.91
  -5   4  21   29.15    7.62
  -4   2 -21  178.89   20.15
   2  -4 -21  198.16   14.76
  -4   2 -21  204.46   16.59
  -4   2 -21  200.07   14.11
   2   2 -21  183.52   17.07
   2   2 -21  204.15   19.66
   2   2 -21  194.33   15.88
   2   2 -21  207.06   18.22
  -2  -2  21  175.76   15.99
  -2  -2  21  192.56   18.10
   4  -2  21  212.22   16.38
   4  -2  21  210.06   18.30
  -2   4  21  180.82   16.70
  -2   4  21  200.36   14.58
  -2   4  21  177.77   14.20
   4  -2  21  201.21   16.76
   5  -1 -21    7.44    7.29
  -4   5 -21   22.02    8.47
  -4   5 -21   34.75   10.48
  -4   5 -21   30.73    9.05
  -4   5 -21   23.41    7.74
  -5   1  21   14.20    7.88
   4  -5  21   25.83    8.32
  -5   1  21   46.79    9.35
   4  -5  21   48.38   11.33
   4  -5  21   24.51    8.04
  -4   8 -21   30.08   10.69
  -4   8 -21   29.84   21.61
  -4   8 -21   44.76   14.88
  -8   4  21   32.12   13.23
  -8   4  21   24.10   10.50
  -2   7 -21   34.52   11.30
  -2   7 -21    9.66   14.09
  -2   7 -21   25.36   10.47
  -7   5  21   22.55    9.59
  -7   5  21   30.84    9.10
   2  -7  21   20.24    8.92
   4  -5 -21  479.07   33.55
   1   4 -21  387.05   34.60
   1   4 -21  329.40   31.68
  -5   1 -21  436.15   29.98
   1   4 -21  420.48   26.40
  -4   5  21  484.54   27.08
  -1  -4  21  498.55   28.21
  -1  -4  21  474.48   30.03
   5  -1  21  460.55   27.40
  -5   4 -21  608.53   42.64
  -5   4 -21  607.04   33.17
  -5   4 -21  547.79   30.32
   4   1 -21  605.11   33.88
  -5   4 -21  579.27   34.83
  -1   5  21  598.04   30.95
  -1   5  21  594.44   34.28
   5  -4  21  600.97   36.64
   5  -4  21  547.68   37.06
  -4  -1  21  597.77   35.06
   5  -4  21  575.42   39.58
  -5   7 -21   20.10    9.91
  -5   7 -21   -1.74   14.33
  -5   7 -21    7.18    8.20
   5  -7  21    4.80    8.47
  -7   2  21   16.02   11.67
  -7   2  21    7.32    8.73
   0   6 -21   56.96   12.43
   0   6 -21   71.81   17.91
   0  -6  21   47.20    9.86
  -6   6  21   43.06    9.85
   0  -6  21   37.10   11.99
  -6   6  21   42.89   10.17
  -6   3 -21    5.84    6.74
   3   3 -21    5.83    8.74
  -6   3 -21    0.50    6.15
   3   3 -21   12.39    9.75
   3   3 -21   17.43    9.89
   3  -6 -21   21.14    7.47
  -3  -3  21   -1.70    7.62
  -3  -3  21   15.34    7.19
   6  -3  21    5.23    7.00
   6  -3  21   11.03   16.82
  -3   6  21   -3.66    5.90
  -3   6  21    6.59    6.50
  -6   6 -21   50.88   11.46
  -6   6 -21   40.90   14.71
   6   0 -21   35.45   13.02
  -6   6 -21   25.41    8.44
   6  -6  21   23.91    9.43
  -6   0  21   14.67    9.05
   2   5 -21  260.09   22.96
   2   5 -21  214.62   25.94
  -5   7  21  200.00   18.53
  -5   7  21  253.25   20.07
  -2  -5  21  166.55   22.43
   7  -2  21  224.98   28.29
  -7   5 -21   92.54   19.70
   5   2 -21  105.82   16.35
  -7   5 -21  114.51   16.16
  -7   5 -21   91.92   13.56
  -2   7  21  109.23   16.11
   7  -5  21   81.47   13.54
  -8   4 -21   34.51   12.00
  -8   4 -21   44.43   13.18
   4   4 -21   12.53   12.71
  -4   8  21   37.51   11.35
   8  -4  21   36.39   10.98
   1  -1 -22 2329.27  102.30
   1  -1 -22 2132.34   97.39
   0   1 -22 2269.90  101.52
   0   1 -22 2345.08  103.40
  -1   0 -22 2172.62   95.32
   0   1 -22 2159.00   97.38
  -1   0 -22 2236.62  101.64
  -1   0 -22 2320.89  100.80
   0  -1  22 2235.74  101.16
   1   0  22 2209.58  100.41
  -1   1  22 2232.87   98.19
   0  -1  22 2179.48   98.44
   1   0  22 2364.81   97.98
  -1   1  22 2122.47  101.20
   3  -2 -22 1645.97   76.18
  -1   3 -22 1599.56   74.44
  -2  -1 -22 1737.00   77.02
  -1   3 -22 1670.82   79.10
   1  -3  22 1351.61   78.73
   2   1  22 1840.68   73.78
  -3   2  22 1651.19   78.69
   1  -3  22 1576.41   78.50
   2   1  22 1701.96   76.58
   1  -3  22 1759.25   77.24
  -2   2 -22    6.09    6.73
   2   0 -22   10.21    5.06
   0  -2 -22   -2.40    4.19
   2   0 -22   17.18    7.82
  -2   2 -22    9.27    6.22
   0  -2 -22   10.20    6.65
   2   0 -22   10.51    5.79
  -2   2 -22    9.94    5.33
   2  -2  22    7.37    6.15
   0   2  22    1.29    6.50
   0   2  22   11.08    6.02
  -2   0  22    2.04    5.96
   2  -2  22    8.09    6.57
   2  -2  22    8.90    5.71
  -2   0  22    7.36    6.36
   5  -3 -22 1168.10   56.72
  -2   5 -22 1122.46   57.62
  -2   5 -22 1229.49   66.08
  -2   5 -22 1044.13   53.50
   2  -5  22 1166.29   56.65
  -5   3  22 1021.43   56.38
   2  -5  22 1157.75   59.36
  -5   3  22 1086.26   53.66
  -5   3  22 1038.28   56.67
   2  -5  22 1090.28   58.54
   2  -3 -22 2088.42   92.52
   1   2 -22 2282.59   99.70
  -3   1 -22 2062.70   97.45
   1   2 -22 2260.90   97.19
  -2   3  22 1970.35   94.58
   3  -1  22 2053.24   94.54
  -1  -2  22 1923.29   95.37
   3  -1  22 2051.24   94.58
  -2   3  22 2097.38   91.79
  -3   4 -22 1951.95   95.50
   4  -1 -22 2025.31   91.42
  -3   4 -22 1905.48   86.02
  -3   4 -22 1715.16   83.32
   4  -1 -22 1755.57   88.57
  -3   4 -22 1821.79   87.57
  -4   1  22 1961.30   85.70
   1   3  22 1962.72   86.48
   3  -4  22 1862.20   89.24
   3  -4  22 1829.62   93.31
   3  -4  22 1904.56   86.83
  -3   7 -22  417.03   28.70
  -3   7 -22  411.38   31.45
  -3   7 -22  491.72   40.30
  -7   4  22  300.68   28.07
  -7   4  22  393.61   26.93
   3  -7  22  375.20   27.55
   0   4 -22   21.29    6.39
   0   4 -22    2.75    7.82
   0   4 -22   15.13    7.93
   0  -4  22   18.85    7.80
  -4   4  22   12.57    7.83
   4   0  22    5.01    7.55
   0  -4  22   11.78    7.89
  -4   4  22   15.66    6.34
   3   1 -22 1245.01   62.59
   3   1 -22 1123.90   57.51
  -4   3 -22 1222.86   57.28
  -4   3 -22 1152.88   54.86
  -4   3 -22 1230.29   60.08
   3   1 -22 1246.89   58.76
   1  -4 -22 1289.96   59.64
  -4   3 -22 1198.80   65.46
   4  -3  22 1171.47   60.40
   4  -3  22 1228.56   58.57
  -1   4  22 1133.92   58.75
   4  -3  22 1183.72   60.57
  -3  -1  22 1092.75   57.20
  -1   4  22 1199.49   55.35
  -3  -1  22 1267.74   60.74
  -4   6 -22   11.52    7.16
  -4   6 -22   24.52    9.62
  -4   6 -22   18.35   11.92
  -6   2  22    6.09    8.58
  -6   2  22   11.53    9.30
   4  -6  22   13.41    8.05
  -1   6 -22 1426.63   79.24
  -1   6 -22 1435.50   72.25
  -6   5  22 1425.83   68.87
  -6   5  22 1401.93   68.89
   1  -6  22 1457.42   69.97
  -5   2 -22 1431.55   64.00
   2   3 -22 1406.44   66.26
   2   3 -22 1230.22   67.13
  -5   2 -22 1466.38   74.05
   2   3 -22 1488.98   93.87
   3  -5 -22 1464.34   66.75
  -5   2 -22 1436.02   67.62
  -3   5  22 1226.10   81.31
  -2  -3  22 1176.19   67.18
   5  -2  22 1409.69   68.12
  -3   5  22 1434.28   64.95
   5  -2  22 1485.65   66.15
   5  -2  22 1434.82   67.98
  -2  -3  22 1496.86   67.09
  -3   5  22 1447.02   69.85
  -5   5 -22  843.22   43.80
   5   0 -22  680.17   48.92
   5   0 -22  837.94   48.86
  -5   5 -22  812.66   54.94
  -5   5 -22  933.37   46.64
  -5   5 -22  944.39   49.07
   0   5  22  922.30   47.06
  -5   0  22  910.67   49.00
   5  -5  22  866.32   47.02
  -5   0  22  844.57   47.03
   1   5 -22  722.44   47.82
   1   5 -22  714.80   45.40
  -5   6  22  738.12   40.01
  -1  -5  22  763.98   40.03
  -5   6  22  691.58   39.31
  -1  -5  22  744.63   43.45
   4   2 -22    2.60    8.20
  -6   4 -22   -0.31    7.28
  -6   4 -22   10.01   12.12
  -6   4 -22    2.00    7.14
  -4  -2  22    8.55    7.73
  -2   6  22   26.02    7.63
  -2   6  22   10.83    8.23
   6  -4  22    9.03    8.24
  -2   6  22   16.10    7.53
   6  -4  22   -5.17   14.69
  -4  -2  22    2.90    8.79
  -6   7 -22  374.07   30.09
  -6   7 -22  273.96   50.56
   7  -1 -22  337.89   31.61
  -7   1  22  323.76   25.78
   3   4 -22  869.68   47.61
   7  -3  22  805.44   49.46
  -4   7  22  856.99   44.52
  -3  -4  22  774.90   53.29
  -4   7  22  832.01   43.59
   7  -3  22  818.27   44.83
  -7   6 -22 1231.24   73.65
  -7   6 -22 1166.36   74.10
  -7   6 -22 1193.09   59.89
   6   1 -22 1194.79   64.52
   7  -6  22 1161.95   62.82
  -1   7  22 1106.87   59.40
  -6  -1  22 1026.60   59.36
   0  -1 -23   93.80   12.06
   1   0 -23   90.24    9.91
   1   0 -23   90.52   12.53
  -1   1 -23   66.24   12.47
   1   0 -23   94.70   13.27
   1   0 -23   81.11   10.03
  -1   1 -23   90.93    9.16
  -1   1 -23   87.86   11.91
   0  -1 -23   87.64    9.35
  -1   0  23   98.59   11.64
   1  -1  23   80.89   12.21
   1  -1  23   89.37   11.45
   1  -1  23   64.92   11.31
   0   1  23   90.15   11.89
   0   1  23   83.53   11.05
  -1   0  23   83.73   12.47
   0   2 -23 1563.28   71.71
   0   2 -23 1205.16   66.41
  -2   0 -23 1638.32   69.43
   2  -2 -23 1606.89   71.95
   2  -2 -23 1246.95   65.45
   0   2 -23 1533.89   73.33
   2   0  23 1461.81   68.70
   0  -2  23 1341.63   69.14
  -2   2  23 1332.99   69.83
  -2   3 -23  100.24   13.38
  -2   3 -23  100.20   10.93
   3  -1 -23  108.85   11.64
  -2   3 -23   95.99   15.68
   3  -1 -23   92.33   14.83
   1   2  23  115.86   13.23
   1   2  23   89.82   11.57
  -3   1  23   94.08   12.54
   2  -3  23  110.05   13.10
   2  -3  23  111.06   14.27
   2  -3  23   92.32   13.72
  -1   4 -23   61.67    9.53
   4  -3 -23   53.55   12.52
  -1   4 -23   56.69   10.94
  -4   3  23   80.96   13.35
  -4   3  23   45.68   11.54
   1  -4  23   61.23   11.35
  -3   2 -23   84.30   15.29
   2   1 -23   97.22   14.59
   2   1 -23   95.00   13.98
   1  -3 -23   63.21   11.90
   2   1 -23   88.45   11.19
  -3   2 -23   65.80    8.78
   2   1 -23   96.93   12.29
  -3   2 -23   69.04   11.52
   1  -3 -23   68.13    8.93
  -2  -1  23   92.68   13.42
  -1   3  23   93.18   10.82
   3  -2  23   98.88   13.70
  -2  -1  23   98.07   12.75
   3  -2  23   98.30   12.48
   3  -2  23   83.03   12.34
  -1   3  23   80.27   12.51
  -3   5 -23   35.90   13.04
  -3   5 -23   33.46    8.22
   5  -2 -23   43.07   10.39
  -3   5 -23   43.18    8.36
  -3   5 -23   44.28    9.90
  -5   2  23   66.42   12.08
   3  -5  23   43.71   10.07
   3  -5  23   61.86   12.03
   3  -5  23   34.40    8.65
  -5   2  23   31.76   10.58
  -2   6 -23  659.19   39.16
  -2   6 -23  654.43   48.97
  -2   6 -23  706.35   42.50
   2  -6  23  708.59   40.25
  -6   4  23  721.89   41.35
  -6   4  23  646.21   38.03
  -4   1 -23   77.99   14.70
   3  -4 -23   52.39    9.55
  -4   1 -23   44.58   10.13
   1   3 -23   41.18   11.26
   1   3 -23   44.49    8.95
   1   3 -23   59.35   13.40
  -3   4  23   59.71    8.12
   4  -1  23   47.96    9.22
  -1  -3  23   25.73    8.94
  -3   4  23   38.54    9.23
   4  -1  23   64.45   10.14
   4  -1  23   46.86   10.02
  -1  -3  23   69.42   10.81
  -3   4  23   52.00    9.29
   4   0 -23 1247.90   58.77
  -4   4 -23 1285.46   69.18
  -4   4 -23 1254.92   61.19
   4   0 -23 1015.36   63.07
  -4   4 -23 1171.76   56.07
   4  -4  23 1319.25   60.73
   0   4  23  990.39   59.05
   4  -4  23 1215.70   62.31
  -4   0  23 1234.32   61.47
  -4   0  23 1337.86   59.49
   0   4  23 1233.40   55.25
   4  -4  23 1080.08   68.72
  -4   7 -23   11.14    9.07
  -4   7 -23    0.96   14.07
   4  -7  23   -5.80    8.53
  -7   3  23   -8.07    8.70
   0   5 -23   46.25   11.51
   0   5 -23   25.58   12.60
  -5   5  23   30.04    8.76
  -5   5  23   38.87    9.24
   0  -5  23   20.00   10.13
   0  -5  23   32.92   10.43
  -5   3 -23   85.17   24.92
  -5   3 -23   69.22    9.97
   2  -5 -23   72.58   10.27
   3   2 -23   63.24   12.97
   3   2 -23   55.85   10.78
  -5   3 -23   70.06   11.30
   3   2 -23   65.19   11.36
  -2   5  23   83.93   11.86
  -2   5  23   75.95   12.87
  -2   5  23   83.95    9.74
   5  -3  23   58.74   12.35
   5  -3  23   93.93   21.20
  -3  -2  23   71.86   11.67
   5  -3  23   73.75   11.78
  -3  -2  23   55.35   10.22
   6  -1 -23   87.02   16.73
  -5   6 -23  103.46   15.12
  -5   6 -23   75.60   12.95
  -5   6 -23   74.77   17.87
  -6   1  23  103.80   13.76
  -6   1  23   54.07   14.28
   5  -6  23  123.16   14.76
  -1   7 -23   14.04   11.80
  -1   7 -23   40.04   16.59
  -7   6  23   26.43   10.31
   1  -7  23    3.80    9.32
  -7   6  23   18.95   10.65
  -6   2 -23  753.95   46.94
   4  -6 -23  735.28   44.17
   2   4 -23  744.46   42.75
   2   4 -23  632.84   45.51
  -4   6  23  740.38   40.04
   6  -2  23  715.07   41.88
  -4   6  23  738.71   39.22
   6  -2  23  734.17   39.31
  -2  -4  23  735.33   43.10
  -2  -4  23  724.00   39.78
   5   1 -23   45.16   13.03
  -6   5 -23   36.02   10.80
  -6   5 -23   41.46   10.47
  -6   5 -23   39.81   13.93
   6  -5  23   42.04   10.32
  -5  -1  23   10.33    9.32
  -1   6  23   56.42   10.69
  -1   6  23   13.06   11.75
  -5  -1  23   34.06   13.27
   1   6 -23   39.09   13.95
  -6   7  23   32.81    9.98
  -1  -6  23   28.38   10.96
  -6   7  23   35.21   14.16
   3  -7 -23  -17.99    9.61
   4   3 -23    8.28   11.94
  -7   4 -23   22.09   10.46
  -7   4 -23   20.00    9.34
  -7   4 -23   -3.99   13.77
   7  -4  23   19.21   10.28
  -3   7  23   25.66   10.13
  -3   7  23   12.58    9.34
  -4  -3  23   -0.27   11.59
   0   0 -24 1043.00   50.12
   0   0 -24 1085.23   55.11
   0   0 -24 1014.75   49.16
   0   0 -24 1073.09   54.15
   0   0  24 1030.11   53.67
   0   0  24 1113.43   51.53
  -1   2 -24  329.73   25.55
  -1  -1 -24  390.91   20.83
  -1   2 -24  363.52   27.79
  -1   2 -24  275.92   21.72
  -1  -1 -24  403.68   25.39
   2  -1 -24  362.01   22.08
   2  -1 -24  325.31   26.05
   2  -1 -24  344.91   22.47
   1   1  24  373.60   24.74
  -2   1  24  414.02   24.05
   1  -2  24  366.13   25.92
   1  -2  24  286.72   23.74
   1   1  24  383.12   22.00
  -2   1  24  367.87   26.38
   1   1 -24  436.38   29.68
   1   1 -24  425.26   24.77
   1   1 -24  446.91   28.24
   1  -2 -24  443.54   28.62
  -2   1 -24  425.93   22.46
   1   1 -24  449.30   25.24
  -2   1 -24  433.59   28.17
  -1   2  24  326.77   25.25
  -1  -1  24  447.77   26.72
   2  -1  24  452.56   26.12
   2  -1  24  403.97   27.39
   2  -1  24  322.20   26.12
  -1  -1  24  430.62   28.10
  -1   2  24  330.47   26.77
   4  -2 -24  519.79   31.54
  -2   4 -24  542.27   33.88
  -2   4 -24  467.10   30.60
  -2   4 -24  482.71   37.36
   2   2  24  593.35   32.84
   2  -4  24  614.64   33.84
  -4   2  24  570.36   32.96
   2  -4  24  505.39   41.41
  -4   2  24  496.86   46.23
   2  -4  24  566.79   35.59
   0   3 -24  197.88   21.94
   0   3 -24  243.89   24.02
   3  -3 -24  232.25   18.22
  -3   0 -24  222.42   20.96
  -3   0 -24  256.97   19.27
   0  -3  24  237.25   19.52
  -3   3  24  250.86   19.55
  -3   3  24  233.75   19.78
   3   0  24  275.31   18.14
  -3   3 -24  289.83   26.39
  -3   3 -24  278.06   21.81
   0  -3 -24  286.56   20.28
  -3   3 -24  274.31   18.60
   3   0 -24  303.10   24.85
   0   3  24  266.21   18.65
   3  -3  24  296.35   22.63
  -3   0  24  275.41   20.91
  -3   0  24  272.39   21.47
   0   3  24  229.16   21.49
   3  -3  24  289.08   20.93
   3  -3  24  262.68   22.62
  -3   6 -24   74.03   17.90
  -3   6 -24  123.14   16.64
  -3   6 -24   92.40   13.18
  -6   3  24  113.27   15.71
   3  -6  24  131.21   16.43
  -1   5 -24  303.90   29.30
  -1   5 -24  321.80   25.53
   1  -5  24  330.39   24.11
  -5   4  24  309.88   22.03
  -5   4  24  300.66   23.33
   1  -5  24  304.93   26.11
  -4   2 -24  519.70   32.58
   2   2 -24  525.04   33.04
  -4   2 -24  522.72   36.24
   2   2 -24  494.53   30.25
   2   2 -24  488.12   29.73
  -4   2 -24  501.00   28.22
   4  -2  24  489.87   30.78
  -2   4  24  520.59   28.37
  -2  -2  24  469.59   31.83
  -2   4  24  439.38   30.30
   4  -2  24  507.74   29.87
   4  -2  24  516.54   31.60
  -4   5 -24  278.00   20.65
  -4   5 -24  317.05   23.04
  -4   5 -24  306.13   24.61
  -4   5 -24  324.87   32.59
   5  -1 -24  294.89   27.07
  -5   1  24  297.99   22.82
  -5   1  24  275.73   25.24
   4  -5  24  318.49   23.79
  -2   7 -24  116.05   21.91
  -7   5  24   78.13   17.03
   2  -7  24   82.81   14.01
   4  -5 -24  110.58   14.13
   1   4 -24  127.50   18.27
   1   4 -24   75.82   16.70
  -5   1 -24  111.95   17.33
   5  -1  24  103.74   14.40
   5  -1  24  136.00   14.10
  -4   5  24  145.88   13.42
   5  -1  24  125.47   16.09
  -1  -4  24  106.76   14.64
  -4   5  24  133.05   14.29
  -1  -4  24  136.76   17.48
   4   1 -24  132.10   16.98
  -5   4 -24  114.46   12.64
  -5   4 -24  125.33   19.60
  -5   4 -24  132.92   14.99
  -5   4 -24  117.87   15.44
  -4  -1  24  114.13   14.59
  -1   5  24  125.80   12.55
   5  -4  24  112.30   14.27
   5  -4  24  125.91   20.74
  -1   5  24   87.70   13.67
   5  -4  24   94.45   15.23
  -5   7 -24  126.94   19.43
  -5   7 -24  118.46   28.60
  -5   7 -24  104.69   19.73
  -7   2  24  134.87   17.27
   5  -7  24  119.65   20.31
   0   6 -24  196.75   26.78
   0   6 -24  210.45   25.07
  -6   6  24  177.25   19.96
  -6   6  24  197.10   19.45
   0  -6  24  186.32   19.28
  -6   3 -24  408.26   35.22
  -6   3 -24  422.90   29.11
  -6   3 -24  421.16   25.72
   3  -6 -24  415.44   28.29
   3   3 -24  407.39   29.28
   3   3 -24  429.64   33.84
  -3   6  24  436.78   27.26
   6  -3  24  399.76   27.60
  -3   6  24  459.42   26.40
   6  -3  24  446.68   31.09
  -3  -3  24  416.15   27.31
   6   0 -24  229.68   26.49
  -6   6 -24  238.49   30.95
  -6   6 -24  225.87   27.46
  -6   6 -24  222.38   21.31
  -6   0  24  203.82   20.48
   6  -6  24  246.35   21.87
   2   5 -24   48.30   13.62
   2   5 -24   31.66   14.74
   7  -2  24   54.64   11.81
  -2  -5  24   25.79   11.19
   7  -2  24   54.64   15.77
  -5   7  24   51.43   11.23
   5   2 -24   81.31   16.31
  -7   5 -24   60.93   13.09
  -7   5 -24   87.18   15.64
  -7   5 -24   71.23   20.66
   7  -5  24   49.95   11.83
  -5  -2  24   46.17   15.03
  -2   7  24   88.99   13.15
  -1   0 -25   35.84    6.70
  -1   0 -25   58.92    7.71
   0   1 -25   52.12   10.55
   0   1 -25   53.53   11.37
   1  -1 -25   49.89    8.04
   0   1 -25   43.20    7.65
   1  -1 -25   46.14   10.11
  -1   0 -25   53.35    9.27
  -1   0 -25   53.55   11.28
   0  -1  25   58.69   11.60
   1   0  25   51.32   10.81
   0  -1  25   64.95   10.67
  -1   1  25   48.22    9.82
   1   0  25   63.90   10.44
  -1   1  25   53.62    9.53
  -2  -1 -25    2.15    8.69
  -1   3 -25   16.09   16.49
   3  -2 -25    8.16    7.98
  -1   3 -25   -2.37    5.59
  -1   3 -25   11.09    6.40
   3  -2 -25   -2.70    6.22
   2   1  25   -0.02    6.37
   1  -3  25   -1.57   10.87
   1  -3  25    8.20    7.52
  -3   2  25    7.83    7.74
  -3   2  25    1.42   10.83
   2   1  25    9.35    7.21
   2   0 -25 1783.87   79.01
   0  -2 -25 1809.50   80.72
   2   0 -25 1856.55   84.00
   2   0 -25 1724.75   77.90
  -2   2 -25 1556.81   76.93
   0  -2 -25 1405.03   75.21
  -2   0  25 1874.36   79.73
  -2   0  25 1711.32   81.70
   0   2  25 1737.64   78.58
   0   2  25 1687.41   80.71
  -2   5 -25   28.31   14.19
  -2   5 -25   30.02    9.49
  -5   3  25   14.81   10.37
   2  -5  25   14.66    9.00
   1   2 -25  100.63   14.63
  -3   1 -25   97.44   13.75
  -3   1 -25   94.73   15.87
   1   2 -25  125.56   19.25
   2  -3 -25   75.74   10.58
   2  -3 -25   94.91   14.31
  -1  -2  25   89.17   12.95
  -2   3  25   74.42   12.53
  -1  -2  25  103.22   15.08
   3  -1  25   65.41   12.33
  -2   3  25  108.03   12.91
   3  -1  25   81.14   11.71
  -3   4 -25  140.80   16.54
   4  -1 -25  141.53   18.27
  -3   4 -25  137.32   22.00
  -3   4 -25  137.80   21.93
  -4   1  25  145.36   15.79
   3  -4  25  147.26   17.18
   3  -4  25  126.45   17.54
   3  -4  25  144.57   16.11
  -4   1  25  130.22   18.83
   1   3  25  158.07   16.81
  -3   7 -25   13.36   12.15
  -3   7 -25   -2.08   11.76
  -7   4  25    5.82   12.10
   3  -7  25    2.52   11.15
  -4   0 -25 1241.62   62.97
  -4   0 -25 1337.18   60.32
   4  -4 -25 1228.48   61.06
  -4   4  25 1158.56   57.80
  -4   4  25 1166.47   62.89
   0  -4  25 1356.30   62.01
   4   0  25 1032.61   56.49
  -4   4  25 1243.11   59.72
   0  -4  25 1144.52   62.60
  -4   3 -25   -7.98    9.40
   1  -4 -25    6.47    5.88
   3   1 -25    0.62    7.88
  -4   3 -25    5.44    6.79
   3   1 -25    0.16    7.04
   3   1 -25  -11.29    6.17
  -4   3 -25    2.46    6.51
   1  -4 -25   -0.33    7.76
  -4   3 -25    2.30    6.22
  -3  -1  25    7.40    7.76
  -1   4  25   -4.76    7.54
   4  -3  25   11.59    8.53
  -1   4  25   16.20    6.84
  -3  -1  25    1.67    7.06
   4  -3  25   13.71    9.10
  -4   6 -25  869.78   49.60
  -4   6 -25  824.31   57.74
  -4   6 -25  811.27   46.52
  -6   2  25  805.62   45.11
   4  -6  25  839.10   47.68
  -1   6 -25  124.88   18.81
  -1   6 -25   93.00   19.77
  -6   5  25  154.13   17.62
   1  -6  25  149.79   17.82
  -6   5  25  118.89   16.67
  -5   2 -25   67.01   12.51
   2   3 -25   69.06   14.31
   2   3 -25   82.26   13.96
  -5   2 -25   81.44   15.80
   3  -5 -25   84.57   12.49
  -3   5  25   80.77   10.97
   5  -2  25   85.91   19.02
   5  -2  25   84.75   12.37
  -2  -3  25   83.05   13.42
  -3   5  25   70.51   13.06
  -2  -3  25   43.36   10.72
   5  -2  25   77.99   11.88
  -3   5  25   76.03   10.48
  -5   5 -25   25.95    9.03
  -5   5 -25   46.05   15.42
  -5   5 -25   34.28   10.32
  -5   5 -25   30.09    9.00
   5   0 -25   10.27   12.85
  -5   0  25   13.15    9.64
  -5   0  25   21.69   11.93
   0   5  25   39.40   12.49
   0   5  25   45.75    9.01
   5  -5  25   41.40   11.31
   1   5 -25   40.83   13.36
   1   5 -25   23.76   13.75
  -5   6  25   16.70    9.26
  -5   6  25   44.64   10.49
  -1  -5  25   15.58   10.31
   2  -6 -25  772.81   41.14
   4   2 -25  814.78   48.77
  -6   4 -25  746.98   42.02
  -6   4 -25  851.06   55.17
  -6   4 -25  813.56   45.79
   6  -4  25  818.67   44.64
  -4  -2  25  747.11   46.13
  -4  -2  25  649.09   41.28
  -2   6  25  820.86   41.43
  -7   3 -25  138.84   19.32
  -7   3 -25  149.75   25.03
   3   4 -25  161.95   20.18
  -4   7  25  168.98   18.35
  -4   7  25  155.29   17.29
   7  -3  25  155.10   16.97
   1   0 -26  251.40   22.02
  -1   1 -26  258.69   26.13
   1   0 -26  264.52   17.87
   0  -1 -26  267.99   21.60
  -1   1 -26  281.33   23.78
   1   0 -26  261.71   18.90
  -1   1 -26  260.99   17.10
   0  -1 -26  263.50   17.79
  -1   0  26  255.78   21.13
   0   1  26  235.43   20.35
   0   1  26  272.61   18.99
   1  -1  26  228.48   20.71
   1  -1  26  257.37   19.71
  -1   0  26  280.96   19.98
  -2   0 -26   33.53    9.18
   2  -2 -26   29.51    9.87
   0   2 -26   48.48   10.63
   0   2 -26   21.79    7.76
   0   2 -26   25.61   11.56
  -2   0 -26   40.21    6.73
   2  -2 -26   25.50    7.63
  -2   0 -26   45.49   12.01
  -2   2  26   52.04    9.97
   2   0  26   41.50    9.73
   0  -2  26   24.23    9.03
   0  -2  26   34.96   10.85
  -2   2  26   20.09    8.17
   2   0  26   36.34    8.96
  -2   3 -26  389.31   28.25
   3  -1 -26  295.80   27.69
  -2   3 -26  346.68   23.91
  -1  -2 -26  391.35   26.27
   3  -1 -26  361.59   24.86
   2  -3  26  387.54   25.87
   1   2  26  385.09   23.56
   1   2  26  392.76   26.19
   2  -3  26  332.04   28.50
  -3   1  26  397.11   25.03
  -1   4 -26   19.91   11.62
   4  -3 -26   24.14    9.30
  -1   4 -26   20.80    8.73
  -1   4 -26   12.05    7.58
   1  -4  26   -0.45   13.87
   1  -4  26   13.17   10.11
  -4   3  26   10.54    9.18
  -4   3  26   22.27    9.50
   3   1  26   13.04    8.76
   1  -4  26   31.61   10.28
  -3   2 -26   36.10    9.51
  -3   2 -26   43.62   12.49
   2   1 -26   72.23   10.60
   2   1 -26   63.57   12.21
   1  -3 -26   69.07   12.42
   1  -3 -26   61.02    9.44
  -3   2 -26   83.04   10.00
   2   1 -26   82.07   13.25
   2   1 -26   62.53    9.94
   3  -2  26   67.02   10.97
  -1   3  26   43.47    9.86
   3  -2  26   80.86   14.40
  -2  -1  26   85.96   13.99
  -2  -1  26   64.32   11.46
  -1   3  26   99.64   12.56
  -3   5 -26  254.85   23.37
  -3   5 -26  284.92   22.25
   5  -2 -26  252.09   25.24
  -3   5 -26  268.70   29.28
   3  -5  26  270.67   22.86
  -5   2  26  249.82   20.89
  -2   6 -26   10.43   15.16
  -2   6 -26   18.20   10.99
  -2   6 -26    6.26    8.82
  -6   4  26   19.10   12.38
   2  -6  26   11.01    9.84
  -4   1 -26  543.49   35.78
   1   3 -26  565.75   34.46
   1   3 -26  575.09   38.37
   3  -4 -26  520.22   30.84
  -3   4  26  559.90   30.48
  -1  -3  26  440.82   30.17
  -1  -3  26  404.20   31.11
   4  -1  26  492.14   31.48
   4  -1  26  369.76   31.49
  -3   4  26  446.51   31.99
   4   0 -26   33.04   10.68
  -4   4 -26    0.33   12.61
  -4   4 -26   26.22    9.06
  -4   4 -26   17.47    8.04
  -4   0  26   33.14    9.27
  -4   0  26   21.82    9.56
   0   4  26   11.05    9.79
   4  -4  26   19.34   12.87
   4  -4  26   33.16    9.52
   0   4  26   17.41    8.30
  -4   7 -26  144.29   19.67
  -4   7 -26  161.99   27.90
  -4   7 -26  199.53   24.10
  -7   3  26  179.41   19.13
   4  -7  26  222.26   22.14
   0   5 -26   10.38   12.94
   0   5 -26   39.81   13.60
  -5   5  26   35.13    9.34
   0  -5  26   59.51   12.72
  -5   5  26   63.67   11.65
   2  -5 -26   85.52   14.41
  -5   3 -26   73.50   17.45
   2  -5 -26   81.48   12.29
   3   2 -26   68.74   15.23
  -5   3 -26   59.33   11.23
   5  -3  26   69.30   14.61
   5  -3  26   63.86   11.01
   5  -3  26   83.47   14.12
  -2   5  26   37.57   12.21
  -3  -2  26   64.62   12.67
  -3  -2  26   66.77   12.63
  -2   5  26   80.76   12.02
   6  -1 -26   -2.79   12.54
  -5   6 -26   -8.18    8.45
  -5   6 -26  -23.70   13.47
   5  -6  26    5.92    9.65
  -6   1  26   -8.46    8.69
   2   4 -26   -4.48    9.74
  -6   2 -26    1.06   13.31
   2   4 -26   -6.86   12.03
  -6   2 -26    0.26   12.23
   6  -2  26   -8.29   13.25
  -4   6  26   12.01    8.44
  -2  -4  26   -2.04    9.55
   6  -2  26   -2.57    9.21
  -4   6  26   21.17    8.68
   5   1 -26  493.10   35.23
  -6   5 -26  474.73   30.51
  -6   5 -26  502.10   35.20
  -6   5 -26  463.77   42.62
  -6   5 -26  434.60   28.40
  -1   6  26  493.02   28.45
   6  -5  26  405.02   30.60
  -5  -1  26  405.48   29.16
  -7   4 -26    4.48   12.39
  -7   4 -26    6.75   17.21
  -7   4 -26   23.41   11.25
   4   3 -26  -18.24   12.37
  -3   7  26   26.62   10.47
   7  -4  26   23.98   11.09
  -3   7  26    5.84   10.10
  -4  -3  26   -0.76   11.50
   0   0 -27   22.73    7.21
   0   0 -27   18.88    6.33
   0   0 -27   16.13    6.88
   0   0 -27   19.92    9.11
   0   0  27   12.11    8.10
   0   0  27    7.67    7.66
   2  -1 -27   15.38   10.74
  -1  -1 -27   -2.32    5.96
  -1  -1 -27    5.65    7.30
  -1   2 -27    5.36    6.92
   2  -1 -27    8.59   10.08
  -1   2 -27   -3.94    6.04
   1   1  27    9.47    7.12
   1  -2  27   -0.31    6.83
  -2   1  27   -2.53   11.11
  -2   1  27   -1.50    7.02
   1   1  27    6.24    7.42
  -2   1 -27   63.40   11.11
  -2   1 -27   50.89   12.83
   1   1 -27   56.36   14.19
   1  -2 -27   64.86   11.49
   1  -2 -27   39.45    8.06
  -2   1 -27   51.29    7.35
   1   1 -27   23.08   17.38
   1   1 -27   49.37   10.63
   1   1 -27   48.84   10.77
   2  -1  27   40.53   10.45
  -1  -1  27   48.11   10.88
  -1  -1  27   41.49   13.48
  -1   2  27   53.63   10.73
   2  -1  27   62.43   10.21
  -1   2  27   37.29    9.40
  -2   4 -27   14.65   11.26
   4  -2 -27    2.17    9.47
  -2   4 -27    3.11    7.22
  -2   4 -27    5.54    7.23
   2  -4  27   19.83    8.81
   2  -4  27  -25.68   13.19
  -4   2  27    0.54    8.74
   2   2  27   -7.95    7.97
  -4   2  27   11.36   10.05
   2   2  27    4.15    6.62
   0   3 -27    2.38    8.20
   0   3 -27    4.63    9.56
  -3   0 -27    3.54    9.51
   3  -3 -27   -3.84    7.81
   3  -3 -27   -3.80    7.60
   0   3 -27    5.69    7.73
  -3   0 -27    3.89    7.59
   0  -3  27    2.86    7.95
   3   0  27   -6.98    7.64
  -3   3  27   -9.30    9.05
   0  -3  27    2.01    8.69
  -3   3  27   -4.90    8.71
   3   0  27    5.08    7.68
   0  -3 -27    0.61    8.16
   3   0 -27    8.01    8.46
  -3   3 -27    6.36   11.66
   3   0 -27   12.68    7.34
   3   0 -27   22.53    8.05
  -3   3 -27    7.37    8.30
  -3   3 -27    2.73    7.77
   0  -3 -27   -5.27    6.46
  -3   0  27    5.61    7.35
   3  -3  27   15.90    8.38
  -3   0  27   -0.78    8.11
   0   3  27   -5.76    7.95
   0   3  27   -5.01    7.41
   3  -3  27    3.03    8.80
   3  -3  27    5.57   10.21
  -3   6 -27  126.72   21.20
  -3   6 -27  124.82   17.85
   3  -6  27  151.21   18.52
  -6   3  27  174.90   18.80
  -1   5 -27  190.48   24.26
   1  -5  27  186.19   19.06
  -5   4  27  149.05   19.27
   2   2 -27    7.09    8.38
   2   2 -27    6.96    9.94
  -4   2 -27    5.88   14.62
   2  -4 -27   15.43   10.49
  -4   2 -27   -5.53    5.74
   2  -4 -27   -2.15    7.77
  -4   2 -27    4.27    8.90
   4  -2  27    2.60    8.95
  -2  -2  27    6.58    8.24
  -2  -2  27   -2.77    8.84
  -2   4  27   -1.25    7.95
  -2   4  27   -1.07    6.52
   4  -2  27   -2.35    9.84
  -4   5 -27   94.29   20.05
   5  -1 -27   78.79   15.52
  -4   5 -27   62.03   10.96
  -4   5 -27  113.56   16.73
  -5   1  27  101.99   14.62
   4  -5  27   91.34   14.17
   1   4  27  112.96   13.39
   1   4 -27   69.00   14.15
   1   4 -27   60.52   16.39
  -5   1 -27   52.52   15.30
  -5   1 -27   60.46   11.28
  -4   5  27   56.35   11.80
  -1  -4  27   65.33   12.22
   5  -1  27   49.32   13.46
   5  -1  27   17.68   14.41
   5  -1  27   47.79   12.84
  -5   4 -27   71.57   13.24
   4   1 -27   64.88   13.22
   1  -5 -27   71.54   14.08
  -5   4 -27   66.66   16.74
  -5   4 -27   78.58   12.69
  -5   4 -27   70.15   12.88
   5  -4  27   64.36   12.93
  -4  -1  27   75.98   13.56
  -1   5  27  102.47   12.97
  -1   5  27   34.30   19.97
   3   3 -27  219.09   26.12
  -6   3 -27  256.94   25.46
  -6   3 -27  223.27   21.02
  -6   3 -27  258.20   30.26
  -3  -3  27  225.54   21.90
  -3   6  27  281.03   20.30
   6  -3  27  277.49   22.50
   0   1 -28  537.99   34.99
  -1   0 -28  568.98   35.12
  -1   0 -28  553.98   29.43
  -1   0 -28  594.42   37.32
   1  -1 -28  545.10   31.74
  -1   0 -28  576.12   31.03
   0   1 -28  506.40   30.45
   1  -1 -28  588.62   35.80
   0  -1  28  588.47   34.89
   1   0  28  574.28   35.56
  -1   1  28  568.92   39.95
   1   0  28  588.65   32.55
   3  -2 -28  720.65   41.87
  -2  -1 -28  854.57   45.89
  -1   3 -28  741.40   46.97
  -1   3 -28  840.01   51.42
  -3   2  28  900.67   44.07
   1  -3  28  654.50   44.56
   2   1  28  928.02   45.58
  -3   2  28  683.91   45.48
   2   0 -28 1323.02   62.26
   0  -2 -28 1347.32   65.59
  -2   2 -28 1313.64   67.61
  -2   2 -28 1195.99   70.14
   0  -2 -28 1271.60   60.97
   2   0 -28 1288.40   67.33
  -2   2 -28 1285.74   60.86
   2   0 -28 1328.64   63.58
   2  -2  28 1295.59   68.02
   2  -2  28 1118.47   65.38
  -2   0  28 1461.39   64.69
   0   2  28 1315.27   65.44
   0   2  28 1403.47   62.80
   2  -2  28 1279.59   64.02
  -2   5 -28  361.12   29.91
  -2   5 -28  294.01   30.94
  -5   3  28  357.16   27.33
   2  -5  28  379.39   28.03
   1   2 -28  224.30   21.32
  -3   1 -28  259.19   21.38
   1   2 -28  237.15   23.63
   1   2 -28  201.41   19.27
   1   2 -28  199.26   17.81
  -1  -2  28  242.30   21.10
  -1  -2  28  200.63   20.92
   3  -1  28  155.67   19.95
   3  -1  28  218.59   21.68
   3  -1  28  232.00   19.51
  -3   4 -28   76.47   11.89
   4  -1 -28   33.80   12.66
  -3   4 -28   63.47   15.38
  -3   4 -28   67.49   12.82
  -4   1  28   79.85   14.02
   1   3  28   90.38   12.83
   3  -4  28   53.54   11.52
   1   3  28   69.29   12.00
   0   4 -28 1003.43   62.45
   0   4 -28 1064.26   59.19
  -4   0 -28 1087.11   53.85
  -4   0 -28  986.06   57.21
   0  -4  28  976.54   53.94
  -4   4  28 1022.06   54.41
   4   0  28 1021.76   51.75
   1  -4 -28  862.41   47.17
  -4   3 -28  933.09   48.67
   3   1 -28  959.12   54.58
  -4   3 -28  936.50   52.97
   1  -4 -28  948.45   50.51
  -4   3 -28  945.22   58.66
   4  -3  28  865.44   58.30
   4  -3  28  912.74   50.17
  -3  -1  28 1027.96   50.87
  -1   4  28 1010.51   48.61
  -4   6 -28  877.88   51.62
  -6   2  28  784.57   45.71
  -1   6 -28   51.55   15.07
   1  -6  28   25.86   11.74
  -6   5  28   16.06   14.08
  -5   2 -28  139.58   21.52
   2   3 -28  171.79   23.10
  -5   2 -28  217.75   25.27
   2   3 -28  192.94   21.71
  -5   2 -28  176.22   16.36
   5  -2  28  175.71   21.37
   5  -2  28  163.00   18.18
  -3   5  28  169.13   17.42
   5  -2  28  160.16   22.12
   5   0 -28  372.87   31.91
  -5   5 -28  324.70   28.52
  -5   5 -28  300.91   25.45
  -5   5 -28  414.85   37.95
   0   5  28  314.28   23.49
  -5   0  28  348.30   26.10
   5  -5  28  316.22   26.39
   0   5  28  321.35   30.38
  -6   1 -28  642.42   46.28
   1   5 -28  599.46   49.17
   1   5 -28  774.24   46.24
  -5   6  28  689.51   40.55
  -1  -5  28  726.00   42.15
  -5   6  28  706.24   39.53
  -6   4 -28  752.94   44.45
  -6   4 -28  681.76   39.01
  -6   4 -28  649.37   50.03
   2  -6 -28  535.17   41.39
   4   2 -28  651.88   45.10
   2  -6 -28  709.11   38.97
  -2   6  28  690.00   38.29
   6  -4  28  679.52   40.88
  -1   1 -29    3.27    6.26
  -1   1 -29    5.39    8.00
   1   0 -29    6.43    8.73
   0  -1 -29    2.75    8.66
   0  -1 -29    4.71    6.60
   1   0 -29   15.75   10.32
  -1   1 -29    0.84   10.33
  -1   1 -29   13.83    7.53
   1   0 -29   -8.70    7.24
   1  -1  29   -7.65    7.37
   1  -1  29   -0.87    7.83
  -1   0  29   12.10    8.48
  -1   0  29    6.02    7.95
  -2   0 -29  967.66   49.83
   0   2 -29  937.40   55.02
   2  -2 -29  878.42   47.19
  -2   0 -29  922.20   44.55
  -2   0 -29  873.41   51.86
   0   2 -29  800.32   45.55
   0   2 -29  913.64   50.72
   2  -2 -29  908.96   51.18
   2   0  29  921.53   47.11
   0  -2  29  824.48   49.86
  -2   2  29  848.65   46.82
   0  -2  29 1001.31   49.54
   2   0  29  947.81   53.32
  -2   3 -29   33.91   10.89
  -1  -2 -29   33.17   10.46
  -2   3 -29   16.52    9.09
  -2   3 -29   22.56   12.73
   3  -1 -29   25.43   11.27
  -3   1  29   26.64    9.48
   1   2  29   31.18   10.46
   1   2  29   27.05    8.77
   2  -3  29   17.98    8.79
  -3  -1 -29   22.87   12.48
  -1   4 -29   62.77   17.69
  -1   4 -29   20.64   12.47
   4  -3 -29   58.64   14.84
   3   1  29   87.90   12.90
   3   1  29   69.76   12.61
   1  -4  29   59.06   12.80
  -4   3  29   50.20   13.09
  -3   2 -29   39.18   11.89
   1  -3 -29   56.47   11.31
  -3   2 -29    4.17   11.69
   1  -3 -29   33.03    8.49
   2   1 -29   22.01   10.01
   3  -2  29   39.80   10.49
  -1   3  29   28.24   12.01
   3  -2  29   47.45   13.40
  -2  -1  29   42.19   10.21
   3  -2  29   24.00   10.75
  -1   3  29   50.20   12.38
  -2  -1  29   30.92   11.35
  -3   5 -29   18.04   10.44
   5  -2 -29   18.36   12.01
  -3   5 -29   -2.02   12.69
  -3   5 -29   19.11   10.60
  -5   2  29   17.39    9.52
   3  -5  29   15.54   10.30
  -2   6 -29  308.56   36.98
  -2   6 -29  430.71   36.85
  -2   6 -29  381.21   28.76
  -6   4  29  460.65   32.17
   2  -6  29  333.59   41.63
  -4   1 -29  133.72   17.04
   3  -4 -29   99.95   18.27
   1   3 -29   82.81   16.71
   1   3 -29  108.14   16.20
  -3   4  29  163.79   18.30
  -1  -3  29   70.60   13.23
   4  -1  29  115.99   15.11
   4  -1  29   78.55   16.36
  -4   4 -29  646.53   39.68
   0  -4 -29  780.10   41.91
  -4   4 -29  761.34   45.06
   4   0 -29  723.13   45.37
  -4   4 -29  653.85   40.07
  -4   4 -29  656.08   48.79
   0   4  29  664.93   40.94
   4  -4  29  697.36   42.29
   0   4  29  657.57   39.22
  -4   0  29  801.55   41.83
   0   5 -29   -6.17   13.52
   0   5 -29   -9.23   11.96
   0  -5  29   -0.97    9.28
  -5   3 -29   -1.28    8.24
   3   2 -29    4.28   11.87
  -5   3 -29   37.32   16.38
   2  -5 -29   17.40   11.29
  -5   3 -29    7.07   10.93
   2  -5 -29   -3.12   11.77
   5  -3  29    1.35    9.01
  -2   5  29   -4.90    9.02
  -3  -2  29    6.66   10.47
   2   4 -29  388.03   35.45
   2   4 -29  408.17   31.28
  -6   2 -29  328.24   36.78
  -6   2 -29  354.76   30.90
  -2  -4  29  325.19   27.28
   6  -2  29  317.25   26.66
   0   0 -30 2974.91  131.64
   0   0 -30 2711.31  122.60
   0   0 -30 2841.55  129.53
   0   0 -30 2811.88  125.27
   0   0  30 2909.65  125.79
   0   0  30 2787.55  128.70
  -1   2 -30    6.41    8.04
   2  -1 -30   17.82   10.56
  -1   2 -30    9.82   11.10
  -1   2 -30    2.73    7.46
  -1  -1 -30   14.62    9.98
  -1  -1 -30    6.24    8.49
   2  -1 -30    4.56    8.96
   1  -2  30   11.70    7.84
  -2   1  30   10.83    9.75
  -2   1  30   23.42    8.39
   1   1  30    5.64    9.25
   1  -2  30   19.58    9.79
   1   1  30   -2.87    9.04
  -2   1 -30   72.39   12.64
   1   1 -30   98.27   16.14
  -2   1 -30   64.61    9.59
   1   1 -30   70.97   11.00
   1  -2 -30   82.52   13.41
   1   1 -30   91.70   14.45
   1  -2 -30  114.80   16.58
  -2   1 -30   82.77   16.28
  -1   2  30   70.54   11.40
  -1   2  30   42.54   11.23
  -1  -1  30   57.86   13.20
   2  -1  30   64.47   11.78
  -1  -1  30   75.35   12.80
   2  -1  30  127.37   14.84
  -2   4 -30 1213.61   72.26
   4  -2 -30 1056.64   67.10
   2  -4  30 1147.27   63.34
  -4   2  30 1519.55   64.30
  -3   0 -30   64.08   11.84
   0   3 -30   77.58   17.47
   3  -3 -30   48.61   14.16
  -3   0 -30   38.04   14.46
   0   3 -30   78.91   14.16
   0  -3  30   56.07   12.57
  -3   3  30   77.63   13.76
   3   0  30   68.36   13.19
   3   0  30   92.79   13.87
  -3   3 -30   78.91   12.95
   3   0 -30  100.60   16.57
   0  -3 -30  116.05   15.26
  -3   3 -30   31.94   14.01
  -3   3 -30   48.39   13.49
   0   3  30   67.31   12.60
  -3   0  30   94.04   14.97
   3  -3  30   52.57   12.19
   0   3  30   90.76   13.22
  -1   5 -30   63.63   20.49
   1  -5  30   56.79   13.05
  -5   4  30   89.22   27.43
  -4   2 -30 1567.48   73.62
   2  -4 -30 1275.22   67.40
   2   2 -30 1658.94   75.03
   2  -4 -30 1336.14   71.83
   2   2 -30 1599.38   77.46
  -4   2 -30 1151.20   64.92
  -4   2 -30 1197.87   74.46
  -2  -2  30 1560.52   70.48
  -2   4  30 1423.88   69.24
   4  -2  30 1156.91   67.06
  -4   5 -30  103.46   17.28
   5  -1 -30   85.42   19.78
  -4   5 -30   50.69   20.64
  -4   5 -30   84.52   13.85
   1   4  30   99.07   15.64
  -5   1  30  106.64   15.85
   4  -5  30   92.33   18.28
   1   4  30  109.58   15.42
   1   4 -30   12.89   14.32
  -5   1 -30   18.75   11.73
  -5   1 -30   21.76   17.31
   1   4 -30   14.25   11.68
  -1  -4  30   16.00   11.09
   5  -1  30   13.44   14.34
   5  -1  30  -20.75   16.23
   5  -1  30    8.49   10.03
  -4   5  30   16.70   12.59
  -5   4 -30    3.88   15.56
   4   1 -30   -9.59   10.95
  -5   4 -30   -0.67   11.74
  -5   4 -30   -5.24    9.39
  -4  -1  30   -2.72    9.34
   5  -4  30   -6.55   10.50
  -1   5  30    9.61   10.59
  -1   0 -31  509.26   35.72
   0   1 -31  433.32   29.40
   0   1 -31  474.83   28.45
   1  -1 -31  450.03   33.52
  -1   0 -31  542.59   40.69
   0   1 -31  504.83   34.03
   1  -1 -31  520.51   30.50
  -1   0 -31  541.51   33.67
   0   1 -31  468.98   36.27
   1   0  31  518.31   31.06
  -1   1  31  471.29   30.73
   0  -1  31  505.07   31.59
   1   0  31  475.23   32.88
  -1   1  31  505.87   46.52
  -2  -1 -31  451.66   33.41
  -1   3 -31  482.69   38.21
   3  -2 -31  466.27   35.54
  -1   3 -31  454.77   34.25
  -3   2  31  422.99   29.47
   2   1  31  485.00   28.99
   1  -3  31  455.73   31.64
   2   1  31  478.31   33.46
  -2   2 -31  421.70   34.85
   2   0 -31  436.49   33.13
   0  -2 -31  476.22   37.77
  -2   2 -31  412.03   30.99
   0  -2 -31  410.96   27.14
  -2   0  31  423.47   28.46
   0   2  31  429.18   27.14
   2  -2  31  451.41   29.68
   0   2  31  330.95   28.00
  -2   5 -31  126.54   20.13
  -3   1 -31  402.42   28.83
   2  -3 -31  313.84   26.49
  -3   1 -31  385.15   33.16
   2  -3 -31  395.32   30.69
   1   2 -31  349.62   32.46
   1   2 -31  414.29   30.52
  -1  -2  31  435.22   29.19
   3  -1  31  347.00   30.51
   3  -1  31  403.53   27.34
  -2   3  31  365.62   27.64
  -3   4 -31  377.79   32.56
   4  -1 -31  446.86   33.71
  -4   1  31  391.61   28.73
   3  -4  31  299.45   26.90
   1   3  31  387.23   30.38
   1   3  31  419.84   27.05
  -4   0 -31  305.84   25.85
   0   4 -31  283.69   30.94
  -4   0 -31  200.82   30.46
   0   4 -31  257.60   27.12
   4  -4 -31  253.94   28.10
   4   0  31  242.12   22.09
  -4   4  31  206.40   22.34
   4   0  31  184.79   25.03
  -4   3 -31  216.05   28.63
   1  -4 -31  289.57   22.50
  -4   3 -31  246.05   26.65
  -4   3 -31  219.07   20.35
  -1   4  31  234.12   23.45
   4  -3  31  181.86   21.04
   2   3 -31  262.48   25.70
   3  -5 -31  205.16   26.70
  -5   2 -31  191.37   20.27
  -5   2 -31  257.08   32.52
   2   3 -31  267.73   28.64
  -5   2 -31  286.91   27.13
  -2  -3  31  231.69   22.56
  -3   5  31  228.14   23.02
  -1   1 -32   -3.61    9.09
  -1   1 -32   20.72    9.86
   1   0 -32   14.89   12.58
  -1   1 -32   46.44   14.16
   0  -1 -32   47.20   11.14
   0  -1 -32   27.91   12.26
   1   0 -32   48.49   10.12
  -1   0  32   36.45    9.85
   1  -1  32   34.68   10.39
   0   1  32   33.44    9.16
   2  -2 -32 1030.48   57.46
  -2   0 -32 1068.26   56.57
  -2   0 -32 1017.51   59.08
   0   2 -32  995.38   60.83
   0   2 -32 1025.51   57.20
   2   0  32 1007.03   70.86
   0  -2  32 1045.54   55.13
   2   0  32 1071.13   53.46
  -2   2  32  954.11   52.29
  -2   3 -32   59.20   14.02
   3  -1 -32   41.27   12.07
  -2   3 -32   54.40   14.99
   1   2  32   62.57   11.35
  -3   1  32   60.96   12.37
   2  -3  32   43.82   12.17
  -3  -1 -32    6.40   19.38
   4  -3 -32   15.32   13.30
  -1   4 -32    7.42   15.20
  -4   3  32   -7.00   10.33
   1  -4  32   12.91   11.18
   3   1  32   -0.78   11.11
   3   1  32    8.19   12.68
   1  -3 -32    1.67   11.93
   2   1 -32    3.40   11.35
   1  -3 -32    6.14    9.84
  -3   2 -32   13.94   15.61
  -3   2 -32    1.78    9.42
  -1   3  32    2.42    9.44
  -2  -1  32    2.06    9.17
   3  -2  32    8.33    9.58
  -3   5 -32   20.59   14.32
  -3   5 -32   -7.19   17.01
   5  -2 -32   17.46   14.78
  -3   5 -32   14.71   11.65
  -5   2  32   -6.72   11.10
   2   3  32   33.90   19.45
   3  -5  32   10.25   12.68
  -4   1 -32   53.98   16.56
   1   3 -32   81.68   17.06
   1   3 -32   94.95   16.95
  -4   1 -32  129.23   19.13
   3  -4 -32   55.02   15.67
  -1  -3  32  109.45   15.36
  -3   4  32  102.28   16.80
   4  -1  32   87.46   15.13
  -4   4 -32  527.80   48.73
   0   4  32  658.66   39.52
  -4   0  32  685.04   39.59
  -5   3 -32  -17.59    9.85
   2  -5 -32   -1.45   14.41
  -5   3 -32   -2.52   16.80
  -5   3 -32  -29.52   14.96
   3   2 -32   -1.65   13.94
  -2   5  32    1.16   12.29
  -3  -2  32    0.39   11.25
   5  -3  32    6.29   11.88
   0   0 -33  185.80   23.54
   0   0  33  166.11   17.72
  -1   2 -33   96.75   18.17
  -1   2 -33  117.79   17.69
  -1  -1 -33  168.33   18.86
   2  -1 -33   91.43   17.40
  -1  -1 -33  107.60   17.28
   1   1  33  130.50   16.18
  -2   1  33  159.35   17.21
   1  -2  33  141.47   17.51
  -2   1 -33  347.59   27.08
   1   1 -33  432.60   32.05
  -2   1 -33  399.72   30.25
   1   1 -33  386.58   32.66
   1  -2 -33  412.99   31.22
  -2   1 -33  436.74   35.55
   2  -1  33  434.59   28.94
  -1   2  33  373.15   26.53
  -1  -1  33  411.12   29.16
  -2   4 -33   66.90   15.93
   4  -2 -33   30.27   16.81
   2   2  33   75.35   13.28
  -4   2  33   54.13   19.48
  -3   0 -33  116.87   19.99
   3  -3 -33   77.40   16.99
   0   3 -33  103.09   20.64
  -3   0 -33  156.69   19.42
   0   3 -33  102.82   19.67
   3   0  33  111.06   16.23
   0  -3  33  169.59   20.39
  -3   3  33  123.84   16.40
   3   0 -33  114.37   19.50
  -3   3 -33  232.42   27.30
   0  -3 -33  193.81   22.89
  -3   3 -33  167.97   21.42
  -3   3 -33  172.76   23.30
  -3   0  33  167.97   19.64
   3  -3  33  175.16   21.26
   0   3  33  172.93   18.32
   2  -4 -33   46.14   15.20
  -4   2 -33   77.16   15.17
  -4   2 -33   27.54   17.58
   2   2 -33   21.45   16.85
   4  -2  33   69.87   14.04
  -2  -2  33   58.55   13.18
  -2   4  33   70.98   15.79
  -1   0 -34  191.98   24.69
   0   1 -34  218.27   24.05
   1  -1 -34  190.79   22.87
   0   1 -34  209.46   23.80
  -1   1  34  175.68   20.02
   0  -1  34  213.65   20.60
   1   0  34  216.81   20.47
  -2  -1 -34   44.22   15.26
  -1   3 -34   26.02   14.49
  -1   3 -34   30.10   15.99
  -2  -1 -34   19.97   12.97
   3  -2 -34   27.09   13.08
  -3   2  34   27.89   10.79
   2   1  34   30.13   11.37
   1  -3  34   40.77   12.93
   2   0 -34  477.43   36.97
   0  -2 -34  484.53   32.71
  -2   2 -34  467.96   30.37
  -2   2 -34  482.66   35.78
   0  -2 -34  588.03   37.47
  -2   2 -34  541.73   41.86
   0   2  34  533.51   31.89
  -2   0  34  506.90   33.29
   2  -2  34  518.43   34.74
   2  -3 -34  277.51   26.22
  -3   1 -34  286.99   30.28
   1   2 -34  273.60   30.00
  -3   1 -34  333.46   27.34
   3  -1  34  269.33   24.54
  -1  -2  34  240.15   23.76
  -2   3  34  266.00   22.95
  -3   4 -34  472.85   39.80
  -1  -3 -34  487.33   36.36
   4  -1 -34  483.76   36.20
   1   3  34  423.28   29.78
  -4   1  34  465.39   33.07
   3   1 -34    4.04   13.52
  -4   3 -34   12.24   13.60
  -4   3 -34    2.08   17.26
  -4   3 -34   -2.43   10.40
   1  -4 -34    3.68   15.14
  -1   4  34   -7.35   11.54
  -3  -1  34   -8.16   12.22
  -1   1 -35   23.66   11.05
   1   0 -35   49.01   14.35
  -1   1 -35   40.01   15.51
  -1   1 -35   33.95   12.13
   0  -1 -35   29.48   13.20
   1  -1  35   15.28   11.90
  -1   0  35   25.40   11.15
   0   1  35   58.12   11.90
  -2   0 -35   34.81   16.14
   0   2 -35    1.70   13.02
   2  -2 -35  -14.56   11.96
   0   2 -35   -2.50   12.87
  -2   2  35   -6.07   10.35
   0  -2  35   11.53   11.76
   2   0  35    2.13   10.69
  -1  -2 -35   18.57   14.36
  -1  -2 -35    7.78   15.83
  -2   3 -35   -2.51   11.53
   2  -3  35  -10.82   15.19
   1   2  35    0.74   10.59
  -3   1  35  -19.06   11.95
   2   1 -35  128.81   28.21
  -3   2 -35  148.91   24.34
   1  -3 -35  173.09   23.64
   3  -2  35  187.08   22.46
  -1   3  35  198.82   19.77
  -2  -1  35  163.10   27.68
   0   0 -36    9.78   13.69
   0   0  36   27.91   11.40
   2  -1 -36  810.76   52.64
  -1   2 -36  753.58   63.36
  -1  -1 -36  842.52   50.82
  -1   2 -36  752.71   48.20
   1   1  36  756.80   43.83
   1  -2 -36  538.43   37.35
  -2   1 -36  514.00   41.47
   2  -1  36  536.32   34.76
  -1  -1  36  407.90   40.01
  -1   2  36  478.92   32.26
   1  -1 -37   35.72   15.17
  -1   0 -37   14.22   14.46
  -1   1  37   22.90   15.16
   0  -1  37   47.79   12.55
   1   0  37   44.40   14.59
   0   0   0    0.00    0.00


 _exptl_absorpt_process_details
)
 SADABS 2016/2: Krause, L., Herbst-Irmer, R., Sheldrick G.M. & Stalke D.,
 J. Appl. Cryst. 48 (2015) 3-10
)
 _exptl_absorpt_correction_type   numerical
 _exptl_absorpt_correction_T_max  0.7457
 _exptl_absorpt_correction_T_min  0.6042
 _exptl_special_details
)
 The following wavelength and cell were deduced by SADABS from the
 direction cosines etc. They are given here for emergency use only:
 CELL 0.71073    7.307    7.308   28.519   90.007   89.993  120.006
)

_computing_structure_solution     'SHELXT 2014/5 (Sheldrick, 2014)'
;
_shelx_hkl_checksum              62133
loop_
_space_group_symop_operation_xyz
'x, y, z'
'-y, x-y, z'
'-x+y, -x, z'
'x+2/3, y+1/3, z+1/3'
'-y+2/3, x-y+1/3, z+1/3'
'-x+y+2/3, -x+1/3, z+1/3'
'x+1/3, y+2/3, z+2/3'
'-y+1/3, x-y+2/3, z+2/3'
'-x+y+1/3, -x+2/3, z+2/3'
'-x, -y, -z'
'y, -x+y, -z'
'x-y, x, -z'
'-x+2/3, -y+1/3, -z+1/3'
'y+2/3, -x+y+1/3, -z+1/3'
'x-y+2/3, x+1/3, -z+1/3'
'-x+1/3, -y+2/3, -z+2/3'
'y+1/3, -x+y+2/3, -z+2/3'
'x-y+1/3, x+2/3, -z+2/3'
loop_
_atom_site_label
_atom_site_type_symbol
_atom_site_fract_x
_atom_site_fract_y
_atom_site_fract_z
_atom_site_U_iso_or_equiv
_atom_site_adp_type
_atom_site_occupancy
_atom_site_site_symmetry_order
_atom_site_calc_flag
_atom_site_refinement_flags_posn
_atom_site_refinement_flags_adp
_atom_site_refinement_flags_occupancy
_atom_site_disorder_assembly
_atom_site_disorder_group
Pb01 Pb 0.666667 0.333333 0.333333 0.01363(16) Uani 1 6 d S T P . .
Ba1 Ba 0.000000 0.000000 0.500000 0.00915(19) Uani 1 6 d S T P . .
Ba2 Ba 0.333333 0.666667 0.30750(2) 0.01378(17) Uani 1 3 d S T P . .
Te1 Te 0.52069(7) 0.52388(7) 0.43537(2) 0.01052(13) Uani 1 1 d . . . . .
O1 O 0.5717(8) 0.5951(8) 0.37255(16) 0.0147(10) Uani 1 1 d . . . . .
O2 O 0.2654(8) 0.2661(8) 0.43495(17) 0.0158(10) Uani 1 1 d . . . . .
O3 O 0.333333 0.666667 0.4405(3) 0.0170(18) Uani 1 3 d S T P . .
O4 O 0.666667 0.333333 0.4272(3) 0.0119(16) Uani 1 3 d S T P . .
loop_
_atom_site_aniso_label
_atom_site_aniso_U_11
_atom_site_aniso_U_22
_atom_site_aniso_U_33
_atom_site_aniso_U_23
_atom_site_aniso_U_13
_atom_site_aniso_U_12
Pb01 0.0139(2) 0.0139(2) 0.0131(3) 0.000 0.000 0.00695(10)
Ba1 0.0095(3) 0.0095(3) 0.0085(4) 0.000 0.000 0.00473(14)
Ba2 0.0141(2) 0.0141(2) 0.0131(3) 0.000 0.000 0.00707(11)
Te1 0.0098(2) 0.0099(2) 0.0103(2) -0.00018(15) 0.00002(15) 0.00378(17)
O1 0.019(3) 0.014(2) 0.011(2) 0.0019(18) 0.0021(18) 0.008(2)
O2 0.010(2) 0.011(2) 0.022(3) 0.0000(19) -0.0012(19) 0.003(2)
O3 0.009(2) 0.009(2) 0.034(5) 0.000 0.000 0.0043(12)
O4 0.009(2) 0.009(2) 0.018(4) 0.000 0.000 0.0045(12)
loop_
_atom_type_symbol
_atom_type_description
_atom_type_scat_dispersion_real
_atom_type_scat_dispersion_imag
_atom_type_scat_source
Ba Ba -0.3244 2.2819 'International Tables Vol C Tables 4.2.6.8 and 6.1.1.4'
O O 0.0106 0.0060 'International Tables Vol C Tables 4.2.6.8 and 6.1.1.4'
Pb Pb -3.3944 10.1111 'International Tables Vol C Tables 4.2.6.8 and 6.1.1.4'
Te Te -0.5308 1.6751 'International Tables Vol C Tables 4.2.6.8 and 6.1.1.4'
loop_
_geom_angle_atom_site_label_1
_geom_angle_atom_site_label_2
_geom_angle_atom_site_label_3
_geom_angle
_geom_angle_site_symmetry_1
_geom_angle_site_symmetry_3
_geom_angle_publ_flag
O1 Pb01 O1 102.75(12) 3_665 2_655 ?
O1 Pb01 O1 180.0 3_665 18_545 ?
O1 Pb01 O1 77.25(12) 2_655 18_545 ?
O1 Pb01 O1 102.75(12) 3_665 . ?
O1 Pb01 O1 102.75(12) 2_655 . ?
O1 Pb01 O1 77.26(12) 18_545 . ?
O1 Pb01 O1 77.25(12) 3_665 17 ?
O1 Pb01 O1 180.0 2_655 17 ?
O1 Pb01 O1 102.75(12) 18_545 17 ?
O1 Pb01 O1 77.25(12) . 17 ?
O1 Pb01 O1 77.25(12) 3_665 16_655 ?
O1 Pb01 O1 77.25(12) 2_655 16_655 ?
O1 Pb01 O1 102.74(12) 18_545 16_655 ?
O1 Pb01 O1 180.0 . 16_655 ?
O1 Pb01 O1 102.74(12) 17 16_655 ?
O1 Pb01 O4 115.57(10) 3_665 16_655 ?
O1 Pb01 O4 115.57(10) 2_655 16_655 ?
O1 Pb01 O4 64.43(10) 18_545 16_655 ?
O1 Pb01 O4 115.57(10) . 16_655 ?
O1 Pb01 O4 64.43(10) 17 16_655 ?
O1 Pb01 O4 64.43(10) 16_655 16_655 ?
O1 Pb01 O4 64.43(10) 3_665 . ?
O1 Pb01 O4 64.43(10) 2_655 . ?
O1 Pb01 O4 115.57(10) 18_545 . ?
O1 Pb01 O4 64.43(10) . . ?
O1 Pb01 O4 115.57(10) 17 . ?
O1 Pb01 O4 115.57(10) 16_655 . ?
O4 Pb01 O4 180.0 16_655 . ?
O2 Ba1 O2 180.0 12_556 3 ?
O2 Ba1 O2 77.53(16) 12_556 11_556 ?
O2 Ba1 O2 102.47(16) 3 11_556 ?
O2 Ba1 O2 102.47(16) 12_556 2 ?
O2 Ba1 O2 77.53(16) 3 2 ?
O2 Ba1 O2 180.0 11_556 2 ?
O2 Ba1 O2 77.53(16) 12_556 10_556 ?
O2 Ba1 O2 102.47(16) 3 10_556 ?
O2 Ba1 O2 77.53(16) 11_556 10_556 ?
O2 Ba1 O2 102.47(16) 2 10_556 ?
O2 Ba1 O2 102.47(16) 12_556 . ?
O2 Ba1 O2 77.53(16) 3 . ?
O2 Ba1 O2 102.47(16) 11_556 . ?
O2 Ba1 O2 77.53(16) 2 . ?
O2 Ba1 O2 180.00(15) 10_556 . ?
O2 Ba1 Te1 129.63(11) 12_556 1_445 ?
O2 Ba1 Te1 50.37(11) 3 1_445 ?
O2 Ba1 Te1 130.29(11) 11_556 1_445 ?
O2 Ba1 Te1 49.71(11) 2 1_445 ?
O2 Ba1 Te1 71.53(11) 10_556 1_445 ?
O2 Ba1 Te1 108.47(11) . 1_445 ?
O2 Ba1 Te1 50.37(11) 12_556 10_666 ?
O2 Ba1 Te1 129.63(11) 3 10_666 ?
O2 Ba1 Te1 49.71(11) 11_556 10_666 ?
O2 Ba1 Te1 130.29(11) 2 10_666 ?
O2 Ba1 Te1 108.47(11) 10_556 10_666 ?
O2 Ba1 Te1 71.53(11) . 10_666 ?
Te1 Ba1 Te1 180.0 1_445 10_666 ?
O2 Ba1 Te1 130.29(11) 12_556 2_655 ?
O2 Ba1 Te1 49.71(11) 3 2_655 ?
O2 Ba1 Te1 71.53(10) 11_556 2_655 ?
O2 Ba1 Te1 108.47(10) 2 2_655 ?
O2 Ba1 Te1 129.63(11) 10_556 2_655 ?
O2 Ba1 Te1 50.37(11) . 2_655 ?
Te1 Ba1 Te1 99.958(8) 1_445 2_655 ?
Te1 Ba1 Te1 80.042(8) 10_666 2_655 ?
O2 Ba1 Te1 108.47(10) 12_556 12_546 ?
O2 Ba1 Te1 71.53(10) 3 12_546 ?
O2 Ba1 Te1 50.37(11) 11_556 12_546 ?
O2 Ba1 Te1 129.63(11) 2 12_546 ?
O2 Ba1 Te1 49.71(11) 10_556 12_546 ?
O2 Ba1 Te1 130.29(11) . 12_546 ?
Te1 Ba1 Te1 80.042(8) 1_445 12_546 ?
Te1 Ba1 Te1 99.958(8) 10_666 12_546 ?
Te1 Ba1 Te1 80.042(8) 2_655 12_546 ?
O2 Ba1 Te1 71.53(10) 12_556 3_565 ?
O2 Ba1 Te1 108.47(10) 3 3_565 ?
O2 Ba1 Te1 129.63(11) 11_556 3_565 ?
O2 Ba1 Te1 50.37(11) 2 3_565 ?
O2 Ba1 Te1 130.29(11) 10_556 3_565 ?
O2 Ba1 Te1 49.71(11) . 3_565 ?
Te1 Ba1 Te1 99.958(8) 1_445 3_565 ?
Te1 Ba1 Te1 80.042(8) 10_666 3_565 ?
Te1 Ba1 Te1 99.958(8) 2_655 3_565 ?
Te1 Ba1 Te1 180.0 12_546 3_565 ?
O2 Ba1 Te1 49.71(11) 12_556 11_456 ?
O2 Ba1 Te1 130.29(11) 3 11_456 ?
O2 Ba1 Te1 108.47(10) 11_556 11_456 ?
O2 Ba1 Te1 71.53(10) 2 11_456 ?
O2 Ba1 Te1 50.37(11) 10_556 11_456 ?
O2 Ba1 Te1 129.63(11) . 11_456 ?
Te1 Ba1 Te1 80.042(8) 1_445 11_456 ?
Te1 Ba1 Te1 99.958(8) 10_666 11_456 ?
Te1 Ba1 Te1 180.0 2_655 11_456 ?
Te1 Ba1 Te1 99.958(8) 12_546 11_456 ?
Te1 Ba1 Te1 80.042(8) 3_565 11_456 ?
O1 Ba2 O1 79.98(15) 2_665 3_565 ?
O1 Ba2 O1 79.98(15) 2_665 . ?
O1 Ba2 O1 79.98(15) 3_565 . ?
O1 Ba2 O2 90.87(14) 2_665 18 ?
O1 Ba2 O2 130.15(14) 3_565 18 ?
O1 Ba2 O2 146.72(15) . 18 ?
O1 Ba2 O2 146.72(14) 2_665 16 ?
O1 Ba2 O2 90.87(14) 3_565 16 ?
O1 Ba2 O2 130.15(14) . 16 ?
O2 Ba2 O2 70.72(15) 18 16 ?
O1 Ba2 O2 130.15(15) 2_665 17 ?
O1 Ba2 O2 146.72(14) 3_565 17 ?
O1 Ba2 O2 90.87(14) . 17 ?
O2 Ba2 O2 70.72(15) 18 17 ?
O2 Ba2 O2 70.72(15) 16 17 ?
O1 Ba2 O1 80.27(14) 2_665 17_455 ?
O1 Ba2 O1 67.08(18) 3_565 17_455 ?
O1 Ba2 O1 143.96(8) . 17_455 ?
O2 Ba2 O1 63.08(13) 18 17_455 ?
O2 Ba2 O1 66.77(13) 16 17_455 ?
O2 Ba2 O1 124.73(13) 17 17_455 ?
O1 Ba2 O1 67.08(18) 2_665 16_665 ?
O1 Ba2 O1 143.96(8) 3_565 16_665 ?
O1 Ba2 O1 80.27(14) . 16_665 ?
O2 Ba2 O1 66.77(13) 18 16_665 ?
O2 Ba2 O1 124.73(13) 16 16_665 ?
O2 Ba2 O1 63.08(14) 17 16_665 ?
O1 Ba2 O1 118.48(4) 17_455 16_665 ?
O1 Ba2 O1 143.96(8) 2_665 18_545 ?
O1 Ba2 O1 80.27(14) 3_565 18_545 ?
O1 Ba2 O1 67.08(18) . 18_545 ?
O2 Ba2 O1 124.73(13) 18 18_545 ?
O2 Ba2 O1 63.08(13) 16 18_545 ?
O2 Ba2 O1 66.77(13) 17 18_545 ?
O1 Ba2 O1 118.48(4) 17_455 18_545 ?
O1 Ba2 O1 118.48(4) 16_665 18_545 ?
O1 Ba2 Ba1 132.09(10) 2_665 7_554 ?
O1 Ba2 Ba1 132.09(10) 3_565 7_554 ?
O1 Ba2 Ba1 132.09(10) . 7_554 ?
O2 Ba2 Ba1 41.93(10) 18 7_554 ?
O2 Ba2 Ba1 41.93(10) 16 7_554 ?
O2 Ba2 Ba1 41.93(10) 17 7_554 ?
O1 Ba2 Ba1 82.86(9) 17_455 7_554 ?
O1 Ba2 Ba1 82.86(9) 16_665 7_554 ?
O1 Ba2 Ba1 82.86(9) 18_545 7_554 ?
O1 Ba2 Ba2 42.64(10) 2_665 16_565 ?
O1 Ba2 Ba2 67.95(10) 3_565 16_565 ?
O1 Ba2 Ba2 116.61(10) . 16_565 ?
O2 Ba2 Ba2 72.44(10) 18 16_565 ?
O2 Ba2 Ba2 104.28(10) 16 16_565 ?
O2 Ba2 Ba2 142.27(10) 17 16_565 ?
O1 Ba2 Ba2 37.62(9) 17_455 16_565 ?
O1 Ba2 Ba2 94.96(9) 16_665 16_565 ?
O1 Ba2 Ba2 145.95(9) 18_545 16_565 ?
Ba1 Ba2 Ba2 109.253(17) 7_554 16_565 ?
O1 Ba2 Ba2 67.95(10) 2_665 16_665 ?
O1 Ba2 Ba2 116.61(10) 3_565 16_665 ?
O1 Ba2 Ba2 42.64(10) . 16_665 ?
O2 Ba2 Ba2 104.28(10) 18 16_665 ?
O2 Ba2 Ba2 142.27(10) 16 16_665 ?
O2 Ba2 Ba2 72.44(10) 17 16_665 ?
O1 Ba2 Ba2 145.95(9) 17_455 16_665 ?
O1 Ba2 Ba2 37.62(9) 16_665 16_665 ?
O1 Ba2 Ba2 94.96(9) 18_545 16_665 ?
Ba1 Ba2 Ba2 109.253(17) 7_554 16_665 ?
Ba2 Ba2 Ba2 109.689(17) 16_565 16_665 ?
O1 Te1 O2 103.6(2) . . ?
O1 Te1 O3 91.0(3) . . ?
O2 Te1 O3 86.06(16) . . ?
O1 Te1 O4 89.0(3) . . ?
O2 Te1 O4 85.13(16) . . ?
O3 Te1 O4 170.93(9) . . ?
O1 Te1 Ba1 103.82(16) . 1_665 ?
O2 Te1 Ba1 152.52(15) . 1_665 ?
O3 Te1 Ba1 92.36(12) . 1_665 ?
O4 Te1 Ba1 96.46(10) . 1_665 ?
Te1 O1 Pb01 107.5(2) . . ?
Te1 O1 Ba2 130.1(2) . . ?
Pb01 O1 Ba2 106.03(16) . . ?
Te1 O1 Ba2 110.9(2) . 16_665 ?
Pb01 O1 Ba2 97.90(15) . 16_665 ?
Ba2 O1 Ba2 99.73(14) . 16_665 ?
Te1 O2 Ba1 135.9(2) . . ?
Te1 O2 Ba2 132.3(2) . 16 ?
Ba1 O2 Ba2 91.76(14) . 16 ?
Te1 O3 Te1 119.52(6) 3_565 2_665 ?
Te1 O3 Te1 119.52(6) 3_565 . ?
Te1 O3 Te1 119.52(6) 2_665 . ?
Te1 O4 Te1 118.84(8) . 3_665 ?
Te1 O4 Te1 118.84(8) . 2_655 ?
Te1 O4 Te1 118.84(8) 3_665 2_655 ?
Te1 O4 Pb01 96.2(2) . . ?
Te1 O4 Pb01 96.2(2) 3_665 . ?
Te1 O4 Pb01 96.2(2) 2_655 . ?
loop_
_geom_bond_atom_site_label_1
_geom_bond_atom_site_label_2
_geom_bond_distance
_geom_bond_site_symmetry_2
_geom_bond_publ_flag
Pb01 O1 2.592(5) 3_665 ?
Pb01 O1 2.592(5) 2_655 ?
Pb01 O1 2.592(5) 18_545 ?
Pb01 O1 2.592(5) . ?
Pb01 O1 2.592(5) 17 ?
Pb01 O1 2.592(5) 16_655 ?
Pb01 O4 2.677(8) 16_655 ?
Pb01 O4 2.677(8) . ?
Ba1 O2 2.686(5) 12_556 ?
Ba1 O2 2.686(5) 3 ?
Ba1 O2 2.686(5) 11_556 ?
Ba1 O2 2.686(5) 2 ?
Ba1 O2 2.686(5) 10_556 ?
Ba1 O2 2.686(5) . ?
Ba1 Te1 3.9474(4) 1_445 ?
Ba1 Te1 3.9474(4) 10_666 ?
Ba1 Te1 3.9474(4) 2_655 ?
Ba1 Te1 3.9474(4) 12_546 ?
Ba1 Te1 3.9474(4) 3_565 ?
Ba1 Te1 3.9474(4) 11_456 ?
Ba2 O1 2.768(5) 2_665 ?
Ba2 O1 2.768(5) 3_565 ?
Ba2 O1 2.768(5) . ?
Ba2 O2 2.906(5) 18 ?
Ba2 O2 2.906(5) 16 ?
Ba2 O2 2.906(5) 17 ?
Ba2 O1 3.071(5) 17_455 ?
Ba2 O1 3.071(5) 16_665 ?
Ba2 O1 3.071(5) 18_545 ?
Ba2 Ba2 4.4685(5) 16_565 ?
Ba2 Ba2 4.4685(5) 16_665 ?
Te1 O1 1.851(5) . ?
Te1 O2 1.875(5) . ?
Te1 O3 2.1006(8) . ?
Te1 O4 2.1483(10) . ?
