#------------------------------------------------------------------------------
#$Date: 2021-06-05 21:35:07 +0300 (Sat, 05 Jun 2021) $
#$Revision: 266018 $
#$URL: file:///home/coder/svn-repositories/cod/cif/7/70/70/7707090.cif $
#------------------------------------------------------------------------------
#
# This file is available in the Crystallography Open Database (COD),
# http://www.crystallography.net/
#
# All data on this site have been placed in the public domain by the
# contributors.
#
data_7707090
loop_
_publ_author_name
'Palab\?iy\?ik, Duygu'
'Mutlu Balc\?i, Ceylan'
'Allen, Christopher W.'
'Be\,sli, Serap'
_publ_section_title
;
 Unexpected formation of ansa isomers enabled by phosphazene ring
 flexibility in the reactions of cyclotetraphosphazene with
 1,2-ethanediol.
;
_journal_issue                   19
_journal_name_full
'Dalton transactions (Cambridge, England : 2003)'
_journal_page_first              6673
_journal_page_last               6681
_journal_paper_doi               10.1039/d1dt00386k
_journal_volume                  50
_journal_year                    2021
_chemical_absolute_configuration none
_chemical_formula_moiety         'C4 H8 Cl4 N4 O4 P4'
_chemical_formula_sum            'C4 H8 Cl4 N4 O4 P4'
_chemical_formula_weight         441.82
_space_group_crystal_system      triclinic
_space_group_IT_number           1
_space_group_name_Hall           'P 1'
_space_group_name_H-M_alt        'P 1'
_atom_sites_solution_hydrogens   geom
_atom_sites_solution_primary     dual
_audit_creation_date             2020-12-05
_audit_creation_method
;
Olex2 1.3
(compiled 2020.07.31 svn.rc2a77460 for OlexSys, GUI svn.r6145)
;
_audit_update_record
;
2020-12-13 deposited with the CCDC.	2021-04-08 downloaded from the CCDC.
;
_cell_angle_alpha                69.92(2)
_cell_angle_beta                 70.932(14)
_cell_angle_gamma                72.958(15)
_cell_formula_units_Z            1
_cell_length_a                   5.9782(14)
_cell_length_b                   8.5423(19)
_cell_length_c                   8.728(2)
_cell_measurement_reflns_used    2362
_cell_measurement_temperature    296.15
_cell_measurement_theta_max      24.50
_cell_measurement_theta_min      2.57
_cell_volume                     387.35(16)
_computing_cell_refinement       'SAINT V8.35A (?, 2016)'
_computing_data_reduction        'SAINT V8.35A (?, 2016)'
_computing_molecular_graphics    'Olex2 1.3 (Dolomanov et al., 2009)'
_computing_publication_material  'Olex2 1.3 (Dolomanov et al., 2009)'
_computing_structure_refinement  'SHELXL 2018/3 (Sheldrick, 2015)'
_computing_structure_solution    'SHELXT 2014/4 (Sheldrick, 2014)'
_diffrn_ambient_temperature      296.15
_diffrn_measured_fraction_theta_full 0.989
_diffrn_measured_fraction_theta_max 0.950
_diffrn_measurement_device_type  'Bruker APEX-II CCD'
_diffrn_measurement_method       '\f and \w scans'
_diffrn_radiation_type           MoK\a
_diffrn_radiation_wavelength     0.71073
_diffrn_reflns_av_R_equivalents  0.0672
_diffrn_reflns_av_unetI/netI     0.1152
_diffrn_reflns_Laue_measured_fraction_full 0.989
_diffrn_reflns_Laue_measured_fraction_max 0.950
_diffrn_reflns_limit_h_max       7
_diffrn_reflns_limit_h_min       -7
_diffrn_reflns_limit_k_max       11
_diffrn_reflns_limit_k_min       -11
_diffrn_reflns_limit_l_max       11
_diffrn_reflns_limit_l_min       -10
_diffrn_reflns_number            5921
_diffrn_reflns_point_group_measured_fraction_full 0.845
_diffrn_reflns_point_group_measured_fraction_max 0.759
_diffrn_reflns_theta_full        25.242
_diffrn_reflns_theta_max         28.789
_diffrn_reflns_theta_min         2.567
_diffrn_source_current           0.6
_diffrn_source_power             0.03
_diffrn_source_voltage           50.0
_diffrn_standards_number         0
_exptl_absorpt_coefficient_mu    1.190
_exptl_absorpt_correction_T_max  0.7411
_exptl_absorpt_correction_T_min  0.5078
_exptl_absorpt_correction_type   none
_exptl_absorpt_process_details
;
SADABS-2014/5 (Bruker,2014/5) was used for absorption correction.
wR2(int) was 0.1624 before and 0.0848 after correction.
The Ratio of minimum to maximum transmission is 0.6852.
The \l/2 correction factor is 0.00150.
;
_exptl_crystal_colour            colourless
_exptl_crystal_colour_primary    colourless
_exptl_crystal_density_diffrn    1.894
_exptl_crystal_description       Plate
_exptl_crystal_F_000             220
_exptl_crystal_size_max          0.237
_exptl_crystal_size_mid          0.138
_exptl_crystal_size_min          0.086
_refine_diff_density_max         2.348
_refine_diff_density_min         -1.167
_refine_diff_density_rms         0.283
_refine_ls_abs_structure_details
;
 Flack x determined using 631 quotients [(I+)-(I-)]/[(I+)+(I-)]
 (Parsons, Flack and Wagner, Acta Cryst. B69 (2013) 249-259).
;
_refine_ls_abs_structure_Flack   0.07(12)
_refine_ls_extinction_method     none
_refine_ls_goodness_of_fit_ref   1.336
_refine_ls_hydrogen_treatment    constr
_refine_ls_matrix_type           full
_refine_ls_number_parameters     181
_refine_ls_number_reflns         3057
_refine_ls_number_restraints     33
_refine_ls_restrained_S_all      1.353
_refine_ls_R_factor_all          0.1660
_refine_ls_R_factor_gt           0.1416
_refine_ls_shift/su_max          0.000
_refine_ls_shift/su_mean         0.000
_refine_ls_structure_factor_coef Fsqd
_refine_ls_weighting_details
'w=1/[\s^2^(Fo^2^)+(0.2000P)^2^] where P=(Fo^2^+2Fc^2^)/3'
_refine_ls_weighting_scheme      calc
_refine_ls_wR_factor_gt          0.3547
_refine_ls_wR_factor_ref         0.3687
_reflns_Friedel_coverage         0.599
_reflns_Friedel_fraction_full    0.700
_reflns_Friedel_fraction_max     0.569
_reflns_number_gt                2167
_reflns_number_total             3057
_reflns_threshold_expression     'I > 2\s(I)'
_cod_data_source_file            d1dt00386k2.cif
_cod_data_source_block           19gtu125_319_dp_teg_1
_cod_depositor_comments
'Adding full bibliography for 7707090--7707092.cif.'
_cod_original_cell_volume        387.37(18)
_cod_database_code               7707090
_shelx_shelxl_version_number     2018/3
_shelx_space_group_comment
;
The symmetry employed for this shelxl refinement is uniquely defined
by the following loop, which should always be used as a source of
symmetry information in preference to the above space-group names.
They are only intended as comments.
;
_shelx_estimated_absorpt_t_max   0.905
_shelx_estimated_absorpt_t_min   0.690
_olex2_refinement_description
;
1. Fixed Uiso
 At 1.2 times of:
  All C(H,H) groups
2. Uiso/Uaniso restraints and constraints
N3 \\sim P4: within 2A with sigma of 0.001 and sigma for terminal atoms of 0.02
within 2A
O4 \\sim C4: within 2A with sigma of 0.001 and sigma for terminal atoms of 0.02
within 2A
Cl3 \\sim P4: within 2A with sigma of 0.001 and sigma for terminal atoms of
0.02 within 2A
Cl4 \\sim P4: within 2A with sigma of 0.001 and sigma for terminal atoms of
0.02 within 2A
C3 \\sim O3: within 2A with sigma of 0.001 and sigma for terminal atoms of
0.002 within 2A
3.a Secondary CH2 refined with riding coordinates:
 C2(H2A,H2B), C4(H4A,H4B), C1(H1A,H1B), C3(H3A,H3B)
;
_shelx_res_file
;
TITL 19gtu125_319_dp_teg_1_a.res in P1
    19gtu125_319_dp_teg_1.res
    created by SHELXL-2018/3 at 01:36:51 on 05-Dec-2020
REM Old TITL 19gtu125_319_DP_TEG_1 in P4
REM SHELXT solution in P4
REM R1 0.261, Rweak 0.180, Alpha 0.000, Orientation as input
REM Flack x = 0.401 ( 0.095 ) from Parsons' quotients
REM Formula found by SHELXT: C10 O4 P3 Cl5
CELL 0.71073 5.9782 8.5423 8.7282 69.924 70.932 72.958
ZERR 1 0.0014 0.0019 0.0024 0.02 0.014 0.015
LATT -1
SFAC C H Cl N O P
UNIT 4 8 4 4 4 4
SIMU 0.001 0.02 2 N3 P4
SIMU 0.001 0.02 2 O4 C4
SIMU 0.001 0.02 2 Cl3 P4
SIMU 0.001 0.02 2 Cl4 P4
SIMU 0.001 0.002 2 C3 O3

L.S. 50
PLAN  8
SIZE 0.086 0.138 0.337
TEMP 23
CONF
HTAB
list 4
MORE -1
BOND $H
fmap 2 53
acta
OMIT 1 0 4
OMIT 1 -3 -2
OMIT 1 -2 2
OMIT -1 3 2
OMIT 1 -3 -3
OMIT -1 2 -2
OMIT -1 1 2
OMIT 1 -6 -2
OMIT -1 3 3
OMIT -1 -4 0
OMIT 2 -4 1
OMIT -1 -2 -7
OMIT 1 4 0
OMIT 1 3 1
OMIT -1 -3 -1
REM <olex2.extras>
REM <HklSrc "%.\\19gtu125_319_DP_TEG_1.hkl">
REM </olex2.extras>

WGHT    0.200000
FVAR       1.21932
P3    6   -0.364608   -0.648187   -0.648539    11.00000    0.05085    0.03258 =
         0.02003   -0.01399   -0.00705    0.00720
P2    6   -0.447868   -0.300192   -0.696782    11.00000    0.04658    0.02737 =
         0.02498   -0.00404   -0.00678   -0.00018
P4    6   -0.554050   -0.709854   -0.299727    11.00000    0.07516    0.03190 =
         0.02964   -0.00906   -0.01218   -0.00893
P1    6   -0.532141   -0.362489   -0.353340    11.00000    0.04398    0.03498 =
         0.03459   -0.01556   -0.00165   -0.00554
CL1   3   -0.400620   -0.289017   -0.209350    11.00000    0.08124    0.08373 =
         0.05147   -0.03097   -0.01345   -0.02877
CL2   3   -0.444490   -0.783168   -0.766886    11.00000    0.09401    0.04459 =
         0.07271   -0.03365   -0.03862    0.00964
CL4   3   -0.467210   -0.908222   -0.110345    11.00000    0.19234    0.02760 =
         0.02945    0.00024   -0.02725   -0.00593
CL3   3   -0.893060   -0.713530   -0.280079    11.00000    0.06350    0.14339 =
         0.13308   -0.09096    0.00693   -0.03366
O4    5   -0.099565   -0.647685   -0.717733    11.00000    0.06699    0.05337 =
         0.06133    0.00814   -0.04315    0.00199
N3    4   -0.389370   -0.756485   -0.460487    11.00000    0.07545    0.03191 =
         0.02970   -0.00884   -0.01195   -0.00790
O1    5   -0.797834   -0.257614   -0.339541    11.00000    0.06234    0.05473 =
         0.05346    0.00131   -0.01472   -0.00999
C2    1   -0.875267   -0.113868   -0.617258    11.00000    0.04348    0.05943 =
         0.05765   -0.02116   -0.00868    0.00260
AFIX  23
H2A   2   -0.953605   -0.208533   -0.588120    11.00000   -1.20000
H2B   2   -0.979245   -0.011831   -0.668222    11.00000   -1.20000
AFIX   0
O2    5   -0.650629   -0.141844   -0.739995    11.00000    0.08008    0.03474 =
         0.03843   -0.00054   -0.02513    0.00551
N4    4   -0.553462   -0.546844   -0.252836    11.00000    0.07534    0.02010 =
         0.07076   -0.00411   -0.01280   -0.00165
N1    4   -0.364353   -0.317126   -0.532860    11.00000    0.03740    0.04220 =
         0.02261   -0.00476   -0.00299   -0.00186
O3    5   -0.236331   -0.254656   -0.859967    11.00000    0.06186    0.06409 =
         0.03688   -0.01813    0.00382   -0.01112
N2    4   -0.527703   -0.461662   -0.691827    11.00000    0.04884    0.02537 =
         0.03108   -0.01457   -0.01337    0.01252
C4    1   -0.008930   -0.533761   -0.892985    11.00000    0.06716    0.05348 =
         0.06120    0.00794   -0.04283    0.00198
AFIX  23
H4A   2    0.151399   -0.587724   -0.945614    11.00000   -1.20000
H4B   2   -0.115931   -0.516443   -0.962889    11.00000   -1.20000
AFIX   0
C1    1   -0.853660   -0.094520   -0.454514    11.00000    0.08512    0.04148 =
         0.02912   -0.01729   -0.00914    0.01385
AFIX  23
H1A   2   -0.727578   -0.032211   -0.481233    11.00000   -1.20000
H1B   2   -1.004746   -0.029925   -0.402078    11.00000   -1.20000
AFIX   0
C3    1   -0.001293   -0.365970   -0.878123    11.00000    0.06185    0.06439 =
         0.03691   -0.01801    0.00367   -0.01096
AFIX  23
H3A   2    0.058810   -0.384998   -0.781215    11.00000   -1.20000
H3B   2    0.109943   -0.311458   -0.977751    11.00000   -1.20000
AFIX   0
HKLF 4




REM  19gtu125_319_dp_teg_1_a.res in P1
REM wR2 = 0.3687, GooF = S = 1.336, Restrained GooF = 1.353 for all data
REM R1 = 0.1416 for 2167 Fo > 4sig(Fo) and 0.1660 for all 3057 data
REM 181 parameters refined using 33 restraints

END

WGHT      0.2000      0.0000

REM Instructions for potential hydrogen bonds
EQIV $1 x+1, y, z-1
HTAB C4 N4_$1
EQIV $2 x, y, z-1
HTAB C4 Cl1_$2
EQIV $3 x+1, y, z
HTAB C3 N2_$3
HTAB C3 Cl1_$1

REM Highest difference peak  2.348,  deepest hole -1.167,  1-sigma level  0.283
Q1    1  -0.6156 -0.3044 -0.6950  11.00000  0.05    2.35
Q2    1  -0.7178 -0.7143 -0.2796  11.00000  0.05    1.93
Q3    1  -0.2025 -0.6406 -0.6440  11.00000  0.05    1.72
Q4    1  -0.3541 -0.7034 -0.3130  11.00000  0.05    1.63
Q5    1  -0.7173 -0.3653 -0.3614  11.00000  0.05    1.48
Q6    1  -0.3524 -0.3423 -0.3655  11.00000  0.05    1.42
Q7    1  -0.2815 -0.2841 -0.7160  11.00000  0.05    1.34
Q8    1  -0.2178 -0.2619 -0.2171  11.00000  0.05    1.30
;
_shelx_res_checksum              9113
_shelx_hkl_file
;
   1   0   1 1781.62  169.38
   1   0   1 2030.10  167.18
   1   0   1 1789.82  167.08
  -1   0  -1 2003.50  167.18
   2   0   2  104.59   10.70
   2   0   2   90.79   10.90
   2   0   2  106.79   16.80
  -2   0  -2  122.99   11.00
  -2   0  -2  126.29   11.50
   3   0   3 1167.08  104.59
   3   0   3  885.91   94.29
   3   0   3  940.31  101.09
   3   0   3 1187.08   93.69
   3   0   3 1022.60   93.29
  -3   0  -3 1056.89   93.99
  -3   0  -3 1139.19   94.99
   4   0   4  250.17   39.30
   4   0   4  298.87   27.40
   4   0   4  244.88   40.40
  -4   0  -4  307.37   28.90
  -4   0  -4  293.87   27.80
   5   0   5   26.30   23.30
   5   0   5   40.20    7.40
   5   0   5   34.00   21.50
  -5   0  -5   35.10    7.70
  -5   0  -5   30.00    8.30
   6   0   6   11.90   24.10
   6   0   6   18.40   27.40
  -6   0  -6   14.40    7.10
   7   1   7   -6.20   33.60
   7   1   7   21.80   27.00
  -6  -1  -6   88.89   13.50
  -6  -1  -6   54.09   10.20
   6   1   6   66.69   32.10
   6   1   6   37.20   25.40
  -5  -1  -5  281.07   28.90
  -5  -1  -5  283.77   27.80
   5   1   5  273.77   27.40
   5   1   5  248.18   42.30
  -4  -1  -4  391.06   38.00
  -4  -1  -4  407.56   37.20
   4   1   4  376.16   50.19
   4   1   4  364.66   49.10
   4   1   4  414.76   36.60
   4   1   4  378.36   40.70
  -3  -1  -3  174.68   16.80
  -3  -1  -3  168.88   17.40
   3   1   3  154.78   25.30
   3   1   3  183.18   16.20
   3   1   3  146.39   17.20
  -2  -1  -2  853.51   73.59
  -2  -1  -2  853.91   73.99
   2   1   2  707.53   73.29
   2   1   2  887.41   72.99
  -1  -1  -1 2914.51  241.48
  -1  -1  -1 2891.51  241.98
  -1  -1  -1 2906.31  241.88
  -1  -1  -1 2852.11  241.58
   1   1   1 2371.96  242.98
   1   1   1 2782.62  241.58
   1   1   1 2531.25  241.78
   0  -1   0 1835.12  155.78
   0  -1   0 1877.11  156.38
   0  -1   0 1702.33  155.78
   0  -1   0 1736.93  155.78
   0  -1   0 1615.64  156.48
   0   1   0 1692.53  155.78
   0   1   0 1894.11  155.88
   0   1   0 1701.23  155.78
   1  -1   1 2532.35  250.97
   1  -1   1 3075.69  251.77
   1  -1   1 2641.24  250.67
   1  -1   1 3108.79  254.77
  -1   1  -1 2925.81  250.77
   2  -1   2  240.98   22.00
   2  -1   2  254.47   23.00
   2  -1   2  193.98   22.60
   2  -1   2  272.57   29.50
  -2   1  -2  224.58   22.00
   3  -1   3  175.38   31.40
   3  -1   3  217.28   29.30
   3  -1   3  130.19   15.60
   3  -1   3  143.69   14.80
   3  -1   3  119.69   17.90
  -3   1  -3  146.79   15.30
   4  -1   4  255.67   41.30
   4  -1   4  307.17   27.20
   4  -1   4  248.08   41.20
  -4   1  -4  263.67   27.10
   5  -1   5   85.29   29.40
   5  -1   5   51.99   28.70
  -5   1  -5  124.89   14.20
   6  -1   6   -5.70   24.00
   6  -1   6   29.20   24.90
  -6   1  -6   24.20    7.80
  -7  -2  -7    2.70    7.20
   7   2   7   -9.40   25.20
   7   2   7    6.30   34.90
  -6  -2  -6   38.50    9.30
  -6  -2  -6   41.10    8.90
   6   2   6   47.40   29.60
   6   2   6   27.30   22.60
  -5  -2  -5   88.39   11.90
  -5  -2  -5   90.09   12.90
   5   2   5   24.70   23.50
   5   2   5   75.49   28.20
   5   2   5   83.89   10.70
  -4  -2  -4  371.86   35.50
  -4  -2  -4  374.56   34.70
   4   2   4  371.36   33.80
   4   2   4  387.06   46.70
   4   2   4  310.57   35.50
  -3  -2  -3  178.38   17.10
  -3  -2  -3  156.68   16.20
   3   2   3  172.28   15.60
   3   2   3  131.19   16.60
  -2  -2  -2 1032.20   97.09
  -2  -2  -2 1134.49   97.19
  -2  -2  -2 1156.08   97.59
   2   2   2 1181.28   96.79
   2   2   2  962.00   97.29
  -1  -2  -1 2030.20  181.38
  -1  -2  -1 1955.80  181.88
  -1  -2  -1 1931.71  180.78
  -1  -2  -1 2364.86  181.38
  -1  -2  -1 2317.07  181.28
   1   2   1 2051.49  182.28
   1   2   1 2055.59  180.88
   1   2   1 1741.93  181.38
   0  -2   0 9369.76  806.82
   0  -2   0 9999.00  807.02
   0  -2   0 8941.11  808.32
   0  -2   0 9704.73  808.02
   0  -2   0 9475.75  806.92
   0   2   0 9632.44  807.02
   0   2   0 8779.02  809.42
   0   2   0 7852.21  806.72
   0   2   0 8979.80  806.92
   1  -2   1 1742.13  161.48
   1  -2   1 1544.75  159.98
   1  -2   1 1898.31  164.88
   1  -2   1 1968.40  161.38
  -1   2  -1 1733.23  159.18
  -1   2  -1 1989.40  159.48
   2  -2   2  332.47   36.70
   2  -2   2  262.97   30.40
   2  -2   2  324.67   29.00
   2  -2   2  319.77   30.50
   2  -2   2  299.47   36.60
  -2   2  -2  283.47   28.50
   3  -2   3  773.92   88.99
   3  -2   3  840.72   78.39
   3  -2   3  962.10   79.19
   3  -2   3  839.52   79.79
   3  -2   3  873.61   89.39
  -3   2  -3  887.41   78.49
   4  -2   4  329.97   50.29
   4  -2   4  384.36   35.40
   4  -2   4  288.37   47.80
  -4   2  -4  403.56   35.40
   5  -2   5   14.40   24.90
   5  -2   5   27.00   23.00
  -5   2  -5   42.60    8.90
   6  -2   6    3.60   27.20
   6  -2   6   -1.90   33.10
  -7  -3  -7   30.20   10.20
   7   3   7    6.30   24.80
   7   3   7    5.10   34.10
  -6  -3  -6    0.30    5.50
  -6  -3  -6   10.50    6.80
   6   3   6    6.00   23.60
   6   3   6    1.90   27.40
  -5  -3  -5   56.59    9.80
  -5  -3  -5   56.59   10.50
   5   3   5   45.10    8.10
   5   3   5   75.09   28.30
  -4  -3  -4   53.29    8.90
  -4  -3  -4   88.29   11.20
   4   3   4   45.40   21.40
   4   3   4   35.50   10.40
   4   3   4   63.29    8.20
  -3  -3  -3  467.35   40.00
  -3  -3  -3  402.56   39.50
  -3  -3  -3  464.75   40.50
   3   3   3  429.46   39.20
   3   3   3  384.96   40.40
  -2  -3  -2 1802.22  164.18
  -2  -3  -2 2055.59  163.28
  -2  -3  -2 1986.50  163.68
  -2  -3  -2 1768.82  162.48
  -2  -3  -2 1993.80  163.48
   2   3   2 1909.31  162.98
   2   3   2 1607.74  164.98
   2   3   2 1651.83  163.78
  -1  -3  -1 3099.39  279.17
   1   3   1 3197.98  279.87
   0  -3   0 1650.23  141.39
   0  -3   0 1687.63  141.39
   0  -3   0 1560.64  143.49
   0  -3   0 1625.84  142.89
   0   3   0 1658.23  141.49
   0   3   0 1349.07  141.09
   0   3   0 1659.43  141.59
   0   3   0 1527.45  145.69
   1  -3   1 1488.95  144.39
   1  -3   1 1643.74  145.39
   1  -3   1 1421.26  148.09
   1  -3   1 1838.02  143.79
  -1   3  -1 1347.47  142.69
  -1   3  -1 1685.03  142.69
  -1   3  -1 1873.51  143.79
   2  -3   2  456.35   54.69
   2  -3   2  521.25   48.40
   2  -3   2  540.15   46.60
   2  -3   2  410.66   48.00
  -2   3  -2  525.05   46.20
   3  -3   3  131.69   15.90
   3  -3   3  149.09   18.30
   3  -3   3  128.69   19.90
   3  -3   3  177.08   32.40
   3  -3   3  142.49   32.40
  -3   3  -3  133.79   16.10
   4  -3   4   90.79   30.60
   4  -3   4  122.39   15.00
   4  -3   4  103.59   30.90
  -4   3  -4  105.59   14.80
   5  -3   5   37.50   29.10
   5  -3   5   19.50   27.00
  -5   3  -5   19.50    7.80
  -7  -4  -7   17.10    8.40
   7   4   7   24.20   28.30
   7   4   7   -7.90   31.10
  -6  -4  -6   61.29   12.10
  -6  -4  -6   98.39   14.80
   6   4   6  114.19   36.00
   6   4   6   11.00   29.60
  -5  -4  -5   85.29   13.10
  -5  -4  -5   91.79   13.90
   5   4   5   86.69   11.70
  -4  -4  -4  176.28   19.10
  -4  -4  -4  188.78   20.50
  -4  -4  -4  216.28   20.40
   4   4   4  126.09   21.10
   4   4   4  189.18   31.70
   4   4   4  214.98   19.40
  -3  -4  -3  112.79   13.60
  -3  -4  -3   97.39   10.90
  -3  -4  -3  113.59   13.80
  -3  -4  -3  120.59   12.80
   3   4   3  103.79   14.50
   3   4   3  102.39   11.80
  -2  -4  -2  889.31   88.39
  -2  -4  -2 1049.70   87.59
  -2  -4  -2 1018.90   87.59
  -2  -4  -2  979.20   89.19
  -2  -4  -2 1006.20   87.59
   2   4   2  841.42   87.99
   2   4   2  992.20   86.99
  -1  -4  -1  700.23   63.29
  -1  -4  -1  849.02   66.79
  -1  -4  -1  741.33   64.39
  -1  -4  -1  646.74   65.49
   1   4   1  662.03   64.49
   1   4   1  651.53   63.59
   0  -4   0  121.89   19.30
   0  -4   0  109.79   12.80
   0  -4   0  120.89   17.50
   0  -4   0   75.69   12.70
   0   4   0  143.59   25.40
   0   4   0   81.59   13.30
   0   4   0  108.99   14.10
   1  -4   1  344.47   33.80
   1  -4   1  289.47   37.70
   1  -4   1  331.07   31.20
   1  -4   1  341.87   33.10
  -1   4  -1  325.07   31.10
  -1   4  -1  271.97   30.30
   2  -4   2  333.27   40.90
   2  -4   2  431.66   39.40
   2  -4   2  385.16   49.30
   2  -4   2  434.86   41.90
  -2   4  -2  397.96   38.70
   3  -4   3   74.99   28.50
   3  -4   3  124.39   17.30
   3  -4   3  116.19   16.00
   3  -4   3  128.99   20.60
   3  -4   3  146.99   32.90
  -3   4  -3  134.29   17.10
   4  -4   4   38.10   32.40
   4  -4   4   54.69   29.40
  -4   4  -4   56.89   11.40
   5  -4   5    7.30   23.50
   5  -4   5   10.70   31.70
  -7  -5  -7   11.00    8.00
   7   5   7    6.60   30.20
   7   5   7    1.10   30.40
  -6  -5  -6   50.29   11.10
  -6  -5  -6   65.39   11.60
   6   5   6   50.89   32.40
   6   5   6   -3.00   25.00
  -5  -5  -5   64.49   12.90
  -5  -5  -5   99.49   14.50
   5   5   5   63.69   25.70
   5   5   5   91.79   12.40
  -4  -5  -4  131.39   16.50
  -4  -5  -4  138.39   15.90
  -4  -5  -4  146.39   17.10
   4   5   4   99.19   24.20
   4   5   4  124.39   14.60
  -3  -5  -3  458.35   41.00
  -3  -5  -3  385.26   43.10
  -3  -5  -3  440.56   41.60
  -3  -5  -3  451.65   41.80
   3   5   3  434.86   40.90
  -2  -5  -2  632.84   56.29
  -2  -5  -2  637.24   56.39
  -2  -5  -2  598.24   55.79
  -2  -5  -2  565.94   58.29
   2   5   2  585.04   55.59
  -1  -5  -1  275.67   28.80
   1   5   1  240.18   26.30
   1   5   1  259.87   32.20
   0  -5   0 1572.04  122.89
   0  -5   0 1474.65  125.29
   0  -5   0 1533.65  126.79
   0   5   0 1289.17  129.89
   0   5   0 1150.48  121.99
   0   5   0 1112.19  122.09
   1  -5   1  344.57   33.80
   1  -5   1  309.37   40.90
   1  -5   1  340.97   36.50
  -1   5  -1  319.17   33.50
   2  -5   2  212.48   42.20
   2  -5   2  226.48   31.10
   2  -5   2  335.47   30.00
  -2   5  -2  280.47   28.70
   3  -5   3  196.98   40.40
   3  -5   3  103.49   35.90
   3  -5   3  163.28   26.30
  -3   5  -3  198.08   21.50
   4  -5   4   94.49   38.00
   4  -5   4  120.59   42.10
  -4   5  -4  126.99   18.90
  -7  -6  -7    3.80    8.80
   7   6   7  -16.90   27.30
   7   6   7   37.70   36.20
  -6  -6  -6   20.60    9.30
  -6  -6  -6   19.20    9.70
   6   6   6    8.90   27.20
  -5  -6  -5   35.50    9.80
  -5  -6  -5   57.99   11.10
   5   6   5   14.30   22.30
   5   6   5   57.39    9.70
  -4  -6  -4   67.99   12.00
  -4  -6  -4   69.69   13.80
  -4  -6  -4   69.79   11.60
   4   6   4   82.69   11.40
  -3  -6  -3  137.39   15.40
  -3  -6  -3  121.69   18.20
  -3  -6  -3  101.19   14.60
   3   6   3   63.69   19.60
   3   6   3  116.69   13.40
  -2  -6  -2  684.43   71.19
  -2  -6  -2  782.02   68.69
  -2  -6  -2  781.52   68.69
   2   6   2  767.12   74.39
   2   6   2  661.83   67.79
  -1  -6  -1 1165.08  104.49
  -1  -6  -1 1100.29  103.79
  -1  -6  -1 1174.48  101.39
   1   6   1 1122.89  108.09
   1   6   1  971.80  100.69
   0  -6   0  166.98   24.40
   0  -6   0  148.89   26.30
   0  -6   0  153.28   18.90
   0   6   0  113.19   18.70
   1  -6   1  204.28   37.60
   1  -6   1  240.38   26.10
   1  -6   1  241.98   29.90
  -1   6  -1  211.18   25.70
   2  -6   2  114.79   22.40
   2  -6   2   63.69   29.10
   2  -6   2  127.19   17.60
   2  -6   2  146.79   20.30
  -2   6  -2  136.79   19.30
   3  -6   3   18.00   30.10
   3  -6   3   15.00   27.90
   3  -6   3   29.00   15.20
  -3   6  -3    6.40    8.30
   4  -6   4   25.30   37.80
   4  -6   4   -7.90   28.00
  -7  -7  -7   18.80   10.00
   7   7   7   10.60   30.90
  -6  -7  -6   44.60   12.30
  -6  -7  -6   53.59   12.70
   6   7   6   38.20   29.20
  -5  -7  -5   11.50    8.00
  -5  -7  -5   19.30    8.90
   5   7   5   12.00   22.00
  -4  -7  -4   81.79   13.50
  -4  -7  -4   88.09   13.80
  -4  -7  -4   60.19   15.30
   4   7   4   99.49   13.70
   4   7   4   70.19   22.90
  -2  -7  -2  130.69   23.90
  -2  -7  -2  140.59   19.80
  -2  -7  -2  201.08   20.70
   2   7   2  124.39   18.80
  -1  -7  -1   81.29   13.90
  -1  -7  -1   68.09   19.40
  -1  -7  -1   42.90   13.90
   1   7   1  121.09   29.40
   0  -7   0   40.60   10.90
   0  -7   0   41.20   13.50
   0  -7   0   23.60   19.20
   0   7   0   36.60   10.70
   1  -7   1   29.40   22.10
   1  -7   1   36.90   11.70
   1  -7   1   30.70   13.80
  -1   7  -1   24.10   10.10
   2  -7   2  -19.50   26.50
   2  -7   2   34.80   29.50
   2  -7   2   41.30   16.50
  -2   7  -2   36.50   11.60
   3  -7   3   77.19   42.50
   3  -7   3   68.49   23.10
  -3   7  -3   61.99   16.00
  -6  -8  -6   -3.60    7.60
  -6  -8  -6   -0.90   10.30
  -5  -8  -5  133.69   19.20
  -5  -8  -5   97.59   17.30
  -4  -8  -4   10.30    7.60
  -4  -8  -4   11.60   11.10
  -4  -8  -4    7.70    5.90
   4   8   4    8.90    7.50
  -3  -8  -3   44.90   14.10
  -3  -8  -3   54.69   11.40
  -3  -8  -3   24.00    8.20
   3   8   3   17.60   27.10
   3   8   3   36.90   11.00
  -2  -8  -2   73.09   19.60
  -2  -8  -2  101.99   16.60
  -1  -8  -1   66.39   13.80
  -1  -8  -1   63.49   22.30
  -1  -8  -1   22.90   14.90
   1   8   1  149.49   35.80
   0  -8   0  184.88   25.10
   0  -8   0  138.59   26.60
   1  -8   1   45.10   15.90
  -1   8  -1   15.90   11.20
   2  -8   2  181.28   34.00
   2  -8   2  180.78   50.39
  -2   8  -2  190.18   28.20
  -6  -9  -6   26.50   12.20
  -6  -9  -6   39.30   13.00
  -5  -9  -5   15.90    8.30
  -5  -9  -5    0.00    8.20
  -4  -9  -4   77.19   15.80
  -4  -9  -4   61.29   13.70
  -4  -9  -4   83.39   20.90
   4   9   4   73.09   18.70
  -3  -9  -3   60.29   12.80
  -3  -9  -3   45.50   15.30
  -2  -9  -2    5.80   12.70
  -1  -9  -1   12.40   11.90
   0  -9   0   32.50   15.20
   1  -9   1   44.50   18.10
  -5 -10  -5   17.30   12.40
  -5 -10  -5   10.10    9.70
  -4 -10  -4   15.90   10.90
  -4 -10  -4   13.90   15.90
  -3 -10  -3   29.50   10.70
  -3 -10  -3   43.90   16.70
  -2 -10  -2   46.30   18.90
  -1 -10  -1   -0.30   15.60
   0 -10   0   -5.30   15.40
  -4 -11  -4   28.10   19.10
  -4 -11  -4   17.60   11.90
  -3 -11  -3   -1.00   15.70
  -3 -11  -3   22.40   10.60
  -2 -11  -2   -2.10   15.60
  -1 -11  -2    7.90   17.70
  -2 -11  -3   11.30   11.90
  -2 -11  -3    4.90   17.40
  -3 -11  -4    4.00   13.70
  -3 -11  -4    8.70    9.50
  -4 -11  -5   22.40   10.50
  -4 -11  -5   29.70   18.60
   1 -10   0   35.10   20.80
   0 -10  -1   37.30   17.70
  -1 -10  -2   16.60   14.80
  -2 -10  -3    7.80   15.40
  -3 -10  -4   24.10   15.40
  -3 -10  -4   33.50   11.30
  -4 -10  -5   17.00   10.00
  -4 -10  -5   24.60   16.00
  -5 -10  -6   13.90    9.20
   2  -9   1   27.70   20.60
   1  -9   0   58.29   20.00
   0  -9  -1   86.09   23.40
   1   9   2  309.57   55.19
   2   9   3   85.39   31.80
  -2  -9  -3   49.60   17.70
   3   9   4   28.60   25.80
  -3  -9  -4   39.60   10.60
  -3  -9  -4   36.40   15.50
  -4  -9  -5    7.20   12.50
  -4  -9  -5   26.90   11.10
  -4  -9  -5    3.30    8.00
  -5  -9  -6   43.90   11.80
  -5  -9  -6   54.39   15.00
  -6  -9  -7   -4.70    7.70
  -6  -9  -7   -3.00   11.80
   3  -8   2   67.19   23.90
   3  -8   2   75.59   43.40
   2  -8   1   76.39   22.70
   1  -8   0  148.09   27.50
   0  -8  -1  408.16   41.60
   0  -8  -1  346.87   44.00
   1   8   2  166.88   38.40
  -1  -8  -2  200.78   25.10
  -1  -8  -2  188.98   30.20
   3   8   4   54.89   24.40
   3   8   4    2.20    7.50
  -3  -8  -4    9.80    8.20
  -3  -8  -4   13.00   11.30
  -3  -8  -4   27.60    8.70
   4   8   5  123.69   17.50
  -4  -8  -5  111.99   22.00
  -4  -8  -5  128.19   18.40
  -4  -8  -5  168.88   21.50
   5   8   6   36.30   26.70
  -5  -8  -6   26.90   11.20
  -5  -8  -6   26.20    9.60
   6   8   7    5.30   33.30
  -6  -8  -7   21.80    9.10
  -6  -8  -7   14.40   10.80
  -3   7  -2   38.60   12.00
   3  -7   2   36.10   17.00
   3  -7   2   62.39   38.30
  -2   7  -1   26.30   10.90
   2  -7   1   38.70   15.00
   1  -7   0  205.18   27.50
   1  -7   0  236.48   33.20
   0   7   1  171.98   39.50
   0  -7  -1  179.18   23.40
   0  -7  -1  155.28   26.50
   0  -7  -1  153.58   26.50
   1   7   2 1052.79  106.79
   2   7   3  137.89   18.00
  -2  -7  -3  139.59   17.50
  -2  -7  -3  119.19   22.80
  -2  -7  -3  130.89   18.60
  -2  -7  -3  144.59   20.00
   3   7   4   32.60    9.00
  -3  -7  -4   35.60   12.00
  -3  -7  -4   35.60    8.20
  -3  -7  -4   31.00    8.50
   4   7   5   17.70    7.60
  -4  -7  -5   36.20   12.20
  -4  -7  -5   34.70    8.20
  -4  -7  -5   30.60    9.20
  -5  -7  -6  200.38   26.00
  -5  -7  -6  200.58   24.00
   6   7   7   13.60   31.70
   6   7   7    7.00   28.40
  -6  -7  -7   13.80    9.70
  -6  -7  -7   10.40    8.50
   7   7   8   -5.20   32.90
  -4   6  -3   28.70   11.00
   4  -6   3   21.80   34.90
   4  -6   3  -32.50   40.40
  -3   6  -2   49.50   12.50
   3  -6   2   52.59   32.10
   3  -6   2   74.99   19.00
   3  -6   2   32.30   26.80
  -2   6  -1   66.39   12.90
   2  -6   1   87.19   18.20
   2  -6   1   31.70   21.40
   2  -6   1   88.79   14.30
  -1   6   0  299.57   29.80
   1  -6   0  321.97   34.50
   1  -6   0  264.87   29.60
   1  -6   0  215.08   36.50
   0   6   1 2843.32  286.47
   0  -6  -1 3337.07  282.17
   0  -6  -1 2878.61  279.87
   0  -6  -1 3508.15  279.17
   1   6   2  628.64   70.79
   1   6   2  660.23   63.19
  -1  -6  -2  709.53   63.39
  -1  -6  -2  647.14   66.29
  -1  -6  -2  742.83   64.49
   2   6   3   17.00   15.90
   2   6   3   17.70    6.00
  -2  -6  -3   32.20    7.50
  -2  -6  -3   12.20    4.90
  -2  -6  -3   10.80    8.70
  -2  -6  -3    8.10    6.70
   3   6   4  314.67   30.00
  -3  -6  -4  273.27   29.80
  -3  -6  -4  293.57   30.50
  -3  -6  -4  309.57   33.30
   4   6   5  118.09   16.60
   4   6   5  181.38   30.90
  -4  -6  -5  134.09   18.60
  -4  -6  -5  136.89   18.20
   5   6   6   -5.10   20.50
  -5  -6  -6   17.20    8.50
  -5  -6  -6   33.90    9.10
   6   6   7  118.69   41.00
  -6  -6  -7   96.39   17.50
  -6  -6  -7  105.19   17.80
   7   6   8    4.60   27.30
   7   6   8    7.30   31.50
  -7  -6  -8   -4.80    7.40
   5  -5   4   47.30   39.60
   5  -5   4   48.10   29.50
  -4   5  -3   76.19   13.50
   4  -5   3   28.30   23.60
   4  -5   3  104.59   36.30
  -3   5  -2   44.50    9.70
   3  -5   2   41.10   14.00
   3  -5   2   46.20   10.50
   3  -5   2   16.60   19.20
  -2   5  -1  214.18   27.60
   2  -5   1  323.47   33.40
   2  -5   1  276.37   39.40
   2  -5   1  284.77   28.80
  -1   5   0 1803.02  167.08
   1  -5   0 1697.13  166.68
   1  -5   0 1837.22  170.08
   1  -5   0 1991.20  172.88
   1  -5   0 1982.20  167.98
   0   5   1  505.35   62.59
   0  -5  -1  639.94   56.49
   0  -5  -1  588.24   58.89
   0  -5  -1  606.14   55.59
   0  -5  -1  635.54   57.69
   1   5   2  708.73   70.09
   1   5   2  696.03   63.89
  -1  -5  -2  683.83   64.99
  -1  -5  -2  703.13   64.29
  -1  -5  -2  689.83   66.99
   2   5   3  198.28   21.10
  -2  -5  -3  202.48   21.40
  -2  -5  -3  202.48   24.20
  -2  -5  -3  212.98   21.20
  -2  -5  -3  227.38   23.10
   3   5   4  395.36   38.60
  -3  -5  -4  385.26   40.70
  -3  -5  -4  463.05   39.70
  -3  -5  -4  383.16   39.30
  -3  -5  -4  408.26   39.10
   4   5   5    9.90   15.80
   4   5   5   12.70    5.60
  -4  -5  -5   14.00    5.90
  -4  -5  -5   10.50    6.10
   5   5   6   95.49   14.50
   5   5   6   79.19   29.60
   5   5   6  121.89   33.70
  -5  -5  -6  123.29   16.50
  -5  -5  -6  121.09   16.50
   6   5   7   48.20   28.20
   6   5   7   22.10   28.00
  -6  -5  -7   41.70   11.60
  -6  -5  -7   29.30    9.40
   7   5   8   27.00   28.10
   7   5   8  -13.00   32.00
  -7  -5  -8    9.30    8.60
  -5   4  -4   58.19   11.50
   5  -4   4   27.10   31.30
   5  -4   4   27.70   25.20
  -4   4  -3   78.99   12.00
   4  -4   3   61.89   27.80
   4  -4   3   41.10   23.70
  -3   4  -2   99.19   12.80
   3  -4   2   88.79   12.80
   3  -4   2   64.59   23.20
   3  -4   2   62.79   14.50
  -2   4  -1  353.06   40.70
   2  -4   1  451.45   41.30
   2  -4   1  504.15   51.09
  -1   4   0  123.69   15.10
   1  -4   0  138.19   15.20
   1  -4   0  125.79   20.50
   1  -4   0  118.89   15.70
   1  -4   0  142.79   18.30
   0   4   1  291.17   30.80
   0   4   1  258.97   36.90
   0   4   1  319.47   31.00
   0  -4  -1  352.16   32.20
   0  -4  -1  363.46   31.10
   0  -4  -1  326.17   33.60
   0  -4  -1  325.97   31.40
   1   4   2 1840.52  176.78
   1   4   2 2164.98  172.88
  -1  -4  -2 1631.54  172.78
  -1  -4  -2 2111.09  174.18
  -1  -4  -2 1902.11  172.58
  -1  -4  -2 2064.09  175.58
   2   4   3   40.80    9.30
   2   4   3   53.59    7.30
  -2  -4  -3   53.19   10.70
  -2  -4  -3   44.90    7.30
  -2  -4  -3   53.89    9.30
  -2  -4  -3   43.20    7.80
   3   4   4  579.54   52.99
  -3  -4  -4  601.74   53.49
  -3  -4  -4  569.04   53.59
  -3  -4  -4  561.94   53.79
  -3  -4  -4  567.94   53.09
   4   4   5  110.19   13.20
  -4  -4  -5   95.69   14.70
  -4  -4  -5  138.79   15.90
   5   4   6  166.18   39.70
   5   4   6  150.78   17.30
   5   4   6  124.29   33.40
  -5  -4  -6  154.88   19.80
  -5  -4  -6  160.08   19.80
   6   4   7   67.89   32.70
   6   4   7    4.70   26.80
  -6  -4  -7   65.59   12.50
  -6  -4  -7   47.80   11.00
   7   4   8   -2.50   32.10
   7   4   8   -2.40   23.80
  -7  -4  -8   -3.40    7.10
   6  -3   5    6.90   33.70
   6  -3   5    0.70   23.40
  -5   3  -4   20.40    7.00
   5  -3   4   46.70   29.70
   5  -3   4   51.29   28.00
  -4   3  -3    6.30    4.70
   4  -3   3   -5.90   14.10
   4  -3   3   21.40   19.30
   4  -3   3   -3.40    5.50
  -2   3  -1  546.15   45.90
   2  -3   1  451.25   52.29
   2  -3   1  554.14   45.90
   2  -3   1  402.46   46.50
   2  -3   1  502.95   48.80
  -1   3   0 1491.15  148.19
  -1   3   0 1633.14  155.98
   1  -3   0 1690.23  148.19
   1  -3   0 1650.63  151.78
   1  -3   0 1721.33  150.98
   1  -3   0 1820.22  149.09
   0   3   1  708.53   76.89
   0   3   1  788.32   72.69
   0   3   1  780.12   72.89
   0  -3  -1  909.31   73.59
   0  -3  -1  869.31   72.79
   0  -3  -1  820.12   73.19
   0  -3  -1  791.22   75.09
   1   3   2 4217.38  382.16
   1   3   2 4130.39  385.16
  -1  -3  -2 4202.58  383.26
  -1  -3  -2 4611.44  382.66
  -1  -3  -2 4649.53  382.36
  -1  -3  -2 4314.07  382.26
  -1  -3  -2 4307.47  384.26
   2   3   3  129.89   12.20
   2   3   3  106.39   14.00
   2   3   3  128.19   17.00
  -2  -3  -3  109.59   13.70
  -2  -3  -3  114.79   11.70
  -2  -3  -3  107.39   13.40
  -2  -3  -3  105.09   12.30
  -2  -3  -3  114.99   12.20
   3   3   4  506.15   43.50
  -3  -3  -4  441.76   42.80
  -3  -3  -4  485.75   44.20
  -3  -3  -4  436.56   43.90
  -3  -3  -4  483.25   43.00
   4   3   5  335.87   45.60
   4   3   5  283.67   36.40
   4   3   5  387.96   34.00
  -4  -3  -5  357.66   34.70
  -4  -3  -5  368.76   34.70
   5   3   6   27.10   21.20
   5   3   6   29.10    6.50
   5   3   6    6.40   20.60
  -5  -3  -6   29.60    7.80
  -5  -3  -6   24.50    7.20
   6   3   7   71.69   28.90
   6   3   7   90.29   34.20
  -6  -3  -7   97.29   15.60
  -6  -3  -7   82.59   14.60
   7   3   8   -0.70   33.80
   7   3   8   26.40   27.50
  -7  -3  -8   49.20   12.20
  -6   2  -5   13.40    7.00
   6  -2   5   12.30   31.00
   6  -2   5    0.70   22.90
  -5   2  -4   47.50    9.00
   5  -2   4   57.79   26.50
   5  -2   4   72.09   28.90
  -4   2  -3  145.49   16.00
   4  -2   3  143.89   31.60
   4  -2   3  129.49   18.10
   4  -2   3  157.38   16.70
   4  -2   3  206.28   38.10
  -3   2  -2  113.89   13.20
   3  -2   2  126.49   13.40
   3  -2   2  121.29   15.60
   3  -2   2  159.88   29.70
   3  -2   2  142.49   18.80
  -2   2  -1  440.96   47.00
   2  -2   1  508.15   49.99
   2  -2   1  545.35   46.50
   2  -2   1  569.34   46.80
  -1   2   0 2563.74  253.97
  -1   2   0 3074.39  248.58
   1  -2   0 2559.94  247.98
   1  -2   0 2726.43  247.88
   1  -2   0 2978.90  251.37
   1  -2   0 3042.80  250.87
   0   2   1 3342.17  315.67
   0   2   1 3551.54  315.37
   0   2   1 3429.66  318.37
   0  -2  -1 3636.54  315.27
   0  -2  -1 3515.85  317.37
   0  -2  -1 3748.53  315.97
   0  -2  -1 3631.84  315.47
   0  -2  -1 3832.82  315.37
   1   2   2  720.43   66.09
   1   2   2  730.93   64.09
  -1  -2  -2  699.03   64.79
  -1  -2  -2  696.23   63.99
   2   2   3 1591.14  135.09
  -2  -2  -3 1520.95  134.69
  -2  -2  -3 1489.35  135.49
  -2  -2  -3 1534.65  135.49
  -2  -2  -3 1516.15  135.39
  -2  -2  -3 1492.35  134.89
   3   2   4  166.08   28.30
   3   2   4  101.29   14.80
   3   2   4  100.59   11.30
  -3  -2  -4  102.49   12.80
  -3  -2  -4   89.99   11.60
   4   2   5   41.70   21.70
   4   2   5   65.99    9.60
   4   2   5  110.29   28.80
  -4  -2  -5   82.69   11.50
  -4  -2  -5   79.99   11.10
   5   2   6    6.00   21.00
   5   2   6   39.20    7.80
   5   2   6   12.90   20.20
  -5  -2  -6   29.20    7.50
  -5  -2  -6   26.00    8.10
   6   2   7   -0.60   19.40
   6   2   7    9.20   27.30
  -6  -2  -7    7.90    7.00
  -6  -2  -7    1.20    5.40
   7   2   8   21.60   28.40
   7   2   8   14.20   37.00
  -7  -2  -8    2.60    9.40
  -6   1  -5   11.60    5.70
   6  -1   5   10.20   19.50
   6  -1   5   16.90   27.00
  -5   1  -4  119.09   13.40
   5  -1   4  114.39   13.50
   5  -1   4   93.79   31.80
   5  -1   4  100.19   31.90
  -4   1  -3   92.19   10.60
  -4   1  -3   84.09   12.60
   4  -1   3  105.09   27.80
   4  -1   3   88.59   27.40
   4  -1   3   91.79   10.80
   4  -1   3   88.99   13.70
  -3   1  -2  113.39   12.60
  -3   1  -2  109.99   11.40
   3  -1   2  170.08   29.90
   3  -1   2   93.39   13.40
  -2   1  -1  132.59   12.70
  -2   1  -1  138.79   13.60
   2  -1   1  110.89   14.90
   2  -1   1  163.78   21.00
  -1   1   0  382.96   34.60
   0   1   1  595.24   52.59
   0   1   1  562.34   51.99
   0   1   1  567.14   53.39
   0  -1  -1  528.05   53.29
   0  -1  -1  573.44   51.69
   0  -1  -1  632.14   51.59
   0  -1  -1  578.54   52.09
   1   1   2  619.84   58.29
   1   1   2  670.13   58.19
   1   1   2  676.23   58.19
   1   1   2  679.63   61.49
   1   1   2  606.24   59.09
   1   1   2  728.23   61.09
  -1  -1  -2  614.24   58.29
  -1  -1  -2  720.13   59.19
  -1  -1  -2  648.84   58.19
  -1  -1  -2  599.54   57.99
  -1  -1  -2  595.44   58.69
   2   1   3   70.49   11.10
   2   1   3   77.39   14.60
   2   1   3   78.49    8.40
  -2  -1  -3   81.99    7.90
  -2  -1  -3   70.29    8.70
  -2  -1  -3   82.89    8.70
  -2  -1  -3   64.89    8.60
   3   1   4  468.05   55.99
   3   1   4  452.65   50.39
   3   1   4  524.95   58.09
  -3  -1  -4  626.04   49.50
  -3  -1  -4  595.64   49.50
   4   1   5  248.08   24.70
   4   1   5  224.58   36.40
  -4  -1  -5  259.57   25.80
  -4  -1  -5  254.37   25.50
   5   1   6   44.30   25.50
   5   1   6   38.90   22.30
  -5  -1  -6   44.00    9.40
  -5  -1  -6   39.50    9.10
   6   1   7   11.80   26.90
   6   1   7   28.50   22.70
  -6  -1  -7   17.90    7.60
  -6  -1  -7   12.30    7.30
   7   0   6  -14.80   28.90
   7   0   6   10.50   23.80
  -6   0  -5   20.90    6.40
  -6   0  -5   15.60    8.00
   6   0   5   17.50   21.00
   6   0   5   13.40   28.20
  -5   0  -4   36.90    6.60
  -5   0  -4   18.70    6.90
   5   0   4   83.09   30.10
   5   0   4   26.50    5.90
   5   0   4   27.50   21.70
  -4   0  -3  304.77   28.70
  -4   0  -3  290.97   27.00
   4   0   3  328.07   26.60
   4   0   3  265.37   27.70
   4   0   3  250.87   26.80
   4   0   3  254.97   39.20
  -3   0  -2   75.59    8.10
  -3   0  -2   71.09    9.70
   3   0   2   85.99   11.60
   3   0   2   47.60   16.50
   3   0   2  136.69   25.20
  -2   0  -1  387.36   34.00
  -2   0  -1  368.26   33.90
  -2   0  -1  384.06   33.00
   2   0   1  386.56   38.70
   2   0   1  304.87   35.10
  -1   0   0 4727.83  410.76
  -1   0   0 4608.44  410.36
   0   0   1 1336.17  136.69
   0   0   1 1465.95  136.59
   0   0   1 1565.84  137.19
   0   0   1 1597.14  137.09
   0   0   1 1451.75  138.19
   0   0  -1 1487.15  137.09
   0   0  -1 1735.13  136.69
   0   0  -1 1694.63  136.79
   1   0   2 1083.19   97.69
   1   0   2 1104.19   97.79
  -1   0  -2 1125.09   97.79
   2   0   3  271.37   25.00
   2   0   3  274.37   31.40
   2   0   3  234.68   24.40
   2   0   3  250.47   26.70
  -2   0  -3  293.97   24.40
  -2   0  -3  271.47   25.40
  -2   0  -3  274.67   25.30
   3   0   4  364.96   31.90
   3   0   4  423.26   43.90
   3   0   4  243.88   33.70
   3   0   4  300.57   41.90
  -3   0  -4  314.97   32.00
  -3   0  -4  368.86   32.70
   4   0   5  126.99   15.80
   4   0   5  145.29   34.00
   4   0   5  199.68   34.70
  -4   0  -5  146.59   16.70
  -4   0  -5  136.49   17.20
   5   0   6   39.80   25.30
   5   0   6   53.79   26.50
  -5   0  -6   55.99   10.20
   6   0   7   18.70   29.30
   6   0   7    5.30   22.20
  -6   0  -7    7.30    7.80
  -7  -1  -6   13.90    8.40
   7   1   6    8.00   24.20
   7   1   6   30.10   41.10
  -6  -1  -5   34.20    7.10
  -6  -1  -5   19.40    7.50
   6   1   5   41.00   24.10
   6   1   5    9.60   28.00
  -5  -1  -4  127.79   16.50
  -5  -1  -4  136.89   14.20
   5   1   4  111.09   13.10
   5   1   4  139.59   34.20
  -4  -1  -3   22.90    4.50
  -4  -1  -3   22.50    5.70
   4   1   3   15.20    3.20
   4   1   3   -0.50   18.40
   4   1   3   20.80    5.60
   4   1   3   21.00    4.80
  -3  -1  -2  339.17   34.50
  -3  -1  -2  416.96   34.60
  -3  -1  -2  384.86   35.70
  -2  -1  -1  335.37   30.70
  -2  -1  -1  354.66   31.70
  -2  -1  -1  336.77   31.60
  -1  -1   0  521.25   43.20
  -1  -1   0  481.45   42.30
  -1  -1   0  417.16   42.40
   1   1   0  477.25   42.50
   0  -1   1  165.38   16.50
   0  -1   1  194.48   17.60
   0  -1   1  142.29   19.40
   0  -1   1  190.18   16.70
   0  -1   1  165.98   18.20
   0  -1   1  173.68   17.40
   0   1  -1  188.08   16.70
   0   1  -1  175.38   17.50
   0   1  -1  175.88   16.70
   1  -1   2  527.95   50.59
   1  -1   2  565.64   52.39
   1  -1   2  533.95   47.30
   1  -1   2  450.95   46.50
   1  -1   2  540.15   48.50
  -1   1  -2  511.85   46.80
   2  -1   3  170.98   17.50
   2  -1   3  147.99   17.70
   2  -1   3  236.98   27.40
   2  -1   3  181.38   20.80
   2  -1   3  197.18   25.30
  -2   1  -3  189.28   18.00
   3  -1   4  306.77   33.00
   3  -1   4  375.86   33.50
   3  -1   4  374.46   45.30
   3  -1   4  424.66   45.70
   3  -1   4  272.87   36.50
  -3   1  -4  365.66   33.60
   4  -1   5  107.19   13.50
   4  -1   5  136.99   30.30
   4  -1   5   86.79   29.00
  -4   1  -5  110.29   14.40
   5  -1   6  105.99   31.60
   5  -1   6   61.99   29.00
  -5   1  -6  119.09   15.40
   6  -1   7    9.50   26.20
   6  -1   7    8.20   31.10
  -7  -2  -6    1.50    5.80
  -7  -2  -6    4.40    6.20
   7   2   6    3.10   21.30
   7   2   6  -11.60   32.70
  -6  -2  -5   12.90    5.90
  -6  -2  -5   19.80    7.40
   6   2   5   44.50   28.10
   6   2   5   -7.10   26.70
  -5  -2  -4  128.29   17.20
  -5  -2  -4  136.19   14.70
   5   2   4  137.59   13.90
   5   2   4  137.99   34.20
   5   2   4   80.19   31.30
  -4  -2  -3  653.93   56.39
  -4  -2  -3  562.54   55.59
  -4  -2  -3  649.14   57.89
   4   2   3  590.04   56.19
   4   2   3  651.53   55.39
  -3  -2  -2  240.48   23.50
  -3  -2  -2  244.48   24.00
  -3  -2  -2  246.98   23.00
   3   2   2  238.18   22.30
   3   2   2  242.58   22.00
  -2  -2  -1  240.08   21.10
  -2  -2  -1  219.08   21.00
  -2  -2  -1  199.08   21.20
  -2  -2  -1  209.38   20.30
   2   2   1  243.38   20.20
   2   2   1  202.48   19.70
  -1  -2   0 2594.24  248.78
  -1  -2   0 3154.58  248.68
  -1  -2   0 2801.82  249.38
   1   2   0 2543.25  249.08
   1   2   0 3062.39  249.68
   0  -2   1  345.47   34.00
   0  -2   1  368.56   34.10
   0  -2   1  406.46   35.10
   0  -2   1  411.16   35.60
   0  -2   1  352.26   37.90
   0   2  -1  379.86   35.20
   0   2  -1  344.37   34.00
   1  -2   2  501.45   49.10
   1  -2   2  593.24   53.29
  -1   2  -2  489.05   48.10
   2  -2   3  870.51   77.29
   2  -2   3  798.02   76.09
   2  -2   3 1000.90   87.09
   2  -2   3  748.63   78.59
  -2   2  -3  827.62   76.09
   3  -2   4  434.86   50.79
   3  -2   4  321.47   48.70
   3  -2   4  427.06   38.60
   3  -2   4  360.86   38.90
  -3   2  -4  455.85   38.90
   4  -2   5   92.09   29.10
   4  -2   5   62.49   11.10
   4  -2   5   53.39   26.20
  -4   2  -5   65.29   11.00
   5  -2   6   -6.70   21.50
   5  -2   6   33.20   28.60
  -5   2  -6    7.10    6.90
   6  -2   7    2.80   33.40
  -7  -3  -6   10.70    6.90
  -7  -3  -6   20.00    8.70
   7   3   6   37.00   29.30
   7   3   6  -11.60   31.00
  -6  -3  -5   94.19   13.40
  -6  -3  -5  104.49   16.00
   6   3   5  122.09   35.30
  -5  -3  -4    1.80    4.00
  -5  -3  -4   12.10    5.30
   5   3   4   -0.40    3.00
   5   3   4   -4.70   18.90
  -4  -3  -3  261.37   28.10
  -4  -3  -3  268.87   27.00
  -4  -3  -3  275.67   27.20
   4   3   3  302.17   27.90
   4   3   3  277.57   26.10
  -3  -3  -2 1431.36  125.79
  -3  -3  -2 1441.06  126.59
  -3  -3  -2 1375.76  126.59
   3   3   2 1365.46  125.79
   3   3   2 1447.76  125.09
  -2  -3  -1   79.99    9.60
  -2  -3  -1  112.69   12.30
  -2  -3  -1   86.99    9.50
  -2  -3  -1   86.39   12.10
  -2  -3  -1   92.29    8.40
  -2  -3  -1   74.69    8.00
   2   3   1   75.59    9.70
   2   3   1   82.49    8.80
  -1  -3   0  760.42   71.99
  -1  -3   0  762.52   73.29
  -1  -3   0  864.41   74.49
  -1  -3   0  874.81   71.39
  -1  -3   0  726.23   71.49
   1   3   0  696.13   72.19
   1   3   0  834.02   71.79
   1   3   0  917.01   73.99
   1   3   0  704.63   71.99
   0  -3   1 2948.10  240.88
   0  -3   1 2824.62  242.18
   0  -3   1 3000.90  241.28
   0  -3   1 2867.61  245.18
   0  -3   1 2455.95  240.18
   0   3  -1 2515.05  241.08
   0   3  -1 2633.74  240.58
   0   3  -1 2526.55  240.58
   1  -3   2  518.55   51.39
   1  -3   2  547.65   49.80
   1  -3   2  572.24   55.69
   1  -3   2  506.55   57.39
   1  -3   2  555.24   52.09
  -1   3  -2  592.94   50.09
  -1   3  -2  471.25   50.79
   2  -3   3  199.48   23.30
   2  -3   3  182.08   31.20
   2  -3   3  228.08   21.70
   2  -3   3  160.38   25.20
   2  -3   3  218.78   30.70
  -2   3  -3  224.88   21.70
   3  -3   4  174.68   22.70
   3  -3   4  286.67   26.20
   3  -3   4  150.18   36.70
  -3   3  -4  244.58   23.20
   4  -3   5   34.70   25.70
   4  -3   5   11.70   23.10
  -4   3  -5   10.70    6.90
   5  -3   6   35.60   29.30
   5  -3   6   22.50   32.40
  -5   3  -6   41.50   10.50
  -7  -4  -6   -1.40    5.80
  -7  -4  -6    4.20    6.60
   7   4   6    9.00   29.50
   7   4   6    1.80   27.20
  -6  -4  -5   93.69   15.90
  -6  -4  -5   94.59   13.90
  -5  -4  -4   26.40    7.00
  -5  -4  -4   12.50    6.70
   5   4   4   -8.00   18.30
   5   4   4   24.10    5.70
  -4  -4  -3  308.57   31.90
  -4  -4  -3  338.47   31.30
  -4  -4  -3  309.67   31.80
   4   4   3  318.47   32.50
   4   4   3  320.47   30.30
  -3  -4  -2 1146.89   99.69
  -3  -4  -2 1058.49   98.69
  -3  -4  -2 1065.59  100.29
   3   4   2 1242.88  101.99
   3   4   2 1076.29   98.19
   3   4   2  990.00   99.29
  -2  -4  -1  358.46   38.70
  -2  -4  -1  398.16   36.40
  -2  -4  -1  387.26   37.00
  -2  -4  -1  397.66   37.10
  -2  -4  -1  453.65   38.30
   2   4   1  388.46   37.70
   2   4   1  382.06   36.40
  -1  -4   0 1296.17  119.59
   1   4   0 1307.67  119.99
   0  -4   1  540.95   46.00
   0  -4   1  500.15   46.20
   0  -4   1  454.75   45.00
   0  -4   1  488.55   47.60
   0  -4   1  530.55   51.99
   0   4  -1  476.75   46.50
   0   4  -1  400.06   45.30
   1  -4   2  496.55   44.30
   1  -4   2  434.76   41.10
   1  -4   2  451.45   51.59
   1  -4   2  417.06   43.60
  -1   4  -2  427.06   41.40
  -1   4  -2  378.46   42.10
   2  -4   3  429.26   42.20
   2  -4   3  375.56   38.90
   2  -4   3  498.35   54.39
  -2   4  -3  344.87   38.60
   3  -4   4  103.79   15.20
   3  -4   4   55.89   26.60
   3  -4   4  119.09   18.60
   3  -4   4  158.58   34.60
  -3   4  -4   98.19   15.20
   4  -4   5   18.70   27.50
   4  -4   5  -13.00   23.10
  -4   4  -5    5.40    7.10
   5  -4   6   24.20   37.30
   5  -4   6   11.70   27.40
  -7  -5  -6   12.40    8.60
  -7  -5  -6    6.60    6.60
   7   5   6   16.90   34.30
   7   5   6    1.80   30.10
  -6  -5  -5   43.40   10.60
  -6  -5  -5   21.00    8.20
   6   5   5   -5.00   23.20
  -5  -5  -4   71.09   12.70
  -5  -5  -4   73.79   12.30
   5   5   4   75.79   10.90
  -4  -5  -3  308.17   30.30
  -4  -5  -3  294.57   29.20
  -4  -5  -3  303.67   28.60
   4   5   3  213.38   33.80
   4   5   3  304.47   27.70
  -3  -5  -2  170.58   32.00
  -3  -5  -2  249.78   25.80
  -3  -5  -2  253.87   25.60
  -3  -5  -2  297.47   23.90
  -3  -5  -2  249.38   28.10
   3   5   2  252.67   25.00
   3   5   2  223.48   26.30
   3   5   2  234.98   29.50
  -2  -5  -1   39.80   11.80
  -2  -5  -1   71.39    9.90
  -2  -5  -1   82.49   11.60
   2   5   1   91.39   10.80
  -1  -5   0  314.67   32.30
  -1  -5   0  373.56   33.60
  -1  -5   0  329.97   35.70
   1   5   0  252.57   33.00
   1   5   0  405.76   34.30
   1   5   0  333.67   39.50
   0  -5   1  358.16   31.80
   0  -5   1  386.36   34.80
   0  -5   1  277.37   30.40
   0  -5   1  343.27   39.30
   0   5  -1  261.87   31.30
   0   5  -1  250.57   32.00
   1  -5   2  882.31   99.89
   1  -5   2  977.90   93.19
   1  -5   2 1004.80   90.19
  -1   5  -2 1057.59   90.99
   2  -5   3  128.79   36.70
   2  -5   3  211.18   28.10
   2  -5   3  202.58   36.60
   2  -5   3  173.38   21.20
  -2   5  -3  188.18   23.20
   3  -5   4   43.90   32.00
   3  -5   4  144.69   40.10
   3  -5   4  122.79   20.70
  -3   5  -4  114.69   17.50
   4  -5   5    1.40   32.50
   4  -5   5   36.30   37.90
  -4   5  -5   13.30    8.40
  -7  -6  -6   15.00    9.10
  -7  -6  -6    9.00    8.10
  -6  -6  -5  136.69   18.90
  -6  -6  -5  136.29   20.50
  -5  -6  -4   31.10    8.50
  -5  -6  -4   32.80    8.30
   5   6   4   -1.10   17.60
   5   6   4   37.20    7.70
  -4  -6  -3   32.40    7.90
  -4  -6  -3   30.00   10.70
  -4  -6  -3   37.40    8.60
   4   6   3   35.70    7.30
  -3  -6  -2  569.84   56.69
  -3  -6  -2  645.94   57.19
  -3  -6  -2  592.04   59.89
   3   6   2  597.64   56.19
  -2  -6  -1  354.56   42.10
  -2  -6  -1  424.56   38.80
   2   6   1  364.96   39.30
   2   6   1  432.56   44.90
  -1  -6   0  266.27   26.90
  -1  -6   0  293.17   33.00
  -1  -6   0  280.07   30.80
   1   6   0  243.58   28.60
   1   6   0  202.18   27.90
   0  -6   1 1095.49  103.69
   0  -6   1 1145.29  111.79
   0  -6   1 1278.77  108.09
   0   6  -1 1038.70  104.79
   1  -6   2  245.68   29.20
   1  -6   2  226.48   40.80
   1  -6   2  228.58   25.70
  -1   6  -2  206.68   28.10
   2  -6   3  119.19   23.10
   2  -6   3  186.28   39.90
   2  -6   3   97.39   32.60
  -2   6  -3  100.39   18.10
   3  -6   4   49.40   34.20
   3  -6   4  163.18   46.00
  -3   6  -4   73.79   16.10
   4  -6   5   -3.70   33.60
  -7  -7  -6    1.00    8.50
  -6  -7  -5   -2.90    6.50
  -6  -7  -5    6.50    6.90
  -5  -7  -4   73.99   12.80
  -5  -7  -4   52.39   11.80
  -4  -7  -3    8.90   10.10
  -4  -7  -3   16.40    7.80
  -4  -7  -3   20.10    7.30
   4   7   3   18.60    6.50
  -3  -7  -2   54.69   10.70
  -3  -7  -2   51.79   14.90
  -3  -7  -2   51.59   10.90
   3   7   2   59.79   11.20
  -2  -7  -1   57.79   16.50
  -2  -7  -1   86.89   15.00
  -2  -7  -1   66.39   21.70
   2   7   1  152.38   28.20
   2   7   1   82.59   15.80
  -1  -7   0  375.86   41.30
  -1  -7   0  303.97   32.20
  -1  -7   0  290.57   36.60
   1   7   0  260.27   34.00
   0  -7   1   32.40   21.50
   0  -7   1   12.40    7.80
   0  -7   1   13.10   10.80
   0   7  -1   20.40   10.10
   1  -7   2   26.20    9.60
   1  -7   2    9.70   25.80
   1  -7   2   32.00   13.50
   1  -7   2   41.00   23.60
  -1   7  -2   23.80   11.20
   2  -7   3  313.57   55.09
   2  -7   3  195.88   51.59
   2  -7   3  238.38   35.10
  -2   7  -3  147.89   27.00
   3  -7   4   26.40   40.40
   3  -7   4   86.29   44.50
  -6  -8  -5   52.99   13.00
  -6  -8  -5   75.29   14.40
  -5  -8  -4    9.60    9.10
  -5  -8  -4   21.90    7.80
  -4  -8  -3   20.60    8.40
  -4  -8  -3   21.20   11.50
  -4  -8  -3   17.40    8.70
   4   8   3   24.90    9.40
  -3  -8  -2  103.49   16.40
  -3  -8  -2   77.69   18.80
  -3  -8  -2   84.79   13.70
   3   8   2   87.29   16.20
  -2  -8  -1  108.89   22.20
  -2  -8  -1  140.09   20.40
  -1  -8   0  110.09   21.60
  -1  -8   0   79.39   25.00
   0  -8   1  140.99   19.40
   0  -8   1   78.99   28.90
   0  -8   1  129.29   23.30
   0   8  -1  101.89   19.70
   1  -8   2  327.77   39.00
   1  -8   2  251.37   51.49
   1  -8   2  291.67   51.29
  -1   8  -2  248.38   35.10
   2  -8   3   19.60   15.50
   2  -8   3   76.49   38.20
  -2   8  -3   26.70   14.30
  -6  -9  -5   12.50   10.50
  -6  -9  -5   10.20    9.60
  -5  -9  -4   37.20   12.40
  -5  -9  -4   20.50    9.20
  -4  -9  -3   53.79   17.20
  -4  -9  -3   45.50   12.10
  -4  -9  -3   10.10    9.70
  -3  -9  -2   13.50    8.10
  -3  -9  -2   17.80   13.20
  -3  -9  -2   21.00   10.20
  -2  -9  -1    1.10   10.70
  -1  -9   0   22.30   14.70
   0  -9   1  131.89   26.00
   0   9  -1   85.89   21.80
   1  -9   2   49.99   19.90
  -1   9  -2   46.70   17.70
  -5 -10  -4   26.30   13.70
  -5 -10  -4   25.90   11.20
  -4 -10  -3   28.80   17.00
  -4 -10  -3   13.60    9.30
  -3 -10  -2   26.50   10.20
  -3 -10  -2   29.50   16.70
  -2 -10  -1   -8.10   12.10
  -1 -10   0    9.60   15.60
   0 -10   1    7.30   19.00
  -3 -11  -2   -3.10   14.90
  -3 -11  -2    6.30    9.50
  -1 -11  -3   28.40   20.40
  -2 -11  -4   23.80   11.70
  -2 -11  -4   24.70   18.60
  -3 -11  -5    6.60   16.30
  -3 -11  -5   16.40   10.10
   1 -10  -1   -7.20   14.60
   0 -10  -2   46.90   21.30
   1  10   3    4.60   34.30
  -1 -10  -3    6.60   14.00
   2  10   4   61.29   36.20
  -2 -10  -4   30.40   17.60
  -2 -10  -4   41.10   11.80
   3  10   5   65.69   37.10
  -3 -10  -5   78.69   16.00
  -3 -10  -5   87.49   21.40
  -4 -10  -6   56.19   13.20
  -5 -10  -7   13.10    9.10
   2  -9   0   94.89   26.40
   1  -9  -1   86.79   23.10
   0   9   2  139.39   43.20
   0  -9  -2  120.89   27.50
   1   9   3  183.78   43.50
  -1  -9  -3  197.98   28.00
  -1  -9  -3  147.29   30.20
   2   9   4   46.30   29.30
  -2  -9  -4   10.60   13.40
  -2  -9  -4   10.90    7.40
   3   9   5   49.50   27.80
  -3  -9  -5    7.90   12.10
  -3  -9  -5   29.90    9.10
   4   9   6   63.49   31.70
  -4  -9  -6  154.18   18.90
   5   9   7    1.30   24.90
  -5  -9  -7   -4.50    9.40
  -5  -9  -7   24.60    9.40
   3  -8   1   17.50   18.60
   2  -8   0  144.99   29.40
   1  -8  -1  210.68   34.50
   0   8   2  269.97   54.69
   0  -8  -2  292.57   41.50
   0  -8  -2  287.37   34.20
   1   8   3   63.09   29.20
  -1  -8  -3   38.90   12.70
  -1  -8  -3   29.30   15.20
   2   8   4   55.19   24.60
  -2  -8  -4   19.80   13.20
  -2  -8  -4   25.80   12.00
  -2  -8  -4   24.90    7.50
   3   8   5  110.09   31.20
  -3  -8  -5   71.59   17.80
  -3  -8  -5   53.69   13.50
  -3  -8  -5   60.69   12.00
   4   8   6   29.10   26.50
   4   8   6    0.00    7.10
  -4  -8  -6   -1.60    6.80
  -4  -8  -6    0.50    6.60
   5   8   7   23.10   29.90
  -5  -8  -7   -9.30    8.90
  -5  -8  -7   10.10    7.80
   6   8   8    5.30   33.20
  -6  -8  -8   -8.50   10.00
  -6  -8  -8    1.00    9.30
   4  -7   2   73.29   44.20
   3  -7   1   46.00   17.80
   2  -7   0   33.60   16.40
   1  -7  -1   42.60   14.90
   1  -7  -1   52.19   11.90
   0   7   2  309.17   49.90
   0  -7  -2  348.17   36.30
   0  -7  -2  338.77   39.30
   1   7   3  173.78   34.60
  -1  -7  -3  123.39   22.90
  -1  -7  -3  134.69   20.80
   2   7   4  146.79   20.00
   2   7   4  195.58   34.30
  -2  -7  -4  173.68   27.00
  -2  -7  -4  149.29   21.00
  -2  -7  -4  169.38   23.60
  -2  -7  -4  166.58   18.90
   3   7   5  139.59   16.90
   3   7   5  113.09   27.40
  -3  -7  -5  119.99   21.20
  -3  -7  -5  127.79   17.10
  -3  -7  -5  140.39   19.10
   4   7   6  446.16   43.50
   4   7   6  400.66   56.39
  -4  -7  -6  431.46   43.50
  -4  -7  -6  473.75   44.90
   5   7   7   62.59   31.60
   5   7   7    7.90   22.80
  -5  -7  -7    2.60    6.00
  -5  -7  -7  -11.40    8.40
   6   7   8   18.80   29.90
   6   7   8    4.40   26.10
  -6  -7  -8    0.50    7.00
  -6  -7  -8    3.10    9.00
   4  -6   2   30.80   33.00
   3  -6   1   64.19   18.70
   2  -6   0  255.07   29.50
   2  -6   0  296.67   38.90
  -1   6   1  933.81  118.39
   1  -6  -1 1164.08  111.49
   1  -6  -1 1196.28  107.59
   1  -6  -1 1369.66  113.29
   0   6   2  496.35   63.29
   0  -6  -2  573.54   57.59
   0  -6  -2  547.45   52.59
   0  -6  -2  561.14   53.19
   0  -6  -2  590.34   54.29
   1   6   3  206.68   32.90
   1   6   3  181.48   21.80
  -1  -6  -3  215.78   23.90
   2   6   4  342.17   40.60
   2   6   4  280.77   29.10
  -2  -6  -4  296.27   29.80
  -2  -6  -4  258.57   31.30
  -2  -6  -4  315.57   29.20
  -2  -6  -4  257.47   32.90
   3   6   5  142.89   18.40
  -3  -6  -5  190.28   24.80
  -3  -6  -5  165.68   20.70
  -3  -6  -5  162.28   18.20
   4   6   6   55.29   22.40
   4   6   6   18.90    7.50
  -4  -6  -6   12.60    7.90
  -4  -6  -6   26.20    7.70
   5   6   7  139.09   35.40
   5   6   7  147.09   37.70
  -5  -6  -7  126.89   18.60
  -5  -6  -7  137.49   20.40
   6   6   8    9.90   30.10
   6   6   8   -8.40   20.10
  -6  -6  -8    0.40    9.10
  -6  -6  -8   11.70    7.80
   5  -5   3   28.80   37.30
   5  -5   3   -9.90   23.50
  -4   5  -2   29.00    8.70
   4  -5   2   49.50   17.10
   4  -5   2    9.10   18.90
   4  -5   2   25.00   28.00
  -3   5  -1   43.30    9.20
   3  -5   1   31.80   18.10
   3  -5   1   45.50   14.80
   3  -5   1   38.10    9.50
   2  -5   0  543.45   62.99
   2  -5   0  584.14   60.99
   2  -5   0  647.74   56.89
  -1   5   1  225.88   38.20
   1  -5  -1  211.98   22.10
   1  -5  -1  162.18   24.80
   0   5   2  354.46   47.00
   0  -5  -2  425.76   38.60
   0  -5  -2  383.76   38.30
   0  -5  -2  396.06   42.60
   0  -5  -2  430.76   38.40
   0  -5  -2  433.16   40.00
   1   5   3  639.64   56.19
   1   5   3  623.14   63.89
  -1  -5  -3  568.04   57.79
  -1  -5  -3  579.14   59.69
  -1  -5  -3  622.14   56.69
   2   5   4  273.97   31.30
   2   5   4  213.58   22.50
  -2  -5  -4  233.08   25.60
  -2  -5  -4  175.18   25.40
  -2  -5  -4  227.58   23.50
  -2  -5  -4  231.68   22.60
   3   5   5  183.38   19.40
  -3  -5  -5  188.48   22.50
  -3  -5  -5  182.68   20.30
  -3  -5  -5  164.38   18.80
  -3  -5  -5  166.48   21.50
   4   5   6   92.79   13.40
   4   5   6   90.89   25.30
   4   5   6  130.99   31.10
  -4  -5  -6   84.09   14.50
  -4  -5  -6   97.09   13.80
   5   5   7   -0.70   21.60
   5   5   7   68.79   29.00
  -5  -5  -7   39.20   10.30
  -5  -5  -7   30.90    9.00
   6   5   8   12.80   29.40
   6   5   8   24.60   23.40
  -6  -5  -8   16.40    8.30
  -6  -5  -8   66.89   13.30
   6  -4   4   18.20   26.90
  -5   4  -3   77.29   12.20
   5  -4   3   37.80   31.30
   5  -4   3   62.09   29.50
  -4   4  -2   60.59   10.50
   4  -4   2   47.90   23.80
   4  -4   2   77.29   18.20
   4  -4   2   58.79   26.50
   4  -4   2   71.19   12.40
  -3   4  -1   37.30    7.10
   3  -4   1    1.10   10.10
   3  -4   1    2.90   14.30
   3  -4   1   24.30    7.00
  -2   4   0  296.27   31.30
   2  -4   0  354.26   37.10
   2  -4   0  294.67   37.40
   2  -4   0  390.06   31.90
   2  -4   0  268.17   32.60
  -1   4   1 1015.90  104.59
   1  -4  -1 1022.80   98.99
   1  -4  -1  946.21   96.99
   1  -4  -1 1243.98   95.89
   1  -4  -1 1049.70   95.29
   0   4   2  505.95   49.20
   0   4   2  453.15   55.19
   0  -4  -2  561.94   49.30
   0  -4  -2  597.44   50.69
   0  -4  -2  530.05   52.89
   0  -4  -2  563.34   49.00
   1   4   3  418.36   36.50
   1   4   3  408.76   42.40
  -1  -4  -3  309.07   36.50
  -1  -4  -3  400.46   40.00
  -1  -4  -3  436.36   38.90
   2   4   4 2594.34  226.08
   2   4   4 2512.55  231.08
  -2  -4  -4 2462.65  228.18
  -2  -4  -4 2566.74  226.68
  -2  -4  -4 2688.93  226.08
  -2  -4  -4 2493.85  227.78
   3   4   5  337.37   32.20
   3   4   5  290.37   40.30
   3   4   5  352.86   40.60
  -3  -4  -5  341.17   33.40
  -3  -4  -5  309.57   32.80
  -3  -4  -5  342.77   33.70
  -3  -4  -5  339.17   32.30
   4   4   6  126.79   15.80
   4   4   6  176.48   35.20
  -4  -4  -6  120.29   17.50
  -4  -4  -6  138.69   17.30
   5   4   7   -0.90   20.10
   5   4   7   27.10   22.70
  -5  -4  -7   34.10    9.60
  -5  -4  -7   40.80    8.90
   6   4   8   12.10   26.80
   6   4   8   17.70   25.60
  -6  -4  -8   18.00    8.40
  -6  -4  -8   41.00   11.10
  -6   3  -4   64.99   11.00
   6  -3   4   26.80   26.40
   6  -3   4   32.00   33.80
  -5   3  -3   10.20    5.70
   5  -3   3    6.60   22.40
   5  -3   3   11.40   18.60
  -4   3  -2   93.79   12.30
   4  -3   2  101.19   12.90
   4  -3   2  103.69   19.40
   4  -3   2   55.69   24.60
   4  -3   2  114.29   29.80
  -3   3  -1  750.62   62.39
   3  -3   1  640.44   71.69
   3  -3   1  714.93   67.09
   3  -3   1  555.74   61.69
   3  -3   1  752.42   61.59
  -2   3   0  882.01   80.49
   2  -3   0  874.41   79.39
   2  -3   0  939.21   85.19
  -1   3   1  790.22   68.69
   1  -3  -1  605.14   58.89
   1  -3  -1  739.73   64.09
   1  -3  -1  582.64   60.59
   1  -3  -1  622.74   59.09
   0   3   2  569.54   64.89
   0   3   2  740.03   60.99
   0  -3  -2  647.14   60.49
   0  -3  -2  726.63   60.39
   0  -3  -2  557.14   63.29
   0  -3  -2  755.92   61.89
   1   3   3  313.97   33.80
   2   3   4  478.05   45.20
   2   3   4  424.06   39.10
   2   3   4  519.15   45.90
  -2  -3  -4  366.06   40.20
  -2  -3  -4  390.56   39.50
  -2  -3  -4  400.76   38.90
  -2  -3  -4  390.96   40.80
   3   3   5  127.29   13.70
   3   3   5  178.28   30.00
   3   3   5   56.79   17.70
  -3  -3  -5  141.59   16.20
  -3  -3  -5  119.49   13.30
  -3  -3  -5  124.39   15.60
  -3  -3  -5  111.89   13.30
   4   3   6   46.90   21.20
   4   3   6   35.60    7.80
  -4  -3  -6   43.80    8.10
  -4  -3  -6   38.80    9.60
   5   3   7   43.60   24.30
   5   3   7   74.29   27.10
  -5  -3  -7   83.99   13.20
  -5  -3  -7   71.89   12.10
   6   3   8   56.19   29.90
   6   3   8    8.10   26.50
  -6  -3  -8   69.29   12.00
  -6  -3  -8   92.29   14.30
  -6   2  -4    8.80    5.60
   6  -2   4    3.00   19.60
   6  -2   4   13.10   28.70
  -5   2  -3   12.50    4.70
   5  -2   3   14.60    6.30
   5  -2   3   14.70   18.30
   5  -2   3   15.40   22.90
  -4   2  -2  178.48   19.00
   4  -2   2  229.68   39.80
   4  -2   2  206.58   37.00
   4  -2   2  191.98   26.40
  -3   2  -1  307.17   27.50
   3  -2   1  267.47   31.70
   3  -2   1  296.27   38.20
  -2   2   0 1944.11  171.38
   2  -2   0 1935.21  175.78
  -1   2   1 2705.73  219.78
   1  -2  -1 2148.58  214.28
   1  -2  -1 2425.06  217.18
   0   2   2 3567.54  289.47
   0   2   2 3249.57  291.07
   0   2   2 3176.18  287.87
   0  -2  -2 2998.00  287.57
   0  -2  -2 3406.26  288.57
   0  -2  -2 3182.38  290.97
   0  -2  -2 3286.77  287.37
   1   2   3 1880.51  167.98
   1   2   3 1722.53  166.68
   1   2   3 1931.81  167.48
   1   2   3 2020.00  169.88
   1   2   3 1848.81  166.38
   1   2   3 2008.60  169.58
  -1  -2  -3 1806.92  166.08
  -1  -2  -3 1751.82  166.38
  -1  -2  -3 1920.21  166.88
  -1  -2  -3 1963.20  168.98
   2   2   4 2029.60  173.78
  -2  -2  -4 1904.11  173.58
  -2  -2  -4 2009.60  173.98
  -2  -2  -4 2115.39  174.38
  -2  -2  -4 1892.21  174.08
  -2  -2  -4 1791.32  174.78
   3   2   5  251.87   35.60
   3   2   5  293.57   27.30
   3   2   5  282.47   36.50
  -3  -2  -5  285.97   28.00
  -3  -2  -5  278.87   27.20
  -3  -2  -5  278.07   27.60
   4   2   6   68.39   11.00
   4   2   6   64.49   24.50
   4   2   6   96.09   26.20
  -4  -2  -6   91.09   12.20
  -4  -2  -6   78.49   12.30
   5   2   7   83.59   29.00
   5   2   7   68.39   28.10
  -5  -2  -7   94.39   13.90
  -5  -2  -7   58.99   11.60
   6   2   8   17.90   26.40
   6   2   8    3.90   27.00
  -6  -2  -8   10.40    8.50
  -6  -2  -8   19.00    8.00
   7  -1   5    3.00   27.50
   7  -1   5   22.10   38.10
  -6   1  -4   46.10    7.40
   6  -1   4   48.20   28.00
   6  -1   4    6.00   28.20
  -5   1  -3   96.89   10.10
  -5   1  -3   72.19   12.70
   5  -1   3   83.39   10.40
   5  -1   3   47.90   23.70
   5  -1   3   78.29   30.60
  -4   1  -2   46.50    6.20
  -4   1  -2   49.99    8.40
   4  -1   2   78.09   24.80
   4  -1   2   33.60   20.20
   4  -1   2   41.80   11.70
  -3   1  -1  616.64   50.99
  -3   1  -1  593.84   52.59
   3  -1   1  590.74   60.69
   3  -1   1  452.65   54.79
  -2   1   0  423.66   38.10
  -2   1   0  359.76   36.30
   2  -1   0  425.66   40.90
  -1   1   1  725.03   66.49
  -1   1   1  697.43   64.79
  -1   1   1  799.32   69.89
   1  -1  -1  693.23   64.59
   1  -1  -1  773.02   69.59
   0   1   2 2974.40  276.77
   0   1   2 3221.68  275.17
   0   1   2 2749.62  274.67
   0   1   2 3375.96  275.87
   0   1   2 3043.70  276.17
   0  -1  -2 3051.49  274.77
   0  -1  -2 3296.97  275.77
   0  -1  -2 3289.47  274.57
   1   1   3 1915.21  160.18
  -1  -1  -3 1703.33  159.48
   2   1   4  609.34   70.29
   2   1   4  738.93   68.59
   2   1   4  842.02   76.29
   2   1   4  811.52   67.99
   2   1   4  809.52   74.99
  -2  -1  -4  826.02   70.29
  -2  -1  -4  772.52   68.49
  -2  -1  -4  706.13   68.89
  -2  -1  -4  725.83   68.49
   3   1   5  348.27   47.70
   3   1   5  468.25   39.50
   3   1   5  351.76   47.10
  -3  -1  -5  435.96   38.90
  -3  -1  -5  428.16   39.50
  -3  -1  -5  436.46   39.80
   4   1   6  147.09   31.10
   4   1   6  122.79   15.10
   4   1   6  104.19   29.80
  -4  -1  -6  148.29   17.60
  -4  -1  -6  130.09   16.50
   5   1   7   37.50   24.40
   5   1   7   16.00   22.20
  -5  -1  -7   26.70    8.80
   6   1   8   24.60   29.60
   6   1   8    4.20   23.80
  -6  -1  -8    6.80    7.90
  -7   0  -5    0.50    6.60
  -7   0  -5    0.00    4.60
   7   0   5    0.80   35.90
   7   0   5    2.70   22.50
  -6   0  -4   70.59    8.90
  -6   0  -4   73.39   12.80
   6   0   4   63.99    9.60
   6   0   4   70.09   27.90
   6   0   4    6.50   30.00
  -5   0  -3  353.16   32.00
  -5   0  -3  346.27   34.80
   5   0   3  316.47   48.50
  -4   0  -2  259.37   25.70
  -4   0  -2  264.07   23.40
   4   0   2  222.08   27.70
  -3   0  -1  875.21   72.39
  -3   0  -1  838.32   72.59
   3   0   1  724.73   74.89
   3   0   1  735.73   77.99
  -2   0   0 4384.96  370.76
  -2   0   0 4040.70  371.36
  -1   0   1  484.05   45.30
   1   0  -1  535.45   45.40
   0   0   2 7890.61  732.73
   0   0   2 9019.40  730.53
   0   0   2 8523.85  730.03
   0   0   2 7488.65  731.03
   0   0   2 8485.35  729.63
   0   0   2 8833.12  730.93
   0   0  -2 8405.36  729.93
   0   0  -2 8448.16  729.73
   0   0  -2 7770.82  730.73
   1   0   3 1986.70  176.68
   1   0   3 1920.51  181.38
   1   0   3 2125.39  176.38
   1   0   3 2023.60  180.08
   1   0   3 1850.41  177.88
  -1   0  -3 1966.00  177.88
  -1   0  -3 1965.20  176.38
  -1   0  -3 2084.79  176.28
   2   0   4  268.67   34.50
   2   0   4  324.17   34.70
  -2   0  -4  253.77   28.20
   3   0   5  226.68   31.50
   3   0   5  291.27   27.40
   3   0   5  380.76   42.40
   3   0   5  265.47   26.40
  -3   0  -5  261.77   27.50
   4   0   6  123.79   15.20
   4   0   6  109.19   32.20
  -4   0  -6  117.39   16.10
   5   0   7   48.60   26.20
   5   0   7   29.60   26.60
  -5   0  -7   48.70   10.20
   6   0   8   -3.00   24.50
   6   0   8   -3.30   30.00
  -7  -1  -5   -0.20    4.40
  -7  -1  -5   11.60    7.40
   7   1   5   -6.00   35.40
   7   1   5   -1.40   24.90
  -6  -1  -4   -0.40    3.80
  -6  -1  -4    5.40    5.20
   6   1   4    4.80   29.10
   6   1   4    0.00   20.20
   6   1   4    3.70    3.80
  -5  -1  -3   83.09    9.60
  -5  -1  -3   76.89   12.40
  -4  -1  -2  280.27   25.50
  -4  -1  -2  280.77   27.20
  -4  -1  -2  305.17   28.00
   4   1   2  227.78   30.00
  -3  -1  -1  549.85   48.70
  -3  -1  -1  509.85   46.90
  -3  -1  -1  525.15   48.90
  -2  -1   0  662.73   63.19
  -2  -1   0  740.23   64.29
  -2  -1   0  705.63   65.29
  -2  -1   0  754.22   63.29
  -1  -1   1 2350.76  193.68
  -1  -1   1 2173.88  195.28
   1   1  -1 2324.27  193.78
   1   1  -1 1962.80  193.18
   0  -1   2  468.95   38.70
   0  -1   2  393.96   43.00
   0  -1   2  418.46   39.70
   0  -1   2  422.46   38.90
   0  -1   2  432.66   40.00
   0  -1   2  408.46   40.40
   0   1  -2  441.66   38.80
   0   1  -2  379.56   39.90
   0   1  -2  443.96   38.80
   1  -1   3  716.23   67.69
   1  -1   3  825.82   63.59
   1  -1   3  564.14   64.79
   1  -1   3  597.34   68.99
   1  -1   3  731.03   64.19
  -1   1  -3  760.42   63.59
  -1   1  -3  758.92   63.49
  -1   1  -3  597.04   64.79
   2  -1   4  890.01   82.89
   2  -1   4  869.61   75.89
   2  -1   4  988.80   86.39
   2  -1   4  798.12   75.29
   2  -1   4  676.93   77.79
  -2   1  -4  933.41   76.79
  -2   1  -4  705.43   75.09
   3  -1   5  119.29   14.50
   3  -1   5  217.68   31.60
   3  -1   5  113.89   14.80
  -3   1  -5  130.39   15.20
   4  -1   6  179.98   20.50
   4  -1   6  197.08   37.10
   4  -1   6  201.78   44.40
  -4   1  -6  160.78   20.50
   5  -1   7   72.49   32.10
   5  -1   7   69.59   34.30
  -5   1  -7   75.79   13.60
   6  -1   8    0.90   30.60
  -7  -2  -5   28.40    6.30
  -7  -2  -5   15.30    8.00
   7   2   5    1.70   33.90
   7   2   5   30.80   29.00
  -6  -2  -4  108.69   12.90
  -6  -2  -4   92.49   15.80
   6   2   4  140.19   35.80
   6   2   4  105.39   12.30
  -5  -2  -3   72.29    9.50
  -5  -2  -3   74.09   12.20
   5   2   3   73.69    8.00
  -4  -2  -2   23.70    5.90
  -4  -2  -2   23.30    6.20
  -4  -2  -2   22.80    4.30
   4   2   2    2.80   14.40
  -3  -2  -1  234.98   22.70
  -3  -2  -1  241.78   22.20
  -3  -2  -1  234.38   23.50
  -3  -2  -1  234.68   24.20
  -2  -2   0  272.67   28.50
  -2  -2   0  285.67   27.20
  -2  -2   0  308.97   26.90
   2   2   0  290.17   25.80
   2   2   0  284.67   25.80
   2   2   0  285.47   27.30
  -1  -2   1  353.16   35.60
  -1  -2   1  365.36   33.30
  -1  -2   1  398.16   34.00
   1   2  -1  347.47   33.70
   1   2  -1  388.76   34.10
   0  -2   2 2639.64  238.88
   0  -2   2 3012.00  238.68
   0  -2   2 2729.13  242.88
   0  -2   2 2417.06  239.18
   0  -2   2 2741.93  237.38
   0   2  -2 2640.44  237.58
   0   2  -2 2583.04  238.78
   0   2  -2 2779.52  237.58
   1  -2   3 1591.74  144.09
   1  -2   3 1611.24  148.99
   1  -2   3 1672.83  152.48
   1  -2   3 1537.45  146.29
   1  -2   3 1759.32  145.79
  -1   2  -3 1589.14  144.19
  -1   2  -3 1571.54  146.09
   2  -2   4  206.68   28.20
   2  -2   4  277.57   33.90
   2  -2   4  248.98   36.20
   2  -2   4  261.47   26.20
   2  -2   4  236.58   24.70
  -2   2  -4  244.88   24.80
   3  -2   5   41.00   10.40
   3  -2   5   30.70   22.40
   3  -2   5   43.20    8.00
   3  -2   5   35.00   19.70
  -3   2  -5   19.90    6.90
   4  -2   6   40.80   25.40
   4  -2   6   36.30   28.30
  -4   2  -6   40.40    9.40
   5  -2   7    1.80   28.30
   5  -2   7    3.90   29.50
  -5   2  -7   21.40    8.90
  -7  -3  -5   49.60   11.90
  -7  -3  -5   65.09    9.40
   7   3   5  -11.60   30.00
   7   3   5   65.29   35.10
  -6  -3  -4   18.90    6.30
  -6  -3  -4    6.10    6.40
   6   3   4   14.70    4.90
   6   3   4   -8.70   26.70
  -5  -3  -3  175.08   17.40
  -5  -3  -3  121.29   14.20
   5   3   3  115.89   13.00
  -4  -3  -2  313.87   29.80
  -4  -3  -2  289.27   28.00
  -4  -3  -2  339.87   30.30
  -4  -3  -2  286.27   28.70
   4   3   2  281.57   26.90
   4   3   2  277.77   27.60
  -3  -3  -1  264.07   26.50
  -3  -3  -1  237.58   24.10
  -3  -3  -1  268.07   25.00
  -3  -3  -1  264.37   25.30
   3   3   1  246.08   23.70
   3   3   1  255.57   23.40
   3   3   1  250.07   24.00
  -2  -3   0  106.39   11.40
  -2  -3   0  101.99   13.60
   2   3   0  100.29   11.90
   2   3   0   96.49   10.70
   2   3   0  100.89   10.40
  -1  -3   1  475.65   44.40
  -1  -3   1  454.95   41.70
  -1  -3   1  478.55   41.70
  -1  -3   1  451.45   42.20
  -1  -3   1  454.85   46.00
   1   3  -1  431.46   42.40
   1   3  -1  459.75   42.60
   1   3  -1  436.66   42.40
   0  -3   2 1337.47  134.69
   0  -3   2 1536.25  132.29
   0  -3   2 1554.44  133.39
   0  -3   2 1441.36  138.69
   0  -3   2 1652.63  134.89
   0   3  -2 1247.48  133.39
   0   3  -2 1620.54  133.39
   0   3  -2 1502.25  132.59
   1  -3   3  940.81   75.79
   1  -3   3  713.23   83.49
   1  -3   3  822.62   77.19
   1  -3   3  774.12   80.59
  -1   3  -3  868.41   75.59
   2  -3   4   71.69   23.60
   2  -3   4   74.59   11.40
   2  -3   4  126.89   25.80
   2  -3   4   58.79   13.20
  -2   3  -4   71.29   11.20
   3  -3   5  157.18   18.80
   3  -3   5  202.28   36.90
   3  -3   5  129.99   36.00
  -3   3  -5  139.59   19.30
   4  -3   6   37.70   28.20
   4  -3   6   53.69   31.10
  -4   3  -6   69.09   12.60
   5  -3   7   11.20   29.10
   5  -3   7    7.60   32.90
  -7  -4  -5   11.10    9.00
  -7  -4  -5    8.10    6.40
   7   4   5   10.80   31.30
  -6  -4  -4   11.90    6.80
  -6  -4  -4   30.10    8.70
   6   4   4   -3.50   24.40
  -5  -4  -3   25.40    7.50
  -5  -4  -3   20.00    6.20
   5   4   3   -2.80   17.20
   5   4   3   31.90    5.50
  -4  -4  -2  155.18   19.80
  -4  -4  -2  156.08   17.60
  -4  -4  -2  207.78   23.40
  -4  -4  -2  187.48   19.20
   4   4   2  192.18   19.70
   4   4   2  158.18   16.70
  -3  -4  -1  124.99   17.80
  -3  -4  -1  129.39   14.10
  -3  -4  -1  132.69   15.00
  -3  -4  -1  130.39   15.00
   3   4   1  117.59   14.50
   3   4   1  134.59   13.50
  -2  -4   0  132.89   18.40
  -2  -4   0  144.19   16.10
   2   4   0  150.68   16.40
   2   4   0  140.89   17.10
   2   4   0  166.58   16.00
   1   4  -1  113.69   13.80
   0  -4   2  634.44   66.99
   0  -4   2  764.72   66.79
   0  -4   2  784.42   73.19
   0  -4   2  657.73   63.39
   0   4  -2  684.23   64.09
   0   4  -2  677.33   65.69
   1  -4   3  206.48   21.60
   1  -4   3  149.49   31.50
   1  -4   3  145.89   25.30
   1  -4   3  186.28   18.30
  -1   4  -3  104.89   17.40
   2  -4   4  453.45   57.99
   2  -4   4  404.06   42.60
   2  -4   4  367.66   40.00
   2  -4   4  523.65   54.89
  -2   4  -4  345.67   39.60
   3  -4   5  215.18   45.10
   4  -4   6   35.30   32.40
   4  -4   6   27.50   32.20
  -4   4  -6   24.10   10.00
  -7  -5  -5   19.50    9.50
  -7  -5  -5   32.20    8.70
  -6  -5  -4   19.30    7.60
  -6  -5  -4   29.40    9.10
   6   5   4    6.50   28.90
  -5  -5  -3   81.49   14.60
  -5  -5  -3  121.69   15.00
   5   5   3  126.19   13.50
  -4  -5  -2  102.59   16.00
  -4  -5  -2   92.69   12.10
  -4  -5  -2   96.49   13.30
   4   5   2   66.39   17.40
   4   5   2   92.19   10.90
  -3  -5  -1  202.88   23.90
  -3  -5  -1  171.58   20.70
  -3  -5  -1  196.78   20.80
   3   5   1  208.58   21.80
   3   5   1  201.88   20.10
  -2  -5   0   92.29   16.60
  -2  -5   0   57.79    8.30
  -2  -5   0   41.40   11.50
   2   5   0   38.00    9.20
   2   5   0   40.50   10.00
  -1  -5   1  591.64   64.39
  -1  -5   1  701.23   61.69
   1   5  -1  697.03   63.59
   1   5  -1  667.03   62.99
   0  -5   2  741.33   73.19
   0  -5   2  721.83   63.49
   0  -5   2  753.62   67.29
   0  -5   2  655.63   68.29
   0   5  -2  569.74   64.69
   0   5  -2  648.34   63.99
   1  -5   3  406.76   50.29
   1  -5   3  428.46   41.60
   1  -5   3  433.76   45.00
   1  -5   3  421.16   56.49
  -1   5  -3  420.46   41.90
   2  -5   4  225.28   39.80
   2  -5   4  232.48   27.80
   2  -5   4  172.08   22.00
   2  -5   4  123.29   37.00
  -2   5  -4  158.18   22.60
   3  -5   5  -19.70   27.20
   3  -5   5   38.50   28.30
  -3   5  -5   21.30    9.40
   4  -5   6   32.10   36.10
   4  -5   6    9.00   31.30
  -7  -6  -5   43.00   10.30
  -7  -6  -5   33.80   11.60
  -6  -6  -4   72.29   11.70
  -6  -6  -4   43.70   11.40
  -5  -6  -3   -2.40    5.00
  -5  -6  -3   -3.30    5.80
   5   6   3    9.10    5.20
  -4  -6  -2  109.69   19.80
  -4  -6  -2  110.39   16.90
  -4  -6  -2  138.09   17.20
   4   6   2  149.09   15.70
  -3  -6  -1  243.68   24.80
  -3  -6  -1  218.18   24.00
  -3  -6  -1  232.28   28.30
   3   6   1  211.28   23.90
  -2  -6   0  311.17   33.10
  -2  -6   0  338.67   37.60
   2   6   0  279.87   34.20
   2   6   0  380.46   35.50
  -1  -6   1  656.63   58.49
  -1  -6   1  706.73   67.79
  -1  -6   1  623.74   62.79
   1   6  -1  576.84   60.49
   1   6  -1  523.35   59.59
   0  -6   2  708.53   64.29
   0  -6   2  646.04   59.29
   0  -6   2  601.04   69.09
   0  -6   2  596.34   65.39
   0   6  -2  567.54   60.19
   1  -6   3  282.07   30.10
   1  -6   3  242.58   45.60
   1  -6   3  307.57   43.90
   1  -6   3  289.87   34.80
  -1   6  -3  233.78   30.00
   2  -6   4  125.19   43.00
   2  -6   4  142.69   25.70
   2  -6   4  129.69   36.50
  -2   6  -4  119.49   19.80
   3  -6   5   21.60   31.50
   3  -6   5   11.50   28.80
  -3   6  -5   10.50   10.00
  -7  -7  -5   -4.70    6.50
  -6  -7  -4   85.49   14.50
  -6  -7  -4   72.69   14.50
  -5  -7  -3   55.09   11.90
  -5  -7  -3   65.39   12.10
  -5  -7  -3   50.49   14.60
  -4  -7  -2   14.90   10.20
  -4  -7  -2   11.80    7.10
  -4  -7  -2   35.30    8.90
   4   7   2   28.90    7.80
  -3  -7  -1    5.50    9.20
  -3  -7  -1    3.10    6.50
  -3  -7  -1    8.60    6.00
   3   7   1   18.10    9.10
  -2  -7   0  127.99   24.30
  -2  -7   0   61.49   16.70
   2   7   0   73.99   15.70
  -1  -7   1   95.09   24.50
  -1  -7   1  123.99   21.80
   1   7  -1  150.98   21.60
   0  -7   2   55.39   24.10
   0  -7   2   45.00   11.40
   0  -7   2   64.89   16.30
   0   7  -2   41.90   13.50
   1  -7   3  106.49   38.80
   1  -7   3  138.19   26.60
   1  -7   3  205.08   24.00
   1  -7   3  223.38   40.40
  -1   7  -3  140.99   23.50
   2  -7   4   21.00   34.10
   2  -7   4   92.79   37.50
   2  -7   4   53.49   19.10
  -2   7  -4   55.99   15.50
  -7  -8  -5   15.00   10.70
  -6  -8  -4  -10.30    6.80
  -6  -8  -4   -1.80    7.10
  -5  -8  -3   31.20   10.30
  -5  -8  -3   36.10   10.80
  -5  -8  -3   54.89   16.80
  -4  -8  -2   39.00   10.30
  -4  -8  -2   19.40    9.30
  -4  -8  -2   18.10   13.20
  -3  -8  -1  121.09   18.20
  -3  -8  -1  119.69   22.80
  -3  -8  -1   73.99   14.50
   3   8   1  102.09   18.80
  -2  -8   0   21.30   13.30
  -2  -8   0   44.90   20.60
  -1  -8   1   56.29   25.00
  -1  -8   1   58.89   17.90
   0  -8   2  263.27   37.10
   0  -8   2  223.58   46.00
   0   8  -2  214.78   31.60
   1  -8   3   83.79   22.40
   1  -8   3   32.30   37.70
  -1   8  -3   56.19   15.60
   2  -8   4    9.20   19.00
  -6  -9  -4   12.60   10.20
  -5  -9  -3   23.50   15.30
  -5  -9  -3   24.20   10.60
  -5  -9  -3   10.00    8.60
  -4  -9  -2   11.60    7.90
  -4  -9  -2    9.10    9.90
  -4  -9  -2   11.00   11.70
  -3  -9  -1   -9.50    7.20
  -3  -9  -1   -3.30    9.00
  -3  -9  -1   -6.50   11.30
  -2  -9   0    0.50   25.30
  -2  -9   0   52.99   17.20
  -1  -9   1  184.08   38.80
  -1  -9   1   87.99   23.80
   0  -9   2   28.60   33.60
   0  -9   2   43.50   19.80
  -5 -10  -3   16.00   17.60
  -5 -10  -3   26.60   11.20
  -5 -10  -3   40.00   13.90
  -4 -10  -2   46.60   15.40
  -4 -10  -2   20.60   10.50
  -4 -10  -2   16.60   14.80
  -3 -10  -1    4.00   15.00
  -3 -10  -1    8.90    9.00
  -2 -10   0   -0.50   17.10
  -1 -10   1    8.50   18.00
   1  11   4   14.20   38.70
  -1 -11  -4    6.40   18.10
   2  11   5   12.50   40.50
  -2 -11  -5  -11.10   15.80
  -3 -11  -6   12.40   16.90
   1 -10  -2   44.70   22.90
   0  10   3   25.80   40.80
   0 -10  -3    0.80   17.60
   1  10   4   42.30   38.20
  -1 -10  -4   16.10   16.70
   2  10   5  211.98   45.10
  -2 -10  -5  129.79   20.10
  -2 -10  -5   77.99   24.40
   3  10   6   55.69   36.60
  -3 -10  -6   91.09   22.70
   4  10   7    9.20   35.00
   5  10   8  -14.90   30.40
   2  -9  -1  134.19   31.70
   1  -9  -2   47.50   18.30
   0   9   3   86.49   39.50
   0  -9  -3   99.09   24.00
   1   9   4   51.49   32.90
  -1  -9  -4   35.20   15.30
  -1  -9  -4   35.80   18.50
   2   9   5   79.39   34.80
  -2  -9  -5   59.89   12.10
  -2  -9  -5   51.29   17.10
   3   9   6  182.48   40.40
  -3  -9  -6  208.08   24.10
  -3  -9  -6  201.58   31.80
   4   9   7   31.20   33.10
   5   9   8  -14.30   31.10
   3  -8   0  186.58   34.90
   2  -8  -1   98.29   26.10
  -1   8   2  113.49   41.90
   1  -8  -2   81.19   21.40
   0   8   3  114.09   39.00
   0  -8  -3  133.29   22.40
   0  -8  -3  127.69   24.80
   1   8   4  237.38   43.10
  -1  -8  -4  130.09   23.00
  -2  -8  -5  145.59   23.80
  -2  -8  -5  119.89   23.10
  -2  -8  -5  109.69   16.50
   4   8   7   52.89   30.80
  -4  -8  -7   34.80    9.60
  -4  -8  -7   47.70   15.30
   5   8   8   -6.90   28.40
  -5  -8  -8    1.40    8.30
  -5  -8  -8    2.40   10.70
   6   8   9   21.70   37.50
   4  -7   1   21.20   19.40
   3  -7   0   53.99   19.30
   2  -7  -1   17.00   15.80
  -1   7   2  185.18   48.40
   1  -7  -2  229.68   35.10
   1  -7  -2  189.08   26.70
   0   7   3  515.65   72.59
   0  -7  -3  689.23   66.79
   0  -7  -3  706.53   62.89
   1   7   4  465.55   61.29
  -1  -7  -4  466.15   52.49
  -1  -7  -4  505.25   50.09
  -2  -7  -5  126.09   22.90
  -2  -7  -5  130.59   21.50
  -2  -7  -5  131.09   18.30
  -2  -7  -5  118.89   16.00
   3   7   6  513.65   50.49
   3   7   6  576.14   64.79
  -3  -7  -6  532.55   50.49
  -3  -7  -6  453.05   54.39
  -3  -7  -6  562.54   52.39
   4   7   7   26.10   25.30
   4   7   7    3.30    6.70
  -4  -7  -7   -4.10    4.80
  -4  -7  -7   -5.40    6.90
   5   7   8   55.19   28.70
   5   7   8   66.69   32.40
  -5  -7  -8   58.69   14.70
  -5  -7  -8   55.49   11.80
   6   7   9   16.40   29.60
   6   7   9   11.60   32.20
  -6  -7  -9    5.20   10.30
   5  -6   2   44.20   43.60
   4  -6   1   50.29   19.70
   3  -6   0  114.89   25.60
   2  -6  -1  381.86   47.10
   2  -6  -1  406.16   41.00
  -1   6   2  565.04   72.69
   1  -6  -2  614.44   63.49
   1  -6  -2  621.24   58.69
   0   6   3 1275.57  138.19
   0  -6  -3 1508.25  134.59
   0  -6  -3 1505.65  130.29
   1   6   4  737.03   79.19
   1   6   4  721.33   68.89
  -1  -6  -4  724.53   74.49
  -1  -6  -4  735.73   68.39
  -1  -6  -4  780.62   72.09
  -1  -6  -4  820.42   70.09
   2   6   5   57.19    9.20
  -2  -6  -5   46.40   13.60
  -2  -6  -5   46.20   13.90
  -2  -6  -5   81.19   11.80
  -2  -6  -5   53.29    8.90
   3   6   6   85.09   23.90
   3   6   6   90.39   12.60
  -3  -6  -6   77.69   11.90
  -3  -6  -6   84.39   16.90
  -3  -6  -6   90.69   14.20
   4   6   7  180.78   36.10
   4   6   7  214.48   38.80
   4   6   7  159.38   20.30
  -4  -6  -7  154.58   19.30
  -4  -6  -7  162.58   22.60
   5   6   8    7.90   20.80
   5   6   8  -10.30   23.60
  -5  -6  -8   -8.90    8.00
  -5  -6  -8   -4.00    4.70
   6   6   9    8.70   23.70
   6   6   9   -0.30   30.20
  -6  -6  -9   12.90   11.10
  -6  -6  -9    7.80    8.30
   5  -5   2   18.50   31.30
   4  -5   1   47.10   17.60
   3  -5   0  120.99   24.70
   3  -5   0  128.49   17.40
   3  -5   0   98.09   27.00
   2  -5  -1  236.18   22.40
   2  -5  -1  147.09   28.60
   2  -5  -1  164.88   28.30
  -1   5   2  590.74   72.49
   1  -5  -2  560.84   61.29
   1  -5  -2  717.33   67.49
   1  -5  -2  768.12   61.49
   1  -5  -2  726.83   62.29
   1  -5  -2  623.94   61.39
   0   5   3  175.28   21.00
   0   5   3  212.48   33.60
   0  -5  -3  249.18   28.80
   0  -5  -3  235.58   22.10
   0  -5  -3  239.78   24.90
   0  -5  -3  247.68   22.70
   1   5   4  494.85   46.70
   1   5   4  562.04   48.60
   1   5   4  533.15   55.89
  -1  -5  -4  567.74   50.39
  -1  -5  -4  435.56   46.20
  -1  -5  -4  427.96   47.10
  -1  -5  -4  551.24   52.79
   2   5   5  279.07   32.00
  -2  -5  -5  247.78   29.70
   3   5   6  590.34   50.89
   3   5   6  472.75   57.69
  -3  -5  -6  546.75   50.09
  -3  -5  -6  520.05   51.29
  -3  -5  -6  524.55   52.89
   4   5   7   50.69   23.60
   4   5   7   82.79   12.90
   4   5   7   96.49   27.90
  -4  -5  -7  117.29   14.30
  -4  -5  -7   66.19   13.70
   5   5   8   36.40   27.70
   5   5   8   79.69   30.90
  -5  -5  -8  105.49   14.70
  -5  -5  -8  107.79   16.80
   6   5   9   32.90   35.80
   6   5   9   43.40   27.40
  -6  -5  -9   28.80   10.00
  -6  -5  -9   40.90   12.60
   6  -4   3   15.40   35.00
   6  -4   3   12.60   24.80
   5  -4   2    6.20   24.40
   5  -4   2   13.00   19.80
   4  -4   1   93.59   13.30
   4  -4   1   69.69   25.10
   4  -4   1   70.69   19.80
   3  -4   0   73.29   10.80
   3  -4   0   78.19   19.10
   3  -4   0   60.49   19.00
  -2   4   1   95.49   29.60
   2  -4  -1  114.69   22.40
   2  -4  -1   93.69   18.20
   2  -4  -1   95.59   11.80
   2  -4  -1   71.39   12.90
  -1   4   2  567.34   63.69
   1  -4  -2  571.64   53.09
   1  -4  -2  598.94   53.69
   1  -4  -2  604.24   54.59
   1  -4  -2  563.74   59.49
   0   4   3 1281.57  118.69
   0   4   3 1247.88  125.99
   0   4   3 1258.47  118.09
   0  -4  -3 1439.96  118.89
   0  -4  -3 1330.97  119.09
   0  -4  -3 1372.56  120.89
   0  -4  -3 1442.86  125.09
   1   4   4 1387.76  130.29
   1   4   4 1508.75  123.99
   1   4   4 1209.98  125.49
  -1  -4  -4 1458.65  123.59
  -1  -4  -4 1449.65  124.39
  -1  -4  -4 1335.57  128.49
  -1  -4  -4 1296.67  126.39
  -1  -4  -4 1480.25  124.89
   2   4   5   80.59   10.90
  -2  -4  -5   98.09   15.10
  -2  -4  -5   93.79   12.70
  -2  -4  -5   92.99   15.60
  -2  -4  -5   82.39   10.70
   3   4   6   62.19    9.50
   3   4   6   77.79   20.80
   3   4   6   21.60   16.70
  -3  -4  -6   32.20   11.80
  -3  -4  -6   58.39   11.70
  -3  -4  -6   47.80    8.10
  -3  -4  -6   60.99   10.80
   4   4   7  126.09   30.10
   4   4   7  142.99   31.60
   4   4   7  111.19   16.40
  -4  -4  -7  125.59   16.70
  -4  -4  -7  182.38   20.50
   5   4   8   57.29   28.40
   5   4   8   70.69   29.30
  -5  -4  -8   66.49   11.60
  -5  -4  -8   76.29   14.60
   6   4   9    1.80   23.10
   6   4   9    7.10   29.20
  -6  -4  -9   18.90   10.20
  -6  -4  -9    6.80    6.90
   6  -3   3   10.80   31.00
   6  -3   3   20.80   26.40
   5  -3   2   34.90    8.30
   5  -3   2   39.60   26.20
   5  -3   2   27.10   20.20
   4  -3   1   53.29   16.60
   4  -3   1   42.80   19.50
   3  -3   0  306.87   36.70
   3  -3   0  297.67   37.90
  -2   3   1  263.17   39.90
  -1   3   2 1049.40  112.49
   1  -3  -2 1286.07  105.59
   0   3   3  462.55   43.70
   0   3   3  500.55   43.00
   0   3   3  450.45   49.40
   0   3   3  422.76   43.40
   0   3   3  502.65   46.40
   0  -3  -3  470.95   43.70
   0  -3  -3  510.05   45.50
   0  -3  -3  475.85   43.40
   0  -3  -3  526.45   49.99
   1   3   4 1236.58  128.59
   1   3   4 1603.84  126.19
   1   3   4 1336.87  130.79
  -1  -3  -4 1549.54  126.49
  -1  -3  -4 1263.87  128.29
  -1  -3  -4 1488.75  126.89
  -1  -3  -4 1348.97  130.29
  -1  -3  -4 1485.35  125.59
   2   3   5  233.48   29.80
   2   3   5  266.47   23.80
   2   3   5  233.68   30.50
  -2  -3  -5  255.97   23.10
  -2  -3  -5  241.98   24.20
  -2  -3  -5  212.78   26.40
  -2  -3  -5  212.28   26.20
   3   3   6  103.59   24.10
   3   3   6   94.79   12.30
  -3  -3  -6   70.39   15.00
  -3  -3  -6  100.69   14.10
  -3  -3  -6   84.89   11.60
   4   3   7   45.00   22.80
   4   3   7   42.00   21.10
   4   3   7   63.79   10.00
  -4  -3  -7   39.30    8.50
  -4  -3  -7   74.29   12.20
   5   3   8   41.40   23.50
   5   3   8   62.99   27.40
  -5  -3  -8   51.99   12.50
  -5  -3  -8   69.69   11.60
   6   3   9   24.60   26.20
   6   3   9   48.90   30.90
  -6  -3  -9   62.89   12.70
  -6  -3  -9   62.99   13.80
   6  -2   3   -1.70   17.10
   6  -2   3   18.40   33.90
   5  -2   2   51.89   23.70
   5  -2   2   26.30   23.30
   4  -2   1  256.77   32.40
   4  -2   1  264.57   38.00
   3  -2   0  326.17   41.40
   3  -2   0  434.16   45.60
  -2   2   1  231.68   24.70
   2  -2  -1  220.88   28.30
  -1   2   2  368.86   42.00
  -1   2   2  400.06   35.10
  -1   2   2  399.96   37.80
   1  -2  -2  376.56   41.60
   1  -2  -2  382.26   35.10
   0   2   3  697.73   64.59
   0   2   3  698.03   64.69
   0   2   3  792.52   66.49
   0   2   3  791.12   63.89
   0   2   3  633.34   65.59
   0   2   3  717.73   68.79
   0  -2  -3  589.04   68.79
   0  -2  -3  751.12   64.29
   0  -2  -3  702.53   66.09
   0  -2  -3  757.42   64.69
   1   2   4  462.55   37.90
   1   2   4  324.07   35.90
  -1  -2  -4  355.56   40.70
  -1  -2  -4  458.45   36.60
  -1  -2  -4  377.96   35.50
   2   2   5  915.61   85.09
   2   2   5  932.21   84.99
   2   2   5 1044.80   92.59
  -2  -2  -5  838.32   85.29
  -2  -2  -5 1083.69   87.99
  -2  -2  -5 1022.20   87.89
  -2  -2  -5  831.12   84.29
   3   2   6   28.40    6.90
   3   2   6   58.69   18.70
   4   2   7   17.00   16.20
   4   2   7   26.30   18.70
   4   2   7   12.00    5.90
  -4  -2  -7   10.80    5.30
  -4  -2  -7   13.20    6.80
   5   2   8   61.59   29.50
   5   2   8   92.29   29.50
  -5  -2  -8   76.99   14.10
  -5  -2  -8   74.99   13.20
   6   2   9    5.70   27.50
   6   2   9   14.40   29.60
   7  -1   4   16.80   40.30
   7  -1   4   -1.20   21.20
  -6   1  -3   47.80   10.60
   6  -1   3   38.40   36.20
   6  -1   3   27.40   21.90
  -5   1  -2   99.89   13.50
   5  -1   2   51.09   27.10
   5  -1   2  118.79   31.20
  -4   1  -1  104.89   13.90
   4  -1   1   81.59   19.00
   4  -1   1  137.59   31.90
   4  -1   1  124.99   28.20
  -3   1   0   13.90    3.60
  -3   1   0    5.10    4.80
   3  -1   0   11.10    9.80
  -2   1   1  172.28   26.50
  -2   1   1  112.19   14.80
  -2   1   1  125.79   12.80
   2  -1  -1  133.69   22.90
  -1   1   2 3623.24  317.57
  -1   1   2 3503.35  314.37
   0   1   3  774.92   69.49
   0   1   3  818.32   71.09
   0   1   3  740.23   73.29
   0   1   3  864.21   72.19
   0   1   3  822.72   70.79
   0   1   3  808.82   69.89
   0   1   3  728.43   73.59
   0  -1  -3  708.63   71.89
   0  -1  -3  794.92   70.29
   0  -1  -3  822.62   70.69
   1   1   4 1552.24  147.49
   1   1   4 1505.55  145.99
   1   1   4 1611.14  149.49
   1   1   4 1598.54  145.39
   1   1   4 1605.74  150.88
  -1  -1  -4 1802.32  148.29
  -1  -1  -4 1796.62  145.69
  -1  -1  -4 1660.43  145.89
   3   1   6  237.08   41.20
   3   1   6  234.28   24.60
   3   1   6  265.37   36.00
  -3  -1  -6  225.58   25.00
   4   1   7   56.79   25.30
   4   1   7   63.89   10.70
   4   1   7   80.69   25.90
  -4  -1  -7   41.90   10.60
   5   1   8   41.40   26.00
   5   1   8   32.30   27.40
  -5  -1  -8   36.80   10.70
   6   1   9    6.00   33.40
   6   1   9   18.10   30.00
  -7   0  -4    4.20    6.10
   7   0   4   -5.10   37.00
   7   0   4    3.50   20.90
  -6   0  -3   79.99   13.70
   6   0   3  112.89   42.60
   6   0   3   56.49   27.30
  -5   0  -2    1.80    4.10
   5   0   2  -11.80   20.60
  -4   0  -1   72.59   10.20
  -4   0  -1   53.39   10.40
   4   0   1   68.09   17.10
   4   0   1   57.19   23.90
  -3   0   0  336.57   30.30
  -3   0   0  294.77   31.40
  -2   0   1   88.89   10.20
  -2   0   1  113.79   14.60
  -1   0   2 3396.16  301.97
  -1   0   2 3167.78  299.77
  -1   0   2 3665.33  302.67
  -1   0   2 3556.64  299.67
  -1   0   2 3356.36  301.97
   1   0  -2 3310.67  299.77
   0   0   3 1277.17  109.69
   0   0   3 1291.57  104.79
   0   0   3 1162.18  105.89
   0   0   3 1205.28  103.99
   0   0   3 1081.59  106.29
   0   0  -3 1205.08  104.29
   0   0  -3 1170.48  104.49
   0   0  -3 1004.90  105.69
   1   0   4 1352.46  133.49
   1   0   4 1557.94  130.49
   1   0   4 1563.14  136.89
   1   0   4 1341.77  129.19
   1   0   4 1484.95  131.79
   2   0   5  401.76   37.70
   2   0   5  452.85   46.20
   2   0   5  463.35   48.40
   2   0   5  323.97   37.00
  -2   0  -5  339.17   37.40
  -2   0  -5  463.75   41.00
   3   0   6   38.20    8.60
   3   0   6   81.69   22.80
  -3   0  -6   51.29    9.90
   4   0   7    6.00   20.10
   4   0   7   31.40   22.60
   4   0   7    0.50    5.40
  -4   0  -7   -4.80    5.30
   5   0   8   19.30   27.00
   5   0   8  -15.00   22.30
  -5   0  -8   11.60    8.80
  -7  -1  -4   10.90    7.90
   7   1   4   22.80   26.10
   7   1   4   -0.10   34.90
  -6  -1  -3   15.10    7.00
   6   1   3   27.30   25.40
   6   1   3   -8.00   29.70
  -4  -1  -1   78.69   11.80
  -4  -1  -1   91.49   13.30
  -3  -1   0   32.20    6.40
  -3  -1   0   45.30    8.90
  -2  -1   1  349.96   31.80
  -2  -1   1  347.67   32.60
  -2  -1   1  304.17   34.40
   2   1  -1  393.46   32.10
  -1  -1   2  455.45   38.70
  -1  -1   2  399.96   35.90
   1   1  -2  367.46   35.30
   1   1  -2  371.66   35.80
   0  -1   3 2553.14  226.38
   0  -1   3 2556.84  230.08
   0  -1   3 2697.83  223.88
   0  -1   3 2887.21  225.38
   0  -1   3 2553.84  224.28
   0  -1   3 2311.57  225.58
   0   1  -3 2154.68  225.38
   0   1  -3 2551.34  224.08
   1  -1   4  540.15   58.29
   1  -1   4  533.45   54.89
   1  -1   4  538.95   50.99
  -1   1  -4  484.55   52.29
  -1   1  -4  596.04   50.09
   2  -1   5  185.98   26.20
   2  -1   5  125.69   15.60
   2  -1   5   83.49   13.80
   2  -1   5  147.49   28.40
  -2   1  -5  185.98   19.70
   3  -1   6  357.26   56.39
   3  -1   6  497.95   56.19
   3  -1   6  432.06   42.10
  -3   1  -6  429.86   42.30
   4  -1   7  107.69   31.50
   4  -1   7   61.69   32.20
  -4   1  -7   88.19   14.40
   5  -1   8   21.00   29.20
   5  -1   8   47.10   31.50
  -5   1  -8   23.70    9.60
  -7  -2  -4   18.30    8.60
   7   2   4   24.30   29.10
   7   2   4  -30.80   35.20
  -6  -2  -3  119.79   12.80
  -6  -2  -3  125.29   18.00
  -5  -2  -2  165.78   16.80
  -5  -2  -2  175.98   17.20
  -5  -2  -2  177.28   20.10
  -4  -2  -1  375.16   32.80
  -4  -2  -1  344.77   36.00
  -4  -2  -1  332.57   32.60
  -4  -2  -1  389.06   35.50
  -3  -2   0  269.17   28.00
  -3  -2   0  293.27   26.80
  -3  -2   0  305.77   26.90
  -3  -2   0  285.37   30.00
  -2  -2   1  147.09   17.00
  -2  -2   1  102.49   10.90
  -2  -2   1  114.89   11.60
  -2  -2   1  101.39   13.70
   2   2  -1   97.19   11.30
   2   2  -1  106.79   10.10
   2   2  -1   95.89   10.00
  -1  -2   2  374.46   34.90
   1   2  -2  264.27   29.10
   0  -2   3 1282.87  114.59
   0  -2   3 1165.68  111.39
   0  -2   3 1307.37  113.99
   0  -2   3 1360.66  119.79
   0   2  -3 1217.58  113.79
   0   2  -3 1324.07  111.99
   0   2  -3 1125.19  111.69
   1  -2   4  741.23   68.19
   1  -2   4  707.33   73.49
   1  -2   4  816.92   70.39
   1  -2   4  812.82   79.09
  -1   2  -4  662.93   70.69
  -1   2  -4  758.82   68.39
   2  -2   5  111.39   23.90
   2  -2   5   83.99   12.60
   2  -2   5   86.09   25.10
   2  -2   5  117.29   16.10
  -2   2  -5   92.49   13.40
   3  -2   6  134.79   17.70
   3  -2   6  193.48   35.20
   3  -2   6  117.89   34.00
  -3   2  -6  108.19   17.20
   4  -2   7    6.20   28.20
   4  -2   7   92.89   35.40
  -4   2  -7   49.00   10.80
   5  -2   8   -3.00   29.00
   5  -2   8   12.90   32.60
  -7  -3  -4    1.90    6.70
  -7  -3  -4   -2.00    4.40
   7   3   4   -1.10   32.70
  -6  -3  -3   35.40    8.90
  -6  -3  -3   23.40    5.90
   6   3   3  -20.70   24.60
   6   3   3   18.20    4.70
  -5  -3  -2  151.28   15.60
  -5  -3  -2  152.88   19.00
  -5  -3  -2  142.69   19.40
  -5  -3  -2  144.69   15.00
   5   3   2  132.89   13.40
  -4  -3  -1   46.30    6.70
  -4  -3  -1   32.40    7.30
  -4  -3  -1   33.90    8.90
  -4  -3  -1   37.00    5.80
   4   3   1   31.30    4.10
   4   3   1   37.30    4.60
  -3  -3   0  321.67   28.40
  -3  -3   0  318.07   27.30
  -3  -3   0  260.57   29.90
  -3  -3   0  278.07   27.00
   3   3   0  282.77   26.10
   3   3   0  268.57   26.30
  -2  -3   1   59.59    8.60
  -2  -3   1   63.89    8.60
  -2  -3   1   40.00   10.60
  -2  -3   1   90.79   16.80
   2   3  -1   61.69    9.30
   2   3  -1   63.29    7.80
   2   3  -1   59.49    7.60
  -1  -3   2 1558.44  135.79
  -1  -3   2 1431.26  132.49
  -1  -3   2 1299.17  129.79
  -1  -3   2 1437.76  130.09
   1   3  -2 1525.35  130.39
   1   3  -2 1499.05  131.09
   0  -3   3 1327.37  116.69
   0  -3   3 1258.47  119.99
   0  -3   3 1341.57  125.49
   0  -3   3 1487.75  119.99
   0   3  -3 1242.88  116.89
   0   3  -3 1172.98  118.79
   1  -3   4  481.05   57.59
   1  -3   4  531.15   46.50
   1  -3   4  466.95   52.59
   1  -3   4  547.35   49.20
  -1   3  -4  536.35   46.80
  -1   3  -4  364.06   48.60
   2  -3   5  122.69   16.60
   2  -3   5  162.98   31.00
   2  -3   5  124.09   35.00
   2  -3   5  123.69   19.20
  -2   3  -5  110.99   16.30
   3  -3   6   78.19   15.40
   3  -3   6  134.89   34.50
   3  -3   6   47.60   31.10
  -3   3  -6  106.99   15.30
   4  -3   7  -11.80   25.50
   4  -3   7  -15.40   25.70
  -4   3  -7    5.80    7.70
  -7  -4  -4   18.60    6.50
  -7  -4  -4   17.50    8.70
  -6  -4  -3  132.99   15.00
  -6  -4  -3  118.89   18.10
   6   4   3  119.59   13.60
  -5  -4  -2  265.37   28.60
  -5  -4  -2  237.78   27.20
  -5  -4  -2  272.27   25.50
   5   4   2  243.28   24.20
  -4  -4  -1  399.36   41.70
  -4  -4  -1  459.05   44.30
  -4  -4  -1  433.56   40.50
   4   4   1  432.86   39.60
  -3  -4   0  459.35   40.10
  -3  -4   0  419.56   43.20
  -3  -4   0  443.66   40.60
   3   4   0  395.26   40.90
   3   4   0  426.76   39.10
   3   4   0  430.26   40.10
   3   4   0  387.26   39.40
  -2  -4   1  539.95   49.20
  -2  -4   1  467.05   51.89
  -2  -4   1  529.75   47.40
   2   4  -1  538.35   50.09
   2   4  -1  526.55   49.60
   2   4  -1  542.65   49.30
  -1  -4   2  304.77   35.70
  -1  -4   2  417.16   44.90
  -1  -4   2  466.75   41.10
  -1  -4   2  408.66   38.10
   1   4  -2  415.56   39.00
   1   4  -2  342.87   37.00
   0  -4   3  193.38   20.80
   0  -4   3  202.58   26.10
   0  -4   3  212.78   24.50
   0  -4   3  221.48   37.40
   0   4  -3  182.48   21.00
   0   4  -3  176.58   25.30
   1  -4   4  461.65   41.20
   1  -4   4  368.26   53.39
   1  -4   4  425.56   49.10
   1  -4   4  397.36   43.60
  -1   4  -4  420.16   41.30
   2  -4   5  104.69   16.40
   2  -4   5   96.59   32.90
   2  -4   5  184.58   35.30
   2  -4   5  162.48   22.60
  -2   4  -5  120.19   17.20
   3  -4   6   45.90   27.80
   3  -4   6    5.00   28.70
  -3   4  -6   22.50   10.00
   4  -4   7    6.30   32.20
   4  -4   7  -18.00   30.20
  -4   4  -7    3.40    8.80
  -7  -5  -4    8.60    6.90
  -7  -5  -4    8.40    8.40
  -6  -5  -3   -0.10    5.30
  -6  -5  -3    4.00    6.10
  -5  -5  -2   25.90    6.60
  -5  -5  -2   22.50    9.00
  -5  -5  -2   13.80    6.40
   5   5   2   23.20    5.70
  -4  -5  -1  289.37   30.00
  -4  -5  -1  290.77   28.70
  -4  -5  -1  296.57   32.60
   4   5   1  280.07   27.90
  -3  -5   0   13.20    8.40
  -3  -5   0   24.80    6.60
   3   5   0   32.60    6.60
   3   5   0   14.10    6.00
  -2  -5   1   54.59   13.60
  -2  -5   1  100.79   20.80
  -2  -5   1   49.70    8.30
   2   5  -1   63.79   12.20
   2   5  -1   69.79   12.00
  -1  -5   2  424.86   45.60
  -1  -5   2  464.05   50.49
  -1  -5   2  453.25   41.70
   1   5  -2  381.36   44.10
   1   5  -2  449.36   43.40
   0  -5   3  127.39   23.50
   0  -5   3  125.69   16.30
   0  -5   3  114.99   20.10
   0  -5   3  119.39   28.70
   0   5  -3  132.39   18.10
   0   5  -3  121.79   21.10
   1  -5   4  128.89   36.40
   1  -5   4  194.28   34.40
   1  -5   4  199.08   25.60
   1  -5   4  177.68   21.40
  -1   5  -4  196.28   22.80
   2  -5   5  108.59   37.80
   2  -5   5  161.58   35.40
   2  -5   5  130.39   19.10
   2  -5   5  142.49   23.90
  -2   5  -5  109.79   17.90
   3  -5   6   98.19   35.20
   3  -5   6   25.00   32.70
  -3   5  -6   64.09   14.70
  -7  -6  -4   33.00   10.80
  -7  -6  -4   17.80    8.10
  -6  -6  -3   38.10   10.70
  -6  -6  -3   64.89   10.80
  -5  -6  -2   55.89   10.30
  -5  -6  -2   58.39   11.30
  -5  -6  -2   66.89   14.90
   5   6   2   59.49   10.60
  -4  -6  -1    0.10    5.20
  -4  -6  -1    3.40    8.00
  -4  -6  -1   -2.60    5.00
   4   6   1   -2.80    4.60
  -3  -6   0  712.93   67.59
  -3  -6   0  713.83   71.49
   3   6   0  724.43   67.59
  -2  -6   1  420.46   43.60
   2   6  -1  351.06   39.90
  -1  -6   2  154.68   31.60
  -1  -6   2  121.59   22.00
   1   6  -2  166.88   21.60
   1   6  -2  167.98   23.50
   0  -6   3   75.79   28.50
   0  -6   3   67.79   12.10
   0  -6   3   70.19   16.50
   0   6  -3   60.69   13.10
   1  -6   4  155.88   34.70
   1  -6   4  130.99   18.80
   1  -6   4  127.79   24.30
   1  -6   4  141.09   37.40
  -1   6  -4  126.49   20.40
   2  -6   5   37.00   29.20
   2  -6   5   18.00   14.40
   2  -6   5   11.90   30.30
  -2   6  -5   -1.90    9.00
   3  -6   6   12.80   34.40
   3  -6   6   11.20   32.50
  -7  -7  -4   32.40   12.10
  -6  -7  -3    8.20    7.40
  -6  -7  -3   21.60    8.70
  -5  -7  -2   -3.10    5.90
  -5  -7  -2    4.20    7.20
  -5  -7  -2   -0.50    8.70
  -4  -7  -1   32.30   13.10
  -4  -7  -1   19.30    7.70
  -4  -7  -1    6.30    6.50
   4   7   1   22.40    9.00
  -3  -7   0   36.70   13.00
  -3  -7   0   57.19   11.40
   3   7   0   54.09   13.70
  -2  -7   1   66.99   22.20
  -2  -7   1   58.89   16.40
   2   7  -1   45.70   14.90
  -1  -7   2   23.50   23.80
  -1  -7   2    6.50   11.10
   0  -7   3  135.49   38.90
   0  -7   3  155.58   27.50
   1  -7   4  -12.80   33.10
   1  -7   4   20.60   15.30
  -1   7  -4   25.00   12.60
   2  -7   5   69.49   39.50
   2  -7   5   42.50   19.00
  -2   7  -5   49.70   14.80
  -7  -8  -4    7.00    9.20
  -6  -8  -3   32.20   11.10
  -6  -8  -3   56.49   12.20
  -5  -8  -2   22.50    8.50
  -5  -8  -2   12.90    8.90
  -5  -8  -2   36.10   15.40
  -4  -8  -1   18.30    8.70
  -4  -8  -1   29.70   10.10
  -4  -8  -1   14.70   13.20
  -3  -8   0  100.89   16.50
  -3  -8   0  124.69   23.90
   3   8   0  110.79   20.90
  -2  -8   1   54.49   25.80
  -2  -8   1   29.00   14.20
  -1  -8   2   62.69   29.80
  -1  -8   2  101.99   21.60
   0  -8   3   83.99   36.30
   0  -8   3   36.90   18.40
   1  -8   4   72.89   36.70
   1  -8   4   22.40   16.10
  -6  -9  -3   12.20    9.60
  -5  -9  -2    2.60    9.20
  -5  -9  -2   10.40    8.80
  -5  -9  -2   12.70   15.20
  -4  -9  -1    8.50    8.70
  -4  -9  -1   18.20   14.90
  -4  -9  -1   34.30   12.20
  -3  -9   0   36.90   11.70
  -3  -9   0   68.29   18.80
  -3  -9   0   79.29   16.30
  -2  -9   1  173.48   33.20
  -2  -9   1  161.08   41.10
  -1  -9   2    0.10   29.10
  -1  -9   2   14.30   14.30
   0  -9   3  -10.20   33.40
   0  -9   3   11.40   17.40
  -5 -10  -2   16.60   18.80
  -5 -10  -2   -5.70    8.80
  -4 -10  -1    0.60   16.30
  -4 -10  -1    4.40    9.30
  -4 -10  -1    8.20   12.70
  -3 -10   0    0.80   10.60
  -3 -10   0   17.70   17.40
  -2 -10   1   12.80   18.40
  -2 -10   1   -2.90   26.00
   1  11   5   12.20   41.40
  -1 -11  -5   22.70   23.10
   2  11   6   76.59   40.60
  -2 -11  -6    3.10   19.00
   3  11   7   77.69   48.80
   1 -10  -3    3.60   20.70
   0  10   4   39.10   45.30
   0 -10  -4   39.90   20.60
   1  10   5  259.27   58.89
  -1 -10  -5  187.88   38.40
   2  10   6  229.48   50.99
  -2 -10  -6   51.99   23.20
   3  10   7   44.30   38.50
  -3 -10  -7   -5.40   13.60
   4  10   8   17.60   33.70
   2  -9  -2   11.10   16.60
  -1   9   3  111.89   48.40
   1  -9  -3  140.79   31.10
   0   9   4  237.98   58.09
   0  -9  -4  230.38   39.20
   1   9   5  119.19   38.60
  -1  -9  -5   84.59   24.10
   2   9   6  140.39   40.00
  -2  -9  -6  142.89   27.90
   3   9   7   27.80   32.50
  -3  -9  -7   25.60   15.00
   4   9   8   14.50   30.20
   5   9   9  -20.10   32.30
   3  -8  -1   82.39   25.20
   2  -8  -2  115.79   27.90
  -1   8   3   75.39   40.30
   1  -8  -3   90.09   25.80
   0   8   4   17.70   28.30
   0  -8  -4   17.00   16.70
   0  -8  -4    5.40   13.30
   1   8   5   88.79   35.60
  -1  -8  -5   81.59   18.30
  -1  -8  -5   69.29   19.90
  -1  -8  -5   36.90    9.70
   3   8   7  166.08   41.60
   4   8   8   22.90   29.20
   5   8   9    4.10   31.50
   4  -7   0    2.20   18.10
   3  -7  -1   -2.10   17.70
   2  -7  -2   21.30   16.70
  -1   7   3  347.47   58.69
   1  -7  -3  380.26   39.70
   1  -7  -3  324.37   44.70
   0   7   4  358.36   54.29
   0  -7  -4  381.36   42.80
   0  -7  -4  437.66   47.70
   1   7   5  514.85   63.19
  -1  -7  -5  484.35   52.59
  -2  -7  -6  249.78   32.80
  -2  -7  -6  262.57   32.40
  -2  -7  -6  223.58   24.50
   3   7   7   30.40   24.00
  -3  -7  -7   47.60   15.50
   4   7   8  102.29   33.40
  -4  -7  -8   89.29   23.40
   5   7   9   10.10   28.90
  -5  -7  -9   -1.90   10.60
   5  -6   1   30.30   39.60
   4  -6   0   82.79   25.60
   3  -6  -1   27.00   19.30
  -2   6   2  302.37   53.89
  -1   6   3  493.65   64.89
   1  -6  -3  537.95   51.79
   1  -6  -3  499.25   56.89
   0   6   4 1097.69  122.19
   0  -6  -4 1358.76  119.69
   0  -6  -4 1267.47  113.99
   1   6   5  400.96   54.19
  -1  -6  -5  501.25   47.60
  -1  -6  -5  463.55   50.19
  -2  -6  -6  111.69   15.40
  -2  -6  -6   84.79   17.50
  -2  -6  -6   87.39   20.10
  -2  -6  -6   79.69   11.30
   3   6   7  120.99   28.70
   3   6   7   85.19   14.10
  -3  -6  -7  110.69   14.00
  -3  -6  -7  100.09   16.20
   4   6   8    7.40   19.30
   4   6   8   12.50    8.10
   4   6   8   28.50   24.60
  -4  -6  -8   31.20    8.10
  -4  -6  -8   16.70    8.50
   5   6   9   37.80   29.90
   5   6   9   29.40   22.00
  -5  -6  -9   48.50   13.10
   6   6  10   -4.50   31.60
   5  -5   1   27.70   32.60
   4  -5   0   45.80   12.10
   4  -5   0   40.00   21.50
   3  -5  -1   55.19   21.10
   3  -5  -1   48.20   11.90
  -2   5   2   81.19   30.00
   2  -5  -2   84.29   13.50
   2  -5  -2   55.09   20.40
  -1   5   3  429.86   52.39
   1  -5  -3  343.17   37.30
   1  -5  -3  377.26   39.40
   1  -5  -3  479.55   48.30
   0   5   4  490.05   59.59
   0  -5  -4  567.14   58.19
   0  -5  -4  532.45   49.80
   0  -5  -4  629.44   53.29
   0  -5  -4  490.35   49.10
   1   5   5  369.06   46.70
  -1  -5  -5  441.06   44.70
   2   5   6   48.10   14.20
   2   5   6   25.80    6.90
  -2  -5  -6   45.60    9.20
  -2  -5  -6   46.50   13.40
  -2  -5  -6   54.29   12.90
  -2  -5  -6   39.10    6.90
   3   5   7  111.89   25.00
   3   5   7   88.69   13.30
   3   5   7  104.89   26.50
  -3  -5  -7  103.29   13.10
  -3  -5  -7   82.49   14.80
   4   5   8  158.18   34.70
   4   5   8  166.18   21.30
   4   5   8  169.48   36.10
  -4  -5  -8  159.58   19.00
  -4  -5  -8  193.38   24.10
   5   5   9   50.59   28.30
   5   5   9   47.80   26.40
  -5  -5  -9   21.00    9.10
  -5  -5  -9   36.50   12.40
   6   5  10   -2.60   29.40
   6   5  10    8.30   25.10
   6  -4   2    4.60   34.40
   5  -4   1   11.20   26.40
   4  -4   0   56.29   21.90
   4  -4   0   80.99   21.80
   3  -4  -1  353.86   46.00
   3  -4  -1  287.37   37.40
  -2   4   2  234.58   37.40
   2  -4  -2  127.59   16.40
   2  -4  -2  141.59   19.60
   2  -4  -2  160.48   16.80
   2  -4  -2  195.98   30.50
  -1   4   3  440.36   47.70
   1  -4  -3  384.26   34.50
   1  -4  -3  351.76   34.10
   1  -4  -3  291.97   35.50
   1  -4  -3  395.56   43.90
   0   4   4 2474.15  230.58
   0   4   4 2432.06  237.78
   0  -4  -4 2615.24  230.88
   0  -4  -4 2912.31  233.68
   0  -4  -4 2556.94  230.28
   0  -4  -4 2698.23  238.18
   1   4   5  258.47   31.40
   1   4   5  291.67   36.50
  -1  -4  -5  389.36   34.00
  -1  -4  -5  306.27   35.80
   2   4   6  151.18   23.90
   2   4   6  241.78   30.00
   2   4   6  179.88   18.80
  -2  -4  -6  207.98   26.00
  -2  -4  -6  210.98   27.80
  -2  -4  -6  171.78   19.70
  -2  -4  -6  138.29   17.20
   3   4   7  164.98   32.60
   3   4   7  174.58   19.40
  -3  -4  -7  169.88   21.50
  -3  -4  -7  165.28   18.10
   4   4   8  196.18   38.90
   4   4   8  198.38   38.90
   4   4   8  203.08   22.10
  -4  -4  -8  154.98   22.80
  -4  -4  -8  168.88   20.00
   5   4   9   59.79   25.90
   5   4   9   35.00   27.60
  -5  -4  -9   48.60   10.30
  -5  -4  -9   53.79   13.30
   6   4  10    5.10   29.90
   6   4  10   -4.30   24.30
   6  -3   2   10.80   30.00
   6  -3   2   20.90   24.90
   5  -3   1   15.10   26.40
   5  -3   1   -2.00   17.50
   5  -3   1    2.30   16.30
   4  -3   0   32.20   17.90
   4  -3   0   29.40   16.00
   3  -3  -1  191.68   31.50
   3  -3  -1  138.99   29.50
  -2   3   2  267.27   38.70
  -2   3   2  194.68   26.10
   2  -3  -2  250.97   27.30
   2  -3  -2  258.27   37.90
  -1   3   3 1307.07  130.29
   1  -3  -3 1475.65  131.19
   0   3   4 1235.28  111.99
   0   3   4 1307.57  111.29
   0   3   4 1269.87  114.69
   0   3   4 1208.78  117.99
   0   3   4 1065.29  111.99
   0   3   4 1386.26  110.79
   0  -3  -4 1302.07  119.69
   0  -3  -4 1173.58  111.59
   0  -3  -4 1421.36  114.89
   0  -3  -4 1231.58  112.09
   1   3   5  583.44   58.99
   1   3   5  531.25   56.89
   1   3   5  534.45   54.49
   1   3   5  577.84   52.19
  -1  -3  -5  537.35   58.69
  -1  -3  -5  597.14   53.69
  -1  -3  -5  647.94   53.69
  -1  -3  -5  554.74   51.39
  -1  -3  -5  620.14   56.49
   2   3   6   46.90    8.00
   2   3   6   67.49   16.80
   2   3   6   40.20    9.80
   2   3   6  104.39   20.30
  -2  -3  -6   62.99   14.00
  -2  -3  -6   44.60    7.10
  -2  -3  -6   63.99   15.20
  -2  -3  -6   53.09    9.90
   3   3   7   44.50   18.90
   3   3   7   92.79   24.40
   3   3   7   42.70    9.10
  -3  -3  -7   36.30    9.80
  -3  -3  -7   62.39    9.00
   4   3   8   11.00    6.70
   4   3   8   25.70   21.00
   4   3   8   24.60   21.40
  -4  -3  -8   10.60    7.30
  -4  -3  -8    8.60    5.30
   5   3   9   47.40   27.60
   5   3   9   44.50   25.10
  -5  -3  -9   47.70   10.40
  -5  -3  -9   34.30   11.90
   6   3  10   69.29   39.10
   7  -2   3    1.70   21.80
   6  -2   2   11.20   23.40
   6  -2   2   24.50   32.90
   5  -2   1   52.19   23.80
   5  -2   1   55.29   30.90
   5  -2   1   70.59   20.20
  -4   2   0  556.34   51.09
   4  -2   0  558.44   62.79
   4  -2   0  503.75   58.69
  -3   2   1  385.56   39.40
  -3   2   1  396.96   35.70
   3  -2  -1  327.27   43.80
  -2   2   2  465.35   46.10
  -1   2   3  366.76   31.60
  -1   2   3  336.17   34.40
   1  -2  -3  323.37   31.70
   1  -2  -3  334.57   31.60
   1  -2  -3  356.56   39.90
   0   2   4  441.86   45.50
   0   2   4  413.36   47.10
   0   2   4  437.86   44.50
   0   2   4  482.95   41.50
   0   2   4  504.05   42.70
   0   2   4  486.95   42.90
   0  -2  -4  442.86   49.20
   0  -2  -4  495.35   45.30
   0  -2  -4  440.26   42.20
   0  -2  -4  484.95   42.90
   1   2   5 1126.19   96.99
   1   2   5 1011.80  102.69
   1   2   5 1052.49  102.29
   1   2   5 1095.59   98.79
  -1  -2  -5 1130.59  100.79
  -1  -2  -5 1148.59   97.99
  -1  -2  -5 1081.69   98.09
  -1  -2  -5 1010.70  102.89
   2   2   6  252.77   25.80
   2   2   6  249.18   26.30
   2   2   6  255.57   33.70
  -2  -2  -6  231.78   26.40
  -2  -2  -6  244.18   24.80
  -2  -2  -6  340.37   31.50
  -2  -2  -6  306.97   32.50
   3   2   7  179.48   19.10
   3   2   7  146.49   32.80
   3   2   7  183.58   33.50
  -3  -2  -7  156.78   20.60
  -3  -2  -7  161.68   18.00
   4   2   8   31.60    8.40
   4   2   8   41.70   21.70
   4   2   8    5.90   20.60
  -4  -2  -8   26.70    9.10
   5   2   9    7.00   23.70
   5   2   9   -3.90   22.20
  -5  -2  -9    1.40    8.50
   7  -1   3   -2.50   39.60
   7  -1   3   12.80   23.80
  -6   1  -2   -0.60    5.10
   6  -1   2    6.00   31.70
   6  -1   2    5.00   20.80
  -5   1  -1  100.29   14.30
   5  -1   1   87.09   31.30
   5  -1   1   99.09   24.10
   5  -1   1   98.29   29.10
  -4   1   0  313.17   29.00
  -4   1   0  270.07   31.40
   4  -1   0  282.17   37.20
  -3   1   1 1109.99   94.69
  -3   1   1 1094.49   97.59
   3  -1  -1  908.31  101.69
  -2   1   2  263.87   28.90
  -2   1   2  274.87   24.90
  -2   1   2  359.56   37.70
  -2   1   2  248.38   25.50
  -1   1   3 1506.15  157.68
  -1   1   3 2052.99  161.08
  -1   1   3 1755.02  161.28
  -1   1   3 1921.91  163.88
  -1   1   3 1630.84  158.58
   1  -1  -3 1991.50  157.98
   1  -1  -3 1718.33  158.48
   0   1   4  305.37   29.50
   0   1   4  295.67   33.50
   0   1   4  307.27   34.50
   0   1   4  349.57   31.60
   0   1   4  285.87   28.20
   0   1   4  345.57   30.10
   0  -1  -4  321.17   29.50
   0  -1  -4  286.17   31.70
   0  -1  -4  317.67   29.00
   1   1   5  112.39   13.90
   1   1   5  145.09   23.50
   1   1   5  171.58   16.70
   1   1   5  135.09   20.60
  -1  -1  -5  214.88   21.30
  -1  -1  -5  110.89   14.50
   2   1   6  558.44   71.29
   2   1   6  643.64   63.79
   2   1   6  822.52   64.09
   2   1   6  740.33   71.89
  -2  -1  -6  675.43   64.09
  -2  -1  -6  676.73   66.99
   3   1   7  114.39   14.20
   3   1   7   86.19   26.80
  -3  -1  -7  100.69   15.40
   4   1   8   31.00   24.10
   4   1   8   59.29   11.60
   4   1   8   79.39   27.80
  -4  -1  -8   50.89   11.50
   5   1   9   27.90   29.50
   5   1   9   73.79   32.70
  -5  -1  -9   21.10   10.40
  -7   0  -3   12.70    7.40
   7   0   3   21.00   40.60
   7   0   3   -6.50   21.80
  -6   0  -2   32.70    8.60
   6   0   2    6.00   32.10
   6   0   2   21.90   27.00
  -5   0  -1  186.68   21.80
  -5   0  -1  192.18   23.60
   5   0   1  214.78   42.80
   5   0   1  237.58   35.80
  -4   0   0   58.69   11.10
  -4   0   0   47.40    8.20
   4   0   0   21.10   13.20
  -3   0   1  401.06   41.90
  -3   0   1  440.16   39.60
  -2   0   2 1629.04  144.79
  -2   0   2 1665.93  145.49
  -2   0   2 1629.24  148.39
  -1   0   3  260.27   24.70
  -1   0   3  324.37   28.60
   1   0  -3  240.48   24.50
   1   0  -3  256.87   24.00
   0   0   4   59.19    8.20
   0   0   4   66.69    7.10
   0   0   4   43.50    9.20
   0   0   4   61.09   16.70
   0   0   4   73.29   13.50
   0   0   4   59.29    9.20
   0   0  -4   59.59    7.60
   0   0  -4   60.49   11.60
   0   0  -4   53.99    7.70
   1   0   5  299.97   29.60
   1   0   5  306.07   37.60
   1   0   5  293.67   34.00
   1   0   5  224.88   27.30
  -1   0  -5  393.46   33.70
  -1   0  -5  300.07   28.40
   2   0   6  283.67   32.50
   2   0   6  399.16   46.50
  -2   0  -6  329.97   36.40
   3   0   7   47.50    9.80
   3   0   7   52.99   26.80
   3   0   7  110.59   26.70
  -3   0  -7   30.00    9.20
   4   0   8   -9.10   22.50
   4   0   8   54.39   28.20
  -4   0  -8   16.70    7.70
   5   0   9   18.00   33.20
   5   0   9   25.50   30.30
  -5   0  -9   20.70   10.40
  -7  -1  -3    6.50    6.90
   7   1   3    0.80   35.70
   7   1   3   -0.70   24.30
  -6  -1  -2   42.70    9.50
   6   1   2  -15.40   30.00
  -5  -1  -1   64.69   12.10
  -5  -1  -1   73.49   11.00
   5   1   1  -17.50   22.90
  -4  -1   0    0.30    5.20
  -4  -1   0   10.00    4.30
   4   1   0   15.80   18.00
  -3  -1   1 1204.18  106.59
  -3  -1   1 1201.98  108.49
  -3  -1   1 1213.68  106.59
  -3  -1   1 1215.58  111.19
  -2  -1   2  883.61   73.19
  -2  -1   2  735.13   67.79
  -2  -1   2  751.72   68.29
  -2  -1   2  663.93   70.89
   2   1  -2  756.02   67.99
  -1  -1   3 1365.16  127.69
  -1  -1   3 1420.86  126.79
  -1  -1   3 1389.66  129.49
   1   1  -3 1363.86  125.69
   1   1  -3 1421.66  124.69
   1   1  -3 1457.75  125.09
   0  -1   4  623.14   53.29
   0  -1   4  536.55   58.19
   0  -1   4  497.35   53.09
   0  -1   4  605.74   49.90
   0  -1   4  559.74   50.79
   0   1  -4  499.95   50.09
   0   1  -4  589.14   50.39
   0   1  -4  446.26   52.29
   1  -1   5  474.95   50.99
   1  -1   5  537.85   45.40
   1  -1   5  553.44   47.80
   1  -1   5  468.35   55.39
  -1   1  -5  450.55   45.10
  -1   1  -5  380.26   48.00
   2  -1   6  577.94   56.29
   2  -1   6  547.15   66.79
   2  -1   6  577.74   54.79
   2  -1   6  641.34   64.89
  -2   1  -6  561.14   54.99
   3  -1   7  203.28   36.50
   3  -1   7  145.99   38.20
   3  -1   7  143.39   19.10
  -3   1  -7  155.48   20.20
   4  -1   8   54.99   33.30
   4  -1   8    9.50   24.50
  -4   1  -8   14.30    9.30
   5  -1   9   12.50   32.80
   5  -1   9   -1.40   30.20
  -7  -2  -3   14.00    7.60
   7   2   3   10.00   36.60
  -6  -2  -2  120.69   15.30
   6   2   2   11.90   29.20
  -5  -2  -1   75.69   13.20
  -5  -2  -1  109.79   16.60
  -4  -2   0   53.99    9.60
  -4  -2   0   62.89    6.70
  -4  -2   0   66.39   13.10
  -4  -2   0   56.09    6.60
  -3  -2   1   83.39    8.90
  -3  -2   1   79.29   10.60
  -3  -2   1   68.29   14.10
  -2  -2   2  452.65   41.30
  -2  -2   2  426.16   44.30
  -2  -2   2  461.95   41.10
  -2  -2   2  466.95   46.50
   2   2  -2  470.45   41.30
   2   2  -2  419.86   40.30
   2   2  -2  435.56   40.50
  -1  -2   3  211.48   22.50
  -1  -2   3  275.67   22.30
  -1  -2   3  216.98   21.10
  -1  -2   3  202.38   28.60
  -1  -2   3  217.68   25.40
  -1  -2   3  248.28   23.90
   1   2  -3  196.88   23.70
   1   2  -3  233.68   22.60
   1   2  -3  219.18   22.20
   0  -2   4  759.22   70.79
   0  -2   4  723.63   76.99
   0  -2   4  809.12   67.79
   0  -2   4  745.83   71.69
   0   2  -4  735.93   68.09
   0   2  -4  658.63   70.49
   1  -2   5  145.69   31.00
   1  -2   5  155.18   15.90
   1  -2   5  163.28   18.70
   1  -2   5  146.59   25.60
  -1   2  -5   97.89   15.40
  -1   2  -5   98.79   19.40
   2  -2   6  454.85   46.80
   2  -2   6  547.95   58.99
   2  -2   6  433.06   60.99
   2  -2   6  504.05   49.40
  -2   2  -6  496.45   47.40
   3  -2   7  242.58   43.10
   3  -2   7  207.08   24.40
   3  -2   7  176.98   46.20
  -3   2  -7  210.38   24.80
   4  -2   8   14.60   30.50
   4  -2   8   29.00   29.10
  -4   2  -8   15.20    9.40
  -7  -3  -3   20.00    9.20
  -6  -3  -2   79.59    9.60
  -6  -3  -2   93.09   15.00
  -5  -3  -1  142.49   14.20
  -5  -3  -1  113.79   17.60
  -5  -3  -1  154.98   21.40
  -5  -3  -1  137.39   14.30
  -4  -3   0  114.09   12.40
  -4  -3   0  137.49   19.20
  -4  -3   0  112.29   12.50
  -4  -3   0  118.29   15.20
  -3  -3   1  414.76   37.80
  -3  -3   1  412.46   38.90
  -3  -3   1  383.16   41.90
   3   3  -1  414.96   39.10
   3   3  -1  394.86   37.00
   3   3  -1  417.86   37.30
  -2  -3   2 1514.55  122.99
  -2  -3   2 1229.38  115.99
  -2  -3   2 1226.78  119.59
   2   3  -2 1246.68  116.19
   2   3  -2 1319.87  116.69
   2   3  -2 1265.57  115.79
  -1  -3   3  531.95   55.39
  -1  -3   3  512.95   50.89
  -1  -3   3  469.75   47.40
  -1  -3   3  478.65   46.30
  -1  -3   3  553.14   48.60
   1   3  -3  458.55   47.30
   1   3  -3  471.75   49.20
   1   3  -3  589.34   48.10
   0  -3   4  224.98   37.60
   0  -3   4  230.38   29.00
   0  -3   4  261.67   24.00
   0  -3   4  238.78   27.50
   0   3  -4  214.38   24.00
   0   3  -4  215.08   29.40
   1  -3   5  389.36   46.90
   1  -3   5  432.06   39.40
   1  -3   5  395.66   53.59
   1  -3   5  470.95   42.90
  -1   3  -5  375.86   39.30
  -1   3  -5  333.07   43.00
   2  -3   6  181.58   43.60
   2  -3   6  192.98   27.10
   2  -3   6  196.58   34.60
   2  -3   6  186.38   22.00
  -2   3  -6  194.88   22.30
   3  -3   7   39.30   35.00
   3  -3   7   33.60   28.00
  -3   3  -7   13.20    8.80
   4  -3   8   16.70   30.10
   4  -3   8   31.40   38.60
  -4   3  -8    7.20    9.60
  -7  -4  -3    7.60    4.70
  -7  -4  -3    6.60    7.30
  -6  -4  -2   14.50    4.90
  -6  -4  -2    2.50    6.20
   6   4   2    9.30    3.90
  -5  -4  -1   77.69   15.00
  -5  -4  -1   65.49    9.70
  -5  -4  -1   64.29   11.70
   5   4   1   72.29    8.30
  -4  -4   0  138.79   15.70
  -4  -4   0  126.89   19.80
  -4  -4   0  123.19   14.10
   4   4   0  122.49   13.20
  -3  -4   1  224.58   28.40
  -3  -4   1  236.88   24.50
   3   4  -1  235.68   23.70
   3   4  -1  243.98   23.50
  -2  -4   2   39.00   17.10
  -2  -4   2   52.49   12.70
  -2  -4   2   51.89    5.80
   2   4  -2   41.60    9.60
   2   4  -2   52.99    8.70
   2   4  -2   43.50    9.20
  -1  -4   3  381.36   46.30
  -1  -4   3  414.46   36.60
  -1  -4   3  335.27   40.20
   1   4  -3  361.66   40.10
   1   4  -3  411.86   38.20
   0  -4   4  134.49   16.20
   0  -4   4  149.59   33.20
   0  -4   4  132.79   22.70
   0  -4   4  137.79   21.60
   0   4  -4  114.69   21.30
   0   4  -4  156.18   18.70
   1  -4   5    6.80    5.70
   1  -4   5   23.60   17.10
   1  -4   5   16.70   22.90
  -1   4  -5   13.90    6.00
   2  -4   6  241.58   29.60
   2  -4   6  186.18   48.60
   2  -4   6  214.58   25.70
   2  -4   6  210.88   39.80
  -2   4  -6  251.87   26.90
   3  -4   7   48.50   29.60
   3  -4   7   14.00   29.60
  -3   4  -7   21.80   10.20
  -7  -5  -3   24.40    9.70
  -7  -5  -3   37.90    7.70
  -6  -5  -2   40.90   11.40
  -6  -5  -2   73.19   10.50
  -5  -5  -1  197.58   19.40
  -5  -5  -1  163.28   25.00
  -5  -5  -1  150.58   21.50
   5   5   1  174.38   18.30
  -4  -5   0   34.20   12.70
  -4  -5   0   43.80    8.50
  -4  -5   0   40.30    9.10
   4   5   0   49.70    8.10
  -3  -5   1  122.89   15.70
  -3  -5   1   96.29   19.70
  -3  -5   1  143.69   28.40
   3   5  -1  117.59   15.70
  -2  -5   2  355.16   37.20
  -2  -5   2  322.27   39.90
   2   5  -2  278.97   33.20
  -1  -5   3  217.48   32.50
   1   5  -3  146.49   22.50
   0  -5   4  102.49   19.10
   0  -5   4  119.99   30.30
   0   5  -4   66.19   20.40
   0   5  -4   92.19   15.10
   1  -5   5  474.65   67.39
   1  -5   5  497.45   70.89
   1  -5   5  576.74   56.19
  -1   5  -5  523.25   51.79
   2  -5   6   53.89   17.60
   2  -5   6   88.29   32.20
   2  -5   6   53.59   38.10
  -2   5  -6   59.19   13.90
   3  -5   7   36.50   31.60
   3  -5   7   44.80   38.20
  -3   5  -7   14.40   11.50
  -7  -6  -3   24.70    7.90
  -7  -6  -3   24.70   10.20
  -6  -6  -2   40.40    8.70
  -6  -6  -2   32.70    9.50
  -5  -6  -1   22.40    8.10
  -5  -6  -1   11.10    6.60
  -5  -6  -1   17.30   11.40
  -4  -6   0  312.47   33.80
  -4  -6   0  284.47   37.70
  -4  -6   0  354.16   33.00
   4   6   0  315.47   32.10
  -3  -6   1  407.46   38.10
  -3  -6   1  385.96   43.60
  -3  -6   1  347.07   45.90
   3   6  -1  353.96   38.40
  -2  -6   2  113.49   22.60
  -2  -6   2  217.28   31.90
   2   6  -2  141.19   22.90
  -1  -6   3   21.00   10.90
  -1  -6   3   19.60   19.10
   0  -6   4  331.17   40.30
   0  -6   4  356.06   52.69
   1  -6   5   25.60   32.30
   1  -6   5   20.40   14.10
   2  -6   6   39.00   34.80
  -2   6  -6   49.70   17.70
  -7  -7  -3   -4.20    7.30
  -6  -7  -2   -3.80    6.60
  -6  -7  -2    8.60    6.70
  -5  -7  -1    1.20   10.60
  -5  -7  -1    3.50    7.20
  -5  -7  -1   14.40    7.30
  -4  -7   0   13.20   12.00
  -4  -7   0   19.10    9.00
  -4  -7   0   17.90    8.40
  -3  -7   1   84.19   14.10
  -3  -7   1   69.19   25.70
  -3  -7   1   75.29   19.00
   3   7  -1   75.99   16.00
  -2  -7   2   14.50   12.60
  -2  -7   2   28.00   22.10
   2   7  -2   11.90   14.60
  -1  -7   3   76.19   19.50
  -1  -7   3   76.39   30.60
   0  -7   4   94.79   37.60
   0  -7   4   64.59   19.80
   1  -7   5   34.90   34.60
   1  -7   5  139.49   25.80
  -6  -8  -2    6.20    9.00
  -6  -8  -2   14.80    9.20
  -5  -8  -1    5.20    8.70
  -5  -8  -1    1.10   12.80
  -5  -8  -1   -2.10    8.20
  -4  -8   0   69.39   13.90
  -4  -8   0   91.99   15.30
  -4  -8   0   41.80   18.30
  -3  -8   1   47.10   11.90
  -3  -8   1   53.99   18.50
  -3  -8   1   32.50   23.80
  -2  -8   2   26.70   24.20
  -2  -8   2   16.10   13.30
  -1  -8   3   57.69   18.90
  -1  -8   3   85.89   35.90
   0  -8   4   88.89   22.80
   0  -8   4  191.78   48.60
  -6  -9  -2    5.50    8.70
  -5  -9  -1    0.60   15.70
  -5  -9  -1   20.90   10.60
  -5  -9  -1   24.90   10.80
  -4  -9   0   25.50   11.10
  -4  -9   0   47.20   13.90
  -4  -9   0   17.10   16.30
  -3  -9   1   49.90   29.70
  -3  -9   1   64.79   15.50
  -3  -9   1   71.79   21.60
  -2  -9   2    1.50   25.00
  -2  -9   2    4.10   13.40
  -1  -9   3   36.00   35.10
  -1  -9   3    1.00   14.90
  -4 -10   0   11.60   11.50
  -4 -10   0   10.90   14.10
  -3 -10   1   10.10   10.50
   1  11   6   11.30   55.59
   2  11   7   43.70   46.50
  -1  10   4   12.00   43.80
   1 -10  -4   23.20   20.00
   0  10   5  144.39   51.89
   0 -10  -5  135.19   32.00
   1  10   6   46.40   39.20
  -1 -10  -6   60.79   22.00
   2  10   7    9.50   36.40
  -2 -10  -7   -2.20   15.80
   3  10   8   50.69   39.60
   2  -9  -3    8.40   19.10
  -1   9   4  248.08   62.99
   1  -9  -4  312.57   49.00
   0   9   5  191.48   52.69
   0  -9  -5  226.68   40.10
   1   9   6  108.79   39.40
  -1  -9  -6   58.99   23.20
   2   9   7   40.10   38.70
  -2  -9  -7   17.60   16.80
   3   9   8   98.39   39.80
   4   9   9  -17.70   31.50
   3  -8  -2   25.50   23.70
  -2   8   3  162.78   50.09
  -1   8   4   56.09   37.90
   1  -8  -4   49.20   22.00
   0   8   5   40.90   31.60
   0  -8  -5   28.60   18.80
   1   8   6  217.48   44.90
  -1  -8  -6  216.58   31.00
  -1  -8  -6  131.29   30.10
   2   8   7  142.49   38.00
  -2  -8  -7   45.10   19.30
  -2  -8  -7   78.39   25.10
   3   8   8   63.59   30.80
   4   8   9    2.10   29.50
   5   8  10    9.80   33.80
   4  -7  -1   57.09   26.70
   3  -7  -2   36.90   22.80
  -2   7   3   67.29   38.50
   2  -7  -3   67.79   24.10
  -1   7   4  249.48   52.89
   1  -7  -4  273.17   44.90
   1  -7  -4  319.37   40.60
   0   7   5   68.99   30.30
   0  -7  -5  102.59   25.90
   0  -7  -5   92.79   19.10
   1   7   6  120.19   34.10
  -1  -7  -6  112.59   26.50
  -1  -7  -6  116.59   23.00
   2   7   7  180.28   36.20
  -2  -7  -7   88.09   24.10
  -2  -7  -7  137.69   28.40
   3   7   8  439.06   59.79
   4   7   9   55.19   31.00
   5   7  10   -5.10   28.10
   4  -6  -1    0.30   16.40
   3  -6  -2  214.08   40.10
  -2   6   3  491.35   70.99
   2  -6  -3  543.05   63.39
   2  -6  -3  556.84   53.79
  -1   6   4  319.57   51.69
   1  -6  -4  369.66   39.30
   1  -6  -4  409.76   54.69
   0   6   5  197.98   41.80
   0  -6  -5  261.07   32.60
   0  -6  -5  267.67   42.00
   1   6   6  274.37   41.90
  -1  -6  -6  306.47   35.60
  -1  -6  -6  265.17   36.40
  -2  -6  -7   47.20   15.20
  -2  -6  -7   41.90   18.40
   3   6   8  144.79   33.20
   4   6   9  183.48   40.60
   5   6  10   13.40   27.30
   5  -5   0   15.30   20.20
   4  -5  -1   35.30   11.60
   4  -5  -1   57.09   23.30
   3  -5  -2  245.88   41.00
   3  -5  -2  186.18   23.00
  -2   5   3  397.26   56.99
   2  -5  -3  420.56   49.80
   2  -5  -3  375.36   39.70
  -1   5   4  308.87   47.20
   1  -5  -4  361.46   44.20
   1  -5  -4  338.17   36.10
   0   5   5   77.79   24.90
   0  -5  -5   53.49    9.10
   0  -5  -5  129.39   18.90
   0  -5  -5  133.79   27.30
   1   5   6  353.16   47.10
  -1  -5  -6  412.06   41.80
  -1  -5  -6  366.06   44.60
  -2  -5  -7  157.68   22.20
  -2  -5  -7  190.18   26.80
  -2  -5  -7  185.58   29.50
   3   5   8  233.18   36.10
  -3  -5  -8  269.97   28.70
   4   5   9   34.40   22.60
   4   5   9   39.80   26.80
  -4  -5  -9   49.40   13.30
   5   5  10   18.30   24.60
   5   5  10   64.99   30.60
  -5  -5 -10   29.90   12.90
   6  -4   1   17.90   34.20
   5  -4   0  133.29   30.90
   4  -4  -1  115.29   29.70
  -3   4   2   36.70   27.80
   3  -4  -2   29.90   17.90
  -2   4   3  177.08   38.30
   2  -4  -3  180.58   18.80
   2  -4  -3  143.19   18.80
   2  -4  -3  160.98   33.00
  -1   4   4  468.75   47.10
  -1   4   4  423.96   54.49
  -1   4   4  438.76   42.20
   1  -4  -4  453.45   41.90
   1  -4  -4  474.65   53.19
   1  -4  -4  482.35   45.40
   0   4   5  553.34   56.49
   0   4   5  542.15   62.19
   0  -4  -5  592.24   56.99
   0  -4  -5  618.54   63.09
   0  -4  -5  581.04   53.39
   0  -4  -5  573.24   52.69
   1   4   6  341.67   31.80
   1   4   6  274.97   36.90
   1   4   6  328.27   35.80
   1   4   6  341.07   41.90
  -1  -4  -6  331.07   41.90
  -1  -4  -6  327.27   30.60
  -1  -4  -6  383.46   33.90
  -1  -4  -6  411.56   38.70
   2   4   7   55.39    9.70
   2   4   7   50.19   18.40
   2   4   7  116.69   24.60
  -2  -4  -7   62.89   11.30
  -2  -4  -7   79.39   19.30
  -2  -4  -7   58.29    9.70
  -2  -4  -7   59.39   17.20
   3   4   8  368.96   34.10
   3   4   8  254.87   42.70
   3   4   8  340.47   46.70
  -3  -4  -8  351.06   35.10
   4   4   9   73.59   29.30
   4   4   9  125.69   33.00
  -4  -4  -9   94.79   16.50
   5   4  10  -10.10   22.20
   5   4  10   -1.70   21.60
  -5  -4 -10    2.90    9.00
   6  -3   1   43.50   35.80
   5  -3   0   -6.70   16.40
   5  -3   0   -3.20   15.80
   4  -3  -1  123.09   29.40
   4  -3  -1  107.69   26.70
  -3   3   2  837.02   85.79
  -3   3   2  641.04   68.89
   3  -3  -2  582.24   74.59
   3  -3  -2  739.03   72.09
  -2   3   3  845.92   87.69
  -2   3   3  869.01   79.69
   2  -3  -3  743.83   85.29
  -1   3   4  409.96   39.20
  -1   3   4  469.05   48.40
  -1   3   4  363.76   34.60
   1  -3  -4  379.26   34.90
   1  -3  -4  267.77   35.90
   1  -3  -4  492.65   48.70
   1  -3  -4  346.77   33.90
   0   3   5  150.18   21.40
   0   3   5  170.98   21.50
   0   3   5  215.68   19.60
   0   3   5  178.48   28.30
   0  -3  -5  199.68   18.90
   0  -3  -5  187.48   19.40
   0  -3  -5  191.18   32.70
   0  -3  -5  218.78   24.40
   1   3   6  763.52   75.39
   1   3   6  700.53   69.89
   1   3   6  678.63   73.59
   1   3   6  767.12   66.99
  -1  -3  -6  688.33   75.99
  -1  -3  -6  776.52   72.29
  -1  -3  -6  784.12   68.59
   2   3   7  228.38   33.70
   2   3   7  218.18   26.90
   2   3   7  233.98   25.10
   2   3   7  294.37   36.30
  -2  -3  -7  256.07   32.60
  -2  -3  -7  244.88   26.10
  -2  -3  -7  260.17   36.70
   3   3   8   21.90    7.60
   3   3   8   30.10   20.10
  -3  -3  -8   21.50    9.10
   4   3   9   46.10   25.10
   4   3   9   68.59   28.40
   4   3   9   57.79   11.90
  -4  -3  -9   48.90   12.30
   5   3  10   10.50   25.50
   5   3  10  108.89   36.10
  -5  -3 -10   67.69   15.20
   7  -2   2   12.60   49.50
   7  -2   2   18.40   28.90
   6  -2   1   26.50   25.10
   6  -2   1   25.50   36.20
  -5   2   0   35.00    8.50
   5  -2   0   27.60   20.30
   5  -2   0   52.29   20.20
  -4   2   1  225.68   28.40
  -4   2   1  240.78   24.30
   4  -2  -1  264.17   42.90
  -3   2   2  793.02   70.09
  -3   2   2  811.92   74.79
  -3   2   2  786.92   85.09
   3  -2  -2  657.63   79.69
  -2   2   3   98.19   15.70
  -2   2   3   83.79    9.20
   2  -2  -3  108.79   24.80
  -1   2   4  329.27   29.10
   1  -2  -4  310.37   29.00
   1  -2  -4  272.77   30.40
   0   2   5  378.16   34.10
   0   2   5  404.16   38.60
   0   2   5  378.06   40.80
   0   2   5  369.46   35.90
   0   2   5  348.17   41.60
   0  -2  -5  395.86   39.50
   0  -2  -5  382.76   35.40
   0  -2  -5  378.76   35.90
   1   2   6  134.79   15.10
   1   2   6  122.89   21.50
   1   2   6   98.09   11.60
   1   2   6   76.89   20.70
  -1  -2  -6  120.39   18.20
  -1  -2  -6   60.39   11.40
   2   2   7  225.98   23.70
  -2  -2  -7  231.88   24.70
   3   2   8   56.59   23.50
   3   2   8   88.79   13.70
   3   2   8  127.29   29.30
  -3  -2  -8   92.69   15.20
   4   2   9   -9.40   17.90
   4   2   9   -1.50   20.70
   4   2   9   13.90    9.00
  -4  -2  -9   -0.80    6.80
   5   2  10   32.00   31.90
   5   2  10  -25.20   25.30
  -5  -2 -10   24.40   10.30
  -7   1  -2   32.60   11.40
   7  -1   2   20.40   26.80
   7  -1   2   -2.00   41.20
  -6   1  -1   35.20    9.40
   6  -1   1   26.00   36.40
   6  -1   1   52.89   29.80
  -5   1   0   79.79   15.50
  -5   1   0   48.70    9.50
   5  -1   0   47.30   20.60
  -4   1   1    3.00    6.40
  -4   1   1    2.10    3.70
   4  -1  -1  -10.80   13.00
  -3   1   2  692.43   68.79
  -3   1   2  541.65   56.99
  -3   1   2  543.15   53.09
  -2   1   3  316.17   29.70
  -2   1   3  289.47   33.80
  -2   1   3  351.66   29.90
  -1   1   4  510.85   49.99
   0   1   5  466.75   49.99
   0   1   5  520.25   51.49
   0   1   5  424.46   44.40
   0   1   5  530.65   47.40
   0  -1  -5  498.45   44.70
   0  -1  -5  518.45   48.50
   0  -1  -5  433.46   44.00
   1   1   6 2261.27  181.08
   1   1   6 2009.70  182.98
   1   1   6 2039.00  187.18
   1   1   6 1847.22  189.48
  -1  -1  -6 1886.81  184.88
  -1  -1  -6 2108.79  181.78
   2   1   7  325.67   33.90
   2   1   7  331.57   42.80
   2   1   7  304.87   43.50
   2   1   7  367.76   32.90
  -2  -1  -7  296.47   38.10
  -2  -1  -7  317.67   33.20
   3   1   8   55.69   22.90
   3   1   8   25.80    8.10
   3   1   8   20.60   21.70
  -3  -1  -8   13.20    8.50
   4   1   9  122.59   34.20
   4   1   9   65.99   31.00
  -4  -1  -9   84.79   16.30
   5   1  10   38.20   38.50
   5   1  10   18.80   30.30
  -5  -1 -10   15.60   12.00
  -7   0  -2   12.80    8.80
   7   0   2   15.60   24.30
   7   0   2   31.20   42.90
  -6   0  -1  106.29   14.40
   6   0   1   11.70   31.90
  -5   0   0   19.20    9.20
  -5   0   0    3.90    5.40
   5   0   0    6.40   26.20
   5   0   0   25.40   18.70
  -4   0   1  368.46   40.20
  -4   0   1  394.36   37.10
  -3   0   2  975.20   86.49
  -3   0   2  937.51   90.09
  -2   0   3  393.96   37.00
  -2   0   3  401.16   41.30
  -2   0   3  417.16   37.10
  -1   0   4  312.47   32.90
  -1   0   4  283.57   32.60
  -1   0   4  286.47   30.50
  -1   0   4  284.97   27.20
  -1   0   4  271.77   25.90
   1   0  -4  230.98   28.30
   1   0  -4  298.87   26.60
   1   0  -4  297.47   27.20
   0   0   5 1116.99  110.99
   0   0   5 1267.17  109.89
   0   0   5 1182.28  113.39
   0   0   5 1172.28  114.79
   0   0   5 1315.07  119.79
   0   0  -5 1250.87  110.79
   0   0  -5 1271.47  114.69
   0   0  -5 1323.97  111.29
   1   0   6  285.67   41.70
   1   0   6  299.27   37.50
   1   0   6  321.27   29.70
   1   0   6  310.07   32.50
  -1   0  -6  290.47   35.20
  -1   0  -6  297.77   30.50
   2   0   7  143.09   19.20
   2   0   7  212.28   22.10
   2   0   7  245.08   36.20
  -2   0  -7  152.28   19.80
   3   0   8   80.49   14.20
   3   0   8   76.79   33.60
   3   0   8  136.19   31.10
   4   0   9  121.39   35.80
   4   0   9   -4.50   24.60
  -4   0  -9   18.00   10.20
  -7  -1  -2   23.80    9.60
   7   1   2    3.30   39.50
  -6  -1  -1    3.60    6.00
   6   1   1  -11.00   29.70
  -5  -1   0  251.07   26.40
  -5  -1   0  240.08   28.50
  -4  -1   1   18.00    9.40
  -4  -1   1   16.00    5.60
  -3  -1   2   22.90    4.10
  -3  -1   2   43.00   11.40
  -3  -1   2   28.60    5.60
  -2  -1   3  384.96   37.60
  -2  -1   3  315.57   31.40
  -2  -1   3  346.17   37.10
  -2  -1   3  332.67   31.40
  -2  -1   3  319.47   35.80
   2   1  -3  311.57   30.50
   2   1  -3  336.67   30.90
   2   1  -3  353.26   31.70
  -1  -1   4  413.96   44.40
  -1  -1   4  369.26   40.30
  -1  -1   4  458.45   40.80
   1   1  -4  343.07   38.40
   1   1  -4  355.36   36.70
   1   1  -4  386.16   36.50
   0  -1   5  307.57   40.00
   0  -1   5  251.17   30.80
   0  -1   5  289.37   27.40
   0  -1   5  301.57   33.70
   0   1  -5  288.37   28.40
   0   1  -5  278.47   32.40
   1  -1   6  988.90   87.69
   1  -1   6  862.81   99.59
   1  -1   6 1089.49   91.09
   1  -1   6  944.61   94.69
  -1   1  -6  847.22   91.99
  -1   1  -6 1003.20   88.19
   2  -1   7  155.48   20.40
   2  -1   7  135.59   17.60
   2  -1   7  195.58   32.70
   2  -1   7  139.29   36.50
  -2   1  -7  108.79   17.40
   3  -1   8  192.98   37.40
   3  -1   8   93.79   15.80
   3  -1   8   90.99   35.50
  -3   1  -8   74.79   15.30
   4  -1   9   10.80   28.50
   4  -1   9    2.70   34.30
  -4   1  -9   46.50   11.90
  -7  -2  -2   93.89   16.80
  -6  -2  -1  150.38   20.70
  -5  -2   0   40.50   11.40
  -5  -2   0   40.20    8.30
   5   2   0  -26.60   20.40
  -4  -2   1   46.90    6.00
  -4  -2   1   43.70    8.20
  -4  -2   1   46.70   12.40
  -4  -2   1   48.90    5.90
  -3  -2   2  348.37   36.80
  -3  -2   2  347.17   32.70
  -3  -2   2  343.47   31.60
   3   2  -2  324.07   30.30
   3   2  -2  339.57   30.30
  -2  -2   3  156.78   16.80
  -2  -2   3  167.58   21.80
  -2  -2   3  157.78   23.50
  -2  -2   3  151.08   16.30
   2   2  -3  166.38   17.40
   2   2  -3  178.08   17.30
   2   2  -3  151.58   16.00
  -1  -2   4  571.34   64.39
  -1  -2   4  860.11   71.79
  -1  -2   4  658.13   59.69
  -1  -2   4  695.33   61.89
   1   2  -4  637.34   61.29
   1   2  -4  677.03   61.59
   1   2  -4  624.44   63.69
   0  -2   5  605.54   56.39
   0  -2   5  601.64   61.69
   0  -2   5  656.23   61.09
   0  -2   5  633.64   69.19
   0   2  -5  591.54   57.09
   0   2  -5  609.04   61.19
   1  -2   6  459.35   51.69
   1  -2   6  387.66   56.39
   1  -2   6  481.85   46.70
   1  -2   6  492.55   43.40
  -1   2  -6  363.46   48.20
  -1   2  -6  445.66   43.70
   2  -2   7  291.47   35.50
   2  -2   7  222.88   50.59
   2  -2   7  283.47   43.50
   2  -2   7  310.57   30.50
  -2   2  -7  285.37   30.90
   3  -2   8  -21.90   27.30
   3  -2   8   30.40   27.70
  -3   2  -8    8.30    8.80
   4  -2   9   37.50   35.30
   4  -2   9    7.50   38.30
  -4   2  -9   -3.10   10.30
  -7  -3  -2   -2.30    8.10
  -6  -3  -1   38.90   10.20
  -5  -3   0  255.47   24.40
  -5  -3   0  267.77   24.50
  -5  -3   0  240.68   28.00
  -5  -3   0  263.57   31.70
  -4  -3   1   36.60    7.30
  -4  -3   1   25.00    4.90
  -4  -3   1   33.90   10.10
  -4  -3   1   21.80    4.90
   4   3  -1   28.00    4.00
  -3  -3   2  350.16   32.20
  -3  -3   2  320.17   36.70
  -3  -3   2  342.37   32.80
  -3  -3   2  311.87   40.20
   3   3  -2  339.77   31.50
  -2  -3   3   56.39   17.30
  -2  -3   3   32.60   11.40
   2   3  -3   38.00    7.00
   2   3  -3   48.60    9.60
  -1  -3   4  334.37   42.40
   1   3  -4  293.97   30.20
   1   3  -4  279.97   33.30
   0  -3   5  180.38   36.10
   0  -3   5  170.98   25.90
   0  -3   5  173.48   25.40
   0   3  -5  140.79   24.10
   0   3  -5  165.08   19.30
   1  -3   6  199.88   26.90
   1  -3   6  217.28   34.30
   1  -3   6  210.98   43.40
  -1   3  -6  233.78   24.70
   2  -3   7  112.19   30.00
   2  -3   7   98.09   36.50
  -2   3  -7   54.99   12.50
   3  -3   8   33.70   33.70
   3  -3   8   72.09   30.80
  -3   3  -8   21.00   11.00
  -7  -4  -2   25.40   10.30
  -6  -4  -1   33.90    6.20
  -6  -4  -1   38.10   10.10
   6   4   1   28.80    5.40
  -5  -4   0  122.79   13.60
  -5  -4   0  120.79   17.20
  -5  -4   0  126.19   21.20
   5   4   0  118.79   12.70
  -4  -4   1  331.37   38.40
  -4  -4   1  316.07   33.90
   4   4  -1  352.26   32.00
  -3  -4   2  201.98   28.00
  -3  -4   2  250.97   38.30
  -3  -4   2  239.08   23.50
   3   4  -2  200.98   22.60
  -2  -4   3   56.19   13.60
   2   4  -3   48.10   11.40
  -1  -4   4  348.37   35.90
  -1  -4   4  303.07   42.10
   1   4  -4  244.48   34.00
   0  -4   5   49.00   14.40
   0  -4   5   75.89   28.80
   0   4  -5   38.00   16.00
   1  -4   6  508.55   64.49
   1  -4   6  357.16   59.79
   1  -4   6  500.65   49.50
   2  -4   7   32.40   25.60
   2  -4   7   25.90   35.00
   3  -4   8   36.20   30.10
   3  -4   8   21.80   35.80
  -7  -5  -2   12.00    8.70
  -7  -5  -2    5.20    4.90
  -6  -5  -1  102.79   13.10
  -6  -5  -1   85.69   15.60
  -5  -5   0    3.80    5.40
  -5  -5   0    0.10    8.60
  -5  -5   0    4.20    5.70
   5   5   0    5.10    4.60
  -4  -5   1   87.99   14.50
  -4  -5   1  100.19   20.40
   4   5  -1  111.09   13.50
  -3  -5   2   49.50   13.70
  -3  -5   2   42.90    9.30
  -3  -5   2   25.70   21.40
   3   5  -2   27.70    8.80
  -2  -5   3   24.10   18.70
  -2  -5   3   17.40   10.80
   2   5  -3   16.90   11.80
  -1  -5   4  170.38   27.30
  -1  -5   4  230.48   40.30
   1   5  -4  165.08   26.90
   0  -5   5  781.32   80.39
   0  -5   5  818.72   91.69
   1  -5   6   22.00   13.50
   1  -5   6   39.00   28.30
   2  -5   7   -7.00   35.30
  -7  -6  -2    8.80    9.50
  -7  -6  -2    5.30    8.00
  -6  -6  -1   23.70    7.10
  -6  -6  -1    0.80    7.30
  -5  -6   0  110.49   22.50
  -5  -6   0  104.29   16.50
  -5  -6   0  114.89   15.10
  -4  -6   1   27.20    8.60
  -4  -6   1   17.20   11.00
  -3  -6   2   62.79   11.00
  -3  -6   2   34.00   13.70
  -3  -6   2   26.70   21.50
   3   6  -2   17.50   11.30
  -2  -6   3   60.59   24.40
  -2  -6   3    0.20    8.80
   2   6  -3    7.20   13.30
  -1  -6   4  320.17   38.10
  -1  -6   4  281.97   45.20
   1   6  -4  217.88   37.70
   0  -6   5    7.20   11.20
   0  -6   5   33.60   27.60
   1  -6   6   42.20   18.70
   1  -6   6   59.49   36.90
  -7  -7  -2   -2.30    7.60
  -6  -7  -1   10.50    8.60
  -6  -7  -1   -1.00    7.00
  -5  -7   0   -0.90    6.50
  -5  -7   0    7.90   12.40
  -5  -7   0    9.60    7.90
  -4  -7   1   28.90   13.80
  -4  -7   1   33.20   10.60
  -3  -7   2   14.60   25.50
  -3  -7   2   16.40    8.30
  -3  -7   2   20.70   12.20
  -2  -7   3   76.69   27.20
  -2  -7   3   35.10   16.20
   2   7  -3   31.90   20.40
  -1  -7   4   33.80   27.10
  -1  -7   4   48.60   18.30
   0  -7   5   68.69   22.10
   0  -7   5  128.39   42.50
   1  -7   6    3.70   18.00
  -6  -8  -1    2.80    8.40
  -5  -8   0   26.40    9.70
  -5  -8   0   18.80   10.50
  -5  -8   0   11.70   13.90
  -4  -8   1   25.80   10.20
  -4  -8   1   12.70   14.20
  -3  -8   2  -17.40   25.50
  -3  -8   2    4.60    8.60
  -3  -8   2   15.20   15.10
  -2  -8   3   55.99   19.50
  -2  -8   3   66.09   34.00
  -1  -8   4  103.09   38.00
  -1  -8   4   39.20   20.90
  -5  -9   0    5.30   16.80
  -5  -9   0    7.90   10.60
  -4  -9   1    4.80    9.10
  -4  -9   1    0.50   14.10
  -4  -9   1    9.90   11.60
  -3  -9   2   18.70   28.50
  -3  -9   2   13.90   11.20
  -3  -9   2    9.90   17.00
  -2  -9   3   42.80   30.80
  -2  -9   3    5.20   18.50
  -1  10   5   44.50   51.79
   0  10   6    1.30   40.20
   0 -10  -6   -8.00   23.20
   1  10   7   27.00   38.50
  -1 -10  -7   18.30   21.90
   2  10   8   41.60   45.90
  -2 -10  -8   24.80   19.60
   3  10   9   35.10   45.50
  -2   9   4   59.69   48.70
   2  -9  -4   52.89   26.30
  -1   9   5   53.59   43.20
   1  -9  -5   94.19   31.40
   0   9   6   61.59   36.80
   0  -9  -6   44.90   22.10
   1   9   7    2.20   33.20
  -1  -9  -7    4.50   16.80
   2   9   8  132.39   44.10
  -2  -9  -8  142.39   30.30
   3   9   9   44.70   37.10
   4   9  10   14.60   36.60
   3  -8  -3   84.19   31.80
  -2   8   4   37.80   38.10
   2  -8  -4   22.30   24.50
  -1   8   5   67.89   35.80
   1  -8  -5   47.30   23.70
   0   8   6   81.99   35.20
   0  -8  -6   82.39   27.00
   1   8   7  133.19   38.80
  -1  -8  -7   42.10   21.60
   2   8   8  118.69   34.40
  -2  -8  -8   17.00   18.10
   3   8   9   24.50   28.30
   4   8  10   14.00   30.70
   4  -7  -2   38.60   27.00
   3  -7  -3   21.00   25.00
  -2   7   4   67.19   36.50
   2  -7  -4   55.29   26.70
  -1   7   5   49.60   29.70
   1  -7  -5   84.09   27.50
   0   7   6   77.09   31.70
   0  -7  -6   88.89   26.60
   1   7   7  448.66   60.19
  -1  -7  -7  423.26   50.89
  -1  -7  -7  436.06   54.79
   2   7   8  269.47   45.90
  -2  -7  -8  243.58   38.20
  -2  -7  -8  235.38   41.20
   3   7   9   29.20   25.30
   4   7  10   25.20   29.30
   5  -6  -1   10.00   24.40
   4  -6  -2   29.90   23.60
  -3   6   3  125.29   45.70
   3  -6  -3  169.78   37.00
  -2   6   4  334.37   56.59
   2  -6  -4  403.26   57.99
   2  -6  -4  298.27   37.50
  -1   6   5   31.30   25.90
   1  -6  -5   74.19   15.60
   1  -6  -5   32.60   21.80
   0   6   6  483.45   66.49
   0  -6  -6  564.14   63.79
   0  -6  -6  610.44   57.89
   1   6   7   49.80   23.30
  -1  -6  -7   65.69   19.50
  -1  -6  -7   51.09   22.20
  -2  -6  -8  100.99   23.20
  -2  -6  -8  127.19   25.70
   3   6   9  298.47   48.40
   4   6  10    5.10   25.70
   5   6  11    1.90   31.80
   5  -5  -1    1.50   22.40
   4  -5  -2   69.49   28.60
  -3   5   3  158.28   45.80
   3  -5  -3  172.88   22.20
   3  -5  -3  223.18   40.80
  -2   5   4  289.27   48.10
   2  -5  -4  213.98   28.40
   2  -5  -4  265.97   44.70
  -1   5   5  215.98   40.80
   1  -5  -5  199.08   36.80
   1  -5  -5  228.18   28.40
   0   5   6  202.18   39.60
   0  -5  -6  239.68   42.20
   0  -5  -6  240.58   31.60
   1   5   7  313.27   42.70
  -1  -5  -7  268.27   41.60
   2   5   8  575.34   60.99
  -2  -5  -8  439.06   53.79
  -2  -5  -8  385.46   54.09
   3   5   9  119.49   30.90
   4   5  10   50.29   29.60
   5   5  11   11.10   30.90
   6  -4   0   19.80   39.20
   5  -4  -1   29.10   25.50
   4  -4  -2   67.69   25.60
  -3   4   3   65.49   32.70
   3  -4  -3   65.29   27.70
  -2   4   4  234.78   43.70
  -2   4   4  210.18   26.80
   2  -4  -4  156.08   22.80
   2  -4  -4  277.57   44.20
  -1   4   5  457.95   49.60
  -1   4   5  540.25   60.39
   1  -4  -5  514.35   58.89
   1  -4  -5  421.36   48.30
   0   4   6 1057.99  107.19
   0   4   6  950.20  100.39
   0  -4  -6 1279.07  102.89
   0  -4  -6 1030.50   96.79
   0  -4  -6 1110.89  108.39
   1   4   7  427.26   53.49
   1   4   7  394.86   46.30
  -1  -4  -7  580.24   51.29
  -1  -4  -7  497.45   55.29
   2   4   8  278.07   44.70
   2   4   8  386.86   40.00
   2   4   8  421.46   50.29
  -2  -4  -8  423.26   47.30
  -2  -4  -8  362.76   44.00
   3   4   9   99.99   29.90
   3   4   9  182.48   37.50
   4   4  10   13.40   24.50
   4   4  10   23.40   26.00
   5   4  11    6.60   29.70
   6  -3   0   -1.10   37.30
   5  -3  -1   56.79   25.20
  -4   3   2   81.29   17.80
   4  -3  -2   72.89   27.00
  -3   3   3  391.36   42.20
  -3   3   3  328.87   56.99
   3  -3  -3  457.95   60.89
  -2   3   4   87.19   12.00
  -2   3   4  131.69   20.30
  -2   3   4  149.99   34.00
   2  -3  -4  112.29   28.30
   2  -3  -4   98.29   13.10
   2  -3  -4  128.09   12.00
  -1   3   5  181.08   29.30
  -1   3   5  288.17   28.10
   0   3   6 1500.25  131.09
   0   3   6 1469.65  136.59
   0   3   6 1317.37  130.49
   0  -3  -6 1527.75  139.49
   0  -3  -6 1282.97  126.99
   0  -3  -6 1542.35  132.59
   1   3   7  703.43   65.39
   1   3   7  610.24   69.89
   1   3   7  743.23   72.79
  -1  -3  -7  673.93   67.99
  -1  -3  -7  576.24   72.29
   2   3   8  122.39   28.70
   3   3   9  113.69   30.20
   3   3   9   38.00   23.60
   4   3  10   50.49   27.00
   4   3  10  100.39   34.30
   6  -2   0   59.79   40.10
   6  -2   0   42.00   27.70
  -5   2   1   98.99   19.40
  -5   2   1   76.79   12.60
   5  -2  -1   88.09   27.50
  -4   2   2  350.16   33.80
  -4   2   2  339.37   39.30
   4  -2  -2  371.36   56.49
  -3   2   3  270.27   43.90
  -3   2   3  168.78   18.70
  -3   2   3  192.38   24.70
   3  -2  -3  201.58   38.90
  -2   2   4   56.39   12.20
  -2   2   4   28.70    5.50
   2  -2  -4   41.30   18.30
  -1   2   5  173.98   20.20
  -1   2   5  131.99   16.70
   1  -2  -5  157.98   16.20
   1  -2  -5  201.98   22.50
   0   2   6  380.36   39.30
   0   2   6  369.46   44.30
   0   2   6  449.26   44.00
   0  -2  -6  297.87   36.30
   0  -2  -6  457.35   42.30
   0  -2  -6  338.27   35.30
   1   2   7 1052.49  108.79
   1   2   7 1124.89  101.79
   1   2   7  944.51  106.29
  -1  -2  -7 1287.97  105.79
  -1  -2  -7 1136.19  100.19
   2   2   8  133.19   31.60
   2   2   8  176.88   31.00
  -2  -2  -8   98.89   22.10
   3   2   9   -2.10   19.50
   3   2   9   27.30   22.90
   4   2  10   59.99   32.90
   4   2  10   43.10   33.40
  -7   1  -1   56.39   13.00
   7  -1   1   79.49   51.69
   7  -1   1   34.90   26.40
  -6   1   0   83.89   14.00
   6  -1   0   38.40   36.40
  -5   1   1   67.59   15.80
  -5   1   1   57.39   10.50
   5  -1  -1   48.20   24.20
  -4   1   2  223.28   22.30
  -4   1   2  201.48   27.20
   4  -1  -2  237.98   42.70
  -3   1   3  727.23   76.49
  -3   1   3  654.63   67.19
  -3   1   3  670.03   61.89
  -2   1   4   17.40    4.20
  -2   1   4   37.80   19.80
  -2   1   4   16.00    8.70
  -2   1   4   13.50    8.40
  -2   1   4   16.50    3.30
   2  -1  -4   20.40    4.20
   2  -1  -4   18.50    2.90
  -1   1   5  265.07   21.50
  -1   1   5  194.48   18.40
   1  -1  -5  173.28   20.50
   0   1   6 3280.97  294.87
   0   1   6 3236.98  292.97
   0   1   6 3533.05  290.37
   0  -1  -6 3062.59  290.77
   0  -1  -6 3076.49  286.87
   1   1   7  294.97   41.80
   1   1   7  308.67   32.90
   1   1   7  299.87   39.40
  -1  -1  -7  299.77   30.90
  -1  -1  -7  286.97   36.60
   2   1   8  156.98   31.40
   2   1   8  140.59   33.20
  -2  -1  -8   88.29   17.40
   3   1   9   60.69   27.50
   3   1   9   17.10   25.10
   4   1  10   38.40   30.70
   4   1  10   37.20   30.90
  -7   0  -1   36.60   10.80
   7   0   1   21.00   43.80
  -6   0   0   81.29   14.00
   6   0   0   83.89   40.20
  -5   0   1  134.59   17.80
  -5   0   1  150.58   23.30
   5   0  -1  117.39   30.90
  -4   0   2  291.27   30.90
  -4   0   2  350.66   36.60
  -3   0   3   26.30   20.60
  -3   0   3    3.50    3.70
  -3   0   3    9.30    8.20
  -3   0   3    4.30    2.50
  -2   0   4  134.89   13.50
  -2   0   4  125.19   12.70
   2   0  -4  111.59   12.20
   2   0  -4  134.29   14.30
  -1   0   5  674.73   72.79
  -1   0   5  840.92   76.59
   1   0  -5  748.43   72.29
   0   0   6  126.69   28.60
   0   0   6   86.29   15.80
   0   0   6  121.29   22.50
   0   0  -6   60.79   11.70
   0   0  -6  110.89   19.30
   1   0   7  233.68   39.10
   1   0   7  261.07   36.70
   1   0   7  260.27   29.40
  -1   0  -7  242.98   27.00
  -1   0  -7  266.87   34.80
   2   0   8   65.49   27.60
   2   0   8   85.39   25.70
   3   0   9   16.10   26.60
   3   0   9    2.10   23.40
   4   0  10   31.00   33.60
   4   0  10   45.50   32.90
  -7  -1  -1    0.40    6.60
  -6  -1   0   26.40    8.80
   6   1   0   57.59   26.90
  -5  -1   1  132.69   22.70
  -5  -1   1  147.89   18.70
  -4  -1   2  321.37   37.30
  -4  -1   2  335.37   32.80
  -3  -1   3  829.82   76.59
  -3  -1   3  682.73   66.49
  -3  -1   3  711.03   65.69
  -3  -1   3  693.43   71.49
  -2  -1   4  182.48   22.50
  -2  -1   4  154.98   16.20
  -2  -1   4  195.88   17.40
   2   1  -4  133.79   18.10
   2   1  -4  149.99   15.90
  -1  -1   5  224.68   29.70
  -1  -1   5  146.49   22.50
   1   1  -5  123.39   19.70
   1   1  -5  134.59   15.90
   0  -1   6 1370.56  128.79
   0  -1   6 1264.87  121.19
   0  -1   6 1229.68  119.49
   1  -1   7  168.68   37.70
   1  -1   7  176.08   32.00
   1  -1   7  192.98   24.10
  -1   1  -7  171.28   28.00
   2  -1   8  133.49   30.10
   2  -1   8   95.29   32.30
   3  -1   9  110.29   44.10
   3  -1   9  226.48   44.10
  -7  -2  -1   46.90   12.40
  -6  -2   0   15.20   10.50
  -6  -2   0   21.20    8.60
  -5  -2   1  117.69   15.90
  -5  -2   1   84.59   18.40
  -4  -2   2   62.99    7.40
  -4  -2   2   48.30    9.60
  -4  -2   2   40.40   14.10
  -3  -2   3  262.37   24.70
  -3  -2   3  229.18   30.70
  -3  -2   3  235.88   32.50
  -3  -2   3  242.38   24.90
   3   2  -3  254.97   23.90
  -2  -2   4  817.52   80.89
  -2  -2   4  819.72   75.49
  -2  -2   4  942.61   84.99
   2   2  -4  759.12   76.99
  -1  -2   5  756.92   64.59
  -1  -2   5  582.44   69.39
  -1  -2   5  714.53   69.99
   1   2  -5  496.05   61.69
   0  -2   6  598.14   69.19
   0  -2   6  594.84   61.29
   0  -2   6  591.24   59.29
   0   2  -6  530.45   59.99
   1  -2   7  301.37   33.20
   1  -2   7  262.37   39.80
   1  -2   7  256.57   49.90
   2  -2   8  112.59   38.70
   2  -2   8  137.19   34.80
   3  -2   9   15.70   32.00
   3  -2   9   45.80   32.60
  -7  -3  -1    2.90    9.00
  -6  -3   0  120.69   18.30
  -6  -3   0  130.39   22.50
  -5  -3   1  144.59   23.60
  -5  -3   1  137.99   17.90
  -5  -3   1  117.69   12.90
  -4  -3   2   69.59   15.80
  -4  -3   2   58.49   10.00
   4   3  -2   56.99    7.50
  -3  -3   3   98.59   25.40
  -3  -3   3   58.89   10.60
  -3  -3   3   83.69   17.10
   3   3  -3   67.09   11.00
  -2  -3   4  477.45   52.79
  -2  -3   4  595.64   58.49
   2   3  -4  438.36   49.30
  -1  -3   5  183.78   26.80
  -1  -3   5  214.08   37.00
   1   3  -5  135.09   24.50
   0  -3   6   96.69   19.10
   0  -3   6   82.69   29.30
   0   3  -6   58.19   20.00
   1  -3   7  142.09   23.50
   1  -3   7  114.29   37.60
   2  -3   8   25.70   23.70
   2  -3   8    8.50   30.10
   3  -3   9   23.10   29.10
   3  -3   9   14.20   35.30
  -7  -4  -1    8.00    7.60
  -6  -4   0   -1.40   12.20
  -6  -4   0    8.70    4.10
  -6  -4   0    6.60    7.90
  -5  -4   1   66.49    9.30
  -5  -4   1   60.49   16.60
  -5  -4   1   77.89   12.50
   5   4  -1   62.79    8.60
  -4  -4   2  166.58   20.30
  -4  -4   2  167.18   27.30
   4   4  -2  177.48   18.80
  -3  -4   3  127.19   30.70
  -3  -4   3  140.49   16.00
  -3  -4   3  107.79   21.60
   3   4  -3  121.09   17.60
  -2  -4   4  168.08   27.00
   2   4  -4  171.38   25.30
  -1  -4   5   20.50   19.80
   1   4  -5   22.20   14.60
   0  -4   6  330.47   51.29
   0  -4   6  305.57   38.90
   1  -4   7   51.39   17.20
   1  -4   7   27.20   27.40
   2  -4   8   34.70   34.70
  -7  -5  -1    4.90    9.60
  -7  -5  -1    1.60    4.20
  -6  -5   0   48.60   12.20
  -6  -5   0   48.30   16.00
  -6  -5   0   48.70    8.70
  -5  -5   1   79.49   19.70
  -5  -5   1   96.79   15.20
  -5  -5   1   95.59   13.00
  -4  -5   2   37.10    9.80
  -4  -5   2   22.90   13.00
  -3  -5   3   65.39   24.70
  -3  -5   3   67.69   12.20
  -3  -5   3   90.79   19.70
   3   5  -3   48.80   12.80
  -2  -5   4  138.09   24.60
  -2  -5   4   89.19   27.60
   2   5  -4  119.79   22.80
  -1  -5   5  366.56   41.00
  -1  -5   5  351.16   49.80
   1   5  -5  260.97   40.40
   0  -5   6   33.80   32.80
   0  -5   6    3.80   11.40
   1  -5   7   50.69   18.00
   1  -5   7   55.19   33.70
  -7  -6  -1    0.70    9.00
  -6  -6   0   29.50   11.00
  -6  -6   0    5.80    6.10
  -6  -6   0   26.10   14.70
  -5  -6   1   44.20    9.60
  -5  -6   1   32.30   14.20
  -5  -6   1   39.20   10.70
  -4  -6   2   58.29   18.00
  -4  -6   2   63.59   13.30
  -3  -6   3    8.20   20.50
  -3  -6   3   38.80   14.80
  -3  -6   3   30.70    9.00
  -2  -6   4   68.09   19.90
  -2  -6   4   79.39   30.90
  -1  -6   5   -1.10   22.90
  -1  -6   5  -12.90    9.70
   0  -6   6   59.89   20.40
   0  -6   6   30.50   34.50
   1  -6   7  -28.60   35.00
   1  -6   7   15.50   16.50
  -6  -7   0    6.10    9.30
  -6  -7   0    6.60   15.20
  -5  -7   1   46.30   18.40
  -5  -7   1   16.90    9.10
  -5  -7   1    9.70    9.10
  -4  -7   2   11.40    9.40
  -4  -7   2    1.30   12.90
  -3  -7   3   43.50   26.00
  -3  -7   3    9.40    8.70
  -3  -7   3   23.00   14.60
  -2  -7   4   14.40   14.80
  -2  -7   4   25.80   26.70
  -1  -7   5  104.09   38.20
  -1  -7   5   37.90   20.10
   0  -7   6    5.00   17.90
   0  -7   6   40.60   33.90
  -6  -8   0   30.20   12.70
  -5  -8   1    7.20   15.00
  -5  -8   1    8.20   10.00
  -4  -8   2   17.90   12.20
  -4  -8   2   15.20   17.20
  -3  -8   3   29.00   17.10
  -3  -8   3   47.30   31.50
  -3  -8   3   44.50   13.50
  -2  -8   4   -1.60   17.60
  -2  -8   4   29.70   30.60
   0  10   7  139.49   56.49
   1  10   8   59.99   43.30
  -2   9   5   16.40   40.90
   2  -9  -5   24.30   26.20
  -1   9   6   70.19   42.00
   1  -9  -6   99.09   32.70
   0   9   7   37.60   36.70
   0  -9  -7   70.69   26.90
   1   9   8  152.98   46.90
  -1  -9  -8  149.79   36.30
   2   9   9   45.90   35.70
   3   9  10   -8.10   32.10
   3  -8  -4   84.19   32.00
  -2   8   5   15.40   36.30
   2  -8  -5   -8.80   26.40
  -1   8   6   17.20   31.60
   1  -8  -6   65.49   26.80
   0   8   7  101.69   37.30
   0  -8  -7  123.89   31.90
   1   8   8  108.69   37.60
  -1  -8  -8   65.79   25.80
   2   8   9   64.29   32.30
   3   8  10   44.80   30.70
   4  -7  -3    7.20   23.10
  -3   7   4   33.50   39.90
   3  -7  -4   87.89   31.20
  -2   7   5   31.70   36.20
   2  -7  -5   79.19   29.90
  -1   7   6  221.88   49.50
   0   7   7  633.74   79.99
   0  -7  -7  632.64   76.79
   1   7   8  320.57   51.89
  -1  -7  -8  253.07   46.50
   2   7   9   10.60   21.70
   3   7  10   47.90   28.80
   4   7  11   11.70   31.30
   5  -6  -2   74.89   30.40
   4  -6  -3   30.00   26.00
  -3   6   4  -30.10   29.00
   3  -6  -4   -2.20   22.90
  -2   6   5   41.00   29.80
   2  -6  -5    7.70   24.40
  -1   6   6  405.56   63.09
   1  -6  -6  496.55   60.39
   0   6   7   81.09   30.50
   0  -6  -7   83.59   28.60
   1   6   8   91.09   29.20
  -1  -6  -8   76.79   21.80
  -1  -6  -8   69.09   26.50
   2   6   9  132.09   34.60
   3   6  10   12.00   21.50
   4   6  11    3.10   30.10
   5  -5  -2   64.89   30.90
   4  -5  -3   66.69   30.10
  -3   5   4  134.39   42.10
   3  -5  -4   91.89   18.00
   3  -5  -4  103.49   32.80
  -2   5   5  144.49   38.90
   2  -5  -5   99.79   20.70
   2  -5  -5  128.99   34.30
  -1   5   6   40.10   13.40
  -1   5   6   76.69   28.90
   1  -5  -6  115.29   27.70
   1  -5  -6   94.09   18.80
   0   5   7   63.59   16.90
   0   5   7   92.49   29.30
   0  -5  -7   97.79   30.40
   0  -5  -7   84.59   19.80
   1   5   8  202.88   37.80
  -1  -5  -8  264.37   35.00
  -1  -5  -8  240.28   42.60
   2   5   9   66.49   26.40
  -2  -5  -9   49.80   24.00
   3   5  10  246.88   49.70
   4   5  11   25.70   30.50
   5  -4  -2   59.89   30.10
   4  -4  -3   28.90   26.00
  -3   4   4    5.80   10.30
  -3   4   4  -16.90   23.50
   3  -4  -4   21.80   23.10
  -2   4   5  322.97   38.30
  -2   4   5  389.96   53.49
   2  -4  -5  395.86   58.29
   2  -4  -5  269.07   35.10
  -1   4   6  526.85   54.39
  -1   4   6  538.25   64.19
   1  -4  -6  550.34   65.09
   1  -4  -6  454.95   53.49
   0   4   7  257.57   41.80
   0   4   7  246.78   32.70
   0  -4  -7  378.66   38.90
   0  -4  -7  275.37   47.50
   1   4   8  390.66   50.79
   1   4   8  349.27   42.60
  -1  -4  -8  404.66   46.80
  -1  -4  -8  492.75   62.39
   2   4   9   34.20   24.90
  -2  -4  -9   30.80   25.40
   3   4  10  119.69   36.70
   4   4  11    6.30   38.30
   4   4  11   15.60   30.70
  -5   3   2  109.19   22.80
   5  -3  -2  208.38   43.80
  -4   3   3   41.70   14.70
   4  -3  -3   32.90   24.60
  -3   3   4  136.39   24.10
   3  -3  -4  137.99   36.00
  -2   3   5  266.27   31.20
  -2   3   5  292.67   46.80
   2  -3  -5  209.08   28.00
   2  -3  -5  324.97   51.49
  -1   3   6  447.76   53.99
  -1   3   6  445.86   44.30
   1  -3  -6  299.27   43.00
   1  -3  -6  423.86   53.99
   0   3   7  560.74   64.59
   0   3   7  468.05   62.39
   0   3   7  625.54   57.29
   0  -3  -7  534.05   65.99
   0  -3  -7  592.94   59.59
   1   3   8  200.08   26.70
   1   3   8  202.38   36.20
   1   3   8  160.88   35.30
  -1  -3  -8  165.78   37.20
  -1  -3  -8  131.29   28.60
   2   3   9   42.00   24.20
   2   3   9    8.60   21.80
   3   3  10   47.70   27.30
   3   3  10   50.49   31.20
   4   3  11   39.40   31.40
   4   3  11   -6.10   31.50
   6  -2  -1   22.50   29.70
  -5   2   2  139.89   24.70
   5  -2  -2  146.19   38.60
  -4   2   3  131.69   22.90
   4  -2  -3  101.89   33.60
  -3   2   4   44.00   14.00
  -3   2   4   83.79   31.50
   3  -2  -4   38.90   22.50
  -2   2   5  113.09   29.40
  -2   2   5   57.89   14.70
   2  -2  -5   36.50   10.10
   0   2   7  228.88   36.20
   0   2   7  223.98   34.50
   0   2   7  252.87   29.20
   0  -2  -7  268.37   34.30
   1   2   8    4.40    8.80
   1   2   8   22.90   22.50
   1   2   8   17.70   18.70
  -1  -2  -8   34.20   17.10
   2   2   9   48.90   25.20
   2   2   9   24.00   21.90
   3   2  10   46.50   28.30
   3   2  10   92.99   33.80
   4   2  11   35.10   36.60
   4   2  11  102.79   38.80
  -7   1   0   -2.60    6.40
   7  -1   0   -2.10   23.20
   7  -1   0    4.80   45.10
  -6   1   1   -3.90    6.60
  -6   1   1    3.90   12.00
   6  -1  -1   15.10   37.60
   6  -1  -1  -16.50   21.40
  -5   1   2    7.80   10.50
  -5   1   2   36.00    7.80
   5  -1  -2   38.20   22.00
  -4   1   3  155.18   17.60
  -4   1   3  194.58   27.60
  -3   1   4  305.47   28.10
  -3   1   4  299.57   46.40
  -3   1   4  298.47   34.90
  -2   1   5  121.29   20.30
  -2   1   5  126.49   19.60
   2  -1  -5   83.39   14.80
  -1   1   6 1226.68  108.59
  -1   1   6 1089.69  102.99
  -1   1   6 1111.09  104.69
   1  -1  -6  891.11  101.69
   0   1   7  109.59   19.80
   0   1   7  141.79   28.80
   0   1   7  119.49   29.10
   0  -1  -7  115.69   22.70
   1   1   8  196.98   35.10
   1   1   8  217.08   41.40
   1   1   8  215.58   26.70
  -1  -1  -8  226.18   33.80
   2   1   9   37.70   25.20
   2   1   9   75.29   28.80
   3   1  10   51.09   34.50
   3   1  10  118.99   36.00
  -7   0   0   11.00    8.00
  -6   0   1   47.10   10.50
  -6   0   1   40.00   14.90
   6   0  -1   40.20   29.30
  -5   0   2   31.00    8.00
  -5   0   2   29.00   12.70
  -4   0   3   24.30    5.90
  -4   0   3   11.10    9.90
  -3   0   4  369.86   34.40
  -3   0   4  309.17   47.70
  -3   0   4  356.76   40.40
  -3   0   4  391.46   34.00
  -2   0   5  535.15   54.49
  -2   0   5  627.04   61.19
  -2   0   5  517.45   54.49
   2   0  -5  414.56   49.99
  -1   0   6   38.80   12.60
  -1   0   6   24.10   19.00
  -1   0   6   90.79   20.90
   1   0  -6   39.60   14.00
   0   0   7   11.40   22.00
   0   0   7   15.90   19.00
   0   0   7   25.00   10.50
   0   0  -7   28.10   14.80
   1   0   8   54.59   26.90
   1   0   8   29.90   22.20
   1   0   8   30.10   11.50
  -1   0  -8   41.40   17.90
   2   0   9   62.49   29.10
   2   0   9   14.00   24.80
   3   0  10   56.99   33.30
   3   0  10   46.10   31.70
  -7  -1   0    5.40    8.80
  -6  -1   1    3.20    7.60
  -6  -1   1   18.80   12.00
  -5  -1   2    3.10    8.90
  -5  -1   2   -0.20    5.70
  -4  -1   3   83.99   12.50
  -4  -1   3   89.89   20.30
  -4  -1   3   89.29    9.40
  -3  -1   4  111.79   13.70
  -3  -1   4   89.09   20.90
  -3  -1   4  136.89   25.30
   3   1  -4  106.99   12.90
  -2  -1   5   87.19   23.10
  -2  -1   5   89.19   10.90
  -2  -1   5   83.19   19.80
   2   1  -5   77.09   14.50
  -1  -1   6  375.96   43.30
  -1  -1   6  381.36   47.10
  -1  -1   6  277.87   38.00
   0  -1   7   10.10    9.50
   0  -1   7    5.80   25.80
   0  -1   7   15.90   18.90
   0   1  -7   -1.60   13.50
   1  -1   8   59.79   28.60
   1  -1   8   16.70   11.10
   1  -1   8   30.50   22.40
   2  -1   9  209.28   50.89
   2  -1   9  284.77   46.00
   3  -1  10   37.10   34.30
   3  -1  10   87.19   34.00
  -7  -2   0    9.90   10.00
  -6  -2   1   53.99   16.40
  -6  -2   1   54.49   12.50
  -5  -2   2   43.20    9.30
  -5  -2   2   30.90   13.30
  -4  -2   3   70.89   18.50
  -4  -2   3   72.59   11.60
   4   2  -3   73.29    8.20
  -3  -2   4  399.86   39.00
  -3  -2   4  408.06   47.60
  -3  -2   4  411.86   45.70
   3   2  -4  409.66   39.80
  -2  -2   5  194.78   17.80
  -2  -2   5  120.29   29.80
  -2  -2   5  177.18   27.00
   2   2  -5  127.79   21.40
  -1  -2   6   78.79   25.70
  -1  -2   6   36.60   11.70
   1   2  -6   20.30   14.00
   0  -2   7  111.39   33.00
   0  -2   7   81.79   18.70
   0   2  -7   68.99   20.10
   1  -2   8  175.18   41.70
   1  -2   8  155.78   25.90
   2  -2   9   83.29   38.70
   2  -2   9  122.29   37.10
  -7  -3   0   -2.50    7.50
  -6  -3   1   40.20   14.90
  -6  -3   1   35.40   11.30
  -5  -3   2    6.80    3.60
  -5  -3   2    9.00    6.20
  -5  -3   2  -11.10    9.20
   5   3  -2    5.50    3.30
  -4  -3   3   -3.60    4.20
  -4  -3   3   -7.70    8.90
   4   3  -3    3.60    4.80
  -3  -3   4  192.98   22.90
  -3  -3   4  189.78   31.00
  -3  -3   4  270.77   41.50
   3   3  -4  224.38   25.40
  -2  -3   5   60.89   15.70
  -2  -3   5   37.20   24.00
   2   3  -5   57.89   15.40
  -1  -3   6    4.30   21.20
  -1  -3   6   52.89   14.80
   1   3  -6   12.00   15.30
   0  -3   7  105.99   21.90
   0  -3   7  181.98   41.50
   0   3  -7   96.09   24.90
   1  -3   8   20.90   27.90
   1  -3   8   38.60   15.10
   2  -3   9   -1.30   29.70
  -7  -4   0    9.70    8.60
  -6  -4   1   36.30    6.30
  -6  -4   1   56.89   12.10
  -6  -4   1   29.70   15.20
  -5  -4   2   11.30   12.80
  -5  -4   2   15.00    8.10
  -5  -4   2   10.70    4.90
  -4  -4   3   17.80   11.90
  -4  -4   3   24.80    7.90
  -3  -4   4    0.40   11.10
  -3  -4   4   36.30    8.70
  -3  -4   4   30.90   21.40
  -2  -4   5   25.20   13.20
  -2  -4   5   -3.20   21.00
   2   4  -5   15.90   15.30
  -1  -4   6   71.19   17.50
  -1  -4   6   43.50   25.30
   1   4  -6   31.40   18.60
   0  -4   7   66.19   19.40
   0  -4   7   90.69   33.30
   1  -4   8   99.29   38.60
   1  -4   8  109.79   31.60
  -7  -5   0   -1.50    9.00
  -6  -5   1   71.89   20.30
  -6  -5   1   89.09   15.80
  -6  -5   1   83.29   11.40
  -5  -5   2   45.20    8.70
  -5  -5   2   39.70   11.70
  -5  -5   2   42.20   16.50
  -4  -5   3    2.40   10.50
  -4  -5   3   -1.80    6.00
  -3  -5   4   55.79   26.80
  -3  -5   4   38.40   10.60
  -3  -5   4   47.10   16.40
  -2  -5   5  112.49   22.60
  -2  -5   5   54.49   24.90
  -1  -5   6   39.00   15.30
  -1  -5   6   13.40   25.10
   0  -5   7  106.89   25.00
   0  -5   7  102.19   43.20
   1  -5   8   19.40   32.70
  -6  -6   1    5.90    7.40
  -6  -6   1   -8.10   12.90
  -6  -6   1   -3.20    9.60
  -5  -6   2   27.20   10.40
  -5  -6   2   25.20   16.30
  -5  -6   2    2.80    6.80
  -4  -6   3   27.00   15.30
  -4  -6   3   30.20   10.80
  -3  -6   4   16.30    9.20
  -3  -6   4   27.60   25.00
  -3  -6   4    6.70   12.30
  -2  -6   5    1.70   24.40
  -2  -6   5   14.80   13.70
  -1  -6   6   59.89   30.50
  -1  -6   6   77.19   21.20
   0  -6   7    4.40   30.40
   0  -6   7    5.80   14.10
  -6  -7   1   49.90   21.00
  -6  -7   1   26.70   12.20
  -5  -7   2   -1.30   12.50
  -5  -7   2   -0.50    9.10
  -4  -7   3    5.90   13.10
  -4  -7   3   -5.70    8.50
  -3  -7   4   -9.30    8.80
  -3  -7   4   -7.40   12.80
  -3  -7   4  -10.40   23.20
  -2  -7   5   74.79   34.50
  -2  -7   5   42.50   20.80
  -4  -8   3   27.60   18.20
  -4  -8   3   21.00   12.60
  -3  -8   4   -7.90   11.70
  -1   9   7   51.09   42.90
   1  -9  -7   95.69   34.20
   0   9   8  103.79   44.50
   0  -9  -8  143.69   37.80
   1   9   9  -10.20   33.60
  -1  -9  -9   -6.30   23.80
  -2   8   6    4.90   35.20
   2  -8  -6   27.60   33.10
  -1   8   7   19.90   31.20
   1  -8  -7    2.30   22.20
   0   8   8   28.80   30.60
   0  -8  -8   26.50   23.20
   1   8   9   22.70   29.60
  -1  -8  -9   21.40   25.10
   2   8  10   34.90   31.60
  -3   7   5   44.50   41.60
   3  -7  -5   37.40   31.20
  -2   7   6   71.89   39.00
   2  -7  -6   25.70   28.00
  -1   7   7  162.18   47.20
   1  -7  -7  163.78   41.20
   0   7   8  105.79   38.90
   0  -7  -8  126.99   34.40
   1   7   9   26.60   27.10
  -1  -7  -9   17.00   23.00
   2   7  10   88.09   34.10
   3   7  11   79.39   35.10
   4  -6  -4    8.90   24.00
  -3   6   5   -1.30   34.60
   3  -6  -5   53.89   28.20
  -2   6   6  211.18   52.99
   2  -6  -6  257.77   51.19
  -1   6   7  104.19   37.10
   1  -6  -7   84.79   30.00
   0   6   8   70.49   32.60
   0  -6  -8   66.29   29.40
   1   6   9   77.89   30.90
  -1  -6  -9   56.19   28.70
   2   6  10   56.79   29.00
   3   6  11   58.09   36.10
   5  -5  -3   18.40   31.30
   4  -5  -4    7.30   23.80
  -3   5   5   60.49   38.20
   3  -5  -5  138.09   37.80
  -2   5   6   80.79   35.80
  -2   5   6   25.00   13.20
   2  -5  -6    3.30   22.50
  -1   5   7  145.29   27.00
  -1   5   7  184.98   43.60
   1  -5  -7  170.18   41.70
   0   5   8   53.59   28.70
   0   5   8   46.30   16.20
   0  -5  -8   66.49   30.40
   1   5   9   23.30   12.60
   1   5   9   23.30   23.00
  -1  -5  -9   36.80   26.30
   2   5  10  390.96   57.69
   3   5  11   82.29   38.50
   5  -4  -3   35.10   31.20
  -4   4   4    2.70   10.30
   4  -4  -4   27.50   23.50
  -3   4   5  173.38   28.60
  -3   4   5  181.68   48.30
   3  -4  -5  231.08   47.30
   3  -4  -5  117.19   19.20
  -2   4   6  440.86   49.20
  -2   4   6  435.76   63.19
   2  -4  -6  394.36   47.10
   2  -4  -6  490.55   71.79
  -1   4   7   63.59   15.60
  -1   4   7   79.69   31.60
   1  -4  -7   58.69   19.50
   1  -4  -7   93.69   30.80
   0   4   8    1.50   20.50
   0   4   8   23.20   12.00
   0  -4  -8    6.40   22.60
   1   4   9   81.09   18.30
   1   4   9   78.79   27.70
  -1  -4  -9   26.10   22.10
  -1  -4  -9   81.39   30.70
   2   4  10  255.17   52.29
   3   4  11  138.19   41.80
   6  -3  -2  -11.80   28.60
  -5   3   3   15.90   12.50
   5  -3  -3    7.90   25.50
  -4   3   4   23.00   14.30
  -4   3   4   40.00   34.30
   4  -3  -4   41.70   27.60
  -3   3   5  250.17   53.79
  -3   3   5  227.78   30.20
   3  -3  -5  303.27   53.79
   3  -3  -5  188.18   23.60
  -2   3   6  552.84   66.29
  -2   3   6  492.35   52.79
   2  -3  -6  397.56   50.09
   2  -3  -6  519.45   75.99
  -1   3   7  263.37   47.90
  -1   3   7  247.08   31.20
   1  -3  -7  212.68   45.80
   1  -3  -7  221.48   34.50
   0   3   8  216.38   40.20
   0   3   8  176.38   27.50
   0  -3  -8  177.08   42.00
   0  -3  -8  154.08   31.10
   1   3   9  110.99   31.40
   1   3   9   76.19   17.50
  -1  -3  -9   60.89   27.50
  -1  -3  -9   93.99   25.20
   2   3  10  113.99   46.40
   2   3  10  150.58   39.10
   3   3  11  103.09   39.50
   3   3  11   39.30   34.90
  -6   2   2   50.79   18.90
   6  -2  -2   69.69   34.90
  -5   2   3   54.99   16.70
   5  -2  -3   49.50   32.10
  -4   2   4   28.80   14.50
  -4   2   4   29.40   30.00
   4  -2  -4   28.50   27.00
  -3   2   5   45.60   32.90
  -3   2   5   16.40   12.00
   3  -2  -5   10.80   22.80
   3  -2  -5   10.70    6.10
  -2   2   6   24.80   12.60
  -2   2   6   50.19   29.30
   2  -2  -6   35.50   12.60
  -1   2   7   61.99   14.90
  -1   2   7   33.60   24.60
  -1   2   7   37.10   16.00
   1  -2  -7    1.50   15.40
   0   2   8  104.89   27.50
   0   2   8  126.89   30.00
   0  -2  -8  138.99   26.50
   1   2   9  137.69   39.20
   1   2   9  288.17   31.20
   1   2   9  239.88   43.90
  -1  -2  -9  183.48   33.90
   2   2  10  137.29   36.00
   2   2  10   57.69   35.30
   3   2  11   46.40   32.20
   3   2  11  121.39   40.60
  -6   1   2   90.89   21.90
   6  -1  -2  107.09   38.30
  -5   1   3  105.79   22.30
   5  -1  -3   87.49   32.60
  -4   1   4    1.20   10.40
  -3   1   5   43.00   15.70
  -3   1   5   78.89   35.60
   3  -1  -5   59.19    9.60
  -2   1   6  380.86   42.30
  -2   1   6  366.96   42.20
  -2   1   6  436.36   52.79
   2  -1  -6  313.27   39.80
  -1   1   7   85.69   22.00
  -1   1   7  108.09   19.30
  -1   1   7  132.09   30.60
   1  -1  -7   53.29   18.70
   0   1   8  510.95   60.49
   0   1   8  486.15   50.99
   0   1   8  486.95   60.49
   0  -1  -8  371.06   53.29
   1   1   9  172.08   36.80
   1   1   9  138.19   24.90
   1   1   9  159.48   37.40
  -1  -1  -9  149.19   30.10
   2   1  10  110.99   35.80
   2   1  10   89.49   36.70
   3   1  11    6.70   32.00
   3   1  11   39.20   32.90
  -6   0   2    1.60   12.00
   6   0  -2  -10.20   24.40
  -5   0   3   14.50   12.50
  -4   0   4  101.39   22.00
  -3   0   5   29.00   14.10
   3   0  -5   26.90    7.80
  -2   0   6   68.29   17.20
  -2   0   6   47.50   17.90
   2   0  -6   28.60   12.30
  -1   0   7  174.88   29.30
  -1   0   7  204.68   36.50
  -1   0   7  211.28   38.30
   0   0   8   71.79   17.70
   0   0   8  108.69   28.80
   0   0   8   81.79   31.40
   0   0  -8   59.89   22.00
   1   0   9   44.40   14.60
   1   0   9   45.20   25.50
   1   0   9   39.10   29.60
   2   0  10  109.69   36.40
   2   0  10   95.09   37.00
  -6  -1   2   48.20   16.80
  -6  -1   2   47.10   14.60
  -5  -1   3   43.40   17.70
  -4  -1   4    1.50   10.20
   4   1  -4   16.40    4.40
  -3  -1   5    6.30   16.90
  -3  -1   5    7.40   11.60
   3   1  -5   28.70    9.10
  -2  -1   6  186.18   28.10
  -2  -1   6  116.49   26.30
   2   1  -6   72.89   18.30
  -1  -1   7   31.40   13.70
  -1  -1   7   90.39   27.80
   1   1  -7   38.20   19.50
   0  -1   8  170.18   42.10
   0  -1   8  145.79   25.00
   0   1  -8   97.49   26.00
   1  -1   9  346.77   56.49
   2  -1  10   41.40   36.10
   2  -1  10   31.40   40.20
  -7  -2   1   50.79   13.30
  -6  -2   2   13.50   13.20
  -6  -2   2   38.70   10.60
  -5  -2   3   26.90    8.70
  -5  -2   3   48.30   16.30
  -4  -2   4  139.99   25.50
  -4  -2   4   89.99   15.80
   4   2  -4  110.19   14.20
  -3  -2   5   95.89   27.90
  -3  -2   5   91.59   22.30
   3   2  -5  112.29   17.50
  -2  -2   6   23.40   12.40
  -2  -2   6   21.30   22.30
  -1  -2   7   48.00   27.20
  -1  -2   7   50.19   15.70
   0  -2   8  325.67   41.40
   0  -2   8  376.46   62.09
   0   2  -8  268.57   50.59
   1  -2   9  144.69   41.80
   2  -2  10    6.20   32.00
  -7  -3   1   12.20   10.50
  -6  -3   2   20.20    9.20
  -6  -3   2   14.40   13.30
  -5  -3   3   49.50   17.50
  -5  -3   3   16.70    8.30
  -5  -3   3   30.40    6.00
  -4  -3   4   81.49   20.20
  -4  -3   4   78.49   12.40
  -3  -3   5   28.30   24.60
  -3  -3   5   34.80    8.80
  -3  -3   5   33.90   14.80
  -2  -3   6   18.70   13.40
  -2  -3   6   -2.40   20.00
  -1  -3   7   74.99   33.60
  -1  -3   7   65.49   18.40
   0  -3   8   37.40   16.30
   0  -3   8   74.09   34.80
   1  -3   9   44.70   34.90
  -7  -4   1   27.00   12.00
  -6  -4   2    5.40   10.20
  -6  -4   2   28.20   16.20
  -6  -4   2   19.80    5.10
  -5  -4   3   36.40   15.40
  -5  -4   3   27.60   10.00
  -4  -4   4   31.60   14.30
  -4  -4   4   33.20    9.00
  -3  -4   5   24.40    8.60
  -3  -4   5   24.00   13.50
  -3  -4   5   -3.90   22.60
  -2  -4   6    6.70   22.60
  -2  -4   6   20.10   13.60
  -1  -4   7   48.50   17.60
  -1  -4   7   56.59   30.50
   0  -4   8  157.28   45.20
   0  -4   8  103.89   25.60
  -6  -5   2   14.00    6.70
  -6  -5   2   21.40   15.00
  -6  -5   2    6.90    9.00
  -5  -5   3    1.40   13.40
  -5  -5   3   20.30   10.40
  -4  -5   4    4.20   12.00
  -4  -5   4   13.90   10.10
  -3  -5   5   21.50    9.60
  -3  -5   5    9.70   23.40
  -3  -5   5    9.20   13.80
  -2  -5   6   38.50   27.70
  -2  -5   6   40.50   17.30
  -1  -5   7   89.99   25.50
  -1  -5   7  209.48   44.60
   0  -5   8   27.70   19.10
  -6  -6   2   18.70   11.30
  -6  -6   2   23.70   16.10
  -5  -6   3   26.50   11.80
  -5  -6   3   25.20   17.30
  -4  -6   4   14.90   17.00
  -4  -6   4    5.70    9.30
  -3  -6   5  -21.40   22.60
  -3  -6   5   -2.10   12.00
  -3  -6   5   -5.00    8.70
  -2  -6   6   20.30   16.80
  -2  -6   6   31.80   30.40
  -5  -7   3   11.70   11.00
  -4  -7   4   20.10   16.10
  -4  -7   4   31.70   13.20
  -3  -7   5   34.10   34.50
  -3  -7   5   73.79   17.30
  -2   8   7  -11.30   38.50
   2  -8  -7   -6.80   29.60
  -1   8   8  -27.50   32.70
   1  -8  -8   -0.10   24.50
   0   8   9   97.99   42.10
   0  -8  -9  101.89   36.50
   1   8  10   61.79   37.40
  -1  -8 -10   96.49   34.40
  -3   7   6   18.50   41.30
   3  -7  -6   29.70   31.40
  -2   7   7   36.00   38.30
   2  -7  -7   37.20   33.70
  -1   7   8   52.59   36.50
   1  -7  -8  134.59   40.80
   0   7   9  117.79   40.30
   0  -7  -9   28.10   28.60
   1   7  10  126.99   43.80
  -1  -7 -10  138.89   39.20
   2   7  11   19.70   32.10
   4  -6  -5    6.00   26.40
  -3   6   6   60.89   46.70
   3  -6  -6   19.60   33.60
  -2   6   7   39.70   35.90
   2  -6  -7    9.20   28.60
  -1   6   8   24.50   32.80
   1  -6  -8   18.40   25.30
   0   6   9   36.90   32.70
   0  -6  -9   78.29   34.80
   1   6  10   38.90   31.40
  -1  -6 -10   65.49   33.60
   2   6  11   21.80   29.80
   5  -5  -4   19.00   30.70
  -4   5   5   30.70   41.60
   4  -5  -5   17.70   28.00
  -3   5   6    6.40   13.60
  -3   5   6   50.59   40.70
   3  -5  -6   47.60   30.90
  -2   5   7   64.89   20.20
  -2   5   7   99.09   41.40
   2  -5  -7   33.90   28.90
  -1   5   8   27.80   13.60
  -1   5   8   24.50   29.70
   1  -5  -8   30.20   26.70
   0   5   9   82.19   21.20
   0   5   9   74.79   32.80
   0  -5  -9   95.09   34.60
   1   5  10  326.17   53.29
   1   5  10  229.08   37.20
  -1  -5 -10  253.57   55.19
   2   5  11    1.00   27.80
   5  -4  -4   30.30   32.70
  -4   4   5   11.00   42.60
  -4   4   5   12.90   14.80
   4  -4  -5   -5.80   25.20
  -3   4   6    2.00   35.30
  -3   4   6    5.50   13.20
   3  -4  -6    4.40   27.20
  -2   4   7   66.89   35.80
  -2   4   7   25.40   13.90
   2  -4  -7   37.30   27.90
  -1   4   8   30.80   14.30
  -1   4   8  126.09   38.70
   1  -4  -8   40.70   27.10
   0   4   9  145.29   26.70
   0   4   9  158.38   39.50
   0  -4  -9  146.19   40.70
   1   4  10  162.48   28.80
   1   4  10  169.08   42.70
   2   4  11   27.60   32.30
  -6   3   3    7.40   15.90
   6  -3  -3  -25.70   30.00
  -5   3   4   19.70   16.00
   5  -3  -4   19.10   29.40
  -4   3   5   14.60   39.20
  -4   3   5   27.80   15.80
   4  -3  -5   73.99   32.50
  -3   3   6   42.80   17.60
  -3   3   6   84.09   38.00
   3  -3  -6   55.69   33.70
  -2   3   7   57.59   32.60
  -2   3   7   26.70   12.90
   2  -3  -7   32.60   25.70
  -1   3   8   61.19   17.70
  -1   3   8  101.09   35.60
   1  -3  -8   59.19   31.30
   0   3   9   97.09   20.80
   0   3   9  112.99   32.80
   0  -3  -9   61.39   33.60
   1   3  10   69.49   33.80
   2   3  11  130.69   42.10
  -6   2   3   34.30   18.40
   6  -2  -3   22.80   31.70
  -5   2   4   25.10   14.40
   5  -2  -4  -18.50   26.40
  -4   2   5   49.20   16.70
  -4   2   5   59.59   40.40
   4  -2  -5   50.39   28.00
  -3   2   6  116.49   41.90
  -3   2   6   47.50   15.70
   3  -2  -6   34.90   12.90
   3  -2  -6   38.10   25.60
  -2   2   7   62.79   32.60
  -2   2   7   54.29   17.10
  -1   2   8   91.89   21.50
  -1   2   8  165.58   36.20
   0   2   9  102.49   30.20
   0   2   9   68.19   18.90
   1   2  10  102.09   37.60
   1   2  10   81.89   43.40
   2   2  11  104.79   38.70
   2   2  11   46.30   34.00
  -6   1   3   64.29   19.80
   6  -1  -3   48.50   34.20
  -5   1   4   13.70   13.50
   5  -1  -4   -6.50   22.80
  -4   1   5   87.39   21.10
  -3   1   6    3.90    9.90
   3  -1  -6   11.70    9.50
  -2   1   7   31.70   14.30
  -2   1   7   21.30   15.80
  -1   1   8  342.27   41.20
  -1   1   8  374.26   54.29
  -1   1   8  324.97   45.50
   0   1   9  135.29   24.40
   0   1   9  133.79   35.20
   0   1   9  110.29   35.60
   1   1  10   69.79   35.70
   1   1  10   77.19   32.50
   2   1  11   14.80   35.20
   2   1  11   15.50   32.80
  -6   0   3   13.50   13.60
   6   0  -3    0.20   27.20
  -5   0   4   79.09   20.80
  -4   0   5   43.60   16.20
   4   0  -5   28.90    8.00
  -3   0   6    2.00   10.90
  -2   0   7   82.99   21.20
  -2   0   7   94.49   25.40
  -1   0   8   27.60   13.90
  -1   0   8   33.40   26.00
   0   0   9  128.09   25.20
   0   0   9  146.69   38.90
   1   0  10   -1.00   28.00
  -6  -1   3   34.00   16.50
  -5  -1   4   16.10   16.10
  -4  -1   5   90.79   22.90
  -3  -1   6   99.69   26.30
  -3  -1   6   61.99   20.50
  -2  -1   7   -4.50   18.60
  -2  -1   7   -0.60    9.90
  -1  -1   8   50.69   31.60
  -1  -1   8   52.39   16.40
   0  -1   9   67.59   20.40
   0  -1   9  152.88   44.70
   1  -1  10   33.70   39.00
  -6  -2   3    0.30   13.30
  -5  -2   4   34.40   16.70
  -4  -2   5   31.50   17.50
  -3  -2   6   25.80   22.80
  -3  -2   6   45.20   18.70
  -2  -2   7   28.20   23.70
  -2  -2   7   26.30   15.70
  -1  -2   8  182.38   33.90
  -1  -2   8  266.67   51.09
   0  -2   9  180.98   49.20
   0  -2   9  133.19   27.60
   1  -2  10   16.30   34.90
  -6  -3   3   26.30   16.40
  -5  -3   4   76.69   23.20
  -4  -3   5   39.80   18.60
  -3  -3   6   29.00   16.50
  -3  -3   6   39.50   27.40
  -2  -3   7  127.69   27.40
  -2  -3   7  103.19   37.10
  -1  -3   8   36.10   16.80
  -1  -3   8   26.90   29.80
   0  -3   9   41.90   18.50
   0  -3   9   -1.00   31.80
  -6  -4   3   15.80   15.70
  -6  -4   3   25.30    5.80
  -5  -4   4   11.50   16.90
  -4  -4   5   42.80   19.10
  -3  -4   6  -32.50   27.10
  -3  -4   6    1.30   14.50
  -2  -4   7    6.10   13.10
  -2  -4   7   29.10   28.80
  -1  -4   8   62.79   39.00
  -1  -4   8   51.99   21.70
  -5  -5   4   12.20   17.10
  -4  -5   5   10.90   16.60
  -4  -5   5   -0.40   23.70
  -3  -5   6   33.70   29.90
  -3  -5   6   32.10   18.10
  -2  -5   7   98.69   42.70
  -2  -5   7   54.29   20.40
  -4  -6   5    2.90   26.10
  -2   7   8   -3.90   42.00
   2  -7  -8    3.00   31.20
  -1   7   9  103.89   48.70
   1  -7  -9   64.59   37.50
   0   7  10  156.28   50.99
   0  -7 -10  146.09   49.40
  -3   6   7   16.20   45.10
   3  -6  -7    9.10   31.90
  -2   6   8   75.59   46.00
   2  -6  -8   74.79   40.30
  -1   6   9   70.19   40.90
   1  -6  -9   23.20   31.10
   0   6  10   18.40   34.30
   0  -6 -10   -4.40   34.00
   1   6  11    9.10   35.70
  -4   5   6    6.80   42.50
   4  -5  -6    2.60   28.30
  -3   5   7  107.19   55.09
  -3   5   7   87.19   23.80
   3  -5  -7   84.29   38.30
  -2   5   8    9.00   14.30
  -2   5   8   11.60   37.70
   2  -5  -8   -1.40   26.80
  -1   5   9   45.20   37.10
  -1   5   9   31.70   16.70
   1  -5  -9    5.80   32.10
   0   5  10  254.37   54.69
   0   5  10  191.68   35.20
   0  -5 -10  240.68   53.59
   1   5  11   24.00   34.00
  -4   4   6   -7.60   43.60
  -4   4   6   15.30   14.90
   4  -4  -6   12.60   29.80
  -3   4   7   53.79   20.70
  -3   4   7   54.09   48.80
   3  -4  -7  135.19   43.90
  -2   4   8  264.07   61.29
  -2   4   8  136.69   29.90
   2  -4  -8  104.09   43.10
  -1   4   9  146.09   28.00
  -1   4   9  143.29   43.60
   0   4  10  189.98   50.59
   0  -4 -10  135.69   44.10
   1   4  11   -1.80   28.20
  -5   3   5   21.90   19.60
   5  -3  -5   45.90   35.40
  -4   3   6   47.70   47.00
  -4   3   6   34.90   16.00
   4  -3  -6   31.10   30.60
  -3   3   7   59.29   45.90
  -3   3   7   12.60   14.10
   3  -3  -7    5.90   30.10
  -2   3   8  102.69   24.10
  -2   3   8  196.68   50.49
   2  -3  -8   99.79   38.70
  -1   3   9   48.20   37.30
  -1   3   9   49.80   16.80
   1  -3  -9   40.90   33.80
   0   3  10    7.10   13.40
   0   3  10   27.00   30.60
   0  -3 -10    4.00   29.60
   1   3  11    4.90   28.30
  -5   2   5   34.30   17.80
   5  -2  -5    8.70   27.80
  -4   2   6   10.80   14.90
   4  -2  -6    2.30   27.50
  -3   2   7   54.19   18.10
   3  -2  -7   27.10   25.80
  -2   2   8   32.60   16.00
  -1   2   9   15.50   15.10
  -1   2   9  -19.00   30.70
   0   2  10    7.90   13.20
   0   2  10   21.60   30.90
   1   2  11  -10.90   30.90
  -6   1   4    1.50   14.70
   6  -1  -4    6.80   28.40
  -5   1   5   27.60   17.30
   5  -1  -5    2.90   29.90
  -4   1   6   13.50   12.30
  -3   1   7   13.90   13.70
  -2   1   8  228.38   36.40
  -1   1   9   56.99   17.90
   0   1  10   -2.50   11.50
   0   1  10   35.10   40.10
   1   1  11    1.90   36.30
  -6   0   4    0.60   12.40
   6   0  -4  -10.30   28.00
  -5   0   5   12.40   14.60
  -4   0   6    9.60   13.90
  -3   0   7   32.70   20.10
  -3   0   7   53.39   20.30
  -2   0   8    9.60   15.20
  -2   0   8    5.80   19.90
  -1   0   9   87.29   22.10
  -1   0   9   97.39   33.90
   0   0  10   21.50   15.80
   0   0  10    7.70   33.60
  -6  -1   4   40.70   19.70
  -5  -1   5   76.49   23.80
  -4  -1   6    8.40   15.60
  -3  -1   7   14.20   19.60
  -3  -1   7    3.10   13.10
  -2  -1   8   13.90   24.40
  -2  -1   8   18.60   15.30
  -1  -1   9   17.90   26.50
  -1  -1   9   18.10   15.70
   0  -1  10   14.10   36.10
   0  -1  10   23.10   17.30
  -6  -2   4   18.90   17.20
  -5  -2   5   -3.40   16.50
  -4  -2   6   20.50   19.60
  -3  -2   7   45.40   20.70
  -3  -2   7   26.90   22.90
  -2  -2   8   67.79   20.80
  -2  -2   8   59.09   29.40
  -1  -2   9   33.90   16.30
  -1  -2   9   55.39   32.90
  -5  -3   5    8.00   18.60
  -4  -3   6   23.70   18.70
  -3  -3   7   53.49   32.80
  -3  -3   7   63.59   21.30
  -2  -3   8   18.30   15.40
  -2  -3   8   13.70   27.40
  -5  -4   5   51.59   22.10
  -4  -4   6    6.50   18.60
  -3  -4   7   -7.10   16.80
  -3  -4   7   27.50   29.80
  -2   5   9   19.20   46.50
  -2   5   9   12.80   15.30
   2  -5  -9    6.70   35.90
  -1   5  10   -2.60   39.40
  -1   5  10   13.10   16.90
   1  -5 -10   -4.10   36.80
  -3   4   8  131.99   57.09
  -3   4   8   52.79   21.50
   3  -4  -8  123.89   43.70
  -2   4   9   57.79   21.70
  -2   4   9   93.89   51.69
   2  -4  -9   32.40   38.60
  -1   4  10    4.10   15.00
  -1   4  10   44.90   38.50
   1  -4 -10   37.20   36.40
  -4   3   7   23.80   17.10
   4  -3  -7   74.89   41.80
  -3   3   8   64.09   21.00
   3  -3  -8   39.50   34.10
  -2   3   9   20.20   17.10
   2  -3  -9   36.10   36.80
  -1   3  10   15.30   42.90
  -1   3  10   16.10   13.60
   1  -3 -10    9.10   34.70
   0   3  11   44.50   51.19
   0   3  11    1.10   16.00
  -4   2   7   12.60   17.70
   4  -2  -7   12.60   31.10
  -3   2   8   41.30   17.80
   3  -2  -8   -4.90   25.80
  -2   2   9   48.70   19.30
   2  -2  -9   -2.50   32.20
  -1   2  10   17.20   16.00
   1  -2 -10   10.10   32.10
  -5   1   6    4.00   17.10
   5  -1  -6    6.20   30.40
  -4   1   7   44.40   19.00
  -3   1   8  122.29   27.80
  -2   1   9   67.09   21.40
  -1   1  10   21.50   17.20
  -5   0   6   28.60   18.30
  -4   0   7   20.00   16.30
  -3   0   8   75.99   24.70
  -2   0   9   85.79   23.70
  -1   0  10    4.00   15.50
  -5  -1   6  -11.60   19.30
  -4  -1   7   13.30   16.40
  -3  -1   8   37.90   21.50
  -3  -1   8   90.99   30.20
  -2  -1   9   29.90   18.60
  -2  -1   9   12.30   28.20
  -4  -2   7   53.09   23.00
  -3  -2   8   22.70   17.40
  -3  -2   8    9.40   27.50

_computing_structure_solution     'SHELXT 2014/4 (Sheldrick, 2014)'
;
_shelx_hkl_checksum              38607
_olex2_submission_special_instructions 'No special instructions were received'
loop_
_space_group_symop_operation_xyz
'x, y, z'
loop_
_atom_site_label
_atom_site_type_symbol
_atom_site_fract_x
_atom_site_fract_y
_atom_site_fract_z
_atom_site_U_iso_or_equiv
_atom_site_adp_type
_atom_site_occupancy
_atom_site_site_symmetry_order
_atom_site_calc_flag
_atom_site_refinement_flags_posn
_atom_site_refinement_flags_adp
_atom_site_refinement_flags_occupancy
_atom_site_disorder_assembly
_atom_site_disorder_group
P3 P -0.3646(9) -0.6482(6) -0.6485(6) 0.0367(11) Uani 1 1 d . . . . .
P2 P -0.4479(9) -0.3002(6) -0.6968(6) 0.0361(12) Uani 1 1 d . . . . .
P4 P -0.5541(11) -0.7099(7) -0.2997(7) 0.0461(13) Uani 1 1 d . U . . .
P1 P -0.5321(9) -0.3625(7) -0.3533(7) 0.0389(12) Uani 1 1 d . . . . .
Cl1 Cl -0.4006(12) -0.2890(10) -0.2093(8) 0.0668(19) Uani 1 1 d . . . . .
Cl2 Cl -0.4445(13) -0.7832(8) -0.7669(9) 0.0665(18) Uani 1 1 d . . . . .
Cl4 Cl -0.4672(19) -0.9082(8) -0.1103(8) 0.089(3) Uani 1 1 d . U . . .
Cl3 Cl -0.8931(15) -0.7135(16) -0.2801(15) 0.104(3) Uani 1 1 d . U . . .
O4 O -0.100(3) -0.648(2) -0.718(2) 0.063(4) Uani 1 1 d . U . . .
N3 N -0.389(4) -0.756(2) -0.460(2) 0.0466(16) Uani 1 1 d . U . . .
O1 O -0.798(3) -0.258(2) -0.340(2) 0.062(5) Uani 1 1 d . . . . .
C2 C -0.875(4) -0.114(4) -0.617(3) 0.056(6) Uani 1 1 d . . . . .
H2A H -0.953605 -0.208533 -0.588120 0.067 Uiso 1 1 calc R U . . .
H2B H -0.979245 -0.011831 -0.668222 0.067 Uiso 1 1 calc R U . . .
O2 O -0.651(3) -0.142(2) -0.740(2) 0.055(4) Uani 1 1 d . . . . .
N4 N -0.553(4) -0.547(2) -0.253(3) 0.061(6) Uani 1 1 d . . . . .
N1 N -0.364(3) -0.317(2) -0.533(2) 0.038(4) Uani 1 1 d . . . . .
O3 O -0.236(3) -0.255(3) -0.860(2) 0.058(3) Uani 1 1 d . U . . .
N2 N -0.528(3) -0.462(2) -0.692(2) 0.037(4) Uani 1 1 d . . . . .
C4 C -0.009(5) -0.534(4) -0.893(4) 0.063(4) Uani 1 1 d . U . . .
H4A H 0.151399 -0.587724 -0.945614 0.076 Uiso 1 1 calc R U . . .
H4B H -0.115931 -0.516443 -0.962889 0.076 Uiso 1 1 calc R U . . .
C1 C -0.854(5) -0.095(3) -0.455(3) 0.057(6) Uani 1 1 d . . . . .
H1A H -0.727578 -0.032211 -0.481233 0.069 Uiso 1 1 calc R U . . .
H1B H -1.004746 -0.029925 -0.402078 0.069 Uiso 1 1 calc R U . . .
C3 C -0.001(5) -0.366(4) -0.878(3) 0.058(3) Uani 1 1 d . U . . .
H3A H 0.058810 -0.384998 -0.781215 0.069 Uiso 1 1 calc R U . . .
H3B H 0.109943 -0.311458 -0.977751 0.069 Uiso 1 1 calc R U . . .
loop_
_atom_site_aniso_label
_atom_site_aniso_U_11
_atom_site_aniso_U_22
_atom_site_aniso_U_33
_atom_site_aniso_U_23
_atom_site_aniso_U_13
_atom_site_aniso_U_12
P3 0.051(3) 0.033(3) 0.020(2) -0.0140(19) -0.0070(18) 0.007(2)
P2 0.047(3) 0.027(2) 0.025(2) -0.0040(19) -0.0068(19) 0.000(2)
P4 0.075(4) 0.032(3) 0.030(3) -0.009(2) -0.012(2) -0.009(2)
P1 0.044(3) 0.035(3) 0.035(3) -0.016(2) -0.0016(19) -0.006(2)
Cl1 0.081(5) 0.084(5) 0.051(4) -0.031(3) -0.013(3) -0.029(4)
Cl2 0.094(5) 0.045(3) 0.073(5) -0.034(3) -0.039(4) 0.010(3)
Cl4 0.192(9) 0.028(3) 0.029(3) 0.000(2) -0.027(4) -0.006(4)
Cl3 0.064(5) 0.143(9) 0.133(8) -0.091(7) 0.007(4) -0.034(5)
O4 0.067(8) 0.053(8) 0.061(9) 0.008(7) -0.043(7) 0.002(7)
N3 0.075(4) 0.032(3) 0.030(3) -0.009(2) -0.012(3) -0.008(3)
O1 0.062(10) 0.055(11) 0.053(11) 0.001(8) -0.015(8) -0.010(8)
C2 0.043(12) 0.059(15) 0.058(16) -0.021(12) -0.009(10) 0.003(10)
O2 0.080(12) 0.035(8) 0.038(9) -0.001(7) -0.025(8) 0.006(7)
N4 0.075(14) 0.020(9) 0.071(15) -0.004(9) -0.013(11) -0.002(9)
N1 0.037(8) 0.042(9) 0.023(8) -0.005(7) -0.003(6) -0.002(7)
O3 0.062(8) 0.064(9) 0.037(7) -0.018(6) 0.004(6) -0.011(6)
N2 0.049(9) 0.025(8) 0.031(9) -0.015(7) -0.013(7) 0.013(6)
C4 0.067(8) 0.053(8) 0.061(9) 0.008(7) -0.043(7) 0.002(7)
C1 0.085(17) 0.041(13) 0.029(11) -0.017(10) -0.009(10) 0.014(11)
C3 0.062(8) 0.064(9) 0.037(7) -0.018(6) 0.004(6) -0.011(6)
loop_
_atom_type_symbol
_atom_type_description
_atom_type_scat_dispersion_real
_atom_type_scat_dispersion_imag
_atom_type_scat_source
C C 0.0033 0.0016 'International Tables Vol C Tables 4.2.6.8 and 6.1.1.4'
H H 0.0000 0.0000 'International Tables Vol C Tables 4.2.6.8 and 6.1.1.4'
Cl Cl 0.1484 0.1585 'International Tables Vol C Tables 4.2.6.8 and 6.1.1.4'
N N 0.0061 0.0033 'International Tables Vol C Tables 4.2.6.8 and 6.1.1.4'
O O 0.0106 0.0060 'International Tables Vol C Tables 4.2.6.8 and 6.1.1.4'
P P 0.1023 0.0942 'International Tables Vol C Tables 4.2.6.8 and 6.1.1.4'
loop_
_exptl_crystal_face_index_h
_exptl_crystal_face_index_k
_exptl_crystal_face_index_l
_exptl_crystal_face_perp_dist
0.00 1.00 2.00 0.0230
0.00 -1.00 -2.00 0.0490
-2.00 1.00 -2.00 0.1270
0.00 -1.00 2.00 0.0420
2.00 -2.00 3.00 0.0400
-2.00 -1.00 -2.00 0.1570
1.00 2.00 3.00 0.0290
1.00 0.00 0.00 0.0510
-1.00 0.00 0.00 0.1400
0.00 -1.00 -1.00 0.0690
-1.00 2.00 0.00 0.1000
0.00 1.00 -1.00 0.0360
0.00 -1.00 1.00 0.0430
loop_
_geom_angle_atom_site_label_1
_geom_angle_atom_site_label_2
_geom_angle_atom_site_label_3
_geom_angle
_geom_angle_site_symmetry_1
_geom_angle_site_symmetry_3
_geom_angle_publ_flag
O4 P3 Cl2 106.8(9) . . ?
O4 P3 N3 104.5(10) . . ?
O4 P3 N2 112.2(10) . . ?
N3 P3 Cl2 106.6(8) . . ?
N3 P3 N2 119.8(10) . . ?
N2 P3 Cl2 106.2(7) . . ?
O2 P2 N1 114.4(9) . . ?
O2 P2 O3 99.6(10) . . ?
O2 P2 N2 108.2(9) . . ?
O3 P2 N1 109.2(9) . . ?
N2 P2 N1 114.6(9) . . ?
N2 P2 O3 109.9(10) . . ?
Cl3 P4 Cl4 103.1(6) . . ?
N3 P4 Cl4 105.1(8) . . ?
N3 P4 Cl3 109.6(8) . . ?
N3 P4 N4 123.0(11) . . ?
N4 P4 Cl4 105.6(9) . . ?
N4 P4 Cl3 108.6(9) . . ?
O1 P1 Cl1 105.2(9) . . ?
N4 P1 Cl1 102.9(10) . . ?
N4 P1 O1 105.9(11) . . ?
N4 P1 N1 122.4(12) . . ?
N1 P1 Cl1 105.3(7) . . ?
N1 P1 O1 113.5(10) . . ?
P3 O4 C4 119.8(13) . . ?
P4 N3 P3 129.1(14) . . ?
C1 O1 P1 121.7(16) . . ?
H2A C2 H2B 107.5 . . ?
O2 C2 H2A 108.5 . . ?
O2 C2 H2B 108.5 . . ?
O2 C2 C1 115(2) . . ?
C1 C2 H2A 108.5 . . ?
C1 C2 H2B 108.5 . . ?
C2 O2 P2 120.6(15) . . ?
P1 N4 P4 134.6(18) . . ?
P1 N1 P2 121.4(10) . . ?
C3 O3 P2 120.7(16) . . ?
P2 N2 P3 122.1(10) . . ?
O4 C4 H4A 109.8 . . ?
O4 C4 H4B 109.8 . . ?
H4A C4 H4B 108.3 . . ?
C3 C4 O4 109(2) . . ?
C3 C4 H4A 109.8 . . ?
C3 C4 H4B 109.8 . . ?
O1 C1 C2 111(2) . . ?
O1 C1 H1A 109.5 . . ?
O1 C1 H1B 109.5 . . ?
C2 C1 H1A 109.5 . . ?
C2 C1 H1B 109.5 . . ?
H1A C1 H1B 108.1 . . ?
O3 C3 C4 112(2) . . ?
O3 C3 H3A 109.2 . . ?
O3 C3 H3B 109.2 . . ?
C4 C3 H3A 109.2 . . ?
C4 C3 H3B 109.2 . . ?
H3A C3 H3B 107.9 . . ?
loop_
_geom_bond_atom_site_label_1
_geom_bond_atom_site_label_2
_geom_bond_distance
_geom_bond_site_symmetry_2
_geom_bond_publ_flag
P3 Cl2 2.022(8) . ?
P3 O4 1.50(2) . ?
P3 N3 1.566(19) . ?
P3 N2 1.597(17) . ?
P2 O2 1.558(16) . ?
P2 N1 1.612(17) . ?
P2 O3 1.584(16) . ?
P2 N2 1.570(18) . ?
P4 Cl4 1.999(8) . ?
P4 Cl3 1.986(10) . ?
P4 N3 1.53(2) . ?
P4 N4 1.58(2) . ?
P1 Cl1 2.017(7) . ?
P1 O1 1.57(2) . ?
P1 N4 1.537(19) . ?
P1 N1 1.548(17) . ?
O4 C4 1.53(3) . ?
O1 C1 1.43(3) . ?
C2 H2A 0.9700 . ?
C2 H2B 0.9700 . ?
C2 O2 1.43(3) . ?
C2 C1 1.53(4) . ?
O3 C3 1.44(3) . ?
C4 H4A 0.9700 . ?
C4 H4B 0.9700 . ?
C4 C3 1.50(4) . ?
C1 H1A 0.9700 . ?
C1 H1B 0.9700 . ?
C3 H3A 0.9700 . ?
C3 H3B 0.9700 . ?
loop_
_geom_torsion_atom_site_label_1
_geom_torsion_atom_site_label_2
_geom_torsion_atom_site_label_3
_geom_torsion_atom_site_label_4
_geom_torsion
_geom_torsion_site_symmetry_1
_geom_torsion_site_symmetry_2
_geom_torsion_site_symmetry_3
_geom_torsion_site_symmetry_4
_geom_torsion_publ_flag
P3 O4 C4 C3 92(2) . . . . ?
P2 O3 C3 C4 66(3) . . . . ?
P1 O1 C1 C2 83(3) . . . . ?
Cl1 P1 O1 C1 90.0(19) . . . . ?
Cl1 P1 N4 P4 -155.1(18) . . . . ?
Cl1 P1 N1 P2 -160.9(11) . . . . ?
Cl2 P3 O4 C4 76(2) . . . . ?
Cl2 P3 N3 P4 -121.0(14) . . . . ?
Cl2 P3 N2 P2 -152.2(10) . . . . ?
Cl4 P4 N3 P3 -176.8(13) . . . . ?
Cl4 P4 N4 P1 159.5(18) . . . . ?
Cl3 P4 N3 P3 73.0(16) . . . . ?
Cl3 P4 N4 P1 -91(2) . . . . ?
O4 P3 N3 P4 126.2(17) . . . . ?
O4 P3 N2 P2 -35.8(15) . . . . ?
O4 C4 C3 O3 -81(2) . . . . ?
N3 P3 O4 C4 -172(2) . . . . ?
N3 P3 N2 P2 87.2(16) . . . . ?
N3 P4 N4 P1 39(3) . . . . ?
O1 P1 N4 P4 95(2) . . . . ?
O1 P1 N1 P2 -46.3(17) . . . . ?
O2 P2 N1 P1 70.0(16) . . . . ?
O2 P2 O3 C3 179.0(18) . . . . ?
O2 P2 N2 P3 -179.1(11) . . . . ?
O2 C2 C1 O1 -84(3) . . . . ?
N4 P4 N3 P3 -56(2) . . . . ?
N4 P1 O1 C1 -161(2) . . . . ?
N4 P1 N1 P2 82.6(17) . . . . ?
N1 P2 O2 C2 -56(2) . . . . ?
N1 P2 O3 C3 59(2) . . . . ?
N1 P2 N2 P3 -50.2(15) . . . . ?
N1 P1 O1 C1 -25(2) . . . . ?
N1 P1 N4 P4 -37(3) . . . . ?
O3 P2 O2 C2 -172.1(18) . . . . ?
O3 P2 N1 P1 -179.5(13) . . . . ?
O3 P2 N2 P3 73.1(14) . . . . ?
N2 P3 O4 C4 -40(2) . . . . ?
N2 P3 N3 P4 0(2) . . . . ?
N2 P2 O2 C2 73(2) . . . . ?
N2 P2 N1 P1 -55.7(16) . . . . ?
N2 P2 O3 C3 -67.6(19) . . . . ?
C1 C2 O2 P2 60(3) . . . . ?
