#------------------------------------------------------------------------------
#$Date: 2021-09-06 13:55:05 +0300 (Mon, 06 Sep 2021) $
#$Revision: 268713 $
#$URL: file:///home/coder/svn-repositories/cod/cif/7/70/77/7707768.cif $
#------------------------------------------------------------------------------
#
# This file is available in the Crystallography Open Database (COD),
# http://www.crystallography.net/
#
# All data on this site have been placed in the public domain by the
# contributors.
#
data_7707768
loop_
_publ_author_name
'Zong, Zhaohui'
'Zhang, Heng'
'Hao, Aiyou'
'Xing, Pengyao'
_publ_section_title
;
 The origin of supramolecular chirality in 1-ferrocenyl amino acids.
;
_journal_issue                   28
_journal_name_full
'Dalton transactions (Cambridge, England : 2003)'
_journal_page_first              9695
_journal_page_last               9699
_journal_paper_doi               10.1039/d1dt01905h
_journal_volume                  50
_journal_year                    2021
_chemical_absolute_configuration syn
_chemical_formula_moiety         'C16 H19 Fe N O3'
_chemical_formula_sum            'C16 H19 Fe N O3'
_chemical_formula_weight         329.17
_space_group_crystal_system      monoclinic
_space_group_IT_number           4
_space_group_name_Hall           'P 2yb'
_space_group_name_H-M_alt        'P 1 21 1'
_atom_sites_solution_hydrogens   geom
_atom_sites_solution_primary     dual
_audit_creation_date             2021-05-05
_audit_creation_method
;
Olex2 1.3
(compiled 2020.11.12 svn.r5f609507 for OlexSys, GUI svn.r6272)
;
_audit_update_record
;
2021-05-05 deposited with the CCDC.	2021-06-30 downloaded from the CCDC.
;
_cell_angle_alpha                90
_cell_angle_beta                 105.488(5)
_cell_angle_gamma                90
_cell_formula_units_Z            2
_cell_length_a                   7.1314(3)
_cell_length_b                   10.4452(4)
_cell_length_c                   10.0130(5)
_cell_measurement_reflns_used    2004
_cell_measurement_temperature    173.00(10)
_cell_measurement_theta_max      75.9100
_cell_measurement_theta_min      4.5340
_cell_volume                     718.77(6)
_computing_cell_refinement       'CrysAlisPro 1.171.40.68a (Rigaku OD, 2019)'
_computing_data_collection       'CrysAlisPro 1.171.40.68a (Rigaku OD, 2019)'
_computing_data_reduction        'CrysAlisPro 1.171.40.68a (Rigaku OD, 2019)'
_computing_molecular_graphics    'Olex2 1.3 (Dolomanov et al., 2009)'
_computing_publication_material  'Olex2 1.3 (Dolomanov et al., 2009)'
_computing_structure_refinement  'SHELXL 2018/3 (Sheldrick, 2015)'
_computing_structure_solution    'SHELXT  (Sheldrick, 2015)'
_diffrn_ambient_environment      N~2~
_diffrn_ambient_temperature      173.00(10)
_diffrn_detector                 'Hybrid Pixel Array Detector'
_diffrn_detector_area_resol_mean 10.0000
_diffrn_detector_type            HyPix
_diffrn_measured_fraction_theta_full 0.986
_diffrn_measured_fraction_theta_max 0.986
_diffrn_measurement_details
;
List of Runs (angles in degrees, time in seconds):

  # Type    Start    End  Width  t~exp~   \w     \q     \k     \f   Frames
#--------------------------------------------------------------------------
  1  \w     40.00  74.00   1.00    0.23    --   48.45  36.00 132.00   34
  2  \w     97.00 164.00   1.00    1.30    --  106.49  36.00 132.00   67
  3  \w     99.00 144.00   1.00    1.30    --  106.49  19.00-120.00   45
  4  \w    148.00 178.00   1.00    1.30    --  106.49  19.00-120.00   30
  5  \w    -21.00  27.00   1.00    0.23    --  -48.45  19.00 -60.00   48
  6  \w    -40.00 -13.00   1.00    1.30    --  -86.25  38.00-150.00   27
  7  \w    -63.00 -17.00   1.00    1.30    --  -86.25  57.00 -90.00   46
  8  \w    -47.00 -19.00   1.00    1.30    --  -86.25  57.00 -60.00   28
  9  \w    -41.00 -16.00   1.00    1.30    --  -86.25  36.00 132.00   25
 10  \w     -4.00  24.00   1.00    0.23    --  -48.45  36.00 132.00   28
 11  \w   -122.00 -40.00   1.00    0.23    --  -48.45 -36.00 -24.00   82
 12  \w   -132.00 -75.00   1.00    1.30    --  -86.25 -36.00 -24.00   57
 13  \w     34.00 105.00   1.00    1.30    --  106.49 -77.00   0.00   71
 14  \w     38.00  63.00   1.00    1.30    --  106.49 -57.00  60.00   25
 15  \w     34.00  59.00   1.00    1.30    --  106.49 -57.00  30.00   25
 16  \w      1.00  40.00   1.00    0.23    --   48.45 -36.00 -24.00   39
 17  \w     74.00 104.00   1.00    1.30    --  106.49-125.00-150.00   30
 18  \w     35.00  99.00   1.00    1.30    --  106.49 -99.00-150.00   64
 19  \w     34.00  71.00   1.00    1.30    --  106.49-125.00-150.00   37
;
_diffrn_measurement_device       'four-circle diffractometer'
_diffrn_measurement_device_type  'XtaLAB Synergy, Dualflex, HyPix'
_diffrn_measurement_method       '\w scans'
_diffrn_orient_matrix_type
'CrysAlisPro convention (1999,Acta A55,543-557)'
_diffrn_orient_matrix_UB_11      0.0258437000
_diffrn_orient_matrix_UB_12      -0.0399110000
_diffrn_orient_matrix_UB_13      0.1519678000
_diffrn_orient_matrix_UB_21      0.2020921000
_diffrn_orient_matrix_UB_22      -0.0556194000
_diffrn_orient_matrix_UB_23      0.0053815000
_diffrn_orient_matrix_UB_31      0.0935940000
_diffrn_orient_matrix_UB_32      0.1306509000
_diffrn_orient_matrix_UB_33      0.0485124000
_diffrn_radiation_monochromator  mirror
_diffrn_radiation_probe          x-ray
_diffrn_radiation_type           'Cu K\a'
_diffrn_radiation_wavelength     1.54184
_diffrn_reflns_av_R_equivalents  0.0515
_diffrn_reflns_av_unetI/netI     0.0679
_diffrn_reflns_Laue_measured_fraction_full 0.986
_diffrn_reflns_Laue_measured_fraction_max 0.986
_diffrn_reflns_limit_h_max       8
_diffrn_reflns_limit_h_min       -8
_diffrn_reflns_limit_k_max       12
_diffrn_reflns_limit_k_min       -9
_diffrn_reflns_limit_l_max       11
_diffrn_reflns_limit_l_min       -11
_diffrn_reflns_number            4003
_diffrn_reflns_point_group_measured_fraction_full 0.780
_diffrn_reflns_point_group_measured_fraction_max 0.780
_diffrn_reflns_theta_full        67.063
_diffrn_reflns_theta_max         67.063
_diffrn_reflns_theta_min         4.582
_diffrn_source                   'micro-focus sealed X-ray tube'
_diffrn_source_type              'PhotonJet (Cu) X-ray Source'
_exptl_absorpt_coefficient_mu    8.497
_exptl_absorpt_correction_T_max  1.00000
_exptl_absorpt_correction_T_min  0.47032
_exptl_absorpt_correction_type   multi-scan
_exptl_absorpt_process_details
;
CrysAlisPro 1.171.40.68a (Rigaku Oxford Diffraction, 2019)
Empirical absorption correction using spherical harmonics,
 implemented in SCALE3 ABSPACK scaling algorithm.
;
_exptl_crystal_colour            'clear light orange'
_exptl_crystal_colour_lustre     clear
_exptl_crystal_colour_modifier   light
_exptl_crystal_colour_primary    orange
_exptl_crystal_density_diffrn    1.521
_exptl_crystal_description       block
_exptl_crystal_F_000             344
_exptl_crystal_size_max          0.02
_exptl_crystal_size_mid          0.02
_exptl_crystal_size_min          0.01
_refine_diff_density_max         0.277
_refine_diff_density_min         -0.275
_refine_diff_density_rms         0.064
_refine_ls_abs_structure_details
;
 Flack x determined using 548 quotients [(I+)-(I-)]/[(I+)+(I-)]
 (Parsons, Flack and Wagner, Acta Cryst. B69 (2013) 249-259).
;
_refine_ls_abs_structure_Flack   -0.006(7)
_refine_ls_extinction_method     none
_refine_ls_goodness_of_fit_ref   0.988
_refine_ls_hydrogen_treatment    constr
_refine_ls_matrix_type           full
_refine_ls_number_parameters     193
_refine_ls_number_reflns         2001
_refine_ls_number_restraints     1
_refine_ls_restrained_S_all      0.988
_refine_ls_R_factor_all          0.0397
_refine_ls_R_factor_gt           0.0358
_refine_ls_shift/su_max          0.000
_refine_ls_shift/su_mean         0.000
_refine_ls_structure_factor_coef Fsqd
_refine_ls_weighting_details
'w=1/[\s^2^(Fo^2^)+(0.0364P)^2^] where P=(Fo^2^+2Fc^2^)/3'
_refine_ls_weighting_scheme      calc
_refine_ls_wR_factor_gt          0.0808
_refine_ls_wR_factor_ref         0.0822
_reflns_Friedel_coverage         0.493
_reflns_Friedel_fraction_full    0.548
_reflns_Friedel_fraction_max     0.548
_reflns_number_gt                1842
_reflns_number_total             2001
_reflns_threshold_expression     'I > 2\s(I)'
_cod_data_source_file            d1dt01905h2.cif
_cod_data_source_block           200617d
_cod_depositor_comments
'Adding full bibliography for 7707767--7707769.cif.'
_cod_database_code               7707768
_shelx_shelxl_version_number     2018/3
_chemical_oxdiff_formula         FeCNO
_shelx_space_group_comment
;
The symmetry employed for this shelxl refinement is uniquely defined
by the following loop, which should always be used as a source of
symmetry information in preference to the above space-group names.
They are only intended as comments.
;
_shelx_estimated_absorpt_t_max   0.920
_shelx_estimated_absorpt_t_min   0.848
_reflns_odcompleteness_completeness 98.61
_reflns_odcompleteness_iscentric 1
_reflns_odcompleteness_theta     66.97
_olex2_refinement_description
;
1. Fixed Uiso
 At 1.2 times of:
  All C(H) groups, All N(H) groups
 At 1.5 times of:
  All C(H,H,H) groups, All O(H) groups
2.a Ternary CH refined with riding coordinates:
 C9(H9), C13(H13)
2.b Aromatic/amide H refined with riding coordinates:
 N8(H8), C6(H6), C4(H4), C3(H3), C19(H19), C17(H17), C5(H5), C18(H18),
 C21(H21), C20(H20)
2.c Idealised Me refined as rotating group:
 C15(H15A,H15B,H15C), C14(H14A,H14B,H14C)
2.d Idealised tetrahedral OH refined as rotating group:
 O11(H11)
;
_shelx_res_file
;
TITL 200617d_a.res in P2(1)
    200617d.res
    created by SHELXL-2018/3 at 09:42:12 on 05-May-2021
REM Old TITL 200617D in P2(1)
REM SHELXT solution in P2(1): R1 0.081, Rweak 0.033, Alpha 0.005
REM <I/s> 0.591 for 6 systematic absences, Orientation as input
REM Flack x = 0.009 ( 0.008 ) from 586 Parsons' quotients
REM Formula found by SHELXT: C20 N O11 Fe
CELL 1.54184 7.1314 10.4452 10.013 90 105.488 90
ZERR 2 0.0003 0.0004 0.0005 0 0.005 0
LATT -1
SYMM -X,0.5+Y,-Z
SFAC C H Fe N O
UNIT 32 38 2 2 6

L.S. 4
PLAN  5
SIZE 0.02 0.02 0.01
TEMP -100.15(10)
CONF
MORE -1
BOND $H
fmap 2
acta
SHEL 999 0.837
REM <olex2.extras>
REM <HklSrc "%.\\200617D.hkl">
REM </olex2.extras>

WGHT    0.036400
FVAR       4.01780
FE1   3    0.811282    0.546701    0.920811    11.00000    0.01183    0.02139 =
         0.01713    0.00067    0.00230    0.00070
O16   5    0.333201    0.709600    0.697002    11.00000    0.01831    0.01482 =
         0.02490    0.00166   -0.00227    0.00274
O12   5    0.119973    0.294684    0.551344    11.00000    0.02851    0.02342 =
         0.03322    0.00333   -0.00223   -0.00241
O11   5   -0.097829    0.402613    0.387865    11.00000    0.02208    0.02389 =
         0.02882    0.00008   -0.00540   -0.00886
AFIX 147
H11   2   -0.163654    0.335274    0.383231    11.00000   -1.50000
AFIX   0
N8    4    0.340571    0.502386    0.630068    11.00000    0.01712    0.01842 =
         0.01773    0.00078   -0.00167    0.00347
AFIX  43
H8    2    0.404832    0.429694    0.647626    11.00000   -1.20000
AFIX   0
C2    1    0.515087    0.565043    0.860722    11.00000    0.01312    0.01972 =
         0.01760   -0.00217    0.00404    0.00024
C10   1    0.067666    0.390111    0.485506    11.00000    0.01457    0.02089 =
         0.01881   -0.00251    0.00224    0.00079
C6    1    0.570802    0.440951    0.918666    11.00000    0.01761    0.02184 =
         0.02006    0.00501    0.00438   -0.00233
AFIX  43
H6    2    0.537294    0.361486    0.872280    11.00000   -1.20000
AFIX   0
C4    1    0.702099    0.589482    1.086191    11.00000    0.01816    0.03066 =
         0.01296   -0.00241    0.00334    0.00095
AFIX  43
H4    2    0.770809    0.626720    1.171844    11.00000   -1.20000
AFIX   0
C7    1    0.389237    0.598833    0.722927    11.00000    0.00813    0.02145 =
         0.02017    0.00012    0.00347   -0.00118
C9    1    0.185441    0.514292    0.501778    11.00000    0.01503    0.01730 =
         0.01711   -0.00084    0.00009    0.00145
AFIX  13
H9    2    0.099229    0.587373    0.511089    11.00000   -1.20000
AFIX   0
C3    1    0.599239    0.657802    0.965202    11.00000    0.01453    0.02446 =
         0.01723   -0.00131   -0.00025   -0.00212
AFIX  43
H3    2    0.588510    0.748193    0.955662    11.00000   -1.20000
AFIX   0
C19   1    1.091813    0.614890    0.966105    11.00000    0.01489    0.05071 =
         0.03421   -0.00759    0.00647   -0.01043
AFIX  43
H19   2    1.156951    0.663508    1.045057    11.00000   -1.20000
AFIX   0
C13   1    0.261236    0.536657    0.372174    11.00000    0.01986    0.01925 =
         0.01807    0.00058    0.00171   -0.00209
AFIX  13
H13   2    0.146152    0.539323    0.289236    11.00000   -1.20000
AFIX   0
C15   1    0.363705    0.665625    0.383142    11.00000    0.03838    0.03282 =
         0.02825    0.00608    0.00827   -0.00762
AFIX 137
H15A  2    0.274383    0.733429    0.394751    11.00000   -1.50000
H15B  2    0.404418    0.681360    0.298534    11.00000   -1.50000
H15C  2    0.478273    0.665102    0.463202    11.00000   -1.50000
AFIX   0
C17   1    0.909997    0.560621    0.749130    11.00000    0.02234    0.06976 =
         0.02370    0.00429    0.01313    0.00189
AFIX  43
H17   2    0.830087    0.565962    0.656715    11.00000   -1.20000
AFIX   0
C14   1    0.393551    0.429650    0.350709    11.00000    0.02558    0.03479 =
         0.03141   -0.00547    0.01120    0.00454
AFIX 137
H14A  2    0.507046    0.424395    0.431294    11.00000   -1.50000
H14B  2    0.436675    0.447001    0.267394    11.00000   -1.50000
H14C  2    0.322540    0.348319    0.339550    11.00000   -1.50000
AFIX   0
C5    1    0.684210    0.457120    1.056734    11.00000    0.01924    0.02748 =
         0.02347    0.00500    0.00590    0.00153
AFIX  43
H5    2    0.739171    0.390217    1.119224    11.00000   -1.20000
AFIX   0
C18   1    0.979008    0.664071    0.838441    11.00000    0.02757    0.04960 =
         0.04304    0.00403    0.01557   -0.00562
AFIX  43
H18   2    0.954076    0.752033    0.816696    11.00000   -1.20000
AFIX   0
C21   1    0.981712    0.446500    0.822456    11.00000    0.03473    0.03711 =
         0.06517   -0.02363    0.03284   -0.00296
AFIX  43
H21   2    0.959408    0.361872    0.787009    11.00000   -1.20000
AFIX   0
C20   1    1.089863    0.479972    0.954670    11.00000    0.01884    0.05464 =
         0.04018    0.00970    0.01193    0.01400
AFIX  43
H20   2    1.152225    0.421903    1.025693    11.00000   -1.20000
AFIX   0
HKLF 4




REM  200617d_a.res in P2(1)
REM wR2 = 0.0822, GooF = S = 0.988, Restrained GooF = 0.988 for all data
REM R1 = 0.0358 for 1842 Fo > 4sig(Fo) and 0.0397 for all 2001 data
REM 193 parameters refined using 1 restraints

END

WGHT      0.0364      0.0000

REM Highest difference peak  0.277,  deepest hole -0.275,  1-sigma level  0.064
Q1    1   0.8730  0.5452  1.0361  11.00000  0.05    0.28
Q2    1   0.8103  0.6984  0.9202  11.00000  0.05    0.26
Q3    1   0.8100  0.3932  0.9117  11.00000  0.05    0.26
Q4    1   0.5576  0.6043  0.9126  11.00000  0.05    0.22
Q5    1   0.7649  0.5470  0.8014  11.00000  0.05    0.22
;
_shelx_res_checksum              33070
_shelx_hkl_file
;
   0  -9   7 203.151 89.1025   3
   0  -9   8 1782.63 130.707   3
   0  -8   9 373.403 86.1030   3
   0  -7  10 482.715 83.8550   3
   0  -5  11 1461.27 118.690   3
   0  -4   2 3941.61 269.181  16
   0  -4  -2 3496.14 377.587  11
   0  -4  -3 5669.18 623.958  11
   0  -4  -4 333.219 289.797  11
   0  -4   5 10468.8 809.203  16
   0  -4  -5 10346.9 1133.49  11
   0  -4   6 13026.1 707.391   2
   0  -4  -6 12480.4 825.205  12
   0  -4  -6 12690.3 1374.62  11
   0  -4   6 12996.8 1010.23  16
   0  -4  -7 4062.73 870.840  11
   0  -4  -7 4700.14 447.510  12
   0  -4   7 5076.32 633.162  16
   0  -4   8 1529.06 421.874  16
   0  -4  -8 1485.98 582.179  11
   0  -4  -8 1271.77 272.884  12
   0  -4  -9 194.970 196.813  12
   0  -4 -10 65.0267 156.196  12
   0  -3  -1 15449.6 843.285  11
   0  -3   1 15596.5 784.833  16
   0  -3  -2 4892.15 460.050  11
   0  -3  -3 30312.5 1877.40  11
   0  -3  -4 5598.46 721.359  11
   0  -3  -5 4913.49 787.098  11
   0  -3   6 2777.49 224.192   2
   0  -3  -6 2019.85 645.332  11
   0  -3   7 5667.34 689.849  16
   0  -3  -7 6998.43 1166.02  11
   0  -3  -7 6506.71 575.994  12
   0  -3   7 7025.72 434.582   2
   0  -3   8 4403.25 633.689  16
   0  -3  -8 4769.18 497.438  12
   0  -3  -8 5493.49 1079.67  11
   0  -3  -9 2571.88 378.638  12
   0  -3 -10 4386.95 425.837  12
   0  -2  -1 80267.3 3943.41  11
   0  -2  -2 17432.9 1098.74  11
   0  -2  -3 4946.91 572.523  11
   0  -2  -4 9570.61 956.448  11
   0  -2  -5 10311.9 1103.27  11
   0  -2  -6 11996.3 1315.38  11
   0  -2   6 10226.5 581.633   2
   0  -2   7 27751.8 1414.14   2
   0  -2  -7 24032.2 2305.87  11
   0  -2   8 303.105 160.678   2
   0  -2   8-233.105 380.736  16
   0  -2  -8 183.874 279.884  12
   0  -2  -8-155.097 637.045  11
   0  -2   9 4021.29 631.122  16
   0  -2  -9 2493.35 839.754  11
   0  -2  -9 3847.89 466.798  12
   0  -2 -10 74.8903 208.079  12
   0  -2 -11 1217.31 211.748  12
   0  -2  11 1049.36 110.850  13
   0  -1  -1 56520.7 2817.21  11
   0  -1  -2 105995. 5307.04  11
   0  -1  -3 9304.25 796.548  11
   0  -1  -4 30362.0 2008.42  11
   0  -1  -5 12789.7 1246.26  11
   0  -1  -6 728.982 487.792  11
   0  -1  -7 784.562 597.881  11
   0  -1   7 719.837 164.938   2
   0  -1  -8 3532.46 445.658  12
   0  -1   8 2805.06 271.331   2
   0  -1  -9 2544.16 834.685  11
   0  -1   9 2947.66 568.978  16
   0  -1  -9 3019.52 428.041  12
   0  -1 -10 1993.54 340.868  12
   0  -1 -11 1710.69 266.598  12
   0   0  -1 19593.6 1062.27  11
   0   0  -2 51454.4 2717.01  11
   0   0  -3 14100.0 1052.38  11
   0   0  -4 15172.8 1230.30  11
   0   0  -5 14536.6 1316.81  11
   0   0  -6 10821.8 1229.46  11
   0   0   7 20593.3 1082.86   2
   0   0  -7 17195.0 1822.80  11
   0   0   8 497.423 363.593  16
   0   0  -8 1077.09 313.985  12
   0   0  -8 300.627 618.786  11
   0   0   8 985.914 198.375   2
   0   0   9 8590.25 913.304  16
   0   0  -9 6016.46 1176.68  11
   0   0  -9 8103.95 679.414  12
   0   0 -10 214.870 234.991  12
   0   0 -11 1665.53 271.126  12
   0   1   0 13.4595 29.9864   5
   0   1  -1 57306.1 2858.11  11
   0   1  -2 100728. 5070.38  11
   0   1  -3 4191.80 522.601  11
   0   1  -4 35399.8 2260.96  11
   0   1  -5 10583.8 1111.72  11
   0   1  -6 101.878 405.958  11
   0   1   7 324.158 152.962   2
   0   1  -7-127.044 506.383  11
   0   1  -8 383.701 281.550  12
   0   1   8 564.701 162.566   2
   0   1   8 547.324 369.306  16
   0   1  -8 445.071 644.636  11
   0   1  -9 927.806 657.761  11
   0   1  -9 2366.76 387.101  12
   0   1   9 815.083 452.223  16
   0   1 -10 1327.11 295.418  12
   0   1 -11 1099.04 235.902  12
   0   2   0 162719. 7792.66   5
   0   2  -1 89361.3 4379.65  11
   0   2  -2 10909.8 791.876  11
   0   2  -3 4911.12 573.690  11
   0   2  -4 8658.03 895.079  11
   0   2  -5 13001.0 1267.48  11
   0   2   6 10038.0 570.247   2
   0   2  -6 10512.5 1239.70  11
   0   2   7 20886.3 1103.96   2
   0   2  -7 21542.1 2013.83  11
   0   2  -8 1388.52 326.367  12
   0   2  -8 1464.60 733.589  11
   0   2   8 1899.29 221.714   2
   0   2   8 1107.13 417.734  16
   0   2  -9 3101.87 898.844  11
   0   2  -9 3959.81 462.364  12
   0   2   9 3089.31 595.207  16
   0   2 -10-23.9028 216.921  12
   0   2 -10 35.1278 166.900   6
   0   2 -11 1079.10 218.205  12
   0   2  11 1487.52 157.950  13
   0   3   0 35.6858 96.2776   5
   0   3   1 16537.8 828.695  16
   0   3   1 16158.6 863.771   5
   0   3  -1 16990.7 901.686  11
   0   3  -2 1395.11 284.230  11
   0   3  -3 31864.2 1979.63  11
   0   3  -4 3826.33 284.238   7
   0   3  -4 3696.51 643.143  11
   0   3  -5 9550.31 1097.58  11
   0   3  -5 9795.45 583.323   7
   0   3   6 2448.42 212.452   2
   0   3  -6 2291.97 688.714  11
   0   3  -7 6065.85 522.006  12
   0   3  -7 5300.49 978.331  11
   0   3   7 5448.80 364.606   2
   0   3   8 2520.20 510.751  16
   0   3  -8 2640.05 386.286  12
   0   3  -9 260.643 233.995  12
   0   3 -10 3087.44 348.622  12
   0   3  11 975.774 135.057  13
   0   4   0 1684.24 226.428   5
   0   4   1 5320.46 374.867   5
   0   4   2 3872.59 275.345  16
   0   4  -2 3589.89 379.354  11
   0   4  -2 3895.08 256.798   7
   0   4   2 3786.32 271.303   5
   0   4   3 4523.56 306.907   5
   0   4  -3 4914.77 323.933   7
   0   4  -3 4409.89 565.563  11
   0   4  -4 164.384 127.093   7
   0   4  -4 207.082 322.612  11
   0   4  -5 9931.11 618.115   7
   0   4  -5 10973.5 1162.39  11
   0   4   6 14899.4 770.763   2
   0   4   6 12455.3 1035.83  16
   0   4  -6 13691.7 892.051  12
   0   4  -6 13343.8 1457.69  11
   0   4  -7 3029.76 371.848  12
   0   4  -7 2586.28 758.695  11
   0   4   7 2743.89 508.255  16
   0   4   8 635.510 342.205  16
   0   4  -8 198.872 210.641  12
   0   4  -8 256.761 478.722  11
   0   4  -9 336.185 214.729  12
   0   4 -10 18.3288 171.321   6
   0   4  10 136.778 144.986  13
   0   4  11 2075.61 167.202  13
   0   5   0 59.7212 92.9476   7
   0   5   0 91.4867 91.0001   8
   0   5  -1 8429.93 500.501   7
   0   5   1 8860.75 476.305   8
   0   5   2 10012.8 534.499   8
   0   5   2 9926.02 598.107   5
   0   5  -3 10848.7 617.087   7
   0   5  -3 9292.49 798.231  11
   0   5   3 10610.3 555.389   8
   0   5   3 9705.48 619.987  16
   0   5  -4 10593.4 634.992   7
   0   5  -4 10535.0 1001.32  11
   0   5   4 9677.33 699.443  16
   0   5   5 1513.17 311.405  16
   0   5  -5 2629.80 568.439  11
   0   5  -5 2206.51 263.967   7
   0   5  -6 19.8157 165.161  12
   0   5   6-122.400 240.449  16
   0   5  -6-101.054 318.328  11
   0   5  -7 2868.76 345.620  12
   0   5   9 1955.38 219.808  13
   0   5  10 1330.46 163.863  13
   0   5 -10 904.891 202.279   6
   0   5  11 2175.63 152.037  13
   0   6   0 13066.8 724.671   8
   0   6   0 13816.9 748.655   7
   0   6   1 3631.46 267.633   7
   0   6  -1 3025.85 271.315   7
   0   6   1 3366.54 250.461   8
   0   6   2 147.939 102.123   7
   0   6   2 118.373 104.414   8
   0   6   3 41.7253 135.134  17
   0   6   3 111.479 98.3466   8
   0   6  -3 193.742 156.043   7
   0   6  -4 3079.37 312.529   7
   0   6   4 3406.76 236.820  13
   0   6  -4 3425.96 259.118  19
   0   6   4 2855.81 234.284   8
   0   6   5 10588.9 607.760  13
   0   6  -5 11042.4 704.446   7
   0   6   6 4862.37 352.367  13
   0   6   7 2837.26 265.662  13
   0   6   8 984.345 172.360  13
   0   6   9 505.693 136.145  13
   0   6 -10 1363.07 198.078   6
   0   7   0 13.1762 129.932  17
   0   7   0-13.8055 138.888  18
   0   7   0-13.3707 147.111   7
   0   7  -1 3298.89 309.288   7
   0   7  -1 3200.28 300.849  18
   0   7   1 3341.40 297.373  17
   0   7   1 3224.39 291.824   7
   0   7   1 3263.34 273.140   8
   0   7   1 3558.07 303.238  18
   0   7   2 17127.6 978.377  17
   0   7  -2 16062.5 922.139  19
   0   7  -2 17912.4 994.106   7
   0   7  -2 17554.9 978.628  18
   0   7   2 17553.5 928.347   8
   0   7   2 17923.7 990.995  18
   0   7   2 17553.2 936.466   7
   0   7   3 2307.50 273.721  17
   0   7   3 2323.71 217.218   8
   0   7  -3 2004.89 207.222  19
   0   7   3 2512.97 285.916  18
   0   7  -3 2147.83 282.253   7
   0   7  -4 6718.88 435.599  19
   0   7  -4 6653.10 515.102   7
   0   7  -5 2841.57 349.686   7
   0   7   5 2859.25 243.937  13
   0   7   6 3252.46 272.385  13
   0   7   7 105.318 140.785  13
   0   7  -9 4038.53 297.223  18
   0   8   0 19530.9 1094.91  18
   0   8   0 19661.2 1083.11  17
   0   8   0 18213.1 1084.55   7
   0   8  -1 9202.97 575.639  17
   0   8   1 9073.11 596.504  17
   0   8   1 8262.42 573.954   7
   0   8  -1 8997.40 600.386  18
   0   8   1 8305.96 594.315  18
   0   8  -1 8472.18 603.637   7
   0   8  -2 4588.34 428.563   7
   0   8   2 4647.44 415.641  18
   0   8  -2 4997.26 407.296  18
   0   8   2 4805.19 372.533   7
   0   8   2 5207.30 433.083  17
   0   8  -3 477.186 144.835  19
   0   8   3 257.518 198.026  18
   0   8  -3 245.541 167.916  18
   0   8  -4 4714.90 407.474  18
   0   8  -4 4978.58 455.264   7
   0   8  -5 3154.69 368.527   7
   0   8  -5 3095.79 342.250  18
   0   8  -6 4627.89 410.439  18
   0   8  -7 2548.70 285.881  18
   0   8  -8 2485.33 313.798   6
   0   8  -8 3473.95 271.633  18
   0   8  -9 126.498 80.4101  18
   0   9   0 159.835 179.582  17
   0   9   0 20.5046 206.320   7
   0   9   0 41.1670 206.096  18
   0   9   1 1033.27 247.573   7
   0   9  -1 1051.95 225.754  17
   0   9   1 830.111 256.923  18
   0   9  -1 856.485 260.163   7
   0   9   1 1170.59 251.392  17
   0   9  -1 928.077 239.678  18
   0   9  -2 17973.7 1055.60   7
   0   9   2 16303.5 1031.45  18
   0   9  -2 17886.0 984.867  17
   0   9  -2 15940.6 998.325  18
   0   9   2 17615.4 1037.17  17
   0   9  -3 6293.96 487.049  18
   0   9   3 6031.09 519.451  18
   0   9  -3 6899.61 478.290  17
   0   9  -4 1066.85 270.259   7
   0   9  -4 710.947 225.047  18
   0   9   4 1237.64 305.711  18
   0   9  -5 2100.40 279.640  18
   0   9  -6 129.291 217.902   6
   0   9  -6 90.8370 167.328  18
   0   9  -7 483.540 151.441  18
   0   9  -7 421.568 192.111   6
   0   9  -8 1471.50 148.703  18
   0  10   0 1910.20 314.989   7
   0  10   0 1165.82 281.996  18
   0  10   0 1672.49 262.794  17
   0  10   1 13184.4 852.523  17
   0  10  -1 13936.0 873.300  18
   0  10   1 13987.2 855.640   7
   0  10  -1 14104.5 901.025   7
   0  10   1 16006.3 917.953  18
   0  10  -1 12841.7 822.309  17
   0  10  -2 1069.49 282.523   7
   0  10   2 781.353 262.202  18
   0  10  -2 744.800 223.511  18
   0  10  -2 768.129 200.663  17
   0  10  -3 667.130 211.479  18
   0  10   3 597.958 256.525  18
   0  10  -3 275.516 223.746   7
   0  10  -4 1174.73 227.381  18
   0  10  -5 324.510 166.297  18
   0  10  -6 2400.42 236.073  18
   0  10  -7 2081.09 178.609  18
   0  11   0 165.873 198.736  18
   0  11   1 673.085 238.498  18
   0  11  -1 722.023 212.341  18
   0  11   2 3304.34 369.069  18
   0  11  -2 3710.08 341.356  18
   0  11  -3 3624.68 327.045  18
   0  11  -4 889.603 188.385  18
   0  11  -5 1056.39 169.887  18
   0  11  -6 237.330 85.3633  18
   0  12   0 1574.29 218.990  18
   0  12  -1 1260.81 198.708  18
   0  12   1 1586.59 227.196  18
   0  12  -2 655.623 162.745  18
   0  12  -3 105.199 119.584  18
   0  12  -4 171.523 96.0936  18
   0  13  -1 131.001 90.5483  18
   1  -9   4 224.497 105.743   3
   1  -9   5 4216.83 281.846   3
   1  -9   6 3170.45 234.088   3
   1  -9   7 1515.40 138.721   3
   1  -9   8 1574.83 112.533   3
   1  -8   7 912.330 162.483   3
   1  -8   8 218.518 111.113   3
   1  -8   9 412.981 70.4962   3
   1  -7   9 741.121 116.761   3
   1  -6  10 4428.84 261.145   3
   1  -5  10 1309.02 135.532   3
   1  -4 -10 2302.90 290.143  12
   1  -4  -9 2372.24 332.769  12
   1  -4  -8 4973.51 469.138  12
  -1  -4   8 4702.68 639.044  16
   1  -4  -8 4009.56 912.514  11
  -1  -4   8 4974.19 348.998   2
   1  -4  -7 6981.55 574.607  12
  -1  -4   7 7648.19 458.960   2
   1  -4  -6 2571.56 642.524  11
  -1  -4   6 2532.55 218.625   2
   1  -4  -6 2362.06 300.001  12
   1  -4  -5 478.430 176.907  12
   1  -4  -5-82.6834 285.731  11
   1  -4  -4 22501.7 1619.66  11
   1  -4  -3 17809.4 1221.50  11
   1  -4  -2 25514.6 1448.31  11
   1  -4   2 5339.45 378.522  16
  -1  -4  -2 5701.00 556.146  11
  -1  -4  -3 4406.92 558.459  11
   1  -4   3 3059.03 318.851  16
   1  -4   4 5358.25 492.788  16
  -1  -4  -4 4300.81 679.118  11
   1  -4   5 7423.40 674.153  16
  -1  -4  -5 7414.55 983.596  11
   1  -4   6 6575.65 692.913  16
  -1  -4  -6 5881.50 962.541  11
  -1  -4  -7 1588.42 635.784  11
   1  -4   7 1290.02 403.445  16
  -1  -4  -8-23.7679 215.698  12
  -1  -4  -9 5143.70 444.397  12
   1  -4  10 1724.90 166.198   3
   1  -3 -11 529.304 188.007  12
   1  -3 -10 2054.13 338.782  12
   1  -3  -9 869.989 600.570  11
  -1  -3   9 1662.92 463.515  16
  -1  -3   9 1838.95 220.112   2
   1  -3  -9 1375.94 328.250  12
   1  -3  -8 5024.82 1051.94  11
  -1  -3   8 5471.37 383.558   2
   1  -3  -8 4997.02 518.102  12
   1  -3  -7 1523.54 293.818  12
  -1  -3   7 2304.25 221.739   2
   1  -3  -7 2543.39 745.097  11
  -1  -3   6 16741.9 890.432   2
   1  -3  -6 17679.7 1024.25  12
   1  -3  -5 53357.5 2652.02  12
   1  -3  -5 47021.4 3185.31  11
   1  -3  -4 12638.8 1089.09  11
   1  -3  -3 6109.12 619.201  11
   1  -3  -2 967.911 215.816  11
   1  -3  -1 15893.4 898.682  10
  -1  -3   0 15652.4 905.644   1
   1  -3   1 26803.8 1371.69  16
   1  -3   2 6617.52 464.011  16
   1  -3   3 9598.14 685.620  16
  -1  -3  -3 12925.6 998.860  11
  -1  -3  -4 6675.17 820.227  11
   1  -3   4 5993.29 536.026  16
   1  -3   5 1716.03 349.098  16
  -1  -3  -5 1355.01 559.117  11
  -1  -3  -6 7413.22 1090.72  11
   1  -3   6 6641.98 697.984  16
  -1  -3  -7 4356.69 948.053  11
   1  -3   7 3905.35 603.921  16
   1  -3   8 10213.5 989.317  16
  -1  -3  -8 12068.7 1578.08  11
  -1  -3  -8 12231.8 846.615  12
  -1  -3  -9 326.748 234.042  12
  -1  -3 -10 54.6406 165.310  12
   1  -2 -11 1604.55 268.835  12
   1  -2 -10 702.053 260.127  12
  -1  -2   9 8207.72 903.172  16
  -1  -2   9 9359.75 558.149   2
   1  -2  -9 6833.70 1260.83  11
   1  -2  -9 8579.11 714.027  12
  -1  -2   8 7116.42 464.653   2
   1  -2  -8 7189.95 615.747  12
   1  -2  -8 6648.39 1170.37  11
  -1  -2   7 5667.06 381.882   2
   1  -2  -7 5498.77 508.944  12
   1  -2  -7 5339.40 1000.35  11
   1  -2  -6 5964.07 923.527  11
   1  -2  -6 6732.17 525.097  12
   1  -2  -5 1032.49 434.959  11
   1  -2  -5 752.119 187.648  12
   1  -2  -4 17363.4 1343.48  11
   1  -2  -3 23989.7 1544.70  11
   1  -2  -2 6150.11 541.230  11
   1  -2  -1 49826.2 2559.92  11
   1  -2   1 8526.38 509.670  16
   1  -2   2 1550.43 206.256  16
   1  -2   3 7735.57 572.933  16
   1  -2   4 489.325 219.186  16
  -1  -2  -4 210.480 320.828  11
  -1  -2  -5 10880.2 1169.92  11
   1  -2   5 8039.86 724.681  16
   1  -2   6 3680.82 546.859  16
  -1  -2  -6 3628.02 817.743  11
   1  -2   7 216.493 285.434  16
  -1  -2  -7 144.535 498.829  11
  -1  -2  -8 2815.72 863.110  11
   1  -2   8 2676.08 530.887  16
  -1  -2  -9 2405.38 375.410  12
  -1  -2 -10 3613.49 388.475  12
  -1  -1  12 2479.44 162.556  13
   1  -1 -11 3939.93 397.735  12
   1  -1 -10 698.241 289.682  12
   1  -1  -9 1329.84 328.872  12
   1  -1  -9 465.694 515.776  11
  -1  -1   9 1199.32 204.090   2
  -1  -1   8 4507.57 347.132   2
   1  -1  -8 4887.45 479.201  12
  -1  -1   7 9445.22 565.432   2
   1  -1  -7 9733.79 1300.34  11
   1  -1  -7 9318.68 688.582  12
   1  -1  -6 46077.2 2397.64  12
   1  -1  -6 44960.7 3095.09  11
   1  -1  -5 24301.3 1909.69  11
   1  -1  -5 26428.3 1409.83  12
   1  -1  -4 12609.2 1098.58  11
   1  -1  -3 19313.8 1330.53  11
   1  -1  -2 3971.26 446.864  11
   1  -1  -1 86092.6 4323.03  11
  -1  -1   1 87930.6 4341.15   1
   1  -1   0 4667.07 342.791  10
   1  -1   1 154504. 7365.54  16
  -1  -1  -1 152392. 7313.61   5
   1  -1   2 34035.7 1772.83  16
   1  -1   3 2006.85 274.834  16
   1  -1   4 1078.62 264.634  16
  -1  -1  -4 1050.72 384.787  11
  -1  -1  -5 2418.40 565.010  11
   1  -1   5 1793.92 368.751  16
  -1  -1  -6 15811.7 1609.24  11
   1  -1   6 15595.3 1186.50  16
  -1  -1  -7 3706.15 909.037  11
   1  -1   7 4455.49 629.434  16
  -1  -1  -8 12833.8 1691.30  11
   1  -1   8 12821.0 1158.44  16
  -1  -1  -9 1226.22 331.488  12
  -1  -1 -10 1425.98 277.195  12
   1  -1  10 1456.24 162.320  13
  -1  -1 -11 177.773 155.702  12
   1   0 -11 954.416 243.868  12
   1   0 -10 1504.40 328.034  12
  -1   0  10 2125.76 241.466   2
   1   0  -9 3237.78 435.756  12
  -1   0   9 3153.18 298.982   2
   1   0  -8 8096.51 656.450  12
   1   0  -8 7669.77 1240.94  11
  -1   0   8 7778.18 507.116   2
  -1   0   7 7310.23 468.231   2
   1   0  -7 7521.02 1122.18  11
   1   0  -7 7300.70 591.007  12
   1   0  -6 1885.91 579.443  11
   1   0  -6 1119.50 239.384  12
   1   0  -5 2398.43 264.513  12
   1   0  -5 2382.83 548.501  11
   1   0  -4 23495.8 1690.67  11
   1   0  -3 4477.41 561.762  11
   1   0  -2 53083.0 2835.80  11
   1   0  -1 1389.40 216.016  11
   1   0   0 10410.0 623.233  10
  -1   0  -1 901.610 130.283   5
   1   0   3 43941.5 2315.61  16
   1   0   4 828.808 248.305  16
  -1   0  -4 950.123 406.068  11
   1   0   5 311.095 236.116  16
  -1   0  -5 347.021 356.640  11
  -1   0  -6 2828.47 760.753  11
   1   0   6 3040.32 517.724  16
   1   0   7 58.5579 345.089  16
  -1   0  -7-140.295 541.252  11
  -1   0  -8 1882.61 774.631  11
   1   0   8 2807.47 566.517  16
  -1   0  -9 514.858 272.609  12
   1   0  10 2236.10 211.789  13
  -1   0 -10 2778.51 362.508  12
   1   0  11 1390.29 124.491  13
  -1   0 -11 1285.21 217.964  12
  -1   1  12 4683.43 277.080  13
   1   1 -11 3292.27 353.182  12
   1   1 -10 705.820 283.009  12
   1   1  -9 1075.46 256.235   6
   1   1  -9 1087.53 309.226  12
  -1   1   9 1227.73 215.089   2
   1   1  -9 1510.07 691.517  11
   1   1  -8 3264.47 903.712  11
  -1   1   8 4006.70 331.539   2
   1   1  -8 4375.60 453.944  12
   1   1  -7 7075.73 571.822  12
  -1   1   7 7462.96 466.640   2
   1   1  -7 5877.97 1019.98  11
   1   1  -6 44441.7 3149.02  11
   1   1  -6 48078.6 2476.21  12
   1   1  -5 20814.6 1679.16  11
   1   1  -5 20867.7 1169.18  12
   1   1  -4 7302.99 831.631  11
   1   1  -3 21841.6 1457.40  11
   1   1  -2 4887.83 497.259  11
  -1   1   1 83621.0 4128.87   1
   1   1  -1 81468.2 4112.99  11
   1   1   0 3283.12 269.132  10
  -1   1   0 3118.78 234.343   5
  -1   1  -1 144337. 7038.12   5
   1   1   1 146701. 7009.52  16
   1   1   2 38152.0 2003.16  16
  -1   1  -2 40131.8 2054.69   5
   1   1   3 844.328 205.092  16
   1   1   4 679.572 237.958  16
  -1   1  -4 827.212 348.875  11
   1   1   5 3302.21 467.425  16
  -1   1  -5 3814.93 688.758  11
   1   1   6 12409.2 947.322  16
  -1   1  -6 6192.16 1051.09  11
   1   1   7 8803.60 863.704  16
  -1   1  -7 7889.22 1230.04  11
   1   1   8 12688.1 1162.45  16
  -1   1  -8 12987.6 1647.76  11
  -1   1  -9 499.045 269.046  12
   1   1  10 1901.75 202.743  13
  -1   1 -10 1773.04 307.623  12
   1   1  11 531.622 96.8095  13
  -1   1 -11 217.951 153.246  12
  -1   2  12 418.876 85.8135  13
   1   2 -11 1461.95 248.937  12
   1   2 -10 2185.98 291.665   6
   1   2 -10 1861.32 340.457  12
   1   2  -9 4133.57 1028.08  11
   1   2  -9 5051.47 520.229  12
  -1   2   9 5461.32 393.005   2
  -1   2   8 6312.82 431.584   2
   1   2  -8 7140.05 1193.23  11
   1   2  -8 6024.45 558.041  12
   1   2  -7 8075.80 1149.04  11
  -1   2   7 7462.22 481.633   2
   1   2  -7 8502.03 626.106  12
   1   2  -6 5197.47 442.812  12
   1   2  -6 3884.95 782.699  11
   1   2  -5 631.883 196.432  12
   1   2  -5 330.468 369.022  11
   1   2  -4 14468.2 1202.75  11
   1   2  -3 30582.3 1872.21  11
   1   2  -2 2905.61 355.432  11
  -1   2   1 52298.2 2685.28   1
   1   2  -1 51822.4 2668.27  11
   1   2   0 6716.57 440.945  10
   1   2   1 8373.45 496.313  16
   1   2   2 1212.36 187.194  16
  -1   2  -2 1188.35 237.884   5
   1   2   3 16067.6 985.780  16
  -1   2  -4 1390.74 437.139  11
   1   2   4 1302.81 279.112  16
   1   2   5 8356.61 734.363  16
  -1   2  -5 8545.16 1015.74  11
   1   2   6 6765.36 725.119  16
  -1   2  -6 8413.19 1110.21  11
   1   2   7-54.1013 309.587  16
  -1   2  -7 272.752 508.295  11
   1   2   8 1336.23 465.280  16
  -1   2  -8 2082.85 699.047  11
  -1   2  -9 2196.91 359.295  12
   1   2  10 2603.80 228.015  13
  -1   2 -10 1896.86 290.777  12
   1   2  11 1609.82 140.875  13
   1   3 -11 478.039 171.172  12
   1   3 -10 2388.83 309.812   6
   1   3 -10 2025.41 314.415  12
  -1   3   9 2176.46 229.302   2
  -1   3   9 1164.49 423.038  16
   1   3  -9 1476.59 312.278  12
   1   3  -9 1664.29 709.679  11
  -1   3   8 3635.54 305.964   2
   1   3  -8 4020.07 447.514  12
   1   3  -7 2680.95 760.827  11
  -1   3   7 2392.34 231.829   2
   1   3  -7 2329.35 348.962  12
   1   3  -6 13059.3 1423.91  11
  -1   3   6 13737.3 745.465   2
   1   3  -6 13687.4 871.662  12
   1   3  -5 53016.9 2679.38  12
   1   3  -5 50687.5 3286.57  11
   1   3  -4 11583.1 1057.86  11
   1   3  -4 12133.7 688.683   7
   1   3  -3 6432.45 646.350  11
   1   3  -2 1496.48 265.349  11
  -1   3   1 19546.1 1073.69   5
  -1   3   0 15878.4 921.191   1
  -1   3   0 15591.9 908.009   5
  -1   3  -1 23779.1 1402.05   5
   1   3   1 25508.4 1284.25  16
   1   3   2 2006.52 223.969  16
  -1   3  -3 13886.9 1095.85  11
   1   3   3 13501.8 861.518  16
  -1   3  -4 6028.72 776.721  11
   1   3   4 6045.90 544.155  16
  -1   3  -4 5769.71 366.603   7
  -1   3  -5 1357.96 171.593   7
  -1   3  -5 2018.56 595.855  11
   1   3   5 1223.21 322.868  16
  -1   3  -6 5521.20 996.156  11
   1   3   6 5063.58 605.969  16
   1   3   7 7718.12 785.077  16
  -1   3  -7 6262.93 1100.41  11
  -1   3  -8 7661.96 1259.47  11
  -1   3  -8 10464.4 743.907  12
   1   3   8 8495.18 892.139  16
   1   3   9 481.086 170.330  13
  -1   3  -9 626.253 244.790  12
  -1   3 -10 191.397 167.344  12
   1   3  10 159.642 131.958  13
   1   3  11 851.316 104.150  13
  -1   4  11 206.422 110.030  13
   1   4 -10 1786.84 279.924   6
   1   4  -9 2025.13 309.190  12
   1   4  -8 3235.25 849.565  11
  -1   4   8 4829.93 332.101   2
  -1   4   8 3610.68 580.749  16
   1   4  -8 3552.65 430.506  12
   1   4  -7 6144.61 1061.92  11
   1   4  -7 7362.01 589.385  12
  -1   4   7 7552.87 462.074   2
  -1   4   6 2465.31 211.731   2
   1   4  -6 2523.14 315.858  12
   1   4  -6 1808.74 582.315  11
   1   4  -5 217.312 162.691  12
   1   4  -5 335.821 344.998  11
   1   4  -4 22938.5 1228.18   7
   1   4  -4 23964.3 1665.93  11
   1   4  -3 23206.6 1502.48  11
   1   4  -3 23865.9 1238.37   7
   1   4  -2 24389.8 1393.71  11
  -1   4   2 23466.0 1311.27   5
  -1   4   1 7614.60 535.572   5
  -1   4   0 8356.24 597.196   5
  -1   4  -1 7147.97 586.767   5
  -1   4  -2 2998.70 425.885  11
   1   4   2 2751.33 246.181  16
  -1   4  -2 2504.66 197.329   7
  -1   4  -3 551.698 125.162   7
   1   4   3 620.412 178.151  16
  -1   4  -3 654.002 317.751  11
   1   4   4 7650.07 649.975  16
  -1   4  -4 8602.99 510.843   7
  -1   4  -4 8643.91 933.136  11
   1   4   5 7972.18 688.593  16
  -1   4  -5 7049.54 472.912   7
  -1   4  -5 6164.84 941.034  11
   1   4   6 6186.00 678.239  16
  -1   4  -6 6972.65 1034.86  11
   1   4   7 1377.68 406.069  16
  -1   4  -7 1640.99 656.967  11
  -1   4  -8-254.464 522.555  11
  -1   4  -8 123.147 219.438  12
  -1   4  -9 4529.45 420.758  12
   1   4  11 1944.73 139.173  13
  -1   5  10 669.580 144.178  13
   1   5 -10 577.433 207.174   6
   1   5  -9 1486.80 179.004  19
   1   5  -8 172.358 188.498  12
   1   5  -7 999.613 234.932  12
   1   5  -6 12268.0 1315.40  11
   1   5  -6 11268.1 737.378  12
   1   5  -5 16592.5 1445.53  11
   1   5  -4 20848.0 1148.67   7
   1   5  -4 18998.9 1454.49  11
  -1   5   4 22136.7 1237.86   5
   1   5  -3 2650.20 376.242  11
  -1   5   3 3727.31 343.118   5
  -1   5   2 172.300 136.005   5
   1   5  -2 214.497 119.803   7
   1   5  -1 17465.5 946.199   7
  -1   5   1 18725.7 1089.84   5
  -1   5   1 17743.1 909.565   8
   1   5   0 24377.5 1263.63   7
  -1   5   0 25940.6 1474.23   5
  -1   5  -1 9554.03 538.081   8
  -1   5  -1 10429.6 785.142   5
  -1   5  -2 6242.58 569.948  11
  -1   5  -2 5664.69 370.979   7
   1   5   3 565.838 160.569  16
  -1   5  -3 780.361 152.848   7
  -1   5  -3 490.596 294.051  11
   1   5   4 210.031 118.318  13
   1   5   4 209.906 169.835  16
   1   5   4 417.726 193.784  18
  -1   5  -4 375.104 153.042   7
  -1   5  -4 73.3198 342.789  11
  -1   5  -5 848.486 188.305   7
   1   5   5 1172.68 300.938  16
   1   5   5 714.047 164.139  13
  -1   5  -5 1094.15 455.882  11
  -1   5  -6 4012.74 805.986  11
   1   5   6 5190.58 597.538  16
   1   5   6 4588.83 354.041  13
  -1   5  -6 5152.93 397.080   7
   1   5   7 6673.81 454.197  13
  -1   5  -7 6693.14 534.506  12
   1   5   8 4443.59 343.339  13
   1   5   9 857.842 168.887  13
   1   5  10 839.918 122.400  13
   1   6 -10 1633.11 227.480   6
   1   6  -9 1857.82 181.791  19
  -1   6   9 1964.15 195.498  13
   1   6  -9 1617.69 288.084   6
   1   6  -8 1309.72 187.107  19
   1   6  -7 5799.51 419.057  19
   1   6  -6 547.611 183.672  19
   1   6  -5 2553.16 252.984  19
  -1   6   4 3331.83 322.166  18
   1   6  -4 3270.75 266.173  19
   1   6  -4 2663.69 306.932   7
  -1   6   3 22420.6 1137.52   8
   1   6  -3 22270.3 1146.98  19
  -1   6   3 21278.7 1284.78   5
  -1   6   3 21347.7 1189.43  18
   1   6  -2 14336.5 841.572   7
  -1   6   2 13345.0 944.576   5
  -1   6   2 15398.5 789.185   8
  -1   6   1 5130.26 327.077   8
   1   6  -1 4604.36 359.920   7
  -1   6   1 4609.79 481.861   5
   1   6   0 1379.75 184.576   7
  -1   6   0 1124.72 155.639   8
  -1   6   0 1259.88 161.755   7
  -1   6   0 1047.49 284.818   5
   1   6   1 2185.22 212.267   7
  -1   6  -1 2367.77 211.954   8
   1   6   2 3377.12 306.293  18
   1   6   2 3340.29 286.314  17
  -1   6  -2 3611.18 295.068   7
   1   6   3 9162.07 599.019  18
  -1   6  -3 9170.94 571.635   7
   1   6   3 8882.26 499.424  13
   1   6   4 3717.70 272.822  13
   1   6   4 3374.00 367.769  18
  -1   6  -4 3765.81 337.336   7
  -1   6  -5 11606.3 732.847   7
   1   6   5 11528.2 659.964  13
   1   6   6 4355.13 334.063  13
  -1   6  -6 4287.02 387.689   7
   1   6   7 1618.86 219.770  13
   1   6   8 4400.61 322.347  13
   1   6   9-39.7331 110.264  13
  -1   6  -9-121.649 104.170  18
   1   6  10 4153.89 245.438  13
   1   7 -10 825.219 124.100  18
   1   7  -8 1120.71 160.714  19
   1   7  -8 1134.16 282.925   6
   1   7  -7 6308.62 430.436  19
   1   7  -6 6440.89 451.764  19
  -1   7   5 3764.61 294.132   8
   1   7  -5 3364.97 309.353  19
  -1   7   4 2687.64 250.405   8
  -1   7   4 2655.23 326.698  18
   1   7  -4 2780.22 337.207   7
   1   7  -4 2473.30 252.127  19
   1   7  -3 961.784 170.804  19
  -1   7   3 1448.50 188.650   8
  -1   7   3 1557.66 192.379   7
   1   7  -3 1182.03 238.585   7
  -1   7   3 1496.57 233.692  18
  -1   7   2 3644.27 336.648  18
  -1   7   2 4215.08 323.600   7
   1   7  -2 4169.41 366.225   7
   1   7  -2 4005.70 306.041  19
  -1   7   2 4006.16 340.769  17
   1   7  -2 3628.41 331.947   6
  -1   7   2 4194.31 309.130   8
  -1   7   1 8051.67 511.079  17
   1   7  -1 7532.88 485.194  19
  -1   7   1 8210.47 507.331   7
  -1   7   1 7563.53 512.951  18
   1   7  -1 7408.14 525.611   7
  -1   7   1 7573.45 482.749   8
   1   7   0 6820.89 452.658  17
   1   7   0 5884.27 442.788   7
  -1   7   0 6117.17 420.277   8
  -1   7   0 6583.23 452.010  18
   1   7   0 6367.96 450.348  18
  -1   7   0 6304.74 443.226   7
   1   7   1 8788.71 562.006  17
   1   7   1 8208.28 558.496  18
  -1   7  -1 9109.35 560.118   7
   1   7   1 8294.17 528.251   7
  -1   7  -1 8367.65 548.495  18
  -1   7  -2 3920.66 346.335   7
   1   7   2 3905.89 351.293  18
   1   7   2 3695.76 339.661  17
  -1   7  -2 4299.20 338.903  18
  -1   7  -3 304.197 168.273  18
   1   7   3 263.031 173.145  18
   1   7   3 331.472 114.362  13
  -1   7  -3 338.404 171.994   7
   1   7   3 239.919 185.994  17
   1   7   4 1720.54 187.058  13
  -1   7  -4 1916.39 279.417   7
   1   7   4 1255.15 283.022  18
   1   7   5 1137.45 180.074  13
  -1   7  -5 619.122 227.913   7
   1   7   6 5999.95 405.654  13
   1   7   7 5639.66 375.761  13
   1   7   8 1934.83 191.771  13
  -1   7  -8 2282.77 229.107  18
   1   8  -9 1167.70 149.994  18
   1   8  -9 845.347 181.942   6
   1   8  -8 2259.63 247.125  18
   1   8  -8 1818.42 289.375   6
   1   8  -7 1210.88 167.364  19
   1   8  -7 924.887 269.908   6
   1   8  -6 73.6691 148.834  19
   1   8  -6 81.1252 246.906   6
   1   8  -5 407.657 249.628   6
   1   8  -5 589.610 171.874  19
   1   8  -5 631.995 241.703  18
  -1   8   5 618.729 168.832   8
  -1   8   4 7842.67 525.191   8
   1   8  -4 8660.44 594.917  18
  -1   8   4 8163.10 606.900  18
   1   8  -4 8044.99 522.280  19
   1   8  -4 8409.14 638.360   6
   1   8  -3 4870.03 368.234  19
  -1   8   3 5638.77 398.073   8
  -1   8   3 5023.17 380.265   7
   1   8  -3 5074.26 471.564   7
   1   8  -3 4750.80 424.560   6
  -1   8   3 4686.85 426.339  18
   1   8  -3 4769.56 414.862  18
   1   8  -2 2424.38 253.607  19
  -1   8   2 2142.87 264.960   7
  -1   8   2 2004.24 279.484  18
  -1   8   2 2362.86 259.540   8
   1   8  -2 2348.44 332.449   7
  -1   8   1 5199.21 416.394  17
  -1   8   1 5420.39 397.693   8
  -1   8   1 4899.80 415.195  18
  -1   8   1 4266.00 398.420   7
   1   8  -1 5869.35 458.954   7
  -1   8   0 3221.52 332.524   7
   1   8   0 2828.32 319.502   7
   1   8   0 3592.75 337.194  17
  -1   8   0 3389.76 328.953  18
   1   8   1 7527.46 545.881  18
  -1   8  -1 7232.23 526.560   7
   1   8   1 6695.38 484.683   7
   1   8   1 7219.77 527.791  17
  -1   8  -1 7969.16 526.700  18
   1   8   2 3967.30 382.572  18
  -1   8  -2 3843.05 354.603  18
   1   8   2 3898.87 385.741  17
  -1   8  -3 8854.74 622.108   7
   1   8   3 8228.29 617.264  17
   1   8   3 9454.23 647.890  18
  -1   8  -3 8849.75 587.676  18
   1   8   4 10172.2 731.016  18
  -1   8  -4 11166.5 681.344  18
  -1   8  -4 9720.82 701.049   7
  -1   8  -5 3512.33 384.291   7
  -1   8  -5 4088.66 377.240  18
  -1   8  -6 4982.98 409.757  18
  -1   8  -7 742.719 172.255  18
   1   9  -9 69.6411 61.2684  18
   1   9  -8 715.589 135.048  18
   1   9  -8 469.477 148.529   6
   1   9  -7 517.698 183.438  18
   1   9  -7 769.406 220.950   6
   1   9  -6 2893.04 326.912  18
   1   9  -6 2552.61 339.639   6
   1   9  -6 2715.60 242.783  19
   1   9  -5 2446.93 343.913   6
   1   9  -5 2786.24 272.145  19
   1   9  -4 64.5126 149.387  19
  -1   9   4-90.1881 173.188   8
   1   9  -4 184.313 206.944  18
  -1   9   4 538.367 269.099  18
  -1   9   3 270.234 181.707   8
  -1   9   3 324.963 215.416  18
   1   9  -3 534.820 211.769  18
   1   9  -2 4367.37 413.946  18
  -1   9   2 4576.09 392.541   7
   1   9  -2 4287.14 442.352   7
  -1   9   2 4637.78 429.961  18
   1   9  -2 4789.50 392.159  17
  -1   9   1 387.371 219.384   7
   1   9  -1 418.319 201.446  17
   1   9  -1 109.588 217.659   7
  -1   9   1 228.538 208.435  18
  -1   9   0 12556.8 793.225  18
   1   9   0 12898.0 789.614  17
  -1   9   0 12773.6 791.982   7
   1   9   0 10899.5 760.431   7
  -1   9  -1 12287.4 790.042   7
   1   9   1 12626.1 797.464  17
   1   9   1 12041.7 809.917  18
  -1   9  -1 12235.3 779.591  18
  -1   9  -2 1025.07 221.649  18
   1   9   2 879.096 254.365  17
   1   9   2 978.402 247.398  18
  -1   9  -3 185.640 178.080  18
   1   9   3 66.1262 208.443  18
  -1   9  -3 251.428 230.659   7
  -1   9  -4 472.401 203.653  18
  -1   9  -4 493.162 234.491   7
  -1   9  -5 5848.04 435.784  18
  -1   9  -5 4634.08 425.687   7
  -1   9  -6 1910.56 241.877  18
  -1   9  -7 3705.57 264.613  18
   1  10  -8 1026.14 104.706  18
   1  10  -7 855.748 144.437  18
   1  10  -6 95.5685 153.327  18
   1  10  -5 34.5951 138.854  17
   1  10  -5 180.869 192.449  18
   1  10  -4 2515.58 306.853  18
   1  10  -4 2623.30 270.485  17
   1  10  -3 6126.53 449.195  17
   1  10  -3 5463.65 468.073  18
  -1  10   3 6339.54 522.589  18
  -1  10   2 835.305 271.294  18
   1  10  -2 694.655 229.304  18
   1  10  -2 720.013 204.003  17
   1  10  -1 9037.00 624.295  17
  -1  10   1 9628.69 659.463   7
  -1  10   1 9812.67 670.147  18
  -1  10   0 272.528 225.911   7
   1  10   0-91.7018 189.900  17
  -1  10   0 137.615 204.490  18
  -1  10  -1 2077.82 289.462  18
   1  10   1 2636.37 316.300  17
  -1  10  -1 2037.34 331.792   7
  -1  10  -2 2969.26 319.916  18
   1  10   2 2757.55 367.771  18
  -1  10  -2 3199.24 375.135   7
   1  10   3 5024.47 462.859  18
  -1  10  -3 4382.92 388.189  18
  -1  10  -4 3631.38 377.139   7
  -1  10  -4 4206.36 358.545  18
  -1  10  -5 2018.22 238.116  18
  -1  10  -6 684.205 131.075  18
   1  11  -6 1791.93 180.222  18
   1  11  -5 3065.13 284.259  18
   1  11  -4 328.426 178.632  18
   1  11  -4 374.211 136.898  17
   1  11  -3 675.596 198.714  18
   1  11  -3 333.431 148.667  17
   1  11  -2 952.588 190.417  17
  -1  11   2 1148.54 245.277  18
   1  11  -2 1090.69 231.828  18
   1  11  -1 595.271 230.317  18
   1  11  -1 289.522 165.052  17
  -1  11   1 525.745 206.089  18
  -1  11   0 4228.63 410.561   7
   1  11   0 4062.72 360.117  17
  -1  11   0 4527.62 381.972  18
  -1  11  -1 4230.31 360.698  18
  -1  11  -1 3717.67 398.539   7
  -1  11  -2 901.010 230.661   7
  -1  11  -2 916.685 207.941  18
   1  11   2 863.559 254.284  18
  -1  11  -3 493.775 171.703  18
  -1  11  -4 68.3185 136.145  18
  -1  11  -5 240.705 87.9270  18
   1  12  -5 82.3171 72.2982  18
   1  12  -4 794.332 146.866  18
   1  12  -3 2050.27 224.851  18
   1  12  -2 2663.40 261.394  18
  -1  12   1 427.028 159.441  18
   1  12  -1 479.011 164.808  18
  -1  12   0 1778.09 209.850  18
  -1  12  -1 277.163 139.872  18
  -1  12  -2 358.161 132.567  18
  -1  12  -3 547.035 116.415  18
   1  13  -1 67.8777 89.5820  18
   2  -9   3 2136.33 183.375   3
   2  -9   4 5282.50 334.499   3
   2  -9   5 2907.48 228.545   3
   2  -9   6 890.980 132.291   3
   2  -9   7 1027.48 106.797   3
   2  -8   2 13087.1 700.381   3
   2  -8   3 1492.88 182.221   3
   2  -8   4 1451.80 202.914   3
   2  -8   5 384.002 173.921   3
   2  -8   6 1221.32 193.126   3
   2  -8   7 1986.25 191.381   3
   2  -8   8 1689.38 141.316   3
   2  -7   2 147.895 123.773   3
   2  -7   3 2665.68 238.427   3
   2  -7   6 6299.13 431.737   3
   2  -7   7 2369.16 240.022   3
   2  -7   8-6.41865 110.743   3
   2  -6   9 1685.77 155.731   3
   2  -5   8 832.728 168.077   3
   2  -5   9 2729.50 212.645   3
   2  -4 -10 4278.49 391.307  12
  -2  -4   9 262.442 146.562   2
   2  -4  -9 399.882 247.267  12
   2  -4  -8 518.934 483.590  11
   2  -4  -8 101.341 208.235  12
  -2  -4   8 146.561 132.104   2
  -2  -4   7 610.816 151.404   2
   2  -4  -7 490.816 489.623  11
   2  -4  -7 435.125 236.179  12
   2  -4  -6 16474.0 975.778  12
  -2  -4   6 16071.7 860.529   2
   2  -4  -5 2882.09 610.709  11
   2  -4  -5 3905.92 345.729  12
   2  -4  -4 32234.2 1668.43  12
   2  -4  -4 32786.9 2137.68  11
   2  -4  -2 4716.38 461.776  10
   2  -4  -1 8221.71 607.483  10
  -2  -4   0 34115.7 1969.06   1
   2  -4   3 12025.8 823.068  16
   2  -4   4 3504.33 439.022  16
  -2  -4  -4 2503.18 565.467  11
   2  -4   5 1620.26 379.683  16
  -2  -4  -5 3422.98 708.422  11
   2  -4   6 2831.94 513.969  16
  -2  -4  -6 1646.16 672.265  11
   2  -4   7 18891.3 1370.22  16
  -2  -4  -7 15656.3 1750.43  11
  -2  -4  -8 1565.54 288.357  12
  -2  -4  -9 2669.92 314.007  12
   2  -4   9 3499.80 251.797   3
   2  -3 -11 256.920 170.197  12
  -2  -3  10 3539.48 276.855   2
   2  -3 -10 2318.98 368.396  12
   2  -3  -9 4731.59 502.187  12
  -2  -3   9 4952.12 368.077   2
   2  -3  -9 4374.57 1042.54  11
   2  -3  -8 2693.46 817.624  11
  -2  -3   8 3899.14 312.624   2
   2  -3  -8 3412.70 428.888  12
  -2  -3   7 5374.59 370.692   2
   2  -3  -7 4743.88 465.047  12
   2  -3  -6 3255.19 706.083  11
   2  -3  -6 3744.89 369.388  12
  -2  -3   6 3291.51 274.523   2
   2  -3  -5 701.711 202.337  12
   2  -3  -5 640.516 383.877  11
   2  -3  -4 7400.53 787.368  11
   2  -3  -4 6611.43 447.198  12
   2  -3  -3 4792.81 587.060  11
  -2  -3   1 18283.5 1158.42   1
   2  -3  -1 15426.3 1032.08  10
  -2  -3   0 3496.80 430.569   1
   2  -3   2 5996.48 484.733  16
   2  -3   3 10362.6 752.330  16
   2  -3   4 3003.95 419.951  16
   2  -3   5 8381.81 781.196  16
  -2  -3  -5 10273.4 1219.56  11
  -2  -3  -6 4664.06 979.551  11
   2  -3   6 9380.89 820.744  16
   2  -3   7 2102.23 484.509  16
  -2  -3  -7 3431.21 918.850  11
  -2  -3  -9 2515.05 324.342  12
   2  -3   9 2462.05 214.462   3
   2  -2 -11 6058.92 500.811  12
   2  -2 -10 8366.24 684.580  12
  -2  -2  10 9093.00 547.687   2
   2  -2  -9 1529.80 684.074  11
   2  -2  -9 1190.93 299.536  12
  -2  -2   9 1256.10 211.315   2
   2  -2  -8 1003.89 671.655  11
   2  -2  -8 392.802 263.294  12
  -2  -2   8 1311.40 202.774   2
   2  -2  -7 3706.98 853.052  11
  -2  -2   7 3627.07 309.921   2
   2  -2  -7 3871.00 421.685  12
   2  -2  -6 6251.69 949.583  11
   2  -2  -6 6109.84 497.897  12
   2  -2  -5 17177.5 1531.58  11
   2  -2  -5 20091.1 1098.90  12
   2  -2  -4 12057.0 702.192  12
   2  -2  -4 11643.4 1073.61  11
   2  -2  -3 8580.99 802.208  11
   2  -2  -2 12565.5 946.070  11
   2  -2  -1 23752.2 1390.50  10
  -2  -2   1 22479.3 1445.12   1
  -2  -2  -1 21351.2 1077.63   5
   2  -2   2 20654.1 1206.63  16
   2  -2   3 16472.5 1056.85  16
   2  -2   4 211.318 216.498  16
   2  -2   5 866.801 305.493  16
  -2  -2  -5 1168.25 520.199  11
   2  -2   6 6701.19 744.813  16
  -2  -2  -6 5237.27 1044.51  11
   2  -2   7 18947.7 1423.57  16
  -2  -2  -7 19279.4 2080.28  11
  -2  -2  -8 4169.32 1056.93  11
  -2  -2  -9 3252.47 397.913  12
  -2  -2 -10 1249.64 233.329  12
   2  -1 -11 1976.64 319.784  12
  -2  -1  10 1094.71 207.403   2
   2  -1 -10 1121.59 307.878  12
  -2  -1   9 4969.21 384.385   2
   2  -1  -9 4641.22 502.560  12
  -2  -1   8 3369.22 309.217   2
   2  -1  -8 2689.17 860.453  11
   2  -1  -8 3358.78 429.650  12
   2  -1  -7 6026.15 516.333  12
  -2  -1   7 5875.82 414.800   2
   2  -1  -7 4806.22 943.682  11
   2  -1  -6 8409.59 1108.39  11
   2  -1  -6 8614.06 621.623  12
   2  -1  -6 8520.83 539.134   6
   2  -1  -5 4930.45 745.363  11
   2  -1  -5 4467.15 381.717  12
   2  -1  -4 10881.5 1040.78  11
   2  -1  -4 11046.3 660.920  12
   2  -1  -3 22820.6 1552.35  11
   2  -1  -2 59757.6 3264.33  11
  -2  -1   2 61235.9 3329.51   1
  -2  -1   1 35795.7 1997.25   1
   2  -1  -1 32860.0 1908.44  10
   2  -1   0 26270.0 1520.51  10
   2  -1   1 4845.67 385.743  16
  -2  -1  -1 4477.11 321.490   5
   2  -1   2 9762.40 668.772  16
   2  -1   3 1577.70 291.354  16
   2  -1   4 31841.2 1863.06  16
   2  -1   5 4660.26 570.799  16
  -2  -1  -5 4032.11 758.058  11
   2  -1   6 4495.99 624.023  16
  -2  -1  -6 5585.49 1027.45  11
  -2  -1  -7 300.050 634.443  11
   2  -1   7 542.182 370.620  16
   2  -1   8 2884.70 245.995  13
   2  -1   8 2678.70 531.878  16
  -2  -1  -8 2478.28 883.114  11
   2  -1   9 1307.00 159.130  13
  -2  -1  -9 1698.07 330.863  12
  -2  -1 -10 1312.42 242.476  12
   2   0 -11 5301.54 472.262  12
   2   0 -10 9759.27 779.088  12
  -2   0  10 11678.1 666.131   2
   2   0  -9 4494.87 1002.78  11
  -2   0   9 4860.57 377.846   2
   2   0  -9 4146.86 481.028  12
   2   0  -8-421.540 577.139  11
   2   0  -8 192.922 226.475  12
   2   0  -8 76.7510 168.924   6
  -2   0   8 253.929 177.230   2
  -2   0   7 4098.70 340.447   2
   2   0  -7 4658.45 456.414  12
   2   0  -7 4501.09 382.170   6
   2   0  -6 1247.99 544.881  11
   2   0  -6 1873.07 287.021  12
   2   0  -6 1809.23 232.416   6
   2   0  -5 18916.4 1033.40   6
   2   0  -5 18782.5 1079.41  12
   2   0  -5 19442.4 1619.73  11
   2   0  -4 38135.1 1918.83  12
   2   0  -4 33822.9 2354.37  11
   2   0  -3 51763.9 2977.43  11
   2   0  -2 2935.75 410.091  11
  -2   0   2 2669.09 413.303   1
   2   0  -1 5261.83 513.521  10
   2   0   0 1618.74 279.483  10
   2   0   1 8005.86 581.973  16
  -2   0  -1 10267.8 587.947   5
   2   0   2 34697.9 1903.93  16
  -2   0  -2 36677.9 1904.66   5
   2   0   3 648.444 222.432  16
   2   0   4 3091.16 415.981  16
   2   0   5 2214.88 424.461  16
  -2   0  -5 2548.54 704.656  11
   2   0   6 16328.2 1293.69  16
  -2   0  -6 19743.5 1868.73  11
   2   0   7 13801.0 1208.32  16
  -2   0  -7 15797.5 1826.33  11
   2   0   8 6275.10 810.630  16
   2   0   8 6034.94 407.381  13
  -2   0  -8 6126.48 1174.95  11
   2   0   9 5257.26 347.359  13
   2   0  10 994.055 119.159  13
  -2   0 -10 691.235 221.742  12
   2   1 -11 1750.00 298.094  12
  -2   1  10 581.838 190.317   2
   2   1 -10 491.543 269.183  12
   2   1  -9 4931.34 1040.92  11
  -2   1   9 6452.22 447.558   2
   2   1  -9 5762.90 565.023  12
   2   1  -9 6376.94 520.198   6
  -2   1   8 5397.58 413.998   2
   2   1  -8 5912.69 547.166  12
   2   1  -8 6463.30 503.665   6
   2   1  -7 2375.37 712.177  11
   2   1  -7 3621.82 386.397  12
  -2   1   7 3425.20 297.380   2
   2   1  -7 3502.29 365.181   6
   2   1  -6 9792.01 677.935  12
   2   1  -6 10037.1 1205.70  11
   2   1  -5 5153.18 786.669  11
   2   1  -5 5690.79 428.928  12
   2   1  -4 12715.2 745.808  12
   2   1  -4 12663.1 729.101   6
   2   1  -4 14510.6 1195.32  11
   2   1  -3 17555.8 1285.15  11
  -2   1   2 51468.7 3087.93   1
   2   1  -2 61253.9 3109.24  11
   2   1  -1 29097.3 1675.06  10
  -2   1   1 28983.0 1736.92   1
   2   1   0 34153.9 1804.78  10
  -2   1   0 30687.3 1662.98   5
   2   1   1 3403.61 315.832  16
  -2   1  -1 3203.35 304.446   5
  -2   1  -2 10429.2 715.859   5
   2   1   2 9999.18 683.634  16
   2   1   3 4451.35 451.246  16
   2   1   4 29123.0 1736.93  16
   2   1   5 11953.1 982.791  16
  -2   1  -5 13464.8 1374.99  11
   2   1   6 3816.72 570.828  16
  -2   1  -6 3947.39 879.459  11
  -2   1  -7 147.357 549.533  11
   2   1   7 480.561 333.674  16
   2   1   8 2724.94 555.447  16
   2   1   8 3239.40 282.893  13
  -2   1  -8 1828.37 857.424  11
   2   1   9 1952.19 213.998  13
  -2   1  -9 2410.09 341.745  12
   2   1  10 1527.56 148.546  13
  -2   1 -10 1057.38 226.212  12
   2   2 -11 7780.10 574.141  12
   2   2 -10 9404.98 743.677  12
   2   2 -10 10338.0 694.064   6
  -2   2  10 10865.4 625.648   2
   2   2  -9 2026.05 365.543  12
   2   2  -9 2975.90 872.269  11
  -2   2   9 2597.66 269.296   2
   2   2  -9 2636.74 353.306   6
   2   2  -8 646.432 269.555  12
   2   2  -8 990.676 255.065   6
  -2   2   8 802.936 179.215   2
   2   2  -7 2542.57 740.716  11
   2   2  -7 2977.87 364.916  12
  -2   2   7 2965.96 270.129   2
   2   2  -6 4603.05 835.236  11
  -2   2   6 4972.26 345.287   2
   2   2  -6 3745.64 410.405  12
   2   2  -5 20188.2 1085.36  12
   2   2  -5 14816.6 1471.58  11
   2   2  -4 15267.9 858.264  12
   2   2  -4 14926.2 1236.28  11
   2   2  -3 7447.66 741.165  11
   2   2  -2 10636.9 842.399  11
  -2   2   1 19755.8 1259.59   1
   2   2  -1 18284.7 1163.13  10
  -2   2   0 20536.5 1162.27   5
  -2   2  -1 25933.1 1453.58   5
   2   2   2 15478.6 956.698  16
  -2   2  -2 16024.7 1033.41   5
   2   2   3 13340.8 906.596  16
   2   2   4 722.476 256.737  16
   2   2   5 1557.80 368.862  16
  -2   2  -5 2025.72 618.839  11
   2   2   6 5454.33 665.096  16
  -2   2  -6 7382.22 1135.74  11
   2   2   7 21694.5 1166.48  13
   2   2   7 24474.7 1623.26  16
  -2   2  -7 22325.1 2142.48  11
   2   2   8 5216.97 376.399  13
  -2   2  -8 5008.66 1047.44  11
   2   2   9 4566.27 325.135  13
  -2   2  -9 4735.54 451.673  12
  -2   2 -10 765.760 200.588  12
   2   2  10 1054.17 134.889  13
  -2   3  12 1110.35 109.103  13
   2   3 -11 180.198 172.238  12
   2   3 -11 244.504 137.263   6
  -2   3  10 2277.35 230.504   2
   2   3 -10 1793.46 319.551  12
   2   3 -10 2230.52 311.357   6
  -2   3   9 9401.48 553.362   2
   2   3  -9 7667.69 663.672  12
   2   3  -9 8894.14 667.843   6
   2   3  -8 5294.13 1076.97  11
   2   3  -8 4364.48 485.747  12
   2   3  -8 4616.25 456.424   6
  -2   3   8 4173.65 338.105   2
  -2   3   7 4688.25 355.763   2
   2   3  -7 5308.78 492.858  12
   2   3  -7 4115.06 907.330  11
  -2   3   6 3819.70 299.032   2
   2   3  -6 3633.57 376.518  12
   2   3  -5 1225.25 463.499  11
   2   3  -5 1136.91 207.418  12
   2   3  -4 8197.84 525.007  12
   2   3  -4 8412.58 878.999  11
   2   3  -3 2687.43 456.202  11
  -2   3   1 20151.4 1358.82   1
   2   3  -1 20624.7 1267.14  10
  -2   3   1 22488.5 1241.87   5
  -2   3  -1 22472.2 1336.27   5
  -2   3  -2 3761.97 482.681   5
   2   3   2 7541.80 503.121  16
  -2   3  -3 10015.3 554.290   7
   2   3   3 10165.6 742.352  16
   2   3   4 1062.33 290.569  16
  -2   3  -4 1514.13 161.353   7
   2   3   5 15252.8 1108.34  16
   2   3   5 14399.5 796.589  13
  -2   3  -5 16154.3 1526.72  11
   2   3   6 10135.8 922.286  16
   2   3   6 9770.28 586.225  13
  -2   3  -6 10372.8 1298.63  11
   2   3   7 2443.53 501.415  16
   2   3   7 2835.50 268.945  13
   2   3   8 205.946 163.172  13
   2   3   9 1862.67 207.292  13
  -2   3  -9 1637.90 268.361  12
   2   3  10 1218.49 134.324  13
   2   4 -11 5203.99 392.035   6
   2   4 -11 5598.02 333.694  19
   2   4 -10 5586.56 479.872   6
   2   4  -9 971.874 260.618  12
  -2   4   9 1110.33 190.228   2
   2   4  -9 868.912 264.035   6
   2   4  -8-134.381 443.964  11
   2   4  -8-217.559 254.122   6
   2   4  -8-26.2138 243.559  12
  -2   4   8 144.177 147.809   2
   2   4  -7 621.084 230.031  12
  -2   4   7 291.418 135.201   2
  -2   4   6 14891.6 823.163   2
   2   4  -6 15525.4 937.100  12
   2   4  -6 15261.8 1519.56  11
   2   4  -5 5106.22 796.509  11
   2   4  -5 6730.82 481.969  12
   2   4  -4 32880.9 1676.77  12
   2   4  -4 30072.1 2099.40  11
   2   4  -3 12158.6 736.272   6
   2   4  -2 6200.95 562.744  10
   2   4  -2 6415.75 427.802   6
  -2   4   2 6381.99 536.443   5
   2   4  -1 10561.2 732.985  10
  -2   4   1 10087.4 831.234   1
  -2   4   1 10475.4 742.254   5
  -2   4   0 33646.0 1919.62   1
  -2   4   0 31144.3 1566.91   8
  -2   4   0 34419.2 1821.56   5
  -2   4  -1 22650.4 1139.51   8
  -2   4  -2 16463.0 860.033   8
   2   4   3 9369.17 698.783  16
  -2   4  -3 9447.06 543.813   7
   2   4   4 2742.47 411.663  16
   2   4   4 2713.06 236.343  13
  -2   4  -4 2785.97 247.764   7
  -2   4  -4 2842.71 625.752  11
  -2   4  -5 1522.19 203.167   7
   2   4   5 1737.43 376.655  16
   2   4   5 1697.59 214.261  13
  -2   4  -5 1879.45 565.425  11
   2   4   6 3892.19 573.070  16
  -2   4  -6 4997.06 913.959  11
   2   4   7 18873.3 1376.59  16
  -2   4  -7 17387.6 1847.48  11
   2   4   8 4522.84 340.043  13
  -2   4  -8 4190.08 421.047  12
   2   4   9 2494.15 221.168  13
   2   4  10 1022.55 114.434  13
   2   5 -11 90.0047 64.3187  19
   2   5 -10 3102.48 241.101  19
   2   5 -10 2411.85 309.721   6
   2   5  -9 6052.86 542.684   6
  -2   5   8 6711.86 422.399   2
   2   5  -8 6697.85 535.833  12
   2   5  -8 7056.40 599.166   6
  -2   5   7 893.265 156.119   2
   2   5  -7 514.580 214.517  12
   2   5  -6 4308.31 792.607  11
   2   5  -6 4235.37 391.961  12
   2   5  -5 78.3232 281.327  11
  -2   5   4 8137.08 676.380   5
   2   5  -3 13939.7 1036.02  10
   2   5  -3 15350.1 903.389   6
  -2   5   3 17395.3 1059.45   5
   2   5  -2 35807.9 1949.97  10
   2   5  -2 35056.8 1835.97   6
  -2   5   2 37484.6 2027.63   5
   2   5  -1 36631.3 1839.19   6
  -2   5   1 35425.1 2050.14   5
  -2   5   0 14329.9 764.113   8
  -2   5   0 15338.3 1046.13   5
  -2   5   0 14265.6 995.224   1
  -2   5  -1 9342.46 533.741   8
  -2   5  -1 9819.44 808.517   1
  -2   5  -1 9551.03 816.539   5
  -2   5  -2 3414.62 272.068   7
   2   5   3 2807.34 275.249  17
  -2   5  -3 2852.43 255.772   7
   2   5   3 2998.18 289.633  18
   2   5   3 2915.64 223.407  13
  -2   5  -3 2760.47 537.381  11
  -2   5  -4 4559.00 366.488   7
   2   5   4 5250.10 343.650  13
  -2   5  -4 4381.62 749.231  11
   2   5   5 11077.0 648.025  13
  -2   5  -5 11356.0 685.835   7
  -2   5  -5 9462.03 1198.51  11
   2   5   6 12015.6 703.608  13
   2   5   7 3492.41 311.562  13
   2   5   8 723.640 171.551  13
   2   6 -10 1566.10 242.486   6
   2   6 -10 1452.94 151.231  19
   2   6  -9 670.283 150.889  19
   2   6  -9 508.814 244.533   6
   2   6  -8 2326.03 265.366  19
   2   6  -7 4086.17 493.865   6
   2   6  -7 4584.77 383.915  19
   2   6  -6 943.895 302.723   6
   2   6  -6 1058.36 212.835  19
   2   6  -5 16755.9 1085.69   6
   2   6  -5 17993.7 986.486  19
  -2   6   4 10843.4 711.442  18
   2   6  -4 12432.3 776.150   6
  -2   6   4 11415.3 889.875   5
   2   6  -4 11334.6 672.026  19
  -2   6   3 1777.86 226.988  18
  -2   6   3 1454.27 333.692   5
   2   6  -3 1855.09 258.518   6
   2   6  -3 2134.46 219.986  19
   2   6  -2 1563.63 194.300  19
  -2   6   2 1598.90 188.118   8
   2   6  -2 1500.58 203.882  18
  -2   6   2 1492.48 330.959   5
   2   6  -2 1239.02 194.577   6
   2   6  -1 2573.79 242.358   6
  -2   6   1 3147.12 438.410   5
   2   6  -1 2513.22 237.124  19
  -2   6   0 10946.4 602.016   8
  -2   6   0 8526.84 834.914   5
   2   6   1 19021.4 1027.70  18
  -2   6  -1 18217.8 989.254   8
   2   6   1 18738.1 1021.30  17
  -2   6  -1 18317.6 1352.94   5
   2   6   2 7291.91 502.288  17
  -2   6  -2 7008.35 480.046   7
   2   6   2 7406.35 427.885  13
   2   6   2 7607.14 508.010  18
   2   6   3 8613.88 605.546  17
   2   6   3 9497.32 625.757  18
   2   6   3 9361.96 536.877  13
  -2   6  -3 9768.98 595.235   7
   2   6   4 2298.81 233.687  13
  -2   6  -4 2481.08 266.161   7
   2   6   5 2245.13 252.711  13
  -2   6  -5 2321.65 279.000   7
   2   6   6 4907.27 359.739  13
  -2   6  -6 3881.36 368.432   7
   2   6   7 870.679 192.258  13
   2   6   8 5731.61 369.444  13
   2   6   9 1158.83 129.082  13
   2   7 -10 810.147 135.774  18
   2   7  -9 4702.02 307.209  19
   2   7  -8 3860.31 430.275   6
   2   7  -8 4282.15 327.916  19
   2   7  -7 1570.28 238.846  19
   2   7  -7 1902.93 344.024   6
  -2   7   6 3086.09 288.227   8
   2   7  -6 2604.29 308.479  19
   2   7  -6 2929.40 411.950   6
  -2   7   5 3218.43 313.552   8
   2   7  -5 3346.40 420.623   6
   2   7  -5 4105.10 346.396  19
  -2   7   4 4224.87 345.635   8
   2   7  -4 4063.60 412.557   6
  -2   7   4 3812.21 388.280  18
   2   7  -4 3951.46 331.157  19
   2   7  -3 13352.2 790.619  18
  -2   7   3 12105.1 782.626  18
  -2   7   3 13485.0 750.448   8
  -2   7   3 12691.0 1006.65   5
   2   7  -3 12884.0 809.772   6
   2   7  -3 12730.9 753.042  19
  -2   7   2 10016.3 895.596   5
  -2   7   2 11476.9 643.287   8
   2   7  -2 11597.2 681.207  18
  -2   7   2 9637.27 661.166  18
   2   7  -2 10761.1 671.977   6
   2   7  -2 10548.0 647.242  19
   2   7  -1 10371.5 640.165  18
  -2   7   1 9792.55 632.787  18
  -2   7   1 10320.6 906.306   5
   2   7  -1 10203.2 622.784  19
  -2   7   0 13019.8 745.142  18
  -2   7   0 12398.9 1071.81   5
  -2   7   0 11496.2 714.193   8
   2   7   0 12165.8 746.290  18
  -2   7   0 12993.8 738.529   7
  -2   7  -1 1592.65 215.139  18
   2   7   1 1790.82 244.270  18
   2   7   1 1475.78 165.485  13
  -2   7  -1 1730.33 234.194   7
   2   7   2 287.889 181.509  17
  -2   7  -2 455.152 154.624  18
   2   7   2 287.231 123.008  13
  -2   7  -2 300.491 169.315   7
   2   7   2 212.932 181.729  18
   2   7   3 568.376 228.974  18
   2   7   3 889.643 224.495  17
  -2   7  -3 529.645 171.243  18
   2   7   3 757.670 160.397  13
  -2   7  -3 560.952 206.202   7
   2   7   4 11065.3 636.877  13
  -2   7  -4 11172.0 707.010   7
   2   7   5 6594.61 433.622  13
  -2   7  -5 6499.54 494.566   7
   2   7   6 4324.17 326.896  13
   2   7   7 1936.71 204.262  13
   2   7   8 80.0755 101.031  13
   2   8 -10 252.657 68.6389  18
   2   8  -9 747.662 146.393  18
   2   8  -9 547.911 84.2138  19
   2   8  -9 745.962 171.033   6
   2   8  -8 1644.05 172.789  19
   2   8  -8 1120.12 252.963   6
   2   8  -7 1949.38 236.309  19
   2   8  -7 2284.47 345.003   6
  -2   8   6 3170.17 287.675   8
   2   8  -6 3244.93 410.810   6
   2   8  -6 3165.63 313.737  19
   2   8  -5 5389.48 452.863  18
  -2   8   5 4807.21 392.338   8
   2   8  -5 5210.86 407.756  19
   2   8  -5 4701.84 483.259   6
   2   8  -4 3254.23 340.980  18
  -2   8   4 3044.12 287.437   7
  -2   8   4 3026.03 319.019   8
  -2   8   4 2954.08 359.968  18
   2   8  -4 3008.92 356.971   6
   2   8  -4 3116.77 311.615  19
  -2   8   3 237.285 176.048   7
   2   8  -3 282.133 162.738  19
   2   8  -3 422.674 187.900  18
  -2   8   3 376.998 203.078  18
  -2   8   3 322.640 195.196   8
   2   8  -3 284.874 166.671   6
   2   8  -2 3237.95 337.139  18
  -2   8   2 3504.10 354.653  18
  -2   8   2 3392.80 321.792   8
  -2   8   2 3672.74 341.632   7
   2   8  -2 3111.99 302.871  19
   2   8  -1 3940.32 367.999  18
  -2   8   1 3424.03 333.841   8
  -2   8   1 3330.87 351.813  18
  -2   8   1 3516.11 345.300   7
  -2   8   0 1025.41 221.052  18
   2   8   0 801.077 224.845  18
   2   8   0 1164.50 244.436  17
  -2   8   0 1116.50 223.511   7
   2   8   1 2483.32 305.148  18
  -2   8  -1 2599.45 295.457  18
   2   8   2 14416.2 898.902  18
  -2   8  -2 14278.1 885.940   7
  -2   8  -2 15434.9 876.891  18
   2   8   2 14580.0 779.408  13
  -2   8  -3 2261.56 275.031  18
   2   8   3 2055.91 212.766  13
  -2   8  -3 1989.33 294.825   7
   2   8   3 2527.92 327.891  18
   2   8   4 3101.10 259.073  13
  -2   8  -4 2692.24 302.323  18
  -2   8  -4 2683.01 329.560   7
   2   8   5 195.876 149.557  13
  -2   8  -5 256.181 192.000   7
   2   9  -9 859.096 108.432  18
   2   9  -8 1839.24 209.269  18
   2   9  -7 4025.14 371.896   6
   2   9  -7 3911.25 284.068  19
   2   9  -6 409.293 166.424  19
  -2   9   5 535.718 193.863   8
   2   9  -5 1043.76 207.905  19
   2   9  -4 3136.85 339.204  18
  -2   9   4 3086.82 323.243   8
   2   9  -4 2735.76 293.679  19
   2   9  -3 1049.21 240.432  18
  -2   9   3 1235.64 279.660  18
  -2   9   3 1168.33 249.556   8
  -2   9   3 975.582 221.514   7
  -2   9   2 7109.74 561.084  18
  -2   9   2 7285.96 529.641   8
  -2   9   2 6705.55 530.872   7
   2   9  -2 7905.06 547.212  17
   2   9  -2 7560.53 557.252  18
   2   9  -1 1115.25 259.601  17
   2   9  -1 832.724 239.474  18
  -2   9   1 1144.44 250.723   7
  -2   9   1 803.923 242.082  18
   2   9   0 1813.23 298.769  17
   2   9   0 1543.07 300.366  18
  -2   9   0 1383.58 261.511   7
  -2   9   0 1656.79 274.331  18
   2   9   1 1819.38 293.536  18
  -2   9  -1 1343.19 247.896  18
   2   9   1 1394.90 285.820  17
   2   9   2 540.865 229.708  18
  -2   9  -2 597.623 203.165  18
  -2   9  -2 666.000 234.249   7
  -2   9  -3 3343.26 333.362  18
   2   9   3 3577.42 386.790  18
  -2   9  -3 3377.49 374.786   7
  -2   9  -4 3683.52 368.202   7
  -2   9  -5 3611.95 332.294   7
   2  10  -8-12.0999 71.0534  18
   2  10  -7 518.863 93.2689  17
   2  10  -6 3354.34 270.675  17
   2  10  -5 2332.48 261.433  17
   2  10  -4 376.977 215.999  18
   2  10  -4 389.283 183.120  17
   2  10  -3 1259.64 226.515  17
   2  10  -3 818.534 230.969  18
  -2  10   2-20.1197 214.942  18
   2  10  -2 75.1268 203.251  18
  -2  10   2 88.5523 199.615   7
   2  10  -2 102.845 181.526  17
   2  10  -1 676.995 228.359  18
   2  10  -1 546.749 226.784  17
  -2  10   1 611.308 244.244   7
  -2  10   1 845.790 236.648  18
  -2  10   0 824.448 227.290  18
   2  10   0 655.023 218.936  18
   2  10   0 816.313 241.543  17
  -2  10   0 846.229 240.337   7
   2  10   1 896.317 241.821  18
  -2  10  -1 726.758 216.101  18
   2  10   1 688.108 254.254  17
  -2  10  -1 659.649 247.208   7
   2  10   2 4990.71 435.602  18
  -2  10  -2 4889.94 403.623  18
  -2  10  -3 4243.96 402.237   7
  -2  10  -4 112.548 175.526   7
   2  11  -5 441.923 119.143  17
   2  11  -4 1935.80 248.784  18
   2  11  -4 1399.13 201.662  17
   2  11  -3 201.202 155.372  17
   2  11  -3 60.9287 165.637  18
   2  11  -2 2992.71 309.221  18
   2  11  -2 2789.08 291.293  17
   2  11  -1 1667.23 239.643  17
   2  11  -1 1741.67 259.650  18
  -2  11   1 1251.60 259.342   7
  -2  11   1 1701.58 247.064  18
   2  11   0 236.609 189.900  18
   2  11   0 251.319 192.444  17
  -2  11   0 58.7230 166.941  18
  -2  11   0 190.689 206.502   7
  -2  11  -1 1496.67 222.044  18
   2  11   1 1153.26 225.558  18
  -2  11  -1 1363.58 255.024   7
   2  11   2 1160.40 235.979  18
  -2  11  -2 328.061 204.679   7
  -2  11  -3 1203.46 215.835   7
   2  12  -4 2653.74 228.490  18
   2  12  -3-118.143 129.352  18
   2  12  -3-78.3567 102.466  17
   2  12  -2 735.490 147.597  18
   2  12  -2 408.794 135.181  17
   2  12  -1 643.956 156.263  18
   2  12   0 870.349 164.157  18
   3  -9   2 130.793 98.7578   3
   3  -9   3 1904.47 179.939   3
   3  -9   4 1183.04 153.020   3
   3  -9   5 291.119 115.772   3
   3  -9   6 178.465 81.3500   3
   3  -8   1 2091.75 198.261   3
   3  -8   2 1022.58 164.997   3
   3  -8   3 1212.13 188.861   3
   3  -8   4 77.5184 160.397   3
   3  -8   5 4249.61 319.249   3
   3  -8   6 4131.15 291.668   3
   3  -8   7 252.251 96.1736   3
   3  -7   0 928.461 149.644   3
   3  -7   1 2787.94 240.595   3
   3  -7   2 5188.46 365.869   3
   3  -7   3 2343.68 251.527   3
   3  -7   4 1340.54 220.386   3
   3  -7   5 228.364 161.215   3
   3  -7   6 502.067 164.940   3
   3  -7   7 2717.00 221.566   3
   3  -6  -1 20346.5 1040.19   3
   3  -6   0 8493.10 490.756   3
   3  -6   1 8724.17 514.567   3
   3  -6   2 1063.96 170.615   3
   3  -6   3 5100.35 368.771   3
   3  -6   4 6276.24 429.209   3
   3  -6   5 2107.21 253.050   3
   3  -6   6 7759.83 491.998   3
   3  -6   8 246.130 105.487   3
   3  -5   1 17976.7 937.891   3
   3  -5   2 21743.7 1126.96   3
   3  -5   3 4367.38 316.254   3
   3  -5   4 3063.86 266.804   3
   3  -5   7 1135.86 185.547   3
   3  -5   8 4036.82 276.909   3
  -3  -4  10 1460.36 166.924   2
   3  -4 -10 1463.70 247.261  12
  -3  -4   9 1770.24 208.778   2
   3  -4  -9 1753.87 299.942  12
   3  -4  -8 7470.79 623.771  12
  -3  -4   8 7771.47 489.799   2
   3  -4  -8 7727.29 1201.38  11
   3  -4  -7 1012.13 536.226  11
   3  -4  -7 974.187 264.121  12
  -3  -4   7 790.938 179.308   2
  -3  -4   6 945.044 179.885   2
   3  -4  -6 1387.08 266.531  12
   3  -4  -5 5130.05 423.615  12
   3  -4  -4 804.944 181.170  12
   3  -4  -3 3873.07 536.409  10
   3  -4  -2 11953.9 939.627  10
  -3  -4   1 18950.9 1414.94   1
   3  -4   0 39069.4 1917.11   9
  -3  -4   0 41315.1 2457.12   1
   3  -4   1 1384.85 133.038   9
   3  -4   2 1152.14 154.679   3
   3  -4   3 13122.4 716.023   3
  -3  -4  -4 4296.26 809.694  11
   3  -4   5 11814.0 675.982   3
  -3  -4  -5 9435.19 1301.81  11
   3  -4   6 2814.74 272.603   3
  -3  -4  -6 767.697 708.738  11
   3  -4   7 4036.84 315.953   3
  -3  -4  -8 368.614 202.917  12
   3  -4   8 499.699 142.539   3
   3  -3 -11 2574.71 286.732  12
  -3  -3  10 3133.46 269.128   2
   3  -3 -10 2840.66 370.157  12
   3  -3  -9 2565.82 833.040  11
   3  -3  -9 3322.91 428.752  12
  -3  -3   9 3793.73 316.294   2
   3  -3  -8 284.440 549.149  11
   3  -3  -8 472.888 288.856  12
  -3  -3   8 507.359 184.248   2
   3  -3  -7 383.641 526.373  11
   3  -3  -7 578.724 222.682  12
  -3  -3   7 902.963 197.274   2
  -3  -3   6 1653.29 226.143   2
   3  -3  -6 2224.20 293.416  12
   3  -3  -6 1622.75 586.819  11
   3  -3  -5 3468.19 698.229  11
   3  -3  -5 4404.40 377.192  12
   3  -3  -4 24225.4 1305.36  12
   3  -3  -2 14406.9 1122.09  10
  -3  -3   2 16806.5 1295.46   1
   3  -3  -1 4068.75 489.317  10
  -3  -3   1 2885.23 505.448   1
  -3  -3   0 2414.40 464.880   1
   3  -3   1 37890.3 1856.92   9
   3  -3   2 27900.3 1390.65   9
   3  -3   3 14318.1 762.804   3
   3  -3   5 2266.27 243.851   3
  -3  -3  -5 2098.09 670.576  11
   3  -3   6 5647.39 396.400   3
  -3  -3  -6 5286.66 1070.73  11
   3  -3   7 470.766 170.399   3
   3  -3   8 4607.57 318.393   3
  -3  -3  -9 4480.29 388.731  12
  -3  -2  11 196.054 128.548   2
   3  -2 -11 257.358 197.461  12
   3  -2 -10 1191.62 310.590  12
  -3  -2  10 1549.88 219.501   2
   3  -2  -9 1056.75 603.920  11
   3  -2  -9 1172.46 299.761  12
  -3  -2   9 1127.65 221.899   2
  -3  -2   8 1621.32 239.422   2
   3  -2  -8 1370.13 307.165  12
  -3  -2   7 2269.80 266.215   2
   3  -2  -7 2440.67 361.956  12
   3  -2  -6-108.807 419.879  11
  -3  -2   6 253.482 160.224   2
   3  -2  -6 215.086 217.650  12
   3  -2  -5 14376.6 872.320  12
   3  -2  -5 14205.8 1363.16  11
   3  -2  -4 5296.90 408.568  12
   3  -2  -4 5839.28 765.220  11
   3  -2  -3 4713.85 348.749  12
   3  -2  -2 7410.04 705.634  10
  -3  -2   2 5538.08 705.390   1
   3  -2  -1 16429.4 1156.43  10
  -3  -2   1 15027.0 1207.42   1
  -3  -2   0 16359.8 934.025   5
  -3  -2  -1 8582.83 555.322   5
   3  -2   1 9257.30 494.178   9
   3  -2   2 418.122 102.754   9
   3  -2   3 4111.61 505.118  16
   3  -2   4 5476.56 602.626  16
   3  -2   4 5468.77 358.052   3
   3  -2   5 9333.49 924.888  16
   3  -2   5 11070.6 617.145   3
  -3  -2  -5 10551.3 1341.23  11
   3  -2   6 7677.79 835.611  16
   3  -2   6 8265.20 501.840   3
  -3  -2  -6 7846.49 1297.79  11
   3  -2   7 1827.52 212.265   3
  -3  -2  -7 2685.14 858.208  11
  -3  -2  -9-20.1795 180.913  12
  -3  -1  11 3632.08 283.614   2
   3  -1 -11 3134.25 367.603  12
  -3  -1  10 3191.12 300.640   2
   3  -1 -10 3144.99 423.669  12
   3  -1  -9 2129.14 813.694  11
  -3  -1   9 3236.06 316.304   2
   3  -1  -9 2636.19 392.993  12
   3  -1  -8 1474.28 675.405  11
  -3  -1   8 1205.37 235.879   2
   3  -1  -8 1156.91 297.934  12
   3  -1  -7 1853.29 727.471  11
  -3  -1   7 1622.45 240.866   2
   3  -1  -7 2347.97 357.467  12
   3  -1  -6 6779.15 989.327  11
  -3  -1   6 5257.01 405.811   2
   3  -1  -6 5543.91 478.946  12
   3  -1  -5 29126.9 1582.49  12
   3  -1  -5 29257.1 2204.46  11
   3  -1  -4 13694.4 807.052  12
   3  -1  -4 13267.4 1247.58  11
   3  -1  -3 23364.5 1244.98  12
   3  -1  -2 10589.6 905.527  10
  -3  -1   2 10497.0 991.412   1
  -3  -1   1 5360.87 657.766   1
   3  -1  -1 5576.11 590.530  10
  -3  -1   0 5450.00 431.011   5
   3  -1   1 9832.26 536.601   9
  -3  -1  -1 10408.3 661.797   5
  -3  -1  -2 40305.0 2235.70   5
   3  -1   2 43054.2 2079.50   9
   3  -1   3 32057.2 1890.02  16
   3  -1   4 17753.7 1275.71  16
   3  -1   4 18110.9 938.718   3
   3  -1   5 212.308 313.364  16
   3  -1   5 432.716 133.989   3
   3  -1   6 478.410 390.930  16
   3  -1   6 238.902 127.092  13
  -3  -1  -6 290.278 501.066  11
   3  -1   6 423.540 142.045   3
   3  -1   7 3943.36 610.084  16
   3  -1   7 3347.59 263.999  13
   3  -1   7 3889.63 275.545   3
  -3  -1  -7 3567.72 942.824  11
  -3  -1  -9 2866.61 358.003  12
  -3   0  11 480.982 150.323   2
   3   0 -11 148.975 193.872  12
   3   0 -10-27.0109 229.957  12
  -3   0  10 244.346 184.844   2
   3   0  -9-151.894 524.286  11
   3   0  -9 207.183 270.504  12
  -3   0   9 373.284 203.233   2
   3   0  -8 1189.10 678.864  11
  -3   0   8 488.555 189.694   2
   3   0  -8 349.968 267.183  12
   3   0  -8 451.770 203.611   6
   3   0  -7 4447.83 1012.88  11
  -3   0   7 4554.75 385.972   2
   3   0  -7 5385.02 431.334   6
   3   0  -7 4675.37 490.808  12
   3   0  -6 6129.72 989.867  11
  -3   0   6 6641.98 473.313   2
   3   0  -6 6909.41 556.819  12
   3   0  -6 7019.44 498.521   6
   3   0  -5 3559.55 707.176  11
   3   0  -5 3416.41 346.314  12
   3   0  -5 4112.12 339.436   6
   3   0  -4 1179.55 479.331  11
   3   0  -4 1320.11 210.699  12
   3   0  -4 946.081 176.856   6
   3   0  -3 153.281 133.646  12
   3   0  -2 6940.65 717.071  10
  -3   0   2 7597.65 799.247   1
   3   0  -1 6096.46 633.274  10
  -3   0   1 5696.83 666.102   1
  -3   0   0 826.468 199.641   5
   3   0   1 6126.12 366.754   9
  -3   0  -1 7496.52 543.642   5
   3   0   2 36154.7 1806.33   9
  -3   0  -2 39492.3 2054.74   5
   3   0   3 16163.0 1117.01  16
   3   0   4 268.712 264.665  16
   3   0   4 443.688 116.478  13
   3   0   5 10366.5 921.770  16
   3   0   5 8678.58 521.158  13
   3   0   5 9252.26 514.924   3
   3   0   6 9507.23 947.631  16
   3   0   6 8711.02 522.161  13
   3   0   6 8703.99 503.611   3
  -3   0  -6 10785.2 1446.31  11
   3   0   7 1334.27 491.871  16
   3   0   7 836.995 167.429  13
  -3   0  -7 314.691 544.416  11
   3   0   8 1073.05 159.065  13
   3   0   9 648.955 107.214  13
  -3   1  11 4157.55 311.060   2
   3   1 -11 3959.77 404.262  12
  -3   1  10 5350.62 386.530   2
   3   1 -10 4078.95 478.397  12
   3   1  -9 1216.47 750.031  11
  -3   1   9 2762.68 285.037   2
   3   1  -9 1421.17 342.297  12
   3   1  -9 2670.04 334.252   6
  -3   1   8 1752.71 261.878   2
   3   1  -8 897.113 600.203  11
   3   1  -8 1231.52 329.462  12
   3   1  -8 1641.87 283.994   6
   3   1  -7 1348.08 619.325  11
  -3   1   7 1613.95 241.681   2
   3   1  -7 1141.93 276.151  12
   3   1  -7 1636.76 275.171   6
  -3   1   6 8578.83 566.092   2
   3   1  -6 8577.18 637.042  12
   3   1  -6 9043.54 612.516   6
   3   1  -6 9472.96 1199.56  11
   3   1  -5 27900.9 1456.34  12
   3   1  -5 25185.7 1412.49   6
   3   1  -5 25988.9 2048.53  11
   3   1  -4 15663.4 890.283  12
   3   1  -4 15001.7 870.324   6
   3   1  -4 15540.8 1359.42  11
   3   1  -3 20756.8 1148.96  12
   3   1  -3 22181.4 1148.52   6
  -3   1   2 13026.3 1107.29   1
   3   1  -2 11908.8 979.671  10
   3   1  -1 4532.59 526.198  10
  -3   1   1 4407.24 589.663   1
  -3   1   0 4312.57 410.527   5
   3   1   1 8745.33 485.774   9
  -3   1  -1 9627.17 689.431   5
   3   1   2 37745.3 1822.74   9
  -3   1  -2 33232.0 2075.80   5
   3   1   3 33649.3 1963.73  16
   3   1   4 12239.0 1026.00  16
   3   1   4 13681.5 727.008  13
   3   1   5 53.8154 293.670  16
   3   1   5 133.246 136.913  13
   3   1   6 240.825 360.066  16
   3   1   6 244.343 157.811  13
  -3   1  -6 712.332 567.800  11
   3   1   7 3937.40 676.332  16
   3   1   7 5809.88 388.761  13
  -3   1  -7 5161.03 1110.35  11
   3   1   8 8665.49 511.767  13
   3   1   9 2682.33 204.651  13
  -3   1  -9 2560.74 342.450  12
  -3   2  11 131.625 127.001   2
   3   2 -11-18.8523 182.105  12
   3   2 -10 1462.08 315.692  12
  -3   2  10 1456.91 212.076   2
   3   2 -10 1563.71 261.357   6
   3   2  -9 905.470 603.552  11
   3   2  -9 790.814 290.561  12
   3   2  -9 1718.69 302.450   6
  -3   2   9 985.716 208.416   2
   3   2  -8 2994.26 904.130  11
  -3   2   8 4098.10 359.700   2
   3   2  -8 4307.22 476.765  12
   3   2  -8 4414.72 443.359   6
   3   2  -7 2943.26 794.405  11
  -3   2   7 3585.90 331.474   2
   3   2  -7 3999.43 416.622  12
   3   2  -7 3019.20 382.187   6
   3   2  -6 1446.99 562.753  11
  -3   2   6 2229.79 246.569   2
   3   2  -6 2176.21 305.391  12
   3   2  -6 1780.33 290.902   6
   3   2  -5 12408.8 781.151  12
   3   2  -5 13210.9 799.445   6
   3   2  -5 11731.6 1241.45  11
   3   2  -4 4496.90 689.751  11
   3   2  -4 5109.71 400.370  12
   3   2  -4 5457.35 411.158   6
   3   2  -3 2724.87 258.674  12
   3   2  -2 10668.4 898.879  10
  -3   2   2 11013.4 1011.14   1
  -3   2   1 16524.8 1313.87   1
   3   2  -1 18823.8 1258.88  10
  -3   2   0 12660.9 866.722   5
   3   2   1 10242.1 553.907   9
  -3   2  -1 11146.9 792.627   5
  -3   2  -2 199.070 213.941   5
   3   2   2 277.848 98.0089   9
   3   2   3 3521.32 450.372  16
   3   2   4 6281.81 666.256  16
   3   2   4 5769.68 374.206  13
   3   2   5 9115.16 862.853  16
   3   2   5 8813.83 534.730  13
  -3   2  -5 9421.43 1257.58  11
   3   2   6 4575.82 630.732  16
   3   2   6 4410.00 335.832  13
  -3   2  -6 5050.93 984.637  11
   3   2   7 3691.17 614.431  16
   3   2   7 4378.73 334.242  13
  -3   2  -7 4399.59 979.906  11
   3   2   8 1065.58 179.684  13
   3   2   9 386.034 111.944  13
  -3   2  -9 260.378 180.388  12
   3   3 -12 958.896 96.6251  19
   3   3 -11 2934.63 313.060  12
  -3   3  11 3808.14 256.447   2
  -3   3  10 5538.98 375.478   2
   3   3 -10 4809.47 466.230  12
   3   3 -10 5448.30 457.006   6
   3   3  -9 2574.93 769.140  11
  -3   3   9 3072.20 292.148   2
   3   3  -9 3683.29 394.016   6
   3   3  -9 3139.21 411.451  12
   3   3  -8 733.839 604.088  11
   3   3  -8 631.029 273.930  12
   3   3  -8 859.355 262.401   6
  -3   3   8 941.717 203.788   2
   3   3  -7 265.552 478.007  11
  -3   3   7 610.881 189.016   2
   3   3  -7 912.683 289.953  12
   3   3  -7 811.185 241.801   6
   3   3  -6 3208.14 782.660  11
  -3   3   6 3510.90 312.335   2
   3   3  -6 3974.91 388.391  12
   3   3  -6 3607.49 392.913   6
   3   3  -5 3573.90 689.155  11
   3   3  -5 3670.22 349.823  12
   3   3  -5 3846.57 365.775   6
   3   3  -4 18323.7 1025.43  12
   3   3  -3 13134.3 729.096  12
   3   3  -3 11760.5 744.229   6
   3   3  -2 11761.9 972.515  10
   3   3  -2 12856.7 733.322   6
  -3   3   2 11462.8 1098.56   1
  -3   3   1 4272.81 588.863   1
   3   3  -1 4298.26 522.717  10
  -3   3   0 7756.37 835.748   1
  -3   3   0 7078.63 620.107   5
   3   3   1 38140.8 1858.49   9
  -3   3  -1 37839.7 1860.06   8
  -3   3  -1 36695.9 2167.87   5
   3   3   2 27179.0 1357.78   9
  -3   3  -2 27241.5 1726.96   5
  -3   3  -3 16061.0 824.275   7
   3   3   3 14875.3 815.742  13
   3   3   4 3781.70 290.896  13
   3   3   5 855.433 384.233  16
   3   3   5 1187.94 192.474  13
  -3   3  -5 1523.33 608.971  11
   3   3   6 5196.31 378.668  13
  -3   3  -6 5518.03 1018.59  11
   3   3   7 698.210 183.894  13
   3   3   8 4854.06 335.614  13
   3   3   9 3850.39 256.004  13
   3   4 -11 58.6296 100.401  19
   3   4 -10 2177.96 288.229   6
  -3   4   9 2401.81 246.087   2
   3   4  -9 1746.58 325.482  12
   3   4  -9 2363.90 339.360   6
   3   4  -8 5682.10 1060.81  11
  -3   4   8 6839.22 465.767   2
   3   4  -8 7149.21 588.408  12
   3   4  -8 7304.99 608.493   6
  -3   4   7 687.346 181.854   2
   3   4  -7 513.673 479.532  11
   3   4  -7 557.168 258.941  12
   3   4  -7 573.052 250.854   6
   3   4  -6 550.049 452.362  11
  -3   4   6 484.805 164.508   2
   3   4  -6 458.465 217.504  12
   3   4  -6 408.312 240.831   6
  -3   4   5 2744.73 268.883   2
   3   4  -5 3470.90 335.650  12
   3   4  -4 1116.77 190.826  12
   3   4  -4 902.055 230.525   6
   3   4  -3 5426.41 642.334  10
   3   4  -3 5325.44 433.423   6
   3   4  -2 7529.76 728.364  10
   3   4  -2 7933.88 518.490   6
  -3   4   2 7444.60 664.803   5
  -3   4   1 18366.9 1256.00   5
  -3   4   1 21197.3 1521.29   1
   3   4   0 45945.5 2240.38   9
  -3   4   0 45507.5 2818.39   1
  -3   4   0 46044.1 2253.04   8
   3   4   1 923.021 112.517   9
  -3   4  -1 685.814 128.799   8
  -3   4  -2 1103.08 346.644   5
   3   4   2 1031.51 149.920  13
  -3   4  -3 11879.6 670.628   7
  -3   4  -4 6763.97 446.615   7
  -3   4  -4 8609.18 1089.13  11
   3   4   5 8989.44 558.082  13
  -3   4  -5 9360.36 1255.34  11
   3   4   6 1551.78 227.965  13
  -3   4  -6 1401.17 651.072  11
   3   4   7 3563.19 295.432  13
   3   4   8 846.079 152.405  13
   3   4   9 263.080 100.285  13
   3   5 -11 2019.24 162.130  19
   3   5 -10 5118.42 416.481   6
   3   5 -10 4898.52 348.625  19
   3   5  -9 1791.25 310.864   6
   3   5  -8 745.863 278.797   6
   3   5  -7 329.289 214.719  12
  -3   5   7 284.614 136.424   2
   3   5  -6 1510.66 257.363  12
   3   5  -5 5021.35 391.723  12
   3   5  -5 4725.48 468.184   6
  -3   5   4 1910.15 374.113   5
   3   5  -4 1600.54 401.532  10
   3   5  -4 2227.95 293.735   6
   3   5  -3 12928.8 1034.20  10
   3   5  -3 13237.0 752.662  19
   3   5  -3 14109.5 826.385   6
  -3   5   3 12651.9 986.441   5
   3   5  -2 7486.53 468.205  19
   3   5  -2 7223.21 424.852  14
  -3   5   2 8183.76 710.653   5
  -3   5   1 304.915 284.896   5
  -3   5   0 131.113 235.696   1
  -3   5   0 432.530 331.844   5
  -3   5   0 228.329 124.271   8
   3   5   0 310.829 114.419  13
   3   5   0 155.427 106.983  19
   3   5   1 19818.2 1061.77  17
   3   5   1 19625.3 1006.90  13
   3   5   1 19793.9 996.986  15
  -3   5  -1 17076.7 1460.41   1
  -3   5  -1 19105.6 1024.60   8
   3   5   2 22980.5 1250.57  17
   3   5   2 23337.3 1177.00  15
   3   5   2 22998.7 1186.26  13
   3   5   3 3537.53 282.139  13
   3   5   3 3316.83 325.183  17
   3   5   3 3889.19 274.970  15
  -3   5  -3 3873.71 308.583   7
   3   5   4 6013.64 409.428  15
   3   5   4 7017.24 439.398  13
  -3   5  -4 6417.31 444.198   7
  -3   5  -4 5574.11 936.343  11
   3   5   5 3325.00 279.867  15
   3   5   5 3470.74 304.369  13
   3   5   9 1668.46 137.664  13
   3   6 -11 444.158 86.6845  18
   3   6 -10 822.327 198.683   6
   3   6 -10 1319.72 156.348  19
   3   6  -9 3937.50 408.315   6
   3   6  -9 4546.27 344.369  19
   3   6  -8 3946.11 361.525  19
   3   6  -7 9643.83 736.831   6
   3   6  -7 8967.16 621.090  19
   3   6  -6 226.695 204.555  19
   3   6  -6 447.337 261.670   6
  -3   6   5 4076.90 595.905   5
   3   6  -5 5645.78 495.725   6
   3   6  -5 5154.26 398.473  19
  -3   6   4 2862.83 478.080   5
   3   6  -4 3398.52 367.659   6
  -3   6   3 2207.78 417.805   5
   3   6  -3 1936.90 237.670  18
   3   6  -3 2643.06 299.817   6
   3   6  -2 4689.68 349.749  18
  -3   6   2 4095.85 327.997   8
   3   6  -2 4514.22 296.685  13
   3   6  -2 5073.04 355.694  19
  -3   6   2 4274.71 554.292   5
  -3   6   1 20185.3 1056.82   8
   3   6  -1 19832.0 1020.46  14
   3   6  -1 19611.3 1067.35  18
   3   6  -1 19531.0 1015.73  13
   3   6  -1 20285.3 1072.79  19
  -3   6   1 18826.2 1405.06   5
   3   6   0 9137.29 584.842  18
  -3   6   0 9341.56 573.576   8
   3   6   0 9447.87 530.447  14
   3   6   0 10015.1 542.225  13
  -3   6   0 9976.38 942.411   5
   3   6   1 6662.85 486.200  18
  -3   6  -1 7190.36 853.233   5
   3   6   1 7679.11 517.066  17
  -3   6  -1 7539.84 480.502   8
   3   6   1 7977.41 451.685  13
   3   6   2 1254.37 210.879  18
   3   6   2 1252.04 213.314  17
   3   6   2 1133.64 149.697  15
   3   6   2 1272.28 178.060  13
  -3   6  -2 1118.70 211.382   7
  -3   6  -3 4440.44 358.218   7
   3   6   3 4534.78 327.906  13
   3   6   4 7890.97 490.522  13
  -3   6  -4 7236.80 510.916   7
   3   6   5 244.132 180.465  13
  -3   6  -5 336.162 186.920   7
   3   6   6 9507.82 576.523  13
   3   6   7 943.980 172.477  13
   3   6   8 825.924 128.351  13
   3   7 -10 2705.45 216.998  18
   3   7 -10 2688.08 187.022  19
   3   7  -9 1465.12 179.068  19
   3   7  -8 386.093 183.985  19
   3   7  -8 610.142 247.269   6
  -3   7   7 277.628 155.763   8
   3   7  -7 221.519 197.734  19
   3   7  -7 27.0183 233.285   6
   3   7  -6 543.817 218.364  19
   3   7  -6 411.391 240.825   6
   3   7  -5 4164.56 448.944   6
   3   7  -5 4665.67 386.587  19
   3   7  -4 1843.04 252.081  19
  -3   7   4 1096.82 405.269   5
   3   7  -4 1557.77 243.903  18
  -3   7   4 1769.43 254.393   8
   3   7  -4 1619.56 286.823   6
  -3   7   3 11210.6 738.341  18
   3   7  -3 12857.9 750.164  18
  -3   7   3 13892.1 1098.21   5
   3   7  -2 2455.08 257.724  18
  -3   7   2 1789.45 233.962   8
   3   7  -1 1117.02 193.153  18
  -3   7   1 1315.99 448.323   5
  -3   7   1 1146.00 206.029   8
   3   7  -1 908.235 146.854  13
   3   7  -1 857.682 216.026  19
   3   7   0 1545.04 230.515  18
  -3   7   0 1243.64 442.945   5
   3   7   0 1833.78 261.733  17
  -3   7   0 1775.98 247.428   8
   3   7   0 1854.74 191.463  13
   3   7   1 2584.17 287.824  18
   3   7   1 2473.19 304.007  17
  -3   7  -1 2821.97 296.533   7
   3   7   1 2451.80 227.573  13
   3   7   2 7005.34 518.909  18
   3   7   2 7428.63 546.820  17
  -3   7  -2 7638.82 531.818   7
   3   7   2 7550.92 461.463  13
   3   7   3 6640.58 438.913  13
  -3   7  -3 7278.07 511.488   7
   3   7   4 1609.31 221.040  13
  -3   7  -4 1475.65 238.425   7
   3   7   5 382.167 164.752  13
  -3   7  -5 405.941 183.758   7
   3   7   6 182.975 150.079  13
   3   7   7 2264.23 196.664  13
   3   7   8 3635.53 218.243  13
   3   8  -9 927.189 119.726  19
   3   8  -9 1020.90 145.601  18
   3   8  -8 4578.96 374.789  18
   3   8  -8 5262.56 423.995   6
   3   8  -8 4999.43 347.988  19
   3   8  -7 2812.77 322.929  18
   3   8  -7 3947.82 401.230   6
   3   8  -7 3434.41 314.529  19
  -3   8   6 6099.29 439.183   8
   3   8  -6 5719.06 470.102  18
   3   8  -6 6564.04 542.768   6
   3   8  -6 6184.85 469.236  19
   3   8  -5 4423.15 402.469  18
  -3   8   5 4195.68 383.487   8
   3   8  -5 5350.14 467.685   6
   3   8  -5 4945.58 412.126  19
   3   8  -4 2495.57 294.656  18
   3   8  -4 1872.84 248.853  19
  -3   8   4 1980.43 273.741   8
  -3   8   3 2211.96 288.958   8
   3   8  -3 2372.95 283.220  18
   3   8  -3 2106.70 260.049  19
   3   8  -2 1436.45 231.137  18
  -3   8   2 1476.17 477.548   5
   3   8  -1 1542.16 239.062  18
  -3   8   1 1695.38 489.166   5
  -3   8   1 1845.48 261.732   8
   3   8  -1 1802.40 185.515  13
  -3   8   1 1564.23 266.031   7
   3   8   0 7143.92 526.309  18
   3   8   0 6964.82 545.859  17
  -3   8   0 6634.92 504.106   8
   3   8   0 7677.46 439.598  13
   3   8   1 3231.52 338.669  18
   3   8   1 3495.61 369.524  17
   3   8   1 3627.38 273.296  13
  -3   8  -1 3615.33 365.194   7
   3   8   2 843.842 219.975  18
   3   8   2 973.822 247.219  17
   3   8   2 1246.79 174.759  13
  -3   8  -2 835.612 229.158   7
   3   8   3 1113.44 184.959  13
  -3   8  -3 1277.16 252.609   7
   3   8   4 1304.96 188.369  13
  -3   8  -4 1194.59 230.216   7
   3   8   5 2848.71 233.141  13
  -3   8  -5 2067.80 257.739   7
   3   9  -8 232.613 96.5981  19
   3   9  -8 109.952 111.364  18
   3   9  -7-10.0796 137.041  19
   3   9  -7 271.339 154.007  18
   3   9  -6 1122.89 207.000  19
   3   9  -6 1362.78 231.559  18
  -3   9   6 1217.50 199.890   8
   3   9  -5 699.665 192.057  19
   3   9  -5 521.302 192.808  18
  -3   9   5 607.256 200.045   8
   3   9  -4 12760.0 762.155  18
   3   9  -4 11864.8 738.159  19
  -3   9   4 12170.5 753.534   8
  -3   9   3 2341.59 299.747   8
   3   9  -3 2306.97 290.072  18
   3   9  -2 639.714 222.389  17
   3   9  -2 796.397 226.645  18
  -3   9   2 531.421 241.924   7
   3   9  -1 3628.65 358.585  18
  -3   9   1 3587.14 380.488   7
   3   9   0 883.421 226.894  18
  -3   9   0 495.794 224.161   7
   3   9   1 2344.61 295.063  18
  -3   9  -1 2558.60 315.588   7
   3   9   1 2225.28 320.689  17
   3   9   2 975.664 231.141  18
   3   9   2 915.083 259.627  17
  -3   9  -2 1091.23 250.743   7
  -3   9  -3 4932.36 416.298   7
  -3   9  -4 1117.15 224.264   7
   3  10  -7 1305.19 146.192  17
   3  10  -7 1529.93 169.644  18
   3  10  -6 2180.49 244.040  18
   3  10  -6 3113.38 266.652  17
   3  10  -5 3403.79 314.665  18
   3  10  -5 3750.60 333.047  17
   3  10  -4 615.946 184.318  18
   3  10  -4 597.410 202.001  17
   3  10  -3 732.836 215.267  17
   3  10  -3 953.282 212.571  18
   3  10  -2 827.621 209.107  18
   3  10  -2 1162.10 241.748  17
  -3  10   2 593.863 220.235   7
   3  10  -1 590.785 202.342  18
   3  10  -1 620.008 226.361  17
  -3  10   1 576.890 228.029   7
   3  10   0 2766.11 304.329  18
  -3  10   0 2754.28 323.808   7
   3  10   1 2822.77 303.894  18
  -3  10  -2 923.874 220.214   7
  -3  10  -3 216.343 165.381   7
  -3  10  -4 1284.06 188.559   7
   3  11  -6 324.349 94.2558  18
   3  11  -5 1354.77 164.897  17
   3  11  -5 914.081 156.811  18
   3  11  -4 2368.29 239.080  18
   3  11  -4 2542.78 250.979  17
   3  11  -3 4192.34 328.465  18
   3  11  -3 3882.18 332.353  17
   3  11  -2 282.917 151.671  18
   3  11  -2 552.071 172.289  17
   3  11  -1 1444.62 211.289  18
   3  11  -1 1461.81 225.984  17
  -3  11   1 1605.33 246.828   7
   3  11   0 111.819 159.372  17
  -3  11   0-30.2905 172.026   7
  -3  11  -1 1247.54 209.331   7
  -3  11  -2 1897.41 222.791   7
   3  12  -3 1795.45 170.620  17
   4  -9   2 1245.06 137.204   3
   4  -9   3 212.533 104.586   3
   4  -9   4 1319.38 136.968   3
   4  -9   5 744.338 90.2477   3
   4  -8   0 182.201 120.595   3
   4  -8   1 2352.09 217.122   3
   4  -8   2 1206.76 178.423   3
   4  -8   3 3023.73 261.368   3
   4  -8   4 2198.93 220.472   3
   4  -8   5 1120.43 151.854   3
   4  -8   6 389.934 89.6501   3
   4  -7  -1 6895.04 427.544   3
   4  -7   0 6868.05 439.882   3
   4  -7   1 1941.61 226.647   3
   4  -7   2 1228.15 206.815   3
   4  -7   3 1091.47 202.682   3
   4  -7   4 401.051 177.995   3
   4  -7   5 4865.07 342.927   3
   4  -7   6 2393.93 202.141   3
   4  -6  -1 2726.47 244.394   3
   4  -6   0 1153.64 191.716   3
   4  -6   1 2136.80 231.466   3
   4  -6   2 5470.07 395.500   3
   4  -6   3 1889.92 238.574   3
   4  -6   4 1618.89 235.033   3
   4  -6   5 77.3055 166.484   3
   4  -6   7 488.929 109.486   3
   4  -5  -4 2958.29 239.816   4
   4  -5  -3 648.543 135.620   4
   4  -5  -2 5229.84 344.347   3
   4  -5  -1 649.626 151.603   3
   4  -5   0 12949.6 719.629   3
   4  -5   1 10119.4 595.324   3
   4  -5   2 3746.53 311.320   3
   4  -5   3 8987.01 558.918   3
   4  -5   6 1971.90 226.048   3
   4  -5   7 2783.15 221.485   3
  -4  -4  10 4242.62 285.026   2
  -4  -4   9 1499.72 185.965   2
  -4  -4   8 8195.64 514.951   2
   4  -4  -8 7619.72 607.616  12
  -4  -4   7 204.392 161.844   2
   4  -4  -7-24.1480 211.152  12
  -4  -4   6 434.367 181.312   2
   4  -4  -5 175.315 314.904  10
   4  -4  -5 190.192 130.425   4
  -4  -4   5 86.3963 145.029   2
   4  -4  -4 5745.77 820.402  10
   4  -4  -4 7725.40 448.738   4
   4  -4  -3 65.9319 263.373  10
   4  -4  -3 474.744 123.235   4
   4  -4  -2 7212.62 430.907   3
   4  -4  -1 2875.95 233.580   3
  -4  -4   1 2925.55 603.265   1
   4  -4   0 1346.38 150.200   9
  -4  -4   0 1220.55 463.298   1
   4  -4   0 1114.05 166.854   3
   4  -4   1 1235.20 154.166   9
   4  -4   1 1684.46 178.060   3
  -4  -4  -1 1515.19 476.474   1
  -4  -4  -2 6172.35 1017.04   1
   4  -4   2 9124.76 533.592   3
   4  -4   4 3863.42 328.940   3
  -4  -4  -4 3864.26 861.844  11
   4  -4   5 1794.47 241.599   3
   4  -4   6 149.355 156.669   3
   4  -4   7 1544.00 181.960   3
  -4  -3  11 2219.17 181.364   2
   4  -3 -10 712.198 227.436  12
  -4  -3  10 735.472 152.576   2
   4  -3  -9 1004.59 291.279  12
  -4  -3   9 992.624 192.997   2
  -4  -3   8 1752.56 248.734   2
   4  -3  -8 1809.65 339.521  12
  -4  -3   7 1220.08 216.834   2
   4  -3  -7 934.746 272.653  12
  -4  -3   6 18494.3 1087.14   2
   4  -3  -6 20817.0 1169.14  12
   4  -3  -5 317.971 135.435   4
  -4  -3   5 168.827 172.019   2
   4  -3  -4 8749.04 995.571  10
   4  -3  -4 10605.3 581.818   4
   4  -3  -3 271.124 286.470  10
   4  -3  -3 36.4157 109.588   4
   4  -3  -2 12937.7 1092.05  10
  -4  -3   2 8643.53 1059.27   1
  -4  -3   1 6823.44 862.881   1
   4  -3  -1 6538.69 395.258   3
   4  -3   0 4610.23 320.163   9
  -4  -3   0 4079.23 705.986   1
   4  -3   0 5280.29 327.622   3
   4  -3   1 20124.9 1038.36   9
  -4  -3  -1 18781.7 1702.22   1
   4  -3   2 136.147 127.024   9
   4  -3   3 1945.40 227.289   3
   4  -3   4 9373.92 571.874   3
   4  -3   5 4392.86 343.820   3
  -4  -3  -5 4875.67 1011.68  11
   4  -3   6 1748.80 228.376   3
   4  -3   7 6299.92 395.467   3
  -4  -2  11 2552.17 209.666   2
   4  -2 -11 2171.49 269.961  12
  -4  -2  10 5768.70 398.374   2
   4  -2 -10 5507.48 496.377  12
  -4  -2   9 5569.33 419.411   2
   4  -2  -9 5090.98 515.886  12
  -4  -2   8 2261.87 291.741   2
   4  -2  -8 2345.09 371.152  12
  -4  -2   7 4085.29 381.983   2
   4  -2  -7 5095.64 479.952  12
  -4  -2   6 3169.37 321.566   2
   4  -2  -6 2944.65 374.864  12
   4  -2  -5 3576.25 268.247   4
   4  -2  -5 3385.08 361.898  12
   4  -2  -4 26092.2 2051.16  10
   4  -2  -4 30281.1 1498.12   4
   4  -2  -3 47389.3 2901.54  10
   4  -2  -2 11277.1 1033.47  10
  -4  -2   2 10463.2 1118.59   1
  -4  -2   1 4591.94 709.841   1
  -4  -2   0 1248.02 420.681   1
   4  -2   1 2961.23 240.465   9
   4  -2   1 2897.83 230.088   3
   4  -2   2 18640.6 936.240   9
   4  -2   2 16750.9 924.223   3
   4  -2   3 16056.4 864.696   3
   4  -2   4 7234.76 458.965   3
   4  -2   5 2264.06 236.922   3
  -4  -2  -5 1765.43 740.296  11
   4  -2   6 1987.30 222.826   3
  -4  -1  11 1299.58 173.863   2
   4  -1 -11 1369.24 250.723  12
   4  -1 -10 393.515 226.819  12
  -4  -1  10 463.510 178.119   2
   4  -1  -9-146.644 438.739  11
   4  -1  -9 429.551 284.618  12
  -4  -1   9 607.939 217.314   2
  -4  -1   8 3822.03 372.420   2
   4  -1  -8 3048.03 405.682  12
   4  -1  -7 4654.58 1030.99  11
  -4  -1   7 4980.70 431.815   2
   4  -1  -7 5103.87 514.365  12
  -4  -1   6 7206.51 540.999   2
   4  -1  -6 8002.86 617.249  12
   4  -1  -5 20702.4 1083.49   4
   4  -1  -5 21929.4 1230.15  12
   4  -1  -4 22521.8 1264.40  12
   4  -1  -3 9023.62 948.406  10
  -4  -1   3 9185.20 1071.74   1
  -4  -1   2 13039.0 1296.13   1
   4  -1  -2 16934.3 1285.23  10
   4  -1  -1 16394.8 1286.45  10
  -4  -1   1 14066.6 1338.60   1
  -4  -1   0 13854.6 1392.98   1
  -4  -1   0 17732.0 1089.84   5
   4  -1   1 15310.8 830.887   9
  -4  -1  -1 16335.6 1043.39   5
   4  -1   2 4798.47 314.252   9
   4  -1   2 3957.96 288.574   3
   4  -1   3 1733.09 195.275   3
   4  -1   4 1666.49 197.663   3
   4  -1   5 468.946 152.961   3
   4  -1   6 2937.39 245.253   3
  -4  -1  -6 2265.14 833.204  11
  -4   0  11 1353.47 175.357   2
   4   0 -11 693.180 225.016  12
  -4   0  10 3167.36 292.162   2
   4   0 -10 2852.66 377.510  12
   4   0  -9 6693.51 1224.10  11
  -4   0   9 8482.18 580.191   2
   4   0  -9 8727.71 689.830  12
  -4   0   8 1505.36 292.307   2
   4   0  -8 1272.26 345.793  12
   4   0  -7 580.389 560.851  11
  -4   0   7 718.327 233.969   2
   4   0  -7 803.369 316.290  12
   4   0  -6 128.580 573.099  11
  -4   0   6 506.904 204.880   2
   4   0  -6 280.322 242.877  12
   4   0  -5 9990.09 697.471  12
   4   0  -4 90548.5 4491.59  12
   4   0  -3 111447. 6084.92  10
  -4   0   3 115868. 6370.74   1
  -4   0   2 21258.7 1731.04   1
   4   0  -2 22906.6 1637.45  10
  -4   0   1 1932.73 507.717   1
   4   0  -1 2779.21 500.071  10
  -4   0   0 15674.4 1433.51   1
  -4   0   0 16287.1 1088.23   5
   4   0   1 30601.0 1552.39   9
  -4   0  -1 31129.9 1828.85   5
  -4   0  -2 4675.99 551.536   5
   4   0   2 4933.82 332.335   9
   4   0   2 4844.84 314.573   3
   4   0   3 8170.22 466.487  13
   4   0   3 8073.32 475.801   3
   4   0   4 15559.3 843.746  13
   4   0   4 16313.5 853.732   3
   4   0   5 3312.33 262.738  13
   4   0   5 3314.67 261.422   3
   4   0   6 3248.14 257.633  13
  -4   0  -6 4245.09 1027.57  11
   4   0   7 225.626 114.470  13
  -4   1  11 333.084 131.423   2
   4   1 -11 247.054 188.240  12
   4   1 -10 293.329 234.053  12
  -4   1  10 341.255 177.016   2
   4   1  -9 296.265 532.335  11
   4   1  -9 231.396 243.451  12
  -4   1   9 498.484 202.534   2
   4   1  -8 4438.25 958.298  11
  -4   1   8 3888.09 375.738   2
   4   1  -8 3975.99 472.588  12
   4   1  -7 3859.43 969.438  11
  -4   1   7 4579.78 409.313   2
   4   1  -7 4831.73 498.968  12
  -4   1   6 8211.85 592.935   2
   4   1  -6 9675.75 678.515  12
   4   1  -5 20904.1 1052.70  14
   4   1  -5 19385.5 1187.17  12
   4   1  -4 19804.3 1133.57  12
   4   1  -3 9202.18 976.680  10
  -4   1   3 9294.68 1070.99   1
  -4   1   2 12855.0 1270.34   1
   4   1  -2 14620.3 1197.56  10
   4   1  -1 13348.7 1101.45  10
  -4   1   1 10428.6 1113.81   1
  -4   1   1 10661.4 846.726   5
  -4   1   0 14616.6 1437.87   1
  -4   1   0 18451.0 1183.17   5
   4   1   1 15850.8 853.159   9
  -4   1  -1 16796.2 1163.26   5
  -4   1  -2 3045.40 490.684   5
   4   1   2 3200.22 254.623   9
   4   1   2 3286.67 238.506  13
   4   1   3 1669.91 180.580  13
   4   1   4 459.019 138.507  13
   4   1   5 151.841 148.744  13
   4   1   6 1467.32 199.001  13
  -4   1  -6 1551.36 760.268  11
   4   1   7 2303.86 212.074  13
   4   1   8 1014.11 125.361  13
   4   2 -12 399.330 80.5199  19
  -4   2  11 1304.34 161.822   2
   4   2 -11 1100.71 219.361  12
  -4   2  10 3680.42 301.976   2
   4   2 -10 3447.27 392.401  12
  -4   2   9 6298.26 457.602   2
   4   2  -9 6359.81 569.351  12
  -4   2   8 2979.81 321.622   2
   4   2  -8 2717.61 408.610  12
   4   2  -8 3100.50 384.360   6
  -4   2   7 3552.25 347.988   2
   4   2  -7 3230.13 402.086  12
   4   2  -7 3293.75 389.231   6
  -4   2   6 2224.81 286.270   2
   4   2  -6 2691.42 346.226  12
   4   2  -6 2801.71 343.629   6
   4   2  -5 4463.42 399.467  12
   4   2  -5 3962.12 286.234  14
   4   2  -4 35568.8 1761.16  14
   4   2  -3 42094.3 2661.22  10
   4   2  -2 11504.1 1061.23  10
  -4   2   2 11877.9 1199.00   1
  -4   2   1 7381.55 930.726   1
  -4   2   1 8165.54 708.870   5
  -4   2   0 241.257 223.556   5
  -4   2   0 670.160 437.300   1
  -4   2  -1 1737.45 397.793   5
   4   2   1 1507.39 171.623   9
   4   2   1 1468.02 164.651  13
   4   2   2 19496.5 981.757   9
   4   2   2 18721.4 968.810  13
   4   2   3 11209.0 628.857  13
   4   2   4 4618.85 337.086  13
   4   2   5 3070.65 273.557  13
  -4   2  -5 3553.54 862.861  11
   4   2   6 1905.67 228.737  13
   4   2   7 245.055 140.236  13
   4   2   8 2975.37 215.816  13
   4   3 -12 198.632 60.9292  19
   4   3 -10 644.069 228.469  12
  -4   3  10 931.214 168.827   2
   4   3  -9 1027.72 292.940  12
  -4   3   9 898.205 192.939   2
  -4   3   8 1794.75 263.575   2
   4   3  -8 2512.72 371.715  12
   4   3  -8 2169.03 341.673   6
  -4   3   7 2909.23 318.619   2
   4   3  -7 2790.03 388.810   6
  -4   3   6 14982.3 931.004   2
   4   3  -6 17125.7 1015.60  12
   4   3  -6 17208.2 1038.05   6
  -4   3   5 1655.68 236.952   2
   4   3  -5 1759.33 270.721  12
   4   3  -5 1735.96 307.514   6
   4   3  -4 9799.48 1047.05  10
   4   3  -4 10002.7 563.380  14
   4   3  -3 67.9660 302.831  10
   4   3  -3 131.463 114.025  14
   4   3  -2 15099.4 1219.35  10
  -4   3   2 13166.7 1324.63   1
  -4   3   2 14357.6 1078.03   5
  -4   3   1 3183.90 649.511   1
   4   3  -1 4015.98 272.243  13
  -4   3   1 4436.74 545.321   5
   4   3   0 5397.25 363.380   9
  -4   3   0 5773.72 352.174   8
   4   3   0 6216.53 362.665  15
  -4   3   0 6991.17 952.034   1
   4   3   0 5629.21 354.768  13
  -4   3   0 5878.06 636.091   5
   4   3   1 21671.8 1110.95   9
   4   3   1 21970.9 1106.88  15
   4   3   1 21190.2 1106.39  13
  -4   3  -1 20777.6 1893.93   1
  -4   3  -1 20362.2 1479.31   5
  -4   3  -2 501.703 365.077   5
   4   3   2 586.449 133.394   9
   4   3   2 428.974 150.237  13
   4   3   3 1726.87 212.244  13
   4   3   4 9203.23 560.161  13
   4   3   5 1309.25 218.521  13
  -4   3  -5 1690.90 676.243  11
   4   3   6 1001.34 183.747  13
   4   3   7 4827.50 328.883  13
   4   3   8 750.639 123.109  13
   4   4 -11 240.905 102.389  19
  -4   4   9 2893.37 264.807   2
   4   4  -9 3065.41 358.642  12
  -4   4   8 7604.32 489.192   2
   4   4  -8 6579.35 569.159  12
   4   4  -8 6731.31 588.616   6
  -4   4   7 91.4069 186.385   2
   4   4  -7 704.153 267.519  12
   4   4  -7 331.947 240.625   6
  -4   4   6 96.3571 178.196   2
   4   4  -5 86.3905 344.468  10
  -4   4   5 351.683 175.644   2
   4   4  -4 5847.85 811.683  10
   4   4  -4 7404.69 444.080  14
   4   4  -4 6897.13 459.964  19
  -4   4   3 2618.64 455.847   5
   4   4  -3 1682.04 450.558  10
   4   4  -3 2069.38 205.586  19
   4   4  -3 2104.64 203.652  13
   4   4  -2 8671.58 488.572  14
   4   4  -2 8161.72 480.526  13
   4   4  -2 8155.50 496.305  19
   4   4  -1 911.286 134.680  15
   4   4  -1 728.860 129.071  19
   4   4  -1 1126.15 145.189  14
   4   4  -1 822.149 146.542  13
  -4   4   1 768.999 419.466   1
  -4   4   0 1065.97 367.989   5
   4   4   0 1055.22 147.005   9
  -4   4   0 1209.67 158.245   8
   4   4   0 1184.64 154.395  15
  -4   4   0 1202.17 481.642   1
  -4   4  -1 358.204 332.679   5
   4   4   1 617.641 135.673   9
   4   4   1 792.292 140.392  15
  -4   4  -1 682.379 143.781   8
  -4   4  -1 782.029 459.974   1
  -4   4  -2 10078.4 1043.77   5
   4   4   2 11722.6 649.750  15
   4   4   2 11474.4 650.021  13
   4   4   3 16987.4 925.565  15
  -4   4  -3 17066.1 936.917   7
   4   4   3 17544.6 934.615  13
   4   4   4 838.325 182.755  15
   4   4   4 1040.83 204.185  13
  -4   4  -4 824.544 576.481  11
   4   4   5 839.998 184.262  15
   4   4   5 750.200 187.339  13
  -4   4  -5 498.067 527.522  11
   4   4   6 206.874 144.815  15
   4   4   6 235.273 172.402  13
   4   4   7 1705.63 190.953  13
   4   4   8 746.565 112.418  13
   4   5 -11 665.619 95.2100  19
   4   5 -10 1192.40 171.797  19
   4   5  -9 407.887 171.254  19
   4   5  -8 1865.45 324.140   6
  -4   5   7 1684.67 220.338   2
  -4   5   7 1445.55 449.207   5
  -4   5   6 4897.31 392.634   2
   4   5  -6 6068.44 534.916   6
  -4   5   6 5605.79 747.063   5
   4   5  -6 5552.04 433.764  19
  -4   5   5 2235.27 492.260   5
   4   5  -5 1835.15 490.320  10
   4   5  -5 3009.06 374.709   6
   4   5  -5 2533.04 274.179  19
  -4   5   4 1683.54 427.963   5
   4   5  -4 2553.34 548.930  10
   4   5  -4 2175.65 249.183  19
   4   5  -3 593.352 157.565  19
  -4   5   3 557.161 273.210   5
   4   5  -3 871.554 335.172  10
   4   5  -3 580.141 134.856  14
  -4   5   2 4084.45 590.714   5
   4   5  -2 5053.91 328.629  14
   4   5  -2 4844.54 327.601  13
   4   5  -2 4694.83 350.622  19
  -4   5   1 2135.10 461.123   5
  -4   5   1 1982.90 207.042   8
   4   5  -1 1962.01 198.811  14
   4   5  -1 2031.51 196.767  13
  -4   5   1 1931.02 560.597   1
   4   5  -1 2028.07 216.386  19
   4   5   0 9115.08 560.880  17
   4   5   0 8982.59 495.842   9
   4   5   0 8469.50 508.137  15
  -4   5   0 8268.94 525.458   8
   4   5   0 8823.60 508.073  14
   4   5   0 8877.34 517.986  13
  -4   5   0 8675.61 1067.33   1
   4   5   1 8177.41 540.883  17
   4   5   1 8685.15 501.730  15
  -4   5  -1 8403.28 522.599   8
   4   5   1 8455.16 497.438  14
   4   5   1 8303.53 503.326  13
  -4   5  -1 7030.51 990.556   1
  -4   5  -1 8452.85 927.919   5
  -4   5  -2 6481.29 852.882   5
   4   5   2 7256.53 505.534  17
   4   5   2 7856.46 464.971  15
   4   5   2 6973.10 456.023  14
   4   5   2 8009.46 482.835  13
  -4   5  -2 6483.64 1034.90   1
   4   5   3 8228.92 512.683  15
  -4   5  -3 8622.71 540.406   7
   4   5   4 5129.19 366.367  15
   4   5   5 4433.97 321.962  15
   4   5   6 685.181 174.245  13
   4   5   7 3713.38 264.534  13
   4   5   8 1952.88 145.928  13
   4   6 -10 537.304 120.973  19
   4   6  -9 6011.92 410.729  19
   4   6  -8 2278.78 280.912  19
   4   6  -7 1124.12 300.447   6
  -4   6   6 229.511 338.189   5
   4   6  -6 80.0947 227.306   6
   4   6  -5 89.3978 179.952  19
  -4   6   5-115.424 320.083   5
  -4   6   4 4261.05 628.565   5
   4   6  -4 5125.92 383.659  18
   4   6  -4 5259.41 400.685  19
   4   6  -3 4256.23 335.904  18
   4   6  -3 4855.87 367.738  19
   4   6  -2 279.627 166.673  19
  -4   6   2 290.188 289.640   5
  -4   6   2 326.784 162.916   8
   4   6  -2 394.459 146.520  14
   4   6  -2 540.768 151.653  13
  -4   6   1 1604.58 427.957   5
   4   6  -1 1805.31 202.459  14
  -4   6   1 1731.46 228.038   8
   4   6  -1 1929.60 209.960  13
  -4   6   0 1356.15 490.826   5
   4   6   0 1073.30 215.167  17
   4   6   0 1204.07 179.913  14
  -4   6   0 1298.11 205.351   8
   4   6   0 1247.68 183.098  13
   4   6   1 3119.70 315.048  17
   4   6   1 3292.90 267.655  14
   4   6   1 3210.86 270.619  13
   4   6   2 8596.27 497.690  15
   4   6   2 8119.26 557.526  17
   4   6   2 7653.07 482.786  14
  -4   6  -2 8211.80 548.477   7
   4   6   2 8066.57 504.871  13
   4   6   3 3421.00 286.833  15
   4   6   3 3832.48 312.516  13
  -4   6  -3 3589.69 324.280   7
   4   6   4 1623.36 233.309  13
  -4   6  -4 1509.55 223.521   7
   4   6   5 119.573 171.726  13
   4   7 -10 1106.55 110.318  19
   4   7  -9 260.718 126.548  19
   4   7  -8 1127.31 201.208  19
   4   7  -8 1049.59 195.397  18
  -4   7   8 891.099 157.980   8
   4   7  -7 3106.78 313.314  18
  -4   7   7 3169.87 290.099   8
   4   7  -7 3477.52 331.121  19
   4   7  -6 3148.44 313.887  18
   4   7  -5 10835.4 679.745  18
   4   7  -4 237.005 176.938  19
  -4   7   4 179.960 327.550   5
   4   7  -4 337.821 166.051  18
   4   7  -3 340.123 174.188  19
  -4   7   3 61.0699 316.382   5
   4   7  -3 351.379 165.609  18
  -4   7   3 258.516 170.443   8
   4   7  -2 2148.61 245.873  18
  -4   7   2 1604.71 467.851   5
  -4   7   2 1842.99 248.704   8
   4   7  -2 2496.92 229.523  13
   4   7  -2 2166.87 259.429  19
   4   7  -1 6005.44 421.251  18
   4   7  -1 5843.73 467.515  17
  -4   7   1 5869.37 431.198   8
   4   7  -1 6070.65 388.024  13
  -4   7   0 4700.64 756.337   5
   4   7   0 4508.88 413.771  17
  -4   7   0 5967.00 419.713   8
   4   7   0 5110.57 355.876  13
   4   7   1 1655.99 256.987  17
  -4   7  -1 2337.30 279.060   7
   4   7   1 1741.68 223.614  13
   4   7   2 648.746 201.959  17
   4   7   2 853.949 186.016  13
  -4   7  -2 901.408 217.587   7
   4   7   3 1266.67 202.272  13
  -4   7  -3 1108.70 224.575   7
   4   7   4 439.964 167.958  13
  -4   7  -4 324.585 163.774   7
   4   7   5 4441.41 320.230  13
   4   7   6 3482.76 246.817  13
   4   7   7 1319.42 113.369  13
   4   8  -9 1060.54 119.089  19
   4   8  -8 3558.51 274.670  19
   4   8  -7 848.955 201.896  19
   4   8  -7 1278.88 190.201  18
  -4   8   7 1229.90 176.105   8
   4   8  -6 990.762 223.654  19
   4   8  -6 743.057 185.184  18
  -4   8   6 1098.41 208.156   8
   4   8  -5 2267.38 263.899  18
  -4   8   5 2135.91 273.074   8
   4   8  -4 6241.93 454.135  18
   4   8  -3 6042.66 429.666  18
  -4   8   3 5611.22 422.016   8
   4   8  -3 5499.12 432.739  19
   4   8  -2 4885.50 382.347  18
  -4   8   2 4831.08 384.274   8
   4   8  -1 130.288 153.905  18
  -4   8   1 71.6831 342.722   5
   4   8  -1 373.087 221.076  17
  -4   8   1 235.841 193.957   8
   4   8  -1 518.813 160.499  13
   4   8   0 370.340 214.223  17
   4   8   0 306.556 152.020  13
  -4   8   0 477.118 207.891   7
   4   8   1 3149.09 335.874  17
   4   8   1 2828.38 253.673  13
  -4   8  -1 2808.79 316.899   7
   4   8   2 3725.76 296.494  13
  -4   8  -2 4007.72 355.765   7
   4   8   3 3317.90 267.701  13
  -4   8  -3 3153.30 310.082   7
   4   8   4 2335.46 209.316  13
  -4   8  -4 1725.85 226.753   7
   4   8   5 1811.19 172.270  13
   4   9  -7 1335.85 170.059  19
  -4   9   6 6642.12 427.832   8
   4   9  -6 6290.45 434.922  19
  -4   9   5 3030.80 296.754   8
   4   9  -5 3724.74 316.661  19
  -4   9   4 1421.05 232.721   8
  -4   9   4 1380.70 229.908   7
  -4   9   3 82.6404 192.745   7
   4   9  -2 2118.99 285.235  17
  -4   9   2 1730.00 241.558   8
  -4   9   2 2009.61 276.594   7
   4   9  -1 9889.05 671.882  17
  -4   9   1 10638.6 666.824   7
   4   9   0 1726.21 257.448  17
  -4   9   0 1766.14 242.580   7
   4   9   1 1080.36 228.642  17
  -4   9  -1 1037.27 218.206   7
  -4   9  -2 1809.95 235.643   7
  -4   9  -3 282.723 159.423   7
   4  10  -7 333.098 83.3948  17
   4  10  -6 107.046 118.832  17
   4  10  -5 2272.53 239.733  17
   4  10  -4 3860.80 335.608  17
  -4  10   3 3229.73 308.733   7
   4  10  -2 5354.49 412.122  17
  -4  10   2 5390.95 422.958   7
   4  10  -1 1612.80 230.863  17
  -4  10   1 919.743 209.080   7
   4  10   0 1856.15 243.473  17
  -4  10  -1 268.268 146.817   7
  -4  10  -2 2473.06 237.667   7
   4  11  -5 2329.08 187.091  17
   4  11  -4 209.543 116.996  17
   4  11  -3 522.305 135.396  17
   4  11  -1 1607.90 187.545  17
   5  -9   1 277.441 82.5691   4
   5  -9   2 2334.04 164.483   4
   5  -9   3 573.644 82.0457   4
   5  -8  -1 5012.87 317.768   4
   5  -8   1 8754.38 503.271   3
   5  -8   2 3480.69 262.346   3
   5  -8   3 677.746 138.947   3
   5  -8   4 626.357 109.988   3
   5  -7  -3 5939.37 369.566   4
   5  -7  -2 3531.01 274.792   4
   5  -7   0 713.598 179.302   3
   5  -7   1 279.536 164.246   3
   5  -7   2 349.723 165.339   3
   5  -7   3 6628.33 421.105   3
   5  -7   4 2029.53 198.891   3
   5  -7   5 2062.07 169.630   3
   5  -6  -4 556.383 141.144   4
   5  -6  -3 1777.49 202.102   4
   5  -6  -2 2453.57 240.309   4
   5  -6  -1 5059.85 368.245   3
   5  -6   0 4027.51 329.169   3
   5  -6   1 4830.42 367.964   3
   5  -6   2 13162.7 751.423   3
   5  -6   3 1123.28 207.319   3
   5  -6   4 53.0079 132.029   3
   5  -6   6 2147.83 161.965   3
   5  -5  -5 710.382 152.096   4
   5  -5  -4 1109.36 179.292   4
   5  -5  -3 4344.64 326.476   4
   5  -5  -1 1168.55 197.276   3
   5  -5   0 2698.97 270.644   3
   5  -5   1 3779.70 318.336   3
   5  -5   2 3097.10 300.218   3
   5  -5   3 3071.36 293.004   3
   5  -5   5 728.828 163.980   3
   5  -5   6 2339.75 190.540   3
  -5  -4  10 3250.26 214.029   2
  -5  -4   9 418.746 125.617   2
  -5  -4   8 326.780 148.021   2
  -5  -4   7 7013.91 482.556   2
   5  -4  -6 2603.15 673.797  10
  -5  -4   6 2712.93 292.245   2
   5  -4  -5 10516.7 1208.04  10
   5  -4  -5 10088.7 576.901   4
  -5  -4   5 9326.39 629.834   2
   5  -4  -4 1307.56 487.464  10
   5  -4  -4 2432.55 230.923   4
   5  -4  -3 900.176 178.199   4
   5  -4  -1 2317.17 222.620   9
   5  -4  -1 2279.91 235.599   3
  -5  -4   0 2431.43 637.953   1
   5  -4   0 1752.53 201.527   9
   5  -4   0 1980.84 221.404   3
   5  -4   1 1918.03 204.454   9
   5  -4   1 1801.55 221.127   3
  -5  -4  -1 1359.82 543.752   1
  -5  -4  -2 11634.1 1489.55   1
   5  -4   3 1490.09 220.001   3
   5  -4   4 1541.33 222.897   3
   5  -4   5 950.487 182.521   3
   5  -4   6 4455.49 298.174   3
   5  -4   7 1484.08 114.561  15
  -5  -3  11 195.564 67.9635   2
  -5  -3  10 2148.08 194.847   2
  -5  -3   9 7722.33 487.791   2
  -5  -3   8 9169.18 590.710   2
   5  -3  -7 1756.24 603.667  10
  -5  -3   7 1575.33 253.819   2
   5  -3  -6 416.972 443.724  10
  -5  -3   6 1311.50 236.442   2
   5  -3  -5 771.645 411.493  10
   5  -3  -5 1279.70 188.799   4
  -5  -3   5 1164.48 233.798   2
   5  -3  -4 3673.77 715.142  10
   5  -3  -4 4369.95 317.353   4
   5  -3  -3 9277.05 1056.57  10
   5  -3  -3 10287.9 594.321   4
  -5  -3   2 1774.55 606.751   1
  -5  -3   1 2810.82 694.120   1
   5  -3  -1 3932.74 294.154   3
   5  -3   0 2282.54 228.464   9
  -5  -3   0 1968.56 622.014   1
  -5  -3  -1 135.173 466.706   1
   5  -3   1 357.536 154.135   9
  -5  -3  -2 2141.25 711.528   1
   5  -3   2 2993.67 285.231   3
  -5  -3  -3 3098.19 913.063   1
   5  -3   3 2109.90 250.615   3
   5  -3   4 12179.2 705.928   3
   5  -3   5 2142.68 231.174   3
   5  -3   6 427.051 128.824   3
  -5  -2  11 2854.45 206.447   2
  -5  -2  10 1569.37 191.512   2
  -5  -2   9 1799.42 236.989   2
   5  -2  -8 1898.06 674.872  10
  -5  -2   8 1967.39 280.916   2
   5  -2  -7 3178.65 862.194  10
  -5  -2   7 6100.79 468.126   2
   5  -2  -6 1432.29 541.713  10
  -5  -2   6 1388.43 256.105   2
   5  -2  -5 14978.7 1497.06  10
   5  -2  -5 16129.9 868.595   4
   5  -2  -4 1750.18 559.169  10
   5  -2  -4 2102.62 217.303   4
   5  -2  -3 1544.34 489.729  10
   5  -2  -3 1661.48 189.629   4
  -5  -2   2 235.754 406.907   1
  -5  -2   1 593.275 473.614   1
  -5  -2   0 5152.97 962.042   1
   5  -2   0 6397.36 430.129   9
   5  -2   0 6752.47 394.392  15
   5  -2   0 6368.49 414.399   3
   5  -2   1 666.903 160.732   9
   5  -2   1 790.596 171.130   3
  -5  -2  -2 4983.84 1111.28   1
   5  -2   2 4972.70 365.293   3
   5  -2   3 1188.25 203.417   3
   5  -2   4 229.545 160.710   3
   5  -2   5 2295.74 226.412   3
   5  -2   8 1343.80 105.608  15
  -5  -1  11 402.114 118.195   2
  -5  -1  10 7043.51 456.437   2
  -5  -1   9 9350.03 604.255   2
  -5  -1   8 5952.80 475.592   2
  -5  -1   7 3484.96 372.976   2
   5  -1  -6 827.475 515.028  10
  -5  -1   6 910.476 229.018   2
   5  -1  -5 1706.88 574.570  10
   5  -1  -5 2602.31 243.301   4
   5  -1  -4 8524.86 1043.29  10
   5  -1  -4 7607.35 466.092   4
   5  -1  -3 13393.5 1305.11  10
   5  -1  -2 21705.0 1735.33  10
   5  -1  -2 20924.4 1064.35  15
  -5  -1   2 20325.8 1894.92   1
   5  -1  -1 7300.61 427.694  15
  -5  -1   1 9807.63 778.822   5
   5  -1   0 834.680 180.288   9
   5  -1   0 664.051 136.840  15
  -5  -1   0 878.064 501.069   1
   5  -1   0 787.708 144.744   3
   5  -1   1 536.717 164.445   9
   5  -1   1 605.482 159.046   3
  -5  -1  -1 543.436 469.584   1
   5  -1   2 1714.03 219.148   9
   5  -1   2 1454.38 199.011   3
   5  -1   3 8528.87 526.775   3
   5  -1   4 3678.29 292.620   3
   5  -1   8 321.679 73.7035  15
  -5   0  11 3112.63 240.224   2
  -5   0  10 374.573 163.001   2
  -5   0   9 182.282 189.791   2
  -5   0   8 1248.48 253.134   2
   5   0  -8 1422.96 327.937  12
  -5   0   7 2482.60 335.390   2
   5   0  -6 1583.82 652.817  10
  -5   0   6 2680.02 327.746   2
   5   0  -5 8655.32 1145.43  10
   5   0  -5 8982.67 507.666  14
   5   0  -4 3598.10 757.769  10
   5   0  -4 3655.54 256.098  14
   5   0  -3 976.170 480.548  10
   5   0  -3 1409.64 181.080   4
  -5   0   3 1745.91 624.582   1
   5   0  -2 936.063 442.354  10
   5   0  -2 941.040 136.040  15
   5   0  -2 1053.15 163.606   4
   5   0  -2 670.045 131.699  13
  -5   0   2 830.952 489.256   1
  -5   0   1 18138.3 1770.92   1
   5   0  -1 19188.9 1008.99  15
   5   0  -1 19632.1 1005.74  13
  -5   0   1 22321.9 1399.48   5
  -5   0   0 1310.44 367.834   5
   5   0   0 1224.75 189.570   9
   5   0   0 1463.25 172.509  15
   5   0   0 1493.99 181.186   3
   5   0   0 1409.10 161.574  13
  -5   0   0 1383.44 629.906   1
  -5   0  -1 966.802 367.607   5
   5   0   1 1387.83 201.856   9
  -5   0  -1 1485.44 604.439   1
   5   0   1 1139.92 162.653  13
   5   0   1 1297.48 177.685   3
   5   0   2 2569.63 265.092   9
   5   0   2 2113.63 212.177  13
   5   0   2 2550.59 234.494   3
   5   0   3 121.237 120.602  13
   5   0   3 86.3756 133.593   3
   5   0   4 15.6344 125.081  13
   5   0   4 35.2541 131.695   3
  -5   1  11 533.548 118.138   2
  -5   1  10 6995.89 453.045   2
  -5   1   9 7446.05 522.958   2
  -5   1   8 5676.44 456.656   2
  -5   1   7 3169.97 350.399   2
   5   1  -6 1176.52 552.203  10
  -5   1   6 1095.17 250.668   2
   5   1  -5 3168.56 773.800  10
   5   1  -5 3214.81 247.249  14
   5   1  -4 7598.90 985.172  10
   5   1  -4 7165.10 452.799   4
   5   1  -4 7404.06 435.067  14
   5   1  -3 15865.1 1435.09  10
   5   1  -3 15647.1 837.958   4
   5   1  -2 27076.3 1908.38  10
   5   1  -2 22700.6 1170.23   4
   5   1  -2 22501.4 1160.57  15
   5   1  -2 22703.4 1165.28  13
  -5   1   2 24872.4 1570.51   5
  -5   1   2 18800.8 1922.34   1
   5   1  -1 7685.58 448.818  15
   5   1  -1 7294.98 446.540   4
   5   1  -1 7624.78 451.343  13
  -5   1   1 6003.80 1024.90   1
  -5   1   1 7905.39 759.228   5
  -5   1   0 52.5130 305.712   5
   5   1   0 524.633 168.176   9
   5   1   0 301.094 136.936  15
   5   1   0 446.800 137.928   4
  -5   1   0 259.135 428.558   1
   5   1   0 609.258 143.449  13
  -5   1  -1 548.616 338.714   5
  -5   1  -1 139.039 438.464   1
   5   1   1 369.594 153.769   9
   5   1   1 487.551 147.503  15
   5   1   1 454.512 131.021  13
  -5   1  -2 1087.30 437.361   5
   5   1   2 1618.17 212.036   9
   5   1   2 1146.45 174.556  13
   5   1   2 1117.02 162.301   3
   5   1   3 9361.26 547.233  13
   5   1   4 4364.39 320.282  13
   5   1   5 3283.66 264.960  13
   5   1   6 1342.30 159.788  13
   5   1   7 356.462 119.290  15
   5   1   8 298.010 67.2422  15
  -5   2  11 1788.51 158.752   2
   5   2 -11 1812.77 171.883  19
  -5   2  10 1923.10 202.905   2
  -5   2   9 1767.05 238.139   2
   5   2  -8 365.613 488.605  10
  -5   2   8 1323.09 235.836   2
   5   2  -7 3350.55 822.975  10
  -5   2   7 5122.97 424.665   2
   5   2  -6 4629.82 878.460  10
  -5   2   6 3925.29 374.999   2
   5   2  -5 12366.1 1395.65  10
   5   2  -5 14107.4 760.168  14
   5   2  -4 1194.94 156.394  19
   5   2  -4 1189.06 476.663  10
   5   2  -4 1139.39 161.478  14
   5   2  -3 2224.55 545.148  10
   5   2  -3 2383.88 221.739   4
   5   2  -3 2623.39 221.757  14
  -5   2   2 1131.75 375.459   5
   5   2  -2 894.258 151.993   4
   5   2  -2 850.821 151.620  13
  -5   2   2 984.593 492.215   1
  -5   2   1 364.178 284.885   5
  -5   2   1 381.461 380.755   1
   5   2  -1 513.992 144.449  15
   5   2  -1 522.237 133.408   4
   5   2  -1 551.964 144.167  13
   5   2   0 8216.23 504.595   9
  -5   2   0 8325.76 1236.24   1
   5   2   0 8074.34 467.139   4
   5   2   0 7973.91 475.187  15
   5   2   0 7779.26 471.795  13
  -5   2   0 6741.20 783.075   5
  -5   2  -1 263.226 334.936   5
  -5   2  -1 1032.03 640.513   1
   5   2   1 335.804 148.648   9
   5   2   1 591.086 148.680  15
   5   2   1 438.909 142.888  13
  -5   2  -2 4986.47 789.103   5
   5   2   2 6458.66 411.024  13
   5   2   3 2881.22 263.773  13
   5   2   4 285.416 164.313  13
   5   2   5 949.141 172.491  13
   5   2   6 3623.37 282.318  15
   5   2   6 3609.69 266.121  13
   5   2   7 1056.52 131.662  15
   5   2   7 1119.65 122.213  13
   5   3 -11 35.5236 86.8937  19
  -5   3  10 1823.85 178.454   2
   5   3 -10 1327.77 186.871  19
  -5   3   9 6731.14 448.439   2
  -5   3   8 8981.70 589.283   2
   5   3  -7 2567.10 719.629  10
  -5   3   7 3355.56 339.696   2
   5   3  -6 626.357 456.109  10
  -5   3   6 1202.22 249.340   2
   5   3  -5 885.033 173.958  19
   5   3  -5 958.803 439.723  10
   5   3  -4 5801.75 868.200  10
   5   3  -4 5505.46 367.831  14
   5   3  -4 5298.68 368.559  19
   5   3  -3 10078.5 1097.99  10
   5   3  -3 8455.04 521.914  14
  -5   3   3 11139.9 972.841   5
   5   3  -3 8945.22 521.016  19
  -5   3   2 2204.91 471.415   5
   5   3  -2 1943.98 197.067   4
   5   3  -2 2030.13 203.864  14
   5   3  -2 2349.50 225.481  13
  -5   3   2 1805.10 674.625   1
  -5   3   1 4083.28 610.395   5
  -5   3   1 3958.30 865.653   1
   5   3  -1 4162.69 294.101   4
   5   3  -1 4497.47 318.061  13
  -5   3   0 2098.99 480.875   5
   5   3   0 1758.58 211.051   9
   5   3   0 1957.80 208.570  13
  -5   3   0 2692.37 752.334   1
  -5   3  -1-70.4040 371.208   5
   5   3   1 308.456 152.869   9
  -5   3  -1-307.722 508.400   1
   5   3   1 217.226 135.658  13
  -5   3  -2 3347.73 673.906   5
   5   3   2 2898.32 266.396  15
   5   3   2 3190.20 268.557  13
   5   3   3 223.863 177.535  15
   5   3   3 342.927 160.624  13
  -5   3  -3 342.055 590.319   1
   5   3   4 14013.6 800.500  15
   5   3   4 14233.6 788.545  13
   5   3   5 1629.49 212.435  15
   5   3   5 1471.05 198.292  13
   5   3   6 331.810 133.404  15
   5   3   6 278.669 134.132  13
   5   3   7 230.586 90.4301  13
   5   4 -11 654.315 93.7723  19
   5   4 -10 3084.68 243.263  19
   5   4  -9 571.648 167.246  19
   5   4  -8 894.117 210.679  19
  -5   4   8 879.993 196.375   2
  -5   4   7 6478.89 483.434   2
   5   4  -7 7732.50 504.137  19
  -5   4   6 4681.74 408.926   2
   5   4  -6 5088.92 388.516  19
   5   4  -5 8836.14 1099.39  10
  -5   4   5 8365.02 614.453   2
  -5   4   5 10485.6 1078.05   5
   5   4  -5 9816.85 588.002  19
  -5   4   4 3216.71 645.414   5
   5   4  -4 2340.37 567.901  10
   5   4  -4 2753.24 265.056  14
   5   4  -4 2730.12 260.113  19
   5   4  -3 256.180 128.476  19
   5   4  -3 647.596 176.543  14
   5   4  -2 19.7546 110.008  19
  -5   4   2 62.4070 407.644   5
  -5   4   1 575.064 346.170   5
   5   4  -1 1028.00 176.449   9
  -5   4   1 1051.12 160.399   8
   5   4  -1 969.760 183.592  14
   5   4  -1 1139.91 184.765  13
  -5   4   1 1189.77 605.399   1
  -5   4   0 1375.08 457.500   5
  -5   4   0 1505.45 612.072   1
   5   4   0 1214.03 177.318   9
   5   4   0 1090.64 188.178  15
   5   4   0 1034.55 190.995  13
  -5   4  -1 4824.68 743.319   5
   5   4   1 4821.93 338.539   9
   5   4   1 4295.16 329.501  15
   5   4   1 4323.28 339.933  13
  -5   4  -1 3972.03 880.423   1
  -5   4  -2 8931.09 1436.63   1
   5   4   2 9988.83 594.139  15
   5   4   2 9943.72 595.608  13
   5   4   3 2958.69 287.855  15
   5   4   3 3330.24 296.767  13
  -5   4  -3 3529.30 973.220   1
   5   4   4 1092.46 205.365  15
   5   4   4 1126.17 202.324  13
   5   4   5 971.830 171.715  15
   5   4   5 1254.39 182.902  13
   5   4   6 3749.17 264.044  13
   5   4   7 1419.10 123.553  13
   5   5  -9 4866.36 351.254  19
   5   5  -8 5316.44 398.180  19
   5   5  -7 4644.51 385.746  19
   5   5  -6-72.8611 178.372  19
  -5   5   6 449.283 434.931   5
  -5   5   6 14.2910 151.327   2
   5   5  -5 764.628 187.633  19
  -5   5   5 1475.29 500.385   5
  -5   5   5 1102.61 218.113   2
   5   5  -4 1866.58 235.322  19
  -5   5   4 1589.22 543.605   5
  -5   5   4 1552.31 244.891   2
  -5   5   3 4583.81 721.396   5
   5   5  -3 5750.81 400.229  19
   5   5  -2 1285.66 188.425  19
   5   5  -2 1066.91 164.105   9
  -5   5   2 1509.34 212.213   8
   5   5  -2 1424.32 210.469  14
   5   5  -2 1256.83 187.510  13
  -5   5   1 568.370 401.480   5
   5   5  -1 651.525 166.073  17
   5   5  -1 548.474 138.326   9
  -5   5   1 762.841 179.460   8
   5   5  -1 578.756 162.658  14
   5   5  -1 750.241 185.916  13
  -5   5   0 2808.20 633.035   5
   5   5   0 3041.54 286.938  17
   5   5   0 3083.13 252.186   9
  -5   5   0 3212.83 284.662   8
   5   5   0 3798.92 297.457  14
   5   5   1 4663.27 344.342  15
   5   5   1 4743.01 350.359  14
   5   5   2 1113.02 190.511  15
   5   5   2 1084.84 187.903  14
  -5   5  -2 1205.53 204.240   7
   5   5   3 4422.14 337.712  15
   5   5   3 4653.64 358.695  13
   5   5   4 6077.44 390.139  15
   5   5   4 5683.35 398.912  13
   5   5   5 1987.01 209.100  13
   5   5   6 1295.76 141.502  13
   5   5   7 61.0547 57.6313  13
  -5   6   9 831.795 129.344   8
   5   6  -8 1704.99 217.779  19
   5   6  -7 2360.75 270.210  19
   5   6  -6 6282.67 460.322  19
  -5   6   5 5148.90 761.741   5
   5   6  -5 5470.57 417.863  19
   5   6  -4 522.330 189.195  19
  -5   6   4 816.789 418.838   5
   5   6  -3 1084.11 194.360  19
  -5   6   3 949.541 461.392   5
  -5   6   3 1239.08 206.749   8
  -5   6   2 2602.24 576.857   5
   5   6  -2 1885.98 231.648  14
  -5   6   2 1886.17 245.102   8
   5   6  -2 2070.88 227.023  13
   5   6  -1 5011.04 394.092  17
  -5   6   1 5655.22 394.082   8
   5   6  -1 4948.99 361.028  14
   5   6  -1 4850.97 360.542  13
   5   6   0 1338.46 225.225  17
   5   6   0 1784.38 231.655  14
  -5   6   0 1761.51 226.171   8
   5   6   0 1422.98 208.173  13
   5   6   1 4196.08 321.559  14
   5   6   1 3837.04 323.483  13
   5   6   2 11181.6 638.739  13
  -5   6  -2 10290.4 653.537   7
   5   6   6 1635.49 139.998  13
   5   7  -8 672.115 149.057  19
  -5   7   8 524.757 126.402   8
  -5   7   7 3578.69 290.434   8
   5   7  -7 3339.80 300.069  19
   5   7  -6 474.099 186.877  19
   5   7  -5 1395.46 219.006  19
  -5   7   5 1963.82 253.953   8
   5   7  -4 1895.80 247.075  19
  -5   7   4 1661.15 248.563   8
  -5   7   3 7441.04 501.214   8
   5   7  -2 4736.54 394.260  17
  -5   7   2 4727.36 378.891   8
   5   7  -1 513.066 182.275  17
  -5   7   1 616.265 206.080   8
   5   7  -1 705.533 177.015  13
   5   7   0 341.801 174.263  17
   5   7   0 439.908 167.816  13
   5   7   1 274.183 166.715  13
  -5   7  -1 344.835 189.347   7
   5   7   2 763.158 184.114  13
  -5   7  -2 560.682 183.560   7
   5   7   3 6084.33 395.558  13
   5   7   4 3589.15 266.516  13
   5   7   5 1417.60 141.437  13
  -5   8   7 2354.57 214.649   8
   5   8  -7 2392.78 221.508  19
   5   8  -6 1708.25 223.084  19
  -5   8   6 2127.94 230.705   8
   5   8  -5 1559.09 219.745  19
  -5   8   5 1728.96 231.727   8
  -5   8   4 3301.83 308.455   8
   5   8  -3 233.366 163.859  17
  -5   8   3 359.751 175.561   8
   5   8  -2 2384.30 287.285  17
  -5   8   2 2148.75 262.508   8
   5   8  -1 4970.91 398.041  17
  -5   8   1 5225.85 397.603   7
   5   8   0 3533.36 331.113  17
   5   8   0 4238.72 296.763  13
  -5   8   0 4135.58 342.720   7
   5   8   1 7218.45 431.521  13
  -5   8  -1 6947.88 477.807   7
   5   8   2 2110.71 206.344  13
  -5   8  -2 2131.96 239.699   7
   5   8   3 1100.49 152.295  13
   5   8   4 825.676 116.248  13
   5   9  -6 282.864 129.034  17
  -5   9   6 24.7303 116.598   8
   5   9  -5 936.557 176.005  17
   5   9  -4 1980.24 234.209  17
  -5   9   4 1881.58 230.818   8
  -5   9   4 1678.97 215.095   7
   5   9  -3 7766.18 515.182  17
  -5   9   3 7874.73 502.202   8
  -5   9   3 7683.31 512.388   7
   5   9  -2 3774.59 329.144  17
  -5   9   2 3883.64 326.281   7
   5   9  -1 193.920 156.437  17
  -5   9   1 503.296 165.298   7
  -5   9   0 573.869 157.142   7
  -5   9  -1 420.805 141.810   7
   5  10  -5 847.931 130.260  17
   5  10  -4 2011.39 200.859  17
   5  10  -3 59.1750 116.690  17
   5  10  -2 2162.67 215.965  17
  -5  10   2 2244.51 222.741   7
   6  -8  -1 5646.75 322.087   4
   6  -8   0 536.604 102.853   4
   6  -8   1 228.119 92.8732   4
   6  -8   2 124.654 80.6882   4
   6  -7  -3 2505.58 200.415   4
   6  -7  -2 291.249 123.646   4
   6  -7  -1 1321.49 175.542   4
   6  -7   0 1825.76 200.246   4
   6  -7   4 829.936 89.5846   4
   6  -6  -4 1533.18 181.349   4
   6  -6  -3 2460.73 230.095   4
   6  -6  -2 4353.54 326.991   4
   6  -6  -1 4875.11 358.116   4
   6  -6   2 402.277 155.111   3
   6  -6   3 166.528 118.372   3
   6  -5  -5 7041.96 433.986   4
   6  -5  -4 14626.8 802.304   4
   6  -5  -3 3015.68 275.401   4
   6  -5  -2 277.068 177.158   4
   6  -5   1 4039.26 321.923   3
   6  -5   2 4623.88 346.203   3
   6  -5   4 1324.52 157.025   3
  -6  -4   9 4269.93 263.908   2
  -6  -4   8 3107.34 248.969   2
  -6  -4   7 4584.72 347.167   2
  -6  -4   6 2334.06 270.814   2
   6  -4  -5 124.883 154.902   4
  -6  -4   5 313.338 178.887   2
   6  -4  -4 1203.71 201.605   4
   6  -4  -3 3247.09 293.416   4
   6  -4  -2 14411.8 804.841   9
   6  -4  -2 14472.7 810.969   4
   6  -4  -1 1482.95 196.130   9
   6  -4   0 7301.07 455.537   9
   6  -4   0 6954.93 468.547   3
   6  -4   3 1870.93 217.034   3
   6  -4   4 3348.96 260.685   3
  -6  -3  10 2098.04 157.902   2
  -6  -3   9 578.302 135.623   2
  -6  -3   8 386.532 168.057   2
  -6  -3   7 1015.99 212.945   2
  -6  -3   6 6929.38 506.611   2
   6  -3  -5 1093.38 489.385  10
   6  -3  -5 1493.75 207.535   4
  -6  -3   5 1249.85 254.536   2
   6  -3  -4 5323.27 385.621   4
   6  -3  -3 3260.00 303.410   4
   6  -3  -2 129.656 160.717   9
   6  -3  -2 175.954 173.698   4
   6  -3  -1 433.251 166.838   9
  -6  -3   1 879.750 584.644   1
   6  -3   0 2529.01 253.743   9
  -6  -3   0 3156.66 842.549   1
  -6  -3  -1 3488.29 876.183   1
   6  -3   1 2914.05 234.966  15
   6  -3   1 2915.41 280.891   3
   6  -3   2 8403.65 496.505  15
   6  -3   2 8855.39 540.080   3
   6  -3   3 7130.70 433.785  15
   6  -3   3 7581.73 467.823   3
   6  -3   4 88.7290 108.488  15
   6  -3   4 48.5610 135.670   3
   6  -3   5 285.579 95.5070  15
  -6  -2  10 654.094 114.725   2
  -6  -2   9 3667.11 291.346   2
  -6  -2   8 3767.60 331.011   2
  -6  -2   7 3536.00 344.472   2
   6  -2  -6 321.822 385.433  10
  -6  -2   6 201.635 199.478   2
   6  -2  -5 211.368 447.145  10
   6  -2  -5 484.794 175.382   4
   6  -2  -4 1662.21 618.584  10
   6  -2  -4 1893.51 238.739   4
   6  -2  -3 670.391 176.228   4
  -6  -2   2 13928.8 1700.69   1
   6  -2  -1 4112.02 350.700   9
   6  -2  -1 4672.69 302.341  15
   6  -2  -1 4171.36 345.581   4
  -6  -2   1 3636.01 865.304   1
  -6  -2   0 2503.24 802.545   1
   6  -2   0 2491.17 266.632   9
   6  -2   0 2294.29 211.604  15
   6  -2   1 945.933 183.626   9
   6  -2   1 928.731 164.177  15
  -6  -2  -1 331.330 496.712   1
   6  -2   1 735.609 195.867   3
   6  -2   2 882.133 163.515  15
   6  -2   2 713.554 176.486   3
   6  -2   3 6086.34 394.921  15
   6  -2   3 6012.00 401.251   3
   6  -2   4 8210.45 474.360  15
   6  -2   4 7693.81 465.399   3
   6  -2   5 3313.74 243.491  15
   6  -2   6 1565.08 132.171  15
  -6  -1  11 816.793 96.2117   2
  -6  -1  10 2389.58 208.717   2
  -6  -1   9 1176.27 195.195   2
  -6  -1   8 154.869 192.202   2
  -6  -1   7 600.617 237.402   2
   6  -1  -6 3489.37 784.767  10
  -6  -1   6 3324.89 357.245   2
   6  -1  -5 2150.88 689.140  10
   6  -1  -5 2841.67 275.379   4
   6  -1  -4 109.376 422.054  10
   6  -1  -4 210.641 155.840   4
   6  -1  -4 166.727 120.611  14
  -6  -1   3 4558.80 668.255   5
   6  -1  -2 682.444 186.740   4
  -6  -1   2-153.672 484.775   1
   6  -1  -1 568.517 189.062   9
   6  -1  -1 652.432 145.699  15
   6  -1  -1 842.394 188.546   4
  -6  -1   1 915.503 608.839   1
   6  -1   0 452.115 181.423   9
   6  -1   0 337.291 142.684  15
  -6  -1   0 312.800 517.017   1
  -6  -1  -1 11690.7 1562.77   1
   6  -1   1 12185.1 680.879   9
   6  -1   1 10774.8 641.469  15
  -6  -1  -2-175.977 429.838   1
   6  -1   2 505.821 163.932  15
   6  -1   3 2622.26 249.873  15
   6  -1   4 176.045 148.258  15
   6  -1   5 2205.89 206.377  15
   6  -1   6 660.615 109.366  15
  -6   0  11 125.573 73.6937   2
  -6   0  10 226.116 119.796   2
  -6   0   9 2416.47 256.787   2
  -6   0   8 6836.20 495.635   2
  -6   0   7 410.817 193.394   2
   6   0  -6 839.006 548.042  10
  -6   0   6 635.502 237.852   2
   6   0  -5 579.850 447.431  10
   6   0  -5 63.4054 120.859  14
   6   0  -4 334.209 457.790  10
   6   0  -4 362.945 173.192   4
   6   0  -4 289.196 132.801  14
   6   0  -3 5977.53 407.957   4
  -6   0   3 6709.76 793.323   5
  -6   0   2 3497.16 596.755   5
   6   0  -2 2889.67 270.657   4
  -6   0   1 7983.40 1279.43   1
   6   0  -1 6369.61 477.453   9
   6   0  -1 7701.87 448.961  15
   6   0  -1 7316.14 467.313   4
   6   0   0 1000.42 207.522   9
   6   0   0 1070.56 177.350  15
   6   0   0 1351.50 202.292   4
  -6   0   0 1094.40 605.482   1
   6   0   0 1080.12 160.541  13
   6   0   1 72.6146 168.406   9
   6   0   1 29.2742 157.400  15
   6   0   1 156.646 155.408   4
   6   0   1 103.281 123.447  13
  -6   0  -1 163.178 459.767   1
   6   0   2 2628.97 258.742  15
  -6   0  -2 693.127 655.802   1
   6   0   3 13157.6 742.724  15
   6   0   4 5954.20 396.351  15
   6   0   5 7816.99 461.631  15
   6   0   6 1363.53 138.506  15
  -6   1  11 686.042 90.9310   2
  -6   1  10 2007.66 189.831   2
  -6   1   9 1308.33 206.328   2
  -6   1   8 201.374 181.515   2
  -6   1   7 1200.19 257.363   2
   6   1  -6 1040.41 565.807  10
  -6   1   6 894.534 252.607   2
   6   1  -5 2687.57 744.879  10
   6   1  -5 3891.48 285.006  14
  -6   1   4 1468.61 489.461   5
   6   1  -4 2165.93 662.988  10
   6   1  -4 1971.47 219.534   4
   6   1  -4 2094.06 213.579  14
  -6   1   3 3769.25 627.524   5
   6   1  -3 3342.66 283.349   4
   6   1  -3 3445.50 275.722  14
  -6   1   2 858.749 384.288   5
   6   1  -2 1024.65 182.437   4
  -6   1   2 632.833 500.436   1
  -6   1   1 441.280 363.235   5
   6   1  -1 719.157 201.662   9
   6   1  -1 929.530 179.103  15
   6   1  -1 1023.71 181.485   4
   6   1  -1 956.185 166.034  13
  -6   1   1 1260.71 703.315   1
  -6   1   0 750.732 442.219   5
   6   1   0 804.904 202.835   9
   6   1   0 831.462 179.459  15
  -6   1   0 640.962 530.757   1
   6   1   0 998.993 178.268   4
   6   1   0 632.480 162.959  13
   6   1   1 12860.8 723.444   9
   6   1   1 12722.1 706.311  15
   6   1   1 11577.6 688.809   4
   6   1   1 12514.1 685.735  13
  -6   1  -2 1714.69 712.662   1
   6   1   2 2421.60 261.304  15
   6   1   2 2273.26 221.627  13
   6   1   3 2856.85 273.206  15
   6   1   3 2552.62 226.119  13
   6   1   4 503.531 164.313  15
   6   1   4 230.370 109.672  13
   6   1   5 2140.41 201.367  15
  -6   2  10 249.293 101.141   2
  -6   2   9 3818.56 300.520   2
  -6   2   8 3003.63 296.704   2
  -6   2   7 3861.09 363.326   2
   6   2  -7 3996.67 307.593  19
   6   2  -6-39.3169 123.473  19
   6   2  -6-214.312 452.863  10
  -6   2   6 112.725 223.016   2
  -6   2   5 710.962 420.253   5
   6   2  -5 837.936 490.469  10
   6   2  -5 672.730 155.549  14
  -6   2   4 935.774 463.819   5
   6   2  -4 1441.56 582.230  10
   6   2  -4 994.172 179.414  14
  -6   2   3 1990.49 496.592   5
   6   2  -3 1453.21 208.168  14
   6   2  -2 15200.1 855.073   4
   6   2  -2 16348.7 864.636  13
  -6   2   2 15203.4 1822.57   1
  -6   2   2 17533.1 1352.93   5
  -6   2   1 1056.81 459.281   5
   6   2  -1 1786.96 203.821   4
   6   2  -1 1651.89 228.142   9
   6   2  -1 2087.11 228.891  15
   6   2  -1 1917.35 223.417  13
  -6   2   1 2304.97 791.264   1
  -6   2   0 4326.47 700.658   5
  -6   2   0 3685.18 931.127   1
   6   2   0 3936.12 317.674   9
   6   2   0 3466.93 279.134   4
   6   2   0 3799.79 313.147  15
   6   2   0 3884.05 300.417  13
   6   2   1 529.036 178.314   9
   6   2   1 649.064 194.089  15
   6   2   1 611.817 162.224  13
  -6   2  -1 1022.28 657.941   1
   6   2   2 1291.24 216.476  15
   6   2   2 1463.66 192.253  13
   6   2   3 6600.82 416.644  13
   6   2   4 9963.88 556.785  13
   6   2   5 4308.29 299.658  15
   6   2   5 4602.58 278.526  13
   6   2   6 1979.27 152.970  15
  -6   3   9 1485.02 178.054   2
   6   3  -8 10.3342 135.020  19
  -6   3   8 88.0358 168.088   2
   6   3  -7 1512.26 200.546  19
  -6   3   7 1732.55 258.569   2
  -6   3   6 5125.91 446.344   2
   6   3  -6 6068.35 391.636  19
   6   3  -5 1559.96 183.301  19
  -6   3   5 1548.99 505.724   5
   6   3  -5 2370.58 619.133  10
  -6   3   5 1582.34 281.039   2
  -6   3   4 5471.78 803.291   5
   6   3  -4 6020.27 404.519  14
  -6   3   3 2880.77 581.059   5
   6   3  -3 3406.70 282.931  14
  -6   3   2 135.480 309.407   5
   6   3  -2 82.8047 155.359   9
   6   3  -2 316.190 170.352  14
   6   3  -2 336.608 167.416  13
  -6   3   1 69.4531 360.861   5
   6   3  -1 688.041 175.694   9
   6   3  -1 767.136 167.781  13
  -6   3   1 678.607 676.705   1
  -6   3   0 3598.23 995.888   1
  -6   3   0 3642.17 684.856   5
   6   3   0 3938.91 308.926   9
   6   3   0 3539.02 302.458  15
   6   3   0 3596.30 297.936  13
  -6   3  -1 1112.15 495.685   5
  -6   3  -1 1379.32 666.294   1
   6   3   1 734.311 182.131  13
   6   3   2 13842.0 767.567  13
   6   3   3 7264.90 471.490  15
   6   3   3 7646.29 463.359  13
   6   3   4 240.854 143.536  15
   6   3   4 254.024 136.722  13
   6   3   5 256.907 112.160  15
   6   3   5 195.581 103.858  13
   6   3   6 341.381 73.2331  15
   6   4  -8 5290.84 364.202  19
  -6   4   7 5332.20 390.321   2
   6   4  -7 4765.02 361.261  19
  -6   4   6 2691.23 302.450   2
   6   4  -6 2579.20 251.658  19
   6   4  -5-41.5282 130.814  19
  -6   4   5 90.2558 185.998   2
   6   4  -4 525.158 140.107  19
  -6   4   4 155.147 394.869   5
   6   4  -4 681.154 189.107  14
  -6   4   3 3529.30 694.802   5
   6   4  -3 3821.30 316.172  14
   6   4  -2 14747.9 805.806   9
  -6   4   2 14636.2 792.121   8
   6   4  -2 13811.0 794.705  13
  -6   4   2 13704.8 1275.47   5
  -6   4   1 2592.85 575.504   5
   6   4  -1 3132.63 273.094   9
   6   4  -1 3189.73 282.980  14
   6   4  -1 2901.48 280.921  13
  -6   4   1 2881.37 855.998   1
  -6   4   0 4168.85 743.543   5
   6   4   0 4903.03 348.120   9
   6   4   0 4865.44 357.280  14
   6   4   0 4514.73 348.006  13
  -6   4   0 4506.21 1050.65   1
   6   4   1 3458.27 293.847  15
   6   4   1 3294.46 294.172  14
   6   4   1 3173.33 292.820  13
   6   4   2 209.980 166.688  15
   6   4   2 310.617 149.786  14
   6   4   2 115.885 161.009  13
   6   4   3 3832.45 297.121  15
   6   4   3 3644.27 290.543  13
   6   4   4 4394.60 303.115  15
   6   4   4 4536.23 302.228  13
   6   4   5 5702.13 328.784  13
   6   5  -8 107.507 112.998  19
   6   5  -7 2938.54 257.658  19
   6   5  -6 6242.34 421.855  19
   6   5  -5 5286.80 375.456  19
   6   5  -4 11369.2 650.067  19
  -6   5   3 4078.75 334.913   8
  -6   5   2 689.061 418.567   5
   6   5  -2 660.496 189.318  14
  -6   5   2 466.399 165.999   8
   6   5  -1 816.357 190.514  14
   6   5   0 2618.44 262.336  14
   6   5   0 2793.58 265.446  13
   6   5   1 3783.11 301.947  14
   6   5   1 3351.99 304.733  13
  -6   5  -1 4194.12 315.164   7
   6   5   2 5139.21 365.642  13
   6   5   3 10322.8 585.148  13
   6   5   4 835.782 141.672  13
   6   5   5 129.941 74.6610  13
   6   6  -8 7465.32 437.417  19
   6   6  -7 1318.57 177.084  19
  -6   6   7 1627.01 213.198   8
   6   6  -6 975.503 170.006  19
  -6   6   6 1533.87 247.999   8
   6   6  -5 657.924 156.510  19
  -6   6   5 1136.16 233.667   8
  -6   6   4 1793.26 250.209   8
  -6   6   3 3159.67 298.484   8
  -6   6   2 4209.31 333.105   8
   6   6  -1 7303.71 465.320  14
   6   6  -1 7378.28 466.189  13
   6   6   0 2837.78 265.091  14
  -6   6  -1 3476.64 299.952   7
   6   6   3 875.166 154.353  13
   6   6   4 1637.37 145.644  13
  -6   7   7 1858.80 192.386   8
   6   7  -7 1462.86 166.338  19
  -6   7   6 3186.37 285.283   8
   6   7  -6 2492.28 228.245  19
  -6   7   5 5290.43 407.629   8
  -6   7   4 4677.21 380.176   8
  -6   7   3 3289.73 306.333   8
  -6   7   2 44.2615 155.114   8
   6   7   0 1445.81 185.477  13
  -6   7   0 1130.25 193.958   7
   6   7   1 7201.86 424.358  13
  -6   7  -1 6759.35 445.849   7
   6   7   2 2855.59 226.371  13
   6   7   3 3672.38 241.685  13
  -6   8   5-91.0007 154.534   8
  -6   8   5 45.2794 114.104   7
  -6   8   4 655.625 195.169   8
  -6   8   4 680.677 168.757   7
  -6   8   3 893.933 187.742   8
  -6   8   2 1579.00 205.657   7
  -6   8   1 7183.18 466.202   7
  -6   8   0 1398.30 194.987   7
   7  -7  -2 1388.41 128.672   4
   7  -7  -1 1292.24 127.315   4
   7  -7   0 685.628 99.0515   4
   7  -7   1 653.073 81.6180   4
   7  -6  -3 6560.44 389.168   4
   7  -6  -2 1579.45 171.201   4
   7  -6  -1 211.488 117.936   4
   7  -6   0 2817.04 220.650   4
   7  -6   1 256.318 100.463   4
   7  -6   2 4182.81 249.732   4
   7  -5  -4 289.899 135.360   4
   7  -5  -3 1546.81 191.339   4
   7  -5  -2 3954.84 298.916   4
   7  -5  -1 6625.89 417.443   4
   7  -5   0 1207.82 172.464   4
   7  -5   1 211.687 127.693   4
   7  -5   3 696.041 91.5434   4
  -7  -4   7 362.031 110.554   2
  -7  -4   6 582.399 144.114   2
   7  -4  -5 4687.78 321.216   9
  -7  -4   5 4288.62 340.497   2
   7  -4  -4 6938.85 433.177   9
   7  -4  -4 7585.09 443.135   4
  -7  -4   4 6057.77 454.756   2
   7  -4  -3 4620.20 329.117   9
   7  -4  -3 4940.25 341.968   4
   7  -4  -2 3453.10 261.906   9
   7  -4  -2 3118.25 279.151   4
   7  -4  -1 1456.64 196.447   4
   7  -4   2 3083.53 238.350   4
   7  -4   3 1954.29 164.344   4
  -7  -3   9 231.879 72.0822   2
  -7  -3   8 2933.30 227.793   2
  -7  -3   7 3028.36 260.763   2
  -7  -3   6 1984.66 240.031   2
  -7  -3   5 926.724 206.626   2
   7  -3  -4 105.885 139.221   9
   7  -3  -4 106.378 156.897   4
   7  -3  -3 7601.71 479.987   9
   7  -3  -3 7399.87 474.237   4
   7  -3  -2 3412.00 285.758   9
   7  -3  -2 3503.42 292.898   4
   7  -3  -1 10679.2 614.194   9
   7  -3   0 5763.71 395.254   4
   7  -3   1 1863.80 211.320   4
   7  -3   2 683.667 152.719   4
  -7  -2   9 2294.51 186.017   2
  -7  -2   8 193.866 134.455   2
  -7  -2   7 130.576 150.693   2
  -7  -2   6 234.686 186.050   2
  -7  -2   5 2383.57 290.012   2
   7  -2  -4 5163.36 374.926   4
   7  -2  -3 2115.32 237.052   9
   7  -2  -3 2022.52 189.942  14
   7  -2  -2 3258.87 286.226   9
   7  -2  -1 361.570 160.380   9
   7  -2  -1 299.916 171.254   4
   7  -2   0 1752.08 209.253   9
   7  -2   0 1679.99 223.384   4
   7  -2   1 1847.94 173.344  15
   7  -2   1 1709.57 205.700   4
   7  -2   2 5521.60 343.432  15
   7  -2   2 6334.80 378.346   4
   7  -2   3 574.568 101.104  15
   7  -2   4 1638.88 119.758  15
  -7  -1  10 346.686 71.3307   2
  -7  -1   9 438.348 124.074   2
  -7  -1   8 4510.61 337.078   2
  -7  -1   7 4171.06 355.919   2
  -7  -1   6 1553.67 256.661   2
   7  -1  -4 195.809 118.186  14
   7  -1  -3 2238.36 244.234   4
   7  -1  -3 1867.24 248.794   9
   7  -1  -3 2284.27 207.896  14
   7  -1  -2 3374.24 306.940   9
   7  -1  -2 3549.90 304.349   4
   7  -1  -1 14448.9 795.435   9
   7  -1  -1 13512.5 779.428   4
   7  -1   0 7558.63 470.436   9
   7  -1   0 6973.01 460.705   4
   7  -1   1 2981.53 244.877  15
   7  -1   1 3354.70 265.926   4
   7  -1   2 110.513 114.216  15
   7  -1   3 366.458 113.359  15
   7  -1   4 4420.01 262.396  15
  -7   0  10 1196.42 113.923   2
  -7   0   9 778.936 140.909   2
  -7   0   8 897.566 179.219   2
  -7   0   7 378.510 179.348   2
  -7   0   6 264.303 192.678   2
   7   0  -5 3764.88 267.493  14
   7   0  -4 503.563 138.180  14
   7   0  -3 2363.71 251.049   4
   7   0  -3 2128.47 260.917   9
   7   0  -3 2086.76 219.692  14
   7   0  -2 3506.37 328.230   9
   7   0  -2 4202.68 319.485   4
   7   0  -1 915.986 190.530   9
   7   0  -1 949.796 192.107   4
   7   0   0 2836.94 271.420   9
   7   0   0 2432.41 244.515   4
   7   0   0 2525.50 237.358  15
   7   0   1 758.946 155.854  15
   7   0   2 4937.09 329.021  15
   7   0   3 3687.31 259.733  15
   7   0   4 250.513 98.8196  15
  -7   1  10 275.590 73.0847   2
  -7   1   9 1264.19 156.464   2
  -7   1   8 3522.85 299.714   2
  -7   1   7 3466.57 329.043   2
  -7   1   6 3143.11 340.126   2
   7   1  -5 480.263 139.507  14
   7   1  -4-8.69347 140.705  14
   7   1  -3 1787.39 236.870   9
   7   1  -3 2202.96 224.430  14
   7   1  -2 3011.43 287.632   9
   7   1  -2 2993.64 266.851   4
   7   1  -2 2978.51 262.700  14
   7   1  -1 14075.6 795.588   9
   7   1  -1 14046.4 773.641   4
   7   1   0 6722.99 444.201   9
   7   1   1 2730.98 242.073  15
   7   1   2 96.0510 134.916  15
   7   1   3 847.713 144.353  15
   7   1   4 4933.00 295.601  15
  -7   2   9 1702.92 164.416   2
  -7   2   8 41.4577 136.980   2
  -7   2   7 445.740 188.888   2
  -7   2   6 368.814 202.534   2
  -7   2   5 1605.98 277.626   2
   7   2  -4 6074.83 396.333  14
   7   2  -3 1335.98 204.310   9
   7   2  -3 1498.44 194.953  14
   7   2  -2 3838.46 320.691   9
   7   2  -2 4206.55 321.682  14
   7   2  -1 180.304 153.590   9
   7   2  -1 78.8397 157.496  14
   7   2   0 1567.87 198.323   9
   7   2   1 2663.98 249.410  15
   7   2   1 2655.25 224.080  13
   7   2   2 5588.33 368.671  15
   7   2   2 5624.24 335.953  13
   7   2   3 1059.04 147.306  15
   7   2   3 1137.18 116.132  13
  -7   3   7 2876.52 270.979   2
  -7   3   6 3246.70 322.812   2
  -7   3   5 1181.15 245.326   2
   7   3  -4 136.612 140.284   9
   7   3  -4 207.645 144.117  14
   7   3  -3 7025.50 454.540   9
   7   3  -3 7104.57 448.350  14
   7   3  -2 5159.07 370.832   9
   7   3  -2 5650.11 380.656  14
   7   3  -1 9126.18 540.556   9
   7   3   0 7340.93 458.448  14
   7   3   0 7079.98 438.159  13
   7   3   1 488.696 149.224  14
   7   3   1 461.067 141.455  13
   7   3   2 608.743 139.435  14
   7   3   2 391.642 120.667  13
   7   3   3 946.341 119.093  13
  -7   4   5 5088.68 354.528   8
  -7   4   4 6597.87 488.937   2
   7   4  -3 5402.62 370.563  14
   7   4  -1 1784.03 217.590  14
   7   4   0 1161.30 184.962  14
   7   4   1 6132.94 393.978  14
   7   4   1 6469.59 388.224  13
   7   4   2 2190.62 188.448  13
   7   4   3 1548.30 135.200  13
  -7   5   7 2779.55 234.716   8
  -7   5   6 2934.73 256.699   8
  -7   5   5 1719.73 200.473   8
  -7   5   4 431.195 137.624   8
   7   5  -2 4308.84 308.418  14
   7   5  -1 7051.01 436.649  14
   7   5   0 1956.78 195.223  14
   7   5   1 561.906 133.803  13
   7   5   2 1109.05 134.901  13
  -7   6   5 2756.71 239.524   8
  -7   6   4 2373.43 214.907   8
  -7   6   1 168.602 132.048   7
  -7   7   3 234.381 153.056   7
   8  -5  -2 803.041 103.568   4
   8  -5  -1 39.0612 71.8750   4
   8  -5   0 1422.06 109.737   4
  -8  -4   3 55.9344 98.2845   2
   8  -4  -2 1583.28 156.151   4
   8  -4   0 1860.21 151.112   4
   8  -4   1 1352.83 107.282   4
  -8  -3   6 537.084 112.331   2
  -8  -3   5 2053.02 202.703   2
   8  -3  -4 822.013 122.046   9
  -8  -3   4 738.300 158.911   2
   8  -3  -3 3723.16 265.976   4
   8  -3  -3 4150.36 260.207   9
  -8  -3   3 3642.33 310.631   2
   8  -3  -1 425.642 115.493   4
   8  -3  -1 216.774 72.5701  14
   8  -3   0 521.214 107.492   4
   8  -3   0 342.865 76.5923  14
   8  -3   1 854.760 85.1280  14
  -8  -2   7 5151.15 322.207   2
   8  -2  -6 8819.62 484.827   9
  -8  -2   6 8332.88 508.878   2
   8  -2  -5 1905.56 189.293   9
  -8  -2   5 2330.33 231.650   2
   8  -2  -4 135.946 109.822   9
  -8  -2   4 232.223 161.729   2
   8  -2  -3 965.699 142.404   9
   8  -2  -2 6107.35 362.161   4
   8  -2  -2 5936.53 360.193   9
   8  -2  -2 5469.24 326.429  14
   8  -2  -1 3315.80 233.698   4
   8  -2  -1 2860.96 206.859  14
   8  -2   0 4250.79 258.845   4
   8  -2   0 3556.35 241.440  14
   8  -2   2 1379.57 107.243  14
  -8  -1   8 4282.36 262.702   2
  -8  -1   7 1461.62 165.272   2
   8  -1  -6 1649.34 177.515   9
  -8  -1   6 1628.92 197.224   2
   8  -1  -5 985.967 149.418   9
  -8  -1   5 858.283 187.165   2
   8  -1  -4 4583.24 320.284   9
   8  -1  -3 4658.67 322.829   9
   8  -1  -3 4752.81 287.296  14
   8  -1  -2 2414.95 213.144   4
   8  -1  -2 2291.43 213.829   9
   8  -1  -2 2595.78 193.858  14
   8  -1  -1 1986.01 181.302   4
   8  -1  -1 1803.19 167.443  14
   8  -1   0 541.229 113.267  14
   8  -1   1 137.477 90.0200  14
   8  -1   2 660.481 87.2545  14
  -8   0   8 3212.22 219.679   2
  -8   0   7 12652.1 696.891   2
  -8   0   6 9908.55 593.095   2
  -8   0   5 4548.08 361.733   2
   8   0  -4 62.1925 88.4186  14
   8   0  -3 1315.92 147.402  14
   8   0  -2 5960.94 358.979  14
   8   0  -1 1827.36 175.487  14
   8   0   0 2778.68 211.545  14
   8   0   1 5520.21 327.661  14
   8   0   2 1003.99 103.477  14
  -8   1   8 4408.71 275.021   2
  -8   1   7 1532.17 176.687   2
   8   1  -6 1684.55 177.715   9
  -8   1   6 1496.88 206.094   2
   8   1  -5 1909.62 187.530   9
  -8   1   5 1714.30 241.177   2
   8   1  -4 3057.20 245.604   9
   8   1  -4 2872.57 210.510  14
   8   1  -3 5878.35 387.545   9
   8   1  -3 6365.27 371.620  14
   8   1  -2 2247.87 211.020   9
   8   1  -2 2264.48 200.646  14
   8   1  -1 2024.59 188.068  14
   8   1   0 425.490 118.503  14
   8   1   1 238.901 92.6582  14
   8   1   2 130.928 68.0595  14
  -8   2   7 5794.70 361.788   2
   8   2  -6 7240.47 437.305   9
  -8   2   6 8457.95 486.520   2
   8   2  -5 1570.00 170.503   9
  -8   2   5 1628.04 223.312   2
   8   2  -4 472.088 121.647   9
  -8   2   4 524.251 182.765   2
   8   2  -3 961.659 144.891   9
   8   2  -3 1150.92 152.336  14
   8   2  -2 4607.35 305.733   9
   8   2  -2 4840.26 311.574  14
   8   2  -1 3960.79 271.284  14
   8   2   0 2544.69 204.137  14
   8   2   2 1201.89 100.677  14
   8   3  -3 4333.23 287.749  14
   8   3  -2 4127.29 282.364  14
   8   3   0 418.482 108.331  14
   8   3   1 395.778 83.6864  14
   8   4  -1 6002.00 351.335  14
   8   4   0 852.834 106.900  14
   0   0   0    0.00    0.00   0

TITL 200617D in P2(1)
REM P2(1) (#4 in standard setting)
CELL 1.54184   7.131347  10.445232  10.012972  90.0000 105.4880  90.0000
ZERR   10.00   0.000274   0.000421   0.000480   0.0000   0.0046   0.0000
LATT -1
SYMM -x, y+1/2,-z
SFAC C N O Fe
UNIT 10.00 10.00 10.00 10.00
TREF
HKLF 4
END
;
_shelx_hkl_checksum              33686
_olex2_submission_special_instructions 'No special instructions were received'
_oxdiff_exptl_absorpt_empirical_details
;
Empirical correction (ABSPACK) includes:
- Absorption correction using spherical harmonics
- Frame scaling
;
_oxdiff_exptl_absorpt_empirical_full_max 1.923
_oxdiff_exptl_absorpt_empirical_full_min 0.483
loop_
_space_group_symop_operation_xyz
'x, y, z'
'-x, y+1/2, -z'
loop_
_atom_site_label
_atom_site_type_symbol
_atom_site_fract_x
_atom_site_fract_y
_atom_site_fract_z
_atom_site_U_iso_or_equiv
_atom_site_adp_type
_atom_site_occupancy
_atom_site_site_symmetry_order
_atom_site_calc_flag
_atom_site_refinement_flags_posn
_atom_site_refinement_flags_adp
_atom_site_refinement_flags_occupancy
_atom_site_disorder_assembly
_atom_site_disorder_group
Fe1 Fe 0.81128(8) 0.54670(6) 0.92081(7) 0.0171(2) Uani 1 1 d . . . . .
O16 O 0.3332(4) 0.7096(3) 0.6970(3) 0.0209(7) Uani 1 1 d . . . . .
O12 O 0.1200(5) 0.2947(4) 0.5513(4) 0.0304(9) Uani 1 1 d . . . . .
O11 O -0.0978(5) 0.4026(3) 0.3879(4) 0.0273(8) Uani 1 1 d . . . . .
H11 H -0.163654 0.335274 0.383231 0.041 Uiso 1 1 calc R U . . .
N8 N 0.3406(5) 0.5024(4) 0.6301(4) 0.0190(8) Uani 1 1 d . . . . .
H8 H 0.404832 0.429694 0.647626 0.023 Uiso 1 1 calc R U . . .
C2 C 0.5151(5) 0.5650(6) 0.8607(4) 0.0168(9) Uani 1 1 d . . . . .
C10 C 0.0677(6) 0.3901(5) 0.4855(5) 0.0185(10) Uani 1 1 d . . . . .
C6 C 0.5708(7) 0.4410(5) 0.9187(5) 0.0200(11) Uani 1 1 d . . . . .
H6 H 0.537294 0.361486 0.872280 0.024 Uiso 1 1 calc R U . . .
C4 C 0.7021(6) 0.5895(5) 1.0862(5) 0.0208(13) Uani 1 1 d . . . . .
H4 H 0.770809 0.626720 1.171844 0.025 Uiso 1 1 calc R U . . .
C7 C 0.3892(5) 0.5988(4) 0.7229(5) 0.0166(10) Uani 1 1 d . . . . .
C9 C 0.1854(6) 0.5143(4) 0.5018(5) 0.0173(10) Uani 1 1 d . . . . .
H9 H 0.099229 0.587373 0.511089 0.021 Uiso 1 1 calc R U . . .
C3 C 0.5992(6) 0.6578(5) 0.9652(5) 0.0196(10) Uani 1 1 d . . . . .
H3 H 0.588510 0.748193 0.955662 0.024 Uiso 1 1 calc R U . . .
C19 C 1.0918(8) 0.6149(7) 0.9661(7) 0.0333(15) Uani 1 1 d . . . . .
H19 H 1.156951 0.663508 1.045057 0.040 Uiso 1 1 calc R U . . .
C13 C 0.2612(6) 0.5367(6) 0.3722(4) 0.0197(10) Uani 1 1 d . . . . .
H13 H 0.146152 0.539323 0.289236 0.024 Uiso 1 1 calc R U . . .
C15 C 0.3637(9) 0.6656(6) 0.3831(6) 0.0333(14) Uani 1 1 d . . . . .
H15A H 0.274383 0.733429 0.394751 0.050 Uiso 1 1 calc R U . . .
H15B H 0.404418 0.681360 0.298534 0.050 Uiso 1 1 calc R U . . .
H15C H 0.478273 0.665102 0.463202 0.050 Uiso 1 1 calc R U . . .
C17 C 0.9100(6) 0.5606(9) 0.7491(5) 0.0373(14) Uani 1 1 d . . . . .
H17 H 0.830087 0.565962 0.656715 0.045 Uiso 1 1 calc R U . . .
C14 C 0.3936(8) 0.4297(6) 0.3507(6) 0.0299(13) Uani 1 1 d . . . . .
H14A H 0.507046 0.424395 0.431294 0.045 Uiso 1 1 calc R U . . .
H14B H 0.436675 0.447001 0.267394 0.045 Uiso 1 1 calc R U . . .
H14C H 0.322540 0.348319 0.339550 0.045 Uiso 1 1 calc R U . . .
C5 C 0.6842(7) 0.4571(6) 1.0567(6) 0.0234(11) Uani 1 1 d . . . . .
H5 H 0.739171 0.390217 1.119224 0.028 Uiso 1 1 calc R U . . .
C18 C 0.9790(8) 0.6641(8) 0.8384(8) 0.0389(17) Uani 1 1 d . . . . .
H18 H 0.954076 0.752033 0.816696 0.047 Uiso 1 1 calc R U . . .
C21 C 0.9817(9) 0.4465(7) 0.8225(9) 0.0419(19) Uani 1 1 d . . . . .
H21 H 0.959408 0.361872 0.787009 0.050 Uiso 1 1 calc R U . . .
C20 C 1.0899(8) 0.4800(7) 0.9547(7) 0.0371(17) Uani 1 1 d . . . . .
H20 H 1.152225 0.421903 1.025693 0.045 Uiso 1 1 calc R U . . .
loop_
_atom_site_aniso_label
_atom_site_aniso_U_11
_atom_site_aniso_U_22
_atom_site_aniso_U_33
_atom_site_aniso_U_23
_atom_site_aniso_U_13
_atom_site_aniso_U_12
Fe1 0.0118(3) 0.0214(4) 0.0171(3) 0.0007(4) 0.0023(2) 0.0007(4)
O16 0.0183(15) 0.0148(17) 0.0249(18) 0.0017(14) -0.0023(13) 0.0027(13)
O12 0.0285(17) 0.023(2) 0.033(2) 0.0033(17) -0.0022(16) -0.0024(15)
O11 0.0221(15) 0.0239(19) 0.0288(19) 0.0001(16) -0.0054(15) -0.0089(14)
N8 0.0171(17) 0.0184(19) 0.018(2) 0.0008(16) -0.0017(16) 0.0035(14)
C2 0.0131(16) 0.020(3) 0.018(2) -0.002(2) 0.0040(15) 0.0002(19)
C10 0.0146(19) 0.021(3) 0.019(2) -0.003(2) 0.0022(18) 0.0008(18)
C6 0.018(2) 0.022(3) 0.020(3) 0.005(2) 0.004(2) -0.0023(19)
C4 0.018(2) 0.031(4) 0.013(2) -0.002(2) 0.0033(18) 0.0010(17)
C7 0.0081(16) 0.021(2) 0.020(2) 0.0001(19) 0.0035(17) -0.0012(16)
C9 0.0150(18) 0.017(3) 0.017(2) -0.0008(17) 0.0001(17) 0.0014(15)
C3 0.015(2) 0.024(3) 0.017(2) -0.001(2) -0.0002(19) -0.0021(19)
C19 0.015(2) 0.051(4) 0.034(3) -0.008(3) 0.006(2) -0.010(3)
C13 0.0199(17) 0.019(3) 0.018(2) 0.001(2) 0.0017(15) -0.002(2)
C15 0.038(3) 0.033(3) 0.028(3) 0.006(3) 0.008(2) -0.008(3)
C17 0.022(2) 0.070(4) 0.024(2) 0.004(4) 0.0131(18) 0.002(3)
C14 0.026(2) 0.035(3) 0.031(3) -0.005(3) 0.011(2) 0.005(2)
C5 0.019(2) 0.027(3) 0.023(3) 0.005(2) 0.006(2) 0.002(2)
C18 0.028(3) 0.050(5) 0.043(4) 0.004(3) 0.016(3) -0.006(3)
C21 0.035(3) 0.037(4) 0.065(5) -0.024(4) 0.033(3) -0.003(3)
C20 0.019(3) 0.055(5) 0.040(4) 0.010(4) 0.012(3) 0.014(3)
loop_
_atom_type_symbol
_atom_type_description
_atom_type_scat_dispersion_real
_atom_type_scat_dispersion_imag
_atom_type_scat_source
C C 0.0181 0.0091 'International Tables Vol C Tables 4.2.6.8 and 6.1.1.4'
H H 0.0000 0.0000 'International Tables Vol C Tables 4.2.6.8 and 6.1.1.4'
Fe Fe -1.1336 3.1974 'International Tables Vol C Tables 4.2.6.8 and 6.1.1.4'
N N 0.0311 0.0180 'International Tables Vol C Tables 4.2.6.8 and 6.1.1.4'
O O 0.0492 0.0322 'International Tables Vol C Tables 4.2.6.8 and 6.1.1.4'
loop_
_geom_angle_atom_site_label_1
_geom_angle_atom_site_label_2
_geom_angle_atom_site_label_3
_geom_angle
_geom_angle_site_symmetry_1
_geom_angle_site_symmetry_3
_geom_angle_publ_flag
C2 Fe1 C4 68.50(17) . . ?
C2 Fe1 C3 41.0(2) . . ?
C2 Fe1 C19 154.1(3) . . ?
C2 Fe1 C5 68.5(2) . . ?
C2 Fe1 C20 164.0(3) . . ?
C6 Fe1 C2 41.1(2) . . ?
C6 Fe1 C4 68.1(2) . . ?
C6 Fe1 C3 68.94(18) . . ?
C6 Fe1 C19 163.2(2) . . ?
C6 Fe1 C5 40.5(2) . . ?
C6 Fe1 C21 108.9(2) . . ?
C6 Fe1 C20 126.5(3) . . ?
C3 Fe1 C4 40.7(2) . . ?
C3 Fe1 C19 119.2(2) . . ?
C3 Fe1 C5 68.4(2) . . ?
C19 Fe1 C4 107.6(2) . . ?
C17 Fe1 C2 107.99(18) . . ?
C17 Fe1 C6 120.8(2) . . ?
C17 Fe1 C4 163.2(3) . . ?
C17 Fe1 C3 125.9(3) . . ?
C17 Fe1 C19 68.0(3) . . ?
C17 Fe1 C5 155.4(3) . . ?
C17 Fe1 C18 40.5(3) . . ?
C17 Fe1 C21 40.8(3) . . ?
C17 Fe1 C20 67.9(3) . . ?
C5 Fe1 C4 40.2(2) . . ?
C5 Fe1 C19 126.0(2) . . ?
C18 Fe1 C2 119.8(2) . . ?
C18 Fe1 C6 155.2(2) . . ?
C18 Fe1 C4 125.8(3) . . ?
C18 Fe1 C3 107.1(3) . . ?
C18 Fe1 C19 40.4(3) . . ?
C18 Fe1 C5 162.8(3) . . ?
C18 Fe1 C21 67.9(2) . . ?
C18 Fe1 C20 67.8(3) . . ?
C21 Fe1 C2 127.3(2) . . ?
C21 Fe1 C4 154.1(3) . . ?
C21 Fe1 C3 164.4(3) . . ?
C21 Fe1 C19 67.4(3) . . ?
C21 Fe1 C5 120.7(3) . . ?
C21 Fe1 C20 39.6(3) . . ?
C20 Fe1 C4 120.0(2) . . ?
C20 Fe1 C3 153.9(2) . . ?
C20 Fe1 C19 40.3(2) . . ?
C20 Fe1 C5 108.4(2) . . ?
C10 O11 H11 109.5 . . ?
C7 N8 H8 118.8 . . ?
C7 N8 C9 122.5(4) . . ?
C9 N8 H8 118.8 . . ?
C6 C2 Fe1 69.1(3) . . ?
C6 C2 C7 129.0(5) . . ?
C6 C2 C3 107.4(4) . . ?
C7 C2 Fe1 128.4(3) . . ?
C3 C2 Fe1 69.6(2) . . ?
C3 C2 C7 123.5(5) . . ?
O12 C10 O11 125.0(4) . . ?
O12 C10 C9 124.4(4) . . ?
O11 C10 C9 110.6(4) . . ?
Fe1 C6 H6 125.5 . . ?
C2 C6 Fe1 69.8(3) . . ?
C2 C6 H6 125.9 . . ?
C5 C6 Fe1 70.4(3) . . ?
C5 C6 C2 108.2(5) . . ?
C5 C6 H6 125.9 . . ?
Fe1 C4 H4 126.9 . . ?
C3 C4 Fe1 69.2(3) . . ?
C3 C4 H4 125.8 . . ?
C5 C4 Fe1 69.6(3) . . ?
C5 C4 H4 125.8 . . ?
C5 C4 C3 108.3(5) . . ?
O16 C7 N8 123.2(4) . . ?
O16 C7 C2 120.4(4) . . ?
N8 C7 C2 116.5(4) . . ?
N8 C9 C10 106.7(3) . . ?
N8 C9 H9 108.9 . . ?
N8 C9 C13 113.4(3) . . ?
C10 C9 H9 108.9 . . ?
C10 C9 C13 110.0(4) . . ?
C13 C9 H9 108.9 . . ?
Fe1 C3 H3 125.9 . . ?
C2 C3 Fe1 69.4(3) . . ?
C2 C3 H3 126.2 . . ?
C4 C3 Fe1 70.1(3) . . ?
C4 C3 C2 107.5(5) . . ?
C4 C3 H3 126.2 . . ?
Fe1 C19 H19 126.8 . . ?
C18 C19 Fe1 69.0(3) . . ?
C18 C19 H19 126.3 . . ?
C18 C19 C20 107.4(7) . . ?
C20 C19 Fe1 69.5(4) . . ?
C20 C19 H19 126.3 . . ?
C9 C13 H13 107.9 . . ?
C15 C13 C9 109.9(4) . . ?
C15 C13 H13 107.9 . . ?
C14 C13 C9 112.2(4) . . ?
C14 C13 H13 107.9 . . ?
C14 C13 C15 111.0(4) . . ?
C13 C15 H15A 109.5 . . ?
C13 C15 H15B 109.5 . . ?
C13 C15 H15C 109.5 . . ?
H15A C15 H15B 109.5 . . ?
H15A C15 H15C 109.5 . . ?
H15B C15 H15C 109.5 . . ?
Fe1 C17 H17 125.2 . . ?
C18 C17 Fe1 70.0(4) . . ?
C18 C17 H17 126.3 . . ?
C18 C17 C21 107.4(5) . . ?
C21 C17 Fe1 70.2(3) . . ?
C21 C17 H17 126.3 . . ?
C13 C14 H14A 109.5 . . ?
C13 C14 H14B 109.5 . . ?
C13 C14 H14C 109.5 . . ?
H14A C14 H14B 109.5 . . ?
H14A C14 H14C 109.5 . . ?
H14B C14 H14C 109.5 . . ?
Fe1 C5 H5 126.5 . . ?
C6 C5 Fe1 69.2(3) . . ?
C6 C5 H5 125.7 . . ?
C4 C5 Fe1 70.2(3) . . ?
C4 C5 C6 108.5(5) . . ?
C4 C5 H5 125.7 . . ?
Fe1 C18 H18 125.5 . . ?
C19 C18 Fe1 70.6(4) . . ?
C19 C18 H18 125.8 . . ?
C17 C18 Fe1 69.6(4) . . ?
C17 C18 C19 108.3(7) . . ?
C17 C18 H18 125.8 . . ?
Fe1 C21 H21 126.5 . . ?
C17 C21 Fe1 69.0(3) . . ?
C17 C21 H21 125.9 . . ?
C20 C21 Fe1 70.2(4) . . ?
C20 C21 C17 108.3(6) . . ?
C20 C21 H21 125.9 . . ?
Fe1 C20 H20 125.5 . . ?
C19 C20 Fe1 70.2(4) . . ?
C19 C20 H20 125.7 . . ?
C21 C20 Fe1 70.1(3) . . ?
C21 C20 C19 108.6(7) . . ?
C21 C20 H20 125.7 . . ?
loop_
_geom_bond_atom_site_label_1
_geom_bond_atom_site_label_2
_geom_bond_distance
_geom_bond_site_symmetry_2
_geom_bond_publ_flag
Fe1 C2 2.045(4) . ?
Fe1 C6 2.035(5) . ?
Fe1 C4 2.058(5) . ?
Fe1 C3 2.047(5) . ?
Fe1 C19 2.057(5) . ?
Fe1 C17 2.029(5) . ?
Fe1 C5 2.051(5) . ?
Fe1 C18 2.035(7) . ?
Fe1 C21 2.045(6) . ?
Fe1 C20 2.046(5) . ?
O16 C7 1.229(6) . ?
O12 C10 1.198(6) . ?
O11 H11 0.8400 . ?
O11 C10 1.323(5) . ?
N8 H8 0.8800 . ?
N8 C7 1.352(6) . ?
N8 C9 1.460(5) . ?
C2 C6 1.432(8) . ?
C2 C7 1.474(6) . ?
C2 C3 1.435(7) . ?
C10 C9 1.530(6) . ?
C6 H6 0.9500 . ?
C6 C5 1.413(7) . ?
C4 H4 0.9500 . ?
C4 C3 1.428(7) . ?
C4 C5 1.412(9) . ?
C9 H9 1.0000 . ?
C9 C13 1.551(6) . ?
C3 H3 0.9500 . ?
C19 H19 0.9500 . ?
C19 C18 1.413(10) . ?
C19 C20 1.414(8) . ?
C13 H13 1.0000 . ?
C13 C15 1.522(8) . ?
C13 C14 1.515(8) . ?
C15 H15A 0.9800 . ?
C15 H15B 0.9800 . ?
C15 H15C 0.9800 . ?
C17 H17 0.9500 . ?
C17 C18 1.405(11) . ?
C17 C21 1.422(12) . ?
C14 H14A 0.9800 . ?
C14 H14B 0.9800 . ?
C14 H14C 0.9800 . ?
C5 H5 0.9500 . ?
C18 H18 0.9500 . ?
C21 H21 0.9500 . ?
C21 C20 1.387(10) . ?
C20 H20 0.9500 . ?
loop_
_geom_torsion_atom_site_label_1
_geom_torsion_atom_site_label_2
_geom_torsion_atom_site_label_3
_geom_torsion_atom_site_label_4
_geom_torsion
_geom_torsion_site_symmetry_1
_geom_torsion_site_symmetry_2
_geom_torsion_site_symmetry_3
_geom_torsion_site_symmetry_4
_geom_torsion_publ_flag
Fe1 C2 C6 C5 60.2(3) . . . . ?
Fe1 C2 C7 O16 -97.5(5) . . . . ?
Fe1 C2 C7 N8 82.7(5) . . . . ?
Fe1 C2 C3 C4 -60.0(3) . . . . ?
Fe1 C6 C5 C4 59.3(4) . . . . ?
Fe1 C4 C3 C2 59.5(3) . . . . ?
Fe1 C4 C5 C6 -58.7(3) . . . . ?
Fe1 C19 C18 C17 -59.6(4) . . . . ?
Fe1 C19 C20 C21 59.8(4) . . . . ?
Fe1 C17 C18 C19 60.3(4) . . . . ?
Fe1 C17 C21 C20 -59.5(4) . . . . ?
Fe1 C21 C20 C19 -59.9(5) . . . . ?
O12 C10 C9 N8 -13.4(6) . . . . ?
O12 C10 C9 C13 110.0(5) . . . . ?
O11 C10 C9 N8 167.3(4) . . . . ?
O11 C10 C9 C13 -69.2(5) . . . . ?
N8 C9 C13 C15 -65.3(5) . . . . ?
N8 C9 C13 C14 58.6(5) . . . . ?
C2 C6 C5 Fe1 -59.8(3) . . . . ?
C2 C6 C5 C4 -0.5(6) . . . . ?
C10 C9 C13 C15 175.3(4) . . . . ?
C10 C9 C13 C14 -60.8(5) . . . . ?
C6 C2 C7 O16 169.3(4) . . . . ?
C6 C2 C7 N8 -10.5(6) . . . . ?
C6 C2 C3 Fe1 58.9(3) . . . . ?
C6 C2 C3 C4 -1.0(5) . . . . ?
C7 N8 C9 C10 -136.2(4) . . . . ?
C7 N8 C9 C13 102.5(5) . . . . ?
C7 C2 C6 Fe1 123.1(4) . . . . ?
C7 C2 C6 C5 -176.8(4) . . . . ?
C7 C2 C3 Fe1 -123.2(4) . . . . ?
C7 C2 C3 C4 176.8(4) . . . . ?
C9 N8 C7 O16 -13.4(6) . . . . ?
C9 N8 C7 C2 166.4(4) . . . . ?
C3 C2 C6 Fe1 -59.2(3) . . . . ?
C3 C2 C6 C5 0.9(5) . . . . ?
C3 C2 C7 O16 -8.1(6) . . . . ?
C3 C2 C7 N8 172.2(4) . . . . ?
C3 C4 C5 Fe1 58.5(3) . . . . ?
C3 C4 C5 C6 -0.2(6) . . . . ?
C17 C21 C20 Fe1 58.7(4) . . . . ?
C17 C21 C20 C19 -1.2(7) . . . . ?
C5 C4 C3 Fe1 -58.8(4) . . . . ?
C5 C4 C3 C2 0.7(5) . . . . ?
C18 C19 C20 Fe1 -58.8(4) . . . . ?
C18 C19 C20 C21 1.1(8) . . . . ?
C18 C17 C21 Fe1 60.4(3) . . . . ?
C18 C17 C21 C20 0.9(5) . . . . ?
C21 C17 C18 Fe1 -60.5(3) . . . . ?
C21 C17 C18 C19 -0.2(5) . . . . ?
C20 C19 C18 Fe1 59.1(5) . . . . ?
C20 C19 C18 C17 -0.5(7) . . . . ?
